TSN.pdb
     RDKit          3D

 22 21  0  0  1  0  0  0  0  0999 V2000
   14.7858  -11.1169  -15.1799 C   0  0  0  0  0  0  0  0  0  0  0  0
   15.7988  -12.1641  -14.8388 C   0  0  1  0  0  0  0  0  0  0  0  0
   15.2711  -13.4126  -15.1591 O   0  0  0  0  0  0  0  0  0  0  0  0
   17.1402  -11.9458  -15.5043 C   0  0  2  0  0  0  0  0  0  0  0  0
   18.0054  -13.0578  -15.2860 N   0  0  0  0  0  0  0  0  0  0  0  0
   17.6912  -10.6567  -15.0150 C   0  0  0  0  0  0  0  0  0  0  0  0
   18.0476  -10.5323  -13.8114 O   0  0  0  0  0  0  0  0  0  0  0  0
   17.8763   -6.9982  -17.3144 O   0  0  0  0  0  0  0  0  0  0  0  0
   18.8711   -7.3260  -16.3662 C   0  0  0  0  0  0  0  0  0  0  0  0
   18.3525   -8.2469  -15.3179 C   0  0  2  0  0  0  0  0  0  0  0  0
   17.8583   -9.5004  -15.8222 N   0  0  0  0  0  0  0  0  0  0  0  0
   17.3341   -7.5336  -14.5042 C   0  0  0  0  0  0  0  0  0  0  0  0
   16.0955   -7.5996  -14.7574 O   0  0  0  0  0  0  0  0  0  0  0  0
   16.4401   -5.0199   -8.9073 N   0  0  0  0  0  0  0  0  0  0  0  0
   16.1736   -5.3992  -10.2393 C   0  0  0  0  0  0  0  0  0  0  0  0
   15.0177   -5.0281  -10.6710 O   0  0  0  0  0  0  0  0  0  0  0  0
   17.0865   -6.1528  -11.1260 C   0  0  0  0  0  0  0  0  0  0  0  0
   16.7443   -5.9757  -12.5996 C   0  0  2  0  0  0  0  0  0  0  0  0
   17.7206   -6.7474  -13.4045 N   0  0  0  0  0  0  0  0  0  0  0  0
   16.9947   -4.5548  -12.9313 C   0  0  0  0  0  0  0  0  0  0  0  0
   15.9718   -3.6353  -12.8063 O   0  0  0  0  0  0  0  0  0  0  0  0
   18.0997   -4.1556  -13.3219 O   0  0  0  0  0  0  0  0  0  0  0  0
  2  1  1  6
  3  2  1  0
  4  2  1  0
  4  5  1  1
  4  6  1  0
  6  7  2  0
  9  8  1  0
 10  9  1  6
 10 12  1  0
 11  6  1  0
 11 10  1  0
 12 19  1  0
 13 12  2  0
 15 14  1  0
 16 15  2  0
 17 15  1  0
 18 17  1  1
 19 18  1  0
 20 18  1  0
 20 21  1  0
 22 20  2  0
M  END
$$$$
