TSN.pdb
     RDKit          3D

 22 21  0  0  1  0  0  0  0  0999 V2000
   20.8174  -14.5302  -18.5961 C   0  0  0  0  0  0  0  0  0  0  0  0
   20.4809  -15.5270  -17.5321 C   0  0  1  0  0  0  0  0  0  0  0  0
   20.0255  -16.6923  -18.1440 O   0  0  0  0  0  0  0  0  0  0  0  0
   21.6285  -15.8129  -16.5881 C   0  0  2  0  0  0  0  0  0  0  0  0
   21.3068  -16.8829  -15.7025 N   0  0  0  0  0  0  0  0  0  0  0  0
   21.9772  -14.5480  -15.8928 C   0  0  0  0  0  0  0  0  0  0  0  0
   21.1435  -13.9915  -15.1271 O   0  0  0  0  0  0  0  0  0  0  0  0
   25.2300  -11.0911  -14.6638 O   0  0  0  0  0  0  0  0  0  0  0  0
   24.9688  -12.2552  -15.4206 C   0  0  0  0  0  0  0  0  0  0  0  0
   23.5323  -12.6413  -15.3615 C   0  0  2  0  0  0  0  0  0  0  0  0
   23.2244  -13.8816  -16.0223 N   0  0  0  0  0  0  0  0  0  0  0  0
   22.7051  -11.5177  -15.8726 C   0  0  0  0  0  0  0  0  0  0  0  0
   22.4952  -11.3367  -17.1078 O   0  0  0  0  0  0  0  0  0  0  0  0
   19.3860   -7.3258  -15.9175 N   0  0  0  0  0  0  0  0  0  0  0  0
   18.9798   -8.5367  -15.3193 C   0  0  0  0  0  0  0  0  0  0  0  0
   17.7215   -8.5933  -15.0474 O   0  0  0  0  0  0  0  0  0  0  0  0
   19.8565   -9.6850  -15.0028 C   0  0  0  0  0  0  0  0  0  0  0  0
   21.2949   -9.4596  -15.4503 C   0  0  2  0  0  0  0  0  0  0  0  0
   22.1164  -10.6014  -14.9834 N   0  0  0  0  0  0  0  0  0  0  0  0
   21.7969   -8.2820  -14.7067 C   0  0  0  0  0  0  0  0  0  0  0  0
   21.4605   -7.0124  -15.1337 O   0  0  0  0  0  0  0  0  0  0  0  0
   22.5161   -8.3943  -13.7052 O   0  0  0  0  0  0  0  0  0  0  0  0
  2  1  1  6
  3  2  1  0
  4  2  1  0
  4  5  1  1
  4  6  1  0
  6  7  2  0
  9  8  1  0
 10  9  1  6
 10 12  1  0
 11  6  1  0
 11 10  1  0
 12 19  1  0
 13 12  2  0
 15 14  1  0
 16 15  2  0
 17 15  1  0
 18 17  1  1
 19 18  1  0
 20 18  1  0
 20 21  1  0
 22 20  2  0
M  END
$$$$
