TSN.pdb
     RDKit          3D

 22 21  0  0  1  0  0  0  0  0999 V2000
   18.7324  -11.1271  -17.8835 C   0  0  0  0  0  0  0  0  0  0  0  0
   18.5292  -12.3205  -17.0041 C   0  0  1  0  0  0  0  0  0  0  0  0
   17.7458  -13.2471  -17.6879 O   0  0  0  0  0  0  0  0  0  0  0  0
   19.8218  -12.9416  -16.5213 C   0  0  2  0  0  0  0  0  0  0  0  0
   19.5771  -14.1808  -15.8600 N   0  0  0  0  0  0  0  0  0  0  0  0
   20.5234  -11.9430  -15.6756 C   0  0  0  0  0  0  0  0  0  0  0  0
   19.9397  -11.4254  -14.6844 O   0  0  0  0  0  0  0  0  0  0  0  0
   24.3759  -10.2514  -16.6060 O   0  0  0  0  0  0  0  0  0  0  0  0
   23.9511  -10.3810  -15.2648 C   0  0  0  0  0  0  0  0  0  0  0  0
   22.4671  -10.4295  -15.1581 C   0  0  2  0  0  0  0  0  0  0  0  0
   21.8545  -11.5008  -15.8974 N   0  0  0  0  0  0  0  0  0  0  0  0
   21.9088   -9.1042  -15.5323 C   0  0  0  0  0  0  0  0  0  0  0  0
   21.2977   -8.9090  -16.6236 O   0  0  0  0  0  0  0  0  0  0  0  0
   20.1394   -4.1542  -15.4767 N   0  0  0  0  0  0  0  0  0  0  0  0
   19.4279   -5.3430  -15.2125 C   0  0  0  0  0  0  0  0  0  0  0  0
   18.1500   -5.1892  -15.1524 O   0  0  0  0  0  0  0  0  0  0  0  0
   20.0211   -6.6830  -15.0129 C   0  0  0  0  0  0  0  0  0  0  0  0
   21.5439   -6.6527  -15.0230 C   0  0  2  0  0  0  0  0  0  0  0  0
   22.0429   -8.0025  -14.6690 N   0  0  0  0  0  0  0  0  0  0  0  0
   21.9638   -5.7720  -13.9095 C   0  0  0  0  0  0  0  0  0  0  0  0
   22.4078   -6.3322  -12.7279 O   0  0  0  0  0  0  0  0  0  0  0  0
   21.9305   -4.5376  -13.9991 O   0  0  0  0  0  0  0  0  0  0  0  0
  2  1  1  6
  3  2  1  0
  4  2  1  0
  4  5  1  1
  4  6  1  0
  6  7  2  0
  9  8  1  0
 10  9  1  6
 10 12  1  0
 11  6  1  0
 11 10  1  0
 12 19  1  0
 13 12  2  0
 15 14  1  0
 16 15  2  0
 17 15  1  0
 18 17  1  1
 19 18  1  0
 20 18  1  0
 20 21  1  0
 22 20  2  0
M  END
$$$$
