TSN.pdb
     RDKit          3D

 22 21  0  0  1  0  0  0  0  0999 V2000
   26.8180  -10.4094  -15.4351 C   0  0  0  0  0  0  0  0  0  0  0  0
   26.6889  -11.2316  -16.6787 C   0  0  1  0  0  0  0  0  0  0  0  0
   27.7722  -12.1042  -16.7479 O   0  0  0  0  0  0  0  0  0  0  0  0
   25.3749  -11.9756  -16.7768 C   0  0  2  0  0  0  0  0  0  0  0  0
   25.3963  -12.9099  -17.8535 N   0  0  0  0  0  0  0  0  0  0  0  0
   24.2855  -10.9720  -16.8800 C   0  0  0  0  0  0  0  0  0  0  0  0
   24.0210  -10.4308  -17.9882 O   0  0  0  0  0  0  0  0  0  0  0  0
   20.7940  -11.3566  -15.4317 O   0  0  0  0  0  0  0  0  0  0  0  0
   21.1590  -10.0159  -15.1757 C   0  0  0  0  0  0  0  0  0  0  0  0
   22.3862   -9.6257  -15.9224 C   0  0  2  0  0  0  0  0  0  0  0  0
   23.4802  -10.5504  -15.7889 N   0  0  0  0  0  0  0  0  0  0  0  0
   22.7737   -8.2448  -15.5340 C   0  0  0  0  0  0  0  0  0  0  0  0
   23.5696   -8.0067  -14.5789 O   0  0  0  0  0  0  0  0  0  0  0  0
   23.0479   -2.8908  -15.5678 N   0  0  0  0  0  0  0  0  0  0  0  0
   22.3213   -3.3916  -16.6680 C   0  0  0  0  0  0  0  0  0  0  0  0
   21.8601   -2.4799  -17.4530 O   0  0  0  0  0  0  0  0  0  0  0  0
   22.0696   -4.8186  -16.9644 C   0  0  0  0  0  0  0  0  0  0  0  0
   22.6574   -5.7449  -15.9078 C   0  0  2  0  0  0  0  0  0  0  0  0
   22.2594   -7.1360  -16.2289 N   0  0  0  0  0  0  0  0  0  0  0  0
   21.9800   -5.4252  -14.6309 C   0  0  0  0  0  0  0  0  0  0  0  0
   22.5859   -4.5672  -13.7342 O   0  0  0  0  0  0  0  0  0  0  0  0
   20.8780   -5.9046  -14.3332 O   0  0  0  0  0  0  0  0  0  0  0  0
  2  1  1  1
  3  2  1  0
  4  2  1  0
  4  5  1  6
  4  6  1  0
  6  7  2  0
  9  8  1  0
 10  9  1  1
 10 12  1  0
 11  6  1  0
 11 10  1  0
 12 19  1  0
 13 12  2  0
 15 14  1  0
 16 15  2  0
 17 15  1  0
 18 17  1  6
 19 18  1  0
 20 18  1  0
 20 21  1  0
 22 20  2  0
M  END
$$$$
