GPA.pdb
     RDKit          3D

 17 17  0  0  1  0  0  0  0  0999 V2000
    7.4920  -17.8979   17.6703 N   0  0  0  0  0  0  0  0  0  0  0  0
    6.9508  -16.8611   18.5612 C   0  0  0  0  0  0  0  0  0  0  0  0
    7.9937  -16.2773   19.4023 C   0  0  0  0  0  0  0  0  0  0  0  0
    8.9279  -17.1123   19.7669 O   0  0  0  0  0  0  0  0  0  0  0  0
    8.1285  -14.9587   19.8676 N   0  0  0  0  0  0  0  0  0  0  0  0
    7.8324  -13.8450   18.8714 C   0  0  0  0  0  0  0  0  0  0  0  0
    7.4383  -12.6677   19.7004 C   0  0  0  0  0  0  0  0  0  0  0  0
    7.2942  -13.2501   21.0873 C   0  0  0  0  0  0  0  0  0  0  0  0
    8.4786  -14.2394   21.0215 C   0  0  1  0  0  0  0  0  0  0  0  0
    8.7608  -14.8395   22.2869 C   0  0  0  0  0  0  0  0  0  0  0  0
    7.9511  -14.8995   23.2247 O   0  0  0  0  0  0  0  0  0  0  0  0
    9.5514  -17.4629   23.8318 C   0  0  0  0  0  0  0  0  0  0  0  0
   10.2817  -16.1204   23.8133 C   0  0  2  0  0  0  0  0  0  0  0  0
   10.0525  -15.4429   22.5832 N   0  0  0  0  0  0  0  0  0  0  0  0
   11.7214  -16.3382   24.0996 C   0  0  0  0  0  0  0  0  0  0  0  0
   12.1156  -16.8753   25.1639 O   0  0  0  0  0  0  0  0  0  0  0  0
   12.6790  -15.9452   23.1791 O   0  0  0  0  0  0  0  0  0  0  0  0
  2  1  1  0
  3  2  1  0
  4  3  2  0
  5  3  1  0
  5  6  1  0
  7  6  1  0
  8  9  1  0
  8  7  1  0
  9  5  1  0
  9 10  1  1
 10 14  1  0
 11 10  2  0
 13 14  1  0
 13 15  1  0
 13 12  1  6
 15 17  1  0
 16 15  2  0
M  END
$$$$
