GPA.pdb
     RDKit          3D

 17 17  0  0  1  0  0  0  0  0999 V2000
    8.9014  -15.6260   15.1870 N   0  0  0  0  0  0  0  0  0  0  0  0
    8.1239  -15.2934   16.3897 C   0  0  0  0  0  0  0  0  0  0  0  0
    8.9847  -15.1387   17.5605 C   0  0  0  0  0  0  0  0  0  0  0  0
   10.0094  -15.9462   17.5916 O   0  0  0  0  0  0  0  0  0  0  0  0
    8.8640  -14.2529   18.6441 N   0  0  0  0  0  0  0  0  0  0  0  0
    8.4102  -12.8343   18.3245 C   0  0  0  0  0  0  0  0  0  0  0  0
    7.7813  -12.3282   19.5803 C   0  0  0  0  0  0  0  0  0  0  0  0
    7.6927  -13.5622   20.4480 C   0  0  0  0  0  0  0  0  0  0  0  0
    9.0367  -14.2026   20.0366 C   0  0  1  0  0  0  0  0  0  0  0  0
    9.3750  -15.3309   20.8449 C   0  0  0  0  0  0  0  0  0  0  0  0
    8.6296  -16.3058   21.0260 O   0  0  0  0  0  0  0  0  0  0  0  0
   12.4794  -16.8922   22.1770 C   0  0  0  0  0  0  0  0  0  0  0  0
   10.9879  -16.5814   22.3004 C   0  0  2  0  0  0  0  0  0  0  0  0
   10.6524  -15.4284   21.5371 N   0  0  0  0  0  0  0  0  0  0  0  0
   10.6272  -16.4568   23.7345 C   0  0  0  0  0  0  0  0  0  0  0  0
   10.8650  -17.3694   24.5635 O   0  0  0  0  0  0  0  0  0  0  0  0
   10.0081  -15.3071   24.1967 O   0  0  0  0  0  0  0  0  0  0  0  0
  2  1  1  0
  3  2  1  0
  4  3  2  0
  5  3  1  0
  5  6  1  0
  7  6  1  0
  8  9  1  0
  8  7  1  0
  9  5  1  0
  9 10  1  1
 10 14  1  0
 11 10  2  0
 13 14  1  0
 13 15  1  0
 13 12  1  1
 15 17  1  0
 16 15  2  0
M  END
$$$$
