GPA.pdb
     RDKit          3D

 17 17  0  0  1  0  0  0  0  0999 V2000
    6.9208  -14.1522   20.4799 N   0  0  0  0  0  0  0  0  0  0  0  0
    6.4034  -14.2915   21.8491 C   0  0  0  0  0  0  0  0  0  0  0  0
    7.4863  -14.4069   22.8237 C   0  0  0  0  0  0  0  0  0  0  0  0
    8.5074  -15.1121   22.4199 O   0  0  0  0  0  0  0  0  0  0  0  0
    7.5796  -13.8714   24.1190 N   0  0  0  0  0  0  0  0  0  0  0  0
    7.1733  -12.4132   24.2906 C   0  0  0  0  0  0  0  0  0  0  0  0
    6.7664  -12.2820   25.7209 C   0  0  0  0  0  0  0  0  0  0  0  0
    6.7283  -13.7128   26.2055 C   0  0  0  0  0  0  0  0  0  0  0  0
    7.9558  -14.2300   25.4234 C   0  0  1  0  0  0  0  0  0  0  0  0
    8.3371  -15.5499   25.8147 C   0  0  0  0  0  0  0  0  0  0  0  0
    7.5352  -16.4735   26.0215 O   0  0  0  0  0  0  0  0  0  0  0  0
   11.3377  -17.6524   25.4367 C   0  0  0  0  0  0  0  0  0  0  0  0
   10.1007  -17.2769   26.2521 C   0  0  2  0  0  0  0  0  0  0  0  0
    9.7310  -15.9250   26.0065 N   0  0  0  0  0  0  0  0  0  0  0  0
   10.3507  -17.5618   27.6868 C   0  0  0  0  0  0  0  0  0  0  0  0
   10.2965  -16.6648   28.5639 O   0  0  0  0  0  0  0  0  0  0  0  0
   10.6551  -18.8498   28.0955 O   0  0  0  0  0  0  0  0  0  0  0  0
  2  1  1  0
  3  2  1  0
  4  3  2  0
  5  3  1  0
  5  6  1  0
  7  6  1  0
  8  9  1  0
  8  7  1  0
  9  5  1  0
  9 10  1  6
 10 14  1  0
 11 10  2  0
 13 14  1  0
 13 15  1  0
 13 12  1  6
 15 17  1  0
 16 15  2  0
M  END
$$$$
