GPA.pdb
     RDKit          3D

 17 17  0  0  1  0  0  0  0  0999 V2000
    7.2028  -14.2567   21.3131 N   0  0  0  0  0  0  0  0  0  0  0  0
    6.5905  -14.2351   22.6496 C   0  0  0  0  0  0  0  0  0  0  0  0
    7.6006  -14.1493   23.7022 C   0  0  0  0  0  0  0  0  0  0  0  0
    8.6811  -14.8453   23.4760 O   0  0  0  0  0  0  0  0  0  0  0  0
    7.5706  -13.4312   24.9091 N   0  0  0  0  0  0  0  0  0  0  0  0
    6.9361  -12.0468   24.8692 C   0  0  0  0  0  0  0  0  0  0  0  0
    6.4714  -11.7847   26.2635 C   0  0  0  0  0  0  0  0  0  0  0  0
    6.6435  -13.1220   26.9458 C   0  0  0  0  0  0  0  0  0  0  0  0
    7.9594  -13.5407   26.2538 C   0  0  1  0  0  0  0  0  0  0  0  0
    8.5309  -14.7158   26.8311 C   0  0  0  0  0  0  0  0  0  0  0  0
    7.8967  -15.7563   27.0632 O   0  0  0  0  0  0  0  0  0  0  0  0
   11.9053  -16.1957   27.0199 C   0  0  0  0  0  0  0  0  0  0  0  0
   10.5205  -16.0091   27.6393 C   0  0  2  0  0  0  0  0  0  0  0  0
    9.9373  -14.7871   27.2019 N   0  0  0  0  0  0  0  0  0  0  0  0
   10.6231  -16.1106   29.1162 C   0  0  0  0  0  0  0  0  0  0  0  0
   11.0225  -17.1556   29.6865 O   0  0  0  0  0  0  0  0  0  0  0  0
   10.2729  -15.0320   29.9117 O   0  0  0  0  0  0  0  0  0  0  0  0
  2  1  1  0
  3  2  1  0
  4  3  2  0
  5  3  1  0
  5  6  1  0
  7  6  1  0
  8  9  1  0
  8  7  1  0
  9  5  1  0
  9 10  1  1
 10 14  1  0
 11 10  2  0
 13 14  1  0
 13 15  1  0
 13 12  1  6
 15 17  1  0
 16 15  2  0
M  END
$$$$
