GPA.pdb
     RDKit          3D

 17 17  0  0  1  0  0  0  0  0999 V2000
    6.9025  -14.1958   21.3396 N   0  0  0  0  0  0  0  0  0  0  0  0
    6.3944  -14.0545   22.7120 C   0  0  0  0  0  0  0  0  0  0  0  0
    7.4829  -14.0094   23.6861 C   0  0  0  0  0  0  0  0  0  0  0  0
    8.5316  -14.7152   23.3617 O   0  0  0  0  0  0  0  0  0  0  0  0
    7.5565  -13.3208   24.9083 N   0  0  0  0  0  0  0  0  0  0  0  0
    7.0059  -11.9006   24.9309 C   0  0  0  0  0  0  0  0  0  0  0  0
    6.6279  -11.6459   26.3525 C   0  0  0  0  0  0  0  0  0  0  0  0
    6.7523  -13.0075   26.9959 C   0  0  0  0  0  0  0  0  0  0  0  0
    8.0044  -13.4865   26.2287 C   0  0  1  0  0  0  0  0  0  0  0  0
    8.5315  -14.7074   26.7504 C   0  0  0  0  0  0  0  0  0  0  0  0
    7.8504  -15.7192   26.9766 O   0  0  0  0  0  0  0  0  0  0  0  0
   11.8022  -16.4143   26.8686 C   0  0  0  0  0  0  0  0  0  0  0  0
   10.4591  -16.1074   27.5305 C   0  0  2  0  0  0  0  0  0  0  0  0
    9.9444  -14.8650   27.0655 N   0  0  0  0  0  0  0  0  0  0  0  0
   10.6130  -16.1594   29.0055 C   0  0  0  0  0  0  0  0  0  0  0  0
   10.4354  -15.1496   29.7304 O   0  0  0  0  0  0  0  0  0  0  0  0
   10.9629  -17.3480   29.6250 O   0  0  0  0  0  0  0  0  0  0  0  0
  2  1  1  0
  3  2  1  0
  4  3  2  0
  5  3  1  0
  5  6  1  0
  7  6  1  0
  8  9  1  0
  8  7  1  0
  9  5  1  0
  9 10  1  1
 10 14  1  0
 11 10  2  0
 13 14  1  0
 13 15  1  0
 13 12  1  6
 15 17  1  0
 16 15  2  0
M  END
$$$$
