GPA.pdb
     RDKit          3D

 17 17  0  0  1  0  0  0  0  0999 V2000
    9.4714  -18.1125   19.0541 N   0  0  0  0  0  0  0  0  0  0  0  0
    8.3292  -17.2613   19.4182 C   0  0  0  0  0  0  0  0  0  0  0  0
    8.6858  -16.2998   20.4594 C   0  0  0  0  0  0  0  0  0  0  0  0
    9.5433  -16.7433   21.3375 O   0  0  0  0  0  0  0  0  0  0  0  0
    8.2390  -14.9809   20.6446 N   0  0  0  0  0  0  0  0  0  0  0  0
    8.1246  -14.1129   19.3980 C   0  0  0  0  0  0  0  0  0  0  0  0
    7.1029  -13.0764   19.7306 C   0  0  0  0  0  0  0  0  0  0  0  0
    6.5245  -13.5638   21.0388 C   0  0  0  0  0  0  0  0  0  0  0  0
    7.8342  -14.0984   21.6589 C   0  0  1  0  0  0  0  0  0  0  0  0
    7.6790  -14.4682   23.0300 C   0  0  0  0  0  0  0  0  0  0  0  0
    6.8670  -13.9408   23.8054 O   0  0  0  0  0  0  0  0  0  0  0  0
    6.8187  -16.5856   25.0514 C   0  0  0  0  0  0  0  0  0  0  0  0
    8.2152  -15.9705   24.9638 C   0  0  2  0  0  0  0  0  0  0  0  0
    8.4810  -15.5190   23.6409 N   0  0  0  0  0  0  0  0  0  0  0  0
    9.2163  -16.9478   25.4586 C   0  0  0  0  0  0  0  0  0  0  0  0
   10.1451  -17.3772   24.7308 O   0  0  0  0  0  0  0  0  0  0  0  0
    9.1446  -17.4155   26.7605 O   0  0  0  0  0  0  0  0  0  0  0  0
  2  1  1  0
  3  2  1  0
  4  3  2  0
  5  3  1  0
  5  6  1  0
  7  6  1  0
  8  9  1  0
  8  7  1  0
  9  5  1  0
  9 10  1  1
 10 14  1  0
 11 10  2  0
 13 14  1  0
 13 15  1  0
 13 12  1  6
 15 17  1  0
 16 15  2  0
M  END
$$$$
