GPA.pdb
     RDKit          3D

 17 17  0  0  1  0  0  0  0  0999 V2000
    6.6344  -19.2124   22.9642 N   0  0  0  0  0  0  0  0  0  0  0  0
    6.1377  -17.8327   22.8573 C   0  0  0  0  0  0  0  0  0  0  0  0
    7.1909  -16.8592   23.1380 C   0  0  0  0  0  0  0  0  0  0  0  0
    7.9088  -17.1254   24.1948 O   0  0  0  0  0  0  0  0  0  0  0  0
    7.5335  -15.6908   22.4375 N   0  0  0  0  0  0  0  0  0  0  0  0
    7.2347  -15.6727   20.9439 C   0  0  0  0  0  0  0  0  0  0  0  0
    7.0889  -14.2303   20.5875 C   0  0  0  0  0  0  0  0  0  0  0  0
    7.0657  -13.5395   21.9312 C   0  0  0  0  0  0  0  0  0  0  0  0
    8.1123  -14.4276   22.6397 C   0  0  1  0  0  0  0  0  0  0  0  0
    8.4908  -13.9131   23.9175 C   0  0  0  0  0  0  0  0  0  0  0  0
    9.6651  -13.7425   24.2790 O   0  0  0  0  0  0  0  0  0  0  0  0
    6.8209  -12.0387   26.7021 C   0  0  0  0  0  0  0  0  0  0  0  0
    7.9010  -12.9788   26.1676 C   0  0  2  0  0  0  0  0  0  0  0  0
    7.5044  -13.5392   24.9213 N   0  0  0  0  0  0  0  0  0  0  0  0
    8.2150  -14.0034   27.1942 C   0  0  0  0  0  0  0  0  0  0  0  0
    7.9382  -15.2173   27.0310 O   0  0  0  0  0  0  0  0  0  0  0  0
    8.8326  -13.6332   28.3775 O   0  0  0  0  0  0  0  0  0  0  0  0
  2  1  1  0
  3  2  1  0
  4  3  2  0
  5  3  1  0
  5  6  1  0
  7  6  1  0
  8  9  1  0
  8  7  1  0
  9  5  1  0
  9 10  1  1
 10 14  1  0
 11 10  2  0
 13 14  1  0
 13 15  1  0
 13 12  1  1
 15 17  1  0
 16 15  2  0
M  END
$$$$
