GPA.pdb
     RDKit          3D

 17 17  0  0  1  0  0  0  0  0999 V2000
    8.0947  -16.2351   15.9862 N   0  0  0  0  0  0  0  0  0  0  0  0
    7.4147  -15.7766   17.2064 C   0  0  0  0  0  0  0  0  0  0  0  0
    8.3473  -15.6436   18.3237 C   0  0  0  0  0  0  0  0  0  0  0  0
    9.1611  -16.6525   18.4748 O   0  0  0  0  0  0  0  0  0  0  0  0
    8.4875  -14.5940   19.2467 N   0  0  0  0  0  0  0  0  0  0  0  0
    8.2438  -13.1835   18.7254 C   0  0  0  0  0  0  0  0  0  0  0  0
    7.8408  -12.3846   19.9204 C   0  0  0  0  0  0  0  0  0  0  0  0
    7.6398  -13.4334   20.9896 C   0  0  0  0  0  0  0  0  0  0  0  0
    8.8096  -14.3611   20.5934 C   0  0  1  0  0  0  0  0  0  0  0  0
    9.0385  -15.3932   21.5542 C   0  0  0  0  0  0  0  0  0  0  0  0
    8.1370  -16.0376   22.1116 O   0  0  0  0  0  0  0  0  0  0  0  0
   11.4383  -17.9570   22.1450 C   0  0  0  0  0  0  0  0  0  0  0  0
   10.5925  -16.8866   22.8343 C   0  0  2  0  0  0  0  0  0  0  0  0
   10.3808  -15.7799   21.9654 N   0  0  0  0  0  0  0  0  0  0  0  0
   11.2303  -16.5059   24.1189 C   0  0  0  0  0  0  0  0  0  0  0  0
   11.4015  -17.3320   25.0489 O   0  0  0  0  0  0  0  0  0  0  0  0
   11.6584  -15.2042   24.3219 O   0  0  0  0  0  0  0  0  0  0  0  0
  2  1  1  0
  3  2  1  0
  4  3  2  0
  5  3  1  0
  5  6  1  0
  7  6  1  0
  8  9  1  0
  8  7  1  0
  9  5  1  0
  9 10  1  1
 10 14  1  0
 11 10  2  0
 13 14  1  0
 13 15  1  0
 13 12  1  6
 15 17  1  0
 16 15  2  0
M  END
$$$$
