GPA.pdb
     RDKit          3D

 17 17  0  0  1  0  0  0  0  0999 V2000
    8.4647  -17.7080   16.8805 N   0  0  0  0  0  0  0  0  0  0  0  0
    7.8352  -16.7124   17.7603 C   0  0  0  0  0  0  0  0  0  0  0  0
    8.8332  -15.9204   18.4762 C   0  0  0  0  0  0  0  0  0  0  0  0
    9.9111  -16.5768   18.8082 O   0  0  0  0  0  0  0  0  0  0  0  0
    8.7940  -14.5675   18.8525 N   0  0  0  0  0  0  0  0  0  0  0  0
    8.0727  -13.6128   17.9097 C   0  0  0  0  0  0  0  0  0  0  0  0
    7.6342  -12.4699   18.7640 C   0  0  0  0  0  0  0  0  0  0  0  0
    7.9103  -12.9573   20.1675 C   0  0  0  0  0  0  0  0  0  0  0  0
    9.2288  -13.7056   19.8720 C   0  0  1  0  0  0  0  0  0  0  0  0
    9.8900  -14.1389   21.0619 C   0  0  0  0  0  0  0  0  0  0  0  0
   11.0914  -13.9431   21.3012 O   0  0  0  0  0  0  0  0  0  0  0  0
    8.9605  -15.0894   24.5192 C   0  0  0  0  0  0  0  0  0  0  0  0
    9.8630  -15.2700   23.2989 C   0  0  2  0  0  0  0  0  0  0  0  0
    9.1894  -14.8623   22.1137 N   0  0  0  0  0  0  0  0  0  0  0  0
   10.3428  -16.6731   23.2437 C   0  0  0  0  0  0  0  0  0  0  0  0
   11.0872  -17.1585   24.1309 O   0  0  0  0  0  0  0  0  0  0  0  0
    9.9713  -17.4924   22.1903 O   0  0  0  0  0  0  0  0  0  0  0  0
  2  1  1  0
  3  2  1  0
  4  3  2  0
  5  3  1  0
  5  6  1  0
  7  6  1  0
  8  9  1  0
  8  7  1  0
  9  5  1  0
  9 10  1  1
 10 14  1  0
 11 10  2  0
 13 14  1  0
 13 15  1  0
 13 12  1  1
 15 17  1  0
 16 15  2  0
M  END
$$$$
