GPA.pdb
     RDKit          3D

 17 17  0  0  1  0  0  0  0  0999 V2000
    8.3937  -16.5429   16.2531 N   0  0  0  0  0  0  0  0  0  0  0  0
    7.6279  -15.9326   17.3498 C   0  0  0  0  0  0  0  0  0  0  0  0
    8.4690  -15.6826   18.5185 C   0  0  0  0  0  0  0  0  0  0  0  0
    9.3216  -16.6333   18.7873 O   0  0  0  0  0  0  0  0  0  0  0  0
    8.4869  -14.5751   19.3825 N   0  0  0  0  0  0  0  0  0  0  0  0
    8.2735  -13.2061   18.7492 C   0  0  0  0  0  0  0  0  0  0  0  0
    7.7268  -12.3467   19.8406 C   0  0  0  0  0  0  0  0  0  0  0  0
    7.4314  -13.3331   20.9467 C   0  0  0  0  0  0  0  0  0  0  0  0
    8.6556  -14.2517   20.7384 C   0  0  1  0  0  0  0  0  0  0  0  0
    8.7989  -15.2167   21.7820 C   0  0  0  0  0  0  0  0  0  0  0  0
    7.8523  -15.6807   22.4358 O   0  0  0  0  0  0  0  0  0  0  0  0
   10.6091  -18.0781   22.6022 C   0  0  0  0  0  0  0  0  0  0  0  0
   10.2173  -16.7250   23.1953 C   0  0  2  0  0  0  0  0  0  0  0  0
   10.0991  -15.7449   22.1706 N   0  0  0  0  0  0  0  0  0  0  0  0
   11.1892  -16.3497   24.2520 C   0  0  0  0  0  0  0  0  0  0  0  0
   11.9293  -15.3406   24.1491 O   0  0  0  0  0  0  0  0  0  0  0  0
   11.3016  -17.1213   25.3969 O   0  0  0  0  0  0  0  0  0  0  0  0
  2  1  1  0
  3  2  1  0
  4  3  2  0
  5  3  1  0
  5  6  1  0
  7  6  1  0
  8  9  1  0
  8  7  1  0
  9  5  1  0
  9 10  1  1
 10 14  1  0
 11 10  2  0
 13 14  1  0
 13 15  1  0
 13 12  1  6
 15 17  1  0
 16 15  2  0
M  END
$$$$
