GPA.pdb
     RDKit          3D

 17 17  0  0  1  0  0  0  0  0999 V2000
    5.7247  -18.0352   19.0077 N   0  0  0  0  0  0  0  0  0  0  0  0
    5.8013  -17.0889   20.1303 C   0  0  0  0  0  0  0  0  0  0  0  0
    7.1864  -16.7898   20.4875 C   0  0  0  0  0  0  0  0  0  0  0  0
    7.9979  -17.8094   20.4165 O   0  0  0  0  0  0  0  0  0  0  0  0
    7.7590  -15.5726   20.8923 N   0  0  0  0  0  0  0  0  0  0  0  0
    7.3792  -14.3344   20.0903 C   0  0  0  0  0  0  0  0  0  0  0  0
    7.5680  -13.1852   21.0243 C   0  0  0  0  0  0  0  0  0  0  0  0
    7.8000  -13.8549   22.3589 C   0  0  0  0  0  0  0  0  0  0  0  0
    8.6406  -15.0467   21.8503 C   0  0  1  0  0  0  0  0  0  0  0  0
    9.2140  -15.8058   22.9160 C   0  0  0  0  0  0  0  0  0  0  0  0
    8.5841  -16.1930   23.9120 O   0  0  0  0  0  0  0  0  0  0  0  0
   11.5309  -18.3846   23.4275 C   0  0  0  0  0  0  0  0  0  0  0  0
   11.1544  -17.0019   23.9591 C   0  0  2  0  0  0  0  0  0  0  0  0
   10.6172  -16.1947   22.9176 N   0  0  0  0  0  0  0  0  0  0  0  0
   12.3332  -16.3906   24.6217 C   0  0  0  0  0  0  0  0  0  0  0  0
   12.9779  -15.4485   24.0987 O   0  0  0  0  0  0  0  0  0  0  0  0
   12.7544  -16.8570   25.8561 O   0  0  0  0  0  0  0  0  0  0  0  0
  2  1  1  0
  3  2  1  0
  4  3  2  0
  5  3  1  0
  5  6  1  0
  7  6  1  0
  8  9  1  0
  8  7  1  0
  9  5  1  0
  9 10  1  1
 10 14  1  0
 11 10  2  0
 13 14  1  0
 13 15  1  0
 13 12  1  6
 15 17  1  0
 16 15  2  0
M  END
$$$$
