GPA.pdb
     RDKit          3D

 17 17  0  0  1  0  0  0  0  0999 V2000
    7.4173  -17.1444   17.1591 N   0  0  0  0  0  0  0  0  0  0  0  0
    6.9031  -16.3273   18.2679 C   0  0  0  0  0  0  0  0  0  0  0  0
    7.9392  -16.0590   19.2631 C   0  0  0  0  0  0  0  0  0  0  0  0
    8.7426  -17.0610   19.4943 O   0  0  0  0  0  0  0  0  0  0  0  0
    8.1872  -14.8871   19.9970 N   0  0  0  0  0  0  0  0  0  0  0  0
    8.0230  -13.5656   19.2573 C   0  0  0  0  0  0  0  0  0  0  0  0
    7.7222  -12.5555   20.3146 C   0  0  0  0  0  0  0  0  0  0  0  0
    7.4892  -13.3989   21.5466 C   0  0  0  0  0  0  0  0  0  0  0  0
    8.5754  -14.4638   21.2782 C   0  0  1  0  0  0  0  0  0  0  0  0
    8.7679  -15.3407   22.3894 C   0  0  0  0  0  0  0  0  0  0  0  0
    7.8641  -15.6934   23.1624 O   0  0  0  0  0  0  0  0  0  0  0  0
   10.9991  -18.0760   23.2684 C   0  0  0  0  0  0  0  0  0  0  0  0
   10.2237  -16.8537   23.7589 C   0  0  2  0  0  0  0  0  0  0  0  0
   10.0719  -15.9036   22.7106 N   0  0  0  0  0  0  0  0  0  0  0  0
   10.8924  -16.2950   24.9601 C   0  0  0  0  0  0  0  0  0  0  0  0
   11.0024  -16.9486   26.0265 O   0  0  0  0  0  0  0  0  0  0  0  0
   11.4195  -15.0144   24.9279 O   0  0  0  0  0  0  0  0  0  0  0  0
  2  1  1  0
  3  2  1  0
  4  3  2  0
  5  3  1  0
  5  6  1  0
  7  6  1  0
  8  9  1  0
  8  7  1  0
  9  5  1  0
  9 10  1  1
 10 14  1  0
 11 10  2  0
 13 14  1  0
 13 15  1  0
 13 12  1  6
 15 17  1  0
 16 15  2  0
M  END
$$$$
