NEV.pdb
     RDKit          3D

 25 24  0  0  1  0  0  0  0  0999 V2000
    7.2327  -15.0747   16.6565 N   0  0  0  0  0  0  0  0  0  0  0  0
    8.0763  -14.8365   17.7826 C   0  0  0  0  0  0  0  0  0  0  0  0
    9.2719  -14.4604   17.5908 O   0  0  0  0  0  0  0  0  0  0  0  0
    7.6457  -15.0006   19.1822 C   0  0  0  0  0  0  0  0  0  0  0  0
    8.6706  -15.8693   19.9102 C   0  0  2  0  0  0  0  0  0  0  0  0
    8.7589  -17.1675   19.2753 N   0  0  0  0  0  0  0  0  0  0  0  0
    8.3347  -16.0236   21.3316 C   0  0  0  0  0  0  0  0  0  0  0  0
    7.1184  -15.8641   21.6938 O   0  0  0  0  0  0  0  0  0  0  0  0
    9.2398  -16.3358   22.3501 N   0  0  0  0  0  0  0  0  0  0  0  0
    8.8325  -16.6710   23.7313 C   0  0  1  0  0  0  0  0  0  0  0  0
    9.7259  -17.7745   24.2355 C   0  0  0  0  0  0  0  0  0  0  0  0
    9.3965  -19.1509   23.7589 C   0  0  0  0  0  0  0  0  0  0  0  0
   10.3911  -20.0737   24.4403 C   0  0  0  0  0  0  0  0  0  0  0  0
   11.3662  -20.5716   23.8436 O   0  0  0  0  0  0  0  0  0  0  0  0
    8.9350  -15.4625   24.5606 C   0  0  0  0  0  0  0  0  0  0  0  0
   10.0302  -14.7975   24.4917 O   0  0  0  0  0  0  0  0  0  0  0  0
   10.2224  -20.3811   25.7691 O   0  0  0  0  0  0  0  0  0  0  0  0
    6.2374  -12.6619   25.1897 C   0  0  0  0  0  0  0  0  0  0  0  0
    6.9018  -13.0003   26.4933 C   0  0  2  0  0  0  0  0  0  0  0  0
    7.1293  -11.7745   27.3400 C   0  0  0  0  0  0  0  0  0  0  0  0
    8.2022  -13.7330   26.1801 C   0  0  2  0  0  0  0  0  0  0  0  0
    7.9394  -14.9561   25.4271 N   0  0  0  0  0  0  0  0  0  0  0  0
    8.9634  -14.0355   27.3996 C   0  0  0  0  0  0  0  0  0  0  0  0
    8.9266  -15.1701   27.9476 O   0  0  0  0  0  0  0  0  0  0  0  0
    9.7728  -13.0903   28.0278 O   0  0  0  0  0  0  0  0  0  0  0  0
  1  2  1  0
  2  3  2  0
  4  5  1  0
  4  2  1  0
  5  6  1  6
  7  5  1  0
  8  7  2  0
  9  7  1  0
 10  9  1  0
 10 11  1  1
 11 12  1  0
 12 13  1  0
 13 17  1  0
 14 13  2  0
 15 22  1  0
 15 10  1  0
 16 15  2  0
 19 18  1  6
 19 21  1  0
 20 19  1  0
 21 23  1  0
 21 22  1  1
 23 25  1  0
 24 23  2  0
M  END
$$$$
