NEV.pdb
     RDKit          3D

 25 24  0  0  1  0  0  0  0  0999 V2000
    7.0178  -18.6375   19.2692 N   0  0  0  0  0  0  0  0  0  0  0  0
    7.6593  -17.4453   18.8180 C   0  0  0  0  0  0  0  0  0  0  0  0
    8.7458  -17.5347   18.1706 O   0  0  0  0  0  0  0  0  0  0  0  0
    7.1361  -16.0887   19.0574 C   0  0  0  0  0  0  0  0  0  0  0  0
    8.1233  -15.3338   19.9466 C   0  0  2  0  0  0  0  0  0  0  0  0
    9.4814  -15.6428   19.5512 N   0  0  0  0  0  0  0  0  0  0  0  0
    7.9249  -15.6541   21.3661 C   0  0  0  0  0  0  0  0  0  0  0  0
    6.7771  -15.4384   21.8876 O   0  0  0  0  0  0  0  0  0  0  0  0
    8.8948  -16.1850   22.2214 N   0  0  0  0  0  0  0  0  0  0  0  0
    8.6576  -16.4624   23.6542 C   0  0  1  0  0  0  0  0  0  0  0  0
    9.6673  -17.4818   24.1141 C   0  0  0  0  0  0  0  0  0  0  0  0
    9.4825  -18.8674   23.5889 C   0  0  0  0  0  0  0  0  0  0  0  0
   10.6315  -19.6816   24.1563 C   0  0  0  0  0  0  0  0  0  0  0  0
   11.6865  -19.8888   23.5248 O   0  0  0  0  0  0  0  0  0  0  0  0
    8.7704  -15.2040   24.4041 C   0  0  0  0  0  0  0  0  0  0  0  0
    9.7396  -14.4229   24.0927 O   0  0  0  0  0  0  0  0  0  0  0  0
   10.5181  -20.2179   25.4165 O   0  0  0  0  0  0  0  0  0  0  0  0
    5.8860  -13.2470   26.8791 C   0  0  0  0  0  0  0  0  0  0  0  0
    6.9841  -12.5869   26.0958 C   0  0  2  0  0  0  0  0  0  0  0  0
    6.5496  -12.2589   24.6906 C   0  0  0  0  0  0  0  0  0  0  0  0
    8.1983  -13.5094   26.1223 C   0  0  2  0  0  0  0  0  0  0  0  0
    7.9096  -14.7657   25.4363 N   0  0  0  0  0  0  0  0  0  0  0  0
    8.6552  -13.7679   27.4943 C   0  0  0  0  0  0  0  0  0  0  0  0
    8.5884  -14.9127   28.0177 O   0  0  0  0  0  0  0  0  0  0  0  0
    9.1901  -12.7670   28.3038 O   0  0  0  0  0  0  0  0  0  0  0  0
  1  2  1  0
  2  3  2  0
  4  5  1  0
  4  2  1  0
  5  6  1  6
  7  5  1  0
  8  7  2  0
  9  7  1  0
 10  9  1  0
 10 11  1  1
 11 12  1  0
 12 13  1  0
 13 17  1  0
 14 13  2  0
 15 22  1  0
 15 10  1  0
 16 15  2  0
 19 18  1  1
 19 21  1  0
 20 19  1  0
 21 23  1  0
 21 22  1  1
 23 25  1  0
 24 23  2  0
M  END
$$$$
