NEV.pdb
     RDKit          3D

 25 24  0  0  1  0  0  0  0  0999 V2000
    9.4944  -13.9922   17.1315 N   0  0  0  0  0  0  0  0  0  0  0  0
    8.0791  -13.8973   17.2887 C   0  0  0  0  0  0  0  0  0  0  0  0
    7.3315  -14.0804   16.2812 O   0  0  0  0  0  0  0  0  0  0  0  0
    7.4121  -13.5948   18.5673 C   0  0  0  0  0  0  0  0  0  0  0  0
    8.4797  -13.4230   19.6470 C   0  0  2  0  0  0  0  0  0  0  0  0
    9.7787  -13.7858   19.1204 N   0  0  0  0  0  0  0  0  0  0  0  0
    8.1757  -14.2250   20.8391 C   0  0  0  0  0  0  0  0  0  0  0  0
    7.0391  -14.0728   21.4056 O   0  0  0  0  0  0  0  0  0  0  0  0
    9.0312  -15.1612   21.4271 N   0  0  0  0  0  0  0  0  0  0  0  0
    8.6916  -15.9269   22.6455 C   0  0  1  0  0  0  0  0  0  0  0  0
    9.6320  -17.0997   22.7470 C   0  0  0  0  0  0  0  0  0  0  0  0
    9.4902  -17.9469   23.9686 C   0  0  0  0  0  0  0  0  0  0  0  0
   10.5346  -19.0410   23.8366 C   0  0  0  0  0  0  0  0  0  0  0  0
   10.6910  -19.7002   22.7898 O   0  0  0  0  0  0  0  0  0  0  0  0
    8.8005  -15.0364   23.8089 C   0  0  0  0  0  0  0  0  0  0  0  0
    9.8680  -14.3313   23.9075 O   0  0  0  0  0  0  0  0  0  0  0  0
   11.3480  -19.3271   24.9068 O   0  0  0  0  0  0  0  0  0  0  0  0
    6.4823  -12.3517   25.0268 C   0  0  0  0  0  0  0  0  0  0  0  0
    6.8635  -13.1262   26.2556 C   0  0  2  0  0  0  0  0  0  0  0  0
    7.0768  -12.2226   27.4427 C   0  0  0  0  0  0  0  0  0  0  0  0
    8.1063  -13.9463   25.9258 C   0  0  2  0  0  0  0  0  0  0  0  0
    7.8383  -14.8761   24.8323 N   0  0  0  0  0  0  0  0  0  0  0  0
    8.6087  -14.6694   27.1018 C   0  0  0  0  0  0  0  0  0  0  0  0
    8.3476  -15.8863   27.3015 O   0  0  0  0  0  0  0  0  0  0  0  0
    9.4040  -14.0583   28.0700 O   0  0  0  0  0  0  0  0  0  0  0  0
  1  2  1  0
  2  3  2  0
  4  5  1  0
  4  2  1  0
  5  6  1  6
  7  5  1  0
  8  7  2  0
  9  7  1  0
 10  9  1  0
 10 11  1  1
 11 12  1  0
 12 13  1  0
 13 17  1  0
 14 13  2  0
 15 22  1  0
 15 10  1  0
 16 15  2  0
 19 18  1  6
 19 21  1  0
 20 19  1  0
 21 23  1  0
 21 22  1  6
 23 25  1  0
 24 23  2  0
M  END
$$$$
