NEV.pdb
     RDKit          3D

 25 24  0  0  1  0  0  0  0  0999 V2000
    7.4098  -13.4073   16.2173 N   0  0  0  0  0  0  0  0  0  0  0  0
    8.0877  -13.7763   17.4176 C   0  0  0  0  0  0  0  0  0  0  0  0
    9.2190  -14.3434   17.3395 O   0  0  0  0  0  0  0  0  0  0  0  0
    7.5530  -13.5394   18.7702 C   0  0  0  0  0  0  0  0  0  0  0  0
    8.6117  -13.9494   19.7930 C   0  0  2  0  0  0  0  0  0  0  0  0
    9.5239  -14.9071   19.2039 N   0  0  0  0  0  0  0  0  0  0  0  0
    8.0019  -14.5115   21.0050 C   0  0  0  0  0  0  0  0  0  0  0  0
    6.9838  -13.9225   21.5076 O   0  0  0  0  0  0  0  0  0  0  0  0
    8.4392  -15.6565   21.6772 N   0  0  0  0  0  0  0  0  0  0  0  0
    7.8102  -16.1692   22.9132 C   0  0  1  0  0  0  0  0  0  0  0  0
    8.1891  -17.6186   23.0730 C   0  0  0  0  0  0  0  0  0  0  0  0
    7.1682  -18.6136   22.6281 C   0  0  0  0  0  0  0  0  0  0  0  0
    6.2211  -18.7876   23.8019 C   0  0  0  0  0  0  0  0  0  0  0  0
    5.0514  -18.3559   23.7934 O   0  0  0  0  0  0  0  0  0  0  0  0
    8.2673  -15.3560   24.0483 C   0  0  0  0  0  0  0  0  0  0  0  0
    9.4957  -14.9853   24.0447 O   0  0  0  0  0  0  0  0  0  0  0  0
    6.6575  -19.4463   24.9265 O   0  0  0  0  0  0  0  0  0  0  0  0
    6.5251  -12.2563   25.3648 C   0  0  0  0  0  0  0  0  0  0  0  0
    7.0113  -12.9957   26.5781 C   0  0  2  0  0  0  0  0  0  0  0  0
    7.5531  -12.0572   27.6254 C   0  0  0  0  0  0  0  0  0  0  0  0
    8.0529  -14.0118   26.1215 C   0  0  2  0  0  0  0  0  0  0  0  0
    7.4819  -14.9366   25.1464 N   0  0  0  0  0  0  0  0  0  0  0  0
    8.6250  -14.7510   27.2548 C   0  0  0  0  0  0  0  0  0  0  0  0
    8.2684  -15.9269   27.5358 O   0  0  0  0  0  0  0  0  0  0  0  0
    9.5961  -14.2013   28.0903 O   0  0  0  0  0  0  0  0  0  0  0  0
  1  2  1  0
  2  3  2  0
  4  5  1  0
  4  2  1  0
  5  6  1  6
  7  5  1  0
  8  7  2  0
  9  7  1  0
 10  9  1  0
 10 11  1  1
 11 12  1  0
 12 13  1  0
 13 17  1  0
 14 13  2  0
 15 22  1  0
 15 10  1  0
 16 15  2  0
 19 18  1  6
 19 21  1  0
 20 19  1  0
 21 23  1  0
 21 22  1  6
 23 25  1  0
 24 23  2  0
M  END
$$$$
