NEV.pdb
     RDKit          3D

 25 24  0  0  1  0  0  0  0  0999 V2000
    9.1777  -12.9305   17.2150 N   0  0  0  0  0  0  0  0  0  0  0  0
    7.9244  -13.5903   17.3890 C   0  0  0  0  0  0  0  0  0  0  0  0
    7.0907  -13.5959   16.4337 O   0  0  0  0  0  0  0  0  0  0  0  0
    7.5230  -14.2801   18.6277 C   0  0  0  0  0  0  0  0  0  0  0  0
    8.6371  -14.1172   19.6608 C   0  0  2  0  0  0  0  0  0  0  0  0
    9.8701  -14.6799   19.1516 N   0  0  0  0  0  0  0  0  0  0  0  0
    8.2839  -14.7478   20.9393 C   0  0  0  0  0  0  0  0  0  0  0  0
    7.1666  -14.4448   21.4831 O   0  0  0  0  0  0  0  0  0  0  0  0
    9.0719  -15.6697   21.6345 N   0  0  0  0  0  0  0  0  0  0  0  0
    8.6728  -16.2808   22.9203 C   0  0  1  0  0  0  0  0  0  0  0  0
    9.5575  -17.4736   23.1742 C   0  0  0  0  0  0  0  0  0  0  0  0
    9.3339  -18.6535   22.2866 C   0  0  0  0  0  0  0  0  0  0  0  0
   10.3726  -19.6822   22.6964 C   0  0  0  0  0  0  0  0  0  0  0  0
   10.5318  -20.0445   23.8788 O   0  0  0  0  0  0  0  0  0  0  0  0
    8.7968  -15.2722   23.9814 C   0  0  0  0  0  0  0  0  0  0  0  0
    9.9488  -14.7299   24.1407 O   0  0  0  0  0  0  0  0  0  0  0  0
   11.1770  -20.2458   21.7351 O   0  0  0  0  0  0  0  0  0  0  0  0
    6.3227  -12.4017   24.8046 C   0  0  0  0  0  0  0  0  0  0  0  0
    6.8075  -12.9606   26.1115 C   0  0  2  0  0  0  0  0  0  0  0  0
    7.0690  -11.8738   27.1222 C   0  0  0  0  0  0  0  0  0  0  0  0
    8.0516  -13.7970   25.8307 C   0  0  2  0  0  0  0  0  0  0  0  0
    7.7659  -14.8355   24.8448 N   0  0  0  0  0  0  0  0  0  0  0  0
    8.5955  -14.3920   27.0588 C   0  0  0  0  0  0  0  0  0  0  0  0
    9.1330  -13.6936   27.9600 O   0  0  0  0  0  0  0  0  0  0  0  0
    8.5528  -15.7633   27.3059 O   0  0  0  0  0  0  0  0  0  0  0  0
  1  2  1  0
  2  3  2  0
  4  5  1  0
  4  2  1  0
  5  6  1  6
  7  5  1  0
  8  7  2  0
  9  7  1  0
 10  9  1  0
 10 11  1  1
 11 12  1  0
 12 13  1  0
 13 17  1  0
 14 13  2  0
 15 22  1  0
 15 10  1  0
 16 15  2  0
 19 18  1  6
 19 21  1  0
 20 19  1  0
 21 23  1  0
 21 22  1  6
 23 25  1  0
 24 23  2  0
M  END
$$$$
