NEV.pdb
     RDKit          3D

 25 24  0  0  1  0  0  0  0  0999 V2000
    8.7934  -12.0641   18.2298 N   0  0  0  0  0  0  0  0  0  0  0  0
    8.0237  -13.2595   18.1076 C   0  0  0  0  0  0  0  0  0  0  0  0
    7.8999  -13.8014   16.9680 O   0  0  0  0  0  0  0  0  0  0  0  0
    7.3484  -13.9220   19.2374 C   0  0  0  0  0  0  0  0  0  0  0  0
    8.1609  -15.1521   19.6394 C   0  0  2  0  0  0  0  0  0  0  0  0
    7.8277  -16.2678   18.7789 N   0  0  0  0  0  0  0  0  0  0  0  0
    7.9346  -15.5127   21.0449 C   0  0  0  0  0  0  0  0  0  0  0  0
    6.7432  -15.7838   21.4230 O   0  0  0  0  0  0  0  0  0  0  0  0
    8.9215  -15.5894   22.0320 N   0  0  0  0  0  0  0  0  0  0  0  0
    8.6839  -16.1372   23.3846 C   0  0  1  0  0  0  0  0  0  0  0  0
    9.6351  -17.2844   23.6064 C   0  0  0  0  0  0  0  0  0  0  0  0
    9.6113  -17.8992   24.9671 C   0  0  0  0  0  0  0  0  0  0  0  0
   10.6708  -18.9865   24.9484 C   0  0  0  0  0  0  0  0  0  0  0  0
   11.8901  -18.7404   25.0348 O   0  0  0  0  0  0  0  0  0  0  0  0
    8.8809  -15.0652   24.3698 C   0  0  0  0  0  0  0  0  0  0  0  0
    9.9553  -14.3707   24.2709 O   0  0  0  0  0  0  0  0  0  0  0  0
   10.2844  -20.3003   24.8323 O   0  0  0  0  0  0  0  0  0  0  0  0
    6.0320  -13.3841   26.9663 C   0  0  0  0  0  0  0  0  0  0  0  0
    7.2710  -12.6541   26.5336 C   0  0  2  0  0  0  0  0  0  0  0  0
    7.0402  -11.8570   25.2757 C   0  0  0  0  0  0  0  0  0  0  0  0
    8.3862  -13.6813   26.3676 C   0  0  2  0  0  0  0  0  0  0  0  0
    7.9969  -14.7196   25.4176 N   0  0  0  0  0  0  0  0  0  0  0  0
    8.7695  -14.2804   27.6530 C   0  0  0  0  0  0  0  0  0  0  0  0
    8.5267  -15.4862   27.9286 O   0  0  0  0  0  0  0  0  0  0  0  0
    9.4243  -13.5562   28.6480 O   0  0  0  0  0  0  0  0  0  0  0  0
  1  2  1  0
  2  3  2  0
  4  5  1  0
  4  2  1  0
  5  6  1  6
  7  5  1  0
  8  7  2  0
  9  7  1  0
 10  9  1  0
 10 11  1  1
 11 12  1  0
 12 13  1  0
 13 17  1  0
 14 13  2  0
 15 22  1  0
 15 10  1  0
 16 15  2  0
 19 18  1  6
 19 21  1  0
 20 19  1  0
 21 23  1  0
 21 22  1  6
 23 25  1  0
 24 23  2  0
M  END
$$$$
