NEV.pdb
     RDKit          3D

 25 24  0  0  1  0  0  0  0  0999 V2000
    8.2235  -12.2233   17.2747 N   0  0  0  0  0  0  0  0  0  0  0  0
    8.0162  -13.6175   17.4976 C   0  0  0  0  0  0  0  0  0  0  0  0
    8.3359  -14.4431   16.5900 O   0  0  0  0  0  0  0  0  0  0  0  0
    7.4442  -14.1763   18.7353 C   0  0  0  0  0  0  0  0  0  0  0  0
    8.5633  -14.3325   19.7640 C   0  0  2  0  0  0  0  0  0  0  0  0
    9.5278  -15.3082   19.3014 N   0  0  0  0  0  0  0  0  0  0  0  0
    8.0376  -14.7251   21.0779 C   0  0  0  0  0  0  0  0  0  0  0  0
    7.0737  -14.0494   21.5782 O   0  0  0  0  0  0  0  0  0  0  0  0
    8.5021  -15.7925   21.8518 N   0  0  0  0  0  0  0  0  0  0  0  0
    7.9267  -16.1633   23.1624 C   0  0  1  0  0  0  0  0  0  0  0  0
    8.2892  -17.5968   23.4519 C   0  0  0  0  0  0  0  0  0  0  0  0
    9.7394  -17.9376   23.3485 C   0  0  0  0  0  0  0  0  0  0  0  0
    9.8421  -19.4149   23.6832 C   0  0  0  0  0  0  0  0  0  0  0  0
    9.3950  -19.8983   24.7420 O   0  0  0  0  0  0  0  0  0  0  0  0
    8.4527  -15.2489   24.1851 C   0  0  0  0  0  0  0  0  0  0  0  0
    9.6770  -14.8831   24.0681 O   0  0  0  0  0  0  0  0  0  0  0  0
   10.4499  -20.2660   22.7915 O   0  0  0  0  0  0  0  0  0  0  0  0
    6.2516  -13.2441   27.2391 C   0  0  0  0  0  0  0  0  0  0  0  0
    7.4380  -12.6379   26.5461 C   0  0  2  0  0  0  0  0  0  0  0  0
    7.0288  -11.8213   25.3475 C   0  0  0  0  0  0  0  0  0  0  0  0
    8.3916  -13.7685   26.1740 C   0  0  2  0  0  0  0  0  0  0  0  0
    7.7378  -14.7270   25.2874 N   0  0  0  0  0  0  0  0  0  0  0  0
    8.9194  -14.4488   27.3642 C   0  0  0  0  0  0  0  0  0  0  0  0
    8.6355  -15.6476   27.6313 O   0  0  0  0  0  0  0  0  0  0  0  0
    9.7654  -13.8145   28.2726 O   0  0  0  0  0  0  0  0  0  0  0  0
  1  2  1  0
  2  3  2  0
  4  5  1  0
  4  2  1  0
  5  6  1  6
  7  5  1  0
  8  7  2  0
  9  7  1  0
 10  9  1  0
 10 11  1  1
 11 12  1  0
 12 13  1  0
 13 17  1  0
 14 13  2  0
 15 22  1  0
 15 10  1  0
 16 15  2  0
 19 18  1  6
 19 21  1  0
 20 19  1  0
 21 23  1  0
 21 22  1  6
 23 25  1  0
 24 23  2  0
M  END
$$$$
