NEV.pdb
     RDKit          3D

 25 24  0  0  1  0  0  0  0  0999 V2000
    7.7803  -12.5430   16.7114 N   0  0  0  0  0  0  0  0  0  0  0  0
    7.8531  -13.8785   17.2090 C   0  0  0  0  0  0  0  0  0  0  0  0
    8.3798  -14.7790   16.4884 O   0  0  0  0  0  0  0  0  0  0  0  0
    7.3478  -14.2927   18.5298 C   0  0  0  0  0  0  0  0  0  0  0  0
    8.4225  -14.0034   19.5770 C   0  0  2  0  0  0  0  0  0  0  0  0
    9.7257  -14.3674   19.0619 N   0  0  0  0  0  0  0  0  0  0  0  0
    8.1581  -14.7172   20.8330 C   0  0  0  0  0  0  0  0  0  0  0  0
    7.0310  -14.5412   21.4114 O   0  0  0  0  0  0  0  0  0  0  0  0
    9.0427  -15.5914   21.4712 N   0  0  0  0  0  0  0  0  0  0  0  0
    8.7393  -16.2740   22.7472 C   0  0  1  0  0  0  0  0  0  0  0  0
    9.6847  -17.4372   22.9001 C   0  0  0  0  0  0  0  0  0  0  0  0
    9.6371  -18.1496   24.2117 C   0  0  0  0  0  0  0  0  0  0  0  0
    9.1843  -19.5644   23.8978 C   0  0  0  0  0  0  0  0  0  0  0  0
    9.7826  -20.2988   23.0870 O   0  0  0  0  0  0  0  0  0  0  0  0
    8.8793  -15.3075   23.8449 C   0  0  0  0  0  0  0  0  0  0  0  0
    9.9998  -14.6896   23.9404 O   0  0  0  0  0  0  0  0  0  0  0  0
    8.0712  -20.0695   24.5260 O   0  0  0  0  0  0  0  0  0  0  0  0
    6.5355  -12.4715   24.8289 C   0  0  0  0  0  0  0  0  0  0  0  0
    6.9559  -13.1284   26.1122 C   0  0  2  0  0  0  0  0  0  0  0  0
    7.2058  -12.1181   27.2022 C   0  0  0  0  0  0  0  0  0  0  0  0
    8.1884  -13.9784   25.8216 C   0  0  2  0  0  0  0  0  0  0  0  0
    7.8947  -14.9872   24.8076 N   0  0  0  0  0  0  0  0  0  0  0  0
    8.7111  -14.6127   27.0392 C   0  0  0  0  0  0  0  0  0  0  0  0
    8.4506  -15.8100   27.3351 O   0  0  0  0  0  0  0  0  0  0  0  0
    9.5261  -13.9336   27.9434 O   0  0  0  0  0  0  0  0  0  0  0  0
  1  2  1  0
  2  3  2  0
  4  5  1  0
  4  2  1  0
  5  6  1  6
  7  5  1  0
  8  7  2  0
  9  7  1  0
 10  9  1  0
 10 11  1  1
 11 12  1  0
 12 13  1  0
 13 17  1  0
 14 13  2  0
 15 22  1  0
 15 10  1  0
 16 15  2  0
 19 18  1  6
 19 21  1  0
 20 19  1  0
 21 23  1  0
 21 22  1  6
 23 25  1  0
 24 23  2  0
M  END
$$$$
