NEV.pdb
     RDKit          3D

 25 24  0  0  1  0  0  0  0  0999 V2000
    7.5799  -15.8619   17.4400 N   0  0  0  0  0  0  0  0  0  0  0  0
    7.9424  -14.5177   17.7534 C   0  0  0  0  0  0  0  0  0  0  0  0
    9.1415  -14.1442   17.5801 O   0  0  0  0  0  0  0  0  0  0  0  0
    7.0001  -13.5123   18.2757 C   0  0  0  0  0  0  0  0  0  0  0  0
    7.5516  -12.9617   19.5901 C   0  0  2  0  0  0  0  0  0  0  0  0
    8.9211  -12.5281   19.4089 N   0  0  0  0  0  0  0  0  0  0  0  0
    7.4751  -13.9576   20.6667 C   0  0  0  0  0  0  0  0  0  0  0  0
    6.3300  -14.4338   20.9796 O   0  0  0  0  0  0  0  0  0  0  0  0
    8.5610  -14.4459   21.3992 N   0  0  0  0  0  0  0  0  0  0  0  0
    8.4243  -15.3647   22.5495 C   0  0  1  0  0  0  0  0  0  0  0  0
    9.3881  -16.5075   22.3618 C   0  0  0  0  0  0  0  0  0  0  0  0
    9.4524  -17.4979   23.4776 C   0  0  0  0  0  0  0  0  0  0  0  0
   10.4508  -18.5534   23.0368 C   0  0  0  0  0  0  0  0  0  0  0  0
   11.6404  -18.5530   23.4103 O   0  0  0  0  0  0  0  0  0  0  0  0
    8.6955  -14.6180   23.7854 C   0  0  0  0  0  0  0  0  0  0  0  0
    9.7114  -13.8342   23.7838 O   0  0  0  0  0  0  0  0  0  0  0  0
   10.0402  -19.5566   22.1920 O   0  0  0  0  0  0  0  0  0  0  0  0
    6.0266  -13.5149   26.7429 C   0  0  0  0  0  0  0  0  0  0  0  0
    7.3305  -12.8209   26.4717 C   0  0  2  0  0  0  0  0  0  0  0  0
    7.1987  -11.7885   25.3818 C   0  0  0  0  0  0  0  0  0  0  0  0
    8.3671  -13.8870   26.1325 C   0  0  2  0  0  0  0  0  0  0  0  0
    7.9411  -14.6755   24.9797 N   0  0  0  0  0  0  0  0  0  0  0  0
    8.6416  -14.7630   27.2794 C   0  0  0  0  0  0  0  0  0  0  0  0
    8.2864  -15.9723   27.2983 O   0  0  0  0  0  0  0  0  0  0  0  0
    9.3105  -14.3149   28.4174 O   0  0  0  0  0  0  0  0  0  0  0  0
  1  2  1  0
  2  3  2  0
  4  5  1  0
  4  2  1  0
  5  6  1  6
  7  5  1  0
  8  7  2  0
  9  7  1  0
 10  9  1  0
 10 11  1  6
 11 12  1  0
 12 13  1  0
 13 17  1  0
 14 13  2  0
 15 22  1  0
 15 10  1  0
 16 15  2  0
 19 18  1  6
 19 21  1  0
 20 19  1  0
 21 23  1  0
 21 22  1  6
 23 25  1  0
 24 23  2  0
M  END
$$$$
