NEV.pdb
     RDKit          3D

 25 24  0  0  1  0  0  0  0  0999 V2000
    7.2334  -12.1859   19.2443 N   0  0  0  0  0  0  0  0  0  0  0  0
    8.1108  -13.0478   19.9681 C   0  0  0  0  0  0  0  0  0  0  0  0
    8.1301  -12.9884   21.2345 O   0  0  0  0  0  0  0  0  0  0  0  0
    9.0150  -14.0226   19.3328 C   0  0  0  0  0  0  0  0  0  0  0  0
    8.4010  -15.4159   19.4630 C   0  0  2  0  0  0  0  0  0  0  0  0
    7.1415  -15.4699   18.7510 N   0  0  0  0  0  0  0  0  0  0  0  0
    8.2027  -15.7890   20.8696 C   0  0  0  0  0  0  0  0  0  0  0  0
    7.0300  -15.6880   21.3701 O   0  0  0  0  0  0  0  0  0  0  0  0
    9.1980  -16.2551   21.7335 N   0  0  0  0  0  0  0  0  0  0  0  0
    8.9284  -16.7458   23.1020 C   0  0  1  0  0  0  0  0  0  0  0  0
    9.9363  -17.8167   23.4297 C   0  0  0  0  0  0  0  0  0  0  0  0
    9.7898  -19.1020   22.6837 C   0  0  0  0  0  0  0  0  0  0  0  0
   10.9239  -19.9902   23.1633 C   0  0  0  0  0  0  0  0  0  0  0  0
   11.0794  -20.2957   24.3622 O   0  0  0  0  0  0  0  0  0  0  0  0
    9.0106  -15.6135   24.0346 C   0  0  0  0  0  0  0  0  0  0  0  0
    9.9447  -14.7571   23.8334 O   0  0  0  0  0  0  0  0  0  0  0  0
   11.8233  -20.4852   22.2496 O   0  0  0  0  0  0  0  0  0  0  0  0
    6.6669  -12.9378   24.7732 C   0  0  0  0  0  0  0  0  0  0  0  0
    7.1030  -13.3906   26.1370 C   0  0  2  0  0  0  0  0  0  0  0  0
    7.2791  -12.2300   27.0821 C   0  0  0  0  0  0  0  0  0  0  0  0
    8.3853  -14.2001   25.9743 C   0  0  2  0  0  0  0  0  0  0  0  0
    8.1552  -15.3718   25.1339 N   0  0  0  0  0  0  0  0  0  0  0  0
    8.9431  -14.6022   27.2725 C   0  0  0  0  0  0  0  0  0  0  0  0
    8.8847  -15.7911   27.6870 O   0  0  0  0  0  0  0  0  0  0  0  0
    9.5711  -13.6975   28.1272 O   0  0  0  0  0  0  0  0  0  0  0  0
  1  2  1  0
  2  3  2  0
  4  5  1  0
  4  2  1  0
  5  6  1  6
  7  5  1  0
  8  7  2  0
  9  7  1  0
 10  9  1  0
 10 11  1  1
 11 12  1  0
 12 13  1  0
 13 17  1  0
 14 13  2  0
 15 22  1  0
 15 10  1  0
 16 15  2  0
 19 18  1  6
 19 21  1  0
 20 19  1  0
 21 23  1  0
 21 22  1  6
 23 25  1  0
 24 23  2  0
M  END
$$$$
