NEV.pdb
     RDKit          3D

 25 24  0  0  1  0  0  0  0  0999 V2000
    8.0489  -12.3925   17.4057 N   0  0  0  0  0  0  0  0  0  0  0  0
    7.8083  -13.7911   17.5551 C   0  0  0  0  0  0  0  0  0  0  0  0
    7.8972  -14.5457   16.5401 O   0  0  0  0  0  0  0  0  0  0  0  0
    7.4561  -14.4331   18.8339 C   0  0  0  0  0  0  0  0  0  0  0  0
    8.7305  -14.6134   19.6576 C   0  0  2  0  0  0  0  0  0  0  0  0
    9.6561  -15.4764   18.9543 N   0  0  0  0  0  0  0  0  0  0  0  0
    8.4397  -15.1621   20.9885 C   0  0  0  0  0  0  0  0  0  0  0  0
    7.3055  -14.9061   21.5216 O   0  0  0  0  0  0  0  0  0  0  0  0
    9.3056  -15.9563   21.7457 N   0  0  0  0  0  0  0  0  0  0  0  0
    8.9672  -16.4895   23.0826 C   0  0  1  0  0  0  0  0  0  0  0  0
    9.9397  -17.5913   23.4147 C   0  0  0  0  0  0  0  0  0  0  0  0
    9.7990  -18.2000   24.7711 C   0  0  0  0  0  0  0  0  0  0  0  0
   10.8772  -19.2651   24.8604 C   0  0  0  0  0  0  0  0  0  0  0  0
   10.6428  -20.4313   25.2343 O   0  0  0  0  0  0  0  0  0  0  0  0
    9.0294  -15.3927   24.0583 C   0  0  0  0  0  0  0  0  0  0  0  0
   10.1006  -14.6865   24.0764 O   0  0  0  0  0  0  0  0  0  0  0  0
   12.1691  -18.9449   24.5179 O   0  0  0  0  0  0  0  0  0  0  0  0
    6.6415  -12.5220   24.6755 C   0  0  0  0  0  0  0  0  0  0  0  0
    6.9840  -13.0697   26.0312 C   0  0  2  0  0  0  0  0  0  0  0  0
    7.1460  -11.9737   27.0528 C   0  0  0  0  0  0  0  0  0  0  0  0
    8.2451  -13.9158   25.8899 C   0  0  2  0  0  0  0  0  0  0  0  0
    8.0187  -15.0350   24.9798 N   0  0  0  0  0  0  0  0  0  0  0  0
    8.7226  -14.4020   27.1913 C   0  0  0  0  0  0  0  0  0  0  0  0
    9.2139  -13.6276   28.0561 O   0  0  0  0  0  0  0  0  0  0  0  0
    8.6637  -15.7471   27.5526 O   0  0  0  0  0  0  0  0  0  0  0  0
  1  2  1  0
  2  3  2  0
  4  5  1  0
  4  2  1  0
  5  6  1  6
  7  5  1  0
  8  7  2  0
  9  7  1  0
 10  9  1  0
 10 11  1  1
 11 12  1  0
 12 13  1  0
 13 17  1  0
 14 13  2  0
 15 22  1  0
 15 10  1  0
 16 15  2  0
 19 18  1  6
 19 21  1  0
 20 19  1  0
 21 23  1  0
 21 22  1  6
 23 25  1  0
 24 23  2  0
M  END
$$$$
