NEV.pdb
     RDKit          3D

 25 24  0  0  1  0  0  0  0  0999 V2000
    7.4422  -12.6116   17.3132 N   0  0  0  0  0  0  0  0  0  0  0  0
    8.3624  -13.0587   18.3081 C   0  0  0  0  0  0  0  0  0  0  0  0
    9.5992  -13.1011   18.0320 O   0  0  0  0  0  0  0  0  0  0  0  0
    7.9671  -13.4837   19.6625 C   0  0  0  0  0  0  0  0  0  0  0  0
    8.2504  -14.9782   19.8081 C   0  0  2  0  0  0  0  0  0  0  0  0
    7.3966  -15.7328   18.9149 N   0  0  0  0  0  0  0  0  0  0  0  0
    8.0600  -15.4313   21.1921 C   0  0  0  0  0  0  0  0  0  0  0  0
    6.8678  -15.5359   21.6433 O   0  0  0  0  0  0  0  0  0  0  0  0
    9.0827  -15.7669   22.0840 N   0  0  0  0  0  0  0  0  0  0  0  0
    8.8409  -16.2745   23.4515 C   0  0  1  0  0  0  0  0  0  0  0  0
    9.8299  -17.3762   23.7310 C   0  0  0  0  0  0  0  0  0  0  0  0
    9.8369  -17.9094   25.1259 C   0  0  0  0  0  0  0  0  0  0  0  0
   10.8947  -18.9984   25.1472 C   0  0  0  0  0  0  0  0  0  0  0  0
   11.6269  -19.2070   26.1347 O   0  0  0  0  0  0  0  0  0  0  0  0
    8.9798  -15.1612   24.4001 C   0  0  0  0  0  0  0  0  0  0  0  0
   10.0786  -14.4995   24.3679 O   0  0  0  0  0  0  0  0  0  0  0  0
   11.0627  -19.7948   24.0398 O   0  0  0  0  0  0  0  0  0  0  0  0
    6.0364  -13.5421   27.0720 C   0  0  0  0  0  0  0  0  0  0  0  0
    7.1569  -12.7381   26.4775 C   0  0  2  0  0  0  0  0  0  0  0  0
    6.7423  -12.0630   25.1956 C   0  0  0  0  0  0  0  0  0  0  0  0
    8.3478  -13.6699   26.2784 C   0  0  2  0  0  0  0  0  0  0  0  0
    8.0155  -14.7432   25.3457 N   0  0  0  0  0  0  0  0  0  0  0  0
    8.8219  -14.2266   27.5525 C   0  0  0  0  0  0  0  0  0  0  0  0
    8.6792  -15.4442   27.8455 O   0  0  0  0  0  0  0  0  0  0  0  0
    9.4582  -13.4466   28.5169 O   0  0  0  0  0  0  0  0  0  0  0  0
  1  2  1  0
  2  3  2  0
  4  5  1  0
  4  2  1  0
  5  6  1  6
  7  5  1  0
  8  7  2  0
  9  7  1  0
 10  9  1  0
 10 11  1  1
 11 12  1  0
 12 13  1  0
 13 17  1  0
 14 13  2  0
 15 22  1  0
 15 10  1  0
 16 15  2  0
 19 18  1  6
 19 21  1  0
 20 19  1  0
 21 23  1  0
 21 22  1  6
 23 25  1  0
 24 23  2  0
M  END
$$$$
