NEV.pdb
     RDKit          3D

 25 24  0  0  1  0  0  0  0  0999 V2000
    8.7295  -15.0569   16.7552 N   0  0  0  0  0  0  0  0  0  0  0  0
    7.9506  -14.0485   17.3977 C   0  0  0  0  0  0  0  0  0  0  0  0
    7.7495  -12.9482   16.8005 O   0  0  0  0  0  0  0  0  0  0  0  0
    7.3511  -14.1999   18.7353 C   0  0  0  0  0  0  0  0  0  0  0  0
    8.4319  -13.9512   19.7864 C   0  0  2  0  0  0  0  0  0  0  0  0
    9.7266  -14.3365   19.2654 N   0  0  0  0  0  0  0  0  0  0  0  0
    8.1515  -14.6780   21.0313 C   0  0  0  0  0  0  0  0  0  0  0  0
    7.0268  -14.4888   21.6104 O   0  0  0  0  0  0  0  0  0  0  0  0
    9.0178  -15.5784   21.6581 N   0  0  0  0  0  0  0  0  0  0  0  0
    8.7162  -16.2425   22.9442 C   0  0  1  0  0  0  0  0  0  0  0  0
    9.6620  -17.4031   23.1128 C   0  0  0  0  0  0  0  0  0  0  0  0
    9.5929  -18.1173   24.4225 C   0  0  0  0  0  0  0  0  0  0  0  0
   10.6484  -19.2066   24.3559 C   0  0  0  0  0  0  0  0  0  0  0  0
   11.8097  -19.0462   24.7807 O   0  0  0  0  0  0  0  0  0  0  0  0
    8.8571  -15.2603   24.0277 C   0  0  0  0  0  0  0  0  0  0  0  0
   10.0084  -14.7129   24.1743 O   0  0  0  0  0  0  0  0  0  0  0  0
   10.3245  -20.4246   23.8078 O   0  0  0  0  0  0  0  0  0  0  0  0
    6.5543  -12.2940   24.9994 C   0  0  0  0  0  0  0  0  0  0  0  0
    6.9432  -13.0015   26.2656 C   0  0  2  0  0  0  0  0  0  0  0  0
    7.2067  -12.0328   27.3896 C   0  0  0  0  0  0  0  0  0  0  0  0
    8.1566  -13.8739   25.9612 C   0  0  2  0  0  0  0  0  0  0  0  0
    7.8432  -14.8541   24.9253 N   0  0  0  0  0  0  0  0  0  0  0  0
    8.6599  -14.5456   27.1669 C   0  0  0  0  0  0  0  0  0  0  0  0
    8.3380  -15.7291   27.4577 O   0  0  0  0  0  0  0  0  0  0  0  0
    9.5230  -13.9193   28.0647 O   0  0  0  0  0  0  0  0  0  0  0  0
  1  2  1  0
  2  3  2  0
  4  5  1  0
  4  2  1  0
  5  6  1  6
  7  5  1  0
  8  7  2  0
  9  7  1  0
 10  9  1  0
 10 11  1  1
 11 12  1  0
 12 13  1  0
 13 17  1  0
 14 13  2  0
 15 22  1  0
 15 10  1  0
 16 15  2  0
 19 18  1  6
 19 21  1  0
 20 19  1  0
 21 23  1  0
 21 22  1  6
 23 25  1  0
 24 23  2  0
M  END
$$$$
