VPF.pdb
     RDKit          3D

 26 27  0  0  1  0  0  0  0  0999 V2000
    6.2006  -18.1382   23.0928 C   0  0  0  0  0  0  0  0  0  0  0  0
    6.5497  -19.0614   21.9404 C   0  0  1  0  0  0  0  0  0  0  0  0
    5.3658  -19.9430   21.6467 C   0  0  0  0  0  0  0  0  0  0  0  0
    6.9491  -18.2001   20.7675 C   0  0  2  0  0  0  0  0  0  0  0  0
    7.2436  -19.0764   19.6627 N   0  0  0  0  0  0  0  0  0  0  0  0
    8.0640  -17.3028   21.1382 C   0  0  0  0  0  0  0  0  0  0  0  0
    9.1956  -17.8774   21.2761 O   0  0  0  0  0  0  0  0  0  0  0  0
    7.9112  -15.9066   21.3315 N   0  0  0  0  0  0  0  0  0  0  0  0
    6.6956  -15.1603   21.2271 C   0  0  0  0  0  0  0  0  0  0  0  0
    7.0218  -13.7220   21.5057 C   0  0  0  0  0  0  0  0  0  0  0  0
    8.5428  -13.6290   21.3318 C   0  0  0  0  0  0  0  0  0  0  0  0
    8.9861  -15.0192   21.6687 C   0  0  1  0  0  0  0  0  0  0  0  0
    9.4103  -15.1451   23.0855 C   0  0  0  0  0  0  0  0  0  0  0  0
   10.4922  -14.6019   23.4169 O   0  0  0  0  0  0  0  0  0  0  0  0
    8.6712  -15.8341   24.0666 N   0  0  0  0  0  0  0  0  0  0  0  0
    9.0582  -15.7141   25.4680 C   0  0  1  0  0  0  0  0  0  0  0  0
    7.8591  -15.6314   26.3549 C   0  0  0  0  0  0  0  0  0  0  0  0
    7.2188  -14.3065   26.3335 C   0  0  0  0  0  0  0  0  0  0  0  0
    5.8928  -14.1396   25.9958 C   0  0  0  0  0  0  0  0  0  0  0  0
    5.2901  -12.8987   25.9823 C   0  0  0  0  0  0  0  0  0  0  0  0
    5.9863  -11.7715   26.3052 C   0  0  0  0  0  0  0  0  0  0  0  0
    7.3160  -11.8977   26.6485 C   0  0  0  0  0  0  0  0  0  0  0  0
    7.9124  -13.1398   26.6603 C   0  0  0  0  0  0  0  0  0  0  0  0
    9.8635  -16.8986   25.8187 C   0  0  0  0  0  0  0  0  0  0  0  0
   10.8072  -16.9315   26.8505 O   0  0  0  0  0  0  0  0  0  0  0  0
    9.7024  -17.9700   25.1454 O   0  0  0  0  0  0  0  0  0  0  0  0
  2  3  1  6
  2  1  1  0
  4  6  1  0
  4  2  1  0
  4  5  1  6
  6  8  1  0
  7  6  2  0
  8 12  1  0
  8  9  1  0
  9 10  1  0
 10 11  1  0
 12 11  1  0
 12 13  1  1
 14 13  2  0
 15 13  1  0
 16 24  1  0
 16 15  1  0
 16 17  1  1
 18 19  2  0
 18 17  1  0
 20 19  1  0
 21 20  2  0
 22 21  1  0
 22 23  2  0
 23 18  1  0
 24 25  1  0
 26 24  2  0
M  END
$$$$
