VPF.pdb
     RDKit          3D

 26 27  0  0  1  0  0  0  0  0999 V2000
    3.5513  -17.6062   21.0407 C   0  0  0  0  0  0  0  0  0  0  0  0
    4.8801  -17.1440   21.6088 C   0  0  1  0  0  0  0  0  0  0  0  0
    5.2034  -17.9696   22.8249 C   0  0  0  0  0  0  0  0  0  0  0  0
    5.9146  -17.2709   20.5176 C   0  0  2  0  0  0  0  0  0  0  0  0
    5.9971  -18.6624   20.1541 N   0  0  0  0  0  0  0  0  0  0  0  0
    7.2006  -16.6842   20.9506 C   0  0  0  0  0  0  0  0  0  0  0  0
    8.0715  -17.5283   21.3489 O   0  0  0  0  0  0  0  0  0  0  0  0
    7.4686  -15.2920   20.9339 N   0  0  0  0  0  0  0  0  0  0  0  0
    6.5917  -14.2615   20.4707 C   0  0  0  0  0  0  0  0  0  0  0  0
    7.3044  -12.9512   20.6383 C   0  0  0  0  0  0  0  0  0  0  0  0
    8.7816  -13.3314   20.7986 C   0  0  0  0  0  0  0  0  0  0  0  0
    8.6933  -14.7035   21.3924 C   0  0  1  0  0  0  0  0  0  0  0  0
    8.8001  -14.6823   22.8727 C   0  0  0  0  0  0  0  0  0  0  0  0
    8.5692  -13.5945   23.4548 O   0  0  0  0  0  0  0  0  0  0  0  0
    9.1429  -15.8057   23.6498 N   0  0  0  0  0  0  0  0  0  0  0  0
    9.2754  -15.6610   25.0954 C   0  0  1  0  0  0  0  0  0  0  0  0
    7.9402  -15.6750   25.7649 C   0  0  0  0  0  0  0  0  0  0  0  0
    7.4427  -14.3271   26.0831 C   0  0  0  0  0  0  0  0  0  0  0  0
    6.1370  -13.9539   25.8464 C   0  0  0  0  0  0  0  0  0  0  0  0
    5.6681  -12.6926   26.1508 C   0  0  0  0  0  0  0  0  0  0  0  0
    6.4836  -11.7503   26.7045 C   0  0  0  0  0  0  0  0  0  0  0  0
    7.7973  -12.0859   26.9562 C   0  0  0  0  0  0  0  0  0  0  0  0
    8.2597  -13.3473   26.6501 C   0  0  0  0  0  0  0  0  0  0  0  0
   10.0985  -16.7804   25.5892 C   0  0  0  0  0  0  0  0  0  0  0  0
   10.5421  -17.8420   24.7939 O   0  0  0  0  0  0  0  0  0  0  0  0
   10.4341  -16.7976   26.8197 O   0  0  0  0  0  0  0  0  0  0  0  0
  2  3  1  1
  2  1  1  0
  4  6  1  0
  4  2  1  0
  4  5  1  1
  6  8  1  0
  7  6  2  0
  8 12  1  0
  8  9  1  0
  9 10  1  0
 10 11  1  0
 12 11  1  0
 12 13  1  1
 14 13  2  0
 15 13  1  0
 16 24  1  0
 16 15  1  0
 16 17  1  1
 18 19  2  0
 18 17  1  0
 20 19  1  0
 21 20  2  0
 22 21  1  0
 22 23  2  0
 23 18  1  0
 24 25  1  0
 26 24  2  0
M  END
$$$$
