VPF.pdb
     RDKit          3D

 26 27  0  0  1  0  0  0  0  0999 V2000
    8.7342  -12.7518   18.2905 C   0  0  0  0  0  0  0  0  0  0  0  0
    8.7030  -13.5420   19.5853 C   0  0  1  0  0  0  0  0  0  0  0  0
    8.4165  -12.6003   20.7238 C   0  0  0  0  0  0  0  0  0  0  0  0
    7.6610  -14.6234   19.4378 C   0  0  2  0  0  0  0  0  0  0  0  0
    6.4447  -13.9986   18.9846 N   0  0  0  0  0  0  0  0  0  0  0  0
    7.5156  -15.3798   20.6996 C   0  0  0  0  0  0  0  0  0  0  0  0
    6.6963  -14.8761   21.5390 O   0  0  0  0  0  0  0  0  0  0  0  0
    8.2228  -16.5767   20.9783 N   0  0  0  0  0  0  0  0  0  0  0  0
    9.0490  -17.3091   20.0692 C   0  0  0  0  0  0  0  0  0  0  0  0
    9.5794  -18.5062   20.8031 C   0  0  0  0  0  0  0  0  0  0  0  0
    8.6606  -18.6513   22.0226 C   0  0  0  0  0  0  0  0  0  0  0  0
    8.2087  -17.2415   22.2489 C   0  0  1  0  0  0  0  0  0  0  0  0
    9.0318  -16.5453   23.2692 C   0  0  0  0  0  0  0  0  0  0  0  0
   10.0674  -15.9559   22.8746 O   0  0  0  0  0  0  0  0  0  0  0  0
    8.7157  -16.5115   24.6412 N   0  0  0  0  0  0  0  0  0  0  0  0
    9.6597  -15.9108   25.5773 C   0  0  1  0  0  0  0  0  0  0  0  0
    9.6254  -14.4195   25.4976 C   0  0  0  0  0  0  0  0  0  0  0  0
    8.3622  -13.8466   25.9891 C   0  0  0  0  0  0  0  0  0  0  0  0
    8.3299  -12.8791   26.9705 C   0  0  0  0  0  0  0  0  0  0  0  0
    7.1464  -12.3366   27.4268 C   0  0  0  0  0  0  0  0  0  0  0  0
    5.9446  -12.7376   26.9224 C   0  0  0  0  0  0  0  0  0  0  0  0
    5.9356  -13.7043   25.9389 C   0  0  0  0  0  0  0  0  0  0  0  0
    7.1210  -14.2423   25.4872 C   0  0  0  0  0  0  0  0  0  0  0  0
    9.2928  -16.3513   26.9359 C   0  0  0  0  0  0  0  0  0  0  0  0
    8.1764  -17.1396   27.2333 O   0  0  0  0  0  0  0  0  0  0  0  0
   10.0301  -15.9969   27.9147 O   0  0  0  0  0  0  0  0  0  0  0  0
  2  3  1  1
  2  1  1  0
  4  6  1  0
  4  2  1  0
  4  5  1  1
  6  8  1  0
  7  6  2  0
  8 12  1  0
  8  9  1  0
  9 10  1  0
 10 11  1  0
 12 11  1  0
 12 13  1  1
 14 13  2  0
 15 13  1  0
 16 24  1  0
 16 15  1  0
 16 17  1  1
 18 19  2  0
 18 17  1  0
 20 19  1  0
 21 20  2  0
 22 21  1  0
 22 23  2  0
 23 18  1  0
 24 25  1  0
 26 24  2  0
M  END
$$$$
