VPF.pdb
     RDKit          3D

 26 27  0  0  1  0  0  0  0  0999 V2000
    9.3518  -19.7194   20.6266 C   0  0  0  0  0  0  0  0  0  0  0  0
   10.4638  -19.1524   19.7641 C   0  0  1  0  0  0  0  0  0  0  0  0
   10.7875  -20.1400   18.6756 C   0  0  0  0  0  0  0  0  0  0  0  0
    9.9973  -17.8197   19.2317 C   0  0  2  0  0  0  0  0  0  0  0  0
   11.0331  -17.3061   18.3724 N   0  0  0  0  0  0  0  0  0  0  0  0
    9.6333  -16.9153   20.3431 C   0  0  0  0  0  0  0  0  0  0  0  0
   10.6193  -16.4678   21.0191 O   0  0  0  0  0  0  0  0  0  0  0  0
    8.2966  -16.5584   20.6534 N   0  0  0  0  0  0  0  0  0  0  0  0
    7.1121  -17.0891   20.0527 C   0  0  0  0  0  0  0  0  0  0  0  0
    5.9366  -16.4088   20.6916 C   0  0  0  0  0  0  0  0  0  0  0  0
    6.5265  -15.1588   21.3562 C   0  0  0  0  0  0  0  0  0  0  0  0
    7.9332  -15.5857   21.6424 C   0  0  1  0  0  0  0  0  0  0  0  0
    8.0955  -16.0900   23.0290 C   0  0  0  0  0  0  0  0  0  0  0  0
    8.0791  -17.3335   23.1990 O   0  0  0  0  0  0  0  0  0  0  0  0
    8.2652  -15.2562   24.1513 N   0  0  0  0  0  0  0  0  0  0  0  0
    8.5724  -15.8545   25.4459 C   0  0  1  0  0  0  0  0  0  0  0  0
    8.9194  -14.8099   26.4557 C   0  0  0  0  0  0  0  0  0  0  0  0
    7.9485  -13.7047   26.4962 C   0  0  0  0  0  0  0  0  0  0  0  0
    7.0452  -13.5612   27.5275 C   0  0  0  0  0  0  0  0  0  0  0  0
    6.1394  -12.5215   27.5696 C   0  0  0  0  0  0  0  0  0  0  0  0
    6.0970  -11.5810   26.5831 C   0  0  0  0  0  0  0  0  0  0  0  0
    6.9850  -11.6906   25.5338 C   0  0  0  0  0  0  0  0  0  0  0  0
    7.8875  -12.7312   25.4974 C   0  0  0  0  0  0  0  0  0  0  0  0
    7.3857  -16.6092   25.8892 C   0  0  0  0  0  0  0  0  0  0  0  0
    6.1263  -16.5208   25.2872 O   0  0  0  0  0  0  0  0  0  0  0  0
    7.4979  -17.3965   26.8866 O   0  0  0  0  0  0  0  0  0  0  0  0
  2  3  1  6
  2  1  1  0
  4  6  1  0
  4  2  1  0
  4  5  1  1
  6  8  1  0
  7  6  2  0
  8 12  1  0
  8  9  1  0
  9 10  1  0
 10 11  1  0
 12 11  1  0
 12 13  1  1
 14 13  2  0
 15 13  1  0
 16 24  1  0
 16 15  1  0
 16 17  1  1
 18 19  2  0
 18 17  1  0
 20 19  1  0
 21 20  2  0
 22 21  1  0
 22 23  2  0
 23 18  1  0
 24 25  1  0
 26 24  2  0
M  END
$$$$
