VPF.pdb
     RDKit          3D

 26 27  0  0  1  0  0  0  0  0999 V2000
    9.3865  -19.5218   20.5059 C   0  0  0  0  0  0  0  0  0  0  0  0
   10.5522  -18.9393   19.7288 C   0  0  1  0  0  0  0  0  0  0  0  0
   10.9003  -19.8726   18.6007 C   0  0  0  0  0  0  0  0  0  0  0  0
   10.1463  -17.5656   19.2540 C   0  0  2  0  0  0  0  0  0  0  0  0
   11.2305  -17.0383   18.4656 N   0  0  0  0  0  0  0  0  0  0  0  0
    9.7640  -16.7125   20.3992 C   0  0  0  0  0  0  0  0  0  0  0  0
   10.7399  -16.2825   21.1008 O   0  0  0  0  0  0  0  0  0  0  0  0
    8.4211  -16.3839   20.7139 N   0  0  0  0  0  0  0  0  0  0  0  0
    7.2462  -16.9351   20.1129 C   0  0  0  0  0  0  0  0  0  0  0  0
    6.0586  -16.2815   20.7575 C   0  0  0  0  0  0  0  0  0  0  0  0
    6.6249  -15.0233   21.4271 C   0  0  0  0  0  0  0  0  0  0  0  0
    8.0403  -15.4235   21.7085 C   0  0  1  0  0  0  0  0  0  0  0  0
    8.2155  -15.9312   23.0922 C   0  0  0  0  0  0  0  0  0  0  0  0
    8.2396  -17.1757   23.2541 O   0  0  0  0  0  0  0  0  0  0  0  0
    8.3547  -15.0997   24.2203 N   0  0  0  0  0  0  0  0  0  0  0  0
    8.6545  -15.6983   25.5165 C   0  0  1  0  0  0  0  0  0  0  0  0
    8.9272  -14.6508   26.5459 C   0  0  0  0  0  0  0  0  0  0  0  0
    7.9437  -13.5562   26.5264 C   0  0  0  0  0  0  0  0  0  0  0  0
    8.0853  -12.4594   25.7034 C   0  0  0  0  0  0  0  0  0  0  0  0
    7.1602  -11.4362   25.6796 C   0  0  0  0  0  0  0  0  0  0  0  0
    6.0543  -11.4649   26.4770 C   0  0  0  0  0  0  0  0  0  0  0  0
    5.8776  -12.5460   27.3148 C   0  0  0  0  0  0  0  0  0  0  0  0
    6.8050  -13.5649   27.3340 C   0  0  0  0  0  0  0  0  0  0  0  0
    7.4920  -16.5108   25.9201 C   0  0  0  0  0  0  0  0  0  0  0  0
    7.5222  -17.4840   26.9242 O   0  0  0  0  0  0  0  0  0  0  0  0
    6.3798  -16.3278   25.3229 O   0  0  0  0  0  0  0  0  0  0  0  0
  2  3  1  6
  2  1  1  0
  4  6  1  0
  4  2  1  0
  4  5  1  1
  6  8  1  0
  7  6  2  0
  8 12  1  0
  8  9  1  0
  9 10  1  0
 10 11  1  0
 12 11  1  0
 12 13  1  1
 14 13  2  0
 15 13  1  0
 16 24  1  0
 16 15  1  0
 16 17  1  1
 18 19  2  0
 18 17  1  0
 20 19  1  0
 21 20  2  0
 22 21  1  0
 22 23  2  0
 23 18  1  0
 24 25  1  0
 26 24  2  0
M  END
$$$$
