VPF.pdb
     RDKit          3D

 26 27  0  0  1  0  0  0  0  0999 V2000
   10.6748  -15.1716   20.0462 C   0  0  0  0  0  0  0  0  0  0  0  0
   10.2428  -13.9082   19.3256 C   0  0  1  0  0  0  0  0  0  0  0  0
   11.0657  -13.7555   18.0748 C   0  0  0  0  0  0  0  0  0  0  0  0
    8.7637  -14.0211   19.0484 C   0  0  2  0  0  0  0  0  0  0  0  0
    8.3356  -12.7817   18.4521 N   0  0  0  0  0  0  0  0  0  0  0  0
    8.0307  -14.3815   20.2806 C   0  0  0  0  0  0  0  0  0  0  0  0
    7.8295  -13.4154   21.0904 O   0  0  0  0  0  0  0  0  0  0  0  0
    7.5763  -15.6946   20.5629 N   0  0  0  0  0  0  0  0  0  0  0  0
    7.6693  -16.8318   19.7005 C   0  0  0  0  0  0  0  0  0  0  0  0
    7.0510  -17.9961   20.4182 C   0  0  0  0  0  0  0  0  0  0  0  0
    6.2111  -17.3619   21.5338 C   0  0  0  0  0  0  0  0  0  0  0  0
    6.9402  -16.0789   21.7894 C   0  0  1  0  0  0  0  0  0  0  0  0
    7.8956  -16.1918   22.9197 C   0  0  0  0  0  0  0  0  0  0  0  0
    9.0449  -16.6275   22.6656 O   0  0  0  0  0  0  0  0  0  0  0  0
    7.5840  -15.8398   24.2473 N   0  0  0  0  0  0  0  0  0  0  0  0
    8.6391  -15.8473   25.2548 C   0  0  1  0  0  0  0  0  0  0  0  0
    9.0087  -14.4582   25.6611 C   0  0  0  0  0  0  0  0  0  0  0  0
    7.8620  -13.6798   26.1559 C   0  0  0  0  0  0  0  0  0  0  0  0
    7.5706  -13.5789   27.4995 C   0  0  0  0  0  0  0  0  0  0  0  0
    6.4999  -12.8437   27.9644 C   0  0  0  0  0  0  0  0  0  0  0  0
    5.6744  -12.1781   27.1072 C   0  0  0  0  0  0  0  0  0  0  0  0
    5.9332  -12.2551   25.7548 C   0  0  0  0  0  0  0  0  0  0  0  0
    7.0043  -12.9909   25.2964 C   0  0  0  0  0  0  0  0  0  0  0  0
    8.1446  -16.5992   26.4230 C   0  0  0  0  0  0  0  0  0  0  0  0
    8.9381  -16.9715   27.5129 O   0  0  0  0  0  0  0  0  0  0  0  0
    6.9163  -16.9417   26.4557 O   0  0  0  0  0  0  0  0  0  0  0  0
  2  3  1  6
  2  1  1  0
  4  6  1  0
  4  2  1  0
  4  5  1  1
  6  8  1  0
  7  6  2  0
  8 12  1  0
  8  9  1  0
  9 10  1  0
 10 11  1  0
 12 11  1  0
 12 13  1  1
 14 13  2  0
 15 13  1  0
 16 24  1  0
 16 15  1  0
 16 17  1  1
 18 19  2  0
 18 17  1  0
 20 19  1  0
 21 20  2  0
 22 21  1  0
 22 23  2  0
 23 18  1  0
 24 25  1  0
 26 24  2  0
M  END
$$$$
