VPF.pdb
     RDKit          3D

 26 27  0  0  1  0  0  0  0  0999 V2000
   10.5677  -18.2022   20.3554 C   0  0  0  0  0  0  0  0  0  0  0  0
   11.6269  -17.3190   19.7227 C   0  0  1  0  0  0  0  0  0  0  0  0
   12.3015  -18.0842   18.6162 C   0  0  0  0  0  0  0  0  0  0  0  0
   10.9470  -16.0611   19.2405 C   0  0  2  0  0  0  0  0  0  0  0  0
   11.9495  -15.2337   18.6195 N   0  0  0  0  0  0  0  0  0  0  0  0
   10.2258  -15.4027   20.3504 C   0  0  0  0  0  0  0  0  0  0  0  0
   10.9665  -14.7668   21.1729 O   0  0  0  0  0  0  0  0  0  0  0  0
    8.8180  -15.4602   20.5096 N   0  0  0  0  0  0  0  0  0  0  0  0
    7.8863  -16.0914   19.6270 C   0  0  0  0  0  0  0  0  0  0  0  0
    6.5129  -15.8878   20.1975 C   0  0  0  0  0  0  0  0  0  0  0  0
    6.6759  -14.7371   21.1983 C   0  0  0  0  0  0  0  0  0  0  0  0
    8.1089  -14.8758   21.6105 C   0  0  1  0  0  0  0  0  0  0  0  0
    8.2590  -15.6528   22.8663 C   0  0  0  0  0  0  0  0  0  0  0  0
    8.6219  -16.8503   22.7668 O   0  0  0  0  0  0  0  0  0  0  0  0
    8.0185  -15.1235   24.1490 N   0  0  0  0  0  0  0  0  0  0  0  0
    8.3925  -15.9017   25.3248 C   0  0  1  0  0  0  0  0  0  0  0  0
    8.6970  -15.0137   26.4867 C   0  0  0  0  0  0  0  0  0  0  0  0
    7.8289  -13.8269   26.5459 C   0  0  0  0  0  0  0  0  0  0  0  0
    6.5124  -13.9022   26.9477 C   0  0  0  0  0  0  0  0  0  0  0  0
    5.7000  -12.7889   27.0101 C   0  0  0  0  0  0  0  0  0  0  0  0
    6.1678  -11.5531   26.6736 C   0  0  0  0  0  0  0  0  0  0  0  0
    7.4802  -11.4371   26.2663 C   0  0  0  0  0  0  0  0  0  0  0  0
    8.2868  -12.5526   26.2061 C   0  0  0  0  0  0  0  0  0  0  0  0
    7.2659  -16.7943   25.6545 C   0  0  0  0  0  0  0  0  0  0  0  0
    7.3505  -17.8752   26.5381 O   0  0  0  0  0  0  0  0  0  0  0  0
    6.1347  -16.5815   25.1048 O   0  0  0  0  0  0  0  0  0  0  0  0
  2  3  1  6
  2  1  1  0
  4  6  1  0
  4  2  1  0
  4  5  1  1
  6  8  1  0
  7  6  2  0
  8 12  1  0
  8  9  1  0
  9 10  1  0
 10 11  1  0
 12 11  1  0
 12 13  1  1
 14 13  2  0
 15 13  1  0
 16 24  1  0
 16 15  1  0
 16 17  1  1
 18 19  2  0
 18 17  1  0
 20 19  1  0
 21 20  2  0
 22 21  1  0
 22 23  2  0
 23 18  1  0
 24 25  1  0
 26 24  2  0
M  END
$$$$
