VPF.pdb
     RDKit          3D

 26 27  0  0  1  0  0  0  0  0999 V2000
    8.5129  -19.0314   17.9663 C   0  0  0  0  0  0  0  0  0  0  0  0
    8.9267  -18.5257   19.3357 C   0  0  1  0  0  0  0  0  0  0  0  0
    9.9645  -19.4553   19.9049 C   0  0  0  0  0  0  0  0  0  0  0  0
    9.4280  -17.1121   19.1705 C   0  0  2  0  0  0  0  0  0  0  0  0
   10.6033  -17.1601   18.3390 N   0  0  0  0  0  0  0  0  0  0  0  0
    9.6488  -16.4821   20.4896 C   0  0  0  0  0  0  0  0  0  0  0  0
   10.8660  -16.4449   20.8725 O   0  0  0  0  0  0  0  0  0  0  0  0
    8.6026  -15.9527   21.2869 N   0  0  0  0  0  0  0  0  0  0  0  0
    7.2057  -15.9707   20.9804 C   0  0  0  0  0  0  0  0  0  0  0  0
    6.4859  -15.2902   22.1081 C   0  0  0  0  0  0  0  0  0  0  0  0
    7.5757  -14.4987   22.8417 C   0  0  0  0  0  0  0  0  0  0  0  0
    8.8037  -15.3049   22.5504 C   0  0  1  0  0  0  0  0  0  0  0  0
    9.1192  -16.2611   23.6410 C   0  0  0  0  0  0  0  0  0  0  0  0
    8.8581  -17.4727   23.4427 O   0  0  0  0  0  0  0  0  0  0  0  0
    9.6895  -15.8849   24.8724 N   0  0  0  0  0  0  0  0  0  0  0  0
   10.6000  -16.8028   25.5482 C   0  0  1  0  0  0  0  0  0  0  0  0
   11.6389  -16.0608   26.3237 C   0  0  0  0  0  0  0  0  0  0  0  0
   11.0652  -15.1366   27.3149 C   0  0  0  0  0  0  0  0  0  0  0  0
   10.5154  -13.9251   26.9540 C   0  0  0  0  0  0  0  0  0  0  0  0
    9.9712  -13.0613   27.8818 C   0  0  0  0  0  0  0  0  0  0  0  0
    9.9532  -13.3706   29.2098 C   0  0  0  0  0  0  0  0  0  0  0  0
   10.4944  -14.5742   29.6103 C   0  0  0  0  0  0  0  0  0  0  0  0
   11.0364  -15.4329   28.6788 C   0  0  0  0  0  0  0  0  0  0  0  0
    9.8012  -17.6471   26.4557 C   0  0  0  0  0  0  0  0  0  0  0  0
    8.4249  -17.5021   26.6583 O   0  0  0  0  0  0  0  0  0  0  0  0
   10.3892  -18.5728   27.1072 O   0  0  0  0  0  0  0  0  0  0  0  0
  2  3  1  6
  2  1  1  0
  4  6  1  0
  4  2  1  0
  4  5  1  1
  6  8  1  0
  7  6  2  0
  8 12  1  0
  8  9  1  0
  9 10  1  0
 10 11  1  0
 12 11  1  0
 12 13  1  1
 14 13  2  0
 15 13  1  0
 16 24  1  0
 16 15  1  0
 16 17  1  1
 18 19  2  0
 18 17  1  0
 20 19  1  0
 21 20  2  0
 22 21  1  0
 22 23  2  0
 23 18  1  0
 24 25  1  0
 26 24  2  0
M  END
$$$$
