VPF.pdb
     RDKit          3D

 26 27  0  0  1  0  0  0  0  0999 V2000
    9.1611  -13.2180   20.6315 C   0  0  0  0  0  0  0  0  0  0  0  0
    7.7222  -13.3818   20.1789 C   0  0  1  0  0  0  0  0  0  0  0  0
    7.5299  -12.6338   18.8872 C   0  0  0  0  0  0  0  0  0  0  0  0
    7.4470  -14.8600   20.0512 C   0  0  2  0  0  0  0  0  0  0  0  0
    6.1208  -15.0118   19.5095 N   0  0  0  0  0  0  0  0  0  0  0  0
    7.6491  -15.5396   21.3484 C   0  0  0  0  0  0  0  0  0  0  0  0
    6.8255  -15.2075   22.2653 O   0  0  0  0  0  0  0  0  0  0  0  0
    8.6741  -16.4916   21.5796 N   0  0  0  0  0  0  0  0  0  0  0  0
    9.6231  -16.9706   20.6228 C   0  0  0  0  0  0  0  0  0  0  0  0
   10.5019  -17.9696   21.3176 C   0  0  0  0  0  0  0  0  0  0  0  0
    9.7236  -18.3578   22.5808 C   0  0  0  0  0  0  0  0  0  0  0  0
    8.9105  -17.1277   22.8429 C   0  0  1  0  0  0  0  0  0  0  0  0
    9.5594  -16.2251   23.8266 C   0  0  0  0  0  0  0  0  0  0  0  0
   10.5628  -15.5758   23.4431 O   0  0  0  0  0  0  0  0  0  0  0  0
    9.1137  -16.0606   25.1523 N   0  0  0  0  0  0  0  0  0  0  0  0
   10.0193  -15.4934   26.1454 C   0  0  1  0  0  0  0  0  0  0  0  0
    9.8924  -14.0063   26.2062 C   0  0  0  0  0  0  0  0  0  0  0  0
    8.4957  -13.5460   26.1509 C   0  0  0  0  0  0  0  0  0  0  0  0
    7.8665  -13.2578   24.9587 C   0  0  0  0  0  0  0  0  0  0  0  0
    6.5551  -12.8329   24.9057 C   0  0  0  0  0  0  0  0  0  0  0  0
    5.8163  -12.6775   26.0412 C   0  0  0  0  0  0  0  0  0  0  0  0
    6.4110  -12.9558   27.2539 C   0  0  0  0  0  0  0  0  0  0  0  0
    7.7212  -13.3800   27.3005 C   0  0  0  0  0  0  0  0  0  0  0  0
    9.6818  -16.0818   27.4548 C   0  0  0  0  0  0  0  0  0  0  0  0
    8.6783  -17.0354   27.6541 O   0  0  0  0  0  0  0  0  0  0  0  0
   10.3369  -15.7054   28.4826 O   0  0  0  0  0  0  0  0  0  0  0  0
  2  3  1  6
  2  1  1  0
  4  6  1  0
  4  2  1  0
  4  5  1  1
  6  8  1  0
  7  6  2  0
  8 12  1  0
  8  9  1  0
  9 10  1  0
 10 11  1  0
 12 11  1  0
 12 13  1  1
 14 13  2  0
 15 13  1  0
 16 24  1  0
 16 15  1  0
 16 17  1  1
 18 19  2  0
 18 17  1  0
 20 19  1  0
 21 20  2  0
 22 21  1  0
 22 23  2  0
 23 18  1  0
 24 25  1  0
 26 24  2  0
M  END
$$$$
