DEP.pdb
     RDKit          3D

 25 25  0  0  1  0  0  0  0  0999 V2000
    9.4320  -16.9511   20.9315 N   0  0  0  0  0  0  0  0  0  0  0  0
    8.2455  -16.1670   20.6891 C   0  0  1  0  0  0  0  0  0  0  0  0
    7.3834  -16.9003   19.6935 C   0  0  0  0  0  0  0  0  0  0  0  0
    8.1456  -17.0574   18.4426 C   0  0  0  0  0  0  0  0  0  0  0  0
    8.9812  -17.9734   18.3291 O   0  0  0  0  0  0  0  0  0  0  0  0
    7.5759  -15.8793   21.9480 C   0  0  0  0  0  0  0  0  0  0  0  0
    6.4480  -15.3268   22.0531 O   0  0  0  0  0  0  0  0  0  0  0  0
    7.9554  -16.2011   17.3704 O   0  0  0  0  0  0  0  0  0  0  0  0
    8.2350  -16.2460   23.1804 N   0  0  0  0  0  0  0  0  0  0  0  0
    7.5517  -15.9935   24.4421 C   0  0  1  0  0  0  0  0  0  0  0  0
    7.5999  -17.2905   25.2116 C   0  0  0  0  0  0  0  0  0  0  0  0
    6.6328  -18.3360   24.7292 C   0  0  0  0  0  0  0  0  0  0  0  0
    6.8152  -19.5336   25.6252 C   0  0  0  0  0  0  0  0  0  0  0  0
    7.6930  -19.5752   26.4961 O   0  0  0  0  0  0  0  0  0  0  0  0
    8.1657  -14.8764   25.1597 C   0  0  0  0  0  0  0  0  0  0  0  0
    9.4370  -14.9778   25.2973 O   0  0  0  0  0  0  0  0  0  0  0  0
    5.9209  -20.6022   25.4042 O   0  0  0  0  0  0  0  0  0  0  0  0
    7.5536  -13.7315   25.7091 N   0  0  0  0  0  0  0  0  0  0  0  0
    6.2698  -13.1406   25.3488 C   0  0  0  0  0  0  0  0  0  0  0  0
    6.1384  -11.9140   26.2028 C   0  0  0  0  0  0  0  0  0  0  0  0
    6.9816  -12.2461   27.3908 C   0  0  0  0  0  0  0  0  0  0  0  0
    8.2041  -12.9064   26.7290 C   0  0  1  0  0  0  0  0  0  0  0  0
    8.8932  -13.7370   27.7543 C   0  0  0  0  0  0  0  0  0  0  0  0
    8.5419  -14.9502   27.8005 O   0  0  0  0  0  0  0  0  0  0  0  0
    9.8525  -13.3177   28.6264 O   0  0  0  0  0  0  0  0  0  0  0  0
  2  1  1  1
  2  3  1  0
  3  4  1  0
  4  8  1  0
  5  4  2  0
  6  2  1  0
  7  6  2  0
  9  6  1  0
 10 11  1  1
 10  9  1  0
 11 12  1  0
 13 12  1  0
 13 17  1  0
 14 13  2  0
 15 10  1  0
 16 15  2  0
 18 15  1  0
 18 22  1  0
 19 18  1  0
 20 19  1  0
 20 21  1  0
 21 22  1  0
 22 23  1  1
 23 25  1  0
 24 23  2  0
M  END
$$$$
