DEP.pdb
     RDKit          3D

 25 25  0  0  1  0  0  0  0  0999 V2000
    7.4972  -16.0160   19.3014 N   0  0  0  0  0  0  0  0  0  0  0  0
    8.0019  -15.0032   20.1964 C   0  0  1  0  0  0  0  0  0  0  0  0
    7.8721  -13.6616   19.5217 C   0  0  0  0  0  0  0  0  0  0  0  0
    8.7999  -13.6227   18.3779 C   0  0  0  0  0  0  0  0  0  0  0  0
   10.0108  -13.8589   18.5454 O   0  0  0  0  0  0  0  0  0  0  0  0
    7.3159  -15.0869   21.4765 C   0  0  0  0  0  0  0  0  0  0  0  0
    6.0693  -14.9869   21.6326 O   0  0  0  0  0  0  0  0  0  0  0  0
    8.3559  -13.3267   17.0995 O   0  0  0  0  0  0  0  0  0  0  0  0
    8.1030  -15.3002   22.6692 N   0  0  0  0  0  0  0  0  0  0  0  0
    7.4137  -15.4946   23.9378 C   0  0  1  0  0  0  0  0  0  0  0  0
    7.5055  -16.9694   24.2430 C   0  0  0  0  0  0  0  0  0  0  0  0
    6.7773  -17.3931   25.4885 C   0  0  0  0  0  0  0  0  0  0  0  0
    7.0162  -18.8729   25.6414 C   0  0  0  0  0  0  0  0  0  0  0  0
    8.1061  -19.3938   25.3738 O   0  0  0  0  0  0  0  0  0  0  0  0
    7.9917  -14.6539   24.9861 C   0  0  0  0  0  0  0  0  0  0  0  0
    9.2265  -14.8990   25.2326 O   0  0  0  0  0  0  0  0  0  0  0  0
    5.9161  -19.6231   26.1079 O   0  0  0  0  0  0  0  0  0  0  0  0
    7.3795  -13.6352   25.7443 N   0  0  0  0  0  0  0  0  0  0  0  0
    6.0402  -13.0803   25.5851 C   0  0  0  0  0  0  0  0  0  0  0  0
    5.9309  -11.9933   26.6135 C   0  0  0  0  0  0  0  0  0  0  0  0
    6.8981  -12.4332   27.6640 C   0  0  0  0  0  0  0  0  0  0  0  0
    8.0830  -12.9199   26.8109 C   0  0  1  0  0  0  0  0  0  0  0  0
    8.9058  -13.8397   27.6434 C   0  0  0  0  0  0  0  0  0  0  0  0
    9.7408  -13.2820   28.4109 O   0  0  0  0  0  0  0  0  0  0  0  0
    8.8382  -15.2004   27.6563 O   0  0  0  0  0  0  0  0  0  0  0  0
  2  1  1  6
  2  3  1  0
  3  4  1  0
  4  8  1  0
  5  4  2  0
  6  2  1  0
  7  6  2  0
  9  6  1  0
 10 11  1  1
 10  9  1  0
 11 12  1  0
 13 12  1  0
 13 17  1  0
 14 13  2  0
 15 10  1  0
 16 15  2  0
 18 15  1  0
 18 22  1  0
 19 18  1  0
 20 19  1  0
 20 21  1  0
 21 22  1  0
 22 23  1  1
 23 25  1  0
 24 23  2  0
M  END
$$$$
