DEP.pdb
     RDKit          3D

 25 25  0  0  1  0  0  0  0  0999 V2000
    7.4059  -16.0501   19.7711 N   0  0  0  0  0  0  0  0  0  0  0  0
    7.7357  -14.8028   20.4168 C   0  0  1  0  0  0  0  0  0  0  0  0
    7.1953  -13.6730   19.5781 C   0  0  0  0  0  0  0  0  0  0  0  0
    8.0310  -13.5465   18.3714 C   0  0  0  0  0  0  0  0  0  0  0  0
    8.5279  -14.5592   17.8446 O   0  0  0  0  0  0  0  0  0  0  0  0
    7.2426  -14.8078   21.7854 C   0  0  0  0  0  0  0  0  0  0  0  0
    6.2155  -14.1946   22.1822 O   0  0  0  0  0  0  0  0  0  0  0  0
    8.2833  -12.3120   17.7957 O   0  0  0  0  0  0  0  0  0  0  0  0
    7.9688  -15.5654   22.7785 N   0  0  0  0  0  0  0  0  0  0  0  0
    7.3970  -15.7020   24.1114 C   0  0  1  0  0  0  0  0  0  0  0  0
    7.4450  -17.1739   24.4393 C   0  0  0  0  0  0  0  0  0  0  0  0
    6.9508  -17.5206   25.8164 C   0  0  0  0  0  0  0  0  0  0  0  0
    7.1807  -18.9991   25.9941 C   0  0  0  0  0  0  0  0  0  0  0  0
    7.6611  -19.7020   25.0963 O   0  0  0  0  0  0  0  0  0  0  0  0
    8.1149  -14.8738   25.0803 C   0  0  0  0  0  0  0  0  0  0  0  0
    9.3286  -15.2365   25.2818 O   0  0  0  0  0  0  0  0  0  0  0  0
    6.8115  -19.5271   27.2492 O   0  0  0  0  0  0  0  0  0  0  0  0
    7.6539  -13.7566   25.8060 N   0  0  0  0  0  0  0  0  0  0  0  0
    6.4327  -12.9888   25.5906 C   0  0  0  0  0  0  0  0  0  0  0  0
    6.4687  -11.8840   26.6052 C   0  0  0  0  0  0  0  0  0  0  0  0
    7.3095  -12.4637   27.6959 C   0  0  0  0  0  0  0  0  0  0  0  0
    8.4271  -13.1531   26.8933 C   0  0  1  0  0  0  0  0  0  0  0  0
    9.0536  -14.1850   27.7643 C   0  0  0  0  0  0  0  0  0  0  0  0
    9.9864  -13.7752   28.5122 O   0  0  0  0  0  0  0  0  0  0  0  0
    8.7160  -15.5033   27.8307 O   0  0  0  0  0  0  0  0  0  0  0  0
  2  1  1  6
  2  3  1  0
  3  4  1  0
  4  8  1  0
  5  4  2  0
  6  2  1  0
  7  6  2  0
  9  6  1  0
 10 11  1  1
 10  9  1  0
 11 12  1  0
 13 12  1  0
 13 17  1  0
 14 13  2  0
 15 10  1  0
 16 15  2  0
 18 15  1  0
 18 22  1  0
 19 18  1  0
 20 19  1  0
 20 21  1  0
 21 22  1  0
 22 23  1  1
 23 25  1  0
 24 23  2  0
M  END
$$$$
