DEP.pdb
     RDKit          3D

 25 25  0  0  1  0  0  0  0  0999 V2000
    7.2557  -15.6691   19.3011 N   0  0  0  0  0  0  0  0  0  0  0  0
    7.9246  -14.8141   20.2514 C   0  0  1  0  0  0  0  0  0  0  0  0
    7.9587  -13.4143   19.6932 C   0  0  0  0  0  0  0  0  0  0  0  0
    8.9844  -13.3579   18.6371 C   0  0  0  0  0  0  0  0  0  0  0  0
    9.9069  -14.1936   18.6146 O   0  0  0  0  0  0  0  0  0  0  0  0
    7.2766  -14.9142   21.5499 C   0  0  0  0  0  0  0  0  0  0  0  0
    6.0788  -14.5983   21.7824 O   0  0  0  0  0  0  0  0  0  0  0  0
    8.9506  -12.3856   17.6509 O   0  0  0  0  0  0  0  0  0  0  0  0
    8.0447  -15.4101   22.6687 N   0  0  0  0  0  0  0  0  0  0  0  0
    7.3833  -15.5685   23.9571 C   0  0  1  0  0  0  0  0  0  0  0  0
    7.4494  -17.0399   24.2840 C   0  0  0  0  0  0  0  0  0  0  0  0
    6.8418  -17.4104   25.6087 C   0  0  0  0  0  0  0  0  0  0  0  0
    7.0995  -18.8824   25.8010 C   0  0  0  0  0  0  0  0  0  0  0  0
    7.9029  -19.5065   25.0968 O   0  0  0  0  0  0  0  0  0  0  0  0
    8.0065  -14.7247   24.9767 C   0  0  0  0  0  0  0  0  0  0  0  0
    9.2157  -15.0484   25.2568 O   0  0  0  0  0  0  0  0  0  0  0  0
    6.3644  -19.5002   26.8347 O   0  0  0  0  0  0  0  0  0  0  0  0
    7.4605  -13.6295   25.6765 N   0  0  0  0  0  0  0  0  0  0  0  0
    6.2304  -12.9020   25.3853 C   0  0  0  0  0  0  0  0  0  0  0  0
    6.1614  -11.8046   26.4060 C   0  0  0  0  0  0  0  0  0  0  0  0
    6.9482  -12.3638   27.5467 C   0  0  0  0  0  0  0  0  0  0  0  0
    8.1393  -13.0085   26.8158 C   0  0  1  0  0  0  0  0  0  0  0  0
    8.7423  -14.0252   27.7205 C   0  0  0  0  0  0  0  0  0  0  0  0
    9.6455  -13.5996   28.4953 O   0  0  0  0  0  0  0  0  0  0  0  0
    8.4119  -15.3451   27.7913 O   0  0  0  0  0  0  0  0  0  0  0  0
  2  1  1  6
  2  3  1  0
  3  4  1  0
  4  8  1  0
  5  4  2  0
  6  2  1  0
  7  6  2  0
  9  6  1  0
 10 11  1  1
 10  9  1  0
 11 12  1  0
 13 12  1  0
 13 17  1  0
 14 13  2  0
 15 10  1  0
 16 15  2  0
 18 15  1  0
 18 22  1  0
 19 18  1  0
 20 19  1  0
 20 21  1  0
 21 22  1  0
 22 23  1  1
 23 25  1  0
 24 23  2  0
M  END
$$$$
