DEP.pdb
     RDKit          3D

 25 25  0  0  1  0  0  0  0  0999 V2000
    8.3712  -17.7738   20.3725 N   0  0  0  0  0  0  0  0  0  0  0  0
    8.4985  -16.3547   20.5993 C   0  0  1  0  0  0  0  0  0  0  0  0
    8.2374  -15.6378   19.2994 C   0  0  0  0  0  0  0  0  0  0  0  0
    9.3340  -15.9493   18.3662 C   0  0  0  0  0  0  0  0  0  0  0  0
   10.4839  -16.1542   18.7971 O   0  0  0  0  0  0  0  0  0  0  0  0
    7.6196  -15.9455   21.6839 C   0  0  0  0  0  0  0  0  0  0  0  0
    6.3654  -15.8550   21.5983 O   0  0  0  0  0  0  0  0  0  0  0  0
    9.1184  -16.0230   16.9997 O   0  0  0  0  0  0  0  0  0  0  0  0
    8.2074  -15.6143   22.9616 N   0  0  0  0  0  0  0  0  0  0  0  0
    7.3256  -15.3515   24.0911 C   0  0  1  0  0  0  0  0  0  0  0  0
    6.6307  -16.6564   24.3927 C   0  0  0  0  0  0  0  0  0  0  0  0
    7.4816  -17.6603   25.1202 C   0  0  0  0  0  0  0  0  0  0  0  0
    6.5507  -18.7450   25.5967 C   0  0  0  0  0  0  0  0  0  0  0  0
    6.5109  -19.1039   26.7801 O   0  0  0  0  0  0  0  0  0  0  0  0
    8.0732  -14.8217   25.2314 C   0  0  0  0  0  0  0  0  0  0  0  0
    9.0815  -15.5366   25.5743 O   0  0  0  0  0  0  0  0  0  0  0  0
    5.7303  -19.3235   24.6052 O   0  0  0  0  0  0  0  0  0  0  0  0
    7.8316  -13.6556   25.9858 N   0  0  0  0  0  0  0  0  0  0  0  0
    6.7920  -12.6535   25.7800 C   0  0  0  0  0  0  0  0  0  0  0  0
    7.0297  -11.6070   26.8284 C   0  0  0  0  0  0  0  0  0  0  0  0
    7.7189  -12.3731   27.9104 C   0  0  0  0  0  0  0  0  0  0  0  0
    8.6905  -13.2493   27.0999 C   0  0  1  0  0  0  0  0  0  0  0  0
    9.0833  -14.4094   27.9460 C   0  0  0  0  0  0  0  0  0  0  0  0
   10.0195  -14.1942   28.7673 O   0  0  0  0  0  0  0  0  0  0  0  0
    8.5328  -15.6555   27.9193 O   0  0  0  0  0  0  0  0  0  0  0  0
  2  1  1  6
  2  3  1  0
  3  4  1  0
  4  8  1  0
  5  4  2  0
  6  2  1  0
  7  6  2  0
  9  6  1  0
 10 11  1  1
 10  9  1  0
 11 12  1  0
 13 12  1  0
 13 17  1  0
 14 13  2  0
 15 10  1  0
 16 15  2  0
 18 15  1  0
 18 22  1  0
 19 18  1  0
 20 19  1  0
 20 21  1  0
 21 22  1  0
 22 23  1  1
 23 25  1  0
 24 23  2  0
M  END
$$$$
