DEP.pdb
     RDKit          3D

 25 25  0  0  1  0  0  0  0  0999 V2000
    6.8986  -16.5260   19.7298 N   0  0  0  0  0  0  0  0  0  0  0  0
    7.5600  -15.4805   20.4720 C   0  0  1  0  0  0  0  0  0  0  0  0
    7.4188  -14.1892   19.7073 C   0  0  0  0  0  0  0  0  0  0  0  0
    8.3046  -14.2439   18.5313 C   0  0  0  0  0  0  0  0  0  0  0  0
    9.4385  -14.7496   18.6242 O   0  0  0  0  0  0  0  0  0  0  0  0
    7.0313  -15.4234   21.8260 C   0  0  0  0  0  0  0  0  0  0  0  0
    5.8382  -15.1445   22.1213 O   0  0  0  0  0  0  0  0  0  0  0  0
    7.9048  -13.7411   17.3040 O   0  0  0  0  0  0  0  0  0  0  0  0
    7.9228  -15.7041   22.9279 N   0  0  0  0  0  0  0  0  0  0  0  0
    7.3724  -15.7673   24.2753 C   0  0  1  0  0  0  0  0  0  0  0  0
    7.4292  -17.2188   24.6835 C   0  0  0  0  0  0  0  0  0  0  0  0
    6.9183  -17.4950   26.0705 C   0  0  0  0  0  0  0  0  0  0  0  0
    7.2390  -18.9374   26.3653 C   0  0  0  0  0  0  0  0  0  0  0  0
    8.0468  -19.5831   25.6862 O   0  0  0  0  0  0  0  0  0  0  0  0
    8.1035  -14.8855   25.1852 C   0  0  0  0  0  0  0  0  0  0  0  0
    9.3364  -15.2021   25.3434 O   0  0  0  0  0  0  0  0  0  0  0  0
    6.5573  -19.5013   27.4644 O   0  0  0  0  0  0  0  0  0  0  0  0
    7.6371  -13.7610   25.8961 N   0  0  0  0  0  0  0  0  0  0  0  0
    6.4033  -13.0132   25.6823 C   0  0  0  0  0  0  0  0  0  0  0  0
    6.4376  -11.8893   26.6757 C   0  0  0  0  0  0  0  0  0  0  0  0
    7.2998  -12.4376   27.7660 C   0  0  0  0  0  0  0  0  0  0  0  0
    8.4160  -13.1274   26.9619 C   0  0  1  0  0  0  0  0  0  0  0  0
    9.0670  -14.1347   27.8437 C   0  0  0  0  0  0  0  0  0  0  0  0
    8.6113  -15.3105   27.7589 O   0  0  0  0  0  0  0  0  0  0  0  0
   10.0921  -13.9097   28.7125 O   0  0  0  0  0  0  0  0  0  0  0  0
  2  1  1  6
  2  3  1  0
  3  4  1  0
  4  8  1  0
  5  4  2  0
  6  2  1  0
  7  6  2  0
  9  6  1  0
 10 11  1  1
 10  9  1  0
 11 12  1  0
 13 12  1  0
 13 17  1  0
 14 13  2  0
 15 10  1  0
 16 15  2  0
 18 15  1  0
 18 22  1  0
 19 18  1  0
 20 19  1  0
 20 21  1  0
 21 22  1  0
 22 23  1  1
 23 25  1  0
 24 23  2  0
M  END
$$$$
