DEP.pdb
     RDKit          3D

 25 25  0  0  1  0  0  0  0  0999 V2000
    9.1977  -16.3587   20.5266 N   0  0  0  0  0  0  0  0  0  0  0  0
    8.4654  -15.1159   20.4975 C   0  0  1  0  0  0  0  0  0  0  0  0
    7.6118  -15.0933   19.2554 C   0  0  0  0  0  0  0  0  0  0  0  0
    8.4992  -15.0799   18.0794 C   0  0  0  0  0  0  0  0  0  0  0  0
    9.3443  -15.9806   17.9223 O   0  0  0  0  0  0  0  0  0  0  0  0
    7.7126  -14.9554   21.7319 C   0  0  0  0  0  0  0  0  0  0  0  0
    6.8178  -14.0882   21.9212 O   0  0  0  0  0  0  0  0  0  0  0  0
    8.4182  -14.0774   17.1268 O   0  0  0  0  0  0  0  0  0  0  0  0
    7.9958  -15.8454   22.8343 N   0  0  0  0  0  0  0  0  0  0  0  0
    7.2420  -15.6902   24.0712 C   0  0  1  0  0  0  0  0  0  0  0  0
    7.0500  -17.0815   24.6225 C   0  0  0  0  0  0  0  0  0  0  0  0
    6.1351  -17.9527   23.8070 C   0  0  0  0  0  0  0  0  0  0  0  0
    6.1491  -19.3128   24.4551 C   0  0  0  0  0  0  0  0  0  0  0  0
    6.6287  -19.4998   25.5802 O   0  0  0  0  0  0  0  0  0  0  0  0
    7.9313  -14.7943   24.9997 C   0  0  0  0  0  0  0  0  0  0  0  0
    9.1548  -15.1098   25.2209 O   0  0  0  0  0  0  0  0  0  0  0  0
    5.5811  -20.3566   23.6945 O   0  0  0  0  0  0  0  0  0  0  0  0
    7.4344  -13.6574   25.6690 N   0  0  0  0  0  0  0  0  0  0  0  0
    6.2320  -12.8906   25.3631 C   0  0  0  0  0  0  0  0  0  0  0  0
    6.2142  -11.7608   26.3501 C   0  0  0  0  0  0  0  0  0  0  0  0
    6.9865  -12.3160   27.5025 C   0  0  0  0  0  0  0  0  0  0  0  0
    8.1456  -13.0296   26.7844 C   0  0  1  0  0  0  0  0  0  0  0  0
    8.7144  -14.0416   27.7162 C   0  0  0  0  0  0  0  0  0  0  0  0
    9.5708  -13.6071   28.5379 O   0  0  0  0  0  0  0  0  0  0  0  0
    8.3982  -15.3660   27.7660 O   0  0  0  0  0  0  0  0  0  0  0  0
  2  1  1  1
  2  3  1  0
  3  4  1  0
  4  8  1  0
  5  4  2  0
  6  2  1  0
  7  6  2  0
  9  6  1  0
 10 11  1  1
 10  9  1  0
 11 12  1  0
 13 12  1  0
 13 17  1  0
 14 13  2  0
 15 10  1  0
 16 15  2  0
 18 15  1  0
 18 22  1  0
 19 18  1  0
 20 19  1  0
 20 21  1  0
 21 22  1  0
 22 23  1  1
 23 25  1  0
 24 23  2  0
M  END
$$$$
