DEP.pdb
     RDKit          3D

 25 25  0  0  1  0  0  0  0  0999 V2000
    7.2343  -14.7530   19.6643 N   0  0  0  0  0  0  0  0  0  0  0  0
    7.8028  -15.6995   20.5931 C   0  0  1  0  0  0  0  0  0  0  0  0
    9.3023  -15.6756   20.4417 C   0  0  0  0  0  0  0  0  0  0  0  0
    9.6274  -15.1802   19.0928 C   0  0  0  0  0  0  0  0  0  0  0  0
    8.9780  -15.5758   18.1069 O   0  0  0  0  0  0  0  0  0  0  0  0
    7.3428  -15.4076   21.9419 C   0  0  0  0  0  0  0  0  0  0  0  0
    6.4844  -14.5327   22.2357 O   0  0  0  0  0  0  0  0  0  0  0  0
   10.6518  -14.2707   18.8866 O   0  0  0  0  0  0  0  0  0  0  0  0
    7.8979  -16.1650   23.0400 N   0  0  0  0  0  0  0  0  0  0  0  0
    7.2626  -16.0709   24.3476 C   0  0  1  0  0  0  0  0  0  0  0  0
    7.2591  -17.4695   24.9135 C   0  0  0  0  0  0  0  0  0  0  0  0
    6.5943  -17.5953   26.2563 C   0  0  0  0  0  0  0  0  0  0  0  0
    6.8301  -19.0093   26.7199 C   0  0  0  0  0  0  0  0  0  0  0  0
    7.4666  -19.2660   27.7495 O   0  0  0  0  0  0  0  0  0  0  0  0
    7.9557  -15.1070   25.2022 C   0  0  0  0  0  0  0  0  0  0  0  0
    9.1951  -15.3749   25.3956 O   0  0  0  0  0  0  0  0  0  0  0  0
    6.2789  -20.0189   25.9028 O   0  0  0  0  0  0  0  0  0  0  0  0
    7.4475  -13.9505   25.8282 N   0  0  0  0  0  0  0  0  0  0  0  0
    6.1585  -13.3046   25.6084 C   0  0  0  0  0  0  0  0  0  0  0  0
    6.1620  -12.0907   26.4901 C   0  0  0  0  0  0  0  0  0  0  0  0
    7.1062  -12.4773   27.5817 C   0  0  0  0  0  0  0  0  0  0  0  0
    8.2291  -13.1705   26.7899 C   0  0  1  0  0  0  0  0  0  0  0  0
    8.9841  -14.0462   27.7274 C   0  0  0  0  0  0  0  0  0  0  0  0
    8.5910  -15.2457   27.7908 O   0  0  0  0  0  0  0  0  0  0  0  0
   10.0423  -13.6806   28.5040 O   0  0  0  0  0  0  0  0  0  0  0  0
  2  1  1  6
  2  3  1  0
  3  4  1  0
  4  8  1  0
  5  4  2  0
  6  2  1  0
  7  6  2  0
  9  6  1  0
 10 11  1  1
 10  9  1  0
 11 12  1  0
 13 12  1  0
 13 17  1  0
 14 13  2  0
 15 10  1  0
 16 15  2  0
 18 15  1  0
 18 22  1  0
 19 18  1  0
 20 19  1  0
 20 21  1  0
 21 22  1  0
 22 23  1  1
 23 25  1  0
 24 23  2  0
M  END
$$$$
