DEP.pdb
     RDKit          3D

 25 25  0  0  1  0  0  0  0  0999 V2000
   12.1650  -16.9162   21.4013 N   0  0  0  0  0  0  0  0  0  0  0  0
   12.0710  -16.3784   22.7368 C   0  0  1  0  0  0  0  0  0  0  0  0
   13.3791  -15.7106   23.0760 C   0  0  0  0  0  0  0  0  0  0  0  0
   14.3838  -16.7566   23.3345 C   0  0  0  0  0  0  0  0  0  0  0  0
   15.0261  -17.2549   22.3915 O   0  0  0  0  0  0  0  0  0  0  0  0
   10.9175  -15.4977   22.8362 C   0  0  0  0  0  0  0  0  0  0  0  0
   10.8772  -14.3136   22.4064 O   0  0  0  0  0  0  0  0  0  0  0  0
   14.6395  -17.2087   24.6188 O   0  0  0  0  0  0  0  0  0  0  0  0
    9.7195  -15.9977   23.4706 N   0  0  0  0  0  0  0  0  0  0  0  0
    8.5531  -15.1283   23.5483 C   0  0  1  0  0  0  0  0  0  0  0  0
    7.4394  -15.8566   22.8371 C   0  0  0  0  0  0  0  0  0  0  0  0
    7.8027  -16.3643   21.4691 C   0  0  0  0  0  0  0  0  0  0  0  0
    6.6019  -17.1185   20.9597 C   0  0  0  0  0  0  0  0  0  0  0  0
    6.1065  -18.0646   21.5844 O   0  0  0  0  0  0  0  0  0  0  0  0
    8.2307  -14.8014   24.9372 C   0  0  0  0  0  0  0  0  0  0  0  0
    8.4814  -15.7451   25.7690 O   0  0  0  0  0  0  0  0  0  0  0  0
    6.0823  -16.6754   19.7250 O   0  0  0  0  0  0  0  0  0  0  0  0
    7.6899  -13.6116   25.4658 N   0  0  0  0  0  0  0  0  0  0  0  0
    7.5495  -12.3191   24.8050 C   0  0  0  0  0  0  0  0  0  0  0  0
    6.9682  -11.4004   25.8390 C   0  0  0  0  0  0  0  0  0  0  0  0
    6.2351  -12.3393   26.7412 C   0  0  0  0  0  0  0  0  0  0  0  0
    7.2334  -13.5053   26.8531 C   0  0  1  0  0  0  0  0  0  0  0  0
    6.4832  -14.7173   27.2821 C   0  0  0  0  0  0  0  0  0  0  0  0
    6.0398  -15.4442   26.3481 O   0  0  0  0  0  0  0  0  0  0  0  0
    6.2405  -15.1089   28.5644 O   0  0  0  0  0  0  0  0  0  0  0  0
  2  1  1  6
  2  3  1  0
  3  4  1  0
  4  8  1  0
  5  4  2  0
  6  2  1  0
  7  6  2  0
  9  6  1  0
 10 11  1  1
 10  9  1  0
 11 12  1  0
 13 12  1  0
 13 17  1  0
 14 13  2  0
 15 10  1  0
 16 15  2  0
 18 15  1  0
 18 22  1  0
 19 18  1  0
 20 19  1  0
 20 21  1  0
 21 22  1  0
 22 23  1  6
 23 25  1  0
 24 23  2  0
M  END
$$$$
