DEP.pdb
     RDKit          3D

 25 25  0  0  1  0  0  0  0  0999 V2000
    8.8196  -15.3798   20.1781 N   0  0  0  0  0  0  0  0  0  0  0  0
    8.2545  -14.1234   20.6067 C   0  0  1  0  0  0  0  0  0  0  0  0
    7.3227  -13.6269   19.5309 C   0  0  0  0  0  0  0  0  0  0  0  0
    8.0494  -13.6232   18.2493 C   0  0  0  0  0  0  0  0  0  0  0  0
    8.3732  -12.5457   17.7161 O   0  0  0  0  0  0  0  0  0  0  0  0
    7.6209  -14.2828   21.9064 C   0  0  0  0  0  0  0  0  0  0  0  0
    6.8224  -13.4562   22.4237 O   0  0  0  0  0  0  0  0  0  0  0  0
    8.3893  -14.8042   17.6101 O   0  0  0  0  0  0  0  0  0  0  0  0
    7.9149  -15.4690   22.6773 N   0  0  0  0  0  0  0  0  0  0  0  0
    7.2820  -15.6329   23.9792 C   0  0  1  0  0  0  0  0  0  0  0  0
    7.2850  -17.1148   24.2630 C   0  0  0  0  0  0  0  0  0  0  0  0
    6.6832  -17.4954   25.5874 C   0  0  0  0  0  0  0  0  0  0  0  0
    6.8892  -18.9801   25.7403 C   0  0  0  0  0  0  0  0  0  0  0  0
    8.0130  -19.4958   25.6942 O   0  0  0  0  0  0  0  0  0  0  0  0
    7.9733  -14.8503   25.0037 C   0  0  0  0  0  0  0  0  0  0  0  0
    9.1949  -15.1942   25.1899 O   0  0  0  0  0  0  0  0  0  0  0  0
    5.7178  -19.7411   25.9379 O   0  0  0  0  0  0  0  0  0  0  0  0
    7.4798  -13.7937   25.7959 N   0  0  0  0  0  0  0  0  0  0  0  0
    6.2447  -13.0391   25.6164 C   0  0  0  0  0  0  0  0  0  0  0  0
    6.2451  -12.0037   26.7022 C   0  0  0  0  0  0  0  0  0  0  0  0
    7.0862  -12.6367   27.7627 C   0  0  0  0  0  0  0  0  0  0  0  0
    8.2275  -13.2476   26.9304 C   0  0  1  0  0  0  0  0  0  0  0  0
    8.8665  -14.3217   27.7390 C   0  0  0  0  0  0  0  0  0  0  0  0
    8.3461  -15.4685   27.6325 O   0  0  0  0  0  0  0  0  0  0  0  0
    9.9429  -14.1844   28.5631 O   0  0  0  0  0  0  0  0  0  0  0  0
  2  1  1  6
  2  3  1  0
  3  4  1  0
  4  8  1  0
  5  4  2  0
  6  2  1  0
  7  6  2  0
  9  6  1  0
 10 11  1  1
 10  9  1  0
 11 12  1  0
 13 12  1  0
 13 17  1  0
 14 13  2  0
 15 10  1  0
 16 15  2  0
 18 15  1  0
 18 22  1  0
 19 18  1  0
 20 19  1  0
 20 21  1  0
 21 22  1  0
 22 23  1  1
 23 25  1  0
 24 23  2  0
M  END
$$$$
