DEP.pdb
     RDKit          3D

 25 25  0  0  1  0  0  0  0  0999 V2000
    9.1436  -15.4711   20.0826 N   0  0  0  0  0  0  0  0  0  0  0  0
    8.4943  -14.2223   20.3997 C   0  0  1  0  0  0  0  0  0  0  0  0
    7.5999  -13.8429   19.2472 C   0  0  0  0  0  0  0  0  0  0  0  0
    8.4105  -13.8136   18.0174 C   0  0  0  0  0  0  0  0  0  0  0  0
    9.1899  -14.7493   17.7585 O   0  0  0  0  0  0  0  0  0  0  0  0
    7.7985  -14.3347   21.6723 C   0  0  0  0  0  0  0  0  0  0  0  0
    6.9740  -13.4923   22.1183 O   0  0  0  0  0  0  0  0  0  0  0  0
    8.3283  -12.7571   17.1250 O   0  0  0  0  0  0  0  0  0  0  0  0
    8.0573  -15.4895   22.5012 N   0  0  0  0  0  0  0  0  0  0  0  0
    7.3480  -15.6159   23.7674 C   0  0  1  0  0  0  0  0  0  0  0  0
    7.2991  -17.0922   24.0749 C   0  0  0  0  0  0  0  0  0  0  0  0
    6.6030  -17.4364   25.3625 C   0  0  0  0  0  0  0  0  0  0  0  0
    6.7270  -18.9286   25.5304 C   0  0  0  0  0  0  0  0  0  0  0  0
    7.8175  -19.5092   25.4628 O   0  0  0  0  0  0  0  0  0  0  0  0
    7.9988  -14.8317   24.8168 C   0  0  0  0  0  0  0  0  0  0  0  0
    9.2052  -15.1892   25.0659 O   0  0  0  0  0  0  0  0  0  0  0  0
    5.5191  -19.6179   25.7683 O   0  0  0  0  0  0  0  0  0  0  0  0
    7.4814  -13.7607   25.5737 N   0  0  0  0  0  0  0  0  0  0  0  0
    6.2049  -13.0762   25.4032 C   0  0  0  0  0  0  0  0  0  0  0  0
    6.1918  -11.9878   26.4358 C   0  0  0  0  0  0  0  0  0  0  0  0
    7.0995  -12.5248   27.4942 C   0  0  0  0  0  0  0  0  0  0  0  0
    8.2401  -13.1222   26.6512 C   0  0  1  0  0  0  0  0  0  0  0  0
    8.9594  -14.1218   27.4876 C   0  0  0  0  0  0  0  0  0  0  0  0
    9.9211  -13.6703   28.1721 O   0  0  0  0  0  0  0  0  0  0  0  0
    8.6775  -15.4513   27.5840 O   0  0  0  0  0  0  0  0  0  0  0  0
  2  1  1  6
  2  3  1  0
  3  4  1  0
  4  8  1  0
  5  4  2  0
  6  2  1  0
  7  6  2  0
  9  6  1  0
 10 11  1  1
 10  9  1  0
 11 12  1  0
 13 12  1  0
 13 17  1  0
 14 13  2  0
 15 10  1  0
 16 15  2  0
 18 15  1  0
 18 22  1  0
 19 18  1  0
 20 19  1  0
 20 21  1  0
 21 22  1  0
 22 23  1  1
 23 25  1  0
 24 23  2  0
M  END
$$$$
