DEP.pdb
     RDKit          3D

 25 25  0  0  1  0  0  0  0  0999 V2000
    7.8494  -16.9265   20.1909 N   0  0  0  0  0  0  0  0  0  0  0  0
    8.2127  -15.6269   20.7013 C   0  0  1  0  0  0  0  0  0  0  0  0
    7.9276  -14.5987   19.6366 C   0  0  0  0  0  0  0  0  0  0  0  0
    8.8011  -14.8687   18.4813 C   0  0  0  0  0  0  0  0  0  0  0  0
    8.3374  -14.8433   17.3261 O   0  0  0  0  0  0  0  0  0  0  0  0
    7.5247  -15.3783   21.9587 C   0  0  0  0  0  0  0  0  0  0  0  0
    6.4460  -14.7367   22.0739 O   0  0  0  0  0  0  0  0  0  0  0  0
   10.1467  -15.1538   18.6462 O   0  0  0  0  0  0  0  0  0  0  0  0
    8.1035  -15.8966   23.1769 N   0  0  0  0  0  0  0  0  0  0  0  0
    7.3898  -15.6978   24.4313 C   0  0  1  0  0  0  0  0  0  0  0  0
    7.2300  -17.0672   25.0442 C   0  0  0  0  0  0  0  0  0  0  0  0
    6.0499  -17.8446   24.5303 C   0  0  0  0  0  0  0  0  0  0  0  0
    6.4708  -19.2910   24.4994 C   0  0  0  0  0  0  0  0  0  0  0  0
    6.3875  -20.0211   25.4948 O   0  0  0  0  0  0  0  0  0  0  0  0
    8.1007  -14.7592   25.2993 C   0  0  0  0  0  0  0  0  0  0  0  0
    9.3268  -15.0695   25.5132 O   0  0  0  0  0  0  0  0  0  0  0  0
    6.9660  -19.7556   23.2627 O   0  0  0  0  0  0  0  0  0  0  0  0
    7.6217  -13.5868   25.9185 N   0  0  0  0  0  0  0  0  0  0  0  0
    6.4497  -12.7970   25.5587 C   0  0  0  0  0  0  0  0  0  0  0  0
    6.4419  -11.6346   26.5073 C   0  0  0  0  0  0  0  0  0  0  0  0
    7.1708  -12.1724   27.6956 C   0  0  0  0  0  0  0  0  0  0  0  0
    8.3250  -12.9423   27.0295 C   0  0  1  0  0  0  0  0  0  0  0  0
    8.8424  -13.9381   28.0076 C   0  0  0  0  0  0  0  0  0  0  0  0
    8.3619  -15.1027   27.9072 O   0  0  0  0  0  0  0  0  0  0  0  0
    9.7718  -13.7137   28.9783 O   0  0  0  0  0  0  0  0  0  0  0  0
  2  1  1  6
  2  3  1  0
  3  4  1  0
  4  8  1  0
  5  4  2  0
  6  2  1  0
  7  6  2  0
  9  6  1  0
 10 11  1  1
 10  9  1  0
 11 12  1  0
 13 12  1  0
 13 17  1  0
 14 13  2  0
 15 10  1  0
 16 15  2  0
 18 15  1  0
 18 22  1  0
 19 18  1  0
 20 19  1  0
 20 21  1  0
 21 22  1  0
 22 23  1  1
 23 25  1  0
 24 23  2  0
M  END
$$$$
