DEP.pdb
     RDKit          3D

 25 25  0  0  1  0  0  0  0  0999 V2000
    8.8426  -15.7325   20.2735 N   0  0  0  0  0  0  0  0  0  0  0  0
    8.4041  -14.3689   20.4468 C   0  0  1  0  0  0  0  0  0  0  0  0
    7.6349  -13.9546   19.2186 C   0  0  0  0  0  0  0  0  0  0  0  0
    8.5509  -13.9761   18.0649 C   0  0  0  0  0  0  0  0  0  0  0  0
    9.1321  -15.0300   17.7462 O   0  0  0  0  0  0  0  0  0  0  0  0
    7.6489  -14.2448   21.6839 C   0  0  0  0  0  0  0  0  0  0  0  0
    6.9393  -13.2514   21.9969 O   0  0  0  0  0  0  0  0  0  0  0  0
    8.7873  -12.8382   17.3111 O   0  0  0  0  0  0  0  0  0  0  0  0
    7.7023  -15.3290   22.6374 N   0  0  0  0  0  0  0  0  0  0  0  0
    6.9165  -15.2259   23.8599 C   0  0  1  0  0  0  0  0  0  0  0  0
    6.4855  -16.6311   24.2008 C   0  0  0  0  0  0  0  0  0  0  0  0
    7.6200  -17.5889   24.4388 C   0  0  0  0  0  0  0  0  0  0  0  0
    6.9958  -18.9012   24.8371 C   0  0  0  0  0  0  0  0  0  0  0  0
    6.2797  -19.0107   25.8401 O   0  0  0  0  0  0  0  0  0  0  0  0
    7.6844  -14.5855   24.9276 C   0  0  0  0  0  0  0  0  0  0  0  0
    8.8654  -15.0617   25.0815 O   0  0  0  0  0  0  0  0  0  0  0  0
    7.2827  -19.9942   23.9923 O   0  0  0  0  0  0  0  0  0  0  0  0
    7.3008  -13.5389   25.7907 N   0  0  0  0  0  0  0  0  0  0  0  0
    6.1453  -12.6569   25.6728 C   0  0  0  0  0  0  0  0  0  0  0  0
    6.2524  -11.6987   26.8223 C   0  0  0  0  0  0  0  0  0  0  0  0
    7.0315  -12.4781   27.8313 C   0  0  0  0  0  0  0  0  0  0  0  0
    8.1035  -13.1430   26.9497 C   0  0  1  0  0  0  0  0  0  0  0  0
    8.6371  -14.3244   27.6814 C   0  0  0  0  0  0  0  0  0  0  0  0
    8.0916  -15.4303   27.4048 O   0  0  0  0  0  0  0  0  0  0  0  0
    9.6434  -14.3223   28.6001 O   0  0  0  0  0  0  0  0  0  0  0  0
  2  1  1  6
  2  3  1  0
  3  4  1  0
  4  8  1  0
  5  4  2  0
  6  2  1  0
  7  6  2  0
  9  6  1  0
 10 11  1  1
 10  9  1  0
 11 12  1  0
 13 12  1  0
 13 17  1  0
 14 13  2  0
 15 10  1  0
 16 15  2  0
 18 15  1  0
 18 22  1  0
 19 18  1  0
 20 19  1  0
 20 21  1  0
 21 22  1  0
 22 23  1  1
 23 25  1  0
 24 23  2  0
M  END
$$$$
