DEP.pdb
     RDKit          3D

 25 25  0  0  1  0  0  0  0  0999 V2000
   12.2728  -16.7500   22.8113 N   0  0  0  0  0  0  0  0  0  0  0  0
   11.5386  -16.3635   21.6310 C   0  0  1  0  0  0  0  0  0  0  0  0
   11.2283  -17.6045   20.8336 C   0  0  0  0  0  0  0  0  0  0  0  0
   10.5635  -17.2011   19.5823 C   0  0  0  0  0  0  0  0  0  0  0  0
   10.9835  -16.2225   18.9373 O   0  0  0  0  0  0  0  0  0  0  0  0
   10.3613  -15.5971   22.0087 C   0  0  0  0  0  0  0  0  0  0  0  0
   10.0396  -14.4827   21.5158 O   0  0  0  0  0  0  0  0  0  0  0  0
    9.4665  -17.8918   19.0940 O   0  0  0  0  0  0  0  0  0  0  0  0
    9.4825  -16.1353   23.0216 N   0  0  0  0  0  0  0  0  0  0  0  0
    8.3663  -15.3216   23.4847 C   0  0  1  0  0  0  0  0  0  0  0  0
    7.1513  -16.2152   23.4447 C   0  0  0  0  0  0  0  0  0  0  0  0
    6.5618  -16.4021   22.0741 C   0  0  0  0  0  0  0  0  0  0  0  0
    5.4484  -17.4066   22.2205 C   0  0  0  0  0  0  0  0  0  0  0  0
    4.7667  -17.4869   23.2499 O   0  0  0  0  0  0  0  0  0  0  0  0
    8.6312  -14.7710   24.8138 C   0  0  0  0  0  0  0  0  0  0  0  0
    9.4693  -15.4525   25.5055 O   0  0  0  0  0  0  0  0  0  0  0  0
    5.2364  -18.2483   21.1081 O   0  0  0  0  0  0  0  0  0  0  0  0
    8.0938  -13.6165   25.4188 N   0  0  0  0  0  0  0  0  0  0  0  0
    7.4063  -12.5035   24.7742 C   0  0  0  0  0  0  0  0  0  0  0  0
    7.0996  -11.5299   25.8738 C   0  0  0  0  0  0  0  0  0  0  0  0
    7.0306  -12.4063   27.0820 C   0  0  0  0  0  0  0  0  0  0  0  0
    8.2266  -13.3470   26.8519 C   0  0  1  0  0  0  0  0  0  0  0  0
    8.0135  -14.5745   27.6668 C   0  0  0  0  0  0  0  0  0  0  0  0
    7.2505  -15.4432   27.1564 O   0  0  0  0  0  0  0  0  0  0  0  0
    8.5594  -14.8431   28.8859 O   0  0  0  0  0  0  0  0  0  0  0  0
  2  1  1  1
  2  3  1  0
  3  4  1  0
  4  8  1  0
  5  4  2  0
  6  2  1  0
  7  6  2  0
  9  6  1  0
 10 11  1  1
 10  9  1  0
 11 12  1  0
 13 12  1  0
 13 17  1  0
 14 13  2  0
 15 10  1  0
 16 15  2  0
 18 15  1  0
 18 22  1  0
 19 18  1  0
 20 19  1  0
 20 21  1  0
 21 22  1  0
 22 23  1  1
 23 25  1  0
 24 23  2  0
M  END
$$$$
