NCF.pdb
     RDKit          3D

 26 26  0  0  1  0  0  0  0  0999 V2000
   19.0629   -9.1334  -21.5888 N   0  0  0  0  0  0  0  0  0  0  0  0
   18.7025   -9.9988  -20.5225 C   0  0  0  0  0  0  0  0  0  0  0  0
   18.2428  -11.1294  -20.7484 O   0  0  0  0  0  0  0  0  0  0  0  0
   18.8634   -9.5629  -19.1134 C   0  0  0  0  0  0  0  0  0  0  0  0
   19.6078  -10.6930  -18.3798 C   0  0  2  0  0  0  0  0  0  0  0  0
   18.5324  -11.5952  -17.9206 N   0  0  0  0  0  0  0  0  0  0  0  0
   20.2678  -10.1272  -17.1800 C   0  0  0  0  0  0  0  0  0  0  0  0
   19.5630   -9.7449  -16.1905 O   0  0  0  0  0  0  0  0  0  0  0  0
   21.6660   -9.9617  -17.0124 N   0  0  0  0  0  0  0  0  0  0  0  0
   22.2421   -9.3792  -15.8189 C   0  0  1  0  0  0  0  0  0  0  0  0
   23.6208   -9.9944  -15.6337 C   0  0  0  0  0  0  0  0  0  0  0  0
   23.5487  -11.6086  -14.8658 S   0  0  0  0  0  0  0  0  0  0  0  0
   22.3080   -7.9058  -15.8706 C   0  0  0  0  0  0  0  0  0  0  0  0
   22.4159   -7.3800  -17.0224 O   0  0  0  0  0  0  0  0  0  0  0  0
   22.2647   -7.0361  -14.7784 N   0  0  0  0  0  0  0  0  0  0  0  0
   22.0738   -5.6021  -14.8891 C   0  0  1  0  0  0  0  0  0  0  0  0
   20.8638   -5.2495  -15.7058 C   0  0  0  0  0  0  0  0  0  0  0  0
   20.7249   -3.7801  -15.7513 C   0  0  0  0  0  0  0  0  0  0  0  0
   21.6267   -2.9202  -16.3410 C   0  0  0  0  0  0  0  0  0  0  0  0
   21.4723   -1.5655  -16.3647 C   0  0  0  0  0  0  0  0  0  0  0  0
   20.3828   -0.9851  -15.7864 C   0  0  0  0  0  0  0  0  0  0  0  0
   19.4487   -1.8095  -15.1808 C   0  0  0  0  0  0  0  0  0  0  0  0
   19.6252   -3.1748  -15.1698 C   0  0  0  0  0  0  0  0  0  0  0  0
   22.1242   -5.0236  -13.5500 C   0  0  0  0  0  0  0  0  0  0  0  0
   21.6035   -5.6690  -12.5711 O   0  0  0  0  0  0  0  0  0  0  0  0
   22.6888   -3.8147  -13.1855 O   0  0  0  0  0  0  0  0  0  0  0  0
  2  3  2  0
  2  1  1  0
  4  2  1  0
  5  4  1  0
  5  6  1  1
  7  5  1  0
  8  7  2  0
  9  7  1  0
 10  9  1  0
 10 11  1  6
 11 12  1  0
 13 15  1  0
 13 10  1  0
 14 13  2  0
 16 24  1  0
 16 15  1  0
 16 17  1  1
 17 18  1  0
 18 19  2  0
 18 23  1  0
 19 20  1  0
 20 21  2  0
 22 21  1  0
 23 22  2  0
 24 26  1  0
 25 24  2  0
M  END
$$$$
