NCF.pdb
     RDKit          3D

 26 26  0  0  1  0  0  0  0  0999 V2000
   27.9168  -20.9385  -18.5290 N   0  0  0  0  0  0  0  0  0  0  0  0
   28.3565  -21.8133  -17.5009 C   0  0  0  0  0  0  0  0  0  0  0  0
   29.5438  -22.1686  -17.4324 O   0  0  0  0  0  0  0  0  0  0  0  0
   27.3993  -22.3261  -16.4898 C   0  0  0  0  0  0  0  0  0  0  0  0
   26.8752  -21.1049  -15.7129 C   0  0  2  0  0  0  0  0  0  0  0  0
   28.0938  -20.4760  -15.1642 N   0  0  0  0  0  0  0  0  0  0  0  0
   26.0583  -21.5814  -14.5724 C   0  0  0  0  0  0  0  0  0  0  0  0
   25.1094  -22.4065  -14.7741 O   0  0  0  0  0  0  0  0  0  0  0  0
   26.2333  -21.1969  -13.2189 N   0  0  0  0  0  0  0  0  0  0  0  0
   25.2268  -21.4367  -12.2065 C   0  0  1  0  0  0  0  0  0  0  0  0
   25.8677  -21.1607  -10.8550 C   0  0  0  0  0  0  0  0  0  0  0  0
   24.6617  -21.0599   -9.5373 S   0  0  0  0  0  0  0  0  0  0  0  0
   24.0071  -20.6295  -12.4036 C   0  0  0  0  0  0  0  0  0  0  0  0
   24.1523  -19.3671  -12.4003 O   0  0  0  0  0  0  0  0  0  0  0  0
   22.7121  -21.1181  -12.5914 N   0  0  0  0  0  0  0  0  0  0  0  0
   21.5575  -20.2792  -12.8530 C   0  0  1  0  0  0  0  0  0  0  0  0
   21.7424  -19.4184  -14.0698 C   0  0  0  0  0  0  0  0  0  0  0  0
   21.7896  -20.2812  -15.2673 C   0  0  0  0  0  0  0  0  0  0  0  0
   22.9326  -20.5878  -15.9743 C   0  0  0  0  0  0  0  0  0  0  0  0
   22.9443  -21.3864  -17.0796 C   0  0  0  0  0  0  0  0  0  0  0  0
   21.7866  -21.9335  -17.5477 C   0  0  0  0  0  0  0  0  0  0  0  0
   20.6117  -21.6534  -16.8695 C   0  0  0  0  0  0  0  0  0  0  0  0
   20.6243  -20.8448  -15.7554 C   0  0  0  0  0  0  0  0  0  0  0  0
   20.3640  -21.1194  -12.8473 C   0  0  0  0  0  0  0  0  0  0  0  0
   20.4985  -22.3951  -12.8675 O   0  0  0  0  0  0  0  0  0  0  0  0
   19.0475  -20.6963  -12.8199 O   0  0  0  0  0  0  0  0  0  0  0  0
  2  3  2  0
  2  1  1  0
  4  2  1  0
  5  4  1  0
  5  6  1  1
  7  5  1  0
  8  7  2  0
  9  7  1  0
 10  9  1  0
 10 11  1  1
 11 12  1  0
 13 15  1  0
 13 10  1  0
 14 13  2  0
 16 24  1  0
 16 15  1  0
 16 17  1  6
 17 18  1  0
 18 19  2  0
 18 23  1  0
 19 20  1  0
 20 21  2  0
 22 21  1  0
 23 22  2  0
 24 26  1  0
 25 24  2  0
M  END
$$$$
