NCF.pdb
     RDKit          3D

 26 26  0  0  1  0  0  0  0  0999 V2000
   18.6558  -16.0890  -18.8734 N   0  0  0  0  0  0  0  0  0  0  0  0
   18.0593  -15.9947  -17.5885 C   0  0  0  0  0  0  0  0  0  0  0  0
   16.9415  -16.4872  -17.3683 O   0  0  0  0  0  0  0  0  0  0  0  0
   18.7614  -15.2971  -16.4831 C   0  0  0  0  0  0  0  0  0  0  0  0
   20.0924  -14.7793  -17.0575 C   0  0  2  0  0  0  0  0  0  0  0  0
   21.0432  -15.8837  -16.8173 N   0  0  0  0  0  0  0  0  0  0  0  0
   20.5366  -13.6162  -16.2543 C   0  0  0  0  0  0  0  0  0  0  0  0
   19.8470  -13.2376  -15.2528 O   0  0  0  0  0  0  0  0  0  0  0  0
   21.7035  -12.8479  -16.4964 N   0  0  0  0  0  0  0  0  0  0  0  0
   22.0712  -11.7136  -15.6757 C   0  0  1  0  0  0  0  0  0  0  0  0
   23.5846  -11.5767  -15.7425 C   0  0  0  0  0  0  0  0  0  0  0  0
   24.1720  -10.1012  -14.9186 S   0  0  0  0  0  0  0  0  0  0  0  0
   21.3953  -10.4658  -16.0807 C   0  0  0  0  0  0  0  0  0  0  0  0
   21.3051  -10.2456  -17.3289 O   0  0  0  0  0  0  0  0  0  0  0  0
   20.8481   -9.5056  -15.2265 N   0  0  0  0  0  0  0  0  0  0  0  0
   20.2437   -8.2664  -15.6785 C   0  0  1  0  0  0  0  0  0  0  0  0
   18.7491   -8.3670  -15.7854 C   0  0  0  0  0  0  0  0  0  0  0  0
   18.2081   -7.0618  -16.2147 C   0  0  0  0  0  0  0  0  0  0  0  0
   18.2906   -6.5556  -17.4943 C   0  0  0  0  0  0  0  0  0  0  0  0
   17.7831   -5.3440  -17.8603 C   0  0  0  0  0  0  0  0  0  0  0  0
   17.1515   -4.5556  -16.9449 C   0  0  0  0  0  0  0  0  0  0  0  0
   17.0443   -5.0224  -15.6452 C   0  0  0  0  0  0  0  0  0  0  0  0
   17.5638   -6.2494  -15.2988 C   0  0  0  0  0  0  0  0  0  0  0  0
   20.7471   -7.1762  -14.8487 C   0  0  0  0  0  0  0  0  0  0  0  0
   21.1110   -7.4254  -13.6439 O   0  0  0  0  0  0  0  0  0  0  0  0
   20.8896   -5.8495  -15.2128 O   0  0  0  0  0  0  0  0  0  0  0  0
  2  3  2  0
  2  1  1  0
  4  2  1  0
  5  4  1  0
  5  6  1  1
  7  5  1  0
  8  7  2  0
  9  7  1  0
 10  9  1  0
 10 11  1  6
 11 12  1  0
 13 15  1  0
 13 10  1  0
 14 13  2  0
 16 24  1  0
 16 15  1  0
 16 17  1  1
 17 18  1  0
 18 19  2  0
 18 23  1  0
 19 20  1  0
 20 21  2  0
 22 21  1  0
 23 22  2  0
 24 26  1  0
 25 24  2  0
M  END
$$$$
