NCF.pdb
     RDKit          3D

 26 26  0  0  1  0  0  0  0  0999 V2000
   18.1238  -14.3788  -16.5280 N   0  0  0  0  0  0  0  0  0  0  0  0
   18.7393  -13.5462  -17.4995 C   0  0  0  0  0  0  0  0  0  0  0  0
   19.4465  -14.0311  -18.3968 O   0  0  0  0  0  0  0  0  0  0  0  0
   18.5527  -12.0749  -17.4552 C   0  0  0  0  0  0  0  0  0  0  0  0
   17.6958  -11.7718  -16.2129 C   0  0  2  0  0  0  0  0  0  0  0  0
   16.3297  -12.1676  -16.6113 N   0  0  0  0  0  0  0  0  0  0  0  0
   17.6943  -10.3084  -15.9816 C   0  0  0  0  0  0  0  0  0  0  0  0
   17.0322   -9.5453  -16.7571 O   0  0  0  0  0  0  0  0  0  0  0  0
   18.3841   -9.6406  -14.9382 N   0  0  0  0  0  0  0  0  0  0  0  0
   18.2943   -8.2097  -14.7386 C   0  0  1  0  0  0  0  0  0  0  0  0
   17.6135   -7.9802  -13.3979 C   0  0  0  0  0  0  0  0  0  0  0  0
   18.4888   -8.7614  -12.0472 S   0  0  0  0  0  0  0  0  0  0  0  0
   19.6054   -7.5351  -14.8037 C   0  0  0  0  0  0  0  0  0  0  0  0
   20.6199   -8.2288  -14.4808 O   0  0  0  0  0  0  0  0  0  0  0  0
   19.8375   -6.2112  -15.1835 N   0  0  0  0  0  0  0  0  0  0  0  0
   21.1550   -5.6089  -15.2656 C   0  0  1  0  0  0  0  0  0  0  0  0
   21.8930   -6.0192  -16.5076 C   0  0  0  0  0  0  0  0  0  0  0  0
   23.0360   -5.1070  -16.7120 C   0  0  0  0  0  0  0  0  0  0  0  0
   22.9842   -3.9221  -17.4146 C   0  0  0  0  0  0  0  0  0  0  0  0
   24.0588   -3.1009  -17.5890 C   0  0  0  0  0  0  0  0  0  0  0  0
   25.2708   -3.4287  -17.0578 C   0  0  0  0  0  0  0  0  0  0  0  0
   25.3717   -4.6109  -16.3431 C   0  0  0  0  0  0  0  0  0  0  0  0
   24.2729   -5.4240  -16.1794 C   0  0  0  0  0  0  0  0  0  0  0  0
   21.0205   -4.1708  -15.0551 C   0  0  0  0  0  0  0  0  0  0  0  0
   21.9258   -3.5496  -14.3914 O   0  0  0  0  0  0  0  0  0  0  0  0
   19.9962   -3.3557  -15.5017 O   0  0  0  0  0  0  0  0  0  0  0  0
  2  3  2  0
  2  1  1  0
  4  2  1  0
  5  4  1  0
  5  6  1  6
  7  5  1  0
  8  7  2  0
  9  7  1  0
 10  9  1  0
 10 11  1  1
 11 12  1  0
 13 15  1  0
 13 10  1  0
 14 13  2  0
 16 24  1  0
 16 15  1  0
 16 17  1  6
 17 18  1  0
 18 19  2  0
 18 23  1  0
 19 20  1  0
 20 21  2  0
 22 21  1  0
 23 22  2  0
 24 26  1  0
 25 24  2  0
M  END
$$$$
