NCF.pdb
     RDKit          3D

 26 26  0  0  1  0  0  0  0  0999 V2000
   27.7331  -14.5708  -15.3845 N   0  0  0  0  0  0  0  0  0  0  0  0
   27.7924  -15.9891  -15.3576 C   0  0  0  0  0  0  0  0  0  0  0  0
   28.3794  -16.6183  -16.2520 O   0  0  0  0  0  0  0  0  0  0  0  0
   27.1453  -16.7478  -14.2590 C   0  0  0  0  0  0  0  0  0  0  0  0
   26.3034  -17.8552  -14.9181 C   0  0  2  0  0  0  0  0  0  0  0  0
   25.1274  -17.1422  -15.4569 N   0  0  0  0  0  0  0  0  0  0  0  0
   25.8280  -18.7820  -13.8646 C   0  0  0  0  0  0  0  0  0  0  0  0
   24.8350  -18.4571  -13.1362 O   0  0  0  0  0  0  0  0  0  0  0  0
   26.3892  -20.0508  -13.5718 N   0  0  0  0  0  0  0  0  0  0  0  0
   25.8634  -20.9125  -12.5343 C   0  0  1  0  0  0  0  0  0  0  0  0
   26.0081  -22.3469  -13.0191 C   0  0  0  0  0  0  0  0  0  0  0  0
   25.5293  -23.5384  -11.7734 S   0  0  0  0  0  0  0  0  0  0  0  0
   26.5226  -20.7119  -11.2292 C   0  0  0  0  0  0  0  0  0  0  0  0
   27.7926  -20.6706  -11.2325 O   0  0  0  0  0  0  0  0  0  0  0  0
   25.8868  -20.5648   -9.9943 N   0  0  0  0  0  0  0  0  0  0  0  0
   26.5612  -20.6794   -8.7148 C   0  0  1  0  0  0  0  0  0  0  0  0
   27.3986  -19.4726   -8.4018 C   0  0  0  0  0  0  0  0  0  0  0  0
   27.9093  -19.5858   -7.0209 C   0  0  0  0  0  0  0  0  0  0  0  0
   28.8769  -20.4766   -6.6079 C   0  0  0  0  0  0  0  0  0  0  0  0
   29.3268  -20.5595   -5.3233 C   0  0  0  0  0  0  0  0  0  0  0  0
   28.8211  -19.7371   -4.3608 C   0  0  0  0  0  0  0  0  0  0  0  0
   27.8458  -18.8249   -4.7286 C   0  0  0  0  0  0  0  0  0  0  0  0
   27.4074  -18.7587   -6.0320 C   0  0  0  0  0  0  0  0  0  0  0  0
   25.5752  -21.0454   -7.7028 C   0  0  0  0  0  0  0  0  0  0  0  0
   24.3408  -20.7573   -7.9008 O   0  0  0  0  0  0  0  0  0  0  0  0
   25.8126  -21.6941   -6.5045 O   0  0  0  0  0  0  0  0  0  0  0  0
  2  3  2  0
  2  1  1  0
  4  2  1  0
  5  4  1  0
  5  6  1  1
  7  5  1  0
  8  7  2  0
  9  7  1  0
 10  9  1  0
 10 11  1  6
 11 12  1  0
 13 15  1  0
 13 10  1  0
 14 13  2  0
 16 24  1  0
 16 15  1  0
 16 17  1  1
 17 18  1  0
 18 19  2  0
 18 23  1  0
 19 20  1  0
 20 21  2  0
 22 21  1  0
 23 22  2  0
 24 26  1  0
 25 24  2  0
M  END
$$$$
