NCF.pdb
     RDKit          3D

 26 26  0  0  1  0  0  0  0  0999 V2000
   27.5447  -19.5617  -19.6112 N   0  0  0  0  0  0  0  0  0  0  0  0
   27.8111  -19.1820  -18.2693 C   0  0  0  0  0  0  0  0  0  0  0  0
   28.4991  -18.1806  -18.0161 O   0  0  0  0  0  0  0  0  0  0  0  0
   27.2752  -19.9829  -17.1411 C   0  0  0  0  0  0  0  0  0  0  0  0
   28.4240  -20.8804  -16.6468 C   0  0  2  0  0  0  0  0  0  0  0  0
   28.3409  -22.0790  -17.5058 N   0  0  0  0  0  0  0  0  0  0  0  0
   28.1353  -21.2993  -15.2552 C   0  0  0  0  0  0  0  0  0  0  0  0
   27.1623  -22.0864  -15.0197 O   0  0  0  0  0  0  0  0  0  0  0  0
   28.8646  -20.8967  -14.1078 N   0  0  0  0  0  0  0  0  0  0  0  0
   28.4903  -21.2987  -12.7685 C   0  0  1  0  0  0  0  0  0  0  0  0
   29.6271  -20.8991  -11.8403 C   0  0  0  0  0  0  0  0  0  0  0  0
   29.2333  -21.1855  -10.1188 S   0  0  0  0  0  0  0  0  0  0  0  0
   27.2045  -20.7210  -12.3314 C   0  0  0  0  0  0  0  0  0  0  0  0
   26.9993  -19.5012  -12.6224 O   0  0  0  0  0  0  0  0  0  0  0  0
   26.1950  -21.3836  -11.6294 N   0  0  0  0  0  0  0  0  0  0  0  0
   24.9536  -20.7603  -11.2102 C   0  0  1  0  0  0  0  0  0  0  0  0
   23.7681  -21.2846  -11.9687 C   0  0  0  0  0  0  0  0  0  0  0  0
   22.5440  -20.6360  -11.4573 C   0  0  0  0  0  0  0  0  0  0  0  0
   22.0404  -19.4345  -11.9081 C   0  0  0  0  0  0  0  0  0  0  0  0
   20.9076  -18.8585  -11.4137 C   0  0  0  0  0  0  0  0  0  0  0  0
   20.2017  -19.4673  -10.4190 C   0  0  0  0  0  0  0  0  0  0  0  0
   20.6696  -20.6772   -9.9334 C   0  0  0  0  0  0  0  0  0  0  0  0
   21.8155  -21.2403  -10.4484 C   0  0  0  0  0  0  0  0  0  0  0  0
   24.8618  -20.8434   -9.7559 C   0  0  0  0  0  0  0  0  0  0  0  0
   25.3265  -21.8797   -9.1591 O   0  0  0  0  0  0  0  0  0  0  0  0
   24.3147  -19.9040   -8.9007 O   0  0  0  0  0  0  0  0  0  0  0  0
  2  3  2  0
  2  1  1  0
  4  2  1  0
  5  4  1  0
  5  6  1  6
  7  5  1  0
  8  7  2  0
  9  7  1  0
 10  9  1  0
 10 11  1  1
 11 12  1  0
 13 15  1  0
 13 10  1  0
 14 13  2  0
 16 24  1  0
 16 15  1  0
 16 17  1  6
 17 18  1  0
 18 19  2  0
 18 23  1  0
 19 20  1  0
 20 21  2  0
 22 21  1  0
 23 22  2  0
 24 26  1  0
 25 24  2  0
M  END
$$$$
