NCF.pdb
     RDKit          3D

 26 26  0  0  1  0  0  0  0  0999 V2000
   18.3551  -11.4714  -17.5392 N   0  0  0  0  0  0  0  0  0  0  0  0
   18.0033  -12.0829  -16.3072 C   0  0  0  0  0  0  0  0  0  0  0  0
   17.2832  -13.0935  -16.2812 O   0  0  0  0  0  0  0  0  0  0  0  0
   18.4866  -11.5186  -15.0228 C   0  0  0  0  0  0  0  0  0  0  0  0
   19.2595  -10.2320  -15.3645 C   0  0  2  0  0  0  0  0  0  0  0  0
   20.6324  -10.6992  -15.6449 N   0  0  0  0  0  0  0  0  0  0  0  0
   19.3106   -9.3732  -14.1582 C   0  0  0  0  0  0  0  0  0  0  0  0
   19.6584   -9.8728  -13.0395 O   0  0  0  0  0  0  0  0  0  0  0  0
   18.9994   -7.9904  -14.1201 N   0  0  0  0  0  0  0  0  0  0  0  0
   19.0640   -7.2126  -12.9010 C   0  0  1  0  0  0  0  0  0  0  0  0
   19.6291   -5.8476  -13.2629 C   0  0  0  0  0  0  0  0  0  0  0  0
   21.3398   -5.9339  -13.7795 S   0  0  0  0  0  0  0  0  0  0  0  0
   17.7592   -7.0967  -12.2213 C   0  0  0  0  0  0  0  0  0  0  0  0
   16.7377   -6.9697  -12.9663 O   0  0  0  0  0  0  0  0  0  0  0  0
   17.5398   -7.1116  -10.8419 N   0  0  0  0  0  0  0  0  0  0  0  0
   16.2256   -7.0763  -10.2281 C   0  0  1  0  0  0  0  0  0  0  0  0
   16.2050   -7.7498   -8.8859 C   0  0  0  0  0  0  0  0  0  0  0  0
   14.8239   -7.7406   -8.3636 C   0  0  0  0  0  0  0  0  0  0  0  0
   14.2750   -6.7310   -7.6021 C   0  0  0  0  0  0  0  0  0  0  0  0
   12.9954   -6.7520   -7.1312 C   0  0  0  0  0  0  0  0  0  0  0  0
   12.1776   -7.8084   -7.4028 C   0  0  0  0  0  0  0  0  0  0  0  0
   12.6855   -8.8476   -8.1649 C   0  0  0  0  0  0  0  0  0  0  0  0
   13.9805   -8.8043   -8.6302 C   0  0  0  0  0  0  0  0  0  0  0  0
   15.7397   -5.7001  -10.2533 C   0  0  0  0  0  0  0  0  0  0  0  0
   16.5652   -4.7425  -10.0354 O   0  0  0  0  0  0  0  0  0  0  0  0
   14.4449   -5.2781  -10.4948 O   0  0  0  0  0  0  0  0  0  0  0  0
  2  3  2  0
  2  1  1  0
  4  2  1  0
  5  4  1  0
  5  6  1  1
  7  5  1  0
  8  7  2  0
  9  7  1  0
 10  9  1  0
 10 11  1  6
 11 12  1  0
 13 15  1  0
 13 10  1  0
 14 13  2  0
 16 24  1  0
 16 15  1  0
 16 17  1  1
 17 18  1  0
 18 19  2  0
 18 23  1  0
 19 20  1  0
 20 21  2  0
 22 21  1  0
 23 22  2  0
 24 26  1  0
 25 24  2  0
M  END
$$$$
