NCF.pdb
     RDKit          3D

 26 26  0  0  1  0  0  0  0  0999 V2000
   14.7687  -22.8677   -2.4218 N   0  0  0  0  0  0  0  0  0  0  0  0
   13.9218  -23.4230   -1.4267 C   0  0  0  0  0  0  0  0  0  0  0  0
   13.1668  -24.3720   -1.6910 O   0  0  0  0  0  0  0  0  0  0  0  0
   13.9191  -22.8720   -0.0490 C   0  0  0  0  0  0  0  0  0  0  0  0
   14.8277  -21.6295   -0.0645 C   0  0  2  0  0  0  0  0  0  0  0  0
   16.1682  -22.1663   -0.3750 N   0  0  0  0  0  0  0  0  0  0  0  0
   14.8740  -21.0571    1.3013 C   0  0  0  0  0  0  0  0  0  0  0  0
   13.8268  -20.5366    1.8056 O   0  0  0  0  0  0  0  0  0  0  0  0
   16.0152  -21.0292    2.1424 N   0  0  0  0  0  0  0  0  0  0  0  0
   15.9778  -20.4906    3.4854 C   0  0  1  0  0  0  0  0  0  0  0  0
   16.5114  -21.5650    4.4204 C   0  0  0  0  0  0  0  0  0  0  0  0
   16.2527  -23.2153    3.7796 S   0  0  0  0  0  0  0  0  0  0  0  0
   16.7318  -19.2293    3.6219 C   0  0  0  0  0  0  0  0  0  0  0  0
   17.8078  -19.1332    2.9528 O   0  0  0  0  0  0  0  0  0  0  0  0
   16.3785  -18.1349    4.4147 N   0  0  0  0  0  0  0  0  0  0  0  0
   17.1574  -16.9143    4.5078 C   0  0  1  0  0  0  0  0  0  0  0  0
   16.6764  -15.8571    3.5557 C   0  0  0  0  0  0  0  0  0  0  0  0
   17.5600  -14.6785    3.6585 C   0  0  0  0  0  0  0  0  0  0  0  0
   17.3071  -13.5681    4.4354 C   0  0  0  0  0  0  0  0  0  0  0  0
   18.1420  -12.4923    4.5078 C   0  0  0  0  0  0  0  0  0  0  0  0
   19.3010  -12.4689    3.7904 C   0  0  0  0  0  0  0  0  0  0  0  0
   19.5978  -13.5631    2.9946 C   0  0  0  0  0  0  0  0  0  0  0  0
   18.7401  -14.6385    2.9377 C   0  0  0  0  0  0  0  0  0  0  0  0
   17.2299  -16.5173    5.9105 C   0  0  0  0  0  0  0  0  0  0  0  0
   16.2187  -16.7268    6.6718 O   0  0  0  0  0  0  0  0  0  0  0  0
   18.2988  -15.9189    6.5527 O   0  0  0  0  0  0  0  0  0  0  0  0
  2  3  2  0
  2  1  1  0
  4  2  1  0
  5  4  1  0
  5  6  1  1
  7  5  1  0
  8  7  2  0
  9  7  1  0
 10  9  1  0
 10 11  1  1
 11 12  1  0
 13 15  1  0
 13 10  1  0
 14 13  2  0
 16 24  1  0
 16 15  1  0
 16 17  1  6
 17 18  1  0
 18 19  2  0
 18 23  1  0
 19 20  1  0
 20 21  2  0
 22 21  1  0
 23 22  2  0
 24 26  1  0
 25 24  2  0
M  END
$$$$
