NCF.pdb
     RDKit          3D

 26 26  0  0  1  0  0  0  0  0999 V2000
   25.9613  -19.7921  -16.0674 N   0  0  0  0  0  0  0  0  0  0  0  0
   24.8021  -19.7612  -15.2483 C   0  0  0  0  0  0  0  0  0  0  0  0
   23.7060  -20.1497  -15.6820 O   0  0  0  0  0  0  0  0  0  0  0  0
   24.8792  -19.2554  -13.8555 C   0  0  0  0  0  0  0  0  0  0  0  0
   25.7736  -20.2351  -13.0748 C   0  0  2  0  0  0  0  0  0  0  0  0
   25.2241  -21.5661  -13.4036 N   0  0  0  0  0  0  0  0  0  0  0  0
   25.5744  -20.0084  -11.6242 C   0  0  0  0  0  0  0  0  0  0  0  0
   25.1101  -18.8953  -11.2151 O   0  0  0  0  0  0  0  0  0  0  0  0
   25.8592  -20.9458  -10.5992 N   0  0  0  0  0  0  0  0  0  0  0  0
   25.7956  -20.6041   -9.1940 C   0  0  1  0  0  0  0  0  0  0  0  0
   24.6537  -21.4024   -8.5840 C   0  0  0  0  0  0  0  0  0  0  0  0
   24.6895  -21.3844   -6.7953 S   0  0  0  0  0  0  0  0  0  0  0  0
   27.0666  -20.8459   -8.4838 C   0  0  0  0  0  0  0  0  0  0  0  0
   27.6392  -21.9589   -8.7030 O   0  0  0  0  0  0  0  0  0  0  0  0
   27.6980  -19.9723   -7.5955 N   0  0  0  0  0  0  0  0  0  0  0  0
   28.9103  -20.2924   -6.8653 C   0  0  1  0  0  0  0  0  0  0  0  0
   29.6666  -19.0634   -6.4495 C   0  0  0  0  0  0  0  0  0  0  0  0
   29.1702  -18.6150   -5.1330 C   0  0  0  0  0  0  0  0  0  0  0  0
   29.7559  -18.9204   -3.9230 C   0  0  0  0  0  0  0  0  0  0  0  0
   29.2722  -18.4934   -2.7218 C   0  0  0  0  0  0  0  0  0  0  0  0
   28.1507  -17.7203   -2.6651 C   0  0  0  0  0  0  0  0  0  0  0  0
   27.5269  -17.3874   -3.8562 C   0  0  0  0  0  0  0  0  0  0  0  0
   28.0338  -17.8295   -5.0574 C   0  0  0  0  0  0  0  0  0  0  0  0
   28.5722  -21.2213   -5.7914 C   0  0  0  0  0  0  0  0  0  0  0  0
   29.5102  -21.8881   -5.2243 O   0  0  0  0  0  0  0  0  0  0  0  0
   27.3131  -21.4846   -5.2833 O   0  0  0  0  0  0  0  0  0  0  0  0
  2  3  2  0
  2  1  1  0
  4  2  1  0
  5  4  1  0
  5  6  1  1
  7  5  1  0
  8  7  2  0
  9  7  1  0
 10  9  1  0
 10 11  1  1
 11 12  1  0
 13 15  1  0
 13 10  1  0
 14 13  2  0
 16 24  1  0
 16 15  1  0
 16 17  1  1
 17 18  1  0
 18 19  2  0
 18 23  1  0
 19 20  1  0
 20 21  2  0
 22 21  1  0
 23 22  2  0
 24 26  1  0
 25 24  2  0
M  END
$$$$
