NCF.pdb
     RDKit          3D

 26 26  0  0  1  0  0  0  0  0999 V2000
   12.5725  -10.2954  -15.5239 N   0  0  0  0  0  0  0  0  0  0  0  0
   13.1334  -11.5802  -15.2996 C   0  0  0  0  0  0  0  0  0  0  0  0
   12.5484  -12.6056  -15.6829 O   0  0  0  0  0  0  0  0  0  0  0  0
   14.4310  -11.7212  -14.5940 C   0  0  0  0  0  0  0  0  0  0  0  0
   15.4368  -12.2768  -15.6183 C   0  0  2  0  0  0  0  0  0  0  0  0
   15.3305  -13.7425  -15.4703 N   0  0  0  0  0  0  0  0  0  0  0  0
   16.8033  -11.8778  -15.2075 C   0  0  0  0  0  0  0  0  0  0  0  0
   17.2166  -12.1496  -14.0340 O   0  0  0  0  0  0  0  0  0  0  0  0
   17.7404  -11.1951  -16.0239 N   0  0  0  0  0  0  0  0  0  0  0  0
   19.0609  -10.8325  -15.5547 C   0  0  1  0  0  0  0  0  0  0  0  0
   20.0684  -11.5993  -16.3975 C   0  0  0  0  0  0  0  0  0  0  0  0
   19.8465  -11.3157  -18.1500 S   0  0  0  0  0  0  0  0  0  0  0  0
   19.3099   -9.3786  -15.6008 C   0  0  0  0  0  0  0  0  0  0  0  0
   18.6822   -8.7206  -16.4883 O   0  0  0  0  0  0  0  0  0  0  0  0
   20.1678   -8.6585  -14.7662 N   0  0  0  0  0  0  0  0  0  0  0  0
   20.4971   -7.2579  -14.9538 C   0  0  1  0  0  0  0  0  0  0  0  0
   20.8006   -6.5651  -13.6563 C   0  0  0  0  0  0  0  0  0  0  0  0
   21.0751   -5.1392  -13.9246 C   0  0  0  0  0  0  0  0  0  0  0  0
   20.1244   -4.1409  -13.9348 C   0  0  0  0  0  0  0  0  0  0  0  0
   20.4084   -2.8316  -14.1889 C   0  0  0  0  0  0  0  0  0  0  0  0
   21.6878   -2.4417  -14.4526 C   0  0  0  0  0  0  0  0  0  0  0  0
   22.6780   -3.4104  -14.4534 C   0  0  0  0  0  0  0  0  0  0  0  0
   22.3678   -4.7263  -14.1935 C   0  0  0  0  0  0  0  0  0  0  0  0
   21.5292   -7.1585  -15.9811 C   0  0  0  0  0  0  0  0  0  0  0  0
   22.4603   -8.0403  -16.0180 O   0  0  0  0  0  0  0  0  0  0  0  0
   21.6348   -6.1923  -16.9650 O   0  0  0  0  0  0  0  0  0  0  0  0
  2  3  2  0
  2  1  1  0
  4  2  1  0
  5  4  1  0
  5  6  1  1
  7  5  1  0
  8  7  2  0
  9  7  1  0
 10  9  1  0
 10 11  1  6
 11 12  1  0
 13 15  1  0
 13 10  1  0
 14 13  2  0
 16 24  1  0
 16 15  1  0
 16 17  1  1
 17 18  1  0
 18 19  2  0
 18 23  1  0
 19 20  1  0
 20 21  2  0
 22 21  1  0
 23 22  2  0
 24 26  1  0
 25 24  2  0
M  END
$$$$
