NCF.pdb
     RDKit          3D

 26 26  0  0  1  0  0  0  0  0999 V2000
   11.5064  -11.8243  -10.5225 N   0  0  0  0  0  0  0  0  0  0  0  0
   11.9748  -11.3448  -11.7740 C   0  0  0  0  0  0  0  0  0  0  0  0
   11.1951  -10.8272  -12.5893 O   0  0  0  0  0  0  0  0  0  0  0  0
   13.4096  -11.4604  -12.1341 C   0  0  0  0  0  0  0  0  0  0  0  0
   13.4733  -12.2194  -13.4718 C   0  0  2  0  0  0  0  0  0  0  0  0
   13.2412  -13.6295  -13.0982 N   0  0  0  0  0  0  0  0  0  0  0  0
   14.8484  -12.1145  -14.0132 C   0  0  0  0  0  0  0  0  0  0  0  0
   15.6987  -13.0293  -13.7639 O   0  0  0  0  0  0  0  0  0  0  0  0
   15.3362  -11.0535  -14.8174 N   0  0  0  0  0  0  0  0  0  0  0  0
   16.6723  -11.0515  -15.3745 C   0  0  1  0  0  0  0  0  0  0  0  0
   16.5478  -11.3843  -16.8534 C   0  0  0  0  0  0  0  0  0  0  0  0
   18.0929  -11.1759  -17.7309 S   0  0  0  0  0  0  0  0  0  0  0  0
   17.3829   -9.7753  -15.1637 C   0  0  0  0  0  0  0  0  0  0  0  0
   16.7254   -8.7122  -15.3924 O   0  0  0  0  0  0  0  0  0  0  0  0
   18.7051   -9.6239  -14.7397 N   0  0  0  0  0  0  0  0  0  0  0  0
   19.3913   -8.3480  -14.6593 C   0  0  1  0  0  0  0  0  0  0  0  0
   20.6776   -8.4401  -13.8896 C   0  0  0  0  0  0  0  0  0  0  0  0
   21.3603   -7.1316  -13.9344 C   0  0  0  0  0  0  0  0  0  0  0  0
   22.3918   -6.8085  -14.7901 C   0  0  0  0  0  0  0  0  0  0  0  0
   23.0051   -5.5907  -14.8062 C   0  0  0  0  0  0  0  0  0  0  0  0
   22.6107   -4.6083  -13.9473 C   0  0  0  0  0  0  0  0  0  0  0  0
   21.5772   -4.8866  -13.0679 C   0  0  0  0  0  0  0  0  0  0  0  0
   20.9723   -6.1233  -13.0702 C   0  0  0  0  0  0  0  0  0  0  0  0
   19.4974   -7.7938  -16.0054 C   0  0  0  0  0  0  0  0  0  0  0  0
   19.9494   -8.5333  -16.9513 O   0  0  0  0  0  0  0  0  0  0  0  0
   19.1555   -6.5160  -16.4095 O   0  0  0  0  0  0  0  0  0  0  0  0
  2  3  2  0
  2  1  1  0
  4  2  1  0
  5  4  1  0
  5  6  1  1
  7  5  1  0
  8  7  2  0
  9  7  1  0
 10  9  1  0
 10 11  1  6
 11 12  1  0
 13 15  1  0
 13 10  1  0
 14 13  2  0
 16 24  1  0
 16 15  1  0
 16 17  1  6
 17 18  1  0
 18 19  2  0
 18 23  1  0
 19 20  1  0
 20 21  2  0
 22 21  1  0
 23 22  2  0
 24 26  1  0
 25 24  2  0
M  END
$$$$
