NCF.pdb
     RDKit          3D

 26 26  0  0  1  0  0  0  0  0999 V2000
   23.0021  -17.1882  -15.9182 N   0  0  0  0  0  0  0  0  0  0  0  0
   22.0378  -17.9540  -15.2116 C   0  0  0  0  0  0  0  0  0  0  0  0
   20.8236  -17.7771  -15.3986 O   0  0  0  0  0  0  0  0  0  0  0  0
   22.4658  -18.9792  -14.2281 C   0  0  0  0  0  0  0  0  0  0  0  0
   23.9875  -18.8230  -14.0557 C   0  0  2  0  0  0  0  0  0  0  0  0
   24.5339  -19.1065  -15.3983 N   0  0  0  0  0  0  0  0  0  0  0  0
   24.4729  -19.8790  -13.1367 C   0  0  0  0  0  0  0  0  0  0  0  0
   23.6524  -20.7256  -12.6550 O   0  0  0  0  0  0  0  0  0  0  0  0
   25.8174  -20.0523  -12.7211 N   0  0  0  0  0  0  0  0  0  0  0  0
   26.2315  -21.1429  -11.8641 C   0  0  1  0  0  0  0  0  0  0  0  0
   27.4850  -21.7498  -12.4755 C   0  0  0  0  0  0  0  0  0  0  0  0
   27.2724  -22.1525  -14.2057 S   0  0  0  0  0  0  0  0  0  0  0  0
   26.4574  -20.7243  -10.4670 C   0  0  0  0  0  0  0  0  0  0  0  0
   27.2011  -19.7095  -10.2891 O   0  0  0  0  0  0  0  0  0  0  0  0
   25.9351  -21.3354   -9.3247 N   0  0  0  0  0  0  0  0  0  0  0  0
   26.2577  -20.9327   -7.9686 C   0  0  1  0  0  0  0  0  0  0  0  0
   26.8775  -19.5659   -7.9121 C   0  0  0  0  0  0  0  0  0  0  0  0
   27.5933  -19.4144   -6.6294 C   0  0  0  0  0  0  0  0  0  0  0  0
   27.0169  -19.5444   -5.3839 C   0  0  0  0  0  0  0  0  0  0  0  0
   27.7042  -19.3959   -4.2156 C   0  0  0  0  0  0  0  0  0  0  0  0
   29.0354  -19.1026   -4.2308 C   0  0  0  0  0  0  0  0  0  0  0  0
   29.6586  -18.9622   -5.4599 C   0  0  0  0  0  0  0  0  0  0  0  0
   28.9445  -19.1173   -6.6267 C   0  0  0  0  0  0  0  0  0  0  0  0
   25.0757  -21.1268   -7.1345 C   0  0  0  0  0  0  0  0  0  0  0  0
   23.9181  -20.8642   -7.6212 O   0  0  0  0  0  0  0  0  0  0  0  0
   25.0433  -21.5800   -5.8281 O   0  0  0  0  0  0  0  0  0  0  0  0
  2  3  2  0
  2  1  1  0
  4  2  1  0
  5  4  1  0
  5  6  1  6
  7  5  1  0
  8  7  2  0
  9  7  1  0
 10  9  1  0
 10 11  1  6
 11 12  1  0
 13 15  1  0
 13 10  1  0
 14 13  2  0
 16 24  1  0
 16 15  1  0
 16 17  1  6
 17 18  1  0
 18 19  2  0
 18 23  1  0
 19 20  1  0
 20 21  2  0
 22 21  1  0
 23 22  2  0
 24 26  1  0
 25 24  2  0
M  END
$$$$
