MKP.pdb
     RDKit          3D

 25 25  0  0  1  0  0  0  0  0999 V2000
   22.9206  -24.8314   -0.1845 C   0  0  0  0  0  0  0  0  0  0  0  0
   22.5643  -26.1167   -1.3865 S   0  0  0  0  0  0  0  0  0  0  0  0
   20.7927  -26.4944   -1.4637 C   0  0  0  0  0  0  0  0  0  0  0  0
   20.1263  -26.2543   -0.1183 C   0  0  0  0  0  0  0  0  0  0  0  0
   18.6458  -26.5932   -0.2705 C   0  0  2  0  0  0  0  0  0  0  0  0
   18.1614  -25.8143   -1.3897 N   0  0  0  0  0  0  0  0  0  0  0  0
   17.9738  -26.1234    0.9609 C   0  0  0  0  0  0  0  0  0  0  0  0
   17.9688  -24.9003    1.2230 O   0  0  0  0  0  0  0  0  0  0  0  0
   17.3285  -27.0032    1.8682 N   0  0  0  0  0  0  0  0  0  0  0  0
   16.6540  -26.5050    3.0943 C   0  0  1  0  0  0  0  0  0  0  0  0
   15.5451  -27.5280    3.3092 C   0  0  0  0  0  0  0  0  0  0  0  0
   14.3043  -27.2170    2.5608 C   0  0  0  0  0  0  0  0  0  0  0  0
   13.9509  -28.3426    1.5765 C   0  0  0  0  0  0  0  0  0  0  0  0
   12.7123  -27.9862    0.7946 C   0  0  0  0  0  0  0  0  0  0  0  0
   12.3901  -29.0770   -0.0905 N   0  0  0  0  0  0  0  0  0  0  0  0
   17.6119  -26.5036    4.2200 C   0  0  0  0  0  0  0  0  0  0  0  0
   18.2562  -27.5762    4.3779 O   0  0  0  0  0  0  0  0  0  0  0  0
   17.8296  -25.4186    5.0765 N   0  0  0  0  0  0  0  0  0  0  0  0
   17.5161  -24.0302    4.6574 C   0  0  0  0  0  0  0  0  0  0  0  0
   16.8665  -23.4776    5.8920 C   0  0  0  0  0  0  0  0  0  0  0  0
   17.3278  -24.3599    7.0358 C   0  0  0  0  0  0  0  0  0  0  0  0
   18.4172  -25.2232    6.3541 C   0  0  1  0  0  0  0  0  0  0  0  0
   18.7316  -26.3745    7.1740 C   0  0  0  0  0  0  0  0  0  0  0  0
   19.7128  -26.5901    7.8944 O   0  0  0  0  0  0  0  0  0  0  0  0
   17.7684  -27.4168    7.1492 O   0  0  0  0  0  0  0  0  0  0  0  0
  1  2  1  0
  3  2  1  0
  4  5  1  0
  4  3  1  0
  5  6  1  6
  7  5  1  0
  7  8  2  0
  9  7  1  0
 10  9  1  0
 10 11  1  1
 11 12  1  0
 13 12  1  0
 14 13  1  0
 14 15  1  0
 16 10  1  0
 17 16  2  0
 18 16  1  0
 18 22  1  0
 19 18  1  0
 20 19  1  0
 20 21  1  0
 21 22  1  0
 22 23  1  1
 23 24  2  0
 23 25  1  0
M  END
$$$$
