MKP.pdb
     RDKit          3D

 25 25  0  0  1  0  0  0  0  0999 V2000
   32.2234  -22.0097  -11.6736 C   0  0  0  0  0  0  0  0  0  0  0  0
   32.4966  -22.9863  -13.1553 S   0  0  0  0  0  0  0  0  0  0  0  0
   31.0701  -22.9282  -14.2728 C   0  0  0  0  0  0  0  0  0  0  0  0
   30.1002  -21.8324  -13.8602 C   0  0  0  0  0  0  0  0  0  0  0  0
   29.0397  -21.7207  -14.9522 C   0  0  2  0  0  0  0  0  0  0  0  0
   29.6541  -20.9997  -16.0462 N   0  0  0  0  0  0  0  0  0  0  0  0
   27.9435  -20.8967  -14.3971 C   0  0  0  0  0  0  0  0  0  0  0  0
   28.0732  -19.6529  -14.3647 O   0  0  0  0  0  0  0  0  0  0  0  0
   26.7401  -21.4558  -13.8942 N   0  0  0  0  0  0  0  0  0  0  0  0
   25.6506  -20.6053  -13.3500 C   0  0  1  0  0  0  0  0  0  0  0  0
   24.8238  -20.2821  -14.5888 C   0  0  0  0  0  0  0  0  0  0  0  0
   25.2005  -19.0000  -15.2297 C   0  0  0  0  0  0  0  0  0  0  0  0
   24.3983  -18.7652  -16.5189 C   0  0  0  0  0  0  0  0  0  0  0  0
   24.9544  -17.5859  -17.2756 C   0  0  0  0  0  0  0  0  0  0  0  0
   24.2332  -17.4456  -18.5154 N   0  0  0  0  0  0  0  0  0  0  0  0
   24.8655  -21.3777  -12.3642 C   0  0  0  0  0  0  0  0  0  0  0  0
   24.1984  -22.3358  -12.8414 O   0  0  0  0  0  0  0  0  0  0  0  0
   24.8313  -21.1106  -10.9911 N   0  0  0  0  0  0  0  0  0  0  0  0
   26.0683  -20.7908  -10.2366 C   0  0  0  0  0  0  0  0  0  0  0  0
   25.6104  -19.6589   -9.3644 C   0  0  0  0  0  0  0  0  0  0  0  0
   24.1003  -19.7752   -9.2900 C   0  0  0  0  0  0  0  0  0  0  0  0
   23.8518  -21.1466   -9.9640 C   0  0  1  0  0  0  0  0  0  0  0  0
   22.4552  -21.2854  -10.3202 C   0  0  0  0  0  0  0  0  0  0  0  0
   21.8494  -20.8865  -11.3212 O   0  0  0  0  0  0  0  0  0  0  0  0
   21.6567  -21.9857   -9.3785 O   0  0  0  0  0  0  0  0  0  0  0  0
  1  2  1  0
  3  2  1  0
  4  5  1  0
  4  3  1  0
  5  6  1  6
  7  5  1  0
  7  8  2  0
  9  7  1  0
 10  9  1  0
 10 11  1  6
 11 12  1  0
 13 12  1  0
 14 13  1  0
 14 15  1  0
 16 10  1  0
 17 16  2  0
 18 16  1  0
 18 22  1  0
 19 18  1  0
 20 19  1  0
 20 21  1  0
 21 22  1  0
 22 23  1  6
 23 24  2  0
 23 25  1  0
M  END
$$$$
