MKP.pdb
     RDKit          3D

 25 25  0  0  1  0  0  0  0  0999 V2000
   20.1125  -21.2930  -20.4163 C   0  0  0  0  0  0  0  0  0  0  0  0
   19.4678  -19.6298  -20.2123 S   0  0  0  0  0  0  0  0  0  0  0  0
   20.6055  -18.5771  -19.2717 C   0  0  0  0  0  0  0  0  0  0  0  0
   21.7796  -19.3839  -18.7405 C   0  0  0  0  0  0  0  0  0  0  0  0
   22.6342  -18.4484  -17.8895 C   0  0  2  0  0  0  0  0  0  0  0  0
   23.4273  -17.6661  -18.8132 N   0  0  0  0  0  0  0  0  0  0  0  0
   23.5402  -19.3061  -17.0945 C   0  0  0  0  0  0  0  0  0  0  0  0
   24.7180  -19.4715  -17.4821 O   0  0  0  0  0  0  0  0  0  0  0  0
   23.1324  -19.9570  -15.9012 N   0  0  0  0  0  0  0  0  0  0  0  0
   24.0864  -20.7354  -15.0702 C   0  0  1  0  0  0  0  0  0  0  0  0
   23.6843  -20.3562  -13.6499 C   0  0  0  0  0  0  0  0  0  0  0  0
   24.5702  -20.9361  -12.6129 C   0  0  0  0  0  0  0  0  0  0  0  0
   24.0321  -20.6562  -11.2012 C   0  0  0  0  0  0  0  0  0  0  0  0
   24.9697  -21.2158  -10.1618 C   0  0  0  0  0  0  0  0  0  0  0  0
   24.3919  -21.0151   -8.8568 N   0  0  0  0  0  0  0  0  0  0  0  0
   23.8939  -22.1798  -15.3177 C   0  0  0  0  0  0  0  0  0  0  0  0
   22.7572  -22.6305  -15.0085 O   0  0  0  0  0  0  0  0  0  0  0  0
   24.8661  -23.0300  -15.8561 N   0  0  0  0  0  0  0  0  0  0  0  0
   26.0562  -22.4923  -16.5604 C   0  0  0  0  0  0  0  0  0  0  0  0
   27.1511  -23.3649  -16.0205 C   0  0  0  0  0  0  0  0  0  0  0  0
   26.4691  -24.6167  -15.5032 C   0  0  0  0  0  0  0  0  0  0  0  0
   25.0230  -24.4311  -16.0240 C   0  0  1  0  0  0  0  0  0  0  0  0
   24.1223  -25.3331  -15.3373 C   0  0  0  0  0  0  0  0  0  0  0  0
   23.3090  -25.1057  -14.4345 O   0  0  0  0  0  0  0  0  0  0  0  0
   24.1792  -26.6861  -15.7628 O   0  0  0  0  0  0  0  0  0  0  0  0
  1  2  1  0
  3  2  1  0
  4  5  1  0
  4  3  1  0
  5  6  1  6
  7  5  1  0
  7  8  2  0
  9  7  1  0
 10  9  1  0
 10 11  1  1
 11 12  1  0
 13 12  1  0
 14 13  1  0
 14 15  1  0
 16 10  1  0
 17 16  2  0
 18 16  1  0
 18 22  1  0
 19 18  1  0
 20 19  1  0
 20 21  1  0
 21 22  1  0
 22 23  1  1
 23 24  2  0
 23 25  1  0
M  END
$$$$
