MKP.pdb
     RDKit          3D

 25 25  0  0  1  0  0  0  0  0999 V2000
   18.9558  -12.0906  -21.7969 C   0  0  0  0  0  0  0  0  0  0  0  0
   18.6871  -13.8518  -21.5738 S   0  0  0  0  0  0  0  0  0  0  0  0
   20.2017  -14.7041  -21.0574 C   0  0  0  0  0  0  0  0  0  0  0  0
   20.6028  -14.2949  -19.6491 C   0  0  0  0  0  0  0  0  0  0  0  0
   20.0914  -15.3697  -18.6936 C   0  0  2  0  0  0  0  0  0  0  0  0
   18.9596  -14.7942  -17.9994 N   0  0  0  0  0  0  0  0  0  0  0  0
   21.1726  -15.6173  -17.7147 C   0  0  0  0  0  0  0  0  0  0  0  0
   21.3833  -14.7749  -16.8143 O   0  0  0  0  0  0  0  0  0  0  0  0
   21.9906  -16.7764  -17.7493 N   0  0  0  0  0  0  0  0  0  0  0  0
   23.0257  -17.0338  -16.7154 C   0  0  1  0  0  0  0  0  0  0  0  0
   22.7754  -18.4900  -16.3422 C   0  0  0  0  0  0  0  0  0  0  0  0
   21.6327  -18.6722  -15.4162 C   0  0  0  0  0  0  0  0  0  0  0  0
   21.4206  -20.1560  -15.0788 C   0  0  0  0  0  0  0  0  0  0  0  0
   20.1519  -20.3376  -14.2850 C   0  0  0  0  0  0  0  0  0  0  0  0
   20.0049  -21.7325  -13.9540 N   0  0  0  0  0  0  0  0  0  0  0  0
   24.3692  -16.8513  -17.3041 C   0  0  0  0  0  0  0  0  0  0  0  0
   24.5860  -17.5061  -18.3600 O   0  0  0  0  0  0  0  0  0  0  0  0
   25.3638  -16.0232  -16.7721 N   0  0  0  0  0  0  0  0  0  0  0  0
   25.0329  -14.9343  -15.8200 C   0  0  0  0  0  0  0  0  0  0  0  0
   26.1288  -15.0728  -14.8044 C   0  0  0  0  0  0  0  0  0  0  0  0
   27.2485  -15.8228  -15.4997 C   0  0  0  0  0  0  0  0  0  0  0  0
   26.7580  -15.8400  -16.9680 C   0  0  1  0  0  0  0  0  0  0  0  0
   27.5012  -16.8183  -17.7343 C   0  0  0  0  0  0  0  0  0  0  0  0
   27.4917  -18.0525  -17.6652 O   0  0  0  0  0  0  0  0  0  0  0  0
   28.3755  -16.2819  -18.7155 O   0  0  0  0  0  0  0  0  0  0  0  0
  1  2  1  0
  3  2  1  0
  4  5  1  0
  4  3  1  0
  5  6  1  1
  7  5  1  0
  7  8  2  0
  9  7  1  0
 10  9  1  0
 10 11  1  6
 11 12  1  0
 13 12  1  0
 14 13  1  0
 14 15  1  0
 16 10  1  0
 17 16  2  0
 18 16  1  0
 18 22  1  0
 19 18  1  0
 20 19  1  0
 20 21  1  0
 21 22  1  0
 22 23  1  6
 23 24  2  0
 23 25  1  0
M  END
$$$$
