MKP.pdb
     RDKit          3D

 25 25  0  0  1  0  0  0  0  0999 V2000
   27.7536  -24.5617  -19.9680 C   0  0  0  0  0  0  0  0  0  0  0  0
   26.2160  -23.8752  -19.3450 S   0  0  0  0  0  0  0  0  0  0  0  0
   26.0090  -24.1870  -17.5710 C   0  0  0  0  0  0  0  0  0  0  0  0
   27.2602  -23.7962  -16.8005 C   0  0  0  0  0  0  0  0  0  0  0  0
   27.5521  -22.3302  -17.1090 C   0  0  2  0  0  0  0  0  0  0  0  0
   28.9367  -22.2681  -17.5251 N   0  0  0  0  0  0  0  0  0  0  0  0
   27.4056  -21.5908  -15.8360 C   0  0  0  0  0  0  0  0  0  0  0  0
   28.2942  -21.7006  -14.9624 O   0  0  0  0  0  0  0  0  0  0  0  0
   26.2935  -20.7550  -15.5558 N   0  0  0  0  0  0  0  0  0  0  0  0
   26.1986  -19.9772  -14.2938 C   0  0  1  0  0  0  0  0  0  0  0  0
   25.8719  -18.5726  -14.7866 C   0  0  0  0  0  0  0  0  0  0  0  0
   27.0658  -17.8073  -15.2168 C   0  0  0  0  0  0  0  0  0  0  0  0
   26.6698  -16.4524  -15.8235 C   0  0  0  0  0  0  0  0  0  0  0  0
   27.8977  -15.6914  -16.2545 C   0  0  0  0  0  0  0  0  0  0  0  0
   27.4864  -14.4715  -16.9023 N   0  0  0  0  0  0  0  0  0  0  0  0
   25.1086  -20.5224  -13.4575 C   0  0  0  0  0  0  0  0  0  0  0  0
   24.0096  -20.6929  -14.0523 O   0  0  0  0  0  0  0  0  0  0  0  0
   25.2333  -20.8457  -12.1018 N   0  0  0  0  0  0  0  0  0  0  0  0
   26.5271  -21.2969  -11.5324 C   0  0  0  0  0  0  0  0  0  0  0  0
   26.5721  -20.5394  -10.2379 C   0  0  0  0  0  0  0  0  0  0  0  0
   25.1367  -20.1630   -9.9256 C   0  0  0  0  0  0  0  0  0  0  0  0
   24.3558  -20.9684  -10.9925 C   0  0  1  0  0  0  0  0  0  0  0  0
   22.9997  -20.4730  -11.1025 C   0  0  0  0  0  0  0  0  0  0  0  0
   22.5253  -19.6255  -11.8672 O   0  0  0  0  0  0  0  0  0  0  0  0
   22.0702  -21.0456  -10.1952 O   0  0  0  0  0  0  0  0  0  0  0  0
  1  2  1  0
  3  2  1  0
  4  5  1  0
  4  3  1  0
  5  6  1  1
  7  5  1  0
  7  8  2  0
  9  7  1  0
 10  9  1  0
 10 11  1  6
 11 12  1  0
 13 12  1  0
 14 13  1  0
 14 15  1  0
 16 10  1  0
 17 16  2  0
 18 16  1  0
 18 22  1  0
 19 18  1  0
 20 19  1  0
 20 21  1  0
 21 22  1  0
 22 23  1  6
 23 24  2  0
 23 25  1  0
M  END
$$$$
