MKP.pdb
     RDKit          3D

 25 25  0  0  1  0  0  0  0  0999 V2000
   32.0497  -21.7453   -9.7922 C   0  0  0  0  0  0  0  0  0  0  0  0
   32.5182  -22.8688  -11.1121 S   0  0  0  0  0  0  0  0  0  0  0  0
   31.7379  -22.4214  -12.6863 C   0  0  0  0  0  0  0  0  0  0  0  0
   30.5338  -21.5211  -12.4599 C   0  0  0  0  0  0  0  0  0  0  0  0
   29.8348  -21.3400  -13.8047 C   0  0  2  0  0  0  0  0  0  0  0  0
   30.7301  -20.5562  -14.6282 N   0  0  0  0  0  0  0  0  0  0  0  0
   28.6129  -20.5474  -13.5449 C   0  0  0  0  0  0  0  0  0  0  0  0
   28.7195  -19.3231  -13.3115 O   0  0  0  0  0  0  0  0  0  0  0  0
   27.3127  -21.1159  -13.5474 N   0  0  0  0  0  0  0  0  0  0  0  0
   26.1018  -20.2988  -13.2774 C   0  0  1  0  0  0  0  0  0  0  0  0
   25.6244  -19.9300  -14.6769 C   0  0  0  0  0  0  0  0  0  0  0  0
   24.3790  -19.1266  -14.6812 C   0  0  0  0  0  0  0  0  0  0  0  0
   23.8723  -18.8927  -16.1127 C   0  0  0  0  0  0  0  0  0  0  0  0
   22.6187  -18.0557  -16.0954 C   0  0  0  0  0  0  0  0  0  0  0  0
   22.1709  -17.8590  -17.4511 N   0  0  0  0  0  0  0  0  0  0  0  0
   25.1000  -21.1195  -12.5649 C   0  0  0  0  0  0  0  0  0  0  0  0
   24.5175  -21.9877  -13.2702 O   0  0  0  0  0  0  0  0  0  0  0  0
   24.7844  -20.9869  -11.2081 N   0  0  0  0  0  0  0  0  0  0  0  0
   25.8433  -20.8121  -10.1835 C   0  0  0  0  0  0  0  0  0  0  0  0
   25.2493  -19.7475   -9.3086 C   0  0  0  0  0  0  0  0  0  0  0  0
   23.7546  -19.7863   -9.5620 C   0  0  0  0  0  0  0  0  0  0  0  0
   23.6087  -21.0690  -10.4165 C   0  0  1  0  0  0  0  0  0  0  0  0
   22.3155  -21.0942  -11.0675 C   0  0  0  0  0  0  0  0  0  0  0  0
   21.9839  -20.6878  -12.1869 O   0  0  0  0  0  0  0  0  0  0  0  0
   21.2659  -21.6730  -10.3072 O   0  0  0  0  0  0  0  0  0  0  0  0
  1  2  1  0
  3  2  1  0
  4  5  1  0
  4  3  1  0
  5  6  1  6
  7  5  1  0
  7  8  2  0
  9  7  1  0
 10  9  1  0
 10 11  1  6
 11 12  1  0
 13 12  1  0
 14 13  1  0
 14 15  1  0
 16 10  1  0
 17 16  2  0
 18 16  1  0
 18 22  1  0
 19 18  1  0
 20 19  1  0
 20 21  1  0
 21 22  1  0
 22 23  1  6
 23 24  2  0
 23 25  1  0
M  END
$$$$
