MKP.pdb
     RDKit          3D

 25 25  0  0  1  0  0  0  0  0999 V2000
   28.8657  -13.9269  -14.8752 C   0  0  0  0  0  0  0  0  0  0  0  0
   27.9703  -12.5048  -15.5075 S   0  0  0  0  0  0  0  0  0  0  0  0
   26.2543  -12.9187  -15.9211 C   0  0  0  0  0  0  0  0  0  0  0  0
   25.4839  -11.6796  -16.3486 C   0  0  0  0  0  0  0  0  0  0  0  0
   24.0547  -12.1122  -16.6652 C   0  0  2  0  0  0  0  0  0  0  0  0
   24.1259  -12.9042  -17.8743 N   0  0  0  0  0  0  0  0  0  0  0  0
   23.2908  -10.8779  -16.9508 C   0  0  0  0  0  0  0  0  0  0  0  0
   23.4092  -10.3340  -18.0710 O   0  0  0  0  0  0  0  0  0  0  0  0
   22.4215  -10.2754  -16.0047 N   0  0  0  0  0  0  0  0  0  0  0  0
   21.6086   -9.0785  -16.3412 C   0  0  1  0  0  0  0  0  0  0  0  0
   20.1901   -9.5317  -16.0170 C   0  0  0  0  0  0  0  0  0  0  0  0
   19.7035  -10.6187  -16.8990 C   0  0  0  0  0  0  0  0  0  0  0  0
   18.8322  -11.6178  -16.1223 C   0  0  0  0  0  0  0  0  0  0  0  0
   18.2454  -12.6420  -17.0600 C   0  0  0  0  0  0  0  0  0  0  0  0
   17.5567  -13.6430  -16.2850 N   0  0  0  0  0  0  0  0  0  0  0  0
   22.0208   -7.9445  -15.4875 C   0  0  0  0  0  0  0  0  0  0  0  0
   22.0334   -8.1819  -14.2489 O   0  0  0  0  0  0  0  0  0  0  0  0
   22.3835   -6.6806  -15.9661 N   0  0  0  0  0  0  0  0  0  0  0  0
   22.8026   -6.4808  -17.3754 C   0  0  0  0  0  0  0  0  0  0  0  0
   22.0869   -5.2105  -17.7300 C   0  0  0  0  0  0  0  0  0  0  0  0
   21.7768   -4.5257  -16.4129 C   0  0  0  0  0  0  0  0  0  0  0  0
   22.5764   -5.3897  -15.4076 C   0  0  1  0  0  0  0  0  0  0  0  0
   22.1306   -5.1281  -14.0550 C   0  0  0  0  0  0  0  0  0  0  0  0
   22.6265   -4.4058  -13.1829 O   0  0  0  0  0  0  0  0  0  0  0  0
   20.9431   -5.8024  -13.6677 O   0  0  0  0  0  0  0  0  0  0  0  0
  1  2  1  0
  3  2  1  0
  4  5  1  0
  4  3  1  0
  5  6  1  6
  7  5  1  0
  7  8  2  0
  9  7  1  0
 10  9  1  0
 10 11  1  1
 11 12  1  0
 13 12  1  0
 14 13  1  0
 14 15  1  0
 16 10  1  0
 17 16  2  0
 18 16  1  0
 18 22  1  0
 19 18  1  0
 20 19  1  0
 20 21  1  0
 21 22  1  0
 22 23  1  1
 23 24  2  0
 23 25  1  0
M  END
$$$$
