MKP.pdb
     RDKit          3D

 25 25  0  0  1  0  0  0  0  0999 V2000
   26.9698  -18.4379   -7.2823 C   0  0  0  0  0  0  0  0  0  0  0  0
   28.3157  -19.6139   -7.1110 S   0  0  0  0  0  0  0  0  0  0  0  0
   28.3096  -20.8434   -8.4436 C   0  0  0  0  0  0  0  0  0  0  0  0
   27.3718  -20.4253   -9.5649 C   0  0  0  0  0  0  0  0  0  0  0  0
   27.4308  -21.5056  -10.6416 C   0  0  2  0  0  0  0  0  0  0  0  0
   28.7824  -21.4937  -11.1586 N   0  0  0  0  0  0  0  0  0  0  0  0
   26.5074  -21.0837  -11.7177 C   0  0  0  0  0  0  0  0  0  0  0  0
   26.8792  -20.2087  -12.5308 O   0  0  0  0  0  0  0  0  0  0  0  0
   25.2067  -21.6295  -11.8727 N   0  0  0  0  0  0  0  0  0  0  0  0
   24.3865  -21.3637  -13.0823 C   0  0  1  0  0  0  0  0  0  0  0  0
   24.2263  -22.7507  -13.6931 C   0  0  0  0  0  0  0  0  0  0  0  0
   25.2732  -23.0796  -14.6892 C   0  0  0  0  0  0  0  0  0  0  0  0
   25.0548  -24.4788  -15.2851 C   0  0  0  0  0  0  0  0  0  0  0  0
   26.0955  -24.7699  -16.3362 C   0  0  0  0  0  0  0  0  0  0  0  0
   25.9317  -26.1277  -16.7908 N   0  0  0  0  0  0  0  0  0  0  0  0
   23.0816  -20.7975  -12.6805 C   0  0  0  0  0  0  0  0  0  0  0  0
   22.5305  -21.3637  -11.6975 O   0  0  0  0  0  0  0  0  0  0  0  0
   22.4596  -19.7123  -13.3078 N   0  0  0  0  0  0  0  0  0  0  0  0
   23.2516  -18.6051  -13.8982 C   0  0  0  0  0  0  0  0  0  0  0  0
   22.5306  -18.3702  -15.1930 C   0  0  0  0  0  0  0  0  0  0  0  0
   21.1402  -18.9459  -15.0058 C   0  0  0  0  0  0  0  0  0  0  0  0
   21.1261  -19.2604  -13.4901 C   0  0  1  0  0  0  0  0  0  0  0  0
   20.0267  -20.1473  -13.1716 C   0  0  0  0  0  0  0  0  0  0  0  0
   19.8741  -21.3458  -13.4335 O   0  0  0  0  0  0  0  0  0  0  0  0
   18.9594  -19.5535  -12.4484 O   0  0  0  0  0  0  0  0  0  0  0  0
  1  2  1  0
  3  2  1  0
  4  5  1  0
  4  3  1  0
  5  6  1  6
  7  5  1  0
  7  8  2  0
  9  7  1  0
 10  9  1  0
 10 11  1  1
 11 12  1  0
 13 12  1  0
 14 13  1  0
 14 15  1  0
 16 10  1  0
 17 16  2  0
 18 16  1  0
 18 22  1  0
 19 18  1  0
 20 19  1  0
 20 21  1  0
 21 22  1  0
 22 23  1  6
 23 24  2  0
 23 25  1  0
M  END
$$$$
