MKP.pdb
     RDKit          3D

 25 25  0  0  1  0  0  0  0  0999 V2000
   27.4464  -17.6452   -6.3222 C   0  0  0  0  0  0  0  0  0  0  0  0
   28.2261  -19.2201   -6.6904 S   0  0  0  0  0  0  0  0  0  0  0  0
   27.0625  -20.3876   -7.4455 C   0  0  0  0  0  0  0  0  0  0  0  0
   26.3898  -19.7741   -8.6632 C   0  0  0  0  0  0  0  0  0  0  0  0
   25.4880  -20.8412   -9.2778 C   0  0  2  0  0  0  0  0  0  0  0  0
   26.2282  -22.0834   -9.2219 N   0  0  0  0  0  0  0  0  0  0  0  0
   25.2939  -20.4679  -10.6961 C   0  0  0  0  0  0  0  0  0  0  0  0
   25.0681  -19.2721  -10.9856 O   0  0  0  0  0  0  0  0  0  0  0  0
   25.3520  -21.4115  -11.7545 N   0  0  0  0  0  0  0  0  0  0  0  0
   25.0938  -21.0215  -13.1644 C   0  0  1  0  0  0  0  0  0  0  0  0
   25.7492  -22.1495  -13.9521 C   0  0  0  0  0  0  0  0  0  0  0  0
   25.5802  -22.0187  -15.4187 C   0  0  0  0  0  0  0  0  0  0  0  0
   26.8775  -22.3716  -16.1623 C   0  0  0  0  0  0  0  0  0  0  0  0
   26.7093  -22.1518  -17.6442 C   0  0  0  0  0  0  0  0  0  0  0  0
   27.9871  -22.3226  -18.2886 N   0  0  0  0  0  0  0  0  0  0  0  0
   23.6362  -20.9720  -13.4051 C   0  0  0  0  0  0  0  0  0  0  0  0
   22.9964  -21.9949  -13.0377 O   0  0  0  0  0  0  0  0  0  0  0  0
   22.9641  -19.8935  -13.9908 N   0  0  0  0  0  0  0  0  0  0  0  0
   23.5675  -18.5385  -14.0309 C   0  0  0  0  0  0  0  0  0  0  0  0
   23.2362  -18.0976  -15.4265 C   0  0  0  0  0  0  0  0  0  0  0  0
   22.0641  -18.9533  -15.8663 C   0  0  0  0  0  0  0  0  0  0  0  0
   21.6780  -19.6681  -14.5485 C   0  0  1  0  0  0  0  0  0  0  0  0
   20.8163  -20.7986  -14.8243 C   0  0  0  0  0  0  0  0  0  0  0  0
   21.0337  -21.8164  -15.4915 O   0  0  0  0  0  0  0  0  0  0  0  0
   19.5239  -20.7315  -14.2412 O   0  0  0  0  0  0  0  0  0  0  0  0
  1  2  1  0
  3  2  1  0
  4  5  1  0
  4  3  1  0
  5  6  1  6
  7  5  1  0
  7  8  2  0
  9  7  1  0
 10  9  1  0
 10 11  1  6
 11 12  1  0
 13 12  1  0
 14 13  1  0
 14 15  1  0
 16 10  1  0
 17 16  2  0
 18 16  1  0
 18 22  1  0
 19 18  1  0
 20 19  1  0
 20 21  1  0
 21 22  1  0
 22 23  1  6
 23 24  2  0
 23 25  1  0
M  END
$$$$
