MKP.pdb
     RDKit          3D

 25 25  0  0  1  0  0  0  0  0999 V2000
    9.9031   -8.6065  -14.9980 C   0  0  0  0  0  0  0  0  0  0  0  0
   11.2508   -9.6601  -14.4529 S   0  0  0  0  0  0  0  0  0  0  0  0
   12.8606   -8.8485  -14.6458 C   0  0  0  0  0  0  0  0  0  0  0  0
   13.9755   -9.7084  -14.0719 C   0  0  0  0  0  0  0  0  0  0  0  0
   14.4218  -10.6747  -15.1659 C   0  0  2  0  0  0  0  0  0  0  0  0
   13.8866  -11.9710  -14.8092 N   0  0  0  0  0  0  0  0  0  0  0  0
   15.8984  -10.7368  -15.1013 C   0  0  0  0  0  0  0  0  0  0  0  0
   16.4416  -11.3245  -14.1399 O   0  0  0  0  0  0  0  0  0  0  0  0
   16.7364  -10.1551  -16.0878 N   0  0  0  0  0  0  0  0  0  0  0  0
   18.2173  -10.2280  -15.9973 C   0  0  1  0  0  0  0  0  0  0  0  0
   18.6071  -10.8490  -17.3333 C   0  0  0  0  0  0  0  0  0  0  0  0
   18.3882  -12.3137  -17.3877 C   0  0  0  0  0  0  0  0  0  0  0  0
   18.8491  -12.8960  -18.7328 C   0  0  0  0  0  0  0  0  0  0  0  0
   18.4855  -14.3561  -18.8248 C   0  0  0  0  0  0  0  0  0  0  0  0
   18.9737  -14.8800  -20.0754 N   0  0  0  0  0  0  0  0  0  0  0  0
   18.7719   -8.8654  -15.8538 C   0  0  0  0  0  0  0  0  0  0  0  0
   18.3338   -8.0179  -16.6787 O   0  0  0  0  0  0  0  0  0  0  0  0
   19.7134   -8.4884  -14.8896 N   0  0  0  0  0  0  0  0  0  0  0  0
   19.8719   -9.2513  -13.6268 C   0  0  0  0  0  0  0  0  0  0  0  0
   21.3651   -9.3093  -13.4902 C   0  0  0  0  0  0  0  0  0  0  0  0
   21.9050   -8.1716  -14.3350 C   0  0  0  0  0  0  0  0  0  0  0  0
   20.6114   -7.4048  -14.7027 C   0  0  1  0  0  0  0  0  0  0  0  0
   20.8623   -6.4940  -15.8001 C   0  0  0  0  0  0  0  0  0  0  0  0
   20.9141   -5.2589  -15.8086 O   0  0  0  0  0  0  0  0  0  0  0  0
   21.0828   -7.1097  -17.0598 O   0  0  0  0  0  0  0  0  0  0  0  0
  1  2  1  0
  3  2  1  0
  4  5  1  0
  4  3  1  0
  5  6  1  1
  7  5  1  0
  7  8  2  0
  9  7  1  0
 10  9  1  0
 10 11  1  6
 11 12  1  0
 13 12  1  0
 14 13  1  0
 14 15  1  0
 16 10  1  0
 17 16  2  0
 18 16  1  0
 18 22  1  0
 19 18  1  0
 20 19  1  0
 20 21  1  0
 21 22  1  0
 22 23  1  6
 23 24  2  0
 23 25  1  0
M  END
$$$$
