MKP.pdb
     RDKit          3D

 25 25  0  0  1  0  0  0  0  0999 V2000
   19.2359  -16.9788  -12.1447 C   0  0  0  0  0  0  0  0  0  0  0  0
   18.3479  -16.9628  -13.7052 S   0  0  0  0  0  0  0  0  0  0  0  0
   19.4767  -17.0122  -15.1231 C   0  0  0  0  0  0  0  0  0  0  0  0
   20.5553  -18.0650  -14.9232 C   0  0  0  0  0  0  0  0  0  0  0  0
   21.5438  -17.9371  -16.0792 C   0  0  2  0  0  0  0  0  0  0  0  0
   20.8801  -18.4777  -17.2460 N   0  0  0  0  0  0  0  0  0  0  0  0
   22.6988  -18.8001  -15.7479 C   0  0  0  0  0  0  0  0  0  0  0  0
   22.5740  -20.0421  -15.8291 O   0  0  0  0  0  0  0  0  0  0  0  0
   23.9541  -18.2807  -15.3377 N   0  0  0  0  0  0  0  0  0  0  0  0
   25.0571  -19.1673  -14.8861 C   0  0  1  0  0  0  0  0  0  0  0  0
   26.3013  -18.4301  -15.3667 C   0  0  0  0  0  0  0  0  0  0  0  0
   27.5551  -19.1913  -15.1548 C   0  0  0  0  0  0  0  0  0  0  0  0
   27.5919  -20.4569  -16.0253 C   0  0  0  0  0  0  0  0  0  0  0  0
   28.9111  -21.1679  -15.8619 C   0  0  0  0  0  0  0  0  0  0  0  0
   28.8721  -22.3998  -16.6089 N   0  0  0  0  0  0  0  0  0  0  0  0
   25.0313  -19.2775  -13.4123 C   0  0  0  0  0  0  0  0  0  0  0  0
   25.1834  -18.1911  -12.7900 O   0  0  0  0  0  0  0  0  0  0  0  0
   24.8516  -20.4733  -12.7082 N   0  0  0  0  0  0  0  0  0  0  0  0
   24.1594  -21.6333  -13.3222 C   0  0  0  0  0  0  0  0  0  0  0  0
   25.0303  -22.7748  -12.8860 C   0  0  0  0  0  0  0  0  0  0  0  0
   25.7921  -22.2775  -11.6728 C   0  0  0  0  0  0  0  0  0  0  0  0
   25.0886  -20.9289  -11.3846 C   0  0  1  0  0  0  0  0  0  0  0  0
   25.8940  -20.1234  -10.4906 C   0  0  0  0  0  0  0  0  0  0  0  0
   26.9051  -19.4515  -10.7236 O   0  0  0  0  0  0  0  0  0  0  0  0
   25.4592  -20.0993   -9.1396 O   0  0  0  0  0  0  0  0  0  0  0  0
  1  2  1  0
  3  2  1  0
  4  5  1  0
  4  3  1  0
  5  6  1  6
  7  5  1  0
  7  8  2  0
  9  7  1  0
 10  9  1  0
 10 11  1  1
 11 12  1  0
 13 12  1  0
 14 13  1  0
 14 15  1  0
 16 10  1  0
 17 16  2  0
 18 16  1  0
 18 22  1  0
 19 18  1  0
 20 19  1  0
 20 21  1  0
 21 22  1  0
 22 23  1  1
 23 24  2  0
 23 25  1  0
M  END
$$$$
