MKP.pdb
     RDKit          3D

 25 25  0  0  1  0  0  0  0  0999 V2000
   29.2729  -18.5167   -7.9050 C   0  0  0  0  0  0  0  0  0  0  0  0
   28.3490  -19.3025   -6.5810 S   0  0  0  0  0  0  0  0  0  0  0  0
   26.6282  -19.6191   -7.0563 C   0  0  0  0  0  0  0  0  0  0  0  0
   26.5519  -20.2364   -8.4436 C   0  0  0  0  0  0  0  0  0  0  0  0
   25.0779  -20.3172   -8.8315 C   0  0  2  0  0  0  0  0  0  0  0  0
   24.4875  -21.3310   -7.9843 N   0  0  0  0  0  0  0  0  0  0  0  0
   25.0327  -20.7857  -10.2340 C   0  0  0  0  0  0  0  0  0  0  0  0
   25.4730  -21.9234  -10.5104 O   0  0  0  0  0  0  0  0  0  0  0  0
   24.5088  -19.9976  -11.2915 N   0  0  0  0  0  0  0  0  0  0  0  0
   24.3488  -20.5396  -12.6652 C   0  0  1  0  0  0  0  0  0  0  0  0
   23.1431  -19.7714  -13.1931 C   0  0  0  0  0  0  0  0  0  0  0  0
   22.0569  -20.6493  -13.6888 C   0  0  0  0  0  0  0  0  0  0  0  0
   21.1654  -21.1369  -12.5363 C   0  0  0  0  0  0  0  0  0  0  0  0
   20.1592  -22.1403  -13.0396 C   0  0  0  0  0  0  0  0  0  0  0  0
   19.3630  -22.5989  -11.9293 N   0  0  0  0  0  0  0  0  0  0  0  0
   25.5627  -20.2479  -13.4567 C   0  0  0  0  0  0  0  0  0  0  0  0
   26.0007  -19.0698  -13.3530 O   0  0  0  0  0  0  0  0  0  0  0  0
   26.2194  -21.1742  -14.2744 N   0  0  0  0  0  0  0  0  0  0  0  0
   26.4395  -22.5734  -13.8324 C   0  0  0  0  0  0  0  0  0  0  0  0
   26.1110  -23.3428  -15.0781 C   0  0  0  0  0  0  0  0  0  0  0  0
   26.2556  -22.3606  -16.2244 C   0  0  0  0  0  0  0  0  0  0  0  0
   26.8985  -21.1407  -15.5208 C   0  0  1  0  0  0  0  0  0  0  0  0
   26.7890  -19.9636  -16.3569 C   0  0  0  0  0  0  0  0  0  0  0  0
   25.8045  -19.2602  -16.6100 O   0  0  0  0  0  0  0  0  0  0  0  0
   27.9943  -19.5514  -16.9832 O   0  0  0  0  0  0  0  0  0  0  0  0
  1  2  1  0
  3  2  1  0
  4  5  1  0
  4  3  1  0
  5  6  1  1
  7  5  1  0
  7  8  2  0
  9  7  1  0
 10  9  1  0
 10 11  1  6
 11 12  1  0
 13 12  1  0
 14 13  1  0
 14 15  1  0
 16 10  1  0
 17 16  2  0
 18 16  1  0
 18 22  1  0
 19 18  1  0
 20 19  1  0
 20 21  1  0
 21 22  1  0
 22 23  1  6
 23 24  2  0
 23 25  1  0
M  END
$$$$
