MKP.pdb
     RDKit          3D

 25 25  0  0  1  0  0  0  0  0999 V2000
   29.0213  -20.1699   -4.6175 C   0  0  0  0  0  0  0  0  0  0  0  0
   28.8021  -19.1868   -6.1038 S   0  0  0  0  0  0  0  0  0  0  0  0
   27.0986  -19.2669   -6.7193 C   0  0  0  0  0  0  0  0  0  0  0  0
   26.9470  -20.3662   -7.7586 C   0  0  0  0  0  0  0  0  0  0  0  0
   25.4636  -20.4750   -8.1011 C   0  0  2  0  0  0  0  0  0  0  0  0
   24.9333  -21.5460   -7.2851 N   0  0  0  0  0  0  0  0  0  0  0  0
   25.3842  -20.8776   -9.5225 C   0  0  0  0  0  0  0  0  0  0  0  0
   25.7440  -22.0300   -9.8499 O   0  0  0  0  0  0  0  0  0  0  0  0
   24.9150  -20.0096  -10.5424 N   0  0  0  0  0  0  0  0  0  0  0  0
   24.8234  -20.4461  -11.9593 C   0  0  1  0  0  0  0  0  0  0  0  0
   23.4684  -19.9004  -12.3938 C   0  0  0  0  0  0  0  0  0  0  0  0
   23.1309  -20.2162  -13.8020 C   0  0  0  0  0  0  0  0  0  0  0  0
   22.7678  -21.6999  -13.9682 C   0  0  0  0  0  0  0  0  0  0  0  0
   22.4221  -21.9978  -15.4049 C   0  0  0  0  0  0  0  0  0  0  0  0
   22.1476  -23.4065  -15.5357 N   0  0  0  0  0  0  0  0  0  0  0  0
   25.9239  -19.8380  -12.7365 C   0  0  0  0  0  0  0  0  0  0  0  0
   26.0193  -18.5840  -12.6411 O   0  0  0  0  0  0  0  0  0  0  0  0
   26.8241  -20.5544  -13.5331 N   0  0  0  0  0  0  0  0  0  0  0  0
   27.3938  -21.8476  -13.0809 C   0  0  0  0  0  0  0  0  0  0  0  0
   27.3145  -22.6710  -14.3329 C   0  0  0  0  0  0  0  0  0  0  0  0
   27.2259  -21.6805  -15.4778 C   0  0  0  0  0  0  0  0  0  0  0  0
   27.5041  -20.3372  -14.7603 C   0  0  1  0  0  0  0  0  0  0  0  0
   27.1106  -19.2271  -15.6026 C   0  0  0  0  0  0  0  0  0  0  0  0
   27.7557  -18.2341  -15.9575 O   0  0  0  0  0  0  0  0  0  0  0  0
   25.7817  -19.2843  -16.0983 O   0  0  0  0  0  0  0  0  0  0  0  0
  1  2  1  0
  3  2  1  0
  4  5  1  0
  4  3  1  0
  5  6  1  1
  7  5  1  0
  7  8  2  0
  9  7  1  0
 10  9  1  0
 10 11  1  6
 11 12  1  0
 13 12  1  0
 14 13  1  0
 14 15  1  0
 16 10  1  0
 17 16  2  0
 18 16  1  0
 18 22  1  0
 19 18  1  0
 20 19  1  0
 20 21  1  0
 21 22  1  0
 22 23  1  6
 23 24  2  0
 23 25  1  0
M  END
$$$$
