HCW.pdb
     RDKit          3D

 31 33  0  0  1  0  0  0  0  0999 V2000
   10.5148  -17.9911   17.4854 N   0  0  0  0  0  0  0  0  0  0  0  0
   11.1622  -17.9602   18.7698 C   0  0  1  0  0  0  0  0  0  0  0  0
   12.4343  -17.1574   18.6517 C   0  0  0  0  0  0  0  0  0  0  0  0
   13.4616  -17.8464   17.8473 C   0  0  0  0  0  0  0  0  0  0  0  0
   14.0352  -19.0433   18.2150 C   0  0  0  0  0  0  0  0  0  0  0  0
   14.9206  -19.3989   17.2796 N   0  0  0  0  0  0  0  0  0  0  0  0
   14.9003  -18.4429   16.3466 C   0  0  0  0  0  0  0  0  0  0  0  0
   14.0186  -17.4992   16.6838 N   0  0  0  0  0  0  0  0  0  0  0  0
   10.2689  -17.4688   19.8425 C   0  0  0  0  0  0  0  0  0  0  0  0
    9.6739  -16.3673   19.7227 O   0  0  0  0  0  0  0  0  0  0  0  0
   10.0355  -18.1988   21.0471 N   0  0  0  0  0  0  0  0  0  0  0  0
    9.2275  -17.7490   22.1300 C   0  0  1  0  0  0  0  0  0  0  0  0
    8.1087  -18.7160   22.4745 C   0  0  0  0  0  0  0  0  0  0  0  0
    8.7414  -20.2014   23.2778 S   0  0  0  0  0  0  0  0  0  0  0  0
   10.0004  -17.5062   23.3757 C   0  0  0  0  0  0  0  0  0  0  0  0
   11.0769  -18.1278   23.5762 O   0  0  0  0  0  0  0  0  0  0  0  0
    9.5778  -16.5910   24.3705 N   0  0  0  0  0  0  0  0  0  0  0  0
   10.2824  -16.3636   25.6227 C   0  0  1  0  0  0  0  0  0  0  0  0
    9.9994  -14.9642   26.1344 C   0  0  0  0  0  0  0  0  0  0  0  0
    8.5417  -14.6912   26.0816 C   0  0  0  0  0  0  0  0  0  0  0  0
    7.5333  -15.6152   25.9860 C   0  0  0  0  0  0  0  0  0  0  0  0
    6.3672  -14.9628   25.9643 N   0  0  0  0  0  0  0  0  0  0  0  0
    6.5537  -13.6192   26.0427 C   0  0  0  0  0  0  0  0  0  0  0  0
    5.6903  -12.5482   26.0569 C   0  0  0  0  0  0  0  0  0  0  0  0
    6.1935  -11.2744   26.1464 C   0  0  0  0  0  0  0  0  0  0  0  0
    7.5662  -11.1260   26.2191 C   0  0  0  0  0  0  0  0  0  0  0  0
    8.4523  -12.1785   26.2070 C   0  0  0  0  0  0  0  0  0  0  0  0
    7.9194  -13.4479   26.1163 C   0  0  0  0  0  0  0  0  0  0  0  0
    9.7512  -17.3257   26.6150 C   0  0  0  0  0  0  0  0  0  0  0  0
   10.3967  -17.5714   27.8119 O   0  0  0  0  0  0  0  0  0  0  0  0
    8.6874  -17.9415   26.3755 O   0  0  0  0  0  0  0  0  0  0  0  0
  2  1  1  6
  2  9  1  0
  2  3  1  0
  3  4  1  0
  4  8  1  0
  5  6  1  0
  5  4  2  0
  6  7  1  0
  7  8  2  0
  9 10  2  0
 11 12  1  0
 11  9  1  0
 12 15  1  0
 12 13  1  1
 14 13  1  0
 15 17  1  0
 16 15  2  0
 17 18  1  0
 18 19  1  1
 19 20  1  0
 20 28  1  0
 20 21  2  0
 21 22  1  0
 23 22  1  0
 23 24  2  0
 25 24  1  0
 26 25  2  0
 27 28  2  0
 27 26  1  0
 28 23  1  0
 29 30  1  0
 29 18  1  0
 31 29  2  0
M  END
$$$$
