HCW.pdb
     RDKit          3D

 31 33  0  0  1  0  0  0  0  0999 V2000
    9.8012  -15.1392   19.5394 N   0  0  0  0  0  0  0  0  0  0  0  0
    8.5540  -14.7921   20.1670 C   0  0  1  0  0  0  0  0  0  0  0  0
    7.4421  -14.9619   19.1613 C   0  0  0  0  0  0  0  0  0  0  0  0
    7.7583  -14.3372   17.8625 C   0  0  0  0  0  0  0  0  0  0  0  0
    8.2707  -13.0649   17.7383 C   0  0  0  0  0  0  0  0  0  0  0  0
    8.4456  -12.7987   16.4406 N   0  0  0  0  0  0  0  0  0  0  0  0
    8.0501  -13.8832   15.7681 C   0  0  0  0  0  0  0  0  0  0  0  0
    7.6325  -14.8192   16.6230 N   0  0  0  0  0  0  0  0  0  0  0  0
    8.3197  -15.5483   21.4173 C   0  0  0  0  0  0  0  0  0  0  0  0
    7.2294  -15.4387   22.0345 O   0  0  0  0  0  0  0  0  0  0  0  0
    9.2940  -16.4257   21.9827 N   0  0  0  0  0  0  0  0  0  0  0  0
    9.1282  -17.1574   23.1929 C   0  0  1  0  0  0  0  0  0  0  0  0
    9.7022  -18.5613   23.1185 C   0  0  0  0  0  0  0  0  0  0  0  0
   11.3773  -18.5569   22.4509 S   0  0  0  0  0  0  0  0  0  0  0  0
    9.7439  -16.4906   24.3694 C   0  0  0  0  0  0  0  0  0  0  0  0
   10.7191  -15.7105   24.2081 O   0  0  0  0  0  0  0  0  0  0  0  0
    9.2790  -16.6926   25.6919 N   0  0  0  0  0  0  0  0  0  0  0  0
    9.9879  -16.2506   26.8827 C   0  0  1  0  0  0  0  0  0  0  0  0
    9.0589  -15.4526   27.7775 C   0  0  0  0  0  0  0  0  0  0  0  0
    7.9226  -14.9232   26.9833 C   0  0  0  0  0  0  0  0  0  0  0  0
    6.9009  -15.6460   26.4236 C   0  0  0  0  0  0  0  0  0  0  0  0
    6.0850  -14.7981   25.7902 N   0  0  0  0  0  0  0  0  0  0  0  0
    6.5232  -13.5169   25.9032 C   0  0  0  0  0  0  0  0  0  0  0  0
    6.0441  -12.3137   25.4389 C   0  0  0  0  0  0  0  0  0  0  0  0
    6.7268  -11.1578   25.7246 C   0  0  0  0  0  0  0  0  0  0  0  0
    7.8820  -11.2594   26.4774 C   0  0  0  0  0  0  0  0  0  0  0  0
    8.3835  -12.4485   26.9544 C   0  0  0  0  0  0  0  0  0  0  0  0
    7.6775  -13.5948   26.6525 C   0  0  0  0  0  0  0  0  0  0  0  0
   10.4072  -17.4599   27.6273 C   0  0  0  0  0  0  0  0  0  0  0  0
   11.2278  -17.3864   28.7368 O   0  0  0  0  0  0  0  0  0  0  0  0
   10.0143  -18.5881   27.2517 O   0  0  0  0  0  0  0  0  0  0  0  0
  2  1  1  6
  2  9  1  0
  2  3  1  0
  3  4  1  0
  4  8  1  0
  5  6  1  0
  5  4  2  0
  6  7  1  0
  7  8  2  0
  9 10  2  0
 11 12  1  0
 11  9  1  0
 12 15  1  0
 12 13  1  6
 14 13  1  0
 15 17  1  0
 16 15  2  0
 17 18  1  0
 18 19  1  1
 19 20  1  0
 20 28  1  0
 20 21  2  0
 21 22  1  0
 23 22  1  0
 23 24  2  0
 25 24  1  0
 26 25  2  0
 27 28  2  0
 27 26  1  0
 28 23  1  0
 29 30  1  0
 29 18  1  0
 31 29  2  0
M  END
$$$$
