HCW.pdb
     RDKit          3D

 31 33  0  0  1  0  0  0  0  0999 V2000
    9.4359  -16.5536   17.8439 N   0  0  0  0  0  0  0  0  0  0  0  0
    8.5850  -15.6175   18.5293 C   0  0  1  0  0  0  0  0  0  0  0  0
    7.3573  -15.3726   17.6870 C   0  0  0  0  0  0  0  0  0  0  0  0
    7.6865  -14.8102   16.3632 C   0  0  0  0  0  0  0  0  0  0  0  0
    7.9102  -13.4691   16.1440 C   0  0  0  0  0  0  0  0  0  0  0  0
    8.1836  -13.2869   14.8488 N   0  0  0  0  0  0  0  0  0  0  0  0
    8.1315  -14.4903   14.2710 C   0  0  0  0  0  0  0  0  0  0  0  0
    7.8309  -15.4179   15.1824 N   0  0  0  0  0  0  0  0  0  0  0  0
    8.2611  -16.0504   19.9069 C   0  0  0  0  0  0  0  0  0  0  0  0
    7.4641  -15.3830   20.6147 O   0  0  0  0  0  0  0  0  0  0  0  0
    8.8207  -17.2230   20.4990 N   0  0  0  0  0  0  0  0  0  0  0  0
    8.5775  -17.6588   21.8326 C   0  0  1  0  0  0  0  0  0  0  0  0
    8.4992  -19.1703   21.9557 C   0  0  0  0  0  0  0  0  0  0  0  0
   10.0832  -19.9477   21.5836 S   0  0  0  0  0  0  0  0  0  0  0  0
    9.6048  -17.1899   22.7983 C   0  0  0  0  0  0  0  0  0  0  0  0
   10.8176  -17.1657   22.4604 O   0  0  0  0  0  0  0  0  0  0  0  0
    9.2816  -16.7594   24.1083 N   0  0  0  0  0  0  0  0  0  0  0  0
   10.2675  -16.4401   25.1291 C   0  0  1  0  0  0  0  0  0  0  0  0
   10.0330  -15.0394   25.6617 C   0  0  0  0  0  0  0  0  0  0  0  0
    8.5767  -14.7823   25.7852 C   0  0  0  0  0  0  0  0  0  0  0  0
    7.5713  -15.7142   25.7703 C   0  0  0  0  0  0  0  0  0  0  0  0
    6.4052  -15.0756   25.9058 N   0  0  0  0  0  0  0  0  0  0  0  0
    6.5890  -13.7335   26.0126 C   0  0  0  0  0  0  0  0  0  0  0  0
    5.7244  -12.6743   26.1650 C   0  0  0  0  0  0  0  0  0  0  0  0
    6.2246  -11.3986   26.2442 C   0  0  0  0  0  0  0  0  0  0  0  0
    7.5954  -11.2364   26.1659 C   0  0  0  0  0  0  0  0  0  0  0  0
    8.4825  -12.2771   26.0137 C   0  0  0  0  0  0  0  0  0  0  0  0
    7.9527  -13.5486   25.9368 C   0  0  0  0  0  0  0  0  0  0  0  0
   10.0745  -17.3895   26.2488 C   0  0  0  0  0  0  0  0  0  0  0  0
   11.0074  -17.5268   27.2590 O   0  0  0  0  0  0  0  0  0  0  0  0
    9.0406  -18.0947   26.2942 O   0  0  0  0  0  0  0  0  0  0  0  0
  2  1  1  6
  2  9  1  0
  2  3  1  0
  3  4  1  0
  4  8  1  0
  5  6  1  0
  5  4  2  0
  6  7  1  0
  7  8  2  0
  9 10  2  0
 11 12  1  0
 11  9  1  0
 12 15  1  0
 12 13  1  6
 14 13  1  0
 15 17  1  0
 16 15  2  0
 17 18  1  0
 18 19  1  1
 19 20  1  0
 20 28  1  0
 20 21  2  0
 21 22  1  0
 23 22  1  0
 23 24  2  0
 25 24  1  0
 26 25  2  0
 27 28  2  0
 27 26  1  0
 28 23  1  0
 29 30  1  0
 29 18  1  0
 31 29  2  0
M  END
$$$$
