HCW.pdb
     RDKit          3D

 31 33  0  0  1  0  0  0  0  0999 V2000
    8.3974  -17.5286   18.9815 N   0  0  0  0  0  0  0  0  0  0  0  0
    9.0674  -16.7732   20.0064 C   0  0  1  0  0  0  0  0  0  0  0  0
    8.1277  -15.7082   20.5155 C   0  0  0  0  0  0  0  0  0  0  0  0
    8.1199  -14.5081   19.6572 C   0  0  0  0  0  0  0  0  0  0  0  0
    8.9501  -14.3485   18.5700 C   0  0  0  0  0  0  0  0  0  0  0  0
    8.6964  -13.1631   18.0080 N   0  0  0  0  0  0  0  0  0  0  0  0
    7.7271  -12.5939   18.7300 C   0  0  0  0  0  0  0  0  0  0  0  0
    7.3729  -13.4030   19.7308 N   0  0  0  0  0  0  0  0  0  0  0  0
    9.6017  -17.6333   21.0858 C   0  0  0  0  0  0  0  0  0  0  0  0
    9.0153  -18.7004   21.4006 O   0  0  0  0  0  0  0  0  0  0  0  0
   10.7857  -17.3101   21.8153 N   0  0  0  0  0  0  0  0  0  0  0  0
   11.3328  -18.0937   22.8710 C   0  0  1  0  0  0  0  0  0  0  0  0
   12.5295  -18.9204   22.4348 C   0  0  0  0  0  0  0  0  0  0  0  0
   12.2111  -19.7766   20.8799 S   0  0  0  0  0  0  0  0  0  0  0  0
   11.7590  -17.2833   24.0413 C   0  0  0  0  0  0  0  0  0  0  0  0
   12.5099  -16.2866   23.8731 O   0  0  0  0  0  0  0  0  0  0  0  0
   11.3545  -17.5822   25.3653 N   0  0  0  0  0  0  0  0  0  0  0  0
   10.8543  -16.5943   26.3086 C   0  0  1  0  0  0  0  0  0  0  0  0
    9.6542  -15.8745   25.7236 C   0  0  0  0  0  0  0  0  0  0  0  0
    9.1546  -14.8603   26.6847 C   0  0  0  0  0  0  0  0  0  0  0  0
    9.5723  -14.6736   27.9771 C   0  0  0  0  0  0  0  0  0  0  0  0
    8.8733  -13.6628   28.5022 N   0  0  0  0  0  0  0  0  0  0  0  0
    7.9904  -13.1558   27.6024 C   0  0  0  0  0  0  0  0  0  0  0  0
    7.0688  -12.1359   27.6599 C   0  0  0  0  0  0  0  0  0  0  0  0
    6.3018  -11.8539   26.5572 C   0  0  0  0  0  0  0  0  0  0  0  0
    6.4951  -12.6205   25.4230 C   0  0  0  0  0  0  0  0  0  0  0  0
    7.4090  -13.6455   25.3376 C   0  0  0  0  0  0  0  0  0  0  0  0
    8.1665  -13.9075   26.4606 C   0  0  0  0  0  0  0  0  0  0  0  0
   10.4031  -17.3200   27.5178 C   0  0  0  0  0  0  0  0  0  0  0  0
   10.5574  -16.7929   28.7859 O   0  0  0  0  0  0  0  0  0  0  0  0
    9.8647  -18.4448   27.4027 O   0  0  0  0  0  0  0  0  0  0  0  0
  2  1  1  6
  2  9  1  0
  2  3  1  0
  3  4  1  0
  4  8  1  0
  5  6  1  0
  5  4  2  0
  6  7  1  0
  7  8  2  0
  9 10  2  0
 11 12  1  0
 11  9  1  0
 12 15  1  0
 12 13  1  6
 14 13  1  0
 15 17  1  0
 16 15  2  0
 17 18  1  0
 18 19  1  6
 19 20  1  0
 20 28  1  0
 20 21  2  0
 21 22  1  0
 23 22  1  0
 23 24  2  0
 25 24  1  0
 26 25  2  0
 27 28  2  0
 27 26  1  0
 28 23  1  0
 29 30  1  0
 29 18  1  0
 31 29  2  0
M  END
$$$$
