HCW.pdb
     RDKit          3D

 31 33  0  0  1  0  0  0  0  0999 V2000
    8.9933  -17.5598   17.0579 N   0  0  0  0  0  0  0  0  0  0  0  0
    9.8887  -17.4057   18.1734 C   0  0  1  0  0  0  0  0  0  0  0  0
   10.9842  -16.4433   17.7858 C   0  0  0  0  0  0  0  0  0  0  0  0
   11.8857  -17.0010   16.7595 C   0  0  0  0  0  0  0  0  0  0  0  0
   12.9357  -17.8435   17.0502 C   0  0  0  0  0  0  0  0  0  0  0  0
   13.5515  -18.1691   15.9100 N   0  0  0  0  0  0  0  0  0  0  0  0
   12.8991  -17.5422   14.9270 C   0  0  0  0  0  0  0  0  0  0  0  0
   11.8887  -16.8328   15.4342 N   0  0  0  0  0  0  0  0  0  0  0  0
    9.1853  -17.0082   19.4133 C   0  0  0  0  0  0  0  0  0  0  0  0
    8.3928  -16.0317   19.4121 O   0  0  0  0  0  0  0  0  0  0  0  0
    9.3606  -17.6935   20.6535 N   0  0  0  0  0  0  0  0  0  0  0  0
    8.6930  -17.3659   21.8679 C   0  0  1  0  0  0  0  0  0  0  0  0
    7.6148  -18.3687   22.2389 C   0  0  0  0  0  0  0  0  0  0  0  0
    7.0174  -19.2641   20.7921 S   0  0  0  0  0  0  0  0  0  0  0  0
    9.6122  -17.2559   23.0301 C   0  0  0  0  0  0  0  0  0  0  0  0
   10.6222  -18.0044   23.1032 O   0  0  0  0  0  0  0  0  0  0  0  0
    9.4051  -16.3314   24.0829 N   0  0  0  0  0  0  0  0  0  0  0  0
   10.2911  -16.1858   25.2274 C   0  0  1  0  0  0  0  0  0  0  0  0
    9.9253  -14.9430   26.0161 C   0  0  0  0  0  0  0  0  0  0  0  0
    8.4498  -14.7945   26.0709 C   0  0  0  0  0  0  0  0  0  0  0  0
    7.5197  -15.8018   26.0711 C   0  0  0  0  0  0  0  0  0  0  0  0
    6.3038  -15.2502   26.1273 N   0  0  0  0  0  0  0  0  0  0  0  0
    6.3802  -13.8941   26.1653 C   0  0  0  0  0  0  0  0  0  0  0  0
    5.4319  -12.8992   26.2258 C   0  0  0  0  0  0  0  0  0  0  0  0
    5.8298  -11.5859   26.2519 C   0  0  0  0  0  0  0  0  0  0  0  0
    7.1863  -11.3212   26.2154 C   0  0  0  0  0  0  0  0  0  0  0  0
    8.1556  -12.2958   26.1549 C   0  0  0  0  0  0  0  0  0  0  0  0
    7.7279  -13.6072   26.1299 C   0  0  0  0  0  0  0  0  0  0  0  0
   10.0817  -17.3589   26.1062 C   0  0  0  0  0  0  0  0  0  0  0  0
   10.9777  -17.6931   27.1038 O   0  0  0  0  0  0  0  0  0  0  0  0
    9.0679  -18.0776   25.9521 O   0  0  0  0  0  0  0  0  0  0  0  0
  2  1  1  6
  2  9  1  0
  2  3  1  0
  3  4  1  0
  4  8  1  0
  5  6  1  0
  5  4  2  0
  6  7  1  0
  7  8  2  0
  9 10  2  0
 11 12  1  0
 11  9  1  0
 12 15  1  0
 12 13  1  1
 14 13  1  0
 15 17  1  0
 16 15  2  0
 17 18  1  0
 18 19  1  1
 19 20  1  0
 20 28  1  0
 20 21  2  0
 21 22  1  0
 23 22  1  0
 23 24  2  0
 25 24  1  0
 26 25  2  0
 27 28  2  0
 27 26  1  0
 28 23  1  0
 29 30  1  0
 29 18  1  0
 31 29  2  0
M  END
$$$$
