HCW.pdb
     RDKit          3D

 31 33  0  0  1  0  0  0  0  0999 V2000
    8.7184  -20.2689   19.7099 N   0  0  0  0  0  0  0  0  0  0  0  0
    8.3082  -19.5169   20.8659 C   0  0  1  0  0  0  0  0  0  0  0  0
    8.6219  -20.3214   22.1032 C   0  0  0  0  0  0  0  0  0  0  0  0
    7.7552  -21.5079   22.2373 C   0  0  0  0  0  0  0  0  0  0  0  0
    6.4251  -21.5189   21.8804 C   0  0  0  0  0  0  0  0  0  0  0  0
    5.9271  -22.7350   22.1223 N   0  0  0  0  0  0  0  0  0  0  0  0
    6.9263  -23.4685   22.6206 C   0  0  0  0  0  0  0  0  0  0  0  0
    8.0369  -22.7316   22.6931 N   0  0  0  0  0  0  0  0  0  0  0  0
    8.8976  -18.1598   20.8968 C   0  0  0  0  0  0  0  0  0  0  0  0
   10.0958  -17.9767   20.5613 O   0  0  0  0  0  0  0  0  0  0  0  0
    8.1585  -17.0065   21.2995 N   0  0  0  0  0  0  0  0  0  0  0  0
    8.7054  -15.7011   21.4569 C   0  0  1  0  0  0  0  0  0  0  0  0
    7.6804  -14.6011   21.2443 C   0  0  0  0  0  0  0  0  0  0  0  0
    6.1156  -14.9891   22.0522 S   0  0  0  0  0  0  0  0  0  0  0  0
    9.3192  -15.4805   22.7919 C   0  0  0  0  0  0  0  0  0  0  0  0
    9.9465  -14.4138   23.0245 O   0  0  0  0  0  0  0  0  0  0  0  0
    9.2325  -16.4305   23.8388 N   0  0  0  0  0  0  0  0  0  0  0  0
    9.8768  -16.2788   25.1342 C   0  0  1  0  0  0  0  0  0  0  0  0
    8.8603  -16.4519   26.2465 C   0  0  0  0  0  0  0  0  0  0  0  0
    7.7134  -15.5352   26.0311 C   0  0  0  0  0  0  0  0  0  0  0  0
    6.4692  -15.8684   25.5614 C   0  0  0  0  0  0  0  0  0  0  0  0
    5.7281  -14.7574   25.5119 N   0  0  0  0  0  0  0  0  0  0  0  0
    6.4338  -13.6762   25.9353 C   0  0  0  0  0  0  0  0  0  0  0  0
    6.1235  -12.3424   26.0672 C   0  0  0  0  0  0  0  0  0  0  0  0
    7.0739  -11.4695   26.5346 C   0  0  0  0  0  0  0  0  0  0  0  0
    8.3179  -11.9805   26.8556 C   0  0  0  0  0  0  0  0  0  0  0  0
    8.6552  -13.3089   26.7337 C   0  0  0  0  0  0  0  0  0  0  0  0
    7.6809  -14.1641   26.2615 C   0  0  0  0  0  0  0  0  0  0  0  0
   10.8796  -17.3604   25.2634 C   0  0  0  0  0  0  0  0  0  0  0  0
   11.7705  -17.4080   26.3188 O   0  0  0  0  0  0  0  0  0  0  0  0
   10.9332  -18.2646   24.3986 O   0  0  0  0  0  0  0  0  0  0  0  0
  2  1  1  6
  2  9  1  0
  2  3  1  0
  3  4  1  0
  4  8  1  0
  5  6  1  0
  5  4  2  0
  6  7  1  0
  7  8  2  0
  9 10  2  0
 11 12  1  0
 11  9  1  0
 12 15  1  0
 12 13  1  1
 14 13  1  0
 15 17  1  0
 16 15  2  0
 17 18  1  0
 18 19  1  1
 19 20  1  0
 20 28  1  0
 20 21  2  0
 21 22  1  0
 23 22  1  0
 23 24  2  0
 25 24  1  0
 26 25  2  0
 27 28  2  0
 27 26  1  0
 28 23  1  0
 29 30  1  0
 29 18  1  0
 31 29  2  0
M  END
$$$$
