HCW.pdb
     RDKit          3D

 31 33  0  0  1  0  0  0  0  0999 V2000
    8.6495  -18.5443   17.5208 N   0  0  0  0  0  0  0  0  0  0  0  0
    9.4897  -17.7806   18.4043 C   0  0  1  0  0  0  0  0  0  0  0  0
    9.9671  -16.5493   17.6746 C   0  0  0  0  0  0  0  0  0  0  0  0
   10.8516  -16.8756   16.5396 C   0  0  0  0  0  0  0  0  0  0  0  0
   12.2173  -17.0089   16.6571 C   0  0  0  0  0  0  0  0  0  0  0  0
   12.7231  -17.3061   15.4566 N   0  0  0  0  0  0  0  0  0  0  0  0
   11.6937  -17.3572   14.6065 C   0  0  0  0  0  0  0  0  0  0  0  0
   10.5567  -17.0975   15.2557 N   0  0  0  0  0  0  0  0  0  0  0  0
    8.8240  -17.4671   19.6883 C   0  0  0  0  0  0  0  0  0  0  0  0
    7.8473  -16.6755   19.7241 O   0  0  0  0  0  0  0  0  0  0  0  0
    9.2412  -18.0312   20.9318 N   0  0  0  0  0  0  0  0  0  0  0  0
    8.6323  -17.7683   22.1920 C   0  0  1  0  0  0  0  0  0  0  0  0
    7.7667  -18.9158   22.6814 C   0  0  0  0  0  0  0  0  0  0  0  0
    8.6564  -20.4836   22.6328 S   0  0  0  0  0  0  0  0  0  0  0  0
    9.6147  -17.4674   23.2654 C   0  0  0  0  0  0  0  0  0  0  0  0
   10.7914  -17.9072   23.1790 O   0  0  0  0  0  0  0  0  0  0  0  0
    9.2870  -16.6939   24.4058 N   0  0  0  0  0  0  0  0  0  0  0  0
   10.2252  -16.3693   25.4690 C   0  0  1  0  0  0  0  0  0  0  0  0
    9.9187  -14.9957   26.0344 C   0  0  0  0  0  0  0  0  0  0  0  0
    8.4514  -14.7762   26.0634 C   0  0  0  0  0  0  0  0  0  0  0  0
    7.4743  -15.7380   26.0663 C   0  0  0  0  0  0  0  0  0  0  0  0
    6.2855  -15.1282   26.0937 N   0  0  0  0  0  0  0  0  0  0  0  0
    6.4261  -13.7768   26.1096 C   0  0  0  0  0  0  0  0  0  0  0  0
    5.5258  -12.7370   26.1379 C   0  0  0  0  0  0  0  0  0  0  0  0
    5.9855  -11.4438   26.1476 C   0  0  0  0  0  0  0  0  0  0  0  0
    7.3536  -11.2447   26.1279 C   0  0  0  0  0  0  0  0  0  0  0  0
    8.2760  -12.2653   26.0996 C   0  0  0  0  0  0  0  0  0  0  0  0
    7.7864  -13.5551   26.0904 C   0  0  0  0  0  0  0  0  0  0  0  0
   10.0319  -17.3596   26.5527 C   0  0  0  0  0  0  0  0  0  0  0  0
   10.9274  -17.4823   27.5981 O   0  0  0  0  0  0  0  0  0  0  0  0
    9.0326  -18.1141   26.5339 O   0  0  0  0  0  0  0  0  0  0  0  0
  2  1  1  6
  2  9  1  0
  2  3  1  0
  3  4  1  0
  4  8  1  0
  5  6  1  0
  5  4  2  0
  6  7  1  0
  7  8  2  0
  9 10  2  0
 11 12  1  0
 11  9  1  0
 12 15  1  0
 12 13  1  1
 14 13  1  0
 15 17  1  0
 16 15  2  0
 17 18  1  0
 18 19  1  1
 19 20  1  0
 20 28  1  0
 20 21  2  0
 21 22  1  0
 23 22  1  0
 23 24  2  0
 25 24  1  0
 26 25  2  0
 27 28  2  0
 27 26  1  0
 28 23  1  0
 29 30  1  0
 29 18  1  0
 31 29  2  0
M  END
$$$$
