HCW.pdb
     RDKit          3D

 31 33  0  0  1  0  0  0  0  0999 V2000
    7.9059  -18.5013   17.2232 N   0  0  0  0  0  0  0  0  0  0  0  0
    8.2291  -17.2657   17.8856 C   0  0  1  0  0  0  0  0  0  0  0  0
    7.7181  -16.1192   17.0484 C   0  0  0  0  0  0  0  0  0  0  0  0
    8.3980  -16.0300   15.7420 C   0  0  0  0  0  0  0  0  0  0  0  0
    9.5723  -15.3382   15.5446 C   0  0  0  0  0  0  0  0  0  0  0  0
    9.9253  -15.4515   14.2608 N   0  0  0  0  0  0  0  0  0  0  0  0
    8.9899  -16.1991   13.6686 C   0  0  0  0  0  0  0  0  0  0  0  0
    8.0615  -16.5532   14.5598 N   0  0  0  0  0  0  0  0  0  0  0  0
    7.7355  -17.2250   19.2802 C   0  0  0  0  0  0  0  0  0  0  0  0
    6.5010  -17.2044   19.5197 O   0  0  0  0  0  0  0  0  0  0  0  0
    8.6105  -17.2072   20.4083 N   0  0  0  0  0  0  0  0  0  0  0  0
    8.1906  -17.2735   21.7674 C   0  0  1  0  0  0  0  0  0  0  0  0
    7.5509  -18.6035   22.1244 C   0  0  0  0  0  0  0  0  0  0  0  0
    8.6562  -19.9848   21.7748 S   0  0  0  0  0  0  0  0  0  0  0  0
    9.2955  -17.0416   22.7335 C   0  0  0  0  0  0  0  0  0  0  0  0
   10.4419  -17.5060   22.4974 O   0  0  0  0  0  0  0  0  0  0  0  0
    9.1203  -16.3087   23.9326 N   0  0  0  0  0  0  0  0  0  0  0  0
   10.1702  -16.0876   24.9149 C   0  0  1  0  0  0  0  0  0  0  0  0
    9.7837  -14.9547   25.8464 C   0  0  0  0  0  0  0  0  0  0  0  0
    8.3064  -14.8238   25.8981 C   0  0  0  0  0  0  0  0  0  0  0  0
    7.3854  -15.8336   25.7894 C   0  0  0  0  0  0  0  0  0  0  0  0
    6.1641  -15.2995   25.8847 N   0  0  0  0  0  0  0  0  0  0  0  0
    6.2280  -13.9530   26.0553 C   0  0  0  0  0  0  0  0  0  0  0  0
    5.2703  -12.9762   26.2012 C   0  0  0  0  0  0  0  0  0  0  0  0
    5.6561  -11.6685   26.3595 C   0  0  0  0  0  0  0  0  0  0  0  0
    7.0106  -11.3910   26.3649 C   0  0  0  0  0  0  0  0  0  0  0  0
    7.9892  -12.3475   26.2213 C   0  0  0  0  0  0  0  0  0  0  0  0
    7.5734  -13.6535   26.0638 C   0  0  0  0  0  0  0  0  0  0  0  0
   10.2900  -17.3208   25.7256 C   0  0  0  0  0  0  0  0  0  0  0  0
   11.3803  -17.5552   26.5418 O   0  0  0  0  0  0  0  0  0  0  0  0
    9.3846  -18.1848   25.6799 O   0  0  0  0  0  0  0  0  0  0  0  0
  2  1  1  6
  2  9  1  0
  2  3  1  0
  3  4  1  0
  4  8  1  0
  5  6  1  0
  5  4  2  0
  6  7  1  0
  7  8  2  0
  9 10  2  0
 11 12  1  0
 11  9  1  0
 12 15  1  0
 12 13  1  1
 14 13  1  0
 15 17  1  0
 16 15  2  0
 17 18  1  0
 18 19  1  1
 19 20  1  0
 20 28  1  0
 20 21  2  0
 21 22  1  0
 23 22  1  0
 23 24  2  0
 25 24  1  0
 26 25  2  0
 27 28  2  0
 27 26  1  0
 28 23  1  0
 29 30  1  0
 29 18  1  0
 31 29  2  0
M  END
$$$$
