MKR.pdb
     RDKit          3D

 29 28  0  0  1  0  0  0  0  0999 V2000
   27.0189  -19.2947  -20.4735 C   0  0  0  0  0  0  0  0  0  0  0  0
   25.4136  -18.7215  -19.8605 S   0  0  0  0  0  0  0  0  0  0  0  0
   24.2276  -20.1182  -19.9291 C   0  0  0  0  0  0  0  0  0  0  0  0
   22.8927  -19.6513  -19.4524 C   0  0  0  0  0  0  0  0  0  0  0  0
   22.8854  -19.2321  -18.0102 C   0  0  2  0  0  0  0  0  0  0  0  0
   23.2190  -20.2587  -17.0761 N   0  0  0  0  0  0  0  0  0  0  0  0
   21.6110  -18.5977  -17.6065 C   0  0  0  0  0  0  0  0  0  0  0  0
   20.5468  -18.7612  -18.2636 O   0  0  0  0  0  0  0  0  0  0  0  0
   21.5921  -17.7837  -16.4481 N   0  0  0  0  0  0  0  0  0  0  0  0
   20.4095  -17.0968  -15.9816 C   0  0  1  0  0  0  0  0  0  0  0  0
   20.3361  -17.2525  -14.4786 C   0  0  0  0  0  0  0  0  0  0  0  0
   19.8015  -18.5799  -14.0583 C   0  0  0  0  0  0  0  0  0  0  0  0
   19.6774  -18.6365  -12.5600 C   0  0  0  0  0  0  0  0  0  0  0  0
   19.1651  -19.9358  -12.0290 C   0  0  0  0  0  0  0  0  0  0  0  0
   19.0672  -19.8550  -10.5634 N   0  0  0  0  0  0  0  0  0  0  0  0
   20.4301  -15.6577  -16.3718 C   0  0  0  0  0  0  0  0  0  0  0  0
   21.4983  -15.0135  -16.2544 O   0  0  0  0  0  0  0  0  0  0  0  0
   14.5462  -10.8927  -20.9976 N   0  0  0  0  0  0  0  0  0  0  0  0
   15.4841   -9.9141  -20.5865 C   0  0  0  0  0  0  0  0  0  0  0  0
   15.3161   -8.6971  -21.0056 N   0  0  0  0  0  0  0  0  0  0  0  0
   16.5710  -10.2621  -19.7402 N   0  0  0  0  0  0  0  0  0  0  0  0
   16.7716  -11.6124  -19.2960 C   0  0  0  0  0  0  0  0  0  0  0  0
   17.9526  -11.7770  -18.3595 C   0  0  0  0  0  0  0  0  0  0  0  0
   18.1230  -13.2136  -18.0114 C   0  0  0  0  0  0  0  0  0  0  0  0
   19.2669  -13.5216  -17.0875 C   0  0  2  0  0  0  0  0  0  0  0  0
   19.2948  -14.9778  -16.8721 N   0  0  0  0  0  0  0  0  0  0  0  0
   19.1948  -12.8024  -15.8121 C   0  0  0  0  0  0  0  0  0  0  0  0
   18.6406  -13.2833  -14.7634 O   0  0  0  0  0  0  0  0  0  0  0  0
   19.7261  -11.5324  -15.6430 O   0  0  0  0  0  0  0  0  0  0  0  0
  2  3  1  0
  2  1  1  0
  4  5  1  0
  4  3  1  0
  5  6  1  1
  7  5  1  0
  7  8  2  0
  9  7  1  0
 10  9  1  0
 10 11  1  1
 12 13  1  0
 12 11  1  0
 13 14  1  0
 14 15  1  0
 16 17  2  0
 16 10  1  0
 19 18  1  0
 20 19  2  0
 21 19  1  0
 22 21  1  0
 22 23  1  0
 23 24  1  0
 25 24  1  6
 25 26  1  0
 25 27  1  0
 26 16  1  0
 27 29  1  0
 28 27  2  0
M  END
$$$$
