MKR.pdb
     RDKit          3D

 29 28  0  0  1  0  0  0  0  0999 V2000
   28.1607  -18.8366   -7.6106 C   0  0  0  0  0  0  0  0  0  0  0  0
   28.8445  -20.5119   -7.6963 S   0  0  0  0  0  0  0  0  0  0  0  0
   28.4160  -21.2369   -9.3251 C   0  0  0  0  0  0  0  0  0  0  0  0
   27.0403  -20.8030   -9.7078 C   0  0  0  0  0  0  0  0  0  0  0  0
   26.5397  -21.4452  -10.9699 C   0  0  2  0  0  0  0  0  0  0  0  0
   27.5424  -21.7392  -11.9425 N   0  0  0  0  0  0  0  0  0  0  0  0
   25.4489  -20.6757  -11.6081 C   0  0  0  0  0  0  0  0  0  0  0  0
   24.4394  -20.2862  -10.9598 O   0  0  0  0  0  0  0  0  0  0  0  0
   25.5463  -20.3715  -12.9875 N   0  0  0  0  0  0  0  0  0  0  0  0
   24.5172  -19.6681  -13.7184 C   0  0  1  0  0  0  0  0  0  0  0  0
   25.1012  -19.2184  -15.0395 C   0  0  0  0  0  0  0  0  0  0  0  0
   24.1529  -18.3931  -15.8420 C   0  0  0  0  0  0  0  0  0  0  0  0
   24.8219  -17.9150  -17.1020 C   0  0  0  0  0  0  0  0  0  0  0  0
   23.9482  -17.0961  -17.9955 C   0  0  0  0  0  0  0  0  0  0  0  0
   24.7046  -16.7196  -19.1997 N   0  0  0  0  0  0  0  0  0  0  0  0
   23.3172  -20.5285  -13.9271 C   0  0  0  0  0  0  0  0  0  0  0  0
   23.4734  -21.6864  -14.3795 O   0  0  0  0  0  0  0  0  0  0  0  0
   18.3847  -24.0081  -10.4202 N   0  0  0  0  0  0  0  0  0  0  0  0
   18.8034  -23.3113   -9.2601 C   0  0  0  0  0  0  0  0  0  0  0  0
   19.0108  -23.9996   -8.1793 N   0  0  0  0  0  0  0  0  0  0  0  0
   18.9898  -21.9032   -9.2881 N   0  0  0  0  0  0  0  0  0  0  0  0
   18.8997  -21.1600  -10.5130 C   0  0  0  0  0  0  0  0  0  0  0  0
   19.9061  -21.5900  -11.5624 C   0  0  0  0  0  0  0  0  0  0  0  0
   19.8480  -20.6638  -12.7255 C   0  0  0  0  0  0  0  0  0  0  0  0
   20.8203  -20.9575  -13.8325 C   0  0  2  0  0  0  0  0  0  0  0  0
   22.0006  -20.0995  -13.6371 N   0  0  0  0  0  0  0  0  0  0  0  0
   20.2512  -20.7728  -15.1709 C   0  0  0  0  0  0  0  0  0  0  0  0
   19.5542  -21.6647  -15.7684 O   0  0  0  0  0  0  0  0  0  0  0  0
   20.4272  -19.6060  -15.8998 O   0  0  0  0  0  0  0  0  0  0  0  0
  2  3  1  0
  2  1  1  0
  4  5  1  0
  4  3  1  0
  5  6  1  6
  7  5  1  0
  7  8  2  0
  9  7  1  0
 10  9  1  0
 10 11  1  6
 12 13  1  0
 12 11  1  0
 13 14  1  0
 14 15  1  0
 16 17  2  0
 16 10  1  0
 19 18  1  0
 20 19  2  0
 21 19  1  0
 22 21  1  0
 22 23  1  0
 23 24  1  0
 25 24  1  1
 25 26  1  0
 25 27  1  0
 26 16  1  0
 27 29  1  0
 28 27  2  0
M  END
$$$$
