MKR.pdb
     RDKit          3D

 29 28  0  0  1  0  0  0  0  0999 V2000
   28.4039  -18.5174  -23.0632 C   0  0  0  0  0  0  0  0  0  0  0  0
   28.4558  -19.6115  -21.6204 S   0  0  0  0  0  0  0  0  0  0  0  0
   26.8826  -19.4359  -20.6951 C   0  0  0  0  0  0  0  0  0  0  0  0
   26.9487  -20.2634  -19.4549 C   0  0  0  0  0  0  0  0  0  0  0  0
   26.4178  -19.5611  -18.2380 C   0  0  2  0  0  0  0  0  0  0  0  0
   27.1022  -18.3603  -17.8810 N   0  0  0  0  0  0  0  0  0  0  0  0
   26.3368  -20.4485  -17.0567 C   0  0  0  0  0  0  0  0  0  0  0  0
   25.8187  -21.5968  -17.1192 O   0  0  0  0  0  0  0  0  0  0  0  0
   26.8569  -19.9890  -15.8226 N   0  0  0  0  0  0  0  0  0  0  0  0
   26.8105  -20.7657  -14.6049 C   0  0  1  0  0  0  0  0  0  0  0  0
   28.0416  -20.4375  -13.7894 C   0  0  0  0  0  0  0  0  0  0  0  0
   28.1025  -21.1891  -12.5026 C   0  0  0  0  0  0  0  0  0  0  0  0
   29.3914  -20.8869  -11.7876 C   0  0  0  0  0  0  0  0  0  0  0  0
   29.6060  -21.6753  -10.5367 C   0  0  0  0  0  0  0  0  0  0  0  0
   30.9511  -21.3938  -10.0117 N   0  0  0  0  0  0  0  0  0  0  0  0
   25.5654  -20.4878  -13.8327 C   0  0  0  0  0  0  0  0  0  0  0  0
   25.3021  -19.3053  -13.5130 O   0  0  0  0  0  0  0  0  0  0  0  0
   17.8408  -22.2501  -11.4505 N   0  0  0  0  0  0  0  0  0  0  0  0
   17.9868  -22.4560  -12.8443 C   0  0  0  0  0  0  0  0  0  0  0  0
   16.9954  -22.1263  -13.6147 N   0  0  0  0  0  0  0  0  0  0  0  0
   19.1851  -23.0051  -13.3743 N   0  0  0  0  0  0  0  0  0  0  0  0
   20.2787  -23.3783  -12.5224 C   0  0  0  0  0  0  0  0  0  0  0  0
   21.1844  -22.2206  -12.1505 C   0  0  0  0  0  0  0  0  0  0  0  0
   22.4464  -22.2960  -12.9353 C   0  0  0  0  0  0  0  0  0  0  0  0
   23.4588  -21.2283  -12.6320 C   0  0  2  0  0  0  0  0  0  0  0  0
   24.6590  -21.5006  -13.4400 N   0  0  0  0  0  0  0  0  0  0  0  0
   23.7938  -21.1316  -11.2081 C   0  0  0  0  0  0  0  0  0  0  0  0
   24.7461  -21.7904  -10.6629 O   0  0  0  0  0  0  0  0  0  0  0  0
   23.0966  -20.3111  -10.3337 O   0  0  0  0  0  0  0  0  0  0  0  0
  2  3  1  0
  2  1  1  0
  4  5  1  0
  4  3  1  0
  5  6  1  1
  7  5  1  0
  7  8  2  0
  9  7  1  0
 10  9  1  0
 10 11  1  1
 12 13  1  0
 12 11  1  0
 13 14  1  0
 14 15  1  0
 16 17  2  0
 16 10  1  0
 19 18  1  0
 20 19  2  0
 21 19  1  0
 22 21  1  0
 22 23  1  0
 23 24  1  0
 25 24  1  1
 25 26  1  0
 25 27  1  0
 26 16  1  0
 27 29  1  0
 28 27  2  0
M  END
$$$$
