MKR.pdb
     RDKit          3D

 29 28  0  0  1  0  0  0  0  0999 V2000
   23.5644  -15.2900  -22.2609 C   0  0  0  0  0  0  0  0  0  0  0  0
   22.7804  -15.9827  -20.7820 S   0  0  0  0  0  0  0  0  0  0  0  0
   21.0171  -15.4800  -20.7638 C   0  0  0  0  0  0  0  0  0  0  0  0
   20.9317  -13.9983  -20.6071 C   0  0  0  0  0  0  0  0  0  0  0  0
   21.2706  -13.5225  -19.2235 C   0  0  2  0  0  0  0  0  0  0  0  0
   21.1472  -14.5043  -18.1947 N   0  0  0  0  0  0  0  0  0  0  0  0
   20.5165  -12.3097  -18.8362 C   0  0  0  0  0  0  0  0  0  0  0  0
   20.4246  -11.3092  -19.5989 O   0  0  0  0  0  0  0  0  0  0  0  0
   19.8822  -12.2770  -17.5707 N   0  0  0  0  0  0  0  0  0  0  0  0
   19.1148  -11.1475  -17.0980 C   0  0  1  0  0  0  0  0  0  0  0  0
   18.0483  -11.6630  -16.1571 C   0  0  0  0  0  0  0  0  0  0  0  0
   17.1320  -10.5895  -15.6748 C   0  0  0  0  0  0  0  0  0  0  0  0
   16.0892  -11.1721  -14.7600 C   0  0  0  0  0  0  0  0  0  0  0  0
   15.1399  -10.1716  -14.1854 C   0  0  0  0  0  0  0  0  0  0  0  0
   14.2596  -10.8410  -13.2153 N   0  0  0  0  0  0  0  0  0  0  0  0
   19.9875  -10.1447  -16.4224 C   0  0  0  0  0  0  0  0  0  0  0  0
   20.7640  -10.5294  -15.5175 O   0  0  0  0  0  0  0  0  0  0  0  0
   21.1685   -1.5922  -18.4790 N   0  0  0  0  0  0  0  0  0  0  0  0
   22.0385   -1.7562  -17.3733 C   0  0  0  0  0  0  0  0  0  0  0  0
   22.6770   -0.7115  -16.9419 N   0  0  0  0  0  0  0  0  0  0  0  0
   22.1999   -3.0277  -16.7603 N   0  0  0  0  0  0  0  0  0  0  0  0
   21.5087   -4.1874  -17.2482 C   0  0  0  0  0  0  0  0  0  0  0  0
   21.6175   -5.3917  -16.3335 C   0  0  0  0  0  0  0  0  0  0  0  0
   20.8059   -6.5134  -16.8789 C   0  0  0  0  0  0  0  0  0  0  0  0
   20.8330   -7.7804  -16.0720 C   0  0  2  0  0  0  0  0  0  0  0  0
   19.9829   -8.7696  -16.7548 N   0  0  0  0  0  0  0  0  0  0  0  0
   20.4095   -7.5935  -14.6809 C   0  0  0  0  0  0  0  0  0  0  0  0
   19.1892   -7.6644  -14.3013 O   0  0  0  0  0  0  0  0  0  0  0  0
   21.3079   -7.3218  -13.6597 O   0  0  0  0  0  0  0  0  0  0  0  0
  2  3  1  0
  2  1  1  0
  4  5  1  0
  4  3  1  0
  5  6  1  1
  7  5  1  0
  7  8  2  0
  9  7  1  0
 10  9  1  0
 10 11  1  1
 12 13  1  0
 12 11  1  0
 13 14  1  0
 14 15  1  0
 16 17  2  0
 16 10  1  0
 19 18  1  0
 20 19  2  0
 21 19  1  0
 22 21  1  0
 22 23  1  0
 23 24  1  0
 25 24  1  6
 25 26  1  0
 25 27  1  0
 26 16  1  0
 27 29  1  0
 28 27  2  0
M  END
$$$$
