MKR.pdb
     RDKit          3D

 29 28  0  0  1  0  0  0  0  0999 V2000
   27.1195  -13.8502  -15.7769 C   0  0  0  0  0  0  0  0  0  0  0  0
   27.7275  -15.5537  -15.6777 S   0  0  0  0  0  0  0  0  0  0  0  0
   26.2929  -16.6766  -15.4702 C   0  0  0  0  0  0  0  0  0  0  0  0
   25.1286  -16.1287  -16.2262 C   0  0  0  0  0  0  0  0  0  0  0  0
   23.9191  -17.0184  -16.1893 C   0  0  2  0  0  0  0  0  0  0  0  0
   24.1506  -18.3766  -16.5628 N   0  0  0  0  0  0  0  0  0  0  0  0
   22.7895  -16.4791  -16.9785 C   0  0  0  0  0  0  0  0  0  0  0  0
   22.8305  -16.4044  -18.2370 O   0  0  0  0  0  0  0  0  0  0  0  0
   21.6318  -16.0347  -16.2951 N   0  0  0  0  0  0  0  0  0  0  0  0
   20.4784  -15.4815  -16.9672 C   0  0  1  0  0  0  0  0  0  0  0  0
   19.2367  -15.9982  -16.2747 C   0  0  0  0  0  0  0  0  0  0  0  0
   18.8294  -17.3525  -16.7483 C   0  0  0  0  0  0  0  0  0  0  0  0
   17.5566  -17.7773  -16.0676 C   0  0  0  0  0  0  0  0  0  0  0  0
   16.9877  -19.0661  -16.5654 C   0  0  0  0  0  0  0  0  0  0  0  0
   15.9048  -19.4962  -15.6673 N   0  0  0  0  0  0  0  0  0  0  0  0
   20.5136  -13.9907  -16.9643 C   0  0  0  0  0  0  0  0  0  0  0  0
   20.8906  -13.3957  -15.9281 O   0  0  0  0  0  0  0  0  0  0  0  0
   18.9375   -8.3613  -23.6777 N   0  0  0  0  0  0  0  0  0  0  0  0
   19.0723   -7.4906  -22.5686 C   0  0  0  0  0  0  0  0  0  0  0  0
   18.9455   -6.2157  -22.7777 N   0  0  0  0  0  0  0  0  0  0  0  0
   19.3362   -8.0052  -21.2710 N   0  0  0  0  0  0  0  0  0  0  0  0
   19.4454   -9.4167  -21.0331 C   0  0  0  0  0  0  0  0  0  0  0  0
   19.7645   -9.7694  -19.5934 C   0  0  0  0  0  0  0  0  0  0  0  0
   19.7844  -11.2483  -19.4297 C   0  0  0  0  0  0  0  0  0  0  0  0
   20.0572  -11.7389  -18.0361 C   0  0  2  0  0  0  0  0  0  0  0  0
   20.1399  -13.2081  -18.0821 N   0  0  0  0  0  0  0  0  0  0  0  0
   19.0578  -11.2984  -17.0581 C   0  0  0  0  0  0  0  0  0  0  0  0
   19.2995  -10.4337  -16.1459 O   0  0  0  0  0  0  0  0  0  0  0  0
   17.7612  -11.7907  -17.0459 O   0  0  0  0  0  0  0  0  0  0  0  0
  2  3  1  0
  2  1  1  0
  4  5  1  0
  4  3  1  0
  5  6  1  6
  7  5  1  0
  7  8  2  0
  9  7  1  0
 10  9  1  0
 10 11  1  1
 12 13  1  0
 12 11  1  0
 13 14  1  0
 14 15  1  0
 16 17  2  0
 16 10  1  0
 19 18  1  0
 20 19  2  0
 21 19  1  0
 22 21  1  0
 22 23  1  0
 23 24  1  0
 25 24  1  6
 25 26  1  0
 25 27  1  0
 26 16  1  0
 27 29  1  0
 28 27  2  0
M  END
$$$$
