MKR.pdb
     RDKit          3D

 29 28  0  0  1  0  0  0  0  0999 V2000
   32.4071  -13.9149  -17.5756 C   0  0  0  0  0  0  0  0  0  0  0  0
   30.8933  -13.1226  -18.1774 S   0  0  0  0  0  0  0  0  0  0  0  0
   29.8377  -12.7062  -16.7371 C   0  0  0  0  0  0  0  0  0  0  0  0
   28.5447  -12.1421  -17.2242 C   0  0  0  0  0  0  0  0  0  0  0  0
   27.6028  -11.7625  -16.1176 C   0  0  2  0  0  0  0  0  0  0  0  0
   27.4559  -12.7347  -15.0827 N   0  0  0  0  0  0  0  0  0  0  0  0
   26.2655  -11.3710  -16.6153 C   0  0  0  0  0  0  0  0  0  0  0  0
   26.1152  -10.4743  -17.4896 O   0  0  0  0  0  0  0  0  0  0  0  0
   25.1248  -12.0252  -16.0903 N   0  0  0  0  0  0  0  0  0  0  0  0
   23.7709  -11.6545  -16.4332 C   0  0  1  0  0  0  0  0  0  0  0  0
   22.8398  -12.7163  -15.8908 C   0  0  0  0  0  0  0  0  0  0  0  0
   21.4181  -12.4973  -16.2848 C   0  0  0  0  0  0  0  0  0  0  0  0
   20.5642  -13.6345  -15.7931 C   0  0  0  0  0  0  0  0  0  0  0  0
   19.1597  -13.6202  -16.3024 C   0  0  0  0  0  0  0  0  0  0  0  0
   18.4045  -14.7132  -15.6706 N   0  0  0  0  0  0  0  0  0  0  0  0
   23.4244  -10.3091  -15.8913 C   0  0  0  0  0  0  0  0  0  0  0  0
   23.7337  -10.0342  -14.7088 O   0  0  0  0  0  0  0  0  0  0  0  0
   19.9921   -3.3352  -20.2297 N   0  0  0  0  0  0  0  0  0  0  0  0
   20.2875   -2.7966  -18.9534 C   0  0  0  0  0  0  0  0  0  0  0  0
   20.0758   -1.5299  -18.7643 N   0  0  0  0  0  0  0  0  0  0  0  0
   20.7974   -3.6245  -17.9176 N   0  0  0  0  0  0  0  0  0  0  0  0
   21.0851   -5.0129  -18.1418 C   0  0  0  0  0  0  0  0  0  0  0  0
   21.5994   -5.7354  -16.9120 C   0  0  0  0  0  0  0  0  0  0  0  0
   21.9170   -7.1484  -17.2539 C   0  0  0  0  0  0  0  0  0  0  0  0
   22.4396   -7.9840  -16.1200 C   0  0  2  0  0  0  0  0  0  0  0  0
   22.7586   -9.3192  -16.6520 N   0  0  0  0  0  0  0  0  0  0  0  0
   21.5114   -8.0760  -14.9890 C   0  0  0  0  0  0  0  0  0  0  0  0
   20.5342   -8.9015  -14.9461 O   0  0  0  0  0  0  0  0  0  0  0  0
   21.6219   -7.2667  -13.8681 O   0  0  0  0  0  0  0  0  0  0  0  0
  2  3  1  0
  2  1  1  0
  4  5  1  0
  4  3  1  0
  5  6  1  1
  7  5  1  0
  7  8  2  0
  9  7  1  0
 10  9  1  0
 10 11  1  1
 12 13  1  0
 12 11  1  0
 13 14  1  0
 14 15  1  0
 16 17  2  0
 16 10  1  0
 19 18  1  0
 20 19  2  0
 21 19  1  0
 22 21  1  0
 22 23  1  0
 23 24  1  0
 25 24  1  6
 25 26  1  0
 25 27  1  0
 26 16  1  0
 27 29  1  0
 28 27  2  0
M  END
$$$$
