MKR.pdb
     RDKit          3D

 29 28  0  0  1  0  0  0  0  0999 V2000
   29.2033  -18.5593  -22.4097 C   0  0  0  0  0  0  0  0  0  0  0  0
   27.4178  -18.2761  -22.5244 S   0  0  0  0  0  0  0  0  0  0  0  0
   26.6585  -18.6586  -20.8998 C   0  0  0  0  0  0  0  0  0  0  0  0
   27.6132  -18.2895  -19.8138 C   0  0  0  0  0  0  0  0  0  0  0  0
   27.1114  -18.6215  -18.4376 C   0  0  2  0  0  0  0  0  0  0  0  0
   27.8900  -18.0964  -17.3625 N   0  0  0  0  0  0  0  0  0  0  0  0
   26.9155  -20.0743  -18.2365 C   0  0  0  0  0  0  0  0  0  0  0  0
   26.0930  -20.7382  -18.9249 O   0  0  0  0  0  0  0  0  0  0  0  0
   27.6758  -20.7328  -17.2400 N   0  0  0  0  0  0  0  0  0  0  0  0
   27.4656  -22.1125  -16.8655 C   0  0  1  0  0  0  0  0  0  0  0  0
   28.7922  -22.6874  -16.4204 C   0  0  0  0  0  0  0  0  0  0  0  0
   29.6327  -23.1565  -17.5596 C   0  0  0  0  0  0  0  0  0  0  0  0
   30.3285  -24.4397  -17.1949 C   0  0  0  0  0  0  0  0  0  0  0  0
   31.2355  -24.9758  -18.2543 C   0  0  0  0  0  0  0  0  0  0  0  0
   31.9547  -26.1467  -17.7289 N   0  0  0  0  0  0  0  0  0  0  0  0
   26.4408  -22.2310  -15.7886 C   0  0  0  0  0  0  0  0  0  0  0  0
   26.7930  -22.0704  -14.5970 O   0  0  0  0  0  0  0  0  0  0  0  0
   24.3299  -20.7224   -9.4432 N   0  0  0  0  0  0  0  0  0  0  0  0
   25.1549  -21.0440  -10.5489 C   0  0  0  0  0  0  0  0  0  0  0  0
   26.4041  -21.3109  -10.3179 N   0  0  0  0  0  0  0  0  0  0  0  0
   24.6230  -21.0731  -11.8659 N   0  0  0  0  0  0  0  0  0  0  0  0
   23.5978  -20.1575  -12.2799 C   0  0  0  0  0  0  0  0  0  0  0  0
   23.0109  -20.4744  -13.6415 C   0  0  0  0  0  0  0  0  0  0  0  0
   24.0938  -20.8952  -14.5712 C   0  0  0  0  0  0  0  0  0  0  0  0
   24.0180  -22.3182  -15.0470 C   0  0  2  0  0  0  0  0  0  0  0  0
   25.0798  -22.5178  -16.0472 N   0  0  0  0  0  0  0  0  0  0  0  0
   22.7063  -22.6802  -15.5927 C   0  0  0  0  0  0  0  0  0  0  0  0
   21.7880  -23.2438  -14.9019 O   0  0  0  0  0  0  0  0  0  0  0  0
   22.3571  -22.4382  -16.9130 O   0  0  0  0  0  0  0  0  0  0  0  0
  2  3  1  0
  2  1  1  0
  4  5  1  0
  4  3  1  0
  5  6  1  1
  7  5  1  0
  7  8  2  0
  9  7  1  0
 10  9  1  0
 10 11  1  1
 12 13  1  0
 12 11  1  0
 13 14  1  0
 14 15  1  0
 16 17  2  0
 16 10  1  0
 19 18  1  0
 20 19  2  0
 21 19  1  0
 22 21  1  0
 22 23  1  0
 23 24  1  0
 25 24  1  6
 25 26  1  0
 25 27  1  0
 26 16  1  0
 27 29  1  0
 28 27  2  0
M  END
$$$$
