MKR.pdb
     RDKit          3D

 29 28  0  0  1  0  0  0  0  0999 V2000
   32.1876  -26.2525  -18.3769 C   0  0  0  0  0  0  0  0  0  0  0  0
   32.4917  -24.8505  -17.2707 S   0  0  0  0  0  0  0  0  0  0  0  0
   30.8834  -24.0778  -16.8486 C   0  0  0  0  0  0  0  0  0  0  0  0
   29.9742  -25.1170  -16.2823 C   0  0  0  0  0  0  0  0  0  0  0  0
   28.8625  -25.5105  -17.2123 C   0  0  2  0  0  0  0  0  0  0  0  0
   28.4843  -24.5162  -18.1642 N   0  0  0  0  0  0  0  0  0  0  0  0
   27.6585  -25.9845  -16.4945 C   0  0  0  0  0  0  0  0  0  0  0  0
   27.7232  -26.8606  -15.5893 O   0  0  0  0  0  0  0  0  0  0  0  0
   26.3997  -25.4353  -16.8388 N   0  0  0  0  0  0  0  0  0  0  0  0
   25.1514  -25.9052  -16.2829 C   0  0  1  0  0  0  0  0  0  0  0  0
   24.1388  -24.7861  -16.3857 C   0  0  0  0  0  0  0  0  0  0  0  0
   22.8410  -25.1159  -15.7287 C   0  0  0  0  0  0  0  0  0  0  0  0
   21.9070  -23.9391  -15.8091 C   0  0  0  0  0  0  0  0  0  0  0  0
   20.6421  -24.0972  -15.0297 C   0  0  0  0  0  0  0  0  0  0  0  0
   20.7971  -23.4487  -13.7184 N   0  0  0  0  0  0  0  0  0  0  0  0
   24.6720  -27.1292  -16.9871 C   0  0  0  0  0  0  0  0  0  0  0  0
   25.1504  -27.4080  -18.1109 O   0  0  0  0  0  0  0  0  0  0  0  0
   27.6586  -34.5835  -16.2777 N   0  0  0  0  0  0  0  0  0  0  0  0
   27.9142  -33.6149  -17.2792 C   0  0  0  0  0  0  0  0  0  0  0  0
   28.7004  -33.9452  -18.2579 N   0  0  0  0  0  0  0  0  0  0  0  0
   27.3230  -32.3250  -17.2078 N   0  0  0  0  0  0  0  0  0  0  0  0
   26.5190  -31.9308  -16.0858 C   0  0  0  0  0  0  0  0  0  0  0  0
   25.1168  -31.4949  -16.4637 C   0  0  0  0  0  0  0  0  0  0  0  0
   25.0049  -30.0146  -16.3619 C   0  0  0  0  0  0  0  0  0  0  0  0
   23.6660  -29.4424  -16.7320 C   0  0  2  0  0  0  0  0  0  0  0  0
   23.6963  -27.9987  -16.4452 N   0  0  0  0  0  0  0  0  0  0  0  0
   22.5456  -30.0920  -16.0450 C   0  0  0  0  0  0  0  0  0  0  0  0
   21.8074  -29.4973  -15.1849 O   0  0  0  0  0  0  0  0  0  0  0  0
   22.1970  -31.4144  -16.2761 O   0  0  0  0  0  0  0  0  0  0  0  0
  2  3  1  0
  2  1  1  0
  4  5  1  0
  4  3  1  0
  5  6  1  1
  7  5  1  0
  7  8  2  0
  9  7  1  0
 10  9  1  0
 10 11  1  6
 12 13  1  0
 12 11  1  0
 13 14  1  0
 14 15  1  0
 16 17  2  0
 16 10  1  0
 19 18  1  0
 20 19  2  0
 21 19  1  0
 22 21  1  0
 22 23  1  0
 23 24  1  0
 25 24  1  1
 25 26  1  0
 25 27  1  0
 26 16  1  0
 27 29  1  0
 28 27  2  0
M  END
$$$$
