MKR.pdb
     RDKit          3D

 29 28  0  0  1  0  0  0  0  0999 V2000
   16.6718  -25.6094   -7.4276 C   0  0  0  0  0  0  0  0  0  0  0  0
   18.2849  -24.9372   -7.9045 S   0  0  0  0  0  0  0  0  0  0  0  0
   18.0536  -23.8242   -9.3432 C   0  0  0  0  0  0  0  0  0  0  0  0
   19.3902  -23.4239   -9.8728 C   0  0  0  0  0  0  0  0  0  0  0  0
   19.3487  -22.1942  -10.7341 C   0  0  2  0  0  0  0  0  0  0  0  0
   18.0788  -21.9014  -11.3166 N   0  0  0  0  0  0  0  0  0  0  0  0
   20.3827  -22.2034  -11.7925 C   0  0  0  0  0  0  0  0  0  0  0  0
   21.5972  -22.4284  -11.5368 O   0  0  0  0  0  0  0  0  0  0  0  0
   19.9913  -21.9506  -13.1295 N   0  0  0  0  0  0  0  0  0  0  0  0
   20.9163  -21.9521  -14.2397 C   0  0  1  0  0  0  0  0  0  0  0  0
   20.3656  -22.8674  -15.3108 C   0  0  0  0  0  0  0  0  0  0  0  0
   20.7391  -24.2961  -15.1012 C   0  0  0  0  0  0  0  0  0  0  0  0
   22.2355  -24.4497  -15.1355 C   0  0  0  0  0  0  0  0  0  0  0  0
   22.7233  -25.8328  -14.8501 C   0  0  0  0  0  0  0  0  0  0  0  0
   24.1926  -25.8227  -14.7781 N   0  0  0  0  0  0  0  0  0  0  0  0
   21.1293  -20.5741  -14.7687 C   0  0  0  0  0  0  0  0  0  0  0  0
   20.1577  -19.7841  -14.8096 O   0  0  0  0  0  0  0  0  0  0  0  0
   28.7279  -16.7445  -17.3717 N   0  0  0  0  0  0  0  0  0  0  0  0
   27.7740  -15.7214  -17.5946 C   0  0  0  0  0  0  0  0  0  0  0  0
   28.1982  -14.5847  -18.0564 N   0  0  0  0  0  0  0  0  0  0  0  0
   26.3975  -15.9414  -17.3204 N   0  0  0  0  0  0  0  0  0  0  0  0
   25.9424  -17.1516  -16.6965 C   0  0  0  0  0  0  0  0  0  0  0  0
   24.4392  -17.2122  -16.5077 C   0  0  0  0  0  0  0  0  0  0  0  0
   24.0517  -18.5469  -15.9762 C   0  0  0  0  0  0  0  0  0  0  0  0
   22.5755  -18.7705  -15.8094 C   0  0  2  0  0  0  0  0  0  0  0  0
   22.3836  -20.1104  -15.2302 N   0  0  0  0  0  0  0  0  0  0  0  0
   21.8200  -18.6234  -17.0571 C   0  0  0  0  0  0  0  0  0  0  0  0
   21.5929  -19.5934  -17.8607 O   0  0  0  0  0  0  0  0  0  0  0  0
   21.2890  -17.4093  -17.4668 O   0  0  0  0  0  0  0  0  0  0  0  0
  2  3  1  0
  2  1  1  0
  4  5  1  0
  4  3  1  0
  5  6  1  6
  7  5  1  0
  7  8  2  0
  9  7  1  0
 10  9  1  0
 10 11  1  6
 12 13  1  0
 12 11  1  0
 13 14  1  0
 14 15  1  0
 16 17  2  0
 16 10  1  0
 19 18  1  0
 20 19  2  0
 21 19  1  0
 22 21  1  0
 22 23  1  0
 23 24  1  0
 25 24  1  6
 25 26  1  0
 25 27  1  0
 26 16  1  0
 27 29  1  0
 28 27  2  0
M  END
$$$$
