MKR.pdb
     RDKit          3D

 29 28  0  0  1  0  0  0  0  0999 V2000
   32.4848  -20.4643   -8.8903 C   0  0  0  0  0  0  0  0  0  0  0  0
   32.3763  -22.2138   -9.3475 S   0  0  0  0  0  0  0  0  0  0  0  0
   31.4438  -22.3515  -10.9202 C   0  0  0  0  0  0  0  0  0  0  0  0
   30.1245  -21.6706  -10.7687 C   0  0  0  0  0  0  0  0  0  0  0  0
   29.2350  -21.8152  -11.9702 C   0  0  2  0  0  0  0  0  0  0  0  0
   29.9021  -21.7653  -13.2313 N   0  0  0  0  0  0  0  0  0  0  0  0
   28.1142  -20.8491  -11.9705 C   0  0  0  0  0  0  0  0  0  0  0  0
   27.3519  -20.7114  -10.9750 O   0  0  0  0  0  0  0  0  0  0  0  0
   27.8957  -20.0595  -13.1253 N   0  0  0  0  0  0  0  0  0  0  0  0
   26.7658  -19.1712  -13.2756 C   0  0  1  0  0  0  0  0  0  0  0  0
   27.0375  -18.2578  -14.4504 C   0  0  0  0  0  0  0  0  0  0  0  0
   25.9273  -17.2951  -14.7056 C   0  0  0  0  0  0  0  0  0  0  0  0
   26.3012  -16.3589  -15.8225 C   0  0  0  0  0  0  0  0  0  0  0  0
   25.2955  -15.2885  -16.0970 C   0  0  0  0  0  0  0  0  0  0  0  0
   25.7394  -14.4917  -17.2512 N   0  0  0  0  0  0  0  0  0  0  0  0
   25.4995  -19.9343  -13.4705 C   0  0  0  0  0  0  0  0  0  0  0  0
   25.4550  -20.8174  -14.3581 O   0  0  0  0  0  0  0  0  0  0  0  0
   19.9699  -23.5483   -8.2639 N   0  0  0  0  0  0  0  0  0  0  0  0
   19.0031  -22.8867   -9.0602 C   0  0  0  0  0  0  0  0  0  0  0  0
   17.8079  -23.3907   -9.1092 N   0  0  0  0  0  0  0  0  0  0  0  0
   19.3392  -21.7077   -9.7781 N   0  0  0  0  0  0  0  0  0  0  0  0
   20.6986  -21.2596   -9.8877 C   0  0  0  0  0  0  0  0  0  0  0  0
   21.2796  -21.4093  -11.2802 C   0  0  0  0  0  0  0  0  0  0  0  0
   22.4374  -20.4892  -11.4446 C   0  0  0  0  0  0  0  0  0  0  0  0
   23.1532  -20.5829  -12.7621 C   0  0  2  0  0  0  0  0  0  0  0  0
   24.3365  -19.7094  -12.6970 N   0  0  0  0  0  0  0  0  0  0  0  0
   22.3078  -20.2391  -13.9094 C   0  0  0  0  0  0  0  0  0  0  0  0
   22.0838  -19.0355  -14.2828 O   0  0  0  0  0  0  0  0  0  0  0  0
   21.6788  -21.2015  -14.6852 O   0  0  0  0  0  0  0  0  0  0  0  0
  2  3  1  0
  2  1  1  0
  4  5  1  0
  4  3  1  0
  5  6  1  6
  7  5  1  0
  7  8  2  0
  9  7  1  0
 10  9  1  0
 10 11  1  6
 12 13  1  0
 12 11  1  0
 13 14  1  0
 14 15  1  0
 16 17  2  0
 16 10  1  0
 19 18  1  0
 20 19  2  0
 21 19  1  0
 22 21  1  0
 22 23  1  0
 23 24  1  0
 25 24  1  1
 25 26  1  0
 25 27  1  0
 26 16  1  0
 27 29  1  0
 28 27  2  0
M  END
$$$$
