MKR.pdb
     RDKit          3D

 29 28  0  0  1  0  0  0  0  0999 V2000
   28.5740  -13.6780  -20.6262 C   0  0  0  0  0  0  0  0  0  0  0  0
   27.8626  -15.2464  -20.0646 S   0  0  0  0  0  0  0  0  0  0  0  0
   26.0663  -15.0079  -19.7844 C   0  0  0  0  0  0  0  0  0  0  0  0
   25.4733  -16.2860  -19.2924 C   0  0  0  0  0  0  0  0  0  0  0  0
   25.1039  -16.2530  -17.8370 C   0  0  2  0  0  0  0  0  0  0  0  0
   26.2052  -16.1995  -16.9304 N   0  0  0  0  0  0  0  0  0  0  0  0
   24.2050  -17.3632  -17.4510 C   0  0  0  0  0  0  0  0  0  0  0  0
   23.2416  -17.7258  -18.1798 O   0  0  0  0  0  0  0  0  0  0  0  0
   24.4378  -18.0337  -16.2258 N   0  0  0  0  0  0  0  0  0  0  0  0
   23.6827  -19.1894  -15.7990 C   0  0  1  0  0  0  0  0  0  0  0  0
   24.6029  -20.0843  -14.9985 C   0  0  0  0  0  0  0  0  0  0  0  0
   23.9177  -21.3014  -14.4754 C   0  0  0  0  0  0  0  0  0  0  0  0
   24.8766  -22.1233  -13.6574 C   0  0  0  0  0  0  0  0  0  0  0  0
   24.3563  -23.4649  -13.2554 C   0  0  0  0  0  0  0  0  0  0  0  0
   25.3711  -24.1543  -12.4434 N   0  0  0  0  0  0  0  0  0  0  0  0
   22.4902  -18.7909  -14.9972 C   0  0  0  0  0  0  0  0  0  0  0  0
   22.6627  -18.1719  -13.9217 O   0  0  0  0  0  0  0  0  0  0  0  0
   15.3298  -17.7387  -19.2652 N   0  0  0  0  0  0  0  0  0  0  0  0
   16.0211  -18.9599  -19.4584 C   0  0  0  0  0  0  0  0  0  0  0  0
   15.7017  -19.6830  -20.4881 N   0  0  0  0  0  0  0  0  0  0  0  0
   17.0325  -19.3719  -18.5497 N   0  0  0  0  0  0  0  0  0  0  0  0
   17.4248  -18.5476  -17.4418 C   0  0  0  0  0  0  0  0  0  0  0  0
   18.4596  -19.1910  -16.5396 C   0  0  0  0  0  0  0  0  0  0  0  0
   18.9258  -18.2066  -15.5258 C   0  0  0  0  0  0  0  0  0  0  0  0
   19.9897  -18.7020  -14.5878 C   0  0  2  0  0  0  0  0  0  0  0  0
   21.1629  -19.0790  -15.3934 N   0  0  0  0  0  0  0  0  0  0  0  0
   19.5491  -19.8181  -13.7455 C   0  0  0  0  0  0  0  0  0  0  0  0
   19.9168  -21.0295  -13.9335 O   0  0  0  0  0  0  0  0  0  0  0  0
   18.6904  -19.6448  -12.6701 O   0  0  0  0  0  0  0  0  0  0  0  0
  2  3  1  0
  2  1  1  0
  4  5  1  0
  4  3  1  0
  5  6  1  1
  7  5  1  0
  7  8  2  0
  9  7  1  0
 10  9  1  0
 10 11  1  1
 12 13  1  0
 12 11  1  0
 13 14  1  0
 14 15  1  0
 16 17  2  0
 16 10  1  0
 19 18  1  0
 20 19  2  0
 21 19  1  0
 22 21  1  0
 22 23  1  0
 23 24  1  0
 25 24  1  6
 25 26  1  0
 25 27  1  0
 26 16  1  0
 27 29  1  0
 28 27  2  0
M  END
$$$$
