MKR.pdb
     RDKit          3D

 29 28  0  0  1  0  0  0  0  0999 V2000
   27.8744  -20.4501   -3.4958 C   0  0  0  0  0  0  0  0  0  0  0  0
   28.8943  -19.5193   -4.6684 S   0  0  0  0  0  0  0  0  0  0  0  0
   27.8150  -18.8835   -6.0074 C   0  0  0  0  0  0  0  0  0  0  0  0
   26.9172  -19.9800   -6.4752 C   0  0  0  0  0  0  0  0  0  0  0  0
   27.4066  -20.6642   -7.7195 C   0  0  2  0  0  0  0  0  0  0  0  0
   28.8159  -20.5977   -7.9366 N   0  0  0  0  0  0  0  0  0  0  0  0
   26.7012  -20.2072   -8.9373 C   0  0  0  0  0  0  0  0  0  0  0  0
   26.3077  -19.0165   -9.0731 O   0  0  0  0  0  0  0  0  0  0  0  0
   26.4632  -21.1387   -9.9767 N   0  0  0  0  0  0  0  0  0  0  0  0
   25.9271  -20.7672  -11.2662 C   0  0  1  0  0  0  0  0  0  0  0  0
   26.9630  -21.0939  -12.3191 C   0  0  0  0  0  0  0  0  0  0  0  0
   26.5497  -20.6742  -13.6894 C   0  0  0  0  0  0  0  0  0  0  0  0
   27.5641  -21.1367  -14.6998 C   0  0  0  0  0  0  0  0  0  0  0  0
   27.3283  -20.6373  -16.0881 C   0  0  0  0  0  0  0  0  0  0  0  0
   26.1700  -21.3376  -16.6643 N   0  0  0  0  0  0  0  0  0  0  0  0
   24.6416  -21.4712  -11.5412 C   0  0  0  0  0  0  0  0  0  0  0  0
   24.5649  -22.7015  -11.3173 O   0  0  0  0  0  0  0  0  0  0  0  0
   17.6264  -23.9715   -9.6371 N   0  0  0  0  0  0  0  0  0  0  0  0
   18.5653  -23.3639   -8.7677 C   0  0  0  0  0  0  0  0  0  0  0  0
   18.7668  -23.9150   -7.6098 N   0  0  0  0  0  0  0  0  0  0  0  0
   19.2617  -22.1893   -9.1596 N   0  0  0  0  0  0  0  0  0  0  0  0
   18.9830  -21.5342  -10.4062 C   0  0  0  0  0  0  0  0  0  0  0  0
   19.9249  -21.9296  -11.5267 C   0  0  0  0  0  0  0  0  0  0  0  0
   21.2454  -21.2726  -11.3300 C   0  0  0  0  0  0  0  0  0  0  0  0
   22.2598  -21.5289  -12.4081 C   0  0  2  0  0  0  0  0  0  0  0  0
   23.4949  -20.8141  -12.0461 N   0  0  0  0  0  0  0  0  0  0  0  0
   21.7994  -21.1403  -13.7446 C   0  0  0  0  0  0  0  0  0  0  0  0
   21.8415  -19.9380  -14.1814 O   0  0  0  0  0  0  0  0  0  0  0  0
   21.2767  -22.0551  -14.6467 O   0  0  0  0  0  0  0  0  0  0  0  0
  2  3  1  0
  2  1  1  0
  4  5  1  0
  4  3  1  0
  5  6  1  6
  7  5  1  0
  7  8  2  0
  9  7  1  0
 10  9  1  0
 10 11  1  6
 12 13  1  0
 12 11  1  0
 13 14  1  0
 14 15  1  0
 16 17  2  0
 16 10  1  0
 19 18  1  0
 20 19  2  0
 21 19  1  0
 22 21  1  0
 22 23  1  0
 23 24  1  0
 25 24  1  1
 25 26  1  0
 25 27  1  0
 26 16  1  0
 27 29  1  0
 28 27  2  0
M  END
$$$$
