IVL.pdb
     RDKit          3D

 24 23  0  0  1  0  0  0  0  0999 V2000
    7.6153  -11.8426   18.2706 C   0  0  0  0  0  0  0  0  0  0  0  0
    8.0408  -13.2708   18.2984 C   0  0  0  0  0  0  0  0  0  0  0  0
    7.7209  -13.9807   19.6127 C   0  0  2  0  0  0  0  0  0  0  0  0
    8.4784  -13.2082   20.6725 C   0  0  0  0  0  0  0  0  0  0  0  0
    8.2941  -15.3912   19.5047 C   0  0  2  0  0  0  0  0  0  0  0  0
    7.4200  -16.0620   18.5260 N   0  0  0  0  0  0  0  0  0  0  0  0
    8.2254  -16.1543   20.7477 C   0  0  0  0  0  0  0  0  0  0  0  0
    7.0815  -16.4444   21.2346 O   0  0  0  0  0  0  0  0  0  0  0  0
   11.6138  -17.7253   22.5963 C   0  0  0  0  0  0  0  0  0  0  0  0
   10.2576  -18.2633   22.9740 C   0  0  1  0  0  0  0  0  0  0  0  0
   10.3109  -18.8241   24.3615 C   0  0  0  0  0  0  0  0  0  0  0  0
    9.1886  -17.1723   22.8518 C   0  0  2  0  0  0  0  0  0  0  0  0
    9.3190  -16.6346   21.5138 N   0  0  0  0  0  0  0  0  0  0  0  0
    9.4965  -16.1684   23.8971 C   0  0  0  0  0  0  0  0  0  0  0  0
   10.5453  -15.4830   23.9166 O   0  0  0  0  0  0  0  0  0  0  0  0
    8.2580  -11.7692   26.3599 C   0  0  0  0  0  0  0  0  0  0  0  0
    7.3479  -12.9030   26.7081 C   0  0  1  0  0  0  0  0  0  0  0  0
    5.8792  -12.4295   26.7060 C   0  0  0  0  0  0  0  0  0  0  0  0
    7.4878  -14.1666   25.9894 C   0  0  0  0  0  0  0  0  0  0  0  0
    8.7870  -14.9015   25.9302 C   0  0  2  0  0  0  0  0  0  0  0  0
    8.5429  -15.9858   24.9229 N   0  0  0  0  0  0  0  0  0  0  0  0
    9.1151  -15.5919   27.1666 C   0  0  0  0  0  0  0  0  0  0  0  0
    8.6184  -16.7985   27.6013 O   0  0  0  0  0  0  0  0  0  0  0  0
    9.9508  -15.0475   27.9751 O   0  0  0  0  0  0  0  0  0  0  0  0
  2  1  1  0
  3  2  1  0
  3  4  1  1
  5  3  1  0
  5  7  1  0
  5  6  1  6
  7  8  2  0
 10 12  1  0
 10 11  1  1
 10  9  1  0
 13  7  1  0
 12 13  1  6
 14 12  1  0
 14 15  2  0
 17 19  1  0
 17 16  1  6
 18 17  1  0
 20 19  1  1
 20 21  1  0
 20 22  1  0
 21 14  1  0
 22 23  1  0
 24 22  2  0
M  END
$$$$
