IVL.pdb
     RDKit          3D

 24 23  0  0  1  0  0  0  0  0999 V2000
    6.7292  -21.6068   26.1289 C   0  0  0  0  0  0  0  0  0  0  0  0
    6.2995  -20.9112   24.8827 C   0  0  0  0  0  0  0  0  0  0  0  0
    7.1770  -19.7165   24.5134 C   0  0  2  0  0  0  0  0  0  0  0  0
    7.0189  -18.7414   25.6613 C   0  0  0  0  0  0  0  0  0  0  0  0
    6.5854  -19.1085   23.2445 C   0  0  2  0  0  0  0  0  0  0  0  0
    6.5931  -20.2183   22.2750 N   0  0  0  0  0  0  0  0  0  0  0  0
    7.3865  -18.0271   22.6779 C   0  0  0  0  0  0  0  0  0  0  0  0
    8.5532  -18.2887   22.2304 O   0  0  0  0  0  0  0  0  0  0  0  0
    7.8658  -13.2639   21.2959 C   0  0  0  0  0  0  0  0  0  0  0  0
    7.0474  -14.5010   21.5629 C   0  0  1  0  0  0  0  0  0  0  0  0
    6.3783  -14.9406   20.2974 C   0  0  0  0  0  0  0  0  0  0  0  0
    7.9228  -15.6137   22.1491 C   0  0  2  0  0  0  0  0  0  0  0  0
    7.0128  -16.6635   22.5569 N   0  0  0  0  0  0  0  0  0  0  0  0
    8.6455  -15.0150   23.2955 C   0  0  0  0  0  0  0  0  0  0  0  0
    9.7125  -14.3675   23.1845 O   0  0  0  0  0  0  0  0  0  0  0  0
    5.9077  -12.0515   26.6816 C   0  0  0  0  0  0  0  0  0  0  0  0
    7.1168  -12.6050   25.9985 C   0  0  1  0  0  0  0  0  0  0  0  0
    8.2039  -11.5172   25.8714 C   0  0  0  0  0  0  0  0  0  0  0  0
    7.6893  -13.8582   26.4828 C   0  0  0  0  0  0  0  0  0  0  0  0
    8.7834  -14.5621   25.7487 C   0  0  2  0  0  0  0  0  0  0  0  0
    8.0862  -15.1934   24.5803 N   0  0  0  0  0  0  0  0  0  0  0  0
    9.3600  -15.6677   26.4958 C   0  0  0  0  0  0  0  0  0  0  0  0
    9.2462  -17.0092   26.2147 O   0  0  0  0  0  0  0  0  0  0  0  0
   10.0532  -15.4094   27.5452 O   0  0  0  0  0  0  0  0  0  0  0  0
  2  1  1  0
  3  2  1  0
  3  4  1  1
  5  3  1  0
  5  7  1  0
  5  6  1  6
  7  8  2  0
 10 12  1  0
 10 11  1  6
 10  9  1  0
 13  7  1  0
 12 13  1  1
 14 12  1  0
 14 15  2  0
 17 19  1  0
 17 16  1  1
 18 17  1  0
 20 19  1  1
 20 21  1  0
 20 22  1  0
 21 14  1  0
 22 23  1  0
 24 22  2  0
M  END
$$$$
