IVL.pdb
     RDKit          3D

 24 23  0  0  1  0  0  0  0  0999 V2000
    5.9612  -10.9315   26.9202 C   0  0  0  0  0  0  0  0  0  0  0  0
    5.5946  -12.2300   26.2868 C   0  0  0  0  0  0  0  0  0  0  0  0
    6.7928  -13.1342   26.0034 C   0  0  2  0  0  0  0  0  0  0  0  0
    7.7002  -12.3170   25.1077 C   0  0  0  0  0  0  0  0  0  0  0  0
    6.2647  -14.3388   25.2291 C   0  0  2  0  0  0  0  0  0  0  0  0
    5.4623  -15.0802   26.2182 N   0  0  0  0  0  0  0  0  0  0  0  0
    7.3102  -15.2390   24.7508 C   0  0  0  0  0  0  0  0  0  0  0  0
    7.6545  -16.2307   25.4772 O   0  0  0  0  0  0  0  0  0  0  0  0
   10.3102  -16.7313   21.0630 C   0  0  0  0  0  0  0  0  0  0  0  0
    9.4631  -15.6626   21.7048 C   0  0  1  0  0  0  0  0  0  0  0  0
    8.2642  -15.3937   20.8488 C   0  0  0  0  0  0  0  0  0  0  0  0
    9.0569  -16.0727   23.1243 C   0  0  2  0  0  0  0  0  0  0  0  0
    8.0206  -15.1447   23.5260 N   0  0  0  0  0  0  0  0  0  0  0  0
   10.2763  -15.9538   23.9573 C   0  0  0  0  0  0  0  0  0  0  0  0
   11.2826  -15.2842   23.6270 O   0  0  0  0  0  0  0  0  0  0  0  0
    9.8497  -15.4967   29.0948 C   0  0  0  0  0  0  0  0  0  0  0  0
    9.8639  -15.1566   27.6391 C   0  0  1  0  0  0  0  0  0  0  0  0
    9.1919  -13.7875   27.4036 C   0  0  0  0  0  0  0  0  0  0  0  0
   11.1226  -15.2512   26.9045 C   0  0  0  0  0  0  0  0  0  0  0  0
   11.4739  -16.4545   26.0921 C   0  0  2  0  0  0  0  0  0  0  0  0
   10.2889  -16.6407   25.1915 N   0  0  0  0  0  0  0  0  0  0  0  0
   11.5562  -17.6754   26.8768 C   0  0  0  0  0  0  0  0  0  0  0  0
   10.7347  -18.7751   26.7908 O   0  0  0  0  0  0  0  0  0  0  0  0
   12.4778  -17.7781   27.7648 O   0  0  0  0  0  0  0  0  0  0  0  0
  2  1  1  0
  3  2  1  0
  3  4  1  6
  5  3  1  0
  5  7  1  0
  5  6  1  1
  7  8  2  0
 10 12  1  0
 10 11  1  6
 10  9  1  0
 13  7  1  0
 12 13  1  1
 14 12  1  0
 14 15  2  0
 17 19  1  0
 17 16  1  1
 18 17  1  0
 20 19  1  1
 20 21  1  0
 20 22  1  0
 21 14  1  0
 22 23  1  0
 24 22  2  0
M  END
$$$$
