IVL.pdb
     RDKit          3D

 24 23  0  0  1  0  0  0  0  0999 V2000
   14.5917  -19.9557   21.6740 C   0  0  0  0  0  0  0  0  0  0  0  0
   13.5413  -19.1979   20.9364 C   0  0  0  0  0  0  0  0  0  0  0  0
   12.9001  -18.0808   21.7577 C   0  0  2  0  0  0  0  0  0  0  0  0
   12.2817  -18.7752   22.9530 C   0  0  0  0  0  0  0  0  0  0  0  0
   11.7966  -17.4747   20.8947 C   0  0  2  0  0  0  0  0  0  0  0  0
   12.5205  -16.8200   19.7905 N   0  0  0  0  0  0  0  0  0  0  0  0
   11.0123  -16.4470   21.5735 C   0  0  0  0  0  0  0  0  0  0  0  0
   11.6055  -15.4089   22.0210 O   0  0  0  0  0  0  0  0  0  0  0  0
    7.8656  -14.5681   20.3463 C   0  0  0  0  0  0  0  0  0  0  0  0
    7.5954  -15.2012   21.6871 C   0  0  1  0  0  0  0  0  0  0  0  0
    6.8834  -16.5039   21.4904 C   0  0  0  0  0  0  0  0  0  0  0  0
    8.8989  -15.3884   22.4705 C   0  0  2  0  0  0  0  0  0  0  0  0
    9.6126  -16.4591   21.8067 N   0  0  0  0  0  0  0  0  0  0  0  0
    8.5060  -15.7435   23.8542 C   0  0  0  0  0  0  0  0  0  0  0  0
    8.7951  -16.8326   24.4023 O   0  0  0  0  0  0  0  0  0  0  0  0
    6.2705  -11.3922   26.5574 C   0  0  0  0  0  0  0  0  0  0  0  0
    7.1916  -12.5587   26.3973 C   0  0  1  0  0  0  0  0  0  0  0  0
    8.4027  -12.4173   27.3432 C   0  0  0  0  0  0  0  0  0  0  0  0
    6.6381  -13.9088   26.4596 C   0  0  0  0  0  0  0  0  0  0  0  0
    7.4151  -15.1021   26.0084 C   0  0  2  0  0  0  0  0  0  0  0  0
    7.7632  -14.7887   24.5835 N   0  0  0  0  0  0  0  0  0  0  0  0
    6.6214  -16.3186   25.9518 C   0  0  0  0  0  0  0  0  0  0  0  0
    6.4224  -17.2285   26.9638 O   0  0  0  0  0  0  0  0  0  0  0  0
    6.0296  -16.6195   24.8529 O   0  0  0  0  0  0  0  0  0  0  0  0
  2  1  1  0
  3  2  1  0
  3  4  1  1
  5  3  1  0
  5  7  1  0
  5  6  1  6
  7  8  2  0
 10 12  1  0
 10 11  1  6
 10  9  1  0
 13  7  1  0
 12 13  1  6
 14 12  1  0
 14 15  2  0
 17 19  1  0
 17 16  1  1
 18 17  1  0
 20 19  1  6
 20 21  1  0
 20 22  1  0
 21 14  1  0
 22 23  1  0
 24 22  2  0
M  END
$$$$
