IVL.pdb
     RDKit          3D

 24 23  0  0  1  0  0  0  0  0999 V2000
    7.7116  -11.8292   18.5724 C   0  0  0  0  0  0  0  0  0  0  0  0
    8.0941  -13.2656   18.6818 C   0  0  0  0  0  0  0  0  0  0  0  0
    7.7474  -13.8916   20.0315 C   0  0  2  0  0  0  0  0  0  0  0  0
    8.4678  -13.0416   21.0571 C   0  0  0  0  0  0  0  0  0  0  0  0
    8.3388  -15.2988   20.0315 C   0  0  2  0  0  0  0  0  0  0  0  0
    7.4639  -16.0580   19.1205 N   0  0  0  0  0  0  0  0  0  0  0  0
    8.2936  -15.9592   21.3330 C   0  0  0  0  0  0  0  0  0  0  0  0
    7.1625  -16.3032   21.8147 O   0  0  0  0  0  0  0  0  0  0  0  0
   10.2875  -18.6772   24.8801 C   0  0  0  0  0  0  0  0  0  0  0  0
   10.2708  -18.0332   23.5176 C   0  0  1  0  0  0  0  0  0  0  0  0
    9.9534  -19.0658   22.4805 C   0  0  0  0  0  0  0  0  0  0  0  0
    9.2695  -16.8740   23.4783 C   0  0  2  0  0  0  0  0  0  0  0  0
    9.3982  -16.2807   22.1638 N   0  0  0  0  0  0  0  0  0  0  0  0
    9.6672  -15.9432   24.5601 C   0  0  0  0  0  0  0  0  0  0  0  0
   10.7523  -15.3167   24.5757 O   0  0  0  0  0  0  0  0  0  0  0  0
    5.9764  -12.5154   26.5073 C   0  0  0  0  0  0  0  0  0  0  0  0
    7.2742  -13.1578   26.1357 C   0  0  1  0  0  0  0  0  0  0  0  0
    8.2963  -12.0860   25.7021 C   0  0  0  0  0  0  0  0  0  0  0  0
    7.8809  -14.1104   27.0617 C   0  0  0  0  0  0  0  0  0  0  0  0
    9.1487  -14.8299   26.7359 C   0  0  2  0  0  0  0  0  0  0  0  0
    8.7599  -15.7629   25.6276 N   0  0  0  0  0  0  0  0  0  0  0  0
    9.6181  -15.6863   27.8126 C   0  0  0  0  0  0  0  0  0  0  0  0
   10.4758  -15.3444   28.8320 O   0  0  0  0  0  0  0  0  0  0  0  0
    9.2191  -16.9060   27.8506 O   0  0  0  0  0  0  0  0  0  0  0  0
  2  1  1  0
  3  2  1  0
  3  4  1  1
  5  3  1  0
  5  7  1  0
  5  6  1  6
  7  8  2  0
 10 12  1  0
 10 11  1  6
 10  9  1  0
 13  7  1  0
 12 13  1  6
 14 12  1  0
 14 15  2  0
 17 19  1  0
 17 16  1  1
 18 17  1  0
 20 19  1  1
 20 21  1  0
 20 22  1  0
 21 14  1  0
 22 23  1  0
 24 22  2  0
M  END
$$$$
