IVL.pdb
     RDKit          3D

 24 23  0  0  1  0  0  0  0  0999 V2000
   11.6419  -21.3685   23.4189 C   0  0  0  0  0  0  0  0  0  0  0  0
   11.2377  -20.3890   22.3708 C   0  0  0  0  0  0  0  0  0  0  0  0
   11.0616  -18.9656   22.8966 C   0  0  2  0  0  0  0  0  0  0  0  0
   10.0625  -19.0842   24.0285 C   0  0  0  0  0  0  0  0  0  0  0  0
   10.4502  -18.1474   21.7624 C   0  0  2  0  0  0  0  0  0  0  0  0
   11.5130  -18.0932   20.7429 N   0  0  0  0  0  0  0  0  0  0  0  0
   10.1284  -16.7720   22.1323 C   0  0  0  0  0  0  0  0  0  0  0  0
   11.0426  -16.0341   22.6318 O   0  0  0  0  0  0  0  0  0  0  0  0
    7.1169  -12.8416   22.0518 C   0  0  0  0  0  0  0  0  0  0  0  0
    7.6651  -14.1346   21.5049 C   0  0  1  0  0  0  0  0  0  0  0  0
    8.3813  -13.8688   20.2168 C   0  0  0  0  0  0  0  0  0  0  0  0
    8.5851  -14.8090   22.5281 C   0  0  2  0  0  0  0  0  0  0  0  0
    8.8720  -16.1259   21.9988 N   0  0  0  0  0  0  0  0  0  0  0  0
    7.8254  -14.8636   23.7989 C   0  0  0  0  0  0  0  0  0  0  0  0
    6.8593  -15.6359   24.0000 O   0  0  0  0  0  0  0  0  0  0  0  0
   10.8231  -13.5537   28.3231 C   0  0  0  0  0  0  0  0  0  0  0  0
    9.8746  -14.1900   27.3585 C   0  0  1  0  0  0  0  0  0  0  0  0
    9.7071  -15.6892   27.6838 C   0  0  0  0  0  0  0  0  0  0  0  0
    8.5776  -13.5606   27.1248 C   0  0  0  0  0  0  0  0  0  0  0  0
    7.5784  -14.1397   26.1774 C   0  0  2  0  0  0  0  0  0  0  0  0
    8.2260  -13.9886   24.8328 N   0  0  0  0  0  0  0  0  0  0  0  0
    6.3465  -13.3721   26.0993 C   0  0  0  0  0  0  0  0  0  0  0  0
    5.2245  -13.5204   26.8808 O   0  0  0  0  0  0  0  0  0  0  0  0
    6.2488  -12.4490   25.2124 O   0  0  0  0  0  0  0  0  0  0  0  0
  2  1  1  0
  3  2  1  0
  3  4  1  1
  5  3  1  0
  5  7  1  0
  5  6  1  6
  7  8  2  0
 10 12  1  0
 10 11  1  6
 10  9  1  0
 13  7  1  0
 12 13  1  6
 14 12  1  0
 14 15  2  0
 17 19  1  0
 17 16  1  1
 18 17  1  0
 20 19  1  1
 20 21  1  0
 20 22  1  0
 21 14  1  0
 22 23  1  0
 24 22  2  0
M  END
$$$$
