IVL.pdb
     RDKit          3D

 24 23  0  0  1  0  0  0  0  0999 V2000
    7.8099  -19.5152   25.4287 C   0  0  0  0  0  0  0  0  0  0  0  0
    7.8744  -19.2389   23.9655 C   0  0  0  0  0  0  0  0  0  0  0  0
    6.5093  -18.9860   23.3282 C   0  0  2  0  0  0  0  0  0  0  0  0
    5.7555  -20.2907   23.4801 C   0  0  0  0  0  0  0  0  0  0  0  0
    6.7565  -18.7110   21.8473 C   0  0  2  0  0  0  0  0  0  0  0  0
    7.4792  -19.9050   21.3742 N   0  0  0  0  0  0  0  0  0  0  0  0
    7.6110  -17.5540   21.5953 C   0  0  0  0  0  0  0  0  0  0  0  0
    8.8588  -17.7364   21.3966 O   0  0  0  0  0  0  0  0  0  0  0  0
    8.0543  -12.6791   20.6708 C   0  0  0  0  0  0  0  0  0  0  0  0
    7.2915  -13.9790   20.6736 C   0  0  1  0  0  0  0  0  0  0  0  0
    6.8952  -14.3292   19.2726 C   0  0  0  0  0  0  0  0  0  0  0  0
    8.1234  -15.0942   21.3154 C   0  0  2  0  0  0  0  0  0  0  0  0
    7.2092  -16.1942   21.5407 N   0  0  0  0  0  0  0  0  0  0  0  0
    8.6612  -14.5382   22.5791 C   0  0  0  0  0  0  0  0  0  0  0  0
    9.5606  -13.6672   22.6294 O   0  0  0  0  0  0  0  0  0  0  0  0
    7.9422  -11.3918   26.7271 C   0  0  0  0  0  0  0  0  0  0  0  0
    7.1800  -12.6665   26.5559 C   0  0  1  0  0  0  0  0  0  0  0  0
    5.6912  -12.4492   26.8990 C   0  0  0  0  0  0  0  0  0  0  0  0
    7.3226  -13.4119   25.3081 C   0  0  0  0  0  0  0  0  0  0  0  0
    8.4789  -14.3248   25.0617 C   0  0  2  0  0  0  0  0  0  0  0  0
    8.1181  -15.0287   23.7872 N   0  0  0  0  0  0  0  0  0  0  0  0
    8.6062  -15.3752   26.0584 C   0  0  0  0  0  0  0  0  0  0  0  0
    9.5404  -15.4568   27.0645 O   0  0  0  0  0  0  0  0  0  0  0  0
    7.7812  -16.3584   26.0286 O   0  0  0  0  0  0  0  0  0  0  0  0
  2  1  1  0
  3  2  1  0
  3  4  1  6
  5  3  1  0
  5  7  1  0
  5  6  1  1
  7  8  2  0
 10 12  1  0
 10 11  1  6
 10  9  1  0
 13  7  1  0
 12 13  1  1
 14 12  1  0
 14 15  2  0
 17 19  1  0
 17 16  1  6
 18 17  1  0
 20 19  1  1
 20 21  1  0
 20 22  1  0
 21 14  1  0
 22 23  1  0
 24 22  2  0
M  END
$$$$
