IVL.pdb
     RDKit          3D

 24 23  0  0  1  0  0  0  0  0999 V2000
   14.4015  -20.4991   22.1396 C   0  0  0  0  0  0  0  0  0  0  0  0
   13.3569  -19.9317   21.2405 C   0  0  0  0  0  0  0  0  0  0  0  0
   12.7203  -18.6490   21.7725 C   0  0  2  0  0  0  0  0  0  0  0  0
   12.0719  -19.0448   23.0827 C   0  0  0  0  0  0  0  0  0  0  0  0
   11.6405  -18.2433   20.7729 C   0  0  2  0  0  0  0  0  0  0  0  0
   12.3908  -17.8906   19.5545 N   0  0  0  0  0  0  0  0  0  0  0  0
   10.8770  -17.0647   21.1731 C   0  0  0  0  0  0  0  0  0  0  0  0
   11.4887  -15.9565   21.3384 O   0  0  0  0  0  0  0  0  0  0  0  0
    6.5267  -14.7419   21.6944 C   0  0  0  0  0  0  0  0  0  0  0  0
    7.4088  -15.8462   21.1711 C   0  0  1  0  0  0  0  0  0  0  0  0
    7.5032  -15.7466   19.6799 C   0  0  0  0  0  0  0  0  0  0  0  0
    8.7936  -15.7894   21.8247 C   0  0  2  0  0  0  0  0  0  0  0  0
    9.4796  -16.9953   21.4102 N   0  0  0  0  0  0  0  0  0  0  0  0
    8.5623  -15.7449   23.2875 C   0  0  0  0  0  0  0  0  0  0  0  0
    8.4224  -16.7650   24.0016 O   0  0  0  0  0  0  0  0  0  0  0  0
    7.8188  -12.3487   27.9164 C   0  0  0  0  0  0  0  0  0  0  0  0
    6.8962  -12.6706   26.7850 C   0  0  1  0  0  0  0  0  0  0  0  0
    5.8834  -11.5248   26.5787 C   0  0  0  0  0  0  0  0  0  0  0  0
    7.4654  -13.0974   25.5096 C   0  0  0  0  0  0  0  0  0  0  0  0
    8.1747  -14.4034   25.3592 C   0  0  2  0  0  0  0  0  0  0  0  0
    8.4987  -14.4719   23.8962 N   0  0  0  0  0  0  0  0  0  0  0  0
    7.3249  -15.5537   25.6192 C   0  0  0  0  0  0  0  0  0  0  0  0
    7.5166  -16.5305   26.5683 O   0  0  0  0  0  0  0  0  0  0  0  0
    6.2728  -15.7193   24.9023 O   0  0  0  0  0  0  0  0  0  0  0  0
  2  1  1  0
  3  2  1  0
  3  4  1  1
  5  3  1  0
  5  7  1  0
  5  6  1  6
  7  8  2  0
 10 12  1  0
 10 11  1  6
 10  9  1  0
 13  7  1  0
 12 13  1  1
 14 12  1  0
 14 15  2  0
 17 19  1  0
 17 16  1  1
 18 17  1  0
 20 19  1  6
 20 21  1  0
 20 22  1  0
 21 14  1  0
 22 23  1  0
 24 22  2  0
M  END
$$$$
