IVL.pdb
     RDKit          3D

 24 23  0  0  1  0  0  0  0  0999 V2000
    7.2725  -21.1089   27.9664 C   0  0  0  0  0  0  0  0  0  0  0  0
    6.7040  -20.6806   26.6569 C   0  0  0  0  0  0  0  0  0  0  0  0
    7.5340  -19.6117   25.9481 C   0  0  2  0  0  0  0  0  0  0  0  0
    7.4690  -18.3984   26.8520 C   0  0  0  0  0  0  0  0  0  0  0  0
    6.8265  -19.3032   24.6313 C   0  0  2  0  0  0  0  0  0  0  0  0
    6.8799  -20.5738   23.8866 N   0  0  0  0  0  0  0  0  0  0  0  0
    7.5001  -18.2925   23.8207 C   0  0  0  0  0  0  0  0  0  0  0  0
    8.6573  -18.5485   23.3463 O   0  0  0  0  0  0  0  0  0  0  0  0
    7.4730  -13.8122   21.6223 C   0  0  0  0  0  0  0  0  0  0  0  0
    6.7731  -15.0218   22.1866 C   0  0  1  0  0  0  0  0  0  0  0  0
    5.9486  -15.6672   21.1159 C   0  0  0  0  0  0  0  0  0  0  0  0
    7.7859  -16.0052   22.7824 C   0  0  2  0  0  0  0  0  0  0  0  0
    7.0064  -17.0066   23.4797 N   0  0  0  0  0  0  0  0  0  0  0  0
    8.6428  -15.2167   23.6985 C   0  0  0  0  0  0  0  0  0  0  0  0
    9.6062  -14.5123   23.3171 O   0  0  0  0  0  0  0  0  0  0  0  0
    6.2348  -12.1558   27.2239 C   0  0  0  0  0  0  0  0  0  0  0  0
    7.3054  -12.7170   26.3442 C   0  0  1  0  0  0  0  0  0  0  0  0
    8.1274  -11.5761   25.7084 C   0  0  0  0  0  0  0  0  0  0  0  0
    8.1830  -13.7563   26.8757 C   0  0  0  0  0  0  0  0  0  0  0  0
    9.1827  -14.4603   26.0177 C   0  0  2  0  0  0  0  0  0  0  0  0
    8.3429  -15.2734   25.0777 N   0  0  0  0  0  0  0  0  0  0  0  0
    9.9889  -15.4259   26.7463 C   0  0  0  0  0  0  0  0  0  0  0  0
   11.1434  -15.1799   27.4521 O   0  0  0  0  0  0  0  0  0  0  0  0
    9.6237  -16.6567   26.7518 O   0  0  0  0  0  0  0  0  0  0  0  0
  2  1  1  0
  3  2  1  0
  3  4  1  1
  5  3  1  0
  5  7  1  0
  5  6  1  6
  7  8  2  0
 10 12  1  0
 10 11  1  6
 10  9  1  0
 13  7  1  0
 12 13  1  1
 14 12  1  0
 14 15  2  0
 17 19  1  0
 17 16  1  1
 18 17  1  0
 20 19  1  1
 20 21  1  0
 20 22  1  0
 21 14  1  0
 22 23  1  0
 24 22  2  0
M  END
$$$$
