IVL.pdb
     RDKit          3D

 24 23  0  0  1  0  0  0  0  0999 V2000
    5.9680  -10.7292   27.2575 C   0  0  0  0  0  0  0  0  0  0  0  0
    5.5295  -11.9582   26.5373 C   0  0  0  0  0  0  0  0  0  0  0  0
    6.6693  -12.9264   26.2259 C   0  0  2  0  0  0  0  0  0  0  0  0
    7.6534  -12.1244   25.4002 C   0  0  0  0  0  0  0  0  0  0  0  0
    6.0793  -14.0440   25.3700 C   0  0  2  0  0  0  0  0  0  0  0  0
    5.1249  -14.7198   26.2667 N   0  0  0  0  0  0  0  0  0  0  0  0
    7.0574  -15.0399   24.9415 C   0  0  0  0  0  0  0  0  0  0  0  0
    7.4600  -15.9143   25.7800 O   0  0  0  0  0  0  0  0  0  0  0  0
    9.8818  -17.0193   21.3302 C   0  0  0  0  0  0  0  0  0  0  0  0
    8.9732  -15.9286   21.8365 C   0  0  1  0  0  0  0  0  0  0  0  0
    7.7133  -15.9116   21.0271 C   0  0  0  0  0  0  0  0  0  0  0  0
    8.6778  -16.1182   23.3281 C   0  0  2  0  0  0  0  0  0  0  0  0
    7.6402  -15.1622   23.6535 N   0  0  0  0  0  0  0  0  0  0  0  0
    9.9459  -15.8413   24.0423 C   0  0  0  0  0  0  0  0  0  0  0  0
   10.7000  -14.8772   23.7739 O   0  0  0  0  0  0  0  0  0  0  0  0
    9.8314  -15.1975   29.0878 C   0  0  0  0  0  0  0  0  0  0  0  0
   10.2996  -15.2255   27.6684 C   0  0  1  0  0  0  0  0  0  0  0  0
   10.8838  -13.8536   27.2710 C   0  0  0  0  0  0  0  0  0  0  0  0
   11.1778  -16.3094   27.2361 C   0  0  0  0  0  0  0  0  0  0  0  0
   11.5968  -16.4652   25.8108 C   0  0  2  0  0  0  0  0  0  0  0  0
   10.3112  -16.7241   25.0827 N   0  0  0  0  0  0  0  0  0  0  0  0
   12.4155  -17.6433   25.5765 C   0  0  0  0  0  0  0  0  0  0  0  0
   11.9898  -18.8786   25.1472 O   0  0  0  0  0  0  0  0  0  0  0  0
   13.6796  -17.5693   25.7883 O   0  0  0  0  0  0  0  0  0  0  0  0
  2  1  1  0
  3  2  1  0
  3  4  1  6
  5  3  1  0
  5  7  1  0
  5  6  1  1
  7  8  2  0
 10 12  1  0
 10 11  1  6
 10  9  1  0
 13  7  1  0
 12 13  1  1
 14 12  1  0
 14 15  2  0
 17 19  1  0
 17 16  1  1
 18 17  1  0
 20 19  1  1
 20 21  1  0
 20 22  1  0
 21 14  1  0
 22 23  1  0
 24 22  2  0
M  END
$$$$
