IVL.pdb
     RDKit          3D

 24 23  0  0  1  0  0  0  0  0999 V2000
    6.4085  -22.2655   25.9610 C   0  0  0  0  0  0  0  0  0  0  0  0
    5.9205  -21.3078   24.9284 C   0  0  0  0  0  0  0  0  0  0  0  0
    6.9895  -20.3294   24.4452 C   0  0  2  0  0  0  0  0  0  0  0  0
    7.4682  -19.6198   25.6946 C   0  0  0  0  0  0  0  0  0  0  0  0
    6.2915  -19.3288   23.5280 C   0  0  2  0  0  0  0  0  0  0  0  0
    5.8382  -20.1418   22.3855 N   0  0  0  0  0  0  0  0  0  0  0  0
    7.1749  -18.2913   23.0034 C   0  0  0  0  0  0  0  0  0  0  0  0
    8.3176  -18.6249   22.5421 O   0  0  0  0  0  0  0  0  0  0  0  0
    7.9836  -13.6244   21.5214 C   0  0  0  0  0  0  0  0  0  0  0  0
    7.0918  -14.7983   21.8345 C   0  0  1  0  0  0  0  0  0  0  0  0
    6.4472  -15.2866   20.5740 C   0  0  0  0  0  0  0  0  0  0  0  0
    7.8851  -15.9125   22.5254 C   0  0  2  0  0  0  0  0  0  0  0  0
    6.9092  -16.8988   22.9392 N   0  0  0  0  0  0  0  0  0  0  0  0
    8.5740  -15.2816   23.6755 C   0  0  0  0  0  0  0  0  0  0  0  0
    9.5443  -14.4971   23.5609 O   0  0  0  0  0  0  0  0  0  0  0  0
    5.7145  -12.5880   26.8216 C   0  0  0  0  0  0  0  0  0  0  0  0
    7.0061  -13.0654   26.2397 C   0  0  1  0  0  0  0  0  0  0  0  0
    7.9928  -11.8883   26.0908 C   0  0  0  0  0  0  0  0  0  0  0  0
    7.6647  -14.2234   26.8382 C   0  0  0  0  0  0  0  0  0  0  0  0
    8.7703  -14.9491   26.1439 C   0  0  2  0  0  0  0  0  0  0  0  0
    8.0973  -15.5930   24.9682 N   0  0  0  0  0  0  0  0  0  0  0  0
    9.3169  -16.0477   26.9233 C   0  0  0  0  0  0  0  0  0  0  0  0
   10.2189  -15.9639   27.9582 O   0  0  0  0  0  0  0  0  0  0  0  0
    8.9503  -17.2459   26.6436 O   0  0  0  0  0  0  0  0  0  0  0  0
  2  1  1  0
  3  2  1  0
  3  4  1  1
  5  3  1  0
  5  7  1  0
  5  6  1  6
  7  8  2  0
 10 12  1  0
 10 11  1  6
 10  9  1  0
 13  7  1  0
 12 13  1  1
 14 12  1  0
 14 15  2  0
 17 19  1  0
 17 16  1  1
 18 17  1  0
 20 19  1  1
 20 21  1  0
 20 22  1  0
 21 14  1  0
 22 23  1  0
 24 22  2  0
M  END
$$$$
