IVL.pdb
     RDKit          3D

 24 23  0  0  1  0  0  0  0  0999 V2000
    7.1453  -20.6492   28.1996 C   0  0  0  0  0  0  0  0  0  0  0  0
    6.7627  -20.5546   26.7621 C   0  0  0  0  0  0  0  0  0  0  0  0
    7.5024  -19.4554   26.0016 C   0  0  2  0  0  0  0  0  0  0  0  0
    7.1242  -18.1676   26.7030 C   0  0  0  0  0  0  0  0  0  0  0  0
    6.9412  -19.4451   24.5821 C   0  0  2  0  0  0  0  0  0  0  0  0
    7.2700  -20.7812   24.0543 N   0  0  0  0  0  0  0  0  0  0  0  0
    7.5698  -18.4614   23.7049 C   0  0  0  0  0  0  0  0  0  0  0  0
    8.8108  -18.5796   23.4296 O   0  0  0  0  0  0  0  0  0  0  0  0
    7.1904  -14.2858   20.9891 C   0  0  0  0  0  0  0  0  0  0  0  0
    6.6049  -15.5479   21.5685 C   0  0  1  0  0  0  0  0  0  0  0  0
    6.0238  -16.3807   20.4679 C   0  0  0  0  0  0  0  0  0  0  0  0
    7.6641  -16.3239   22.3582 C   0  0  2  0  0  0  0  0  0  0  0  0
    6.9455  -17.3433   23.0937 N   0  0  0  0  0  0  0  0  0  0  0  0
    8.3219  -15.3408   23.2504 C   0  0  0  0  0  0  0  0  0  0  0  0
    9.0698  -14.4218   22.8426 O   0  0  0  0  0  0  0  0  0  0  0  0
    5.7029  -11.9345   27.0304 C   0  0  0  0  0  0  0  0  0  0  0  0
    7.0502  -12.5110   26.7353 C   0  0  1  0  0  0  0  0  0  0  0  0
    7.8233  -12.7618   28.0471 C   0  0  0  0  0  0  0  0  0  0  0  0
    7.1443  -13.6667   25.8473 C   0  0  0  0  0  0  0  0  0  0  0  0
    8.4539  -14.3069   25.5210 C   0  0  2  0  0  0  0  0  0  0  0  0
    8.0817  -15.4603   24.6372 N   0  0  0  0  0  0  0  0  0  0  0  0
    9.1076  -14.9020   26.6750 C   0  0  0  0  0  0  0  0  0  0  0  0
   10.2241  -14.4360   27.3292 O   0  0  0  0  0  0  0  0  0  0  0  0
    8.6277  -15.9870   27.1656 O   0  0  0  0  0  0  0  0  0  0  0  0
  2  1  1  0
  3  2  1  0
  3  4  1  1
  5  3  1  0
  5  7  1  0
  5  6  1  6
  7  8  2  0
 10 12  1  0
 10 11  1  6
 10  9  1  0
 13  7  1  0
 12 13  1  1
 14 12  1  0
 14 15  2  0
 17 19  1  0
 17 16  1  1
 18 17  1  0
 20 19  1  1
 20 21  1  0
 20 22  1  0
 21 14  1  0
 22 23  1  0
 24 22  2  0
M  END
$$$$
