IVL.pdb
     RDKit          3D

 24 23  0  0  1  0  0  0  0  0999 V2000
    7.0504  -20.7699   28.1771 C   0  0  0  0  0  0  0  0  0  0  0  0
    6.6700  -20.6183   26.7440 C   0  0  0  0  0  0  0  0  0  0  0  0
    7.5988  -19.6954   25.9571 C   0  0  2  0  0  0  0  0  0  0  0  0
    7.6082  -18.3931   26.7301 C   0  0  0  0  0  0  0  0  0  0  0  0
    6.9500  -19.4727   24.5935 C   0  0  2  0  0  0  0  0  0  0  0  0
    7.0055  -20.7959   23.9470 N   0  0  0  0  0  0  0  0  0  0  0  0
    7.6761  -18.5375   23.7389 C   0  0  0  0  0  0  0  0  0  0  0  0
    8.8873  -18.7943   23.4276 O   0  0  0  0  0  0  0  0  0  0  0  0
    5.9226  -14.9944   22.4094 C   0  0  0  0  0  0  0  0  0  0  0  0
    7.0223  -15.5899   21.5682 C   0  0  1  0  0  0  0  0  0  0  0  0
    7.7277  -14.4993   20.8228 C   0  0  0  0  0  0  0  0  0  0  0  0
    7.9949  -16.3936   22.4376 C   0  0  2  0  0  0  0  0  0  0  0  0
    7.1810  -17.3275   23.1872 N   0  0  0  0  0  0  0  0  0  0  0  0
    8.6803  -15.4129   23.3116 C   0  0  0  0  0  0  0  0  0  0  0  0
    9.1322  -14.3164   22.9071 O   0  0  0  0  0  0  0  0  0  0  0  0
    8.0624  -11.5974   26.5802 C   0  0  0  0  0  0  0  0  0  0  0  0
    7.3443  -12.9073   26.6391 C   0  0  1  0  0  0  0  0  0  0  0  0
    5.8194  -12.6786   26.6997 C   0  0  0  0  0  0  0  0  0  0  0  0
    7.6768  -13.9391   25.6604 C   0  0  0  0  0  0  0  0  0  0  0  0
    8.9994  -14.6334   25.6637 C   0  0  2  0  0  0  0  0  0  0  0  0
    8.8242  -15.7486   24.6760 N   0  0  0  0  0  0  0  0  0  0  0  0
    9.3056  -15.2834   26.9274 C   0  0  0  0  0  0  0  0  0  0  0  0
   10.1527  -14.8294   27.9112 O   0  0  0  0  0  0  0  0  0  0  0  0
    8.7523  -16.4113   27.1920 O   0  0  0  0  0  0  0  0  0  0  0  0
  2  1  1  0
  3  2  1  0
  3  4  1  1
  5  3  1  0
  5  7  1  0
  5  6  1  6
  7  8  2  0
 10 12  1  0
 10 11  1  1
 10  9  1  0
 13  7  1  0
 12 13  1  1
 14 12  1  0
 14 15  2  0
 17 19  1  0
 17 16  1  6
 18 17  1  0
 20 19  1  1
 20 21  1  0
 20 22  1  0
 21 14  1  0
 22 23  1  0
 24 22  2  0
M  END
$$$$
