IVL.pdb
     RDKit          3D

 24 23  0  0  1  0  0  0  0  0999 V2000
    6.4567  -21.3110   27.0344 C   0  0  0  0  0  0  0  0  0  0  0  0
    6.2445  -20.7767   25.6592 C   0  0  0  0  0  0  0  0  0  0  0  0
    7.2449  -19.6931   25.2610 C   0  0  2  0  0  0  0  0  0  0  0  0
    7.0661  -18.5947   26.2881 C   0  0  0  0  0  0  0  0  0  0  0  0
    6.8182  -19.1800   23.8882 C   0  0  2  0  0  0  0  0  0  0  0  0
    6.8500  -20.3772   23.0295 N   0  0  0  0  0  0  0  0  0  0  0  0
    7.7367  -18.2028   23.3105 C   0  0  0  0  0  0  0  0  0  0  0  0
    8.9518  -18.5381   23.1081 O   0  0  0  0  0  0  0  0  0  0  0  0
    7.0546  -15.5678   20.4528 C   0  0  0  0  0  0  0  0  0  0  0  0
    7.6929  -14.8881   21.6369 C   0  0  1  0  0  0  0  0  0  0  0  0
    6.6462  -14.1524   22.4152 C   0  0  0  0  0  0  0  0  0  0  0  0
    8.4301  -15.9060   22.5135 C   0  0  2  0  0  0  0  0  0  0  0  0
    7.4331  -16.8702   22.9291 N   0  0  0  0  0  0  0  0  0  0  0  0
    8.9905  -15.1447   23.6544 C   0  0  0  0  0  0  0  0  0  0  0  0
    9.8976  -14.2877   23.5412 O   0  0  0  0  0  0  0  0  0  0  0  0
    5.5577  -12.8153   26.9281 C   0  0  0  0  0  0  0  0  0  0  0  0
    6.8311  -13.1448   26.2175 C   0  0  1  0  0  0  0  0  0  0  0  0
    7.6108  -11.8535   25.8916 C   0  0  0  0  0  0  0  0  0  0  0  0
    7.7163  -14.1566   26.7880 C   0  0  0  0  0  0  0  0  0  0  0  0
    8.9620  -14.5985   26.0922 C   0  0  2  0  0  0  0  0  0  0  0  0
    8.4608  -15.4123   24.9362 N   0  0  0  0  0  0  0  0  0  0  0  0
    9.7708  -15.5114   26.8832 C   0  0  0  0  0  0  0  0  0  0  0  0
   10.6653  -15.1825   27.8747 O   0  0  0  0  0  0  0  0  0  0  0  0
    9.6767  -16.7721   26.6596 O   0  0  0  0  0  0  0  0  0  0  0  0
  2  1  1  0
  3  2  1  0
  3  4  1  1
  5  3  1  0
  5  7  1  0
  5  6  1  6
  7  8  2  0
 10 12  1  0
 10 11  1  1
 10  9  1  0
 13  7  1  0
 12 13  1  1
 14 12  1  0
 14 15  2  0
 17 19  1  0
 17 16  1  1
 18 17  1  0
 20 19  1  1
 20 21  1  0
 20 22  1  0
 21 14  1  0
 22 23  1  0
 24 22  2  0
M  END
$$$$
