FER.pdb
     RDKit          3D

 32 32  0  0  1  0  0  0  0  0999 V2000
   23.3390  -10.5395  -14.6171 N   0  0  0  0  0  0  0  0  0  0  0  0
   22.7665   -9.5519  -15.5269 C   0  0  1  0  0  0  0  0  0  0  0  0
   21.8332  -10.2756  -16.5054 C   0  0  0  0  0  0  0  0  0  0  0  0
   22.7189  -11.0940  -17.3708 C   0  0  0  0  0  0  0  0  0  0  0  0
   23.5852  -10.4873  -18.2519 C   0  0  0  0  0  0  0  0  0  0  0  0
   24.4125  -11.2723  -19.0652 C   0  0  0  0  0  0  0  0  0  0  0  0
   24.3747  -12.6481  -18.9979 C   0  0  0  0  0  0  0  0  0  0  0  0
   23.4999  -13.2318  -18.1081 C   0  0  0  0  0  0  0  0  0  0  0  0
   22.6799  -12.4691  -17.3027 C   0  0  0  0  0  0  0  0  0  0  0  0
   22.0662   -8.4798  -14.7800 C   0  0  0  0  0  0  0  0  0  0  0  0
   21.3578   -8.7486  -13.7722 O   0  0  0  0  0  0  0  0  0  0  0  0
   22.1902   -7.1388  -15.1974 N   0  0  0  0  0  0  0  0  0  0  0  0
   21.4794   -6.0466  -14.4937 C   0  0  1  0  0  0  0  0  0  0  0  0
   22.4312   -4.9104  -14.2934 C   0  0  0  0  0  0  0  0  0  0  0  0
   21.8840   -3.6894  -13.6357 C   0  0  0  0  0  0  0  0  0  0  0  0
   22.1295   -2.4233  -14.3504 C   0  0  0  0  0  0  0  0  0  0  0  0
   21.6143   -1.3592  -13.9521 O   0  0  0  0  0  0  0  0  0  0  0  0
   20.2851   -5.7754  -15.2677 C   0  0  0  0  0  0  0  0  0  0  0  0
   20.2917   -6.0106  -16.5249 O   0  0  0  0  0  0  0  0  0  0  0  0
   22.9322   -2.3863  -15.4724 O   0  0  0  0  0  0  0  0  0  0  0  0
   14.4866   -9.4604  -14.7583 N   0  0  0  0  0  0  0  0  0  0  0  0
   13.4248   -8.5676  -15.0535 C   0  0  0  0  0  0  0  0  0  0  0  0
   12.2372   -8.8557  -14.6798 N   0  0  0  0  0  0  0  0  0  0  0  0
   13.6488   -7.3578  -15.7527 N   0  0  0  0  0  0  0  0  0  0  0  0
   14.9165   -7.1043  -16.3871 C   0  0  0  0  0  0  0  0  0  0  0  0
   15.9646   -6.7461  -15.3321 C   0  0  0  0  0  0  0  0  0  0  0  0
   17.3069   -6.5040  -15.9380 C   0  0  0  0  0  0  0  0  0  0  0  0
   17.8736   -5.1480  -15.6035 C   0  0  2  0  0  0  0  0  0  0  0  0
   19.0726   -5.2651  -14.7733 N   0  0  0  0  0  0  0  0  0  0  0  0
   16.9361   -4.2713  -14.8904 C   0  0  0  0  0  0  0  0  0  0  0  0
   17.0488   -4.1175  -13.6560 O   0  0  0  0  0  0  0  0  0  0  0  0
   15.8987   -3.5779  -15.5135 O   0  0  0  0  0  0  0  0  0  0  0  0
  2  1  1  1
  2  3  1  0
  3  4  1  0
  4  9  2  0
  4  5  1  0
  5  6  2  0
  6  7  1  0
  8  7  2  0
  9  8  1  0
 10  2  1  0
 10 11  2  0
 12 10  1  0
 13 12  1  0
 13 14  1  6
 15 14  1  0
 15 16  1  0
 16 17  2  0
 16 20  1  0
 18 13  1  0
 19 18  2  0
 22 21  1  0
 22 24  1  0
 23 22  2  0
 24 25  1  0
 25 26  1  0
 26 27  1  0
 28 27  1  1
 28 29  1  0
 29 18  1  0
 30 28  1  0
 30 32  1  0
 31 30  2  0
M  END
$$$$
