FER.pdb
     RDKit          3D

 32 32  0  0  1  0  0  0  0  0999 V2000
   27.3598  -21.9665  -13.7414 N   0  0  0  0  0  0  0  0  0  0  0  0
   26.6059  -21.1964  -12.7569 C   0  0  1  0  0  0  0  0  0  0  0  0
   27.3889  -19.9169  -12.4372 C   0  0  0  0  0  0  0  0  0  0  0  0
   28.6027  -20.3630  -11.7087 C   0  0  0  0  0  0  0  0  0  0  0  0
   29.8436  -20.2624  -12.2963 C   0  0  0  0  0  0  0  0  0  0  0  0
   30.9799  -20.6909  -11.5983 C   0  0  0  0  0  0  0  0  0  0  0  0
   30.8772  -21.2135  -10.3275 C   0  0  0  0  0  0  0  0  0  0  0  0
   29.6248  -21.3035   -9.7608 C   0  0  0  0  0  0  0  0  0  0  0  0
   28.4986  -20.8853  -10.4385 C   0  0  0  0  0  0  0  0  0  0  0  0
   25.2361  -20.9036  -13.2422 C   0  0  0  0  0  0  0  0  0  0  0  0
   24.9743  -20.8918  -14.4755 O   0  0  0  0  0  0  0  0  0  0  0  0
   24.2072  -20.6340  -12.3168 N   0  0  0  0  0  0  0  0  0  0  0  0
   22.7817  -20.6950  -12.7137 C   0  0  1  0  0  0  0  0  0  0  0  0
   21.9466  -20.7932  -11.4768 C   0  0  0  0  0  0  0  0  0  0  0  0
   20.4682  -20.7495  -11.6644 C   0  0  0  0  0  0  0  0  0  0  0  0
   19.6742  -20.7329  -10.4222 C   0  0  0  0  0  0  0  0  0  0  0  0
   20.2367  -20.7536   -9.3088 O   0  0  0  0  0  0  0  0  0  0  0  0
   22.5511  -19.5523  -13.5739 C   0  0  0  0  0  0  0  0  0  0  0  0
   23.0111  -18.4101  -13.2278 O   0  0  0  0  0  0  0  0  0  0  0  0
   18.2952  -20.6939  -10.4622 O   0  0  0  0  0  0  0  0  0  0  0  0
   24.3788  -19.2137  -19.1128 N   0  0  0  0  0  0  0  0  0  0  0  0
   24.3605  -17.9471  -19.7508 C   0  0  0  0  0  0  0  0  0  0  0  0
   25.4366  -17.4826  -20.2599 N   0  0  0  0  0  0  0  0  0  0  0  0
   23.1735  -17.1818  -19.8410 N   0  0  0  0  0  0  0  0  0  0  0  0
   21.9166  -17.7274  -19.3979 C   0  0  0  0  0  0  0  0  0  0  0  0
   21.7055  -17.4124  -17.9160 C   0  0  0  0  0  0  0  0  0  0  0  0
   21.9281  -18.6098  -17.0534 C   0  0  0  0  0  0  0  0  0  0  0  0
   21.6604  -18.3480  -15.5934 C   0  0  2  0  0  0  0  0  0  0  0  0
   21.8538  -19.5581  -14.7941 N   0  0  0  0  0  0  0  0  0  0  0  0
   20.3046  -17.8570  -15.3163 C   0  0  0  0  0  0  0  0  0  0  0  0
   19.3548  -18.6654  -15.2491 O   0  0  0  0  0  0  0  0  0  0  0  0
   19.9946  -16.5119  -15.1167 O   0  0  0  0  0  0  0  0  0  0  0  0
  2  1  1  6
  2  3  1  0
  3  4  1  0
  4  9  2  0
  4  5  1  0
  5  6  2  0
  6  7  1  0
  8  7  2  0
  9  8  1  0
 10  2  1  0
 10 11  2  0
 12 10  1  0
 13 12  1  0
 13 14  1  1
 15 14  1  0
 15 16  1  0
 16 17  2  0
 16 20  1  0
 18 13  1  0
 19 18  2  0
 22 21  1  0
 22 24  1  0
 23 22  2  0
 24 25  1  0
 25 26  1  0
 26 27  1  0
 28 27  1  6
 28 29  1  0
 29 18  1  0
 30 28  1  0
 30 32  1  0
 31 30  2  0
M  END
$$$$
