FER.pdb
     RDKit          3D

 32 32  0  0  1  0  0  0  0  0999 V2000
   29.5973  -19.3872  -11.5659 N   0  0  0  0  0  0  0  0  0  0  0  0
   28.9982  -20.4845  -12.3193 C   0  0  1  0  0  0  0  0  0  0  0  0
   28.4590  -21.5201  -11.3247 C   0  0  0  0  0  0  0  0  0  0  0  0
   29.6349  -21.9671  -10.5369 C   0  0  0  0  0  0  0  0  0  0  0  0
   29.6914  -21.7393   -9.1804 C   0  0  0  0  0  0  0  0  0  0  0  0
   30.8091  -22.1634   -8.4503 C   0  0  0  0  0  0  0  0  0  0  0  0
   31.8579  -22.8082   -9.0690 C   0  0  0  0  0  0  0  0  0  0  0  0
   31.7778  -23.0251  -10.4270 C   0  0  0  0  0  0  0  0  0  0  0  0
   30.6827  -22.6115  -11.1565 C   0  0  0  0  0  0  0  0  0  0  0  0
   27.9423  -19.9904  -13.2350 C   0  0  0  0  0  0  0  0  0  0  0  0
   27.1416  -19.0863  -12.8729 O   0  0  0  0  0  0  0  0  0  0  0  0
   27.8268  -20.5349  -14.5304 N   0  0  0  0  0  0  0  0  0  0  0  0
   26.8401  -20.0067  -15.5004 C   0  0  1  0  0  0  0  0  0  0  0  0
   27.5174  -19.8340  -16.8226 C   0  0  0  0  0  0  0  0  0  0  0  0
   26.6761  -19.3213  -17.9416 C   0  0  0  0  0  0  0  0  0  0  0  0
   27.3618  -19.1950  -19.2407 C   0  0  0  0  0  0  0  0  0  0  0  0
   28.4623  -18.6131  -19.3239 O   0  0  0  0  0  0  0  0  0  0  0  0
   25.7054  -20.9064  -15.4552 C   0  0  0  0  0  0  0  0  0  0  0  0
   25.8007  -21.9950  -14.7905 O   0  0  0  0  0  0  0  0  0  0  0  0
   26.8043  -19.7160  -20.3907 O   0  0  0  0  0  0  0  0  0  0  0  0
   23.9530  -21.1490   -9.9098 N   0  0  0  0  0  0  0  0  0  0  0  0
   22.5828  -21.4615  -10.1016 C   0  0  0  0  0  0  0  0  0  0  0  0
   21.8742  -21.8266   -9.1028 N   0  0  0  0  0  0  0  0  0  0  0  0
   21.9766  -21.3761  -11.3775 N   0  0  0  0  0  0  0  0  0  0  0  0
   22.7776  -21.1569  -12.5541 C   0  0  0  0  0  0  0  0  0  0  0  0
   22.6220  -19.7110  -13.0281 C   0  0  0  0  0  0  0  0  0  0  0  0
   23.4084  -19.4419  -14.2677 C   0  0  0  0  0  0  0  0  0  0  0  0
   23.2276  -20.4990  -15.3269 C   0  0  2  0  0  0  0  0  0  0  0  0
   24.4631  -20.7091  -16.0819 N   0  0  0  0  0  0  0  0  0  0  0  0
   22.1717  -20.1913  -16.2997 C   0  0  0  0  0  0  0  0  0  0  0  0
   22.2108  -19.1182  -16.9376 O   0  0  0  0  0  0  0  0  0  0  0  0
   21.0972  -21.0387  -16.5691 O   0  0  0  0  0  0  0  0  0  0  0  0
  2  1  1  1
  2  3  1  0
  3  4  1  0
  4  9  2  0
  4  5  1  0
  5  6  2  0
  6  7  1  0
  8  7  2  0
  9  8  1  0
 10  2  1  0
 10 11  2  0
 12 10  1  0
 13 12  1  0
 13 14  1  6
 15 14  1  0
 15 16  1  0
 16 17  2  0
 16 20  1  0
 18 13  1  0
 19 18  2  0
 22 21  1  0
 22 24  1  0
 23 22  2  0
 24 25  1  0
 25 26  1  0
 26 27  1  0
 28 27  1  1
 28 29  1  0
 29 18  1  0
 30 28  1  0
 30 32  1  0
 31 30  2  0
M  END
$$$$
