FER.pdb
     RDKit          3D

 32 32  0  0  1  0  0  0  0  0999 V2000
   25.3150  -19.0889   -9.8810 N   0  0  0  0  0  0  0  0  0  0  0  0
   26.1237  -20.1539  -10.4663 C   0  0  1  0  0  0  0  0  0  0  0  0
   26.2205  -21.3028   -9.4548 C   0  0  0  0  0  0  0  0  0  0  0  0
   27.0267  -20.7742   -8.3261 C   0  0  0  0  0  0  0  0  0  0  0  0
   26.4076  -20.2627   -7.2080 C   0  0  0  0  0  0  0  0  0  0  0  0
   27.1812  -19.7639   -6.1521 C   0  0  0  0  0  0  0  0  0  0  0  0
   28.5577  -19.7766   -6.2130 C   0  0  0  0  0  0  0  0  0  0  0  0
   29.1538  -20.2941   -7.3421 C   0  0  0  0  0  0  0  0  0  0  0  0
   28.4026  -20.7875   -8.3883 C   0  0  0  0  0  0  0  0  0  0  0  0
   25.5616  -20.6006  -11.7632 C   0  0  0  0  0  0  0  0  0  0  0  0
   24.3151  -20.6538  -11.9454 O   0  0  0  0  0  0  0  0  0  0  0  0
   26.4277  -20.9723  -12.8118 N   0  0  0  0  0  0  0  0  0  0  0  0
   25.9519  -21.0429  -14.2125 C   0  0  1  0  0  0  0  0  0  0  0  0
   27.1408  -21.0428  -15.1200 C   0  0  0  0  0  0  0  0  0  0  0  0
   26.8682  -21.1998  -16.5773 C   0  0  0  0  0  0  0  0  0  0  0  0
   28.0552  -21.1520  -17.4506 C   0  0  0  0  0  0  0  0  0  0  0  0
   27.9297  -21.1138  -18.6912 O   0  0  0  0  0  0  0  0  0  0  0  0
   25.0701  -22.1901  -14.2840 C   0  0  0  0  0  0  0  0  0  0  0  0
   25.1538  -23.0961  -13.3851 O   0  0  0  0  0  0  0  0  0  0  0  0
   29.3283  -21.1481  -16.9175 O   0  0  0  0  0  0  0  0  0  0  0  0
   18.9514  -22.4097  -10.3416 N   0  0  0  0  0  0  0  0  0  0  0  0
   18.6706  -23.3262  -11.3871 C   0  0  0  0  0  0  0  0  0  0  0  0
   18.4118  -24.5451  -11.1036 N   0  0  0  0  0  0  0  0  0  0  0  0
   18.6670  -22.9222  -12.7434 N   0  0  0  0  0  0  0  0  0  0  0  0
   19.7771  -22.1851  -13.2893 C   0  0  0  0  0  0  0  0  0  0  0  0
   21.0767  -22.9611  -13.0685 C   0  0  0  0  0  0  0  0  0  0  0  0
   22.2544  -22.2566  -13.6551 C   0  0  0  0  0  0  0  0  0  0  0  0
   22.7425  -22.8817  -14.9369 C   0  0  2  0  0  0  0  0  0  0  0  0
   24.0938  -22.4277  -15.2666 N   0  0  0  0  0  0  0  0  0  0  0  0
   21.8927  -22.5949  -16.0995 C   0  0  0  0  0  0  0  0  0  0  0  0
   20.8041  -23.1924  -16.2334 O   0  0  0  0  0  0  0  0  0  0  0  0
   22.2260  -21.6748  -17.0932 O   0  0  0  0  0  0  0  0  0  0  0  0
  2  1  1  1
  2  3  1  0
  3  4  1  0
  4  9  2  0
  4  5  1  0
  5  6  2  0
  6  7  1  0
  8  7  2  0
  9  8  1  0
 10  2  1  0
 10 11  2  0
 12 10  1  0
 13 12  1  0
 13 14  1  6
 15 14  1  0
 15 16  1  0
 16 17  2  0
 16 20  1  0
 18 13  1  0
 19 18  2  0
 22 21  1  0
 22 24  1  0
 23 22  2  0
 24 25  1  0
 25 26  1  0
 26 27  1  0
 28 27  1  1
 28 29  1  0
 29 18  1  0
 30 28  1  0
 30 32  1  0
 31 30  2  0
M  END
$$$$
