FER.pdb
     RDKit          3D

 32 32  0  0  1  0  0  0  0  0999 V2000
   24.9776  -20.5460   -8.2681 N   0  0  0  0  0  0  0  0  0  0  0  0
   25.9569  -20.0634   -9.2370 C   0  0  1  0  0  0  0  0  0  0  0  0
   27.2530  -20.8639   -9.0584 C   0  0  0  0  0  0  0  0  0  0  0  0
   27.8474  -20.3827   -7.7863 C   0  0  0  0  0  0  0  0  0  0  0  0
   28.9910  -20.9650   -7.2881 C   0  0  0  0  0  0  0  0  0  0  0  0
   29.5386  -20.5030   -6.0844 C   0  0  0  0  0  0  0  0  0  0  0  0
   28.9503  -19.4704   -5.3872 C   0  0  0  0  0  0  0  0  0  0  0  0
   27.8071  -18.9036   -5.9063 C   0  0  0  0  0  0  0  0  0  0  0  0
   27.2582  -19.3504   -7.0902 C   0  0  0  0  0  0  0  0  0  0  0  0
   25.4315  -20.1569  -10.6200 C   0  0  0  0  0  0  0  0  0  0  0  0
   24.2109  -20.3882  -10.8353 O   0  0  0  0  0  0  0  0  0  0  0  0
   26.3038  -19.9857  -11.7143 N   0  0  0  0  0  0  0  0  0  0  0  0
   25.7984  -19.5625  -13.0406 C   0  0  1  0  0  0  0  0  0  0  0  0
   26.8814  -18.8086  -13.7446 C   0  0  0  0  0  0  0  0  0  0  0  0
   26.5663  -18.3109  -15.1143 C   0  0  0  0  0  0  0  0  0  0  0  0
   27.6429  -17.5482  -15.7722 C   0  0  0  0  0  0  0  0  0  0  0  0
   28.2758  -18.0392  -16.7287 O   0  0  0  0  0  0  0  0  0  0  0  0
   25.3039  -20.7609  -13.6873 C   0  0  0  0  0  0  0  0  0  0  0  0
   25.9391  -21.2327  -14.6923 O   0  0  0  0  0  0  0  0  0  0  0  0
   27.9741  -16.2777  -15.3469 O   0  0  0  0  0  0  0  0  0  0  0  0
   19.1227  -22.2279  -12.1890 N   0  0  0  0  0  0  0  0  0  0  0  0
   19.4800  -22.3540  -10.8222 C   0  0  0  0  0  0  0  0  0  0  0  0
   19.0409  -23.3449  -10.1452 N   0  0  0  0  0  0  0  0  0  0  0  0
   20.3173  -21.4067  -10.1864 N   0  0  0  0  0  0  0  0  0  0  0  0
   20.8177  -20.2690  -10.9137 C   0  0  0  0  0  0  0  0  0  0  0  0
   20.8738  -20.5898  -12.4083 C   0  0  0  0  0  0  0  0  0  0  0  0
   22.1479  -20.1255  -13.0317 C   0  0  0  0  0  0  0  0  0  0  0  0
   22.8320  -21.1913  -13.8490 C   0  0  2  0  0  0  0  0  0  0  0  0
   24.1621  -21.4929  -13.3193 N   0  0  0  0  0  0  0  0  0  0  0  0
   22.9983  -20.8395  -15.2648 C   0  0  0  0  0  0  0  0  0  0  0  0
   23.4735  -19.7267  -15.5749 O   0  0  0  0  0  0  0  0  0  0  0  0
   22.6531  -21.6860  -16.3181 O   0  0  0  0  0  0  0  0  0  0  0  0
  2  1  1  1
  2  3  1  0
  3  4  1  0
  4  9  2  0
  4  5  1  0
  5  6  2  0
  6  7  1  0
  8  7  2  0
  9  8  1  0
 10  2  1  0
 10 11  2  0
 12 10  1  0
 13 12  1  0
 13 14  1  6
 15 14  1  0
 15 16  1  0
 16 17  2  0
 16 20  1  0
 18 13  1  0
 19 18  2  0
 22 21  1  0
 22 24  1  0
 23 22  2  0
 24 25  1  0
 25 26  1  0
 26 27  1  0
 28 27  1  1
 28 29  1  0
 29 18  1  0
 30 28  1  0
 30 32  1  0
 31 30  2  0
M  END
$$$$
