FER.pdb
     RDKit          3D

 32 32  0  0  1  0  0  0  0  0999 V2000
   29.1455  -19.4097  -12.6073 N   0  0  0  0  0  0  0  0  0  0  0  0
   28.0327  -20.3465  -12.4848 C   0  0  1  0  0  0  0  0  0  0  0  0
   28.0033  -20.8812  -11.0475 C   0  0  0  0  0  0  0  0  0  0  0  0
   29.3373  -21.4912  -10.8210 C   0  0  0  0  0  0  0  0  0  0  0  0
   30.1627  -21.0118   -9.8290 C   0  0  0  0  0  0  0  0  0  0  0  0
   31.4205  -21.5948   -9.6292 C   0  0  0  0  0  0  0  0  0  0  0  0
   31.8483  -22.6453  -10.4116 C   0  0  0  0  0  0  0  0  0  0  0  0
   31.0043  -23.1076  -11.3973 C   0  0  0  0  0  0  0  0  0  0  0  0
   29.7637  -22.5412  -11.6039 C   0  0  0  0  0  0  0  0  0  0  0  0
   26.7510  -19.7069  -12.8667 C   0  0  0  0  0  0  0  0  0  0  0  0
   26.4196  -18.5863  -12.3932 O   0  0  0  0  0  0  0  0  0  0  0  0
   25.8862  -20.3557  -13.7717 N   0  0  0  0  0  0  0  0  0  0  0  0
   24.6377  -19.7099  -14.2381 C   0  0  1  0  0  0  0  0  0  0  0  0
   24.8307  -19.2665  -15.6534 C   0  0  0  0  0  0  0  0  0  0  0  0
   23.6491  -18.6585  -16.3294 C   0  0  0  0  0  0  0  0  0  0  0  0
   23.8520  -18.2856  -17.7413 C   0  0  0  0  0  0  0  0  0  0  0  0
   22.9348  -17.7481  -18.3942 O   0  0  0  0  0  0  0  0  0  0  0  0
   23.5719  -20.6582  -13.9855 C   0  0  0  0  0  0  0  0  0  0  0  0
   23.8702  -21.8437  -13.6092 O   0  0  0  0  0  0  0  0  0  0  0  0
   25.0572  -18.5215  -18.3711 O   0  0  0  0  0  0  0  0  0  0  0  0
   22.2896  -28.0044  -14.2378 N   0  0  0  0  0  0  0  0  0  0  0  0
   20.9991  -27.5348  -14.5926 C   0  0  0  0  0  0  0  0  0  0  0  0
   20.1797  -28.3237  -15.1749 N   0  0  0  0  0  0  0  0  0  0  0  0
   20.5928  -26.2081  -14.3140 N   0  0  0  0  0  0  0  0  0  0  0  0
   21.4868  -25.2936  -13.6520 C   0  0  0  0  0  0  0  0  0  0  0  0
   20.8435  -23.9087  -13.5633 C   0  0  0  0  0  0  0  0  0  0  0  0
   21.7942  -22.8255  -13.9510 C   0  0  0  0  0  0  0  0  0  0  0  0
   21.1873  -21.4478  -13.8763 C   0  0  2  0  0  0  0  0  0  0  0  0
   22.1939  -20.4121  -14.1103 N   0  0  0  0  0  0  0  0  0  0  0  0
   20.5483  -21.1487  -12.5885 C   0  0  0  0  0  0  0  0  0  0  0  0
   19.3241  -21.3495  -12.4431 O   0  0  0  0  0  0  0  0  0  0  0  0
   21.2331  -20.6418  -11.4843 O   0  0  0  0  0  0  0  0  0  0  0  0
  2  1  1  1
  2  3  1  0
  3  4  1  0
  4  9  2  0
  4  5  1  0
  5  6  2  0
  6  7  1  0
  8  7  2  0
  9  8  1  0
 10  2  1  0
 10 11  2  0
 12 10  1  0
 13 12  1  0
 13 14  1  6
 15 14  1  0
 15 16  1  0
 16 17  2  0
 16 20  1  0
 18 13  1  0
 19 18  2  0
 22 21  1  0
 22 24  1  0
 23 22  2  0
 24 25  1  0
 25 26  1  0
 26 27  1  0
 28 27  1  1
 28 29  1  0
 29 18  1  0
 30 28  1  0
 30 32  1  0
 31 30  2  0
M  END
$$$$
