FER.pdb
     RDKit          3D

 32 32  0  0  1  0  0  0  0  0999 V2000
   28.7450  -21.0434   -8.8227 N   0  0  0  0  0  0  0  0  0  0  0  0
   27.4215  -20.4277   -8.8287 C   0  0  1  0  0  0  0  0  0  0  0  0
   27.5089  -19.0798   -8.1022 C   0  0  0  0  0  0  0  0  0  0  0  0
   27.9147  -19.4015   -6.7112 C   0  0  0  0  0  0  0  0  0  0  0  0
   29.1462  -19.0095   -6.2370 C   0  0  0  0  0  0  0  0  0  0  0  0
   29.5174  -19.3234   -4.9233 C   0  0  0  0  0  0  0  0  0  0  0  0
   28.6670  -20.0206   -4.0929 C   0  0  0  0  0  0  0  0  0  0  0  0
   27.4400  -20.4014   -4.5902 C   0  0  0  0  0  0  0  0  0  0  0  0
   27.0639  -20.0987   -5.8822 C   0  0  0  0  0  0  0  0  0  0  0  0
   26.9059  -20.2822  -10.2110 C   0  0  0  0  0  0  0  0  0  0  0  0
   27.4400  -19.4764  -11.0203 O   0  0  0  0  0  0  0  0  0  0  0  0
   25.8032  -21.0529  -10.6326 N   0  0  0  0  0  0  0  0  0  0  0  0
   25.1731  -20.8332  -11.9547 C   0  0  1  0  0  0  0  0  0  0  0  0
   25.6107  -21.9252  -12.8783 C   0  0  0  0  0  0  0  0  0  0  0  0
   25.1577  -21.8227  -14.2950 C   0  0  0  0  0  0  0  0  0  0  0  0
   25.6272  -22.8983  -15.1875 C   0  0  0  0  0  0  0  0  0  0  0  0
   26.3684  -23.8039  -14.7552 O   0  0  0  0  0  0  0  0  0  0  0  0
   23.7505  -20.7093  -11.7104 C   0  0  0  0  0  0  0  0  0  0  0  0
   23.2602  -21.1910  -10.6317 O   0  0  0  0  0  0  0  0  0  0  0  0
   25.2587  -22.9281  -16.5172 O   0  0  0  0  0  0  0  0  0  0  0  0
   18.0184  -19.3600  -16.6806 N   0  0  0  0  0  0  0  0  0  0  0  0
   17.4685  -18.5013  -15.6947 C   0  0  0  0  0  0  0  0  0  0  0  0
   16.2004  -18.3668  -15.6130 N   0  0  0  0  0  0  0  0  0  0  0  0
   18.2931  -17.7880  -14.7925 N   0  0  0  0  0  0  0  0  0  0  0  0
   19.7261  -17.8196  -14.9307 C   0  0  0  0  0  0  0  0  0  0  0  0
   20.2850  -19.0832  -14.2742 C   0  0  0  0  0  0  0  0  0  0  0  0
   20.7344  -18.8326  -12.8733 C   0  0  0  0  0  0  0  0  0  0  0  0
   21.3865  -20.0324  -12.2352 C   0  0  2  0  0  0  0  0  0  0  0  0
   22.8126  -20.0937  -12.5568 N   0  0  0  0  0  0  0  0  0  0  0  0
   20.7954  -21.3147  -12.6380 C   0  0  0  0  0  0  0  0  0  0  0  0
   21.3415  -21.9948  -13.5320 O   0  0  0  0  0  0  0  0  0  0  0  0
   19.6332  -21.8416  -12.0752 O   0  0  0  0  0  0  0  0  0  0  0  0
  2  1  1  6
  2  3  1  0
  3  4  1  0
  4  9  2  0
  4  5  1  0
  5  6  2  0
  6  7  1  0
  8  7  2  0
  9  8  1  0
 10  2  1  0
 10 11  2  0
 12 10  1  0
 13 12  1  0
 13 14  1  6
 15 14  1  0
 15 16  1  0
 16 17  2  0
 16 20  1  0
 18 13  1  0
 19 18  2  0
 22 21  1  0
 22 24  1  0
 23 22  2  0
 24 25  1  0
 25 26  1  0
 26 27  1  0
 28 27  1  6
 28 29  1  0
 29 18  1  0
 30 28  1  0
 30 32  1  0
 31 30  2  0
M  END
$$$$
