FER.pdb
     RDKit          3D

 32 32  0  0  1  0  0  0  0  0999 V2000
   27.7469  -20.7169  -15.5683 N   0  0  0  0  0  0  0  0  0  0  0  0
   26.8364  -19.8798  -14.7932 C   0  0  1  0  0  0  0  0  0  0  0  0
   26.0511  -18.9880  -15.7630 C   0  0  0  0  0  0  0  0  0  0  0  0
   27.0183  -17.9679  -16.2396 C   0  0  0  0  0  0  0  0  0  0  0  0
   27.5555  -18.0551  -17.5041 C   0  0  0  0  0  0  0  0  0  0  0  0
   28.4701  -17.0874  -17.9391 C   0  0  0  0  0  0  0  0  0  0  0  0
   28.8429  -16.0442  -17.1197 C   0  0  0  0  0  0  0  0  0  0  0  0
   28.2913  -15.9784  -15.8591 C   0  0  0  0  0  0  0  0  0  0  0  0
   27.3903  -16.9258  -15.4195 C   0  0  0  0  0  0  0  0  0  0  0  0
   25.9411  -20.7047  -13.9472 C   0  0  0  0  0  0  0  0  0  0  0  0
   25.4819  -21.8013  -14.3670 O   0  0  0  0  0  0  0  0  0  0  0  0
   25.5947  -20.2624  -12.6541 N   0  0  0  0  0  0  0  0  0  0  0  0
   24.6529  -21.0293  -11.8067 C   0  0  1  0  0  0  0  0  0  0  0  0
   24.9043  -20.6761  -10.3752 C   0  0  0  0  0  0  0  0  0  0  0  0
   26.3193  -20.7412   -9.9103 C   0  0  0  0  0  0  0  0  0  0  0  0
   26.5445  -20.3288   -8.5128 C   0  0  0  0  0  0  0  0  0  0  0  0
   26.5291  -19.1220   -8.1965 O   0  0  0  0  0  0  0  0  0  0  0  0
   23.3279  -20.7606  -12.3274 C   0  0  0  0  0  0  0  0  0  0  0  0
   23.0683  -19.6004  -12.7991 O   0  0  0  0  0  0  0  0  0  0  0  0
   26.7763  -21.2649   -7.5255 O   0  0  0  0  0  0  0  0  0  0  0  0
   19.5201  -20.5477  -18.9288 N   0  0  0  0  0  0  0  0  0  0  0  0
   20.1608  -19.8986  -17.8426 C   0  0  0  0  0  0  0  0  0  0  0  0
   20.7831  -18.8006  -18.0433 N   0  0  0  0  0  0  0  0  0  0  0  0
   20.1260  -20.4375  -16.5345 N   0  0  0  0  0  0  0  0  0  0  0  0
   19.3654  -21.6278  -16.2544 C   0  0  0  0  0  0  0  0  0  0  0  0
   19.3007  -21.8612  -14.7441 C   0  0  0  0  0  0  0  0  0  0  0  0
   20.6469  -22.1430  -14.1645 C   0  0  0  0  0  0  0  0  0  0  0  0
   20.9538  -21.3128  -12.9444 C   0  0  2  0  0  0  0  0  0  0  0  0
   22.2549  -21.6668  -12.3764 N   0  0  0  0  0  0  0  0  0  0  0  0
   19.9612  -21.4447  -11.8705 C   0  0  0  0  0  0  0  0  0  0  0  0
   20.2984  -21.9347  -10.7722 O   0  0  0  0  0  0  0  0  0  0  0  0
   18.6296  -21.0491  -11.9949 O   0  0  0  0  0  0  0  0  0  0  0  0
  2  1  1  6
  2  3  1  0
  3  4  1  0
  4  9  2  0
  4  5  1  0
  5  6  2  0
  6  7  1  0
  8  7  2  0
  9  8  1  0
 10  2  1  0
 10 11  2  0
 12 10  1  0
 13 12  1  0
 13 14  1  1
 15 14  1  0
 15 16  1  0
 16 17  2  0
 16 20  1  0
 18 13  1  0
 19 18  2  0
 22 21  1  0
 22 24  1  0
 23 22  2  0
 24 25  1  0
 25 26  1  0
 26 27  1  0
 28 27  1  6
 28 29  1  0
 29 18  1  0
 30 28  1  0
 30 32  1  0
 31 30  2  0
M  END
$$$$
