FER.pdb
     RDKit          3D

 32 32  0  0  1  0  0  0  0  0999 V2000
   33.8603  -25.0459  -13.6510 N   0  0  0  0  0  0  0  0  0  0  0  0
   32.7420  -24.1665  -13.9779 C   0  0  1  0  0  0  0  0  0  0  0  0
   33.1601  -22.7197  -13.6875 C   0  0  0  0  0  0  0  0  0  0  0  0
   33.0734  -22.5672  -12.2136 C   0  0  0  0  0  0  0  0  0  0  0  0
   34.1445  -22.8993  -11.4151 C   0  0  0  0  0  0  0  0  0  0  0  0
   34.0470  -22.7538  -10.0254 C   0  0  0  0  0  0  0  0  0  0  0  0
   32.8924  -22.2812   -9.4405 C   0  0  0  0  0  0  0  0  0  0  0  0
   31.8346  -21.9551  -10.2606 C   0  0  0  0  0  0  0  0  0  0  0  0
   31.9185  -22.0948  -11.6302 C   0  0  0  0  0  0  0  0  0  0  0  0
   32.3116  -24.3495  -15.3846 C   0  0  0  0  0  0  0  0  0  0  0  0
   33.1390  -24.2620  -16.3320 O   0  0  0  0  0  0  0  0  0  0  0  0
   30.9596  -24.6255  -15.6738 N   0  0  0  0  0  0  0  0  0  0  0  0
   30.3893  -24.3523  -17.0129 C   0  0  1  0  0  0  0  0  0  0  0  0
   30.3852  -25.6254  -17.7978 C   0  0  0  0  0  0  0  0  0  0  0  0
   31.7162  -26.1813  -18.1750 C   0  0  0  0  0  0  0  0  0  0  0  0
   31.6798  -27.3820  -19.0299 C   0  0  0  0  0  0  0  0  0  0  0  0
   32.7378  -27.9248  -19.4074 O   0  0  0  0  0  0  0  0  0  0  0  0
   29.1079  -23.7157  -16.7857 C   0  0  0  0  0  0  0  0  0  0  0  0
   28.3351  -24.1793  -15.8780 O   0  0  0  0  0  0  0  0  0  0  0  0
   30.4788  -27.9314  -19.4305 O   0  0  0  0  0  0  0  0  0  0  0  0
   25.1989  -21.3814  -11.1500 N   0  0  0  0  0  0  0  0  0  0  0  0
   24.5389  -21.1686  -12.3872 C   0  0  0  0  0  0  0  0  0  0  0  0
   23.2728  -21.3250  -12.4609 N   0  0  0  0  0  0  0  0  0  0  0  0
   25.2506  -20.7827  -13.5480 N   0  0  0  0  0  0  0  0  0  0  0  0
   26.6854  -20.6630  -13.5196 C   0  0  0  0  0  0  0  0  0  0  0  0
   27.1976  -20.2122  -14.8887 C   0  0  0  0  0  0  0  0  0  0  0  0
   28.1003  -21.2262  -15.5087 C   0  0  0  0  0  0  0  0  0  0  0  0
   27.6410  -21.6754  -16.8723 C   0  0  2  0  0  0  0  0  0  0  0  0
   28.5995  -22.6018  -17.4755 N   0  0  0  0  0  0  0  0  0  0  0  0
   27.4422  -20.5757  -17.8247 C   0  0  0  0  0  0  0  0  0  0  0  0
   26.3880  -20.5172  -18.4921 O   0  0  0  0  0  0  0  0  0  0  0  0
   28.3755  -19.5623  -18.0422 O   0  0  0  0  0  0  0  0  0  0  0  0
  2  1  1  6
  2  3  1  0
  3  4  1  0
  4  9  2  0
  4  5  1  0
  5  6  2  0
  6  7  1  0
  8  7  2  0
  9  8  1  0
 10  2  1  0
 10 11  2  0
 12 10  1  0
 13 12  1  0
 13 14  1  1
 15 14  1  0
 15 16  1  0
 16 17  2  0
 16 20  1  0
 18 13  1  0
 19 18  2  0
 22 21  1  0
 22 24  1  0
 23 22  2  0
 24 25  1  0
 25 26  1  0
 26 27  1  0
 28 27  1  1
 28 29  1  0
 29 18  1  0
 30 28  1  0
 30 32  1  0
 31 30  2  0
M  END
$$$$
