FER.pdb
     RDKit          3D

 32 32  0  0  1  0  0  0  0  0999 V2000
   26.7481  -21.1201  -14.3772 N   0  0  0  0  0  0  0  0  0  0  0  0
   25.6230  -20.3715  -14.9290 C   0  0  1  0  0  0  0  0  0  0  0  0
   25.5761  -20.6099  -16.4434 C   0  0  0  0  0  0  0  0  0  0  0  0
   26.6908  -19.8090  -17.0083 C   0  0  0  0  0  0  0  0  0  0  0  0
   26.6139  -18.4349  -17.0411 C   0  0  0  0  0  0  0  0  0  0  0  0
   27.6719  -17.6921  -17.5806 C   0  0  0  0  0  0  0  0  0  0  0  0
   28.7940  -18.3157  -18.0811 C   0  0  0  0  0  0  0  0  0  0  0  0
   28.8477  -19.6916  -18.0367 C   0  0  0  0  0  0  0  0  0  0  0  0
   27.8119  -20.4336  -17.5084 C   0  0  0  0  0  0  0  0  0  0  0  0
   24.3522  -20.7511  -14.2666 C   0  0  0  0  0  0  0  0  0  0  0  0
   24.2983  -21.7399  -13.4862 O   0  0  0  0  0  0  0  0  0  0  0  0
   23.1840  -19.9997  -14.5085 N   0  0  0  0  0  0  0  0  0  0  0  0
   21.9132  -20.3108  -13.8145 C   0  0  1  0  0  0  0  0  0  0  0  0
   21.0466  -19.0921  -13.8384 C   0  0  0  0  0  0  0  0  0  0  0  0
   19.6914  -19.2247  -13.2314 C   0  0  0  0  0  0  0  0  0  0  0  0
   18.8706  -18.0000  -13.2453 C   0  0  0  0  0  0  0  0  0  0  0  0
   18.5474  -17.4644  -14.3248 O   0  0  0  0  0  0  0  0  0  0  0  0
   21.3877  -21.5039  -14.4464 C   0  0  0  0  0  0  0  0  0  0  0  0
   20.9048  -21.4209  -15.6279 O   0  0  0  0  0  0  0  0  0  0  0  0
   18.4421  -17.4198  -12.0686 O   0  0  0  0  0  0  0  0  0  0  0  0
   19.5643  -28.8517  -12.0077 N   0  0  0  0  0  0  0  0  0  0  0  0
   20.0160  -27.7852  -11.1890 C   0  0  0  0  0  0  0  0  0  0  0  0
   21.0169  -27.9654  -10.4152 N   0  0  0  0  0  0  0  0  0  0  0  0
   19.3848  -26.5188  -11.2095 N   0  0  0  0  0  0  0  0  0  0  0  0
   18.2896  -26.2625  -12.1088 C   0  0  0  0  0  0  0  0  0  0  0  0
   18.8008  -25.5500  -13.3622 C   0  0  0  0  0  0  0  0  0  0  0  0
   19.8284  -24.5175  -13.0376 C   0  0  0  0  0  0  0  0  0  0  0  0
   20.3292  -23.7762  -14.2507 C   0  0  2  0  0  0  0  0  0  0  0  0
   21.3492  -22.7924  -13.8867 N   0  0  0  0  0  0  0  0  0  0  0  0
   19.2788  -23.0604  -14.9857 C   0  0  0  0  0  0  0  0  0  0  0  0
   19.1393  -23.2534  -16.2119 O   0  0  0  0  0  0  0  0  0  0  0  0
   18.4001  -22.1540  -14.3927 O   0  0  0  0  0  0  0  0  0  0  0  0
  2  1  1  1
  2  3  1  0
  3  4  1  0
  4  9  2  0
  4  5  1  0
  5  6  2  0
  6  7  1  0
  8  7  2  0
  9  8  1  0
 10  2  1  0
 10 11  2  0
 12 10  1  0
 13 12  1  0
 13 14  1  6
 15 14  1  0
 15 16  1  0
 16 17  2  0
 16 20  1  0
 18 13  1  0
 19 18  2  0
 22 21  1  0
 22 24  1  0
 23 22  2  0
 24 25  1  0
 25 26  1  0
 26 27  1  0
 28 27  1  1
 28 29  1  0
 29 18  1  0
 30 28  1  0
 30 32  1  0
 31 30  2  0
M  END
$$$$
