FER.pdb
     RDKit          3D

 32 32  0  0  1  0  0  0  0  0999 V2000
   28.8241  -20.4087   -8.5792 N   0  0  0  0  0  0  0  0  0  0  0  0
   27.3852  -20.4081   -8.3338 C   0  0  1  0  0  0  0  0  0  0  0  0
   27.0702  -19.3287   -7.2907 C   0  0  0  0  0  0  0  0  0  0  0  0
   27.9076  -19.6578   -6.1102 C   0  0  0  0  0  0  0  0  0  0  0  0
   27.6429  -20.7815   -5.3604 C   0  0  0  0  0  0  0  0  0  0  0  0
   28.4392  -21.0776   -4.2467 C   0  0  0  0  0  0  0  0  0  0  0  0
   29.4884  -20.2600   -3.8870 C   0  0  0  0  0  0  0  0  0  0  0  0
   29.7337  -19.1418   -4.6532 C   0  0  0  0  0  0  0  0  0  0  0  0
   28.9560  -18.8396   -5.7516 C   0  0  0  0  0  0  0  0  0  0  0  0
   26.6284  -20.2033   -9.5920 C   0  0  0  0  0  0  0  0  0  0  0  0
   26.8317  -19.1889  -10.3127 O   0  0  0  0  0  0  0  0  0  0  0  0
   25.6667  -21.1527   -9.9940 N   0  0  0  0  0  0  0  0  0  0  0  0
   24.9551  -21.0252  -11.2866 C   0  0  1  0  0  0  0  0  0  0  0  0
   25.4432  -22.0985  -12.2068 C   0  0  0  0  0  0  0  0  0  0  0  0
   24.9070  -22.0798  -13.5978 C   0  0  0  0  0  0  0  0  0  0  0  0
   25.5762  -21.1442  -14.5201 C   0  0  0  0  0  0  0  0  0  0  0  0
   26.8211  -21.0704  -14.5569 O   0  0  0  0  0  0  0  0  0  0  0  0
   23.5409  -21.0214  -10.9723 C   0  0  0  0  0  0  0  0  0  0  0  0
   22.9537  -22.1322  -10.7329 O   0  0  0  0  0  0  0  0  0  0  0  0
   24.8436  -20.3316  -15.3613 O   0  0  0  0  0  0  0  0  0  0  0  0
   20.8015  -19.0830  -18.2596 N   0  0  0  0  0  0  0  0  0  0  0  0
   21.2016  -20.3855  -17.8658 C   0  0  0  0  0  0  0  0  0  0  0  0
   21.3238  -21.3010  -18.7489 N   0  0  0  0  0  0  0  0  0  0  0  0
   21.4730  -20.6980  -16.5124 N   0  0  0  0  0  0  0  0  0  0  0  0
   21.3455  -19.6917  -15.4902 C   0  0  0  0  0  0  0  0  0  0  0  0
   21.8045  -20.2555  -14.1443 C   0  0  0  0  0  0  0  0  0  0  0  0
   21.8302  -19.2093  -13.0802 C   0  0  0  0  0  0  0  0  0  0  0  0
   21.5030  -19.7471  -11.7106 C   0  0  2  0  0  0  0  0  0  0  0  0
   22.7098  -19.8907  -10.8959 N   0  0  0  0  0  0  0  0  0  0  0  0
   20.8340  -21.0540  -11.7294 C   0  0  0  0  0  0  0  0  0  0  0  0
   19.6393  -21.1434  -11.3762 O   0  0  0  0  0  0  0  0  0  0  0  0
   21.4577  -22.2368  -12.1260 O   0  0  0  0  0  0  0  0  0  0  0  0
  2  1  1  6
  2  3  1  0
  3  4  1  0
  4  9  2  0
  4  5  1  0
  5  6  2  0
  6  7  1  0
  8  7  2  0
  9  8  1  0
 10  2  1  0
 10 11  2  0
 12 10  1  0
 13 12  1  0
 13 14  1  6
 15 14  1  0
 15 16  1  0
 16 17  2  0
 16 20  1  0
 18 13  1  0
 19 18  2  0
 22 21  1  0
 22 24  1  0
 23 22  2  0
 24 25  1  0
 25 26  1  0
 26 27  1  0
 28 27  1  6
 28 29  1  0
 29 18  1  0
 30 28  1  0
 30 32  1  0
 31 30  2  0
M  END
$$$$
