FER.pdb
     RDKit          3D

 32 32  0  0  1  0  0  0  0  0999 V2000
   26.3643  -22.0076   -8.2280 N   0  0  0  0  0  0  0  0  0  0  0  0
   25.9568  -20.7500   -8.8471 C   0  0  1  0  0  0  0  0  0  0  0  0
   27.2069  -19.8893   -9.0682 C   0  0  0  0  0  0  0  0  0  0  0  0
   27.6891  -19.5295   -7.7113 C   0  0  0  0  0  0  0  0  0  0  0  0
   27.3303  -18.3293   -7.1406 C   0  0  0  0  0  0  0  0  0  0  0  0
   27.7960  -18.0014   -5.8608 C   0  0  0  0  0  0  0  0  0  0  0  0
   28.6105  -18.8636   -5.1595 C   0  0  0  0  0  0  0  0  0  0  0  0
   28.9551  -20.0588   -5.7516 C   0  0  0  0  0  0  0  0  0  0  0  0
   28.5033  -20.3923   -7.0114 C   0  0  0  0  0  0  0  0  0  0  0  0
   25.2167  -20.9905  -10.1089 C   0  0  0  0  0  0  0  0  0  0  0  0
   25.6471  -21.8081  -10.9668 O   0  0  0  0  0  0  0  0  0  0  0  0
   24.0141  -20.2986  -10.3589 N   0  0  0  0  0  0  0  0  0  0  0  0
   23.2430  -20.5234  -11.6032 C   0  0  1  0  0  0  0  0  0  0  0  0
   21.7853  -20.4144  -11.2866 C   0  0  0  0  0  0  0  0  0  0  0  0
   20.8410  -20.5603  -12.4310 C   0  0  0  0  0  0  0  0  0  0  0  0
   19.4166  -20.3666  -12.1030 C   0  0  0  0  0  0  0  0  0  0  0  0
   19.0719  -20.0031  -10.9604 O   0  0  0  0  0  0  0  0  0  0  0  0
   23.7743  -19.5972  -12.5824 C   0  0  0  0  0  0  0  0  0  0  0  0
   23.2595  -18.4303  -12.6785 O   0  0  0  0  0  0  0  0  0  0  0  0
   18.4352  -20.5818  -13.0492 O   0  0  0  0  0  0  0  0  0  0  0  0
   29.0939  -21.2006  -17.3324 N   0  0  0  0  0  0  0  0  0  0  0  0
   28.4405  -22.2205  -16.5944 C   0  0  0  0  0  0  0  0  0  0  0  0
   29.1017  -22.9002  -15.7377 N   0  0  0  0  0  0  0  0  0  0  0  0
   27.0668  -22.5042  -16.7817 N   0  0  0  0  0  0  0  0  0  0  0  0
   26.3039  -21.7980  -17.7782 C   0  0  0  0  0  0  0  0  0  0  0  0
   25.3886  -20.7742  -17.1046 C   0  0  0  0  0  0  0  0  0  0  0  0
   25.4624  -20.8533  -15.6160 C   0  0  0  0  0  0  0  0  0  0  0  0
   24.6736  -19.7712  -14.9240 C   0  0  2  0  0  0  0  0  0  0  0  0
   24.8339  -19.8454  -13.4716 N   0  0  0  0  0  0  0  0  0  0  0  0
   23.2328  -19.8142  -15.2042 C   0  0  0  0  0  0  0  0  0  0  0  0
   22.6038  -20.8825  -15.0516 O   0  0  0  0  0  0  0  0  0  0  0  0
   22.4964  -18.7133  -15.6411 O   0  0  0  0  0  0  0  0  0  0  0  0
  2  1  1  6
  2  3  1  0
  3  4  1  0
  4  9  2  0
  4  5  1  0
  5  6  2  0
  6  7  1  0
  8  7  2  0
  9  8  1  0
 10  2  1  0
 10 11  2  0
 12 10  1  0
 13 12  1  0
 13 14  1  1
 15 14  1  0
 15 16  1  0
 16 17  2  0
 16 20  1  0
 18 13  1  0
 19 18  2  0
 22 21  1  0
 22 24  1  0
 23 22  2  0
 24 25  1  0
 25 26  1  0
 26 27  1  0
 28 27  1  6
 28 29  1  0
 29 18  1  0
 30 28  1  0
 30 32  1  0
 31 30  2  0
M  END
$$$$
