SHP.pdb
     RDKit          3D

 24 25  0  0  1  0  0  0  0  0999 V2000
   18.8875  -11.2130  -16.9883 O   0  0  0  0  0  0  0  0  0  0  0  0
   18.9807  -11.8305  -15.7359 C   0  0  0  0  0  0  0  0  0  0  0  0
   17.9879  -11.2025  -14.8277 C   0  0  2  0  0  0  0  0  0  0  0  0
   16.6678  -11.3764  -15.3912 N   0  0  0  0  0  0  0  0  0  0  0  0
   18.1990   -9.8120  -14.4913 C   0  0  0  0  0  0  0  0  0  0  0  0
   17.5116   -8.9313  -15.1114 O   0  0  0  0  0  0  0  0  0  0  0  0
   19.0895   -9.2949  -13.5420 N   0  0  0  0  0  0  0  0  0  0  0  0
   19.3194   -7.8895  -13.2615 C   0  0  1  0  0  0  0  0  0  0  0  0
   19.6434   -7.6884  -11.7974 C   0  0  0  0  0  0  0  0  0  0  0  0
   18.4451   -7.8883  -10.9436 C   0  0  0  0  0  0  0  0  0  0  0  0
   17.6577   -6.8849  -10.4362 C   0  0  0  0  0  0  0  0  0  0  0  0
   16.6768   -7.4728   -9.7187 N   0  0  0  0  0  0  0  0  0  0  0  0
   16.8274   -8.8103   -9.7621 C   0  0  0  0  0  0  0  0  0  0  0  0
   17.9272   -9.0383  -10.5253 N   0  0  0  0  0  0  0  0  0  0  0  0
   20.4457   -7.4026  -14.0641 C   0  0  0  0  0  0  0  0  0  0  0  0
   21.3767   -8.2161  -14.4168 O   0  0  0  0  0  0  0  0  0  0  0  0
   20.5775   -6.0717  -14.4862 N   0  0  0  0  0  0  0  0  0  0  0  0
   19.6602   -4.9848  -14.0789 C   0  0  0  0  0  0  0  0  0  0  0  0
   19.6318   -4.0324  -15.2275 C   0  0  0  0  0  0  0  0  0  0  0  0
   20.6161   -4.6089  -16.2385 C   0  0  0  0  0  0  0  0  0  0  0  0
   21.5573   -5.3868  -15.3099 C   0  0  1  0  0  0  0  0  0  0  0  0
   22.4023   -4.4646  -14.5286 C   0  0  0  0  0  0  0  0  0  0  0  0
   22.0763   -4.1260  -13.3798 O   0  0  0  0  0  0  0  0  0  0  0  0
   23.5647   -3.9759  -15.0823 O   0  0  0  0  0  0  0  0  0  0  0  0
  2  1  1  0
  3  5  1  0
  3  2  1  0
  3  4  1  6
  5  6  2  0
  7  5  1  0
  8  7  1  0
  9 10  1  0
  8  9  1  1
 10 14  1  0
 11 12  1  0
 11 10  2  0
 12 13  1  0
 13 14  2  0
 15  8  1  0
 15 17  1  0
 16 15  2  0
 17 18  1  0
 19 18  1  0
 20 19  1  0
 20 21  1  0
 21 17  1  0
 21 22  1  1
 22 24  1  0
 23 22  2  0
M  END
$$$$
