SHP.pdb
     RDKit          3D

 24 25  0  0  1  0  0  0  0  0999 V2000
   21.4982  -12.4572  -18.1652 O   0  0  0  0  0  0  0  0  0  0  0  0
   20.7355  -11.4468  -17.5688 C   0  0  0  0  0  0  0  0  0  0  0  0
   21.2441  -10.1340  -18.0407 C   0  0  2  0  0  0  0  0  0  0  0  0
   22.6891  -10.1514  -17.9930 N   0  0  0  0  0  0  0  0  0  0  0  0
   20.7444   -8.9585  -17.3628 C   0  0  0  0  0  0  0  0  0  0  0  0
   19.4787   -8.8012  -17.2842 O   0  0  0  0  0  0  0  0  0  0  0  0
   21.4971   -7.9409  -16.7634 N   0  0  0  0  0  0  0  0  0  0  0  0
   20.9692   -6.7449  -16.1327 C   0  0  1  0  0  0  0  0  0  0  0  0
   21.2780   -6.7478  -14.6517 C   0  0  0  0  0  0  0  0  0  0  0  0
   20.4286   -7.7227  -13.9216 C   0  0  0  0  0  0  0  0  0  0  0  0
   19.2989   -7.4101  -13.2074 C   0  0  0  0  0  0  0  0  0  0  0  0
   18.8172   -8.5642  -12.6989 N   0  0  0  0  0  0  0  0  0  0  0  0
   19.6104   -9.5863  -13.0728 C   0  0  0  0  0  0  0  0  0  0  0  0
   20.5974   -9.0373  -13.8269 N   0  0  0  0  0  0  0  0  0  0  0  0
   21.5778   -5.5563  -16.7382 C   0  0  0  0  0  0  0  0  0  0  0  0
   22.8416   -5.5364  -16.9737 O   0  0  0  0  0  0  0  0  0  0  0  0
   20.8524   -4.4087  -17.0894 N   0  0  0  0  0  0  0  0  0  0  0  0
   19.4099   -4.2308  -16.8136 C   0  0  0  0  0  0  0  0  0  0  0  0
   18.8929   -3.3723  -17.9195 C   0  0  0  0  0  0  0  0  0  0  0  0
   20.1186   -3.0391  -18.7621 C   0  0  0  0  0  0  0  0  0  0  0  0
   21.2286   -3.1508  -17.7092 C   0  0  1  0  0  0  0  0  0  0  0  0
   21.1705   -2.0195  -16.7648 C   0  0  0  0  0  0  0  0  0  0  0  0
   21.5680   -0.8926  -17.1010 O   0  0  0  0  0  0  0  0  0  0  0  0
   20.6694   -2.2187  -15.4977 O   0  0  0  0  0  0  0  0  0  0  0  0
  2  1  1  0
  3  5  1  0
  3  2  1  0
  3  4  1  1
  5  6  2  0
  7  5  1  0
  8  7  1  0
  9 10  1  0
  8  9  1  1
 10 14  1  0
 11 12  1  0
 11 10  2  0
 12 13  1  0
 13 14  2  0
 15  8  1  0
 15 17  1  0
 16 15  2  0
 17 18  1  0
 19 18  1  0
 20 19  1  0
 20 21  1  0
 21 17  1  0
 21 22  1  1
 22 24  1  0
 23 22  2  0
M  END
$$$$
