SHP.pdb
     RDKit          3D

 24 25  0  0  1  0  0  0  0  0999 V2000
   18.7649  -14.8637  -17.9963 O   0  0  0  0  0  0  0  0  0  0  0  0
   19.3115  -14.0708  -16.9810 C   0  0  0  0  0  0  0  0  0  0  0  0
   20.7539  -13.8673  -17.2693 C   0  0  2  0  0  0  0  0  0  0  0  0
   21.4679  -15.0824  -16.9466 N   0  0  0  0  0  0  0  0  0  0  0  0
   21.3937  -12.7377  -16.6323 C   0  0  0  0  0  0  0  0  0  0  0  0
   21.3447  -12.6577  -15.3579 O   0  0  0  0  0  0  0  0  0  0  0  0
   22.0813  -11.6894  -17.2566 N   0  0  0  0  0  0  0  0  0  0  0  0
   22.6101  -10.5053  -16.6045 C   0  0  1  0  0  0  0  0  0  0  0  0
   23.9559  -10.1363  -17.1889 C   0  0  0  0  0  0  0  0  0  0  0  0
   25.0027  -11.1162  -16.8031 C   0  0  0  0  0  0  0  0  0  0  0  0
   25.8260  -11.0069  -15.7103 C   0  0  0  0  0  0  0  0  0  0  0  0
   26.6308  -12.0907  -15.7080 N   0  0  0  0  0  0  0  0  0  0  0  0
   26.3361  -12.8722  -16.7644 C   0  0  0  0  0  0  0  0  0  0  0  0
   25.3272  -12.2458  -17.4231 N   0  0  0  0  0  0  0  0  0  0  0  0
   21.6888   -9.3811  -16.7973 C   0  0  0  0  0  0  0  0  0  0  0  0
   21.0761   -9.2435  -17.9191 O   0  0  0  0  0  0  0  0  0  0  0  0
   21.4226   -8.4204  -15.8109 N   0  0  0  0  0  0  0  0  0  0  0  0
   22.1073   -8.3754  -14.5003 C   0  0  0  0  0  0  0  0  0  0  0  0
   21.1082   -7.8130  -13.5449 C   0  0  0  0  0  0  0  0  0  0  0  0
   19.8863   -7.4946  -14.3986 C   0  0  0  0  0  0  0  0  0  0  0  0
   20.5440   -7.2655  -15.7654 C   0  0  1  0  0  0  0  0  0  0  0  0
   21.2882   -5.9923  -15.7818 C   0  0  0  0  0  0  0  0  0  0  0  0
   20.6934   -4.9127  -15.9282 O   0  0  0  0  0  0  0  0  0  0  0  0
   22.6571   -6.0048  -15.6326 O   0  0  0  0  0  0  0  0  0  0  0  0
  2  1  1  0
  3  5  1  0
  3  2  1  0
  3  4  1  1
  5  6  2  0
  7  5  1  0
  8  7  1  0
  9 10  1  0
  8  9  1  6
 10 14  1  0
 11 12  1  0
 11 10  2  0
 12 13  1  0
 13 14  2  0
 15  8  1  0
 15 17  1  0
 16 15  2  0
 17 18  1  0
 19 18  1  0
 20 19  1  0
 20 21  1  0
 21 17  1  0
 21 22  1  1
 22 24  1  0
 23 22  2  0
M  END
$$$$
