SHP.pdb
     RDKit          3D

 24 25  0  0  1  0  0  0  0  0999 V2000
   21.8385  -18.3555  -19.1419 O   0  0  0  0  0  0  0  0  0  0  0  0
   22.0298  -17.0628  -18.6411 C   0  0  0  0  0  0  0  0  0  0  0  0
   23.4423  -16.9338  -18.2016 C   0  0  2  0  0  0  0  0  0  0  0  0
   24.2851  -16.8299  -19.3717 N   0  0  0  0  0  0  0  0  0  0  0  0
   23.9485  -17.9635  -17.3215 C   0  0  0  0  0  0  0  0  0  0  0  0
   25.0671  -18.5081  -17.6127 O   0  0  0  0  0  0  0  0  0  0  0  0
   23.3478  -18.4526  -16.1547 N   0  0  0  0  0  0  0  0  0  0  0  0
   23.9122  -19.4379  -15.2506 C   0  0  1  0  0  0  0  0  0  0  0  0
   23.2956  -19.3081  -13.8751 C   0  0  0  0  0  0  0  0  0  0  0  0
   23.8481  -20.3157  -12.9348 C   0  0  0  0  0  0  0  0  0  0  0  0
   23.2006  -21.4537  -12.5230 C   0  0  0  0  0  0  0  0  0  0  0  0
   24.0310  -22.1006  -11.6777 N   0  0  0  0  0  0  0  0  0  0  0  0
   25.1754  -21.4025  -11.5490 C   0  0  0  0  0  0  0  0  0  0  0  0
   25.0344  -20.3050  -12.3363 N   0  0  0  0  0  0  0  0  0  0  0  0
   23.6463  -20.7867  -15.7602 C   0  0  0  0  0  0  0  0  0  0  0  0
   22.5448  -21.0302  -16.3769 O   0  0  0  0  0  0  0  0  0  0  0  0
   24.5397  -21.8583  -15.6177 N   0  0  0  0  0  0  0  0  0  0  0  0
   25.8042  -21.7791  -14.8539 C   0  0  0  0  0  0  0  0  0  0  0  0
   26.7433  -22.7185  -15.5343 C   0  0  0  0  0  0  0  0  0  0  0  0
   25.9210  -23.3556  -16.6484 C   0  0  0  0  0  0  0  0  0  0  0  0
   24.5078  -23.2398  -16.0630 C   0  0  1  0  0  0  0  0  0  0  0  0
   24.3242  -24.1860  -14.9466 C   0  0  0  0  0  0  0  0  0  0  0  0
   24.4151  -23.8024  -13.7696 O   0  0  0  0  0  0  0  0  0  0  0  0
   24.0490  -25.5080  -15.2165 O   0  0  0  0  0  0  0  0  0  0  0  0
  2  1  1  0
  3  5  1  0
  3  2  1  0
  3  4  1  6
  5  6  2  0
  7  5  1  0
  8  7  1  0
  9 10  1  0
  8  9  1  1
 10 14  1  0
 11 12  1  0
 11 10  2  0
 12 13  1  0
 13 14  2  0
 15  8  1  0
 15 17  1  0
 16 15  2  0
 17 18  1  0
 19 18  1  0
 20 19  1  0
 20 21  1  0
 21 17  1  0
 21 22  1  1
 22 24  1  0
 23 22  2  0
M  END
$$$$
