SHP.pdb
     RDKit          3D

 24 25  0  0  1  0  0  0  0  0999 V2000
   35.5540  -31.9753  -10.6548 O   0  0  0  0  0  0  0  0  0  0  0  0
   36.2117  -31.7797  -11.8744 C   0  0  0  0  0  0  0  0  0  0  0  0
   35.6472  -32.7264  -12.8694 C   0  0  2  0  0  0  0  0  0  0  0  0
   35.9769  -34.0751  -12.4662 N   0  0  0  0  0  0  0  0  0  0  0  0
   36.0218  -32.5212  -14.2510 C   0  0  0  0  0  0  0  0  0  0  0  0
   36.9377  -33.2639  -14.7432 O   0  0  0  0  0  0  0  0  0  0  0  0
   35.4896  -31.5823  -15.1435 N   0  0  0  0  0  0  0  0  0  0  0  0
   35.8883  -31.3954  -16.5266 C   0  0  1  0  0  0  0  0  0  0  0  0
   34.7869  -30.7118  -17.3068 C   0  0  0  0  0  0  0  0  0  0  0  0
   33.5951  -31.5868  -17.4442 C   0  0  0  0  0  0  0  0  0  0  0  0
   33.2496  -32.2826  -18.5758 C   0  0  0  0  0  0  0  0  0  0  0  0
   32.1117  -32.9540  -18.2985 N   0  0  0  0  0  0  0  0  0  0  0  0
   31.7364  -32.6991  -17.0305 C   0  0  0  0  0  0  0  0  0  0  0  0
   32.6708  -31.8519  -16.5272 N   0  0  0  0  0  0  0  0  0  0  0  0
   37.0938  -30.5629  -16.5859 C   0  0  0  0  0  0  0  0  0  0  0  0
   37.2369  -29.5877  -15.7605 O   0  0  0  0  0  0  0  0  0  0  0  0
   38.1309  -30.7668  -17.5076 N   0  0  0  0  0  0  0  0  0  0  0  0
   38.0544  -31.7229  -18.6339 C   0  0  0  0  0  0  0  0  0  0  0  0
   39.4524  -32.1972  -18.8532 C   0  0  0  0  0  0  0  0  0  0  0  0
   40.2931  -31.4139  -17.8516 C   0  0  0  0  0  0  0  0  0  0  0  0
   39.4352  -30.1535  -17.6818 C   0  0  1  0  0  0  0  0  0  0  0  0
   39.5021  -29.3080  -18.8883 C   0  0  0  0  0  0  0  0  0  0  0  0
   40.5351  -28.6770  -19.1633 O   0  0  0  0  0  0  0  0  0  0  0  0
   38.4053  -29.2199  -19.7164 O   0  0  0  0  0  0  0  0  0  0  0  0
  2  1  1  0
  3  5  1  0
  3  2  1  0
  3  4  1  1
  5  6  2  0
  7  5  1  0
  8  7  1  0
  9 10  1  0
  8  9  1  6
 10 14  1  0
 11 12  1  0
 11 10  2  0
 12 13  1  0
 13 14  2  0
 15  8  1  0
 15 17  1  0
 16 15  2  0
 17 18  1  0
 19 18  1  0
 20 19  1  0
 20 21  1  0
 21 17  1  0
 21 22  1  6
 22 24  1  0
 23 22  2  0
M  END
$$$$
