SHP.pdb
     RDKit          3D

 24 25  0  0  1  0  0  0  0  0999 V2000
   20.8132  -11.5693  -18.2811 O   0  0  0  0  0  0  0  0  0  0  0  0
   20.3994  -10.3775  -17.6757 C   0  0  0  0  0  0  0  0  0  0  0  0
   20.0398  -10.6679  -16.2645 C   0  0  2  0  0  0  0  0  0  0  0  0
   18.9050  -11.5637  -16.2494 N   0  0  0  0  0  0  0  0  0  0  0  0
   19.7795   -9.5307  -15.4101 C   0  0  0  0  0  0  0  0  0  0  0  0
   18.6544   -8.9359  -15.5255 O   0  0  0  0  0  0  0  0  0  0  0  0
   20.6319   -8.9839  -14.4427 N   0  0  0  0  0  0  0  0  0  0  0  0
   20.3521   -7.8272  -13.6118 C   0  0  1  0  0  0  0  0  0  0  0  0
   20.8550   -8.0539  -12.2030 C   0  0  0  0  0  0  0  0  0  0  0  0
   20.4504   -6.9488  -11.2974 C   0  0  0  0  0  0  0  0  0  0  0  0
   19.7340   -5.8397  -11.6722 C   0  0  0  0  0  0  0  0  0  0  0  0
   19.5705   -5.0796  -10.5685 N   0  0  0  0  0  0  0  0  0  0  0  0
   20.1622   -5.6790   -9.5177 C   0  0  0  0  0  0  0  0  0  0  0  0
   20.6975   -6.8313   -9.9971 N   0  0  0  0  0  0  0  0  0  0  0  0
   21.0211   -6.6462  -14.1662 C   0  0  0  0  0  0  0  0  0  0  0  0
   22.2533   -6.7206  -14.5252 O   0  0  0  0  0  0  0  0  0  0  0  0
   20.3878   -5.4067  -14.3377 N   0  0  0  0  0  0  0  0  0  0  0  0
   19.0458   -5.0876  -13.8030 C   0  0  0  0  0  0  0  0  0  0  0  0
   18.4520   -4.1132  -14.7650 C   0  0  0  0  0  0  0  0  0  0  0  0
   19.5453   -3.8677  -15.7983 C   0  0  0  0  0  0  0  0  0  0  0  0
   20.7986   -4.1634  -14.9647 C   0  0  1  0  0  0  0  0  0  0  0  0
   21.0389   -3.0907  -13.9816 C   0  0  0  0  0  0  0  0  0  0  0  0
   20.6130   -3.1891  -12.8198 O   0  0  0  0  0  0  0  0  0  0  0  0
   21.7434   -1.9695  -14.3597 O   0  0  0  0  0  0  0  0  0  0  0  0
  2  1  1  0
  3  5  1  0
  3  2  1  0
  3  4  1  6
  5  6  2  0
  7  5  1  0
  8  7  1  0
  9 10  1  0
  8  9  1  1
 10 14  1  0
 11 12  1  0
 11 10  2  0
 12 13  1  0
 13 14  2  0
 15  8  1  0
 15 17  1  0
 16 15  2  0
 17 18  1  0
 19 18  1  0
 20 19  1  0
 20 21  1  0
 21 17  1  0
 21 22  1  1
 22 24  1  0
 23 22  2  0
M  END
$$$$
