SHP.pdb
     RDKit          3D

 24 25  0  0  1  0  0  0  0  0999 V2000
   18.1555  -12.7503  -14.8027 O   0  0  0  0  0  0  0  0  0  0  0  0
   17.9973  -11.9780  -15.9589 C   0  0  0  0  0  0  0  0  0  0  0  0
   18.9525  -10.8427  -15.8996 C   0  0  2  0  0  0  0  0  0  0  0  0
   18.5935   -9.8800  -16.9168 N   0  0  0  0  0  0  0  0  0  0  0  0
   20.3581  -11.1663  -16.0037 C   0  0  0  0  0  0  0  0  0  0  0  0
   20.8844  -11.8697  -15.0759 O   0  0  0  0  0  0  0  0  0  0  0  0
   21.2406  -10.7941  -17.0256 N   0  0  0  0  0  0  0  0  0  0  0  0
   22.6377  -11.1736  -17.1293 C   0  0  1  0  0  0  0  0  0  0  0  0
   22.9146  -11.8090  -18.4741 C   0  0  0  0  0  0  0  0  0  0  0  0
   22.2836  -13.1488  -18.5821 C   0  0  0  0  0  0  0  0  0  0  0  0
   22.7252  -14.2855  -17.9522 C   0  0  0  0  0  0  0  0  0  0  0  0
   21.8881  -15.2853  -18.3016 N   0  0  0  0  0  0  0  0  0  0  0  0
   20.9387  -14.8086  -19.1294 C   0  0  0  0  0  0  0  0  0  0  0  0
   21.2078  -13.4866  -19.2851 N   0  0  0  0  0  0  0  0  0  0  0  0
   23.4851   -9.9856  -16.9865 C   0  0  0  0  0  0  0  0  0  0  0  0
   22.9881   -8.8185  -17.1959 O   0  0  0  0  0  0  0  0  0  0  0  0
   24.8389  -10.0392  -16.6245 N   0  0  0  0  0  0  0  0  0  0  0  0
   25.6114  -11.2959  -16.5128 C   0  0  0  0  0  0  0  0  0  0  0  0
   26.6285  -11.0483  -15.4490 C   0  0  0  0  0  0  0  0  0  0  0  0
   26.4208   -9.5949  -15.0396 C   0  0  0  0  0  0  0  0  0  0  0  0
   25.8261   -9.0163  -16.3298 C   0  0  1  0  0  0  0  0  0  0  0  0
   26.8563   -8.9103  -17.3799 C   0  0  0  0  0  0  0  0  0  0  0  0
   26.9606   -9.7839  -18.2555 O   0  0  0  0  0  0  0  0  0  0  0  0
   27.7098   -7.8296  -17.3860 O   0  0  0  0  0  0  0  0  0  0  0  0
  2  1  1  0
  3  5  1  0
  3  2  1  0
  3  4  1  6
  5  6  2  0
  7  5  1  0
  8  7  1  0
  9 10  1  0
  8  9  1  6
 10 14  1  0
 11 12  1  0
 11 10  2  0
 12 13  1  0
 13 14  2  0
 15  8  1  0
 15 17  1  0
 16 15  2  0
 17 18  1  0
 19 18  1  0
 20 19  1  0
 20 21  1  0
 21 17  1  0
 21 22  1  6
 22 24  1  0
 23 22  2  0
M  END
$$$$
