SHP.pdb
     RDKit          3D

 24 25  0  0  1  0  0  0  0  0999 V2000
   21.1493  -20.4229  -16.6754 O   0  0  0  0  0  0  0  0  0  0  0  0
   20.4847  -20.6479  -15.4646 C   0  0  0  0  0  0  0  0  0  0  0  0
   20.9574  -19.6456  -14.4762 C   0  0  2  0  0  0  0  0  0  0  0  0
   20.4544  -18.3448  -14.8571 N   0  0  0  0  0  0  0  0  0  0  0  0
   22.3840  -19.5739  -14.2508 C   0  0  0  0  0  0  0  0  0  0  0  0
   22.9806  -18.4748  -14.5131 O   0  0  0  0  0  0  0  0  0  0  0  0
   23.2181  -20.5891  -13.7659 N   0  0  0  0  0  0  0  0  0  0  0  0
   24.6575  -20.5061  -13.5979 C   0  0  1  0  0  0  0  0  0  0  0  0
   25.1372  -21.5561  -12.6200 C   0  0  0  0  0  0  0  0  0  0  0  0
   24.7414  -21.2233  -11.2281 C   0  0  0  0  0  0  0  0  0  0  0  0
   25.5978  -20.8092  -10.2386 C   0  0  0  0  0  0  0  0  0  0  0  0
   24.8563  -20.6089   -9.1284 N   0  0  0  0  0  0  0  0  0  0  0  0
   23.5652  -20.8850   -9.3937 C   0  0  0  0  0  0  0  0  0  0  0  0
   23.5237  -21.2620  -10.6977 N   0  0  0  0  0  0  0  0  0  0  0  0
   25.3197  -20.7261  -14.8874 C   0  0  0  0  0  0  0  0  0  0  0  0
   24.6852  -21.3144  -15.8384 O   0  0  0  0  0  0  0  0  0  0  0  0
   26.6352  -20.3243  -15.1607 N   0  0  0  0  0  0  0  0  0  0  0  0
   27.6206  -19.9686  -14.1162 C   0  0  0  0  0  0  0  0  0  0  0  0
   28.5070  -18.9395  -14.7346 C   0  0  0  0  0  0  0  0  0  0  0  0
   28.0071  -18.8028  -16.1681 C   0  0  0  0  0  0  0  0  0  0  0  0
   27.3943  -20.1912  -16.3911 C   0  0  1  0  0  0  0  0  0  0  0  0
   28.4484  -21.2153  -16.5146 C   0  0  0  0  0  0  0  0  0  0  0  0
   28.7269  -21.9563  -15.5585 O   0  0  0  0  0  0  0  0  0  0  0  0
   29.1288  -21.3482  -17.7045 O   0  0  0  0  0  0  0  0  0  0  0  0
  2  1  1  0
  3  5  1  0
  3  2  1  0
  3  4  1  6
  5  6  2  0
  7  5  1  0
  8  7  1  0
  9 10  1  0
  8  9  1  1
 10 14  1  0
 11 12  1  0
 11 10  2  0
 12 13  1  0
 13 14  2  0
 15  8  1  0
 15 17  1  0
 16 15  2  0
 17 18  1  0
 19 18  1  0
 20 19  1  0
 20 21  1  0
 21 17  1  0
 21 22  1  1
 22 24  1  0
 23 22  2  0
M  END
$$$$
