SHP.pdb
     RDKit          3D

 24 25  0  0  1  0  0  0  0  0999 V2000
   31.6253  -19.8784  -20.3962 O   0  0  0  0  0  0  0  0  0  0  0  0
   30.2569  -20.1052  -20.5819 C   0  0  0  0  0  0  0  0  0  0  0  0
   29.6051  -20.1615  -19.2488 C   0  0  2  0  0  0  0  0  0  0  0  0
   29.6976  -18.8575  -18.6312 N   0  0  0  0  0  0  0  0  0  0  0  0
   30.0805  -21.1739  -18.3322 C   0  0  0  0  0  0  0  0  0  0  0  0
   30.8993  -20.8209  -17.4170 O   0  0  0  0  0  0  0  0  0  0  0  0
   29.7448  -22.5336  -18.3220 N   0  0  0  0  0  0  0  0  0  0  0  0
   30.2512  -23.5326  -17.3987 C   0  0  1  0  0  0  0  0  0  0  0  0
   29.2243  -24.6226  -17.1835 C   0  0  0  0  0  0  0  0  0  0  0  0
   27.9098  -24.0592  -16.7841 C   0  0  0  0  0  0  0  0  0  0  0  0
   26.7409  -24.1987  -17.4898 C   0  0  0  0  0  0  0  0  0  0  0  0
   25.7795  -23.5483  -16.8005 N   0  0  0  0  0  0  0  0  0  0  0  0
   26.3114  -23.0074  -15.6878 C   0  0  0  0  0  0  0  0  0  0  0  0
   27.6283  -23.3387  -15.7037 N   0  0  0  0  0  0  0  0  0  0  0  0
   31.4714  -24.1362  -17.9432 C   0  0  0  0  0  0  0  0  0  0  0  0
   31.7977  -23.9216  -19.1681 O   0  0  0  0  0  0  0  0  0  0  0  0
   32.3314  -24.9531  -17.1950 N   0  0  0  0  0  0  0  0  0  0  0  0
   32.0150  -25.4587  -15.8412 C   0  0  0  0  0  0  0  0  0  0  0  0
   33.3271  -25.5755  -15.1398 C   0  0  0  0  0  0  0  0  0  0  0  0
   34.3653  -25.1801  -16.1833 C   0  0  0  0  0  0  0  0  0  0  0  0
   33.6259  -25.5473  -17.4762 C   0  0  1  0  0  0  0  0  0  0  0  0
   33.5491  -27.0113  -17.6379 C   0  0  0  0  0  0  0  0  0  0  0  0
   32.5167  -27.6291  -17.3327 O   0  0  0  0  0  0  0  0  0  0  0  0
   34.6360  -27.6969  -18.1330 O   0  0  0  0  0  0  0  0  0  0  0  0
  2  1  1  0
  3  5  1  0
  3  2  1  0
  3  4  1  1
  5  6  2  0
  7  5  1  0
  8  7  1  0
  9 10  1  0
  8  9  1  6
 10 14  1  0
 11 12  1  0
 11 10  2  0
 12 13  1  0
 13 14  2  0
 15  8  1  0
 15 17  1  0
 16 15  2  0
 17 18  1  0
 19 18  1  0
 20 19  1  0
 20 21  1  0
 21 17  1  0
 21 22  1  1
 22 24  1  0
 23 22  2  0
M  END
$$$$
