SHP.pdb
     RDKit          3D

 24 25  0  0  1  0  0  0  0  0999 V2000
   27.3109  -20.5047  -18.1581 O   0  0  0  0  0  0  0  0  0  0  0  0
   28.5839  -20.6657  -17.5995 C   0  0  0  0  0  0  0  0  0  0  0  0
   28.5774  -21.8917  -16.7618 C   0  0  2  0  0  0  0  0  0  0  0  0
   28.4641  -23.0447  -17.6268 N   0  0  0  0  0  0  0  0  0  0  0  0
   27.5811  -21.9624  -15.7161 C   0  0  0  0  0  0  0  0  0  0  0  0
   26.5847  -22.7441  -15.8856 O   0  0  0  0  0  0  0  0  0  0  0  0
   27.5720  -21.2601  -14.5045 N   0  0  0  0  0  0  0  0  0  0  0  0
   26.5107  -21.2763  -13.5144 C   0  0  1  0  0  0  0  0  0  0  0  0
   27.0145  -20.7456  -12.1903 C   0  0  0  0  0  0  0  0  0  0  0  0
   25.9360  -20.7189  -11.1700 C   0  0  0  0  0  0  0  0  0  0  0  0
   25.2032  -19.6121  -10.8207 C   0  0  0  0  0  0  0  0  0  0  0  0
   24.3292  -19.9980   -9.8669 N   0  0  0  0  0  0  0  0  0  0  0  0
   24.4936  -21.3097   -9.6100 C   0  0  0  0  0  0  0  0  0  0  0  0
   25.4924  -21.7288  -10.4291 N   0  0  0  0  0  0  0  0  0  0  0  0
   25.3990  -20.4342  -13.9669 C   0  0  0  0  0  0  0  0  0  0  0  0
   25.6406  -19.2822  -14.4841 O   0  0  0  0  0  0  0  0  0  0  0  0
   24.0522  -20.8134  -13.8724 N   0  0  0  0  0  0  0  0  0  0  0  0
   23.5883  -22.0358  -13.1801 C   0  0  0  0  0  0  0  0  0  0  0  0
   22.3607  -22.4688  -13.9099 C   0  0  0  0  0  0  0  0  0  0  0  0
   22.1418  -21.4011  -14.9755 C   0  0  0  0  0  0  0  0  0  0  0  0
   22.8158  -20.1929  -14.3128 C   0  0  1  0  0  0  0  0  0  0  0  0
   22.0051  -19.6937  -13.1864 C   0  0  0  0  0  0  0  0  0  0  0  0
   22.2757  -20.0168  -12.0189 O   0  0  0  0  0  0  0  0  0  0  0  0
   20.9376  -18.8603  -13.4360 O   0  0  0  0  0  0  0  0  0  0  0  0
  2  1  1  0
  3  5  1  0
  3  2  1  0
  3  4  1  6
  5  6  2  0
  7  5  1  0
  8  7  1  0
  9 10  1  0
  8  9  1  1
 10 14  1  0
 11 12  1  0
 11 10  2  0
 12 13  1  0
 13 14  2  0
 15  8  1  0
 15 17  1  0
 16 15  2  0
 17 18  1  0
 19 18  1  0
 20 19  1  0
 20 21  1  0
 21 17  1  0
 21 22  1  1
 22 24  1  0
 23 22  2  0
M  END
$$$$
