SHP.pdb
     RDKit          3D

 24 25  0  0  1  0  0  0  0  0999 V2000
   16.5021  -12.7656  -16.1063 O   0  0  0  0  0  0  0  0  0  0  0  0
   16.9605  -13.6625  -17.0778 C   0  0  0  0  0  0  0  0  0  0  0  0
   17.9697  -14.5553  -16.4538 C   0  0  2  0  0  0  0  0  0  0  0  0
   17.3210  -15.3475  -15.4330 N   0  0  0  0  0  0  0  0  0  0  0  0
   19.1512  -13.9242  -15.9088 C   0  0  0  0  0  0  0  0  0  0  0  0
   19.2682  -13.8608  -14.6380 O   0  0  0  0  0  0  0  0  0  0  0  0
   20.2152  -13.3574  -16.6217 N   0  0  0  0  0  0  0  0  0  0  0  0
   21.3760  -12.7016  -16.0478 C   0  0  1  0  0  0  0  0  0  0  0  0
   22.5711  -12.8442  -16.9645 C   0  0  0  0  0  0  0  0  0  0  0  0
   22.9794  -14.2647  -17.1077 C   0  0  0  0  0  0  0  0  0  0  0  0
   23.5283  -15.0352  -16.1132 C   0  0  0  0  0  0  0  0  0  0  0  0
   23.7562  -16.2584  -16.6371 N   0  0  0  0  0  0  0  0  0  0  0  0
   23.3673  -16.2753  -17.9262 C   0  0  0  0  0  0  0  0  0  0  0  0
   22.8917  -15.0309  -18.1898 N   0  0  0  0  0  0  0  0  0  0  0  0
   21.0953  -11.2750  -15.8587 C   0  0  0  0  0  0  0  0  0  0  0  0
   20.1059  -10.7323  -16.4747 O   0  0  0  0  0  0  0  0  0  0  0  0
   21.8543  -10.4403  -15.0257 N   0  0  0  0  0  0  0  0  0  0  0  0
   23.1400  -10.8395  -14.4121 C   0  0  0  0  0  0  0  0  0  0  0  0
   23.2116  -10.1033  -13.1159 C   0  0  0  0  0  0  0  0  0  0  0  0
   21.9534   -9.2435  -13.0841 C   0  0  0  0  0  0  0  0  0  0  0  0
   21.6894   -9.0669  -14.5849 C   0  0  1  0  0  0  0  0  0  0  0  0
   22.6834   -8.1597  -15.1883 C   0  0  0  0  0  0  0  0  0  0  0  0
   22.6057   -6.9325  -15.0194 O   0  0  0  0  0  0  0  0  0  0  0  0
   23.7071   -8.6830  -15.9463 O   0  0  0  0  0  0  0  0  0  0  0  0
  2  1  1  0
  3  5  1  0
  3  2  1  0
  3  4  1  1
  5  6  2  0
  7  5  1  0
  8  7  1  0
  9 10  1  0
  8  9  1  6
 10 14  1  0
 11 12  1  0
 11 10  2  0
 12 13  1  0
 13 14  2  0
 15  8  1  0
 15 17  1  0
 16 15  2  0
 17 18  1  0
 19 18  1  0
 20 19  1  0
 20 21  1  0
 21 17  1  0
 21 22  1  6
 22 24  1  0
 23 22  2  0
M  END
$$$$
