GNS.pdb
     RDKit          3D

 19 18  0  0  1  0  0  0  0  0999 V2000
    8.7597  -14.9375   13.9984 N   0  0  0  0  0  0  0  0  0  0  0  0
    8.4651  -15.4812   15.3116 C   0  0  0  0  0  0  0  0  0  0  0  0
    9.3285  -14.8613   16.3587 C   0  0  0  0  0  0  0  0  0  0  0  0
   10.3234  -14.1689   16.0929 O   0  0  0  0  0  0  0  0  0  0  0  0
    7.7402  -12.6947   19.0200 N   0  0  0  0  0  0  0  0  0  0  0  0
    7.9597  -13.5300   20.1771 C   0  0  0  0  0  0  0  0  0  0  0  0
    7.2404  -13.3134   21.1571 O   0  0  0  0  0  0  0  0  0  0  0  0
    8.9929  -14.5737   20.1555 C   0  0  0  0  0  0  0  0  0  0  0  0
    9.7156  -14.6848   18.8331 C   0  0  2  0  0  0  0  0  0  0  0  0
    8.9768  -15.0878   17.7039 N   0  0  0  0  0  0  0  0  0  0  0  0
   11.0630  -15.2671   18.9297 C   0  0  0  0  0  0  0  0  0  0  0  0
   11.2111  -16.5269   18.7804 O   0  0  0  0  0  0  0  0  0  0  0  0
   15.8421  -14.8559   18.7078 O   0  0  0  0  0  0  0  0  0  0  0  0
   14.6039  -14.2163   18.6977 C   0  0  0  0  0  0  0  0  0  0  0  0
   13.5236  -15.1456   19.2164 C   0  0  2  0  0  0  0  0  0  0  0  0
   12.2345  -14.5225   19.1804 N   0  0  0  0  0  0  0  0  0  0  0  0
   13.8705  -15.5390   20.6007 C   0  0  0  0  0  0  0  0  0  0  0  0
   15.0057  -16.2710   20.8885 O   0  0  0  0  0  0  0  0  0  0  0  0
   13.1215  -15.2043   21.5439 O   0  0  0  0  0  0  0  0  0  0  0  0
  1  2  1  0
  2  3  1  0
  3 10  1  0
  3  4  2  0
  6  5  1  0
  7  6  2  0
  8  6  1  0
  9  8  1  1
 10  9  1  0
 11  9  1  0
 11 12  2  0
 14 13  1  0
 15 14  1  1
 15 16  1  0
 16 11  1  0
 17 15  1  0
 18 17  1  0
 19 17  2  0
M  END
$$$$
