GNS.pdb
     RDKit          3D

 19 18  0  0  1  0  0  0  0  0999 V2000
    7.9373  -14.0978   15.6228 N   0  0  0  0  0  0  0  0  0  0  0  0
    9.2412  -14.5953   16.0219 C   0  0  0  0  0  0  0  0  0  0  0  0
    9.1262  -15.5713   17.1445 C   0  0  0  0  0  0  0  0  0  0  0  0
    8.0996  -15.6963   17.8303 O   0  0  0  0  0  0  0  0  0  0  0  0
    9.7894  -20.4722   19.6182 N   0  0  0  0  0  0  0  0  0  0  0  0
   10.8701  -19.5393   19.4026 C   0  0  0  0  0  0  0  0  0  0  0  0
   11.7650  -19.5272   20.2533 O   0  0  0  0  0  0  0  0  0  0  0  0
   10.8737  -18.6653   18.2221 C   0  0  0  0  0  0  0  0  0  0  0  0
   10.3890  -17.2622   18.5046 C   0  0  2  0  0  0  0  0  0  0  0  0
   10.2494  -16.3762   17.4189 N   0  0  0  0  0  0  0  0  0  0  0  0
   10.9559  -16.6625   19.7223 C   0  0  0  0  0  0  0  0  0  0  0  0
   12.0323  -15.9799   19.6394 O   0  0  0  0  0  0  0  0  0  0  0  0
    8.7106  -15.9928   23.1395 O   0  0  0  0  0  0  0  0  0  0  0  0
    9.7686  -15.1810   22.7346 C   0  0  0  0  0  0  0  0  0  0  0  0
   10.8715  -16.0181   22.1158 C   0  0  2  0  0  0  0  0  0  0  0  0
   10.3879  -16.7855   21.0076 N   0  0  0  0  0  0  0  0  0  0  0  0
   11.4247  -16.9087   23.1610 C   0  0  0  0  0  0  0  0  0  0  0  0
   12.0628  -16.4115   24.2803 O   0  0  0  0  0  0  0  0  0  0  0  0
   11.3168  -18.1478   23.0368 O   0  0  0  0  0  0  0  0  0  0  0  0
  1  2  1  0
  2  3  1  0
  3 10  1  0
  3  4  2  0
  6  5  1  0
  7  6  2  0
  8  6  1  0
  9  8  1  6
 10  9  1  0
 11  9  1  0
 11 12  2  0
 14 13  1  0
 15 14  1  1
 15 16  1  0
 16 11  1  0
 17 15  1  0
 18 17  1  0
 19 17  2  0
M  END
$$$$
