GNS.pdb
     RDKit          3D

 19 18  0  0  1  0  0  0  0  0999 V2000
    4.5694  -18.4601   21.1582 N   0  0  0  0  0  0  0  0  0  0  0  0
    4.7089  -17.0216   21.2929 C   0  0  0  0  0  0  0  0  0  0  0  0
    6.1418  -16.6102   21.2326 C   0  0  0  0  0  0  0  0  0  0  0  0
    7.0751  -17.4213   21.1270 O   0  0  0  0  0  0  0  0  0  0  0  0
    6.9830  -12.5495   18.6063 N   0  0  0  0  0  0  0  0  0  0  0  0
    7.8402  -13.4772   19.3058 C   0  0  0  0  0  0  0  0  0  0  0  0
    8.3997  -14.3362   18.6174 O   0  0  0  0  0  0  0  0  0  0  0  0
    8.0155  -13.3757   20.7605 C   0  0  0  0  0  0  0  0  0  0  0  0
    7.6897  -14.6517   21.5013 C   0  0  2  0  0  0  0  0  0  0  0  0
    6.4219  -15.2312   21.3010 N   0  0  0  0  0  0  0  0  0  0  0  0
    8.1692  -14.6807   22.8917 C   0  0  0  0  0  0  0  0  0  0  0  0
    8.2816  -13.5839   23.5365 O   0  0  0  0  0  0  0  0  0  0  0  0
    6.5937  -16.2160   25.6498 O   0  0  0  0  0  0  0  0  0  0  0  0
    7.6844  -15.3655   25.8212 C   0  0  0  0  0  0  0  0  0  0  0  0
    8.8563  -15.8311   24.9787 C   0  0  2  0  0  0  0  0  0  0  0  0
    8.5233  -15.8563   23.5860 N   0  0  0  0  0  0  0  0  0  0  0  0
    9.2574  -17.1792   25.4403 C   0  0  0  0  0  0  0  0  0  0  0  0
    9.2606  -18.2696   24.5927 O   0  0  0  0  0  0  0  0  0  0  0  0
    9.6048  -17.3469   26.6293 O   0  0  0  0  0  0  0  0  0  0  0  0
  1  2  1  0
  2  3  1  0
  3 10  1  0
  3  4  2  0
  6  5  1  0
  7  6  2  0
  8  6  1  0
  9  8  1  1
 10  9  1  0
 11  9  1  0
 11 12  2  0
 14 13  1  0
 15 14  1  1
 15 16  1  0
 16 11  1  0
 17 15  1  0
 18 17  1  0
 19 17  2  0
M  END
$$$$
