GNS.pdb
     RDKit          3D

 19 18  0  0  1  0  0  0  0  0999 V2000
   -8.7288  -25.0274   26.1063 N   0  0  0  0  0  0  0  0  0  0  0  0
   -7.2806  -25.0811   26.0247 C   0  0  0  0  0  0  0  0  0  0  0  0
   -6.6536  -24.7659   27.3413 C   0  0  0  0  0  0  0  0  0  0  0  0
   -5.4497  -24.4937   27.4699 O   0  0  0  0  0  0  0  0  0  0  0  0
   -8.2986  -21.3280   29.1440 N   0  0  0  0  0  0  0  0  0  0  0  0
   -7.3306  -22.0625   29.9240 C   0  0  0  0  0  0  0  0  0  0  0  0
   -6.2168  -21.5442   30.0491 O   0  0  0  0  0  0  0  0  0  0  0  0
   -7.6856  -23.3555   30.5234 C   0  0  0  0  0  0  0  0  0  0  0  0
   -7.0878  -24.5423   29.8041 C   0  0  2  0  0  0  0  0  0  0  0  0
   -7.4884  -24.7851   28.4760 N   0  0  0  0  0  0  0  0  0  0  0  0
   -6.9513  -25.7464   30.6380 C   0  0  0  0  0  0  0  0  0  0  0  0
   -7.9855  -26.4527   30.8890 O   0  0  0  0  0  0  0  0  0  0  0  0
   -3.2499  -27.2764   31.7909 O   0  0  0  0  0  0  0  0  0  0  0  0
   -4.3117  -28.1422   31.5354 C   0  0  0  0  0  0  0  0  0  0  0  0
   -5.6331  -27.4656   31.8454 C   0  0  2  0  0  0  0  0  0  0  0  0
   -5.7353  -26.1932   31.1959 N   0  0  0  0  0  0  0  0  0  0  0  0
   -5.7449  -27.3088   33.3131 C   0  0  0  0  0  0  0  0  0  0  0  0
   -5.8203  -28.3974   34.1596 O   0  0  0  0  0  0  0  0  0  0  0  0
   -5.7729  -26.1627   33.8113 O   0  0  0  0  0  0  0  0  0  0  0  0
  1  2  1  0
  2  3  1  0
  3 10  1  0
  3  4  2  0
  6  5  1  0
  7  6  2  0
  8  6  1  0
  9  8  1  1
 10  9  1  0
 11  9  1  0
 11 12  2  0
 14 13  1  0
 15 14  1  1
 15 16  1  0
 16 11  1  0
 17 15  1  0
 18 17  1  0
 19 17  2  0
M  END
$$$$
