GNS.pdb
     RDKit          3D

 19 18  0  0  1  0  0  0  0  0999 V2000
    8.8743  -18.8022   17.6240 N   0  0  0  0  0  0  0  0  0  0  0  0
    8.0498  -18.0254   18.5317 C   0  0  0  0  0  0  0  0  0  0  0  0
    8.8619  -17.0108   19.2644 C   0  0  0  0  0  0  0  0  0  0  0  0
   10.0937  -16.9165   19.1471 O   0  0  0  0  0  0  0  0  0  0  0  0
    7.7013  -11.9392   19.3777 N   0  0  0  0  0  0  0  0  0  0  0  0
    7.4524  -13.3012   19.7873 C   0  0  0  0  0  0  0  0  0  0  0  0
    6.7660  -13.9887   19.0251 O   0  0  0  0  0  0  0  0  0  0  0  0
    8.0024  -13.8101   21.0505 C   0  0  0  0  0  0  0  0  0  0  0  0
    8.7552  -15.1120   20.9037 C   0  0  2  0  0  0  0  0  0  0  0  0
    8.1748  -16.1309   20.1237 N   0  0  0  0  0  0  0  0  0  0  0  0
    9.4056  -15.5748   22.1393 C   0  0  0  0  0  0  0  0  0  0  0  0
    8.7674  -15.5085   23.2436 O   0  0  0  0  0  0  0  0  0  0  0  0
   11.4608  -18.7388   22.5453 O   0  0  0  0  0  0  0  0  0  0  0  0
   11.0752  -18.0109   23.6695 C   0  0  0  0  0  0  0  0  0  0  0  0
   11.2906  -16.5275   23.4394 C   0  0  2  0  0  0  0  0  0  0  0  0
   10.7133  -16.1001   22.2004 N   0  0  0  0  0  0  0  0  0  0  0  0
   12.7463  -16.2590   23.4529 C   0  0  0  0  0  0  0  0  0  0  0  0
   13.5163  -16.4672   24.5803 O   0  0  0  0  0  0  0  0  0  0  0  0
   13.3049  -15.8314   22.4196 O   0  0  0  0  0  0  0  0  0  0  0  0
  1  2  1  0
  2  3  1  0
  3 10  1  0
  3  4  2  0
  6  5  1  0
  7  6  2  0
  8  6  1  0
  9  8  1  1
 10  9  1  0
 11  9  1  0
 11 12  2  0
 14 13  1  0
 15 14  1  6
 15 16  1  0
 16 11  1  0
 17 15  1  0
 18 17  1  0
 19 17  2  0
M  END
$$$$
