GNS.pdb
     RDKit          3D

 19 18  0  0  1  0  0  0  0  0999 V2000
    7.6177  -19.2901   17.1853 N   0  0  0  0  0  0  0  0  0  0  0  0
    7.0975  -18.5207   18.3008 C   0  0  0  0  0  0  0  0  0  0  0  0
    8.1727  -17.7145   18.9487 C   0  0  0  0  0  0  0  0  0  0  0  0
    9.3629  -18.0653   18.9688 O   0  0  0  0  0  0  0  0  0  0  0  0
    6.4825  -12.7001   19.3676 N   0  0  0  0  0  0  0  0  0  0  0  0
    7.6512  -13.5448   19.2940 C   0  0  0  0  0  0  0  0  0  0  0  0
    8.1743  -13.6653   18.1820 O   0  0  0  0  0  0  0  0  0  0  0  0
    8.1645  -14.2105   20.4983 C   0  0  0  0  0  0  0  0  0  0  0  0
    8.6453  -15.6219   20.2531 C   0  0  2  0  0  0  0  0  0  0  0  0
    7.7934  -16.5030   19.5595 N   0  0  0  0  0  0  0  0  0  0  0  0
    9.3602  -16.2213   21.3905 C   0  0  0  0  0  0  0  0  0  0  0  0
    8.7064  -16.5438   22.4392 O   0  0  0  0  0  0  0  0  0  0  0  0
   12.9111  -18.0538   20.8909 O   0  0  0  0  0  0  0  0  0  0  0  0
   12.1297  -18.3964   21.9930 C   0  0  0  0  0  0  0  0  0  0  0  0
   11.3604  -17.1888   22.4925 C   0  0  2  0  0  0  0  0  0  0  0  0
   10.7477  -16.4744   21.4130 N   0  0  0  0  0  0  0  0  0  0  0  0
   12.2964  -16.3105   23.2300 C   0  0  0  0  0  0  0  0  0  0  0  0
   12.9434  -16.7318   24.3751 O   0  0  0  0  0  0  0  0  0  0  0  0
   12.5148  -15.1524   22.8132 O   0  0  0  0  0  0  0  0  0  0  0  0
  1  2  1  0
  2  3  1  0
  3 10  1  0
  3  4  2  0
  6  5  1  0
  7  6  2  0
  8  6  1  0
  9  8  1  1
 10  9  1  0
 11  9  1  0
 11 12  2  0
 14 13  1  0
 15 14  1  6
 15 16  1  0
 16 11  1  0
 17 15  1  0
 18 17  1  0
 19 17  2  0
M  END
$$$$
