GNS.pdb
     RDKit          3D

 19 18  0  0  1  0  0  0  0  0999 V2000
    9.1814  -17.9726   19.4618 N   0  0  0  0  0  0  0  0  0  0  0  0
    9.3150  -18.1503   20.8962 C   0  0  0  0  0  0  0  0  0  0  0  0
   10.3609  -17.2462   21.4571 C   0  0  0  0  0  0  0  0  0  0  0  0
   11.0004  -16.4392   20.7644 O   0  0  0  0  0  0  0  0  0  0  0  0
    9.5394  -14.1776   24.9452 N   0  0  0  0  0  0  0  0  0  0  0  0
    9.7795  -15.5939   25.0909 C   0  0  0  0  0  0  0  0  0  0  0  0
    8.7910  -16.3000   25.3122 O   0  0  0  0  0  0  0  0  0  0  0  0
   11.1409  -16.1330   24.9756 C   0  0  0  0  0  0  0  0  0  0  0  0
   11.5180  -16.5326   23.5680 C   0  0  2  0  0  0  0  0  0  0  0  0
   10.6158  -17.3322   22.8400 N   0  0  0  0  0  0  0  0  0  0  0  0
   12.9346  -16.8927   23.4027 C   0  0  0  0  0  0  0  0  0  0  0  0
   13.3015  -18.0976   23.6148 O   0  0  0  0  0  0  0  0  0  0  0  0
   17.1647  -16.1226   21.2996 O   0  0  0  0  0  0  0  0  0  0  0  0
   15.9167  -15.6022   21.6374 C   0  0  0  0  0  0  0  0  0  0  0  0
   15.2783  -16.4290   22.7368 C   0  0  2  0  0  0  0  0  0  0  0  0
   13.9453  -15.9871   23.0178 N   0  0  0  0  0  0  0  0  0  0  0  0
   16.1236  -16.3289   23.9479 C   0  0  0  0  0  0  0  0  0  0  0  0
   15.6416  -15.8095   25.1332 O   0  0  0  0  0  0  0  0  0  0  0  0
   17.3094  -16.7227   23.9075 O   0  0  0  0  0  0  0  0  0  0  0  0
  1  2  1  0
  2  3  1  0
  3 10  1  0
  3  4  2  0
  6  5  1  0
  7  6  2  0
  8  6  1  0
  9  8  1  1
 10  9  1  0
 11  9  1  0
 11 12  2  0
 14 13  1  0
 15 14  1  6
 15 16  1  0
 16 11  1  0
 17 15  1  0
 18 17  1  0
 19 17  2  0
M  END
$$$$
