GNS.pdb
     RDKit          3D

 19 18  0  0  1  0  0  0  0  0999 V2000
    4.8907  -19.2950   21.6632 N   0  0  0  0  0  0  0  0  0  0  0  0
    4.6781  -17.8613   21.5842 C   0  0  0  0  0  0  0  0  0  0  0  0
    5.9482  -17.1435   21.2722 C   0  0  0  0  0  0  0  0  0  0  0  0
    7.0276  -17.7271   21.0868 O   0  0  0  0  0  0  0  0  0  0  0  0
    8.1863  -11.5330   19.7539 N   0  0  0  0  0  0  0  0  0  0  0  0
    8.0976  -12.9662   19.9050 C   0  0  0  0  0  0  0  0  0  0  0  0
    9.1325  -13.6069   19.6972 O   0  0  0  0  0  0  0  0  0  0  0  0
    6.8272  -13.5964   20.2875 C   0  0  0  0  0  0  0  0  0  0  0  0
    6.9970  -14.8702   21.0823 C   0  0  2  0  0  0  0  0  0  0  0  0
    5.8932  -15.7382   21.1903 N   0  0  0  0  0  0  0  0  0  0  0  0
    7.7800  -14.7102   22.3173 C   0  0  0  0  0  0  0  0  0  0  0  0
    7.4723  -13.7792   23.1357 O   0  0  0  0  0  0  0  0  0  0  0  0
    8.9026  -15.9036   26.3099 O   0  0  0  0  0  0  0  0  0  0  0  0
    8.3402  -15.8203   25.0375 C   0  0  0  0  0  0  0  0  0  0  0  0
    9.4087  -15.5164   24.0051 C   0  0  2  0  0  0  0  0  0  0  0  0
    8.8724  -15.5268   22.6772 N   0  0  0  0  0  0  0  0  0  0  0  0
   10.4859  -16.5232   24.1370 C   0  0  0  0  0  0  0  0  0  0  0  0
   11.7521  -16.1843   24.5721 O   0  0  0  0  0  0  0  0  0  0  0  0
   10.2538  -17.7172   23.8489 O   0  0  0  0  0  0  0  0  0  0  0  0
  1  2  1  0
  2  3  1  0
  3 10  1  0
  3  4  2  0
  6  5  1  0
  7  6  2  0
  8  6  1  0
  9  8  1  1
 10  9  1  0
 11  9  1  0
 11 12  2  0
 14 13  1  0
 15 14  1  1
 15 16  1  0
 16 11  1  0
 17 15  1  0
 18 17  1  0
 19 17  2  0
M  END
$$$$
