GNS.pdb
     RDKit          3D

 19 18  0  0  1  0  0  0  0  0999 V2000
   -1.0506  -27.0026   26.1786 N   0  0  0  0  0  0  0  0  0  0  0  0
   -2.4782  -26.7591   26.0798 C   0  0  0  0  0  0  0  0  0  0  0  0
   -2.8037  -25.3319   26.3680 C   0  0  0  0  0  0  0  0  0  0  0  0
   -1.9759  -24.5275   26.8237 O   0  0  0  0  0  0  0  0  0  0  0  0
   -4.0166  -20.0862   25.8709 N   0  0  0  0  0  0  0  0  0  0  0  0
   -4.9074  -21.2163   25.7520 C   0  0  0  0  0  0  0  0  0  0  0  0
   -6.0975  -21.0086   26.0076 O   0  0  0  0  0  0  0  0  0  0  0  0
   -4.3917  -22.5301   25.3456 C   0  0  0  0  0  0  0  0  0  0  0  0
   -4.6407  -23.6204   26.3618 C   0  0  2  0  0  0  0  0  0  0  0  0
   -4.1188  -24.9024   26.1022 N   0  0  0  0  0  0  0  0  0  0  0  0
   -5.9941  -23.6095   26.9381 C   0  0  0  0  0  0  0  0  0  0  0  0
   -6.9542  -24.1448   26.2876 O   0  0  0  0  0  0  0  0  0  0  0  0
   -8.9561  -24.4820   30.2644 O   0  0  0  0  0  0  0  0  0  0  0  0
   -7.7107  -24.4142   29.6426 C   0  0  0  0  0  0  0  0  0  0  0  0
   -7.6277  -23.1868   28.7557 C   0  0  2  0  0  0  0  0  0  0  0  0
   -6.3221  -23.0393   28.1859 N   0  0  0  0  0  0  0  0  0  0  0  0
   -7.9760  -21.9991   29.5677 C   0  0  0  0  0  0  0  0  0  0  0  0
   -9.2865  -21.6162   29.7757 O   0  0  0  0  0  0  0  0  0  0  0  0
   -7.0657  -21.3157   30.0844 O   0  0  0  0  0  0  0  0  0  0  0  0
  1  2  1  0
  2  3  1  0
  3 10  1  0
  3  4  2  0
  6  5  1  0
  7  6  2  0
  8  6  1  0
  9  8  1  6
 10  9  1  0
 11  9  1  0
 11 12  2  0
 14 13  1  0
 15 14  1  1
 15 16  1  0
 16 11  1  0
 17 15  1  0
 18 17  1  0
 19 17  2  0
M  END
$$$$
