GNS.pdb
     RDKit          3D

 19 18  0  0  1  0  0  0  0  0999 V2000
    5.1790  -18.9183   23.1179 N   0  0  0  0  0  0  0  0  0  0  0  0
    6.0155  -19.7994   22.3235 C   0  0  0  0  0  0  0  0  0  0  0  0
    7.1297  -19.0474   21.6762 C   0  0  0  0  0  0  0  0  0  0  0  0
    8.2397  -19.5505   21.4421 O   0  0  0  0  0  0  0  0  0  0  0  0
    8.2907  -17.5884   17.4059 N   0  0  0  0  0  0  0  0  0  0  0  0
    7.2402  -17.2520   18.3377 C   0  0  0  0  0  0  0  0  0  0  0  0
    6.1716  -17.8562   18.2043 O   0  0  0  0  0  0  0  0  0  0  0  0
    7.4649  -16.2395   19.3777 C   0  0  0  0  0  0  0  0  0  0  0  0
    7.8073  -16.8232   20.7287 C   0  0  2  0  0  0  0  0  0  0  0  0
    6.8852  -17.7053   21.3246 N   0  0  0  0  0  0  0  0  0  0  0  0
    8.4371  -15.8698   21.6551 C   0  0  0  0  0  0  0  0  0  0  0  0
    9.3909  -15.1301   21.2371 O   0  0  0  0  0  0  0  0  0  0  0  0
    6.6547  -14.4529   24.9750 O   0  0  0  0  0  0  0  0  0  0  0  0
    7.7899  -13.7989   24.4996 C   0  0  0  0  0  0  0  0  0  0  0  0
    8.7465  -14.7910   23.8669 C   0  0  2  0  0  0  0  0  0  0  0  0
    8.0593  -15.7045   23.0040 N   0  0  0  0  0  0  0  0  0  0  0  0
    9.4427  -15.5239   24.9484 C   0  0  0  0  0  0  0  0  0  0  0  0
   10.2225  -14.8745   25.8852 O   0  0  0  0  0  0  0  0  0  0  0  0
    9.3286  -16.7663   25.0252 O   0  0  0  0  0  0  0  0  0  0  0  0
  1  2  1  0
  2  3  1  0
  3 10  1  0
  3  4  2  0
  6  5  1  0
  7  6  2  0
  8  6  1  0
  9  8  1  6
 10  9  1  0
 11  9  1  0
 11 12  2  0
 14 13  1  0
 15 14  1  1
 15 16  1  0
 16 11  1  0
 17 15  1  0
 18 17  1  0
 19 17  2  0
M  END
$$$$
