GNS.pdb
     RDKit          3D

 19 18  0  0  1  0  0  0  0  0999 V2000
   -2.2739  -25.8734   25.0910 N   0  0  0  0  0  0  0  0  0  0  0  0
   -3.3083  -26.2177   26.0494 C   0  0  0  0  0  0  0  0  0  0  0  0
   -3.7323  -25.0244   26.8382 C   0  0  0  0  0  0  0  0  0  0  0  0
   -3.4290  -24.8580   28.0299 O   0  0  0  0  0  0  0  0  0  0  0  0
   -2.6303  -22.0418   25.5707 N   0  0  0  0  0  0  0  0  0  0  0  0
   -3.8107  -21.2495   25.3181 C   0  0  0  0  0  0  0  0  0  0  0  0
   -3.6621  -20.2520   24.6056 O   0  0  0  0  0  0  0  0  0  0  0  0
   -5.1047  -21.6385   25.8938 C   0  0  0  0  0  0  0  0  0  0  0  0
   -5.0387  -22.8821   26.7496 C   0  0  2  0  0  0  0  0  0  0  0  0
   -4.5129  -24.0561   26.1765 N   0  0  0  0  0  0  0  0  0  0  0  0
   -6.2166  -23.0871   27.6067 C   0  0  0  0  0  0  0  0  0  0  0  0
   -7.2325  -23.7014   27.1354 O   0  0  0  0  0  0  0  0  0  0  0  0
   -6.6516  -25.1197   30.5066 O   0  0  0  0  0  0  0  0  0  0  0  0
   -7.0242  -23.8489   30.9408 C   0  0  0  0  0  0  0  0  0  0  0  0
   -7.4371  -22.9870   29.7634 C   0  0  2  0  0  0  0  0  0  0  0  0
   -6.3134  -22.6469   28.9432 N   0  0  0  0  0  0  0  0  0  0  0  0
   -8.0873  -21.7636   30.2850 C   0  0  0  0  0  0  0  0  0  0  0  0
   -9.3414  -21.7934   30.8625 O   0  0  0  0  0  0  0  0  0  0  0  0
   -7.4930  -20.6667   30.2054 O   0  0  0  0  0  0  0  0  0  0  0  0
  1  2  1  0
  2  3  1  0
  3 10  1  0
  3  4  2  0
  6  5  1  0
  7  6  2  0
  8  6  1  0
  9  8  1  6
 10  9  1  0
 11  9  1  0
 11 12  2  0
 14 13  1  0
 15 14  1  1
 15 16  1  0
 16 11  1  0
 17 15  1  0
 18 17  1  0
 19 17  2  0
M  END
$$$$
