GNS.pdb
     RDKit          3D

 19 18  0  0  1  0  0  0  0  0999 V2000
    8.1304  -13.4733   17.8164 N   0  0  0  0  0  0  0  0  0  0  0  0
    9.4367  -13.0988   18.3268 C   0  0  0  0  0  0  0  0  0  0  0  0
   10.1557  -14.2793   18.8883 C   0  0  0  0  0  0  0  0  0  0  0  0
    9.5836  -15.3365   19.1968 O   0  0  0  0  0  0  0  0  0  0  0  0
   14.3888  -14.6718   16.6171 N   0  0  0  0  0  0  0  0  0  0  0  0
   13.7477  -15.5780   17.5404 C   0  0  0  0  0  0  0  0  0  0  0  0
   13.1929  -16.5649   17.0476 O   0  0  0  0  0  0  0  0  0  0  0  0
   13.7736  -15.3100   18.9843 C   0  0  0  0  0  0  0  0  0  0  0  0
   12.4013  -15.1507   19.5965 C   0  0  2  0  0  0  0  0  0  0  0  0
   11.5482  -14.1631   19.0673 N   0  0  0  0  0  0  0  0  0  0  0  0
   12.3785  -15.2654   21.0628 C   0  0  0  0  0  0  0  0  0  0  0  0
   13.0377  -14.4265   21.7652 O   0  0  0  0  0  0  0  0  0  0  0  0
    9.2695  -16.9225   22.9935 O   0  0  0  0  0  0  0  0  0  0  0  0
   10.1036  -16.0014   23.6247 C   0  0  0  0  0  0  0  0  0  0  0  0
   11.5435  -16.2116   23.1979 C   0  0  2  0  0  0  0  0  0  0  0  0
   11.6664  -16.2553   21.7717 N   0  0  0  0  0  0  0  0  0  0  0  0
   12.0296  -17.4741   23.7990 C   0  0  0  0  0  0  0  0  0  0  0  0
   12.4895  -18.5211   23.0247 O   0  0  0  0  0  0  0  0  0  0  0  0
   12.0280  -17.6070   25.0419 O   0  0  0  0  0  0  0  0  0  0  0  0
  1  2  1  0
  2  3  1  0
  3 10  1  0
  3  4  2  0
  6  5  1  0
  7  6  2  0
  8  6  1  0
  9  8  1  1
 10  9  1  0
 11  9  1  0
 11 12  2  0
 14 13  1  0
 15 14  1  6
 15 16  1  0
 16 11  1  0
 17 15  1  0
 18 17  1  0
 19 17  2  0
M  END
$$$$
