HKA.pdb
     RDKit          3D

 25 25  0  0  1  0  0  0  0  0999 V2000
    6.1933  -16.0074   20.9460 N   0  0  0  0  0  0  0  0  0  0  0  0
    7.3316  -15.4727   21.6313 C   0  0  1  0  0  0  0  0  0  0  0  0
    7.4975  -13.9855   21.4150 C   0  0  0  0  0  0  0  0  0  0  0  0
    7.8474  -13.6545   20.0236 C   0  0  0  0  0  0  0  0  0  0  0  0
    8.0850  -14.5032   18.9777 C   0  0  0  0  0  0  0  0  0  0  0  0
    8.3639  -13.7283   17.9167 N   0  0  0  0  0  0  0  0  0  0  0  0
    8.3060  -12.4346   18.2740 C   0  0  0  0  0  0  0  0  0  0  0  0
    7.9881  -12.4008   19.5697 N   0  0  0  0  0  0  0  0  0  0  0  0
    7.1473  -15.6828   23.0855 C   0  0  0  0  0  0  0  0  0  0  0  0
    6.2172  -15.1015   23.6695 O   0  0  0  0  0  0  0  0  0  0  0  0
    7.9897  -16.5182   23.8281 N   0  0  0  0  0  0  0  0  0  0  0  0
    8.0014  -16.8202   25.2067 C   0  0  1  0  0  0  0  0  0  0  0  0
    7.9425  -18.2322   25.6497 C   0  0  0  0  0  0  0  0  0  0  0  0
    6.8579  -19.0834   25.0798 C   0  0  0  0  0  0  0  0  0  0  0  0
    7.0139  -20.5670   25.4609 C   0  0  0  0  0  0  0  0  0  0  0  0
    5.8467  -21.3102   24.8379 C   0  0  0  0  0  0  0  0  0  0  0  0
    5.9708  -22.7003   25.1970 N   0  0  0  0  0  0  0  0  0  0  0  0
    8.9990  -16.0335   25.9529 C   0  0  0  0  0  0  0  0  0  0  0  0
   10.2303  -16.1217   25.5930 O   0  0  0  0  0  0  0  0  0  0  0  0
    9.2370  -13.1893   28.2092 C   0  0  0  0  0  0  0  0  0  0  0  0
    9.8145  -14.5259   27.7251 C   0  0  2  0  0  0  0  0  0  0  0  0
    8.7054  -15.1897   27.0323 N   0  0  0  0  0  0  0  0  0  0  0  0
   10.1279  -15.3079   28.9400 C   0  0  0  0  0  0  0  0  0  0  0  0
   11.2104  -15.0266   29.7618 O   0  0  0  0  0  0  0  0  0  0  0  0
    9.3967  -16.2691   29.2576 O   0  0  0  0  0  0  0  0  0  0  0  0
  2  1  1  6
  2  9  1  0
  3  2  1  0
  4  3  1  0
  5  4  2  0
  6  5  1  0
  7  6  1  0
  7  8  2  0
  8  4  1  0
  9 11  1  0
  9 10  2  0
 11 12  1  0
 12 18  1  0
 12 13  1  6
 13 14  1  0
 14 15  1  0
 16 17  1  0
 16 15  1  0
 18 19  2  0
 21 20  1  1
 21 23  1  0
 22 21  1  0
 22 18  1  0
 23 24  1  0
 25 23  2  0
M  END
$$$$
