HKA.pdb
     RDKit          3D

 25 25  0  0  1  0  0  0  0  0999 V2000
    7.1157  -16.7090   20.1739 N   0  0  0  0  0  0  0  0  0  0  0  0
    7.6843  -15.6605   20.9667 C   0  0  1  0  0  0  0  0  0  0  0  0
    7.1765  -14.2914   20.5745 C   0  0  0  0  0  0  0  0  0  0  0  0
    7.7126  -13.8419   19.2790 C   0  0  0  0  0  0  0  0  0  0  0  0
    8.4414  -12.7188   18.9996 C   0  0  0  0  0  0  0  0  0  0  0  0
    8.6952  -12.7498   17.6811 N   0  0  0  0  0  0  0  0  0  0  0  0
    8.1482  -13.8518   17.1413 C   0  0  0  0  0  0  0  0  0  0  0  0
    7.5475  -14.5150   18.1313 N   0  0  0  0  0  0  0  0  0  0  0  0
    7.3009  -15.8781   22.3804 C   0  0  0  0  0  0  0  0  0  0  0  0
    6.0976  -15.9744   22.6748 O   0  0  0  0  0  0  0  0  0  0  0  0
    8.2530  -15.9795   23.4013 N   0  0  0  0  0  0  0  0  0  0  0  0
    8.0940  -16.1767   24.7897 C   0  0  1  0  0  0  0  0  0  0  0  0
    8.5878  -17.4249   25.4154 C   0  0  0  0  0  0  0  0  0  0  0  0
    8.0066  -18.7102   24.9297 C   0  0  0  0  0  0  0  0  0  0  0  0
    8.6998  -19.9387   25.5468 C   0  0  0  0  0  0  0  0  0  0  0  0
    8.1165  -21.1646   24.8685 C   0  0  0  0  0  0  0  0  0  0  0  0
    8.7550  -22.3249   25.4366 N   0  0  0  0  0  0  0  0  0  0  0  0
    8.4295  -14.9772   25.5767 C   0  0  0  0  0  0  0  0  0  0  0  0
    9.6392  -14.5435   25.5314 O   0  0  0  0  0  0  0  0  0  0  0  0
    6.7943  -12.2785   27.4629 C   0  0  0  0  0  0  0  0  0  0  0  0
    8.0256  -13.1496   27.1815 C   0  0  2  0  0  0  0  0  0  0  0  0
    7.5235  -14.2675   26.3759 N   0  0  0  0  0  0  0  0  0  0  0  0
    8.4618  -13.6874   28.4878 C   0  0  0  0  0  0  0  0  0  0  0  0
    9.1507  -12.9304   29.4250 O   0  0  0  0  0  0  0  0  0  0  0  0
    8.2078  -14.8749   28.7791 O   0  0  0  0  0  0  0  0  0  0  0  0
  2  1  1  6
  2  9  1  0
  3  2  1  0
  4  3  1  0
  5  4  2  0
  6  5  1  0
  7  6  1  0
  7  8  2  0
  8  4  1  0
  9 11  1  0
  9 10  2  0
 11 12  1  0
 12 18  1  0
 12 13  1  1
 13 14  1  0
 14 15  1  0
 16 17  1  0
 16 15  1  0
 18 19  2  0
 21 20  1  1
 21 23  1  0
 22 21  1  0
 22 18  1  0
 23 24  1  0
 25 23  2  0
M  END
$$$$
