HKA.pdb
     RDKit          3D

 25 25  0  0  1  0  0  0  0  0999 V2000
    5.9338  -16.6819   20.0571 N   0  0  0  0  0  0  0  0  0  0  0  0
    7.0429  -16.1207   20.7685 C   0  0  1  0  0  0  0  0  0  0  0  0
    7.2476  -14.6534   20.4667 C   0  0  0  0  0  0  0  0  0  0  0  0
    7.7506  -14.4241   19.1020 C   0  0  0  0  0  0  0  0  0  0  0  0
    8.1295  -15.3459   18.1654 C   0  0  0  0  0  0  0  0  0  0  0  0
    8.5128  -14.6502   17.0823 N   0  0  0  0  0  0  0  0  0  0  0  0
    8.3827  -13.3345   17.3208 C   0  0  0  0  0  0  0  0  0  0  0  0
    7.9140  -13.2071   18.5638 N   0  0  0  0  0  0  0  0  0  0  0  0
    6.7763  -16.2330   22.2208 C   0  0  0  0  0  0  0  0  0  0  0  0
    5.6016  -16.2124   22.6255 O   0  0  0  0  0  0  0  0  0  0  0  0
    7.8080  -16.3621   23.1578 N   0  0  0  0  0  0  0  0  0  0  0  0
    7.7613  -16.5376   24.5574 C   0  0  1  0  0  0  0  0  0  0  0  0
    8.2659  -17.7943   25.1571 C   0  0  0  0  0  0  0  0  0  0  0  0
    8.2872  -17.8815   26.6462 C   0  0  0  0  0  0  0  0  0  0  0  0
    8.8745  -19.2132   27.1484 C   0  0  0  0  0  0  0  0  0  0  0  0
    8.9570  -19.1196   28.6608 C   0  0  0  0  0  0  0  0  0  0  0  0
    9.5298  -20.3499   29.1452 N   0  0  0  0  0  0  0  0  0  0  0  0
    8.2014  -15.3410   25.2957 C   0  0  0  0  0  0  0  0  0  0  0  0
    9.4176  -14.9515   25.1457 O   0  0  0  0  0  0  0  0  0  0  0  0
    6.8026  -12.5927   27.3123 C   0  0  0  0  0  0  0  0  0  0  0  0
    7.9886  -13.4665   26.8831 C   0  0  2  0  0  0  0  0  0  0  0  0
    7.3887  -14.5891   26.1546 N   0  0  0  0  0  0  0  0  0  0  0  0
    8.5863  -13.9964   28.1273 C   0  0  0  0  0  0  0  0  0  0  0  0
    9.3933  -13.2359   28.9618 O   0  0  0  0  0  0  0  0  0  0  0  0
    8.3663  -15.1801   28.4590 O   0  0  0  0  0  0  0  0  0  0  0  0
  2  1  1  6
  2  9  1  0
  3  2  1  0
  4  3  1  0
  5  4  2  0
  6  5  1  0
  7  6  1  0
  7  8  2  0
  8  4  1  0
  9 11  1  0
  9 10  2  0
 11 12  1  0
 12 18  1  0
 12 13  1  6
 13 14  1  0
 14 15  1  0
 16 17  1  0
 16 15  1  0
 18 19  2  0
 21 20  1  1
 21 23  1  0
 22 21  1  0
 22 18  1  0
 23 24  1  0
 25 23  2  0
M  END
$$$$
