HKA.pdb
     RDKit          3D

 25 25  0  0  1  0  0  0  0  0999 V2000
    9.0200  -15.7232   20.9847 N   0  0  0  0  0  0  0  0  0  0  0  0
    8.5268  -14.5253   21.5955 C   0  0  1  0  0  0  0  0  0  0  0  0
    7.2927  -13.9854   20.9088 C   0  0  0  0  0  0  0  0  0  0  0  0
    7.5199  -13.7054   19.4813 C   0  0  0  0  0  0  0  0  0  0  0  0
    8.0388  -12.5794   18.9038 C   0  0  0  0  0  0  0  0  0  0  0  0
    8.0463  -12.8017   17.5793 N   0  0  0  0  0  0  0  0  0  0  0  0
    7.5505  -14.0238   17.3232 C   0  0  0  0  0  0  0  0  0  0  0  0
    7.2305  -14.5698   18.4981 N   0  0  0  0  0  0  0  0  0  0  0  0
    8.1476  -14.8315   22.9939 C   0  0  0  0  0  0  0  0  0  0  0  0
    7.5551  -13.9694   23.6645 O   0  0  0  0  0  0  0  0  0  0  0  0
    8.4355  -16.0653   23.5887 N   0  0  0  0  0  0  0  0  0  0  0  0
    8.2314  -16.5184   24.9096 C   0  0  1  0  0  0  0  0  0  0  0  0
    7.9909  -17.9575   25.1634 C   0  0  0  0  0  0  0  0  0  0  0  0
    6.8753  -18.6071   24.4156 C   0  0  0  0  0  0  0  0  0  0  0  0
    6.7475  -20.1073   24.7374 C   0  0  0  0  0  0  0  0  0  0  0  0
    5.5175  -20.6144   24.0074 C   0  0  0  0  0  0  0  0  0  0  0  0
    5.5028  -22.0510   24.1198 N   0  0  0  0  0  0  0  0  0  0  0  0
    9.1809  -15.9252   25.8674 C   0  0  0  0  0  0  0  0  0  0  0  0
   10.4383  -16.0706   25.6408 O   0  0  0  0  0  0  0  0  0  0  0  0
    9.2669  -13.3458   28.4272 C   0  0  0  0  0  0  0  0  0  0  0  0
    9.8743  -14.6302   27.8476 C   0  0  2  0  0  0  0  0  0  0  0  0
    8.8148  -15.2085   27.0145 N   0  0  0  0  0  0  0  0  0  0  0  0
   10.1008  -15.5368   28.9933 C   0  0  0  0  0  0  0  0  0  0  0  0
   11.1140  -15.3431   29.9218 O   0  0  0  0  0  0  0  0  0  0  0  0
    9.3567  -16.5275   29.1493 O   0  0  0  0  0  0  0  0  0  0  0  0
  2  1  1  6
  2  9  1  0
  3  2  1  0
  4  3  1  0
  5  4  2  0
  6  5  1  0
  7  6  1  0
  7  8  2  0
  8  4  1  0
  9 11  1  0
  9 10  2  0
 11 12  1  0
 12 18  1  0
 12 13  1  6
 13 14  1  0
 14 15  1  0
 16 17  1  0
 16 15  1  0
 18 19  2  0
 21 20  1  1
 21 23  1  0
 22 21  1  0
 22 18  1  0
 23 24  1  0
 25 23  2  0
M  END
$$$$
