HKA.pdb
     RDKit          3D

 25 25  0  0  1  0  0  0  0  0999 V2000
    7.7449  -16.7809   19.9793 N   0  0  0  0  0  0  0  0  0  0  0  0
    7.9413  -15.6290   20.8074 C   0  0  1  0  0  0  0  0  0  0  0  0
    7.0712  -14.4618   20.3996 C   0  0  0  0  0  0  0  0  0  0  0  0
    7.4349  -13.9231   19.0784 C   0  0  0  0  0  0  0  0  0  0  0  0
    8.5616  -13.2376   18.7163 C   0  0  0  0  0  0  0  0  0  0  0  0
    8.4327  -12.9604   17.4085 N   0  0  0  0  0  0  0  0  0  0  0  0
    7.2672  -13.4512   16.9551 C   0  0  0  0  0  0  0  0  0  0  0  0
    6.6626  -14.0402   17.9887 N   0  0  0  0  0  0  0  0  0  0  0  0
    7.5736  -15.9806   22.1982 C   0  0  0  0  0  0  0  0  0  0  0  0
    6.3822  -16.2022   22.4732 O   0  0  0  0  0  0  0  0  0  0  0  0
    8.5274  -16.0723   23.2184 N   0  0  0  0  0  0  0  0  0  0  0  0
    8.3820  -16.3872   24.5864 C   0  0  1  0  0  0  0  0  0  0  0  0
    8.7721  -17.7293   25.0765 C   0  0  0  0  0  0  0  0  0  0  0  0
    8.6644  -17.9801   26.5431 C   0  0  0  0  0  0  0  0  0  0  0  0
    9.2200  -19.3585   26.9458 C   0  0  0  0  0  0  0  0  0  0  0  0
    8.0271  -20.2688   27.1722 C   0  0  0  0  0  0  0  0  0  0  0  0
    8.5314  -21.5822   27.4842 N   0  0  0  0  0  0  0  0  0  0  0  0
    8.8448  -15.3043   25.4717 C   0  0  0  0  0  0  0  0  0  0  0  0
   10.0434  -14.8658   25.3145 O   0  0  0  0  0  0  0  0  0  0  0  0
    7.5331  -12.7518   27.7199 C   0  0  0  0  0  0  0  0  0  0  0  0
    8.6881  -13.6790   27.3190 C   0  0  2  0  0  0  0  0  0  0  0  0
    8.0719  -14.7110   26.4787 N   0  0  0  0  0  0  0  0  0  0  0  0
    9.1558  -14.3232   28.5648 C   0  0  0  0  0  0  0  0  0  0  0  0
    9.9320  -13.6670   29.5099 O   0  0  0  0  0  0  0  0  0  0  0  0
    8.8484  -15.5115   28.7949 O   0  0  0  0  0  0  0  0  0  0  0  0
  2  1  1  6
  2  9  1  0
  3  2  1  0
  4  3  1  0
  5  4  2  0
  6  5  1  0
  7  6  1  0
  7  8  2  0
  8  4  1  0
  9 11  1  0
  9 10  2  0
 11 12  1  0
 12 18  1  0
 12 13  1  1
 13 14  1  0
 14 15  1  0
 16 17  1  0
 16 15  1  0
 18 19  2  0
 21 20  1  1
 21 23  1  0
 22 21  1  0
 22 18  1  0
 23 24  1  0
 25 23  2  0
M  END
$$$$
