HKA.pdb
     RDKit          3D

 25 25  0  0  1  0  0  0  0  0999 V2000
    7.8464  -17.4208   16.6908 N   0  0  0  0  0  0  0  0  0  0  0  0
    8.4491  -16.5684   17.6713 C   0  0  1  0  0  0  0  0  0  0  0  0
    7.6497  -15.3095   17.9207 C   0  0  0  0  0  0  0  0  0  0  0  0
    7.6466  -14.4051   16.7588 C   0  0  0  0  0  0  0  0  0  0  0  0
    8.2639  -13.1928   16.6185 C   0  0  0  0  0  0  0  0  0  0  0  0
    7.9665  -12.7567   15.3835 N   0  0  0  0  0  0  0  0  0  0  0  0
    7.1888  -13.6581   14.7608 C   0  0  0  0  0  0  0  0  0  0  0  0
    6.9987  -14.6661   15.6144 N   0  0  0  0  0  0  0  0  0  0  0  0
    8.5168  -17.3023   18.9557 C   0  0  0  0  0  0  0  0  0  0  0  0
    7.4960  -17.8631   19.3886 O   0  0  0  0  0  0  0  0  0  0  0  0
    9.6977  -17.3859   19.7023 N   0  0  0  0  0  0  0  0  0  0  0  0
    9.9946  -18.1158   20.8732 C   0  0  1  0  0  0  0  0  0  0  0  0
   10.8055  -19.3518   20.7823 C   0  0  0  0  0  0  0  0  0  0  0  0
   11.0891  -20.0791   22.0536 C   0  0  0  0  0  0  0  0  0  0  0  0
   11.9316  -21.3482   21.8290 C   0  0  0  0  0  0  0  0  0  0  0  0
   12.1907  -21.9562   23.1950 C   0  0  0  0  0  0  0  0  0  0  0  0
   13.0224  -23.1179   23.0067 N   0  0  0  0  0  0  0  0  0  0  0  0
   10.4035  -17.2513   21.9940 C   0  0  0  0  0  0  0  0  0  0  0  0
   11.4880  -16.5718   21.8688 O   0  0  0  0  0  0  0  0  0  0  0  0
    9.1294  -16.1012   25.2751 C   0  0  0  0  0  0  0  0  0  0  0  0
   10.2559  -16.2560   24.2449 C   0  0  2  0  0  0  0  0  0  0  0  0
    9.6944  -17.1117   23.1945 N   0  0  0  0  0  0  0  0  0  0  0  0
   11.3353  -17.0087   24.9189 C   0  0  0  0  0  0  0  0  0  0  0  0
   12.2856  -16.4044   25.7301 O   0  0  0  0  0  0  0  0  0  0  0  0
   11.4117  -18.2454   24.7634 O   0  0  0  0  0  0  0  0  0  0  0  0
  2  1  1  6
  2  9  1  0
  3  2  1  0
  4  3  1  0
  5  4  2  0
  6  5  1  0
  7  6  1  0
  7  8  2  0
  8  4  1  0
  9 11  1  0
  9 10  2  0
 11 12  1  0
 12 18  1  0
 12 13  1  6
 13 14  1  0
 14 15  1  0
 16 17  1  0
 16 15  1  0
 18 19  2  0
 21 20  1  1
 21 23  1  0
 22 21  1  0
 22 18  1  0
 23 24  1  0
 25 23  2  0
M  END
$$$$
