HKA.pdb
     RDKit          3D

 25 25  0  0  1  0  0  0  0  0999 V2000
    6.1813  -16.2935   20.8595 N   0  0  0  0  0  0  0  0  0  0  0  0
    7.2502  -15.6653   21.5766 C   0  0  1  0  0  0  0  0  0  0  0  0
    7.2882  -14.1676   21.3735 C   0  0  0  0  0  0  0  0  0  0  0  0
    7.8254  -13.7917   20.0551 C   0  0  0  0  0  0  0  0  0  0  0  0
    8.3130  -14.6036   19.0684 C   0  0  0  0  0  0  0  0  0  0  0  0
    8.6826  -13.7959   18.0611 N   0  0  0  0  0  0  0  0  0  0  0  0
    8.4393  -12.5174   18.3942 C   0  0  0  0  0  0  0  0  0  0  0  0
    7.9131  -12.5264   19.6205 N   0  0  0  0  0  0  0  0  0  0  0  0
    7.0495  -15.9030   23.0244 C   0  0  0  0  0  0  0  0  0  0  0  0
    5.9796  -15.5574   23.5535 O   0  0  0  0  0  0  0  0  0  0  0  0
    8.0292  -16.5068   23.8210 N   0  0  0  0  0  0  0  0  0  0  0  0
    8.0294  -16.8209   25.1969 C   0  0  1  0  0  0  0  0  0  0  0  0
    7.9783  -18.2373   25.6268 C   0  0  0  0  0  0  0  0  0  0  0  0
    6.8826  -19.0824   25.0692 C   0  0  0  0  0  0  0  0  0  0  0  0
    7.0340  -20.5667   25.4497 C   0  0  0  0  0  0  0  0  0  0  0  0
    5.9355  -21.3242   24.7269 C   0  0  0  0  0  0  0  0  0  0  0  0
    6.1297  -22.7287   24.9844 N   0  0  0  0  0  0  0  0  0  0  0  0
    9.0124  -16.0324   25.9603 C   0  0  0  0  0  0  0  0  0  0  0  0
   10.2483  -16.1085   25.6139 O   0  0  0  0  0  0  0  0  0  0  0  0
    9.2005  -13.2712   28.3475 C   0  0  0  0  0  0  0  0  0  0  0  0
    9.7984  -14.5649   27.7789 C   0  0  2  0  0  0  0  0  0  0  0  0
    8.7000  -15.1989   27.0424 N   0  0  0  0  0  0  0  0  0  0  0  0
   10.1222  -15.4193   28.9412 C   0  0  0  0  0  0  0  0  0  0  0  0
   11.1901  -15.1667   29.7909 O   0  0  0  0  0  0  0  0  0  0  0  0
    9.4140  -16.4184   29.1857 O   0  0  0  0  0  0  0  0  0  0  0  0
  2  1  1  6
  2  9  1  0
  3  2  1  0
  4  3  1  0
  5  4  2  0
  6  5  1  0
  7  6  1  0
  7  8  2  0
  8  4  1  0
  9 11  1  0
  9 10  2  0
 11 12  1  0
 12 18  1  0
 12 13  1  6
 13 14  1  0
 14 15  1  0
 16 17  1  0
 16 15  1  0
 18 19  2  0
 21 20  1  1
 21 23  1  0
 22 21  1  0
 22 18  1  0
 23 24  1  0
 25 23  2  0
M  END
$$$$
