HKA.pdb
     RDKit          3D

 25 25  0  0  1  0  0  0  0  0999 V2000
    9.0762  -15.7071   20.6543 N   0  0  0  0  0  0  0  0  0  0  0  0
    8.2861  -14.5911   21.0804 C   0  0  1  0  0  0  0  0  0  0  0  0
    7.0622  -14.3794   20.2183 C   0  0  0  0  0  0  0  0  0  0  0  0
    7.4024  -13.9275   18.8589 C   0  0  0  0  0  0  0  0  0  0  0  0
    8.6384  -13.7065   18.3166 C   0  0  0  0  0  0  0  0  0  0  0  0
    8.4310  -13.3054   17.0517 N   0  0  0  0  0  0  0  0  0  0  0  0
    7.1121  -13.2723   16.7983 C   0  0  0  0  0  0  0  0  0  0  0  0
    6.4899  -13.6562   17.9148 N   0  0  0  0  0  0  0  0  0  0  0  0
    7.8084  -14.8508   22.4578 C   0  0  0  0  0  0  0  0  0  0  0  0
    6.9958  -14.0665   22.9761 O   0  0  0  0  0  0  0  0  0  0  0  0
    8.2434  -15.9553   23.1992 N   0  0  0  0  0  0  0  0  0  0  0  0
    7.9463  -16.3488   24.5216 C   0  0  1  0  0  0  0  0  0  0  0  0
    7.7625  -17.7842   24.8369 C   0  0  0  0  0  0  0  0  0  0  0  0
    6.7329  -18.5298   24.0561 C   0  0  0  0  0  0  0  0  0  0  0  0
    6.6273  -20.0056   24.4822 C   0  0  0  0  0  0  0  0  0  0  0  0
    5.5789  -20.6499   23.5941 C   0  0  0  0  0  0  0  0  0  0  0  0
    5.5949  -22.0670   23.8551 N   0  0  0  0  0  0  0  0  0  0  0  0
    8.7721  -15.6503   25.5221 C   0  0  0  0  0  0  0  0  0  0  0  0
   10.0502  -15.7603   25.4340 O   0  0  0  0  0  0  0  0  0  0  0  0
    8.4373  -13.0787   28.1304 C   0  0  0  0  0  0  0  0  0  0  0  0
    9.2140  -14.2397   27.4954 C   0  0  2  0  0  0  0  0  0  0  0  0
    8.2664  -14.8686   26.5694 N   0  0  0  0  0  0  0  0  0  0  0  0
    9.4927  -15.1989   28.5853 C   0  0  0  0  0  0  0  0  0  0  0  0
   10.4596  -14.9796   29.5565 O   0  0  0  0  0  0  0  0  0  0  0  0
    8.8385  -16.2606   28.6517 O   0  0  0  0  0  0  0  0  0  0  0  0
  2  1  1  6
  2  9  1  0
  3  2  1  0
  4  3  1  0
  5  4  2  0
  6  5  1  0
  7  6  1  0
  7  8  2  0
  8  4  1  0
  9 11  1  0
  9 10  2  0
 11 12  1  0
 12 18  1  0
 12 13  1  6
 13 14  1  0
 14 15  1  0
 16 17  1  0
 16 15  1  0
 18 19  2  0
 21 20  1  1
 21 23  1  0
 22 21  1  0
 22 18  1  0
 23 24  1  0
 25 23  2  0
M  END
$$$$
