HKA.pdb
     RDKit          3D

 25 25  0  0  1  0  0  0  0  0999 V2000
    9.6221  -16.4251   20.5438 N   0  0  0  0  0  0  0  0  0  0  0  0
   10.5178  -16.4496   21.6612 C   0  0  1  0  0  0  0  0  0  0  0  0
   11.5585  -15.3545   21.5990 C   0  0  0  0  0  0  0  0  0  0  0  0
   12.5037  -15.5388   20.4852 C   0  0  0  0  0  0  0  0  0  0  0  0
   12.5662  -16.5605   19.5782 C   0  0  0  0  0  0  0  0  0  0  0  0
   13.5954  -16.2805   18.7621 N   0  0  0  0  0  0  0  0  0  0  0  0
   14.1669  -15.1235   19.1358 C   0  0  0  0  0  0  0  0  0  0  0  0
   13.4886  -14.6767   20.1947 N   0  0  0  0  0  0  0  0  0  0  0  0
    9.7332  -16.2342   22.8985 C   0  0  0  0  0  0  0  0  0  0  0  0
    8.8960  -15.3167   22.9342 O   0  0  0  0  0  0  0  0  0  0  0  0
    9.9037  -17.0333   24.0349 N   0  0  0  0  0  0  0  0  0  0  0  0
    9.1821  -17.0725   25.2471 C   0  0  1  0  0  0  0  0  0  0  0  0
    8.6715  -18.3662   25.7563 C   0  0  0  0  0  0  0  0  0  0  0  0
    7.7521  -19.1360   24.8687 C   0  0  0  0  0  0  0  0  0  0  0  0
    7.2551  -20.4373   25.5247 C   0  0  0  0  0  0  0  0  0  0  0  0
    6.3576  -21.1285   24.5149 C   0  0  0  0  0  0  0  0  0  0  0  0
    5.9586  -22.3938   25.0776 N   0  0  0  0  0  0  0  0  0  0  0  0
    9.7996  -16.2520   26.3036 C   0  0  0  0  0  0  0  0  0  0  0  0
   11.0546  -16.4097   26.5354 O   0  0  0  0  0  0  0  0  0  0  0  0
    8.9068  -13.4547   28.5634 C   0  0  0  0  0  0  0  0  0  0  0  0
    9.8745  -14.5422   28.0784 C   0  0  2  0  0  0  0  0  0  0  0  0
    9.1183  -15.3051   27.0798 N   0  0  0  0  0  0  0  0  0  0  0  0
   10.1215  -15.4260   29.2376 C   0  0  0  0  0  0  0  0  0  0  0  0
   10.9868  -15.0938   30.2705 O   0  0  0  0  0  0  0  0  0  0  0  0
    9.5338  -16.5256   29.3081 O   0  0  0  0  0  0  0  0  0  0  0  0
  2  1  1  6
  2  9  1  0
  3  2  1  0
  4  3  1  0
  5  4  2  0
  6  5  1  0
  7  6  1  0
  7  8  2  0
  8  4  1  0
  9 11  1  0
  9 10  2  0
 11 12  1  0
 12 18  1  0
 12 13  1  1
 13 14  1  0
 14 15  1  0
 16 17  1  0
 16 15  1  0
 18 19  2  0
 21 20  1  1
 21 23  1  0
 22 21  1  0
 22 18  1  0
 23 24  1  0
 25 23  2  0
M  END
$$$$
