HKA.pdb
     RDKit          3D

 25 25  0  0  1  0  0  0  0  0999 V2000
    9.0539  -15.8732   20.9527 N   0  0  0  0  0  0  0  0  0  0  0  0
    8.5845  -14.6456   21.5218 C   0  0  1  0  0  0  0  0  0  0  0  0
    7.3679  -14.0996   20.8093 C   0  0  0  0  0  0  0  0  0  0  0  0
    7.6000  -13.9036   19.3686 C   0  0  0  0  0  0  0  0  0  0  0  0
    8.0490  -12.7862   18.7201 C   0  0  0  0  0  0  0  0  0  0  0  0
    8.0953  -13.0985   17.4147 N   0  0  0  0  0  0  0  0  0  0  0  0
    7.6908  -14.3675   17.2388 C   0  0  0  0  0  0  0  0  0  0  0  0
    7.3891  -14.8523   18.4450 N   0  0  0  0  0  0  0  0  0  0  0  0
    8.1891  -14.8985   22.9263 C   0  0  0  0  0  0  0  0  0  0  0  0
    7.6205  -13.9990   23.5679 O   0  0  0  0  0  0  0  0  0  0  0  0
    8.4354  -16.1226   23.5587 N   0  0  0  0  0  0  0  0  0  0  0  0
    8.2059  -16.5315   24.8898 C   0  0  1  0  0  0  0  0  0  0  0  0
    7.9509  -17.9602   25.1855 C   0  0  0  0  0  0  0  0  0  0  0  0
    6.8148  -18.6141   24.4733 C   0  0  0  0  0  0  0  0  0  0  0  0
    6.7632  -20.1331   24.7196 C   0  0  0  0  0  0  0  0  0  0  0  0
    5.5000  -20.6478   24.0545 C   0  0  0  0  0  0  0  0  0  0  0  0
    5.5174  -22.0865   24.1355 N   0  0  0  0  0  0  0  0  0  0  0  0
    9.1433  -15.9141   25.8441 C   0  0  0  0  0  0  0  0  0  0  0  0
   10.4035  -16.0584   25.6328 O   0  0  0  0  0  0  0  0  0  0  0  0
    9.2459  -13.3902   28.4722 C   0  0  0  0  0  0  0  0  0  0  0  0
    9.8096  -14.6868   27.8761 C   0  0  2  0  0  0  0  0  0  0  0  0
    8.7629  -15.1753   26.9724 N   0  0  0  0  0  0  0  0  0  0  0  0
    9.9279  -15.6430   28.9975 C   0  0  0  0  0  0  0  0  0  0  0  0
   10.8822  -15.5207   29.9978 O   0  0  0  0  0  0  0  0  0  0  0  0
    9.1421  -16.6113   29.0648 O   0  0  0  0  0  0  0  0  0  0  0  0
  2  1  1  6
  2  9  1  0
  3  2  1  0
  4  3  1  0
  5  4  2  0
  6  5  1  0
  7  6  1  0
  7  8  2  0
  8  4  1  0
  9 11  1  0
  9 10  2  0
 11 12  1  0
 12 18  1  0
 12 13  1  6
 13 14  1  0
 14 15  1  0
 16 17  1  0
 16 15  1  0
 18 19  2  0
 21 20  1  1
 21 23  1  0
 22 21  1  0
 22 18  1  0
 23 24  1  0
 25 23  2  0
M  END
$$$$
