FPR.pdb
     RDKit          3D

 30 31  0  0  1  0  0  0  0  0999 V2000
    6.0471  -17.1878   24.8422 N   0  0  0  0  0  0  0  0  0  0  0  0
    6.9023  -16.0782   24.6329 C   0  0  1  0  0  0  0  0  0  0  0  0
    7.6450  -15.6028   25.8690 C   0  0  0  0  0  0  0  0  0  0  0  0
    7.2671  -14.1855   26.2273 C   0  0  0  0  0  0  0  0  0  0  0  0
    5.9404  -13.8963   26.4372 C   0  0  0  0  0  0  0  0  0  0  0  0
    5.5313  -12.6211   26.7575 C   0  0  0  0  0  0  0  0  0  0  0  0
    6.4898  -11.6404   26.8623 C   0  0  0  0  0  0  0  0  0  0  0  0
    7.8352  -11.9266   26.6512 C   0  0  0  0  0  0  0  0  0  0  0  0
    8.2130  -13.2097   26.3327 C   0  0  0  0  0  0  0  0  0  0  0  0
    7.8233  -16.1991   23.4741 C   0  0  0  0  0  0  0  0  0  0  0  0
    8.5854  -17.1878   23.3581 O   0  0  0  0  0  0  0  0  0  0  0  0
    7.8983  -15.2006   22.4260 N   0  0  0  0  0  0  0  0  0  0  0  0
    7.0144  -14.0593   22.3738 C   0  0  0  0  0  0  0  0  0  0  0  0
    7.3809  -13.3116   21.1177 C   0  0  0  0  0  0  0  0  0  0  0  0
    8.7737  -13.7626   20.7968 C   0  0  0  0  0  0  0  0  0  0  0  0
    8.7620  -15.1834   21.3019 C   0  0  1  0  0  0  0  0  0  0  0  0
   10.1585  -15.6222   21.5637 C   0  0  0  0  0  0  0  0  0  0  0  0
   10.7515  -15.1724   22.5675 O   0  0  0  0  0  0  0  0  0  0  0  0
   15.9921  -13.7419   16.0895 N   0  0  0  0  0  0  0  0  0  0  0  0
   16.4181  -14.2151   17.3609 C   0  0  0  0  0  0  0  0  0  0  0  0
   17.5438  -13.7985   17.8664 N   0  0  0  0  0  0  0  0  0  0  0  0
   15.6392  -15.1448   18.1087 N   0  0  0  0  0  0  0  0  0  0  0  0
   14.2061  -14.9693   18.1295 C   0  0  0  0  0  0  0  0  0  0  0  0
   13.7478  -14.4066   19.4701 C   0  0  0  0  0  0  0  0  0  0  0  0
   12.3440  -14.8236   19.7952 C   0  0  0  0  0  0  0  0  0  0  0  0
   12.2152  -16.2554   20.2157 C   0  0  2  0  0  0  0  0  0  0  0  0
   10.8675  -16.5241   20.7443 N   0  0  0  0  0  0  0  0  0  0  0  0
   13.1455  -16.5460   21.3099 C   0  0  0  0  0  0  0  0  0  0  0  0
   13.2025  -15.7401   22.4218 O   0  0  0  0  0  0  0  0  0  0  0  0
   13.8998  -17.5327   21.2436 O   0  0  0  0  0  0  0  0  0  0  0  0
  2  1  1  1
  2  3  1  0
  2 10  1  0
  3  4  1  0
  4  5  2  0
  4  9  1  0
  5  6  1  0
  6  7  2  0
  8  7  1  0
  9  8  2  0
 10 12  1  0
 11 10  2  0
 12 16  1  0
 12 13  1  0
 13 14  1  0
 15 14  1  0
 16 15  1  0
 17 27  1  0
 16 17  1  1
 18 17  2  0
 20 19  1  0
 20 22  1  0
 21 20  2  0
 22 23  1  0
 23 24  1  0
 24 25  1  0
 26 25  1  1
 26 27  1  0
 26 28  1  0
 28 29  1  0
 30 28  2  0
M  END
$$$$
