FPR.pdb
     RDKit          3D

 30 31  0  0  1  0  0  0  0  0999 V2000
    5.4716  -17.1134   25.2158 N   0  0  0  0  0  0  0  0  0  0  0  0
    6.4040  -16.0773   24.9634 C   0  0  1  0  0  0  0  0  0  0  0  0
    7.1215  -15.5508   26.1937 C   0  0  0  0  0  0  0  0  0  0  0  0
    7.0748  -14.0428   26.2551 C   0  0  0  0  0  0  0  0  0  0  0  0
    5.8473  -13.4258   26.2325 C   0  0  0  0  0  0  0  0  0  0  0  0
    5.7388  -12.0538   26.2763 C   0  0  0  0  0  0  0  0  0  0  0  0
    6.8963  -11.3142   26.3438 C   0  0  0  0  0  0  0  0  0  0  0  0
    8.1427  -11.9329   26.3672 C   0  0  0  0  0  0  0  0  0  0  0  0
    8.2189  -13.3050   26.3221 C   0  0  0  0  0  0  0  0  0  0  0  0
    7.3645  -16.3450   23.8628 C   0  0  0  0  0  0  0  0  0  0  0  0
    8.0835  -17.3720   23.8716 O   0  0  0  0  0  0  0  0  0  0  0  0
    7.5287  -15.4527   22.7324 N   0  0  0  0  0  0  0  0  0  0  0  0
    6.5057  -14.5183   22.3236 C   0  0  0  0  0  0  0  0  0  0  0  0
    7.0422  -13.8322   21.0937 C   0  0  0  0  0  0  0  0  0  0  0  0
    8.5266  -14.0268   21.1640 C   0  0  0  0  0  0  0  0  0  0  0  0
    8.6299  -15.3691   21.8435 C   0  0  1  0  0  0  0  0  0  0  0  0
    9.9702  -15.4971   22.4746 C   0  0  0  0  0  0  0  0  0  0  0  0
   10.2557  -14.7510   23.4356 O   0  0  0  0  0  0  0  0  0  0  0  0
   11.3100  -20.7002   27.7435 N   0  0  0  0  0  0  0  0  0  0  0  0
   10.5826  -21.0740   26.5803 C   0  0  0  0  0  0  0  0  0  0  0  0
    9.9072  -22.1875   26.5652 N   0  0  0  0  0  0  0  0  0  0  0  0
   10.5707  -20.2552   25.4143 N   0  0  0  0  0  0  0  0  0  0  0  0
   11.3857  -19.0633   25.4122 C   0  0  0  0  0  0  0  0  0  0  0  0
   11.3062  -18.3538   24.0653 C   0  0  0  0  0  0  0  0  0  0  0  0
   12.2139  -17.1608   24.0130 C   0  0  0  0  0  0  0  0  0  0  0  0
   12.2904  -16.5114   22.6655 C   0  0  2  0  0  0  0  0  0  0  0  0
   10.9535  -16.4167   22.0559 N   0  0  0  0  0  0  0  0  0  0  0  0
   13.0944  -17.3309   21.7549 C   0  0  0  0  0  0  0  0  0  0  0  0
   12.5304  -17.9160   20.6465 O   0  0  0  0  0  0  0  0  0  0  0  0
   14.3053  -17.5074   21.9770 O   0  0  0  0  0  0  0  0  0  0  0  0
  2  1  1  1
  2  3  1  0
  2 10  1  0
  3  4  1  0
  4  5  2  0
  4  9  1  0
  5  6  1  0
  6  7  2  0
  8  7  1  0
  9  8  2  0
 10 12  1  0
 11 10  2  0
 12 16  1  0
 12 13  1  0
 13 14  1  0
 15 14  1  0
 16 15  1  0
 17 27  1  0
 16 17  1  1
 18 17  2  0
 20 19  1  0
 20 22  1  0
 21 20  2  0
 22 23  1  0
 23 24  1  0
 24 25  1  0
 26 25  1  1
 26 27  1  0
 26 28  1  0
 28 29  1  0
 30 28  2  0
M  END
$$$$
