FPR.pdb
     RDKit          3D

 30 31  0  0  1  0  0  0  0  0999 V2000
    6.1779  -16.6899   25.6156 N   0  0  0  0  0  0  0  0  0  0  0  0
    6.1318  -16.0963   24.3303 C   0  0  1  0  0  0  0  0  0  0  0  0
    5.6489  -14.6569   24.3091 C   0  0  0  0  0  0  0  0  0  0  0  0
    6.4531  -13.7924   25.2502 C   0  0  0  0  0  0  0  0  0  0  0  0
    5.9439  -13.5394   26.5010 C   0  0  0  0  0  0  0  0  0  0  0  0
    6.6249  -12.7508   27.4013 C   0  0  0  0  0  0  0  0  0  0  0  0
    7.8335  -12.2211   27.0138 C   0  0  0  0  0  0  0  0  0  0  0  0
    8.3550  -12.4736   25.7485 C   0  0  0  0  0  0  0  0  0  0  0  0
    7.6515  -13.2648   24.8714 C   0  0  0  0  0  0  0  0  0  0  0  0
    7.3633  -16.2550   23.5157 C   0  0  0  0  0  0  0  0  0  0  0  0
    8.2112  -17.1351   23.7957 O   0  0  0  0  0  0  0  0  0  0  0  0
    7.6571  -15.4182   22.3693 N   0  0  0  0  0  0  0  0  0  0  0  0
    6.6867  -14.5143   21.7965 C   0  0  0  0  0  0  0  0  0  0  0  0
    7.3625  -13.8851   20.6055 C   0  0  0  0  0  0  0  0  0  0  0  0
    8.8288  -14.0626   20.8599 C   0  0  0  0  0  0  0  0  0  0  0  0
    8.8553  -15.3687   21.6132 C   0  0  1  0  0  0  0  0  0  0  0  0
   10.1121  -15.4534   22.4034 C   0  0  0  0  0  0  0  0  0  0  0  0
   10.2284  -14.7437   23.4253 O   0  0  0  0  0  0  0  0  0  0  0  0
    8.7506  -20.1806   26.8634 N   0  0  0  0  0  0  0  0  0  0  0  0
   10.0506  -20.3679   26.3186 C   0  0  0  0  0  0  0  0  0  0  0  0
   10.9790  -20.9383   27.0319 N   0  0  0  0  0  0  0  0  0  0  0  0
   10.3722  -19.9438   24.9969 N   0  0  0  0  0  0  0  0  0  0  0  0
   11.7530  -20.0080   24.5795 C   0  0  0  0  0  0  0  0  0  0  0  0
   12.0347  -18.9926   23.4779 C   0  0  0  0  0  0  0  0  0  0  0  0
   11.9771  -17.5853   23.9937 C   0  0  0  0  0  0  0  0  0  0  0  0
   12.3317  -16.5471   22.9739 C   0  0  2  0  0  0  0  0  0  0  0  0
   11.1956  -16.2926   22.0726 N   0  0  0  0  0  0  0  0  0  0  0  0
   13.4245  -17.0269   22.1237 C   0  0  0  0  0  0  0  0  0  0  0  0
   13.1982  -17.3824   20.8155 O   0  0  0  0  0  0  0  0  0  0  0  0
   14.5777  -17.1185   22.5804 O   0  0  0  0  0  0  0  0  0  0  0  0
  2  1  1  1
  2  3  1  0
  2 10  1  0
  3  4  1  0
  4  5  2  0
  4  9  1  0
  5  6  1  0
  6  7  2  0
  8  7  1  0
  9  8  2  0
 10 12  1  0
 11 10  2  0
 12 16  1  0
 12 13  1  0
 13 14  1  0
 15 14  1  0
 16 15  1  0
 17 27  1  0
 16 17  1  1
 18 17  2  0
 20 19  1  0
 20 22  1  0
 21 20  2  0
 22 23  1  0
 23 24  1  0
 24 25  1  0
 26 25  1  1
 26 27  1  0
 26 28  1  0
 28 29  1  0
 30 28  2  0
M  END
$$$$
