FPR.pdb
     RDKit          3D

 30 31  0  0  1  0  0  0  0  0999 V2000
    5.5721  -16.9535   25.2708 N   0  0  0  0  0  0  0  0  0  0  0  0
    6.5076  -15.9571   24.8989 C   0  0  1  0  0  0  0  0  0  0  0  0
    7.3254  -15.3897   26.0456 C   0  0  0  0  0  0  0  0  0  0  0  0
    7.0920  -13.9068   26.2075 C   0  0  0  0  0  0  0  0  0  0  0  0
    8.1813  -13.0695   26.2019 C   0  0  0  0  0  0  0  0  0  0  0  0
    8.0349  -11.7089   26.3546 C   0  0  0  0  0  0  0  0  0  0  0  0
    6.7639  -11.2079   26.5134 C   0  0  0  0  0  0  0  0  0  0  0  0
    5.6563  -12.0504   26.5198 C   0  0  0  0  0  0  0  0  0  0  0  0
    5.8345  -13.4050   26.3652 C   0  0  0  0  0  0  0  0  0  0  0  0
    7.3785  -16.3052   23.7474 C   0  0  0  0  0  0  0  0  0  0  0  0
    7.9876  -17.4003   23.7091 O   0  0  0  0  0  0  0  0  0  0  0  0
    7.5758  -15.4178   22.6184 N   0  0  0  0  0  0  0  0  0  0  0  0
    6.6885  -14.3147   22.3313 C   0  0  0  0  0  0  0  0  0  0  0  0
    7.2063  -13.6892   21.0618 C   0  0  0  0  0  0  0  0  0  0  0  0
    8.6364  -14.1290   20.9744 C   0  0  0  0  0  0  0  0  0  0  0  0
    8.5805  -15.4903   21.6209 C   0  0  1  0  0  0  0  0  0  0  0  0
    9.9368  -15.8580   22.1071 C   0  0  0  0  0  0  0  0  0  0  0  0
   10.4221  -15.2257   23.0695 O   0  0  0  0  0  0  0  0  0  0  0  0
    7.6339  -22.0166   24.4277 N   0  0  0  0  0  0  0  0  0  0  0  0
    8.6833  -21.6072   23.5600 C   0  0  0  0  0  0  0  0  0  0  0  0
    8.4394  -21.3969   22.2980 N   0  0  0  0  0  0  0  0  0  0  0  0
   10.0126  -21.4178   24.0368 N   0  0  0  0  0  0  0  0  0  0  0  0
   10.9965  -20.8959   23.1179 C   0  0  0  0  0  0  0  0  0  0  0  0
   10.9554  -19.3723   23.0865 C   0  0  0  0  0  0  0  0  0  0  0  0
   12.0633  -18.8054   22.2492 C   0  0  0  0  0  0  0  0  0  0  0  0
   12.0163  -17.3154   22.1036 C   0  0  2  0  0  0  0  0  0  0  0  0
   10.7221  -16.8866   21.5476 N   0  0  0  0  0  0  0  0  0  0  0  0
   13.0355  -16.8687   21.1502 C   0  0  0  0  0  0  0  0  0  0  0  0
   14.3664  -16.8564   21.4927 O   0  0  0  0  0  0  0  0  0  0  0  0
   12.7044  -16.4928   20.0118 O   0  0  0  0  0  0  0  0  0  0  0  0
  2  1  1  1
  2  3  1  0
  2 10  1  0
  3  4  1  0
  4  5  2  0
  4  9  1  0
  5  6  1  0
  6  7  2  0
  8  7  1  0
  9  8  2  0
 10 12  1  0
 11 10  2  0
 12 16  1  0
 12 13  1  0
 13 14  1  0
 15 14  1  0
 16 15  1  0
 17 27  1  0
 16 17  1  1
 18 17  2  0
 20 19  1  0
 20 22  1  0
 21 20  2  0
 22 23  1  0
 23 24  1  0
 24 25  1  0
 26 25  1  6
 26 27  1  0
 26 28  1  0
 28 29  1  0
 30 28  2  0
M  END
$$$$
