FPR.pdb
     RDKit          3D

 30 31  0  0  1  0  0  0  0  0999 V2000
    4.7929  -17.1064   24.3001 N   0  0  0  0  0  0  0  0  0  0  0  0
    5.8237  -16.1878   24.6161 C   0  0  1  0  0  0  0  0  0  0  0  0
    6.1303  -16.0574   26.0975 C   0  0  0  0  0  0  0  0  0  0  0  0
    6.6475  -14.6792   26.4336 C   0  0  0  0  0  0  0  0  0  0  0  0
    7.9943  -14.5232   26.6561 C   0  0  0  0  0  0  0  0  0  0  0  0
    8.5259  -13.2938   26.9757 C   0  0  0  0  0  0  0  0  0  0  0  0
    7.6695  -12.2216   27.0664 C   0  0  0  0  0  0  0  0  0  0  0  0
    6.3044  -12.3726   26.8421 C   0  0  0  0  0  0  0  0  0  0  0  0
    5.8032  -13.6130   26.5248 C   0  0  0  0  0  0  0  0  0  0  0  0
    7.0725  -16.3423   23.8274 C   0  0  0  0  0  0  0  0  0  0  0  0
    7.7151  -17.4187   23.8439 O   0  0  0  0  0  0  0  0  0  0  0  0
    7.6167  -15.2790   23.0062 N   0  0  0  0  0  0  0  0  0  0  0  0
    7.0661  -13.9436   22.9969 C   0  0  0  0  0  0  0  0  0  0  0  0
    7.8722  -13.1727   21.9835 C   0  0  0  0  0  0  0  0  0  0  0  0
    9.1523  -13.9406   21.8489 C   0  0  0  0  0  0  0  0  0  0  0  0
    8.6884  -15.3565   22.0814 C   0  0  1  0  0  0  0  0  0  0  0  0
    9.8444  -16.1864   22.5129 C   0  0  0  0  0  0  0  0  0  0  0  0
    9.6313  -17.3486   22.9196 O   0  0  0  0  0  0  0  0  0  0  0  0
   14.3191  -21.5284   19.0606 N   0  0  0  0  0  0  0  0  0  0  0  0
   14.0222  -20.3234   18.3665 C   0  0  0  0  0  0  0  0  0  0  0  0
   13.9717  -20.3177   17.0651 N   0  0  0  0  0  0  0  0  0  0  0  0
   13.7751  -19.1048   19.0623 N   0  0  0  0  0  0  0  0  0  0  0  0
   12.6788  -19.0684   20.0014 C   0  0  0  0  0  0  0  0  0  0  0  0
   12.6105  -17.7172   20.7037 C   0  0  0  0  0  0  0  0  0  0  0  0
   12.3465  -17.8689   22.1724 C   0  0  0  0  0  0  0  0  0  0  0  0
   12.3201  -16.5737   22.9242 C   0  0  2  0  0  0  0  0  0  0  0  0
   11.1829  -15.7438   22.4931 N   0  0  0  0  0  0  0  0  0  0  0  0
   13.5256  -15.7943   22.6299 C   0  0  0  0  0  0  0  0  0  0  0  0
   14.6429  -15.8940   23.4240 O   0  0  0  0  0  0  0  0  0  0  0  0
   13.5509  -15.0280   21.6506 O   0  0  0  0  0  0  0  0  0  0  0  0
  2  1  1  1
  2  3  1  0
  2 10  1  0
  3  4  1  0
  4  5  2  0
  4  9  1  0
  5  6  1  0
  6  7  2  0
  8  7  1  0
  9  8  2  0
 10 12  1  0
 11 10  2  0
 12 16  1  0
 12 13  1  0
 13 14  1  0
 15 14  1  0
 16 15  1  0
 17 27  1  0
 16 17  1  1
 18 17  2  0
 20 19  1  0
 20 22  1  0
 21 20  2  0
 22 23  1  0
 23 24  1  0
 24 25  1  0
 26 25  1  6
 26 27  1  0
 26 28  1  0
 28 29  1  0
 30 28  2  0
M  END
$$$$
