FPR.pdb
     RDKit          3D

 30 31  0  0  1  0  0  0  0  0999 V2000
    6.4956  -18.1069   27.3397 N   0  0  0  0  0  0  0  0  0  0  0  0
    7.4504  -17.1765   26.8610 C   0  0  1  0  0  0  0  0  0  0  0  0
    8.8749  -17.4298   27.3219 C   0  0  0  0  0  0  0  0  0  0  0  0
    9.4579  -16.2143   28.0019 C   0  0  0  0  0  0  0  0  0  0  0  0
   10.5030  -16.3929   28.8759 C   0  0  0  0  0  0  0  0  0  0  0  0
   11.0715  -15.3255   29.5343 C   0  0  0  0  0  0  0  0  0  0  0  0
   10.5637  -14.0704   29.2928 C   0  0  0  0  0  0  0  0  0  0  0  0
    9.5056  -13.8825   28.4086 C   0  0  0  0  0  0  0  0  0  0  0  0
    8.9586  -14.9681   27.7661 C   0  0  0  0  0  0  0  0  0  0  0  0
    7.4037  -16.9174   25.3994 C   0  0  0  0  0  0  0  0  0  0  0  0
    7.3196  -17.8629   24.5805 O   0  0  0  0  0  0  0  0  0  0  0  0
    7.4526  -15.5815   24.8391 N   0  0  0  0  0  0  0  0  0  0  0  0
    7.0742  -14.4078   25.5913 C   0  0  0  0  0  0  0  0  0  0  0  0
    7.2129  -13.2467   24.6405 C   0  0  0  0  0  0  0  0  0  0  0  0
    8.1449  -13.7355   23.5734 C   0  0  0  0  0  0  0  0  0  0  0  0
    7.8089  -15.2046   23.5197 C   0  0  1  0  0  0  0  0  0  0  0  0
    8.9543  -15.9482   22.9312 C   0  0  0  0  0  0  0  0  0  0  0  0
    9.2409  -17.0737   23.3927 O   0  0  0  0  0  0  0  0  0  0  0  0
    8.9271  -12.8607   17.9812 N   0  0  0  0  0  0  0  0  0  0  0  0
    8.1531  -13.8582   17.3272 C   0  0  0  0  0  0  0  0  0  0  0  0
    6.9534  -13.5778   16.9048 N   0  0  0  0  0  0  0  0  0  0  0  0
    8.6579  -15.1740   17.1175 N   0  0  0  0  0  0  0  0  0  0  0  0
   10.0167  -15.4528   17.5188 C   0  0  0  0  0  0  0  0  0  0  0  0
   10.2064  -15.1940   19.0091 C   0  0  0  0  0  0  0  0  0  0  0  0
   10.4676  -16.4641   19.7631 C   0  0  0  0  0  0  0  0  0  0  0  0
   10.7954  -16.2579   21.2100 C   0  0  2  0  0  0  0  0  0  0  0  0
    9.7491  -15.4621   21.8731 N   0  0  0  0  0  0  0  0  0  0  0  0
   12.0353  -15.4883   21.3421 C   0  0  0  0  0  0  0  0  0  0  0  0
   13.2574  -16.0713   21.1065 O   0  0  0  0  0  0  0  0  0  0  0  0
   11.9950  -14.2897   21.6717 O   0  0  0  0  0  0  0  0  0  0  0  0
  2  1  1  6
  2  3  1  0
  2 10  1  0
  3  4  1  0
  4  5  2  0
  4  9  1  0
  5  6  1  0
  6  7  2  0
  8  7  1  0
  9  8  2  0
 10 12  1  0
 11 10  2  0
 12 16  1  0
 12 13  1  0
 13 14  1  0
 15 14  1  0
 16 15  1  0
 17 27  1  0
 16 17  1  1
 18 17  2  0
 20 19  1  0
 20 22  1  0
 21 20  2  0
 22 23  1  0
 23 24  1  0
 24 25  1  0
 26 25  1  6
 26 27  1  0
 26 28  1  0
 28 29  1  0
 30 28  2  0
M  END
$$$$
