FPR.pdb
     RDKit          3D

 30 31  0  0  1  0  0  0  0  0999 V2000
    6.8011  -18.1901   27.8210 N   0  0  0  0  0  0  0  0  0  0  0  0
    7.5941  -17.0901   27.4115 C   0  0  1  0  0  0  0  0  0  0  0  0
    9.0919  -17.3377   27.4396 C   0  0  0  0  0  0  0  0  0  0  0  0
    9.8413  -16.1248   27.9366 C   0  0  0  0  0  0  0  0  0  0  0  0
   10.3282  -16.1388   29.2213 C   0  0  0  0  0  0  0  0  0  0  0  0
   11.0116  -15.0598   29.7359 C   0  0  0  0  0  0  0  0  0  0  0  0
   11.1950  -13.9632   28.9265 C   0  0  0  0  0  0  0  0  0  0  0  0
   10.7046  -13.9426   27.6243 C   0  0  0  0  0  0  0  0  0  0  0  0
   10.0259  -15.0353   27.1386 C   0  0  0  0  0  0  0  0  0  0  0  0
    7.1848  -16.4568   26.1321 C   0  0  0  0  0  0  0  0  0  0  0  0
    7.0212  -17.1447   25.0968 O   0  0  0  0  0  0  0  0  0  0  0  0
    6.9545  -15.0316   26.0024 N   0  0  0  0  0  0  0  0  0  0  0  0
    6.8345  -14.1556   27.1446 C   0  0  0  0  0  0  0  0  0  0  0  0
    6.5475  -12.7860   26.5851 C   0  0  0  0  0  0  0  0  0  0  0  0
    7.0276  -12.8442   25.1665 C   0  0  0  0  0  0  0  0  0  0  0  0
    6.7660  -14.2862   24.8113 C   0  0  1  0  0  0  0  0  0  0  0  0
    7.6368  -14.6758   23.6705 C   0  0  0  0  0  0  0  0  0  0  0  0
    8.5557  -15.4989   23.8697 O   0  0  0  0  0  0  0  0  0  0  0  0
    7.5474  -12.6279   14.9084 N   0  0  0  0  0  0  0  0  0  0  0  0
    8.2280  -13.8696   15.0387 C   0  0  0  0  0  0  0  0  0  0  0  0
    8.5767  -14.5352   13.9749 N   0  0  0  0  0  0  0  0  0  0  0  0
    8.5441  -14.4150   16.3165 N   0  0  0  0  0  0  0  0  0  0  0  0
    8.1675  -13.6615   17.4893 C   0  0  0  0  0  0  0  0  0  0  0  0
    8.6700  -14.3433   18.7568 C   0  0  0  0  0  0  0  0  0  0  0  0
    7.8410  -13.9732   19.9509 C   0  0  0  0  0  0  0  0  0  0  0  0
    8.1816  -14.7407   21.1912 C   0  0  2  0  0  0  0  0  0  0  0  0
    7.4927  -14.1721   22.3616 N   0  0  0  0  0  0  0  0  0  0  0  0
    9.6156  -14.6341   21.4732 C   0  0  0  0  0  0  0  0  0  0  0  0
   10.4884  -15.6201   21.0794 O   0  0  0  0  0  0  0  0  0  0  0  0
   10.0620  -13.6426   22.0769 O   0  0  0  0  0  0  0  0  0  0  0  0
  2  1  1  6
  2  3  1  0
  2 10  1  0
  3  4  1  0
  4  5  2  0
  4  9  1  0
  5  6  1  0
  6  7  2  0
  8  7  1  0
  9  8  2  0
 10 12  1  0
 11 10  2  0
 12 16  1  0
 12 13  1  0
 13 14  1  0
 15 14  1  0
 16 15  1  0
 17 27  1  0
 16 17  1  6
 18 17  2  0
 20 19  1  0
 20 22  1  0
 21 20  2  0
 22 23  1  0
 23 24  1  0
 24 25  1  0
 26 25  1  6
 26 27  1  0
 26 28  1  0
 28 29  1  0
 30 28  2  0
M  END
$$$$
