FPR.pdb
     RDKit          3D

 30 31  0  0  1  0  0  0  0  0999 V2000
    6.0942  -16.2173   25.5658 N   0  0  0  0  0  0  0  0  0  0  0  0
    6.8355  -15.3627   24.7134 C   0  0  1  0  0  0  0  0  0  0  0  0
    7.6918  -14.3333   25.4296 C   0  0  0  0  0  0  0  0  0  0  0  0
    6.8681  -13.1526   25.8847 C   0  0  0  0  0  0  0  0  0  0  0  0
    6.6931  -12.1038   25.0144 C   0  0  0  0  0  0  0  0  0  0  0  0
    5.9606  -10.9946   25.3737 C   0  0  0  0  0  0  0  0  0  0  0  0
    5.4062  -10.9641   26.6319 C   0  0  0  0  0  0  0  0  0  0  0  0
    5.5794  -12.0230   27.5181 C   0  0  0  0  0  0  0  0  0  0  0  0
    6.3163  -13.1172   27.1306 C   0  0  0  0  0  0  0  0  0  0  0  0
    7.6101  -16.0487   23.6481 C   0  0  0  0  0  0  0  0  0  0  0  0
    8.0726  -17.1999   23.8285 O   0  0  0  0  0  0  0  0  0  0  0  0
    7.8758  -15.4418   22.3588 N   0  0  0  0  0  0  0  0  0  0  0  0
    7.0327  -14.4138   21.7941 C   0  0  0  0  0  0  0  0  0  0  0  0
    7.6161  -14.1001   20.4404 C   0  0  0  0  0  0  0  0  0  0  0  0
    9.0349  -14.5770   20.5156 C   0  0  0  0  0  0  0  0  0  0  0  0
    8.9148  -15.7568   21.4472 C   0  0  1  0  0  0  0  0  0  0  0  0
   10.2404  -16.0332   22.0616 C   0  0  0  0  0  0  0  0  0  0  0  0
   10.7063  -15.2119   22.8802 O   0  0  0  0  0  0  0  0  0  0  0  0
   12.7608  -20.6576   27.3323 N   0  0  0  0  0  0  0  0  0  0  0  0
   11.3744  -20.3949   27.1569 C   0  0  0  0  0  0  0  0  0  0  0  0
   10.6478  -20.0291   28.1740 N   0  0  0  0  0  0  0  0  0  0  0  0
   10.7477  -20.5220   25.8836 N   0  0  0  0  0  0  0  0  0  0  0  0
   11.5702  -20.3874   24.7045 C   0  0  0  0  0  0  0  0  0  0  0  0
   11.5904  -18.9425   24.2191 C   0  0  0  0  0  0  0  0  0  0  0  0
   12.4117  -18.7880   22.9734 C   0  0  0  0  0  0  0  0  0  0  0  0
   12.3452  -17.4210   22.3649 C   0  0  2  0  0  0  0  0  0  0  0  0
   11.0170  -17.1754   21.7789 N   0  0  0  0  0  0  0  0  0  0  0  0
   13.3022  -17.3128   21.2604 C   0  0  0  0  0  0  0  0  0  0  0  0
   12.9011  -17.4905   19.9579 O   0  0  0  0  0  0  0  0  0  0  0  0
   14.4972  -17.0571   21.4916 O   0  0  0  0  0  0  0  0  0  0  0  0
  2  1  1  1
  2  3  1  0
  2 10  1  0
  3  4  1  0
  4  5  2  0
  4  9  1  0
  5  6  1  0
  6  7  2  0
  8  7  1  0
  9  8  2  0
 10 12  1  0
 11 10  2  0
 12 16  1  0
 12 13  1  0
 13 14  1  0
 15 14  1  0
 16 15  1  0
 17 27  1  0
 16 17  1  1
 18 17  2  0
 20 19  1  0
 20 22  1  0
 21 20  2  0
 22 23  1  0
 23 24  1  0
 24 25  1  0
 26 25  1  6
 26 27  1  0
 26 28  1  0
 28 29  1  0
 30 28  2  0
M  END
$$$$
