FPR.pdb
     RDKit          3D

 30 31  0  0  1  0  0  0  0  0999 V2000
    5.9114  -17.1564   25.6076 N   0  0  0  0  0  0  0  0  0  0  0  0
    6.6901  -16.0875   25.1000 C   0  0  1  0  0  0  0  0  0  0  0  0
    7.5125  -15.3472   26.1398 C   0  0  0  0  0  0  0  0  0  0  0  0
    7.0728  -13.9084   26.2672 C   0  0  0  0  0  0  0  0  0  0  0  0
    5.7964  -13.6518   26.7065 C   0  0  0  0  0  0  0  0  0  0  0  0
    5.3330  -12.3615   26.8348 C   0  0  0  0  0  0  0  0  0  0  0  0
    6.1853  -11.3319   26.5105 C   0  0  0  0  0  0  0  0  0  0  0  0
    7.4792  -11.5848   26.0652 C   0  0  0  0  0  0  0  0  0  0  0  0
    7.9133  -12.8841   25.9472 C   0  0  0  0  0  0  0  0  0  0  0  0
    7.5125  -16.4146   23.9074 C   0  0  0  0  0  0  0  0  0  0  0  0
    8.2367  -17.4377   23.8860 O   0  0  0  0  0  0  0  0  0  0  0  0
    7.5299  -15.5872   22.7174 N   0  0  0  0  0  0  0  0  0  0  0  0
    6.5818  -14.5197   22.4979 C   0  0  0  0  0  0  0  0  0  0  0  0
    6.9048  -13.9550   21.1384 C   0  0  0  0  0  0  0  0  0  0  0  0
    8.3212  -14.3702   20.8785 C   0  0  0  0  0  0  0  0  0  0  0  0
    8.3912  -15.6945   21.5965 C   0  0  1  0  0  0  0  0  0  0  0  0
    9.8106  -16.0075   21.9103 C   0  0  0  0  0  0  0  0  0  0  0  0
   10.3406  -15.4637   22.9028 O   0  0  0  0  0  0  0  0  0  0  0  0
   14.7187  -23.4523   25.0443 N   0  0  0  0  0  0  0  0  0  0  0  0
   13.6422  -22.8361   24.3491 C   0  0  0  0  0  0  0  0  0  0  0  0
   12.5414  -23.4986   24.1358 N   0  0  0  0  0  0  0  0  0  0  0  0
   13.7334  -21.4966   23.8721 N   0  0  0  0  0  0  0  0  0  0  0  0
   12.5444  -20.8876   23.3240 C   0  0  0  0  0  0  0  0  0  0  0  0
   12.8457  -19.4910   22.7925 C   0  0  0  0  0  0  0  0  0  0  0  0
   11.6139  -18.8255   22.2542 C   0  0  0  0  0  0  0  0  0  0  0  0
   11.8638  -17.4785   21.6485 C   0  0  2  0  0  0  0  0  0  0  0  0
   10.6089  -16.8889   21.1531 N   0  0  0  0  0  0  0  0  0  0  0  0
   12.7413  -17.6044   20.4818 C   0  0  0  0  0  0  0  0  0  0  0  0
   14.1052  -17.4905   20.6078 O   0  0  0  0  0  0  0  0  0  0  0  0
   12.2576  -17.8172   19.3559 O   0  0  0  0  0  0  0  0  0  0  0  0
  2  1  1  1
  2  3  1  0
  2 10  1  0
  3  4  1  0
  4  5  2  0
  4  9  1  0
  5  6  1  0
  6  7  2  0
  8  7  1  0
  9  8  2  0
 10 12  1  0
 11 10  2  0
 12 16  1  0
 12 13  1  0
 13 14  1  0
 15 14  1  0
 16 15  1  0
 17 27  1  0
 16 17  1  1
 18 17  2  0
 20 19  1  0
 20 22  1  0
 21 20  2  0
 22 23  1  0
 23 24  1  0
 24 25  1  0
 26 25  1  6
 26 27  1  0
 26 28  1  0
 28 29  1  0
 30 28  2  0
M  END
$$$$
