FPR.pdb
     RDKit          3D

 30 31  0  0  1  0  0  0  0  0999 V2000
    6.6666  -16.4387   26.3477 N   0  0  0  0  0  0  0  0  0  0  0  0
    6.6340  -16.0850   24.9764 C   0  0  1  0  0  0  0  0  0  0  0  0
    5.7026  -14.9351   24.6360 C   0  0  0  0  0  0  0  0  0  0  0  0
    6.0792  -13.6806   25.3870 C   0  0  0  0  0  0  0  0  0  0  0  0
    6.9460  -12.7972   24.7901 C   0  0  0  0  0  0  0  0  0  0  0  0
    7.3351  -11.6403   25.4274 C   0  0  0  0  0  0  0  0  0  0  0  0
    6.8310  -11.3911   26.6825 C   0  0  0  0  0  0  0  0  0  0  0  0
    5.9526  -12.2815   27.2927 C   0  0  0  0  0  0  0  0  0  0  0  0
    5.5826  -13.4286   26.6311 C   0  0  0  0  0  0  0  0  0  0  0  0
    7.9624  -15.8983   24.3394 C   0  0  0  0  0  0  0  0  0  0  0  0
    8.0710  -15.7992   23.0944 O   0  0  0  0  0  0  0  0  0  0  0  0
    9.1927  -15.8218   25.1020 N   0  0  0  0  0  0  0  0  0  0  0  0
    9.2098  -15.6974   26.5411 C   0  0  0  0  0  0  0  0  0  0  0  0
   10.6625  -15.5937   26.9284 C   0  0  0  0  0  0  0  0  0  0  0  0
   11.4102  -16.1785   25.7685 C   0  0  0  0  0  0  0  0  0  0  0  0
   10.5217  -15.8048   24.6088 C   0  0  1  0  0  0  0  0  0  0  0  0
   10.7910  -16.7218   23.4696 C   0  0  0  0  0  0  0  0  0  0  0  0
   10.4334  -17.9156   23.5616 O   0  0  0  0  0  0  0  0  0  0  0  0
    8.1145  -13.6527   21.0388 N   0  0  0  0  0  0  0  0  0  0  0  0
    8.7687  -13.0915   19.9079 C   0  0  0  0  0  0  0  0  0  0  0  0
    8.9449  -11.8034   19.8309 N   0  0  0  0  0  0  0  0  0  0  0  0
    9.2437  -13.9081   18.8412 N   0  0  0  0  0  0  0  0  0  0  0  0
   10.5195  -14.5644   19.0036 C   0  0  0  0  0  0  0  0  0  0  0  0
   10.3457  -15.9387   19.6399 C   0  0  0  0  0  0  0  0  0  0  0  0
   11.6648  -16.6177   19.8609 C   0  0  0  0  0  0  0  0  0  0  0  0
   11.7984  -17.2681   21.2036 C   0  0  2  0  0  0  0  0  0  0  0  0
   11.4311  -16.3290   22.2764 N   0  0  0  0  0  0  0  0  0  0  0  0
   13.1949  -17.6381   21.4488 C   0  0  0  0  0  0  0  0  0  0  0  0
   13.8403  -18.5392   20.6362 O   0  0  0  0  0  0  0  0  0  0  0  0
   13.8161  -17.1368   22.4025 O   0  0  0  0  0  0  0  0  0  0  0  0
  2  1  1  1
  2  3  1  0
  2 10  1  0
  3  4  1  0
  4  5  2  0
  4  9  1  0
  5  6  1  0
  6  7  2  0
  8  7  1  0
  9  8  2  0
 10 12  1  0
 11 10  2  0
 12 16  1  0
 12 13  1  0
 13 14  1  0
 15 14  1  0
 16 15  1  0
 17 27  1  0
 16 17  1  6
 18 17  2  0
 20 19  1  0
 20 22  1  0
 21 20  2  0
 22 23  1  0
 23 24  1  0
 24 25  1  0
 26 25  1  6
 26 27  1  0
 26 28  1  0
 28 29  1  0
 30 28  2  0
M  END
$$$$
