FPR.pdb
     RDKit          3D

 30 31  0  0  1  0  0  0  0  0999 V2000
    9.5323  -14.5662   22.1006 N   0  0  0  0  0  0  0  0  0  0  0  0
    8.8814  -14.1233   23.2782 C   0  0  1  0  0  0  0  0  0  0  0  0
    7.3771  -13.9594   23.1526 C   0  0  0  0  0  0  0  0  0  0  0  0
    6.7851  -13.3398   24.3957 C   0  0  0  0  0  0  0  0  0  0  0  0
    6.8184  -11.9721   24.5233 C   0  0  0  0  0  0  0  0  0  0  0  0
    6.3034  -11.3478   25.6374 C   0  0  0  0  0  0  0  0  0  0  0  0
    5.7523  -12.1327   26.6231 C   0  0  0  0  0  0  0  0  0  0  0  0
    5.7152  -13.5184   26.5001 C   0  0  0  0  0  0  0  0  0  0  0  0
    6.2375  -14.1129   25.3757 C   0  0  0  0  0  0  0  0  0  0  0  0
    9.2328  -14.8687   24.5137 C   0  0  0  0  0  0  0  0  0  0  0  0
    9.3331  -16.1183   24.5049 O   0  0  0  0  0  0  0  0  0  0  0  0
    9.4758  -14.2112   25.7824 N   0  0  0  0  0  0  0  0  0  0  0  0
    9.2349  -12.8017   25.9872 C   0  0  0  0  0  0  0  0  0  0  0  0
    9.6626  -12.5121   27.4029 C   0  0  0  0  0  0  0  0  0  0  0  0
    9.6349  -13.8434   28.0907 C   0  0  0  0  0  0  0  0  0  0  0  0
   10.0076  -14.7785   26.9678 C   0  0  1  0  0  0  0  0  0  0  0  0
    9.5271  -16.1482   27.2907 C   0  0  0  0  0  0  0  0  0  0  0  0
    8.3444  -16.4491   27.0218 O   0  0  0  0  0  0  0  0  0  0  0  0
    7.5933  -21.6265   24.2147 N   0  0  0  0  0  0  0  0  0  0  0  0
    8.6642  -21.2700   23.3499 C   0  0  0  0  0  0  0  0  0  0  0  0
    8.6769  -21.6974   22.1197 N   0  0  0  0  0  0  0  0  0  0  0  0
    9.7390  -20.4475   23.7955 N   0  0  0  0  0  0  0  0  0  0  0  0
   10.6388  -20.9841   24.7892 C   0  0  0  0  0  0  0  0  0  0  0  0
   10.2260  -20.5442   26.1892 C   0  0  0  0  0  0  0  0  0  0  0  0
   10.4222  -19.0703   26.3871 C   0  0  0  0  0  0  0  0  0  0  0  0
   10.0625  -18.5860   27.7581 C   0  0  2  0  0  0  0  0  0  0  0  0
   10.3276  -17.1435   27.8875 N   0  0  0  0  0  0  0  0  0  0  0  0
   10.9019  -19.2445   28.7627 C   0  0  0  0  0  0  0  0  0  0  0  0
   12.1376  -18.7405   29.0913 O   0  0  0  0  0  0  0  0  0  0  0  0
   10.5021  -20.2748   29.3331 O   0  0  0  0  0  0  0  0  0  0  0  0
  2  1  1  6
  2  3  1  0
  2 10  1  0
  3  4  1  0
  4  5  2  0
  4  9  1  0
  5  6  1  0
  6  7  2  0
  8  7  1  0
  9  8  2  0
 10 12  1  0
 11 10  2  0
 12 16  1  0
 12 13  1  0
 13 14  1  0
 15 14  1  0
 16 15  1  0
 17 27  1  0
 16 17  1  1
 18 17  2  0
 20 19  1  0
 20 22  1  0
 21 20  2  0
 22 23  1  0
 23 24  1  0
 24 25  1  0
 26 25  1  6
 26 27  1  0
 26 28  1  0
 28 29  1  0
 30 28  2  0
M  END
$$$$
