FPR.pdb
     RDKit          3D

 30 31  0  0  1  0  0  0  0  0999 V2000
    5.3856  -17.6260   24.5874 N   0  0  0  0  0  0  0  0  0  0  0  0
    6.0803  -16.4048   24.7672 C   0  0  1  0  0  0  0  0  0  0  0  0
    6.1721  -15.9287   26.2061 C   0  0  0  0  0  0  0  0  0  0  0  0
    6.4626  -14.4488   26.2790 C   0  0  0  0  0  0  0  0  0  0  0  0
    5.4073  -13.5716   26.2100 C   0  0  0  0  0  0  0  0  0  0  0  0
    5.6078  -12.2103   26.2614 C   0  0  0  0  0  0  0  0  0  0  0  0
    6.8979  -11.7498   26.3845 C   0  0  0  0  0  0  0  0  0  0  0  0
    7.9712  -12.6327   26.4552 C   0  0  0  0  0  0  0  0  0  0  0  0
    7.7392  -13.9869   26.4011 C   0  0  0  0  0  0  0  0  0  0  0  0
    7.4028  -16.3245   24.0962 C   0  0  0  0  0  0  0  0  0  0  0  0
    8.3743  -17.0030   24.5055 O   0  0  0  0  0  0  0  0  0  0  0  0
    7.6487  -15.4726   22.9496 N   0  0  0  0  0  0  0  0  0  0  0  0
    6.6415  -14.5927   22.4036 C   0  0  0  0  0  0  0  0  0  0  0  0
    7.2741  -13.9374   21.2029 C   0  0  0  0  0  0  0  0  0  0  0  0
    8.7498  -14.0756   21.4250 C   0  0  0  0  0  0  0  0  0  0  0  0
    8.8286  -15.3851   22.1687 C   0  0  1  0  0  0  0  0  0  0  0  0
   10.1039  -15.4396   22.9316 C   0  0  0  0  0  0  0  0  0  0  0  0
   10.1429  -14.9341   24.0738 O   0  0  0  0  0  0  0  0  0  0  0  0
    9.5441  -19.4915   25.4316 N   0  0  0  0  0  0  0  0  0  0  0  0
   10.4429  -20.5867   25.3110 C   0  0  0  0  0  0  0  0  0  0  0  0
    9.9841  -21.8054   25.2875 N   0  0  0  0  0  0  0  0  0  0  0  0
   11.8505  -20.3877   25.2141 N   0  0  0  0  0  0  0  0  0  0  0  0
   12.3371  -19.4338   24.2454 C   0  0  0  0  0  0  0  0  0  0  0  0
   11.4844  -18.1702   24.2524 C   0  0  0  0  0  0  0  0  0  0  0  0
   12.3170  -16.9412   24.4674 C   0  0  0  0  0  0  0  0  0  0  0  0
   12.5306  -16.1252   23.2296 C   0  0  2  0  0  0  0  0  0  0  0  0
   11.2876  -16.0317   22.4460 N   0  0  0  0  0  0  0  0  0  0  0  0
   13.5116  -16.7773   22.3580 C   0  0  0  0  0  0  0  0  0  0  0  0
   13.1634  -17.2076   21.0999 O   0  0  0  0  0  0  0  0  0  0  0  0
   14.6791  -16.9500   22.7503 O   0  0  0  0  0  0  0  0  0  0  0  0
  2  1  1  1
  2  3  1  0
  2 10  1  0
  3  4  1  0
  4  5  2  0
  4  9  1  0
  5  6  1  0
  6  7  2  0
  8  7  1  0
  9  8  2  0
 10 12  1  0
 11 10  2  0
 12 16  1  0
 12 13  1  0
 13 14  1  0
 15 14  1  0
 16 15  1  0
 17 27  1  0
 16 17  1  1
 18 17  2  0
 20 19  1  0
 20 22  1  0
 21 20  2  0
 22 23  1  0
 23 24  1  0
 24 25  1  0
 26 25  1  1
 26 27  1  0
 26 28  1  0
 28 29  1  0
 30 28  2  0
M  END
$$$$
