NFG.pdb
     RDKit          3D

 24 24  0  0  1  0  0  0  0  0999 V2000
    7.0757  -13.3584   16.4062 N   0  0  0  0  0  0  0  0  0  0  0  0
    8.1230  -14.0562   17.0280 C   0  0  0  0  0  0  0  0  0  0  0  0
    8.7736  -14.9285   16.4058 O   0  0  0  0  0  0  0  0  0  0  0  0
    8.4560  -13.7526   18.4333 C   0  0  0  0  0  0  0  0  0  0  0  0
    8.5489  -15.0017   19.2839 C   0  0  2  0  0  0  0  0  0  0  0  0
    7.4187  -15.8655   19.1548 N   0  0  0  0  0  0  0  0  0  0  0  0
    8.7091  -14.5135   20.7083 C   0  0  0  0  0  0  0  0  0  0  0  0
    9.6337  -13.7031   20.9699 O   0  0  0  0  0  0  0  0  0  0  0  0
    7.8585  -14.9392   21.7351 N   0  0  0  0  0  0  0  0  0  0  0  0
    8.0829  -14.5783   23.1409 C   0  0  1  0  0  0  0  0  0  0  0  0
    6.8424  -13.9639   23.7009 C   0  0  0  0  0  0  0  0  0  0  0  0
    6.9163  -13.3424   25.0077 C   0  0  0  0  0  0  0  0  0  0  0  0
    6.8940  -14.1762   26.1206 C   0  0  0  0  0  0  0  0  0  0  0  0
    6.9637  -13.5972   27.3662 C   0  0  0  0  0  0  0  0  0  0  0  0
    7.0536  -12.2309   27.5270 C   0  0  0  0  0  0  0  0  0  0  0  0
    7.0733  -11.4270   26.3841 C   0  0  0  0  0  0  0  0  0  0  0  0
    7.0049  -11.9808   25.1294 C   0  0  0  0  0  0  0  0  0  0  0  0
    8.5186  -15.7529   23.9090 C   0  0  0  0  0  0  0  0  0  0  0  0
    7.7333  -16.6617   24.3205 O   0  0  0  0  0  0  0  0  0  0  0  0
    9.9129  -15.9147   24.2255 N   0  0  0  0  0  0  0  0  0  0  0  0
   10.3049  -17.0183   25.0951 C   0  0  0  0  0  0  0  0  0  0  0  0
   11.7797  -17.0395   25.1830 C   0  0  0  0  0  0  0  0  0  0  0  0
   12.4664  -17.9235   26.0025 O   0  0  0  0  0  0  0  0  0  0  0  0
   12.4588  -16.2367   24.4999 O   0  0  0  0  0  0  0  0  0  0  0  0
  2  1  1  0
  2  3  2  0
  4  5  1  0
  4  2  1  0
  5  6  1  1
  7  5  1  0
  8  7  2  0
  9  7  1  0
 10  9  1  0
 10 11  1  1
 11 12  1  0
 12 13  2  0
 13 14  1  0
 15 14  2  0
 16 15  1  0
 17 12  1  0
 17 16  2  0
 18 20  1  0
 18 10  1  0
 19 18  2  0
 21 20  1  0
 22 23  1  0
 22 21  1  0
 24 22  2  0
M  END
$$$$
