NFG.pdb
     RDKit          3D

 24 24  0  0  1  0  0  0  0  0999 V2000
    7.3571  -12.7783   18.3746 N   0  0  0  0  0  0  0  0  0  0  0  0
    8.0181  -13.8884   18.9236 C   0  0  0  0  0  0  0  0  0  0  0  0
    8.1381  -14.9527   18.2724 O   0  0  0  0  0  0  0  0  0  0  0  0
    8.5763  -13.7924   20.2864 C   0  0  0  0  0  0  0  0  0  0  0  0
    8.5772  -15.1271   21.0014 C   0  0  2  0  0  0  0  0  0  0  0  0
    7.2969  -15.7596   21.0310 N   0  0  0  0  0  0  0  0  0  0  0  0
    9.0819  -14.8395   22.3998 C   0  0  0  0  0  0  0  0  0  0  0  0
   10.0723  -14.0784   22.5411 O   0  0  0  0  0  0  0  0  0  0  0  0
    8.4771  -15.3964   23.5325 N   0  0  0  0  0  0  0  0  0  0  0  0
    8.9490  -15.1131   24.8941 C   0  0  1  0  0  0  0  0  0  0  0  0
    7.7762  -14.9659   25.8065 C   0  0  0  0  0  0  0  0  0  0  0  0
    7.3047  -13.6286   26.1047 C   0  0  0  0  0  0  0  0  0  0  0  0
    8.2590  -12.6313   26.2750 C   0  0  0  0  0  0  0  0  0  0  0  0
    7.8230  -11.3580   26.5583 C   0  0  0  0  0  0  0  0  0  0  0  0
    6.4820  -11.0595   26.6739 C   0  0  0  0  0  0  0  0  0  0  0  0
    5.5540  -12.0891   26.4957 C   0  0  0  0  0  0  0  0  0  0  0  0
    5.9640  -13.3686   26.2122 C   0  0  0  0  0  0  0  0  0  0  0  0
    9.8769  -16.1602   25.3438 C   0  0  0  0  0  0  0  0  0  0  0  0
   10.5508  -16.0962   26.4179 O   0  0  0  0  0  0  0  0  0  0  0  0
   10.0507  -17.3436   24.5441 N   0  0  0  0  0  0  0  0  0  0  0  0
   11.0135  -18.3463   24.9861 C   0  0  0  0  0  0  0  0  0  0  0  0
   10.4240  -19.0891   26.1191 C   0  0  0  0  0  0  0  0  0  0  0  0
   11.1053  -20.0958   26.7877 O   0  0  0  0  0  0  0  0  0  0  0  0
    9.2639  -18.8170   26.5099 O   0  0  0  0  0  0  0  0  0  0  0  0
  2  1  1  0
  2  3  2  0
  4  5  1  0
  4  2  1  0
  5  6  1  1
  7  5  1  0
  8  7  2  0
  9  7  1  0
 10  9  1  0
 10 11  1  1
 11 12  1  0
 12 13  2  0
 13 14  1  0
 15 14  2  0
 16 15  1  0
 17 12  1  0
 17 16  2  0
 18 20  1  0
 18 10  1  0
 19 18  2  0
 21 20  1  0
 22 23  1  0
 22 21  1  0
 24 22  2  0
M  END
$$$$
