NFG.pdb
     RDKit          3D

 24 24  0  0  1  0  0  0  0  0999 V2000
    7.3940  -13.5727   16.9051 N   0  0  0  0  0  0  0  0  0  0  0  0
    8.3531  -14.4486   17.4375 C   0  0  0  0  0  0  0  0  0  0  0  0
    8.7856  -15.4144   16.7658 O   0  0  0  0  0  0  0  0  0  0  0  0
    8.8534  -14.2220   18.8073 C   0  0  0  0  0  0  0  0  0  0  0  0
    8.7786  -15.4712   19.6596 C   0  0  2  0  0  0  0  0  0  0  0  0
    7.5694  -16.2108   19.4833 N   0  0  0  0  0  0  0  0  0  0  0  0
    8.9311  -14.9980   21.0899 C   0  0  0  0  0  0  0  0  0  0  0  0
    9.9391  -14.3123   21.3962 O   0  0  0  0  0  0  0  0  0  0  0  0
    7.9837  -15.3031   22.0739 N   0  0  0  0  0  0  0  0  0  0  0  0
    8.1290  -14.8626   23.4674 C   0  0  1  0  0  0  0  0  0  0  0  0
    7.1525  -13.7683   23.7477 C   0  0  0  0  0  0  0  0  0  0  0  0
    7.1689  -13.1562   25.0610 C   0  0  0  0  0  0  0  0  0  0  0  0
    6.2843  -13.6500   26.0138 C   0  0  0  0  0  0  0  0  0  0  0  0
    6.2911  -13.0766   27.2639 C   0  0  0  0  0  0  0  0  0  0  0  0
    7.1435  -12.0409   27.5821 C   0  0  0  0  0  0  0  0  0  0  0  0
    8.0175  -11.5727   26.5973 C   0  0  0  0  0  0  0  0  0  0  0  0
    8.0300  -12.1285   25.3416 C   0  0  0  0  0  0  0  0  0  0  0  0
    7.9698  -15.9999   24.3842 C   0  0  0  0  0  0  0  0  0  0  0  0
    7.1483  -16.9500   24.1989 O   0  0  0  0  0  0  0  0  0  0  0  0
    8.7825  -16.0733   25.5694 N   0  0  0  0  0  0  0  0  0  0  0  0
   10.1985  -16.3915   25.4228 C   0  0  0  0  0  0  0  0  0  0  0  0
   10.4427  -17.7156   26.0313 C   0  0  0  0  0  0  0  0  0  0  0  0
   11.7110  -18.1523   26.3857 O   0  0  0  0  0  0  0  0  0  0  0  0
    9.4821  -18.4926   26.2455 O   0  0  0  0  0  0  0  0  0  0  0  0
  2  1  1  0
  2  3  2  0
  4  5  1  0
  4  2  1  0
  5  6  1  1
  7  5  1  0
  8  7  2  0
  9  7  1  0
 10  9  1  0
 10 11  1  1
 11 12  1  0
 12 13  2  0
 13 14  1  0
 15 14  2  0
 16 15  1  0
 17 12  1  0
 17 16  2  0
 18 20  1  0
 18 10  1  0
 19 18  2  0
 21 20  1  0
 22 23  1  0
 22 21  1  0
 24 22  2  0
M  END
$$$$
