NFG.pdb
     RDKit          3D

 24 24  0  0  1  0  0  0  0  0999 V2000
   10.3630  -17.5697   15.3921 N   0  0  0  0  0  0  0  0  0  0  0  0
    9.3264  -17.4410   16.3299 C   0  0  0  0  0  0  0  0  0  0  0  0
    8.2087  -17.9719   16.1304 O   0  0  0  0  0  0  0  0  0  0  0  0
    9.5646  -16.6686   17.5647 C   0  0  0  0  0  0  0  0  0  0  0  0
   10.0259  -17.5451   18.7099 C   0  0  2  0  0  0  0  0  0  0  0  0
    9.0739  -18.5415   19.0855 N   0  0  0  0  0  0  0  0  0  0  0  0
   10.3142  -16.5988   19.8564 C   0  0  0  0  0  0  0  0  0  0  0  0
   11.1816  -15.7029   19.6981 O   0  0  0  0  0  0  0  0  0  0  0  0
    9.6431  -16.6958   21.0808 N   0  0  0  0  0  0  0  0  0  0  0  0
    9.9754  -15.8416   22.2282 C   0  0  1  0  0  0  0  0  0  0  0  0
    8.7547  -15.1030   22.6688 C   0  0  0  0  0  0  0  0  0  0  0  0
    8.1401  -14.1793   21.7369 C   0  0  0  0  0  0  0  0  0  0  0  0
    7.0051  -14.6084   21.0572 C   0  0  0  0  0  0  0  0  0  0  0  0
    6.4132  -13.7399   20.1701 C   0  0  0  0  0  0  0  0  0  0  0  0
    6.9162  -12.4758   19.9477 C   0  0  0  0  0  0  0  0  0  0  0  0
    8.0583  -12.0817   20.6500 C   0  0  0  0  0  0  0  0  0  0  0  0
    8.6677  -12.9304   21.5411 C   0  0  0  0  0  0  0  0  0  0  0  0
   10.5632  -16.6425   23.3110 C   0  0  0  0  0  0  0  0  0  0  0  0
    9.9093  -17.4753   24.0117 O   0  0  0  0  0  0  0  0  0  0  0  0
   11.9621  -16.5017   23.6170 N   0  0  0  0  0  0  0  0  0  0  0  0
   12.5102  -17.2657   24.7323 C   0  0  0  0  0  0  0  0  0  0  0  0
   13.9673  -17.0268   24.7877 C   0  0  0  0  0  0  0  0  0  0  0  0
   14.7567  -17.4664   25.8404 O   0  0  0  0  0  0  0  0  0  0  0  0
   14.5352  -16.4047   23.8588 O   0  0  0  0  0  0  0  0  0  0  0  0
  2  1  1  0
  2  3  2  0
  4  5  1  0
  4  2  1  0
  5  6  1  1
  7  5  1  0
  8  7  2  0
  9  7  1  0
 10  9  1  0
 10 11  1  1
 11 12  1  0
 12 13  2  0
 13 14  1  0
 15 14  2  0
 16 15  1  0
 17 12  1  0
 17 16  2  0
 18 20  1  0
 18 10  1  0
 19 18  2  0
 21 20  1  0
 22 23  1  0
 22 21  1  0
 24 22  2  0
M  END
$$$$
