NFG.pdb
     RDKit          3D

 24 24  0  0  1  0  0  0  0  0999 V2000
    8.4853  -12.5261   18.5373 N   0  0  0  0  0  0  0  0  0  0  0  0
    7.9284  -13.5842   19.2727 C   0  0  0  0  0  0  0  0  0  0  0  0
    7.2547  -14.4768   18.7065 O   0  0  0  0  0  0  0  0  0  0  0  0
    8.1441  -13.6388   20.7316 C   0  0  0  0  0  0  0  0  0  0  0  0
    8.4510  -15.0407   21.2143 C   0  0  2  0  0  0  0  0  0  0  0  0
    7.3213  -15.9143   21.1857 N   0  0  0  0  0  0  0  0  0  0  0  0
    8.9864  -14.8787   22.6215 C   0  0  0  0  0  0  0  0  0  0  0  0
    9.9873  -14.1411   22.8070 O   0  0  0  0  0  0  0  0  0  0  0  0
    8.3986  -15.5258   23.7145 N   0  0  0  0  0  0  0  0  0  0  0  0
    8.9640  -15.4517   25.0679 C   0  0  1  0  0  0  0  0  0  0  0  0
    7.8732  -15.1699   26.0481 C   0  0  0  0  0  0  0  0  0  0  0  0
    7.3618  -13.8167   26.1326 C   0  0  0  0  0  0  0  0  0  0  0  0
    6.0069  -13.6229   25.8864 C   0  0  0  0  0  0  0  0  0  0  0  0
    5.5103  -12.3426   25.9639 C   0  0  0  0  0  0  0  0  0  0  0  0
    6.3175  -11.2693   26.2755 C   0  0  0  0  0  0  0  0  0  0  0  0
    7.6737  -11.5052   26.5162 C   0  0  0  0  0  0  0  0  0  0  0  0
    8.1936  -12.7742   26.4449 C   0  0  0  0  0  0  0  0  0  0  0  0
    9.6946  -16.6861   25.3871 C   0  0  0  0  0  0  0  0  0  0  0  0
   10.0901  -16.9941   26.5535 O   0  0  0  0  0  0  0  0  0  0  0  0
    9.9906  -17.6252   24.3378 N   0  0  0  0  0  0  0  0  0  0  0  0
   10.7134  -18.8451   24.6802 C   0  0  0  0  0  0  0  0  0  0  0  0
   12.1606  -18.5835   24.5375 C   0  0  0  0  0  0  0  0  0  0  0  0
   12.8016  -18.5824   23.3072 O   0  0  0  0  0  0  0  0  0  0  0  0
   12.8576  -18.3508   25.5536 O   0  0  0  0  0  0  0  0  0  0  0  0
  2  1  1  0
  2  3  2  0
  4  5  1  0
  4  2  1  0
  5  6  1  1
  7  5  1  0
  8  7  2  0
  9  7  1  0
 10  9  1  0
 10 11  1  1
 11 12  1  0
 12 13  2  0
 13 14  1  0
 15 14  2  0
 16 15  1  0
 17 12  1  0
 17 16  2  0
 18 20  1  0
 18 10  1  0
 19 18  2  0
 21 20  1  0
 22 23  1  0
 22 21  1  0
 24 22  2  0
M  END
$$$$
