NFG.pdb
     RDKit          3D

 24 24  0  0  1  0  0  0  0  0999 V2000
   10.1553  -19.2821   17.3963 N   0  0  0  0  0  0  0  0  0  0  0  0
   11.3179  -19.2661   18.1828 C   0  0  0  0  0  0  0  0  0  0  0  0
   12.3037  -19.9822   17.8884 O   0  0  0  0  0  0  0  0  0  0  0  0
   11.3718  -18.3916   19.3703 C   0  0  0  0  0  0  0  0  0  0  0  0
   10.0910  -17.6078   19.5644 C   0  0  2  0  0  0  0  0  0  0  0  0
    9.7434  -16.7954   18.4422 N   0  0  0  0  0  0  0  0  0  0  0  0
   10.3115  -16.7680   20.8050 C   0  0  0  0  0  0  0  0  0  0  0  0
   11.2601  -15.9432   20.8167 O   0  0  0  0  0  0  0  0  0  0  0  0
    9.4908  -16.8862   21.9325 N   0  0  0  0  0  0  0  0  0  0  0  0
    9.5232  -15.9140   23.0328 C   0  0  1  0  0  0  0  0  0  0  0  0
    8.2265  -15.1752   23.0823 C   0  0  0  0  0  0  0  0  0  0  0  0
    7.8752  -14.3331   21.9566 C   0  0  0  0  0  0  0  0  0  0  0  0
    8.6111  -13.1681   21.7684 C   0  0  0  0  0  0  0  0  0  0  0  0
    8.2866  -12.3610   20.7031 C   0  0  0  0  0  0  0  0  0  0  0  0
    7.2641  -12.6813   19.8356 C   0  0  0  0  0  0  0  0  0  0  0  0
    6.5481  -13.8605   20.0584 C   0  0  0  0  0  0  0  0  0  0  0  0
    6.8527  -14.6831   21.1150 C   0  0  0  0  0  0  0  0  0  0  0  0
    9.8301  -16.5865   24.3029 C   0  0  0  0  0  0  0  0  0  0  0  0
   10.0614  -15.9746   25.3910 O   0  0  0  0  0  0  0  0  0  0  0  0
    9.8735  -18.0240   24.3506 N   0  0  0  0  0  0  0  0  0  0  0  0
   11.1673  -18.6851   24.2205 C   0  0  0  0  0  0  0  0  0  0  0  0
   11.8639  -18.6035   25.5209 C   0  0  0  0  0  0  0  0  0  0  0  0
   12.7291  -19.5914   25.9681 O   0  0  0  0  0  0  0  0  0  0  0  0
   11.6820  -17.6122   26.2670 O   0  0  0  0  0  0  0  0  0  0  0  0
  2  1  1  0
  2  3  2  0
  4  5  1  0
  4  2  1  0
  5  6  1  6
  7  5  1  0
  8  7  2  0
  9  7  1  0
 10  9  1  0
 10 11  1  1
 11 12  1  0
 12 13  2  0
 13 14  1  0
 15 14  2  0
 16 15  1  0
 17 12  1  0
 17 16  2  0
 18 20  1  0
 18 10  1  0
 19 18  2  0
 21 20  1  0
 22 23  1  0
 22 21  1  0
 24 22  2  0
M  END
$$$$
