NFG.pdb
     RDKit          3D

 24 24  0  0  1  0  0  0  0  0999 V2000
    8.0259  -15.2273   18.5751 N   0  0  0  0  0  0  0  0  0  0  0  0
    8.2204  -13.9770   19.1827 C   0  0  0  0  0  0  0  0  0  0  0  0
    8.1457  -12.9186   18.5152 O   0  0  0  0  0  0  0  0  0  0  0  0
    8.5165  -13.9168   20.6272 C   0  0  0  0  0  0  0  0  0  0  0  0
    8.5926  -15.2925   21.2552 C   0  0  2  0  0  0  0  0  0  0  0  0
    7.3390  -15.9763   21.2851 N   0  0  0  0  0  0  0  0  0  0  0  0
    9.1337  -15.0729   22.6523 C   0  0  0  0  0  0  0  0  0  0  0  0
   10.2033  -14.4277   22.7926 O   0  0  0  0  0  0  0  0  0  0  0  0
    8.4767  -15.5674   23.7850 N   0  0  0  0  0  0  0  0  0  0  0  0
    9.0329  -15.4311   25.1374 C   0  0  1  0  0  0  0  0  0  0  0  0
    7.9300  -15.1451   26.1025 C   0  0  0  0  0  0  0  0  0  0  0  0
    7.3735  -13.8075   26.1290 C   0  0  0  0  0  0  0  0  0  0  0  0
    8.2521  -12.7473   26.3243 C   0  0  0  0  0  0  0  0  0  0  0  0
    7.7350  -11.4731   26.3513 C   0  0  0  0  0  0  0  0  0  0  0  0
    6.3868  -11.2340   26.1910 C   0  0  0  0  0  0  0  0  0  0  0  0
    5.5364  -12.3258   25.9971 C   0  0  0  0  0  0  0  0  0  0  0  0
    6.0281  -13.6076   25.9663 C   0  0  0  0  0  0  0  0  0  0  0  0
    9.7949  -16.6335   25.5024 C   0  0  0  0  0  0  0  0  0  0  0  0
   10.3165  -16.8225   26.6444 O   0  0  0  0  0  0  0  0  0  0  0  0
    9.9741  -17.6802   24.5314 N   0  0  0  0  0  0  0  0  0  0  0  0
   10.6525  -18.9035   24.9450 C   0  0  0  0  0  0  0  0  0  0  0  0
   12.0739  -18.8014   24.5548 C   0  0  0  0  0  0  0  0  0  0  0  0
   12.8966  -17.7736   24.9924 O   0  0  0  0  0  0  0  0  0  0  0  0
   12.5791  -19.6654   23.7994 O   0  0  0  0  0  0  0  0  0  0  0  0
  2  1  1  0
  2  3  2  0
  4  5  1  0
  4  2  1  0
  5  6  1  1
  7  5  1  0
  8  7  2  0
  9  7  1  0
 10  9  1  0
 10 11  1  1
 11 12  1  0
 12 13  2  0
 13 14  1  0
 15 14  2  0
 16 15  1  0
 17 12  1  0
 17 16  2  0
 18 20  1  0
 18 10  1  0
 19 18  2  0
 21 20  1  0
 22 23  1  0
 22 21  1  0
 24 22  2  0
M  END
$$$$
