NFG.pdb
     RDKit          3D

 24 24  0  0  1  0  0  0  0  0999 V2000
    8.4686  -16.5644   15.4711 N   0  0  0  0  0  0  0  0  0  0  0  0
    9.7562  -16.6921   16.0155 C   0  0  0  0  0  0  0  0  0  0  0  0
   10.6344  -17.3746   15.4374 O   0  0  0  0  0  0  0  0  0  0  0  0
   10.0717  -16.0103   17.2857 C   0  0  0  0  0  0  0  0  0  0  0  0
   10.4565  -16.9840   18.3795 C   0  0  2  0  0  0  0  0  0  0  0  0
    9.5152  -18.0435   18.5576 N   0  0  0  0  0  0  0  0  0  0  0  0
   10.5926  -16.1511   19.6368 C   0  0  0  0  0  0  0  0  0  0  0  0
   11.4066  -15.1932   19.6429 O   0  0  0  0  0  0  0  0  0  0  0  0
    9.8394  -16.4192   20.7856 N   0  0  0  0  0  0  0  0  0  0  0  0
    9.9898  -15.6416   22.0223 C   0  0  1  0  0  0  0  0  0  0  0  0
    8.6583  -15.1113   22.4415 C   0  0  0  0  0  0  0  0  0  0  0  0
    7.9256  -14.2833   21.5049 C   0  0  0  0  0  0  0  0  0  0  0  0
    8.3697  -12.9796   21.3123 C   0  0  0  0  0  0  0  0  0  0  0  0
    7.6820  -12.1845   20.4255 C   0  0  0  0  0  0  0  0  0  0  0  0
    6.5812  -12.6492   19.7377 C   0  0  0  0  0  0  0  0  0  0  0  0
    6.1661  -13.9651   19.9588 C   0  0  0  0  0  0  0  0  0  0  0  0
    6.8359  -14.7789   20.8390 C   0  0  0  0  0  0  0  0  0  0  0  0
   10.6187  -16.4589   23.0691 C   0  0  0  0  0  0  0  0  0  0  0  0
   10.7306  -16.0955   24.2805 O   0  0  0  0  0  0  0  0  0  0  0  0
   11.1445  -17.7559   22.7347 N   0  0  0  0  0  0  0  0  0  0  0  0
   11.7119  -18.5724   23.8020 C   0  0  0  0  0  0  0  0  0  0  0  0
   13.1808  -18.5901   23.6428 C   0  0  0  0  0  0  0  0  0  0  0  0
   14.0163  -19.2944   24.4975 O   0  0  0  0  0  0  0  0  0  0  0  0
   13.7164  -17.9512   22.7061 O   0  0  0  0  0  0  0  0  0  0  0  0
  2  1  1  0
  2  3  2  0
  4  5  1  0
  4  2  1  0
  5  6  1  1
  7  5  1  0
  8  7  2  0
  9  7  1  0
 10  9  1  0
 10 11  1  1
 11 12  1  0
 12 13  2  0
 13 14  1  0
 15 14  2  0
 16 15  1  0
 17 12  1  0
 17 16  2  0
 18 20  1  0
 18 10  1  0
 19 18  2  0
 21 20  1  0
 22 23  1  0
 22 21  1  0
 24 22  2  0
M  END
$$$$
