NFG.pdb
     RDKit          3D

 24 24  0  0  1  0  0  0  0  0999 V2000
    8.1311  -12.5447   18.3614 N   0  0  0  0  0  0  0  0  0  0  0  0
    7.7469  -13.6211   19.1765 C   0  0  0  0  0  0  0  0  0  0  0  0
    7.0713  -14.5698   18.7132 O   0  0  0  0  0  0  0  0  0  0  0  0
    8.1479  -13.6277   20.5967 C   0  0  0  0  0  0  0  0  0  0  0  0
    8.5461  -15.0082   21.0742 C   0  0  2  0  0  0  0  0  0  0  0  0
    7.4701  -15.9476   21.0649 N   0  0  0  0  0  0  0  0  0  0  0  0
    9.0948  -14.8132   22.4719 C   0  0  0  0  0  0  0  0  0  0  0  0
   10.0996  -14.0745   22.6300 O   0  0  0  0  0  0  0  0  0  0  0  0
    8.5151  -15.4309   23.5860 N   0  0  0  0  0  0  0  0  0  0  0  0
    9.1157  -15.3602   24.9243 C   0  0  1  0  0  0  0  0  0  0  0  0
    8.0388  -15.1914   25.9448 C   0  0  0  0  0  0  0  0  0  0  0  0
    7.4273  -13.8852   26.0848 C   0  0  0  0  0  0  0  0  0  0  0  0
    8.2426  -12.8306   26.4813 C   0  0  0  0  0  0  0  0  0  0  0  0
    7.6729  -11.5861   26.6173 C   0  0  0  0  0  0  0  0  0  0  0  0
    6.3335  -11.3709   26.3721 C   0  0  0  0  0  0  0  0  0  0  0  0
    5.5475  -12.4561   25.9755 C   0  0  0  0  0  0  0  0  0  0  0  0
    6.0925  -13.7084   25.8325 C   0  0  0  0  0  0  0  0  0  0  0  0
    9.9432  -16.5477   25.1787 C   0  0  0  0  0  0  0  0  0  0  0  0
   10.4768  -16.8127   26.2999 O   0  0  0  0  0  0  0  0  0  0  0  0
   10.1773  -17.4887   24.1157 N   0  0  0  0  0  0  0  0  0  0  0  0
   10.9400  -18.6964   24.4116 C   0  0  0  0  0  0  0  0  0  0  0  0
   12.3512  -18.4564   24.0454 C   0  0  0  0  0  0  0  0  0  0  0  0
   12.8898  -18.8705   22.8359 O   0  0  0  0  0  0  0  0  0  0  0  0
   13.1113  -17.8572   24.8427 O   0  0  0  0  0  0  0  0  0  0  0  0
  2  1  1  0
  2  3  2  0
  4  5  1  0
  4  2  1  0
  5  6  1  1
  7  5  1  0
  8  7  2  0
  9  7  1  0
 10  9  1  0
 10 11  1  1
 11 12  1  0
 12 13  2  0
 13 14  1  0
 15 14  2  0
 16 15  1  0
 17 12  1  0
 17 16  2  0
 18 20  1  0
 18 10  1  0
 19 18  2  0
 21 20  1  0
 22 23  1  0
 22 21  1  0
 24 22  2  0
M  END
$$$$
