NFG.pdb
     RDKit          3D

 24 24  0  0  1  0  0  0  0  0999 V2000
    7.7466  -13.7751   18.1041 N   0  0  0  0  0  0  0  0  0  0  0  0
    7.8907  -15.0693   18.6282 C   0  0  0  0  0  0  0  0  0  0  0  0
    8.0209  -16.0594   17.8707 O   0  0  0  0  0  0  0  0  0  0  0  0
    7.8876  -15.2577   20.0919 C   0  0  0  0  0  0  0  0  0  0  0  0
    7.6270  -13.9652   20.8363 C   0  0  2  0  0  0  0  0  0  0  0  0
    7.9543  -12.7967   20.0829 N   0  0  0  0  0  0  0  0  0  0  0  0
    8.4512  -14.0521   22.1037 C   0  0  0  0  0  0  0  0  0  0  0  0
    9.4624  -13.3144   22.2198 O   0  0  0  0  0  0  0  0  0  0  0  0
    8.1174  -14.9278   23.1433 N   0  0  0  0  0  0  0  0  0  0  0  0
    8.7813  -14.8817   24.4525 C   0  0  1  0  0  0  0  0  0  0  0  0
    7.7508  -14.8803   25.5331 C   0  0  0  0  0  0  0  0  0  0  0  0
    7.2290  -13.6044   25.9796 C   0  0  0  0  0  0  0  0  0  0  0  0
    8.1340  -12.6815   26.4929 C   0  0  0  0  0  0  0  0  0  0  0  0
    7.6500  -11.4669   26.9197 C   0  0  0  0  0  0  0  0  0  0  0  0
    6.3090  -11.1551   26.8486 C   0  0  0  0  0  0  0  0  0  0  0  0
    5.4313  -12.1091   26.3266 C   0  0  0  0  0  0  0  0  0  0  0  0
    5.8898  -13.3290   25.8938 C   0  0  0  0  0  0  0  0  0  0  0  0
    9.7284  -15.9972   24.5871 C   0  0  0  0  0  0  0  0  0  0  0  0
   10.2494  -16.3555   25.6881 O   0  0  0  0  0  0  0  0  0  0  0  0
   10.1042  -16.7518   23.4210 N   0  0  0  0  0  0  0  0  0  0  0  0
   10.9576  -17.9219   23.5954 C   0  0  0  0  0  0  0  0  0  0  0  0
   11.2010  -18.5217   22.2671 C   0  0  0  0  0  0  0  0  0  0  0  0
   12.3379  -18.2476   21.5209 O   0  0  0  0  0  0  0  0  0  0  0  0
   10.3617  -19.3122   21.7742 O   0  0  0  0  0  0  0  0  0  0  0  0
  2  1  1  0
  2  3  2  0
  4  5  1  0
  4  2  1  0
  5  6  1  6
  7  5  1  0
  8  7  2  0
  9  7  1  0
 10  9  1  0
 10 11  1  1
 11 12  1  0
 12 13  2  0
 13 14  1  0
 15 14  2  0
 16 15  1  0
 17 12  1  0
 17 16  2  0
 18 20  1  0
 18 10  1  0
 19 18  2  0
 21 20  1  0
 22 23  1  0
 22 21  1  0
 24 22  2  0
M  END
$$$$
