NFG.pdb
     RDKit          3D

 24 24  0  0  1  0  0  0  0  0999 V2000
    9.0727  -15.4045   17.7867 N   0  0  0  0  0  0  0  0  0  0  0  0
    8.0419  -15.5541   18.7277 C   0  0  0  0  0  0  0  0  0  0  0  0
    6.9425  -16.0609   18.4026 O   0  0  0  0  0  0  0  0  0  0  0  0
    8.2640  -15.1060   20.1161 C   0  0  0  0  0  0  0  0  0  0  0  0
    8.6703  -16.2440   21.0284 C   0  0  2  0  0  0  0  0  0  0  0  0
    7.6764  -17.2630   21.1471 N   0  0  0  0  0  0  0  0  0  0  0  0
    8.9669  -15.6053   22.3689 C   0  0  0  0  0  0  0  0  0  0  0  0
    9.7873  -14.6542   22.4178 O   0  0  0  0  0  0  0  0  0  0  0  0
    8.3542  -16.0445   23.5482 N   0  0  0  0  0  0  0  0  0  0  0  0
    8.6760  -15.4706   24.8612 C   0  0  1  0  0  0  0  0  0  0  0  0
    7.4130  -15.0894   25.5606 C   0  0  0  0  0  0  0  0  0  0  0  0
    7.0951  -13.6808   25.6803 C   0  0  0  0  0  0  0  0  0  0  0  0
    5.8024  -13.3417   26.0650 C   0  0  0  0  0  0  0  0  0  0  0  0
    5.4894  -12.0076   26.1820 C   0  0  0  0  0  0  0  0  0  0  0  0
    6.4175  -11.0200   25.9291 C   0  0  0  0  0  0  0  0  0  0  0  0
    7.7059  -11.4012   25.5448 C   0  0  0  0  0  0  0  0  0  0  0  0
    8.0431  -12.7266   25.4209 C   0  0  0  0  0  0  0  0  0  0  0  0
    9.4864  -16.4109   25.6475 C   0  0  0  0  0  0  0  0  0  0  0  0
    9.9899  -16.1371   26.7804 O   0  0  0  0  0  0  0  0  0  0  0  0
    9.7385  -17.7308   25.1329 N   0  0  0  0  0  0  0  0  0  0  0  0
   10.8884  -17.9277   24.2572 C   0  0  0  0  0  0  0  0  0  0  0  0
   12.0854  -18.1284   25.0999 C   0  0  0  0  0  0  0  0  0  0  0  0
   13.1893  -17.2902   25.0411 O   0  0  0  0  0  0  0  0  0  0  0  0
   12.1286  -19.0869   25.9072 O   0  0  0  0  0  0  0  0  0  0  0  0
  2  1  1  0
  2  3  2  0
  4  5  1  0
  4  2  1  0
  5  6  1  1
  7  5  1  0
  8  7  2  0
  9  7  1  0
 10  9  1  0
 10 11  1  1
 11 12  1  0
 12 13  2  0
 13 14  1  0
 15 14  2  0
 16 15  1  0
 17 12  1  0
 17 16  2  0
 18 20  1  0
 18 10  1  0
 19 18  2  0
 21 20  1  0
 22 23  1  0
 22 21  1  0
 24 22  2  0
M  END
$$$$
