NFG.pdb
     RDKit          3D

 24 24  0  0  1  0  0  0  0  0999 V2000
    7.7879  -15.3390   18.5224 N   0  0  0  0  0  0  0  0  0  0  0  0
    8.0277  -14.0694   19.0713 C   0  0  0  0  0  0  0  0  0  0  0  0
    7.9133  -13.0346   18.3733 O   0  0  0  0  0  0  0  0  0  0  0  0
    8.4192  -13.9607   20.4900 C   0  0  0  0  0  0  0  0  0  0  0  0
    8.5497  -15.3149   21.1547 C   0  0  2  0  0  0  0  0  0  0  0  0
    7.3329  -16.0628   21.1702 N   0  0  0  0  0  0  0  0  0  0  0  0
    9.0411  -15.0335   22.5591 C   0  0  0  0  0  0  0  0  0  0  0  0
   10.0219  -14.2626   22.7140 O   0  0  0  0  0  0  0  0  0  0  0  0
    8.4344  -15.6066   23.6827 N   0  0  0  0  0  0  0  0  0  0  0  0
    8.8991  -15.3367   25.0494 C   0  0  1  0  0  0  0  0  0  0  0  0
    7.7221  -15.0998   25.9374 C   0  0  0  0  0  0  0  0  0  0  0  0
    7.2558  -13.7384   26.1069 C   0  0  0  0  0  0  0  0  0  0  0  0
    5.9516  -13.4504   25.7193 C   0  0  0  0  0  0  0  0  0  0  0  0
    5.4981  -12.1615   25.8758 C   0  0  0  0  0  0  0  0  0  0  0  0
    6.2991  -11.1694   26.4001 C   0  0  0  0  0  0  0  0  0  0  0  0
    7.6036  -11.4985   26.7777 C   0  0  0  0  0  0  0  0  0  0  0  0
    8.0800  -12.7782   26.6316 C   0  0  0  0  0  0  0  0  0  0  0  0
    9.7469  -16.4367   25.5297 C   0  0  0  0  0  0  0  0  0  0  0  0
   10.4040  -16.4029   26.6156 O   0  0  0  0  0  0  0  0  0  0  0  0
    9.8561  -17.6399   24.7482 N   0  0  0  0  0  0  0  0  0  0  0  0
   11.0253  -18.4905   24.9411 C   0  0  0  0  0  0  0  0  0  0  0  0
   10.9370  -19.1050   26.2819 C   0  0  0  0  0  0  0  0  0  0  0  0
    9.7293  -19.4737   26.8565 O   0  0  0  0  0  0  0  0  0  0  0  0
   11.9807  -19.3111   26.9457 O   0  0  0  0  0  0  0  0  0  0  0  0
  2  1  1  0
  2  3  2  0
  4  5  1  0
  4  2  1  0
  5  6  1  1
  7  5  1  0
  8  7  2  0
  9  7  1  0
 10  9  1  0
 10 11  1  1
 11 12  1  0
 12 13  2  0
 13 14  1  0
 15 14  2  0
 16 15  1  0
 17 12  1  0
 17 16  2  0
 18 20  1  0
 18 10  1  0
 19 18  2  0
 21 20  1  0
 22 23  1  0
 22 21  1  0
 24 22  2  0
M  END
$$$$
