NFG.pdb
     RDKit          3D

 24 24  0  0  1  0  0  0  0  0999 V2000
    6.7970  -12.9433   17.9842 N   0  0  0  0  0  0  0  0  0  0  0  0
    7.9197  -13.6891   18.3765 C   0  0  0  0  0  0  0  0  0  0  0  0
    8.5241  -14.4210   17.5578 O   0  0  0  0  0  0  0  0  0  0  0  0
    8.3879  -13.6044   19.7735 C   0  0  0  0  0  0  0  0  0  0  0  0
    8.5982  -14.9703   20.3920 C   0  0  2  0  0  0  0  0  0  0  0  0
    7.4519  -15.8182   20.3065 N   0  0  0  0  0  0  0  0  0  0  0  0
    8.9843  -14.7098   21.8329 C   0  0  0  0  0  0  0  0  0  0  0  0
    9.9072  -13.8910   22.0735 O   0  0  0  0  0  0  0  0  0  0  0  0
    8.3431  -15.3538   22.8974 N   0  0  0  0  0  0  0  0  0  0  0  0
    8.7054  -15.1048   24.2987 C   0  0  1  0  0  0  0  0  0  0  0  0
    7.4638  -14.9623   25.1158 C   0  0  0  0  0  0  0  0  0  0  0  0
    7.1749  -13.6690   25.7020 C   0  0  0  0  0  0  0  0  0  0  0  0
    6.2176  -12.8770   25.0771 C   0  0  0  0  0  0  0  0  0  0  0  0
    5.9351  -11.6474   25.6247 C   0  0  0  0  0  0  0  0  0  0  0  0
    6.5726  -11.1956   26.7605 C   0  0  0  0  0  0  0  0  0  0  0  0
    7.5285  -12.0208   27.3591 C   0  0  0  0  0  0  0  0  0  0  0  0
    7.8283  -13.2527   26.8317 C   0  0  0  0  0  0  0  0  0  0  0  0
    9.5825  -16.1722   24.7993 C   0  0  0  0  0  0  0  0  0  0  0  0
    9.4095  -16.7713   25.9053 O   0  0  0  0  0  0  0  0  0  0  0  0
   10.7108  -16.5903   24.0102 N   0  0  0  0  0  0  0  0  0  0  0  0
   11.6026  -17.6073   24.5563 C   0  0  0  0  0  0  0  0  0  0  0  0
   12.6557  -17.8864   23.5582 C   0  0  0  0  0  0  0  0  0  0  0  0
   12.6479  -19.0224   22.7619 O   0  0  0  0  0  0  0  0  0  0  0  0
   13.6038  -17.0798   23.4067 O   0  0  0  0  0  0  0  0  0  0  0  0
  2  1  1  0
  2  3  2  0
  4  5  1  0
  4  2  1  0
  5  6  1  1
  7  5  1  0
  8  7  2  0
  9  7  1  0
 10  9  1  0
 10 11  1  1
 11 12  1  0
 12 13  2  0
 13 14  1  0
 15 14  2  0
 16 15  1  0
 17 12  1  0
 17 16  2  0
 18 20  1  0
 18 10  1  0
 19 18  2  0
 21 20  1  0
 22 23  1  0
 22 21  1  0
 24 22  2  0
M  END
$$$$
