NFG.pdb
     RDKit          3D

 24 24  0  0  1  0  0  0  0  0999 V2000
    6.7214  -18.4311   19.6456 N   0  0  0  0  0  0  0  0  0  0  0  0
    7.6304  -17.3910   19.3958 C   0  0  0  0  0  0  0  0  0  0  0  0
    7.8459  -16.9916   18.2274 O   0  0  0  0  0  0  0  0  0  0  0  0
    8.3373  -16.7649   20.5298 C   0  0  0  0  0  0  0  0  0  0  0  0
    7.5743  -15.5895   21.1034 C   0  0  2  0  0  0  0  0  0  0  0  0
    7.3369  -14.5465   20.1568 N   0  0  0  0  0  0  0  0  0  0  0  0
    8.4036  -15.0960   22.2703 C   0  0  0  0  0  0  0  0  0  0  0  0
    9.3532  -14.3035   22.0456 O   0  0  0  0  0  0  0  0  0  0  0  0
    8.1412  -15.4975   23.5851 N   0  0  0  0  0  0  0  0  0  0  0  0
    8.9159  -14.9975   24.7283 C   0  0  1  0  0  0  0  0  0  0  0  0
    8.0026  -14.7724   25.8879 C   0  0  0  0  0  0  0  0  0  0  0  0
    7.3764  -13.4727   26.0237 C   0  0  0  0  0  0  0  0  0  0  0  0
    8.1881  -12.3500   25.9023 C   0  0  0  0  0  0  0  0  0  0  0  0
    7.6046  -11.1110   26.0293 C   0  0  0  0  0  0  0  0  0  0  0  0
    6.2549  -10.9663   26.2702 C   0  0  0  0  0  0  0  0  0  0  0  0
    5.4730  -12.1187   26.3857 C   0  0  0  0  0  0  0  0  0  0  0  0
    6.0318  -13.3670   26.2629 C   0  0  0  0  0  0  0  0  0  0  0  0
   10.0093  -15.9245   25.0519 C   0  0  0  0  0  0  0  0  0  0  0  0
   10.8894  -15.7001   25.9390 O   0  0  0  0  0  0  0  0  0  0  0  0
   10.1135  -17.1720   24.3425 N   0  0  0  0  0  0  0  0  0  0  0  0
   11.2472  -18.0433   24.6311 C   0  0  0  0  0  0  0  0  0  0  0  0
   10.9377  -18.8208   25.8488 C   0  0  0  0  0  0  0  0  0  0  0  0
   11.8148  -19.7539   26.3823 O   0  0  0  0  0  0  0  0  0  0  0  0
    9.8458  -18.6481   26.4408 O   0  0  0  0  0  0  0  0  0  0  0  0
  2  1  1  0
  2  3  2  0
  4  5  1  0
  4  2  1  0
  5  6  1  6
  7  5  1  0
  8  7  2  0
  9  7  1  0
 10  9  1  0
 10 11  1  1
 11 12  1  0
 12 13  2  0
 13 14  1  0
 15 14  2  0
 16 15  1  0
 17 12  1  0
 17 16  2  0
 18 20  1  0
 18 10  1  0
 19 18  2  0
 21 20  1  0
 22 23  1  0
 22 21  1  0
 24 22  2  0
M  END
$$$$
