PSN.pdb
     RDKit          3D

 22 22  0  0  1  0  0  0  0  0999 V2000
   24.4274  -11.3782  -16.4726 N   0  0  0  0  0  0  0  0  0  0  0  0
   25.2620  -12.5655  -16.5330 C   0  0  0  0  0  0  0  0  0  0  0  0
   24.5142  -13.6096  -17.2960 C   0  0  0  0  0  0  0  0  0  0  0  0
   23.0952  -13.0364  -17.3599 C   0  0  0  0  0  0  0  0  0  0  0  0
   23.3726  -11.5658  -17.4198 C   0  0  1  0  0  0  0  0  0  0  0  0
   22.1949  -10.7134  -17.1534 C   0  0  0  0  0  0  0  0  0  0  0  0
   21.1622  -10.7511  -17.9062 O   0  0  0  0  0  0  0  0  0  0  0  0
   21.9463   -8.0522  -13.8405 O   0  0  0  0  0  0  0  0  0  0  0  0
   20.8677   -8.7516  -14.3221 C   0  0  0  0  0  0  0  0  0  0  0  0
   20.9032   -9.0080  -15.8130 C   0  0  2  0  0  0  0  0  0  0  0  0
   22.0928   -9.7960  -16.0708 N   0  0  0  0  0  0  0  0  0  0  0  0
   20.8342   -7.7913  -16.6191 C   0  0  0  0  0  0  0  0  0  0  0  0
   21.9015   -7.2100  -16.9794 O   0  0  0  0  0  0  0  0  0  0  0  0
   19.2445   -3.6067  -19.2160 N   0  0  0  0  0  0  0  0  0  0  0  0
   18.1271   -4.4723  -19.1699 C   0  0  0  0  0  0  0  0  0  0  0  0
   17.1072   -4.1515  -19.8302 O   0  0  0  0  0  0  0  0  0  0  0  0
   18.2205   -5.6896  -18.3587 C   0  0  0  0  0  0  0  0  0  0  0  0
   19.5691   -5.9239  -17.7432 C   0  0  2  0  0  0  0  0  0  0  0  0
   19.6108   -7.2109  -17.0309 N   0  0  0  0  0  0  0  0  0  0  0  0
   19.8372   -4.8784  -16.7341 C   0  0  0  0  0  0  0  0  0  0  0  0
   19.8809   -3.6868  -17.1119 O   0  0  0  0  0  0  0  0  0  0  0  0
   20.0415   -5.1527  -15.3976 O   0  0  0  0  0  0  0  0  0  0  0  0
  1  5  1  0
  2  3  1  0
  2  1  1  0
  3  4  1  0
  4  5  1  0
  6 11  1  0
  5  6  1  1
  7  6  2  0
  8  9  1  0
 10 11  1  0
 10  9  1  1
 12 10  1  0
 12 19  1  0
 13 12  2  0
 15 14  1  0
 16 15  2  0
 17 15  1  0
 18 19  1  0
 18 17  1  1
 20 18  1  0
 21 20  2  0
 22 20  1  0
M  END
$$$$
