PSN.pdb
     RDKit          3D

 22 22  0  0  1  0  0  0  0  0999 V2000
   20.4036  -12.4902  -18.1354 N   0  0  0  0  0  0  0  0  0  0  0  0
   19.8466  -13.6827  -18.7498 C   0  0  0  0  0  0  0  0  0  0  0  0
   18.6813  -14.1191  -17.9233 C   0  0  0  0  0  0  0  0  0  0  0  0
   18.8401  -13.2919  -16.6439 C   0  0  0  0  0  0  0  0  0  0  0  0
   19.4438  -12.0305  -17.1802 C   0  0  1  0  0  0  0  0  0  0  0  0
   20.0284  -11.1491  -16.1479 C   0  0  0  0  0  0  0  0  0  0  0  0
   19.3010  -10.6029  -15.2495 O   0  0  0  0  0  0  0  0  0  0  0  0
   24.2170  -10.1965  -15.8598 O   0  0  0  0  0  0  0  0  0  0  0  0
   23.3799  -10.3979  -14.7906 C   0  0  0  0  0  0  0  0  0  0  0  0
   21.9505   -9.9593  -15.0237 C   0  0  2  0  0  0  0  0  0  0  0  0
   21.4113  -10.8292  -16.0510 N   0  0  0  0  0  0  0  0  0  0  0  0
   21.8174   -8.5401  -15.3447 C   0  0  0  0  0  0  0  0  0  0  0  0
   21.8511   -8.1592  -16.5533 O   0  0  0  0  0  0  0  0  0  0  0  0
   19.0035   -3.5510  -14.6150 N   0  0  0  0  0  0  0  0  0  0  0  0
   20.0280   -4.2571  -15.2871 C   0  0  0  0  0  0  0  0  0  0  0  0
   20.7553   -3.6175  -16.0877 O   0  0  0  0  0  0  0  0  0  0  0  0
   20.1835   -5.6888  -15.0138 C   0  0  0  0  0  0  0  0  0  0  0  0
   21.5897   -6.1130  -14.7053 C   0  0  2  0  0  0  0  0  0  0  0  0
   21.6484   -7.5414  -14.3562 N   0  0  0  0  0  0  0  0  0  0  0  0
   22.0782   -5.3731  -13.5233 C   0  0  0  0  0  0  0  0  0  0  0  0
   21.9763   -5.9150  -12.4006 O   0  0  0  0  0  0  0  0  0  0  0  0
   22.6403   -4.1154  -13.5981 O   0  0  0  0  0  0  0  0  0  0  0  0
  1  5  1  0
  2  3  1  0
  2  1  1  0
  3  4  1  0
  4  5  1  0
  6 11  1  0
  5  6  1  1
  7  6  2  0
  8  9  1  0
 10 11  1  0
 10  9  1  6
 12 10  1  0
 12 19  1  0
 13 12  2  0
 15 14  1  0
 16 15  2  0
 17 15  1  0
 18 19  1  0
 18 17  1  1
 20 18  1  0
 21 20  2  0
 22 20  1  0
M  END
$$$$
