PSN.pdb
     RDKit          3D

 22 22  0  0  1  0  0  0  0  0999 V2000
   25.5210  -16.7214  -15.3215 N   0  0  0  0  0  0  0  0  0  0  0  0
   26.7511  -15.9677  -15.4907 C   0  0  0  0  0  0  0  0  0  0  0  0
   27.6917  -16.8053  -16.2939 C   0  0  0  0  0  0  0  0  0  0  0  0
   27.0281  -18.1855  -16.2684 C   0  0  0  0  0  0  0  0  0  0  0  0
   25.5770  -17.8156  -16.2404 C   0  0  1  0  0  0  0  0  0  0  0  0
   24.6730  -18.9267  -15.8758 C   0  0  0  0  0  0  0  0  0  0  0  0
   24.5350  -19.9479  -16.6324 O   0  0  0  0  0  0  0  0  0  0  0  0
   23.5309  -19.7695  -11.9812 O   0  0  0  0  0  0  0  0  0  0  0  0
   23.5870  -20.6505  -13.0324 C   0  0  0  0  0  0  0  0  0  0  0  0
   23.0526  -20.1021  -14.3376 C   0  0  2  0  0  0  0  0  0  0  0  0
   23.8913  -18.9724  -14.6880 N   0  0  0  0  0  0  0  0  0  0  0  0
   21.6302  -19.7707  -14.2959 C   0  0  0  0  0  0  0  0  0  0  0  0
   21.2518  -18.6700  -13.7938 O   0  0  0  0  0  0  0  0  0  0  0  0
   19.0438  -18.2036  -16.4250 N   0  0  0  0  0  0  0  0  0  0  0  0
   18.4227  -19.4044  -16.8403 C   0  0  0  0  0  0  0  0  0  0  0  0
   17.8733  -19.4218  -17.9704 O   0  0  0  0  0  0  0  0  0  0  0  0
   18.4544  -20.5560  -15.9341 C   0  0  0  0  0  0  0  0  0  0  0  0
   19.1957  -20.3167  -14.6512 C   0  0  2  0  0  0  0  0  0  0  0  0
   20.6256  -20.6319  -14.7980 N   0  0  0  0  0  0  0  0  0  0  0  0
   18.6732  -21.2205  -13.6057 C   0  0  0  0  0  0  0  0  0  0  0  0
   17.5151  -21.0237  -13.1761 O   0  0  0  0  0  0  0  0  0  0  0  0
   19.3998  -22.2695  -13.0812 O   0  0  0  0  0  0  0  0  0  0  0  0
  1  5  1  0
  2  3  1  0
  2  1  1  0
  3  4  1  0
  4  5  1  0
  6 11  1  0
  5  6  1  1
  7  6  2  0
  8  9  1  0
 10 11  1  0
 10  9  1  1
 12 10  1  0
 12 19  1  0
 13 12  2  0
 15 14  1  0
 16 15  2  0
 17 15  1  0
 18 19  1  0
 18 17  1  6
 20 18  1  0
 21 20  2  0
 22 20  1  0
M  END
$$$$
