PSN.pdb
     RDKit          3D

 22 22  0  0  1  0  0  0  0  0999 V2000
   18.9270  -12.5576  -16.1233 N   0  0  0  0  0  0  0  0  0  0  0  0
   18.4631  -13.8285  -16.6520 C   0  0  0  0  0  0  0  0  0  0  0  0
   17.4141  -13.5404  -17.6757 C   0  0  0  0  0  0  0  0  0  0  0  0
   17.0987  -12.0608  -17.4356 C   0  0  0  0  0  0  0  0  0  0  0  0
   18.4337  -11.5407  -16.9994 C   0  0  1  0  0  0  0  0  0  0  0  0
   18.3898  -10.2039  -16.3705 C   0  0  0  0  0  0  0  0  0  0  0  0
   18.1698   -9.1506  -17.0608 O   0  0  0  0  0  0  0  0  0  0  0  0
   16.7794   -9.2669  -12.7558 O   0  0  0  0  0  0  0  0  0  0  0  0
   18.0750   -8.8526  -12.9407 C   0  0  0  0  0  0  0  0  0  0  0  0
   18.4643   -8.6427  -14.3879 C   0  0  2  0  0  0  0  0  0  0  0  0
   18.5812   -9.9603  -14.9819 N   0  0  0  0  0  0  0  0  0  0  0  0
   19.6639   -7.8265  -14.5600 C   0  0  0  0  0  0  0  0  0  0  0  0
   20.8056   -8.3769  -14.5812 O   0  0  0  0  0  0  0  0  0  0  0  0
   21.4175   -2.1429  -16.3637 N   0  0  0  0  0  0  0  0  0  0  0  0
   21.6451   -3.4204  -15.8013 C   0  0  0  0  0  0  0  0  0  0  0  0
   22.8339   -3.7620  -15.5798 O   0  0  0  0  0  0  0  0  0  0  0  0
   20.4872   -4.2706  -15.5096 C   0  0  0  0  0  0  0  0  0  0  0  0
   20.8340   -5.6374  -14.9957 C   0  0  2  0  0  0  0  0  0  0  0  0
   19.6211   -6.4197  -14.7084 N   0  0  0  0  0  0  0  0  0  0  0  0
   21.5630   -5.5112  -13.7167 C   0  0  0  0  0  0  0  0  0  0  0  0
   20.8988   -5.4557  -12.6583 O   0  0  0  0  0  0  0  0  0  0  0  0
   22.9389   -5.4517  -13.6336 O   0  0  0  0  0  0  0  0  0  0  0  0
  1  5  1  0
  2  3  1  0
  2  1  1  0
  3  4  1  0
  4  5  1  0
  6 11  1  0
  5  6  1  1
  7  6  2  0
  8  9  1  0
 10 11  1  0
 10  9  1  1
 12 10  1  0
 12 19  1  0
 13 12  2  0
 15 14  1  0
 16 15  2  0
 17 15  1  0
 18 19  1  0
 18 17  1  1
 20 18  1  0
 21 20  2  0
 22 20  1  0
M  END
$$$$
