PSN.pdb
     RDKit          3D

 22 22  0  0  1  0  0  0  0  0999 V2000
   19.6220  -12.2892  -17.9043 N   0  0  0  0  0  0  0  0  0  0  0  0
   18.8176  -13.3915  -18.4020 C   0  0  0  0  0  0  0  0  0  0  0  0
   17.5480  -13.4206  -17.6153 C   0  0  0  0  0  0  0  0  0  0  0  0
   17.8501  -12.4821  -16.4430 C   0  0  0  0  0  0  0  0  0  0  0  0
   18.7640  -11.4866  -17.0889 C   0  0  1  0  0  0  0  0  0  0  0  0
   19.5022  -10.6311  -16.1362 C   0  0  0  0  0  0  0  0  0  0  0  0
   18.8888   -9.8751  -15.3074 O   0  0  0  0  0  0  0  0  0  0  0  0
   23.7702  -10.2115  -16.0864 O   0  0  0  0  0  0  0  0  0  0  0  0
   23.0088  -10.2836  -14.9464 C   0  0  0  0  0  0  0  0  0  0  0  0
   21.6117   -9.7202  -15.0904 C   0  0  2  0  0  0  0  0  0  0  0  0
   20.9204  -10.5629  -16.0467 N   0  0  0  0  0  0  0  0  0  0  0  0
   21.5845   -8.3037  -15.4478 C   0  0  0  0  0  0  0  0  0  0  0  0
   21.5470   -7.9599  -16.6674 O   0  0  0  0  0  0  0  0  0  0  0  0
   21.1388   -3.1729  -15.4292 N   0  0  0  0  0  0  0  0  0  0  0  0
   19.9865   -3.9921  -15.4612 C   0  0  0  0  0  0  0  0  0  0  0  0
   18.8921   -3.4557  -15.7676 O   0  0  0  0  0  0  0  0  0  0  0  0
   20.1321   -5.4141  -15.1369 C   0  0  0  0  0  0  0  0  0  0  0  0
   21.5441   -5.8499  -14.8746 C   0  0  2  0  0  0  0  0  0  0  0  0
   21.5978   -7.2677  -14.4838 N   0  0  0  0  0  0  0  0  0  0  0  0
   22.0925   -5.0816  -13.7379 C   0  0  0  0  0  0  0  0  0  0  0  0
   22.2205   -5.6613  -12.6369 O   0  0  0  0  0  0  0  0  0  0  0  0
   22.4696   -3.7579  -13.8321 O   0  0  0  0  0  0  0  0  0  0  0  0
  1  5  1  0
  2  3  1  0
  2  1  1  0
  3  4  1  0
  4  5  1  0
  6 11  1  0
  5  6  1  1
  7  6  2  0
  8  9  1  0
 10 11  1  0
 10  9  1  6
 12 10  1  0
 12 19  1  0
 13 12  2  0
 15 14  1  0
 16 15  2  0
 17 15  1  0
 18 19  1  0
 18 17  1  1
 20 18  1  0
 21 20  2  0
 22 20  1  0
M  END
$$$$
