PSN.pdb
     RDKit          3D

 22 22  0  0  1  0  0  0  0  0999 V2000
   25.8159  -17.7775  -15.6897 N   0  0  0  0  0  0  0  0  0  0  0  0
   27.0887  -17.4101  -16.2854 C   0  0  0  0  0  0  0  0  0  0  0  0
   27.0329  -17.7663  -17.7350 C   0  0  0  0  0  0  0  0  0  0  0  0
   25.7850  -18.6500  -17.8226 C   0  0  0  0  0  0  0  0  0  0  0  0
   24.9143  -18.0379  -16.7688 C   0  0  1  0  0  0  0  0  0  0  0  0
   23.7606  -18.8724  -16.3727 C   0  0  0  0  0  0  0  0  0  0  0  0
   22.7946  -19.0983  -17.1792 O   0  0  0  0  0  0  0  0  0  0  0  0
   22.9889  -20.4085  -12.3876 O   0  0  0  0  0  0  0  0  0  0  0  0
   22.9065  -21.1427  -13.5446 C   0  0  0  0  0  0  0  0  0  0  0  0
   22.4920  -20.3464  -14.7629 C   0  0  2  0  0  0  0  0  0  0  0  0
   23.6114  -19.4882  -15.0988 N   0  0  0  0  0  0  0  0  0  0  0  0
   21.2396  -19.6147  -14.5869 C   0  0  0  0  0  0  0  0  0  0  0  0
   21.2348  -18.5091  -13.9667 O   0  0  0  0  0  0  0  0  0  0  0  0
   16.6837  -17.1861  -15.0988 N   0  0  0  0  0  0  0  0  0  0  0  0
   16.8037  -18.2818  -15.9848 C   0  0  0  0  0  0  0  0  0  0  0  0
   15.7743  -18.6547  -16.6016 O   0  0  0  0  0  0  0  0  0  0  0  0
   18.1158  -18.9182  -16.1337 C   0  0  0  0  0  0  0  0  0  0  0  0
   18.7463  -19.3509  -14.8423 C   0  0  2  0  0  0  0  0  0  0  0  0
   19.9998  -20.0833  -15.0832 N   0  0  0  0  0  0  0  0  0  0  0  0
   17.8422  -20.2875  -14.1435 C   0  0  0  0  0  0  0  0  0  0  0  0
   18.0398  -21.5152  -14.2792 O   0  0  0  0  0  0  0  0  0  0  0  0
   16.7923  -19.8742  -13.3497 O   0  0  0  0  0  0  0  0  0  0  0  0
  1  5  1  0
  2  3  1  0
  2  1  1  0
  3  4  1  0
  4  5  1  0
  6 11  1  0
  5  6  1  1
  7  6  2  0
  8  9  1  0
 10 11  1  0
 10  9  1  1
 12 10  1  0
 12 19  1  0
 13 12  2  0
 15 14  1  0
 16 15  2  0
 17 15  1  0
 18 19  1  0
 18 17  1  6
 20 18  1  0
 21 20  2  0
 22 20  1  0
M  END
$$$$
