PSN.pdb
     RDKit          3D

 22 22  0  0  1  0  0  0  0  0999 V2000
   27.7761  -13.8420  -18.0007 N   0  0  0  0  0  0  0  0  0  0  0  0
   28.3446  -15.1781  -17.9615 C   0  0  0  0  0  0  0  0  0  0  0  0
   28.1099  -15.7330  -16.5946 C   0  0  0  0  0  0  0  0  0  0  0  0
   27.6777  -14.5006  -15.7943 C   0  0  0  0  0  0  0  0  0  0  0  0
   26.9531  -13.7088  -16.8388 C   0  0  1  0  0  0  0  0  0  0  0  0
   26.6976  -12.3014  -16.4668 C   0  0  0  0  0  0  0  0  0  0  0  0
   26.0803  -11.9996  -15.3887 O   0  0  0  0  0  0  0  0  0  0  0  0
   29.1628   -9.1147  -17.0724 O   0  0  0  0  0  0  0  0  0  0  0  0
   27.8813   -8.9532  -17.5372 C   0  0  0  0  0  0  0  0  0  0  0  0
   26.8487   -9.8085  -16.8357 C   0  0  2  0  0  0  0  0  0  0  0  0
   27.0978  -11.1778  -17.2424 N   0  0  0  0  0  0  0  0  0  0  0  0
   25.4723   -9.3797  -17.0739 C   0  0  0  0  0  0  0  0  0  0  0  0
   24.9111   -9.6408  -18.1801 O   0  0  0  0  0  0  0  0  0  0  0  0
   20.6332   -7.6145  -16.4987 N   0  0  0  0  0  0  0  0  0  0  0  0
   21.0970   -8.0137  -15.2238 C   0  0  0  0  0  0  0  0  0  0  0  0
   20.2654   -8.0573  -14.2827 O   0  0  0  0  0  0  0  0  0  0  0  0
   22.5150   -8.3526  -15.0719 C   0  0  0  0  0  0  0  0  0  0  0  0
   23.3005   -8.3257  -16.3504 C   0  0  2  0  0  0  0  0  0  0  0  0
   24.7112   -8.6714  -16.1137 N   0  0  0  0  0  0  0  0  0  0  0  0
   23.2926   -6.9556  -16.9034 C   0  0  0  0  0  0  0  0  0  0  0  0
   24.3085   -6.2443  -16.7401 O   0  0  0  0  0  0  0  0  0  0  0  0
   22.2207   -6.4237  -17.5899 O   0  0  0  0  0  0  0  0  0  0  0  0
  1  5  1  0
  2  3  1  0
  2  1  1  0
  3  4  1  0
  4  5  1  0
  6 11  1  0
  5  6  1  1
  7  6  2  0
  8  9  1  0
 10 11  1  0
 10  9  1  6
 12 10  1  0
 12 19  1  0
 13 12  2  0
 15 14  1  0
 16 15  2  0
 17 15  1  0
 18 19  1  0
 18 17  1  1
 20 18  1  0
 21 20  2  0
 22 20  1  0
M  END
$$$$
