PSN.pdb
     RDKit          3D

 22 22  0  0  1  0  0  0  0  0999 V2000
   18.3586  -13.6428  -18.1893 N   0  0  0  0  0  0  0  0  0  0  0  0
   17.4750  -14.7946  -18.2404 C   0  0  0  0  0  0  0  0  0  0  0  0
   17.1474  -15.1800  -16.8349 C   0  0  0  0  0  0  0  0  0  0  0  0
   18.1651  -14.3815  -16.0148 C   0  0  0  0  0  0  0  0  0  0  0  0
   18.3136  -13.1465  -16.8489 C   0  0  1  0  0  0  0  0  0  0  0  0
   19.4829  -12.3130  -16.4990 C   0  0  0  0  0  0  0  0  0  0  0  0
   19.6159  -11.8098  -15.3312 O   0  0  0  0  0  0  0  0  0  0  0  0
   23.8800  -10.6451  -17.8762 O   0  0  0  0  0  0  0  0  0  0  0  0
   22.7187  -11.3440  -18.0937 C   0  0  0  0  0  0  0  0  0  0  0  0
   21.6677  -11.1605  -17.0205 C   0  0  2  0  0  0  0  0  0  0  0  0
   20.5428  -11.9961  -17.3934 N   0  0  0  0  0  0  0  0  0  0  0  0
   21.2972   -9.7653  -16.7949 C   0  0  0  0  0  0  0  0  0  0  0  0
   20.4015   -9.2251  -17.5111 O   0  0  0  0  0  0  0  0  0  0  0  0
   20.9565   -4.9092  -15.0462 N   0  0  0  0  0  0  0  0  0  0  0  0
   21.7962   -5.5751  -14.1234 C   0  0  0  0  0  0  0  0  0  0  0  0
   22.2066   -4.9270  -13.1281 O   0  0  0  0  0  0  0  0  0  0  0  0
   22.1393   -6.9772  -14.3781 C   0  0  0  0  0  0  0  0  0  0  0  0
   21.5572   -7.5394  -15.6420 C   0  0  2  0  0  0  0  0  0  0  0  0
   21.8976   -8.9628  -15.7957 N   0  0  0  0  0  0  0  0  0  0  0  0
   22.1421   -6.8414  -16.8056 C   0  0  0  0  0  0  0  0  0  0  0  0
   23.3028   -7.1464  -17.1581 O   0  0  0  0  0  0  0  0  0  0  0  0
   21.4710   -5.8711  -17.5207 O   0  0  0  0  0  0  0  0  0  0  0  0
  1  5  1  0
  2  3  1  0
  2  1  1  0
  3  4  1  0
  4  5  1  0
  6 11  1  0
  5  6  1  1
  7  6  2  0
  8  9  1  0
 10 11  1  0
 10  9  1  6
 12 10  1  0
 12 19  1  0
 13 12  2  0
 15 14  1  0
 16 15  2  0
 17 15  1  0
 18 19  1  0
 18 17  1  1
 20 18  1  0
 21 20  2  0
 22 20  1  0
M  END
$$$$
