PSN.pdb
     RDKit          3D

 22 22  0  0  1  0  0  0  0  0999 V2000
   27.0566  -19.1669  -15.4439 N   0  0  0  0  0  0  0  0  0  0  0  0
   28.2430  -18.5663  -16.0284 C   0  0  0  0  0  0  0  0  0  0  0  0
   29.3429  -19.5750  -15.9644 C   0  0  0  0  0  0  0  0  0  0  0  0
   28.7797  -20.6358  -15.0137 C   0  0  0  0  0  0  0  0  0  0  0  0
   27.3169  -20.5683  -15.3283 C   0  0  1  0  0  0  0  0  0  0  0  0
   26.4501  -21.2399  -14.3373 C   0  0  0  0  0  0  0  0  0  0  0  0
   26.0442  -22.4395  -14.5129 O   0  0  0  0  0  0  0  0  0  0  0  0
   24.2003  -21.3037  -10.0455 O   0  0  0  0  0  0  0  0  0  0  0  0
   25.2265  -21.0190  -10.9118 C   0  0  0  0  0  0  0  0  0  0  0  0
   24.8640  -21.1485  -12.3753 C   0  0  2  0  0  0  0  0  0  0  0  0
   25.9942  -20.6421  -13.1295 N   0  0  0  0  0  0  0  0  0  0  0  0
   23.6023  -20.5008  -12.7265 C   0  0  0  0  0  0  0  0  0  0  0  0
   23.5206  -19.2358  -12.7311 O   0  0  0  0  0  0  0  0  0  0  0  0
   19.1523  -20.7601  -16.7006 N   0  0  0  0  0  0  0  0  0  0  0  0
   19.7495  -20.2290  -15.5339 C   0  0  0  0  0  0  0  0  0  0  0  0
   19.2572  -19.1805  -15.0465 O   0  0  0  0  0  0  0  0  0  0  0  0
   20.9037  -20.9276  -14.9609 C   0  0  0  0  0  0  0  0  0  0  0  0
   21.2187  -20.5478  -13.5435 C   0  0  2  0  0  0  0  0  0  0  0  0
   22.4364  -21.2255  -13.0708 N   0  0  0  0  0  0  0  0  0  0  0  0
   20.1219  -20.9939  -12.6597 C   0  0  0  0  0  0  0  0  0  0  0  0
   20.1657  -22.1566  -12.2006 O   0  0  0  0  0  0  0  0  0  0  0  0
   19.0534  -20.1913  -12.3170 O   0  0  0  0  0  0  0  0  0  0  0  0
  1  5  1  0
  2  3  1  0
  2  1  1  0
  3  4  1  0
  4  5  1  0
  6 11  1  0
  5  6  1  1
  7  6  2  0
  8  9  1  0
 10 11  1  0
 10  9  1  1
 12 10  1  0
 12 19  1  0
 13 12  2  0
 15 14  1  0
 16 15  2  0
 17 15  1  0
 18 19  1  0
 18 17  1  6
 20 18  1  0
 21 20  2  0
 22 20  1  0
M  END
$$$$
