KWP.pdb
     RDKit          3D

 31 33  0  0  1  0  0  0  0  0999 V2000
   27.4416  -23.1257  -18.5279 N   0  0  0  0  0  0  0  0  0  0  0  0
   27.1253  -21.8234  -18.0311 C   0  0  1  0  0  0  0  0  0  0  0  0
   25.7659  -21.3198  -18.4482 C   0  0  0  0  0  0  0  0  0  0  0  0
   24.9705  -22.3855  -19.1209 C   0  0  0  0  0  0  0  0  0  0  0  0
   25.0545  -22.3081  -20.6316 C   0  0  0  0  0  0  0  0  0  0  0  0
   24.3739  -21.0756  -21.1798 C   0  0  0  0  0  0  0  0  0  0  0  0
   24.5774  -21.0906  -22.6247 N   0  0  0  0  0  0  0  0  0  0  0  0
   27.3271  -21.7908  -16.5634 C   0  0  0  0  0  0  0  0  0  0  0  0
   27.3502  -22.8408  -15.8642 O   0  0  0  0  0  0  0  0  0  0  0  0
   27.4982  -20.5371  -15.9291 N   0  0  0  0  0  0  0  0  0  0  0  0
   27.5749  -20.4711  -14.4768 C   0  0  1  0  0  0  0  0  0  0  0  0
   28.2118  -19.1676  -14.0492 C   0  0  0  0  0  0  0  0  0  0  0  0
   27.4940  -18.0535  -14.6876 C   0  0  0  0  0  0  0  0  0  0  0  0
   26.5819  -17.2354  -14.0800 C   0  0  0  0  0  0  0  0  0  0  0  0
   26.1232  -16.3219  -14.9400 N   0  0  0  0  0  0  0  0  0  0  0  0
   26.7339  -16.5381  -16.1169 C   0  0  0  0  0  0  0  0  0  0  0  0
   26.6357  -15.8970  -17.3348 C   0  0  0  0  0  0  0  0  0  0  0  0
   27.3756  -16.3041  -18.4226 C   0  0  0  0  0  0  0  0  0  0  0  0
   28.2306  -17.3723  -18.2931 C   0  0  0  0  0  0  0  0  0  0  0  0
   28.3340  -18.0159  -17.0838 C   0  0  0  0  0  0  0  0  0  0  0  0
   27.6002  -17.6180  -15.9910 C   0  0  0  0  0  0  0  0  0  0  0  0
   26.1945  -20.6406  -13.9355 C   0  0  0  0  0  0  0  0  0  0  0  0
   25.2378  -20.7836  -14.7711 O   0  0  0  0  0  0  0  0  0  0  0  0
   25.9043  -20.6518  -12.5653 N   0  0  0  0  0  0  0  0  0  0  0  0
   26.7348  -20.2899  -11.4638 C   0  0  0  0  0  0  0  0  0  0  0  0
   26.2863  -21.1521  -10.2929 C   0  0  0  0  0  0  0  0  0  0  0  0
   25.0871  -21.9000  -10.8098 C   0  0  0  0  0  0  0  0  0  0  0  0
   24.6358  -21.0647  -11.9830 C   0  0  1  0  0  0  0  0  0  0  0  0
   23.8999  -19.8989  -11.4849 C   0  0  0  0  0  0  0  0  0  0  0  0
   22.5464  -19.9945  -11.1209 O   0  0  0  0  0  0  0  0  0  0  0  0
   24.4136  -18.7668  -11.3528 O   0  0  0  0  0  0  0  0  0  0  0  0
  2  1  1  1
  3  4  1  0
  3  2  1  0
  5  6  1  0
  5  4  1  0
  7  6  1  0
  8  2  1  0
  8  9  2  0
 10  8  1  0
 11 10  1  0
 11 12  1  6
 13 12  1  0
 14 13  2  0
 15 14  1  0
 16 15  1  0
 16 21  2  0
 17 16  1  0
 18 17  2  0
 18 19  1  0
 19 20  2  0
 20 21  1  0
 21 13  1  0
 22 11  1  0
 23 22  2  0
 24 25  1  0
 24 22  1  0
 26 27  1  0
 26 25  1  0
 27 28  1  0
 28 24  1  0
 28 29  1  1
 29 30  1  0
 31 29  2  0
M  END
$$$$
