KWP.pdb
     RDKit          3D

 31 33  0  0  1  0  0  0  0  0999 V2000
   22.9220  -21.2001  -12.0254 N   0  0  0  0  0  0  0  0  0  0  0  0
   23.9430  -20.4768  -12.7162 C   0  0  1  0  0  0  0  0  0  0  0  0
   23.4311  -19.3081  -13.5209 C   0  0  0  0  0  0  0  0  0  0  0  0
   22.7350  -19.7594  -14.7589 C   0  0  0  0  0  0  0  0  0  0  0  0
   23.6314  -20.5787  -15.6647 C   0  0  0  0  0  0  0  0  0  0  0  0
   22.9227  -21.0191  -16.9243 C   0  0  0  0  0  0  0  0  0  0  0  0
   23.0744  -19.9375  -17.8920 N   0  0  0  0  0  0  0  0  0  0  0  0
   25.0120  -20.0966  -11.7629 C   0  0  0  0  0  0  0  0  0  0  0  0
   25.8285  -19.1655  -12.0045 O   0  0  0  0  0  0  0  0  0  0  0  0
   25.1170  -20.8052  -10.5422 N   0  0  0  0  0  0  0  0  0  0  0  0
   26.2431  -20.5474   -9.6562 C   0  0  1  0  0  0  0  0  0  0  0  0
   25.7711  -20.4883   -8.2205 C   0  0  0  0  0  0  0  0  0  0  0  0
   26.7540  -19.7361   -7.4254 C   0  0  0  0  0  0  0  0  0  0  0  0
   27.0942  -18.4238   -7.6055 C   0  0  0  0  0  0  0  0  0  0  0  0
   28.0120  -18.0488   -6.7103 N   0  0  0  0  0  0  0  0  0  0  0  0
   28.2777  -19.1158   -5.9386 C   0  0  0  0  0  0  0  0  0  0  0  0
   29.1365  -19.2881   -4.8724 C   0  0  0  0  0  0  0  0  0  0  0  0
   29.2418  -20.4980   -4.2230 C   0  0  0  0  0  0  0  0  0  0  0  0
   28.4751  -21.5574   -4.6455 C   0  0  0  0  0  0  0  0  0  0  0  0
   27.6175  -21.3938   -5.7064 C   0  0  0  0  0  0  0  0  0  0  0  0
   27.5042  -20.1904   -6.3621 C   0  0  0  0  0  0  0  0  0  0  0  0
   27.2603  -21.6156   -9.8830 C   0  0  0  0  0  0  0  0  0  0  0  0
   26.8433  -22.8116  -10.0555 O   0  0  0  0  0  0  0  0  0  0  0  0
   28.6383  -21.3673   -9.9167 N   0  0  0  0  0  0  0  0  0  0  0  0
   29.3432  -20.1535   -9.6639 C   0  0  0  0  0  0  0  0  0  0  0  0
   30.5968  -20.2037  -10.5250 C   0  0  0  0  0  0  0  0  0  0  0  0
   30.5727  -21.5719  -11.1512 C   0  0  0  0  0  0  0  0  0  0  0  0
   29.6577  -22.3544  -10.2411 C   0  0  1  0  0  0  0  0  0  0  0  0
   30.3972  -22.7388   -9.0354 C   0  0  0  0  0  0  0  0  0  0  0  0
   31.3558  -23.7654   -9.0667 O   0  0  0  0  0  0  0  0  0  0  0  0
   30.2299  -22.1931   -7.9231 O   0  0  0  0  0  0  0  0  0  0  0  0
  2  1  1  1
  3  4  1  0
  3  2  1  0
  5  6  1  0
  5  4  1  0
  7  6  1  0
  8  2  1  0
  8  9  2  0
 10  8  1  0
 11 10  1  0
 11 12  1  1
 13 12  1  0
 14 13  2  0
 15 14  1  0
 16 15  1  0
 16 21  2  0
 17 16  1  0
 18 17  2  0
 18 19  1  0
 19 20  2  0
 20 21  1  0
 21 13  1  0
 22 11  1  0
 23 22  2  0
 24 25  1  0
 24 22  1  0
 26 27  1  0
 26 25  1  0
 27 28  1  0
 28 24  1  0
 28 29  1  1
 29 30  1  0
 31 29  2  0
M  END
$$$$
