KWP.pdb
     RDKit          3D

 31 33  0  0  1  0  0  0  0  0999 V2000
   28.5716  -21.6763  -18.3484 N   0  0  0  0  0  0  0  0  0  0  0  0
   28.3240  -22.3515  -17.1133 C   0  0  1  0  0  0  0  0  0  0  0  0
   29.5190  -23.0931  -16.5677 C   0  0  0  0  0  0  0  0  0  0  0  0
   29.7029  -24.4078  -17.2451 C   0  0  0  0  0  0  0  0  0  0  0  0
   28.7893  -25.4811  -16.6897 C   0  0  0  0  0  0  0  0  0  0  0  0
   29.0863  -26.8429  -17.2730 C   0  0  0  0  0  0  0  0  0  0  0  0
   28.1258  -27.7707  -16.6849 N   0  0  0  0  0  0  0  0  0  0  0  0
   27.7403  -21.4011  -16.1375 C   0  0  0  0  0  0  0  0  0  0  0  0
   28.4383  -20.5345  -15.5428 O   0  0  0  0  0  0  0  0  0  0  0  0
   26.3530  -21.4725  -15.8663 N   0  0  0  0  0  0  0  0  0  0  0  0
   25.7696  -20.5885  -14.8675 C   0  0  1  0  0  0  0  0  0  0  0  0
   24.6271  -19.8037  -15.4728 C   0  0  0  0  0  0  0  0  0  0  0  0
   25.1767  -18.7739  -16.3680 C   0  0  0  0  0  0  0  0  0  0  0  0
   25.1060  -18.7792  -17.7337 C   0  0  0  0  0  0  0  0  0  0  0  0
   25.6987  -17.6942  -18.2395 N   0  0  0  0  0  0  0  0  0  0  0  0
   26.1613  -16.9721  -17.2055 C   0  0  0  0  0  0  0  0  0  0  0  0
   26.8454  -15.7749  -17.1533 C   0  0  0  0  0  0  0  0  0  0  0  0
   27.2234  -15.2153  -15.9531 C   0  0  0  0  0  0  0  0  0  0  0  0
   26.9130  -15.8627  -14.7813 C   0  0  0  0  0  0  0  0  0  0  0  0
   26.2320  -17.0552  -14.8249 C   0  0  0  0  0  0  0  0  0  0  0  0
   25.8496  -17.6232  -16.0174 C   0  0  0  0  0  0  0  0  0  0  0  0
   25.3415  -21.4245  -13.7077 C   0  0  0  0  0  0  0  0  0  0  0  0
   25.0255  -22.6424  -13.9328 O   0  0  0  0  0  0  0  0  0  0  0  0
   25.2731  -20.9383  -12.3960 N   0  0  0  0  0  0  0  0  0  0  0  0
   25.6510  -19.6612  -11.8859 C   0  0  0  0  0  0  0  0  0  0  0  0
   26.0915  -19.8921  -10.4478 C   0  0  0  0  0  0  0  0  0  0  0  0
   25.8041  -21.3469  -10.1918 C   0  0  0  0  0  0  0  0  0  0  0  0
   24.7846  -21.6911  -11.2500 C   0  0  1  0  0  0  0  0  0  0  0  0
   23.4728  -21.1887  -10.8315 C   0  0  0  0  0  0  0  0  0  0  0  0
   22.7357  -21.8319   -9.8232 O   0  0  0  0  0  0  0  0  0  0  0  0
   22.9326  -20.1778  -11.3307 O   0  0  0  0  0  0  0  0  0  0  0  0
  2  1  1  6
  3  4  1  0
  3  2  1  0
  5  6  1  0
  5  4  1  0
  7  6  1  0
  8  2  1  0
  8  9  2  0
 10  8  1  0
 11 10  1  0
 11 12  1  6
 13 12  1  0
 14 13  2  0
 15 14  1  0
 16 15  1  0
 16 21  2  0
 17 16  1  0
 18 17  2  0
 18 19  1  0
 19 20  2  0
 20 21  1  0
 21 13  1  0
 22 11  1  0
 23 22  2  0
 24 25  1  0
 24 22  1  0
 26 27  1  0
 26 25  1  0
 27 28  1  0
 28 24  1  0
 28 29  1  1
 29 30  1  0
 31 29  2  0
M  END
$$$$
