KWP.pdb
     RDKit          3D

 31 33  0  0  1  0  0  0  0  0999 V2000
   21.3511  -21.8824  -13.0028 N   0  0  0  0  0  0  0  0  0  0  0  0
   21.7710  -20.6769  -13.6456 C   0  0  1  0  0  0  0  0  0  0  0  0
   20.8149  -19.5229  -13.4730 C   0  0  0  0  0  0  0  0  0  0  0  0
   19.5949  -19.6932  -14.3118 C   0  0  0  0  0  0  0  0  0  0  0  0
   19.9019  -19.6763  -15.7953 C   0  0  0  0  0  0  0  0  0  0  0  0
   18.6539  -19.7931  -16.6389 C   0  0  0  0  0  0  0  0  0  0  0  0
   17.8791  -18.5772  -16.4140 N   0  0  0  0  0  0  0  0  0  0  0  0
   23.1538  -20.3478  -13.2265 C   0  0  0  0  0  0  0  0  0  0  0  0
   23.6701  -19.2166  -13.4404 O   0  0  0  0  0  0  0  0  0  0  0  0
   23.9172  -21.3393  -12.5652 N   0  0  0  0  0  0  0  0  0  0  0  0
   25.3410  -21.1251  -12.3495 C   0  0  1  0  0  0  0  0  0  0  0  0
   25.8459  -22.0473  -11.2622 C   0  0  0  0  0  0  0  0  0  0  0  0
   26.1567  -21.2497  -10.0659 C   0  0  0  0  0  0  0  0  0  0  0  0
   25.2677  -20.4908   -9.3559 C   0  0  0  0  0  0  0  0  0  0  0  0
   25.8738  -19.9003   -8.3224 N   0  0  0  0  0  0  0  0  0  0  0  0
   27.1649  -20.2703   -8.3508 C   0  0  0  0  0  0  0  0  0  0  0  0
   28.2287  -19.9586   -7.5292 C   0  0  0  0  0  0  0  0  0  0  0  0
   29.4875  -20.4675   -7.7596 C   0  0  0  0  0  0  0  0  0  0  0  0
   29.6893  -21.3041   -8.8311 C   0  0  0  0  0  0  0  0  0  0  0  0
   28.6351  -21.6193   -9.6538 C   0  0  0  0  0  0  0  0  0  0  0  0
   27.3741  -21.1170   -9.4333 C   0  0  0  0  0  0  0  0  0  0  0  0
   26.0398  -21.3352  -13.6513 C   0  0  0  0  0  0  0  0  0  0  0  0
   25.6501  -22.3029  -14.3899 O   0  0  0  0  0  0  0  0  0  0  0  0
   27.0924  -20.5252  -14.0959 N   0  0  0  0  0  0  0  0  0  0  0  0
   27.9247  -19.6376  -13.3519 C   0  0  0  0  0  0  0  0  0  0  0  0
   28.3193  -18.5230  -14.3097 C   0  0  0  0  0  0  0  0  0  0  0  0
   27.7476  -18.9429  -15.6369 C   0  0  0  0  0  0  0  0  0  0  0  0
   27.5491  -20.4302  -15.4747 C   0  0  1  0  0  0  0  0  0  0  0  0
   28.8408  -21.1049  -15.6317 C   0  0  0  0  0  0  0  0  0  0  0  0
   29.5024  -21.1297  -16.8707 O   0  0  0  0  0  0  0  0  0  0  0  0
   29.4285  -21.6906  -14.6965 O   0  0  0  0  0  0  0  0  0  0  0  0
  2  1  1  1
  3  4  1  0
  3  2  1  0
  5  6  1  0
  5  4  1  0
  7  6  1  0
  8  2  1  0
  8  9  2  0
 10  8  1  0
 11 10  1  0
 11 12  1  1
 13 12  1  0
 14 13  2  0
 15 14  1  0
 16 15  1  0
 16 21  2  0
 17 16  1  0
 18 17  2  0
 18 19  1  0
 19 20  2  0
 20 21  1  0
 21 13  1  0
 22 11  1  0
 23 22  2  0
 24 25  1  0
 24 22  1  0
 26 27  1  0
 26 25  1  0
 27 28  1  0
 28 24  1  0
 28 29  1  1
 29 30  1  0
 31 29  2  0
M  END
$$$$
