KWP.pdb
     RDKit          3D

 31 33  0  0  1  0  0  0  0  0999 V2000
   28.3604  -20.6982  -18.8650 N   0  0  0  0  0  0  0  0  0  0  0  0
   27.1159  -20.4204  -18.2194 C   0  0  1  0  0  0  0  0  0  0  0  0
   26.0101  -21.3824  -18.5762 C   0  0  0  0  0  0  0  0  0  0  0  0
   26.3138  -22.1230  -19.8333 C   0  0  0  0  0  0  0  0  0  0  0  0
   25.1761  -23.0249  -20.2665 C   0  0  0  0  0  0  0  0  0  0  0  0
   25.5005  -23.7879  -21.5296 C   0  0  0  0  0  0  0  0  0  0  0  0
   24.2923  -24.5163  -21.9026 N   0  0  0  0  0  0  0  0  0  0  0  0
   27.3309  -20.3056  -16.7576 C   0  0  0  0  0  0  0  0  0  0  0  0
   28.2127  -20.9755  -16.1530 O   0  0  0  0  0  0  0  0  0  0  0  0
   26.5167  -19.4139  -16.0194 N   0  0  0  0  0  0  0  0  0  0  0  0
   26.6704  -19.3294  -14.5741 C   0  0  1  0  0  0  0  0  0  0  0  0
   26.5338  -17.8930  -14.1205 C   0  0  0  0  0  0  0  0  0  0  0  0
   26.7067  -17.0070  -15.2821 C   0  0  0  0  0  0  0  0  0  0  0  0
   25.7582  -16.1673  -15.7972 C   0  0  0  0  0  0  0  0  0  0  0  0
   26.2421  -15.4992  -16.8478 N   0  0  0  0  0  0  0  0  0  0  0  0
   27.5122  -15.8992  -17.0259 C   0  0  0  0  0  0  0  0  0  0  0  0
   28.4682  -15.5380  -17.9530 C   0  0  0  0  0  0  0  0  0  0  0  0
   29.7282  -16.0935  -17.9393 C   0  0  0  0  0  0  0  0  0  0  0  0
   30.0411  -17.0283  -16.9817 C   0  0  0  0  0  0  0  0  0  0  0  0
   29.0946  -17.3933  -16.0551 C   0  0  0  0  0  0  0  0  0  0  0  0
   27.8335  -16.8451  -16.0593 C   0  0  0  0  0  0  0  0  0  0  0  0
   25.6549  -20.2278  -13.9506 C   0  0  0  0  0  0  0  0  0  0  0  0
   24.8595  -20.8603  -14.7260 O   0  0  0  0  0  0  0  0  0  0  0  0
   25.5375  -20.4080  -12.5666 N   0  0  0  0  0  0  0  0  0  0  0  0
   26.1727  -19.6961  -11.5065 C   0  0  0  0  0  0  0  0  0  0  0  0
   26.3268  -20.6874  -10.3624 C   0  0  0  0  0  0  0  0  0  0  0  0
   25.6215  -21.9288  -10.8381 C   0  0  0  0  0  0  0  0  0  0  0  0
   24.7063  -21.4144  -11.9224 C   0  0  1  0  0  0  0  0  0  0  0  0
   23.5353  -20.7878  -11.3022 C   0  0  0  0  0  0  0  0  0  0  0  0
   23.3857  -19.3912  -11.2771 O   0  0  0  0  0  0  0  0  0  0  0  0
   22.6114  -21.4373  -10.7659 O   0  0  0  0  0  0  0  0  0  0  0  0
  2  1  1  6
  3  4  1  0
  3  2  1  0
  5  6  1  0
  5  4  1  0
  7  6  1  0
  8  2  1  0
  8  9  2  0
 10  8  1  0
 11 10  1  0
 11 12  1  1
 13 12  1  0
 14 13  2  0
 15 14  1  0
 16 15  1  0
 16 21  2  0
 17 16  1  0
 18 17  2  0
 18 19  1  0
 19 20  2  0
 20 21  1  0
 21 13  1  0
 22 11  1  0
 23 22  2  0
 24 25  1  0
 24 22  1  0
 26 27  1  0
 26 25  1  0
 27 28  1  0
 28 24  1  0
 28 29  1  1
 29 30  1  0
 31 29  2  0
M  END
$$$$
