KWP.pdb
     RDKit          3D

 31 33  0  0  1  0  0  0  0  0999 V2000
   26.1098  -14.4845  -15.5854 N   0  0  0  0  0  0  0  0  0  0  0  0
   25.5511  -15.7534  -15.9326 C   0  0  1  0  0  0  0  0  0  0  0  0
   25.6999  -16.1125  -17.3902 C   0  0  0  0  0  0  0  0  0  0  0  0
   24.4915  -15.7299  -18.1740 C   0  0  0  0  0  0  0  0  0  0  0  0
   23.2065  -16.2194  -17.5380 C   0  0  0  0  0  0  0  0  0  0  0  0
   22.0002  -15.9531  -18.4079 C   0  0  0  0  0  0  0  0  0  0  0  0
   20.8306  -16.3793  -17.6467 N   0  0  0  0  0  0  0  0  0  0  0  0
   26.0857  -16.7952  -15.0245 C   0  0  0  0  0  0  0  0  0  0  0  0
   27.3149  -16.8855  -14.7544 O   0  0  0  0  0  0  0  0  0  0  0  0
   25.1834  -17.7183  -14.4440 N   0  0  0  0  0  0  0  0  0  0  0  0
   25.6855  -18.7410  -13.5377 C   0  0  1  0  0  0  0  0  0  0  0  0
   24.5897  -19.1800  -12.5921 C   0  0  0  0  0  0  0  0  0  0  0  0
   25.1602  -20.0968  -11.5930 C   0  0  0  0  0  0  0  0  0  0  0  0
   25.1807  -21.4616  -11.6776 C   0  0  0  0  0  0  0  0  0  0  0  0
   25.7786  -21.9903  -10.6065 N   0  0  0  0  0  0  0  0  0  0  0  0
   26.1529  -20.9722   -9.8139 C   0  0  0  0  0  0  0  0  0  0  0  0
   26.8022  -20.9457   -8.5967 C   0  0  0  0  0  0  0  0  0  0  0  0
   27.0856  -19.7582   -7.9595 C   0  0  0  0  0  0  0  0  0  0  0  0
   26.7139  -18.5733   -8.5480 C   0  0  0  0  0  0  0  0  0  0  0  0
   26.0670  -18.5913   -9.7600 C   0  0  0  0  0  0  0  0  0  0  0  0
   25.7790  -19.7710  -10.4052 C   0  0  0  0  0  0  0  0  0  0  0  0
   26.2170  -19.8654  -14.3626 C   0  0  0  0  0  0  0  0  0  0  0  0
   25.6491  -20.1062  -15.4821 O   0  0  0  0  0  0  0  0  0  0  0  0
   27.3015  -20.6593  -13.9686 N   0  0  0  0  0  0  0  0  0  0  0  0
   28.0263  -20.6521  -12.7403 C   0  0  0  0  0  0  0  0  0  0  0  0
   29.4459  -21.0796  -13.0828 C   0  0  0  0  0  0  0  0  0  0  0  0
   29.3935  -21.4335  -14.5446 C   0  0  0  0  0  0  0  0  0  0  0  0
   27.9259  -21.6875  -14.7881 C   0  0  1  0  0  0  0  0  0  0  0  0
   27.5813  -23.0202  -14.2843 C   0  0  0  0  0  0  0  0  0  0  0  0
   27.9270  -24.1794  -14.9987 O   0  0  0  0  0  0  0  0  0  0  0  0
   26.9709  -23.2124  -13.2103 O   0  0  0  0  0  0  0  0  0  0  0  0
  2  1  1  6
  3  4  1  0
  3  2  1  0
  5  6  1  0
  5  4  1  0
  7  6  1  0
  8  2  1  0
  8  9  2  0
 10  8  1  0
 11 10  1  0
 11 12  1  1
 13 12  1  0
 14 13  2  0
 15 14  1  0
 16 15  1  0
 16 21  2  0
 17 16  1  0
 18 17  2  0
 18 19  1  0
 19 20  2  0
 20 21  1  0
 21 13  1  0
 22 11  1  0
 23 22  2  0
 24 25  1  0
 24 22  1  0
 26 27  1  0
 26 25  1  0
 27 28  1  0
 28 24  1  0
 28 29  1  1
 29 30  1  0
 31 29  2  0
M  END
$$$$
