KWP.pdb
     RDKit          3D

 31 33  0  0  1  0  0  0  0  0999 V2000
   28.9607  -19.3865  -15.4941 N   0  0  0  0  0  0  0  0  0  0  0  0
   28.1637  -18.5473  -14.6555 C   0  0  1  0  0  0  0  0  0  0  0  0
   27.1338  -17.7345  -15.3999 C   0  0  0  0  0  0  0  0  0  0  0  0
   26.9819  -18.2007  -16.8072 C   0  0  0  0  0  0  0  0  0  0  0  0
   27.5699  -17.2279  -17.8089 C   0  0  0  0  0  0  0  0  0  0  0  0
   27.3789  -17.6901  -19.2347 C   0  0  0  0  0  0  0  0  0  0  0  0
   27.9343  -16.6482  -20.0922 N   0  0  0  0  0  0  0  0  0  0  0  0
   27.5787  -19.3549  -13.5593 C   0  0  0  0  0  0  0  0  0  0  0  0
   27.0733  -20.4937  -13.7588 O   0  0  0  0  0  0  0  0  0  0  0  0
   27.5886  -18.8263  -12.2464 N   0  0  0  0  0  0  0  0  0  0  0  0
   27.0145  -19.6008  -11.1555 C   0  0  1  0  0  0  0  0  0  0  0  0
   27.4310  -19.0126   -9.8258 C   0  0  0  0  0  0  0  0  0  0  0  0
   26.8419  -19.8155   -8.7431 C   0  0  0  0  0  0  0  0  0  0  0  0
   25.7513  -20.6330   -8.8544 C   0  0  0  0  0  0  0  0  0  0  0  0
   25.4832  -21.2212   -7.6855 N   0  0  0  0  0  0  0  0  0  0  0  0
   26.3986  -20.7908   -6.8016 C   0  0  0  0  0  0  0  0  0  0  0  0
   26.5900  -21.0740   -5.4647 C   0  0  0  0  0  0  0  0  0  0  0  0
   27.6178  -20.5014   -4.7491 C   0  0  0  0  0  0  0  0  0  0  0  0
   28.4720  -19.6287   -5.3793 C   0  0  0  0  0  0  0  0  0  0  0  0
   28.2882  -19.3415   -6.7102 C   0  0  0  0  0  0  0  0  0  0  0  0
   27.2654  -19.9074   -7.4346 C   0  0  0  0  0  0  0  0  0  0  0  0
   25.5332  -19.6208  -11.3360 C   0  0  0  0  0  0  0  0  0  0  0  0
   24.9155  -18.5017  -11.3355 O   0  0  0  0  0  0  0  0  0  0  0  0
   24.7975  -20.8004  -11.5061 N   0  0  0  0  0  0  0  0  0  0  0  0
   25.1951  -22.1521  -11.2851 C   0  0  0  0  0  0  0  0  0  0  0  0
   24.4041  -22.9944  -12.2752 C   0  0  0  0  0  0  0  0  0  0  0  0
   23.4738  -22.0193  -12.9449 C   0  0  0  0  0  0  0  0  0  0  0  0
   23.4201  -20.8665  -11.9723 C   0  0  1  0  0  0  0  0  0  0  0  0
   22.5236  -21.2153  -10.8664 C   0  0  0  0  0  0  0  0  0  0  0  0
   23.0152  -21.4056   -9.5641 O   0  0  0  0  0  0  0  0  0  0  0  0
   21.2898  -21.3641  -11.0024 O   0  0  0  0  0  0  0  0  0  0  0  0
  2  1  1  6
  3  4  1  0
  3  2  1  0
  5  6  1  0
  5  4  1  0
  7  6  1  0
  8  2  1  0
  8  9  2  0
 10  8  1  0
 11 10  1  0
 11 12  1  1
 13 12  1  0
 14 13  2  0
 15 14  1  0
 16 15  1  0
 16 21  2  0
 17 16  1  0
 18 17  2  0
 18 19  1  0
 19 20  2  0
 20 21  1  0
 21 13  1  0
 22 11  1  0
 23 22  2  0
 24 25  1  0
 24 22  1  0
 26 27  1  0
 26 25  1  0
 27 28  1  0
 28 24  1  0
 28 29  1  1
 29 30  1  0
 31 29  2  0
M  END
$$$$
