KWP.pdb
     RDKit          3D

 31 33  0  0  1  0  0  0  0  0999 V2000
   29.4692  -21.3447  -18.8303 N   0  0  0  0  0  0  0  0  0  0  0  0
   28.2840  -20.5964  -18.5512 C   0  0  1  0  0  0  0  0  0  0  0  0
   27.2416  -20.6673  -19.6394 C   0  0  0  0  0  0  0  0  0  0  0  0
   27.8569  -20.9376  -20.9695 C   0  0  0  0  0  0  0  0  0  0  0  0
   28.1576  -22.4070  -21.1837 C   0  0  0  0  0  0  0  0  0  0  0  0
   28.7010  -22.6839  -22.5660 C   0  0  0  0  0  0  0  0  0  0  0  0
   29.0856  -24.0913  -22.5923 N   0  0  0  0  0  0  0  0  0  0  0  0
   27.7564  -20.9821  -17.2212 C   0  0  0  0  0  0  0  0  0  0  0  0
   27.6286  -22.1878  -16.8723 O   0  0  0  0  0  0  0  0  0  0  0  0
   27.3838  -19.9600  -16.3158 N   0  0  0  0  0  0  0  0  0  0  0  0
   26.9101  -20.3155  -14.9860 C   0  0  1  0  0  0  0  0  0  0  0  0
   27.2558  -19.2204  -14.0017 C   0  0  0  0  0  0  0  0  0  0  0  0
   26.8786  -19.6579  -12.6488 C   0  0  0  0  0  0  0  0  0  0  0  0
   25.6753  -19.4309  -12.0398 C   0  0  0  0  0  0  0  0  0  0  0  0
   25.6585  -19.9676  -10.8167 N   0  0  0  0  0  0  0  0  0  0  0  0
   26.8530  -20.5495  -10.6186 C   0  0  0  0  0  0  0  0  0  0  0  0
   27.3712  -21.2418   -9.5434 C   0  0  0  0  0  0  0  0  0  0  0  0
   28.6475  -21.7583   -9.5692 C   0  0  0  0  0  0  0  0  0  0  0  0
   29.4228  -21.5807  -10.6900 C   0  0  0  0  0  0  0  0  0  0  0  0
   28.9140  -20.8925  -11.7647 C   0  0  0  0  0  0  0  0  0  0  0  0
   27.6411  -20.3725  -11.7500 C   0  0  0  0  0  0  0  0  0  0  0  0
   25.4417  -20.5671  -15.0731 C   0  0  0  0  0  0  0  0  0  0  0  0
   24.7580  -19.8455  -15.8767 O   0  0  0  0  0  0  0  0  0  0  0  0
   24.7865  -21.5508  -14.3217 N   0  0  0  0  0  0  0  0  0  0  0  0
   25.3211  -22.4557  -13.3577 C   0  0  0  0  0  0  0  0  0  0  0  0
   24.4594  -23.7079  -13.4275 C   0  0  0  0  0  0  0  0  0  0  0  0
   23.3623  -23.3602  -14.3972 C   0  0  0  0  0  0  0  0  0  0  0  0
   23.3641  -21.8510  -14.3971 C   0  0  1  0  0  0  0  0  0  0  0  0
   22.6774  -21.3721  -13.1939 C   0  0  0  0  0  0  0  0  0  0  0  0
   22.0332  -20.1238  -13.1725 O   0  0  0  0  0  0  0  0  0  0  0  0
   22.6191  -22.0256  -12.1297 O   0  0  0  0  0  0  0  0  0  0  0  0
  2  1  1  6
  3  4  1  0
  3  2  1  0
  5  6  1  0
  5  4  1  0
  7  6  1  0
  8  2  1  0
  8  9  2  0
 10  8  1  0
 11 10  1  0
 11 12  1  1
 13 12  1  0
 14 13  2  0
 15 14  1  0
 16 15  1  0
 16 21  2  0
 17 16  1  0
 18 17  2  0
 18 19  1  0
 19 20  2  0
 20 21  1  0
 21 13  1  0
 22 11  1  0
 23 22  2  0
 24 25  1  0
 24 22  1  0
 26 27  1  0
 26 25  1  0
 27 28  1  0
 28 24  1  0
 28 29  1  1
 29 30  1  0
 31 29  2  0
M  END
$$$$
