KWP.pdb
     RDKit          3D

 31 33  0  0  1  0  0  0  0  0999 V2000
   29.4248  -20.0818  -19.3639 N   0  0  0  0  0  0  0  0  0  0  0  0
   28.3857  -19.3472  -18.7132 C   0  0  1  0  0  0  0  0  0  0  0  0
   27.2307  -18.9869  -19.6142 C   0  0  0  0  0  0  0  0  0  0  0  0
   26.5600  -20.2022  -20.1564 C   0  0  0  0  0  0  0  0  0  0  0  0
   25.4718  -19.8689  -21.1565 C   0  0  0  0  0  0  0  0  0  0  0  0
   24.7976  -21.1063  -21.7016 C   0  0  0  0  0  0  0  0  0  0  0  0
   23.7895  -20.6510  -22.6533 N   0  0  0  0  0  0  0  0  0  0  0  0
   27.9601  -20.0686  -17.4907 C   0  0  0  0  0  0  0  0  0  0  0  0
   27.8868  -21.3273  -17.4437 O   0  0  0  0  0  0  0  0  0  0  0  0
   27.6246  -19.3158  -16.3400 N   0  0  0  0  0  0  0  0  0  0  0  0
   27.1899  -20.0035  -15.1328 C   0  0  1  0  0  0  0  0  0  0  0  0
   27.4851  -19.1543  -13.9166 C   0  0  0  0  0  0  0  0  0  0  0  0
   27.1583  -19.9239  -12.7062 C   0  0  0  0  0  0  0  0  0  0  0  0
   28.0053  -20.7651  -12.0388 C   0  0  0  0  0  0  0  0  0  0  0  0
   27.3965  -21.3003  -10.9771 N   0  0  0  0  0  0  0  0  0  0  0  0
   26.1456  -20.8113  -10.9444 C   0  0  0  0  0  0  0  0  0  0  0  0
   25.0975  -21.0255  -10.0728 C   0  0  0  0  0  0  0  0  0  0  0  0
   23.8823  -20.4005  -10.2434 C   0  0  0  0  0  0  0  0  0  0  0  0
   23.7089  -19.5447  -11.3047 C   0  0  0  0  0  0  0  0  0  0  0  0
   24.7477  -19.3262  -12.1769 C   0  0  0  0  0  0  0  0  0  0  0  0
   25.9653  -19.9448  -12.0163 C   0  0  0  0  0  0  0  0  0  0  0  0
   25.7373  -20.3134  -15.2782 C   0  0  0  0  0  0  0  0  0  0  0  0
   24.9854  -19.4227  -15.8029 O   0  0  0  0  0  0  0  0  0  0  0  0
   25.1676  -21.5262  -14.8708 N   0  0  0  0  0  0  0  0  0  0  0  0
   25.7671  -22.6155  -14.1721 C   0  0  0  0  0  0  0  0  0  0  0  0
   25.0417  -23.8693  -14.6382 C   0  0  0  0  0  0  0  0  0  0  0  0
   23.9407  -23.3616  -15.5297 C   0  0  0  0  0  0  0  0  0  0  0  0
   23.7865  -21.9215  -15.1054 C   0  0  1  0  0  0  0  0  0  0  0  0
   23.0222  -21.8706  -13.8556 C   0  0  0  0  0  0  0  0  0  0  0  0
   21.6173  -21.8703  -13.8620 O   0  0  0  0  0  0  0  0  0  0  0  0
   23.5548  -21.8251  -12.7255 O   0  0  0  0  0  0  0  0  0  0  0  0
  2  1  1  6
  3  4  1  0
  3  2  1  0
  5  6  1  0
  5  4  1  0
  7  6  1  0
  8  2  1  0
  8  9  2  0
 10  8  1  0
 11 10  1  0
 11 12  1  1
 13 12  1  0
 14 13  2  0
 15 14  1  0
 16 15  1  0
 16 21  2  0
 17 16  1  0
 18 17  2  0
 18 19  1  0
 19 20  2  0
 20 21  1  0
 21 13  1  0
 22 11  1  0
 23 22  2  0
 24 25  1  0
 24 22  1  0
 26 27  1  0
 26 25  1  0
 27 28  1  0
 28 24  1  0
 28 29  1  1
 29 30  1  0
 31 29  2  0
M  END
$$$$
