KWP.pdb
     RDKit          3D

 31 33  0  0  1  0  0  0  0  0999 V2000
   19.7734  -19.6809  -13.9837 N   0  0  0  0  0  0  0  0  0  0  0  0
   20.7071  -20.7148  -13.6643 C   0  0  1  0  0  0  0  0  0  0  0  0
   20.4420  -22.0218  -14.3694 C   0  0  0  0  0  0  0  0  0  0  0  0
   19.2934  -22.7493  -13.7592 C   0  0  0  0  0  0  0  0  0  0  0  0
   19.5087  -23.0485  -12.2897 C   0  0  0  0  0  0  0  0  0  0  0  0
   18.3256  -23.7554  -11.6707 C   0  0  0  0  0  0  0  0  0  0  0  0
   18.6258  -23.9135  -10.2514 N   0  0  0  0  0  0  0  0  0  0  0  0
   22.0874  -20.2172  -13.8719 C   0  0  0  0  0  0  0  0  0  0  0  0
   22.3830  -19.4251  -14.8085 O   0  0  0  0  0  0  0  0  0  0  0  0
   23.1050  -20.6485  -12.9879 N   0  0  0  0  0  0  0  0  0  0  0  0
   24.4791  -20.2223  -13.2110 C   0  0  1  0  0  0  0  0  0  0  0  0
   25.2621  -20.2969  -11.9191 C   0  0  0  0  0  0  0  0  0  0  0  0
   26.6789  -20.0211  -12.2030 C   0  0  0  0  0  0  0  0  0  0  0  0
   27.1550  -19.0248  -13.0098 C   0  0  0  0  0  0  0  0  0  0  0  0
   28.4901  -19.0469  -13.0464 N   0  0  0  0  0  0  0  0  0  0  0  0
   28.8952  -20.0597  -12.2624 C   0  0  0  0  0  0  0  0  0  0  0  0
   30.1531  -20.5283  -11.9427 C   0  0  0  0  0  0  0  0  0  0  0  0
   30.3263  -21.6034  -11.0997 C   0  0  0  0  0  0  0  0  0  0  0  0
   29.2228  -22.2237  -10.5648 C   0  0  0  0  0  0  0  0  0  0  0  0
   27.9670  -21.7631  -10.8782 C   0  0  0  0  0  0  0  0  0  0  0  0
   27.7821  -20.6905  -11.7187 C   0  0  0  0  0  0  0  0  0  0  0  0
   25.0585  -21.0821  -14.2844 C   0  0  0  0  0  0  0  0  0  0  0  0
   24.8613  -22.3430  -14.2122 O   0  0  0  0  0  0  0  0  0  0  0  0
   25.8000  -20.5728  -15.3579 N   0  0  0  0  0  0  0  0  0  0  0  0
   26.3744  -19.2781  -15.5246 C   0  0  0  0  0  0  0  0  0  0  0  0
   26.3702  -19.0015  -17.0209 C   0  0  0  0  0  0  0  0  0  0  0  0
   25.8747  -20.2797  -17.6418 C   0  0  0  0  0  0  0  0  0  0  0  0
   26.1315  -21.3095  -16.5688 C   0  0  1  0  0  0  0  0  0  0  0  0
   27.5538  -21.6638  -16.5769 C   0  0  0  0  0  0  0  0  0  0  0  0
   28.4496  -21.0973  -15.6547 O   0  0  0  0  0  0  0  0  0  0  0  0
   28.0556  -22.4748  -17.3852 O   0  0  0  0  0  0  0  0  0  0  0  0
  2  1  1  6
  3  4  1  0
  3  2  1  0
  5  6  1  0
  5  4  1  0
  7  6  1  0
  8  2  1  0
  8  9  2  0
 10  8  1  0
 11 10  1  0
 11 12  1  1
 13 12  1  0
 14 13  2  0
 15 14  1  0
 16 15  1  0
 16 21  2  0
 17 16  1  0
 18 17  2  0
 18 19  1  0
 19 20  2  0
 20 21  1  0
 21 13  1  0
 22 11  1  0
 23 22  2  0
 24 25  1  0
 24 22  1  0
 26 27  1  0
 26 25  1  0
 27 28  1  0
 28 24  1  0
 28 29  1  1
 29 30  1  0
 31 29  2  0
M  END
$$$$
