KWP.pdb
     RDKit          3D

 31 33  0  0  1  0  0  0  0  0999 V2000
   22.6964  -17.8102  -19.8868 N   0  0  0  0  0  0  0  0  0  0  0  0
   22.4385  -17.8168  -18.4810 C   0  0  1  0  0  0  0  0  0  0  0  0
   21.0878  -18.3743  -18.1064 C   0  0  0  0  0  0  0  0  0  0  0  0
   20.1428  -18.3388  -19.2582 C   0  0  0  0  0  0  0  0  0  0  0  0
   19.0778  -17.2724  -19.1043 C   0  0  0  0  0  0  0  0  0  0  0  0
   17.7834  -17.6547  -19.7834 C   0  0  0  0  0  0  0  0  0  0  0  0
   17.9259  -17.2981  -21.1911 N   0  0  0  0  0  0  0  0  0  0  0  0
   23.5554  -18.4885  -17.7757 C   0  0  0  0  0  0  0  0  0  0  0  0
   24.3851  -19.2244  -18.3774 O   0  0  0  0  0  0  0  0  0  0  0  0
   23.6912  -18.2958  -16.3801 N   0  0  0  0  0  0  0  0  0  0  0  0
   24.7185  -19.0249  -15.6505 C   0  0  1  0  0  0  0  0  0  0  0  0
   25.0710  -18.2900  -14.3764 C   0  0  0  0  0  0  0  0  0  0  0  0
   26.0577  -19.0820  -13.6259 C   0  0  0  0  0  0  0  0  0  0  0  0
   27.3791  -19.2277  -13.9468 C   0  0  0  0  0  0  0  0  0  0  0  0
   27.9967  -20.0064  -13.0543 N   0  0  0  0  0  0  0  0  0  0  0  0
   27.0809  -20.3749  -12.1432 C   0  0  0  0  0  0  0  0  0  0  0  0
   27.1716  -21.1673  -11.0171 C   0  0  0  0  0  0  0  0  0  0  0  0
   26.0759  -21.4091  -10.2187 C   0  0  0  0  0  0  0  0  0  0  0  0
   24.8652  -20.8495  -10.5501 C   0  0  0  0  0  0  0  0  0  0  0  0
   24.7667  -20.0594  -11.6697 C   0  0  0  0  0  0  0  0  0  0  0  0
   25.8540  -19.8111  -12.4741 C   0  0  0  0  0  0  0  0  0  0  0  0
   24.2098  -20.4046  -15.3959 C   0  0  0  0  0  0  0  0  0  0  0  0
   22.9527  -20.5555  -15.2202 O   0  0  0  0  0  0  0  0  0  0  0  0
   25.0410  -21.5307  -15.3434 N   0  0  0  0  0  0  0  0  0  0  0  0
   26.4652  -21.6031  -15.3644 C   0  0  0  0  0  0  0  0  0  0  0  0
   26.8130  -22.9262  -16.0306 C   0  0  0  0  0  0  0  0  0  0  0  0
   25.4863  -23.6031  -16.2458 C   0  0  0  0  0  0  0  0  0  0  0  0
   24.5780  -22.9082  -15.2610 C   0  0  1  0  0  0  0  0  0  0  0  0
   24.8226  -23.4492  -13.9209 C   0  0  0  0  0  0  0  0  0  0  0  0
   24.1517  -24.5968  -13.4664 O   0  0  0  0  0  0  0  0  0  0  0  0
   25.6256  -22.9390  -13.1097 O   0  0  0  0  0  0  0  0  0  0  0  0
  2  1  1  6
  3  4  1  0
  3  2  1  0
  5  6  1  0
  5  4  1  0
  7  6  1  0
  8  2  1  0
  8  9  2  0
 10  8  1  0
 11 10  1  0
 11 12  1  1
 13 12  1  0
 14 13  2  0
 15 14  1  0
 16 15  1  0
 16 21  2  0
 17 16  1  0
 18 17  2  0
 18 19  1  0
 19 20  2  0
 20 21  1  0
 21 13  1  0
 22 11  1  0
 23 22  2  0
 24 25  1  0
 24 22  1  0
 26 27  1  0
 26 25  1  0
 27 28  1  0
 28 24  1  0
 28 29  1  1
 29 30  1  0
 31 29  2  0
M  END
$$$$
