KWP.pdb
     RDKit          3D

 31 33  0  0  1  0  0  0  0  0999 V2000
   22.3613  -21.2997  -11.5613 N   0  0  0  0  0  0  0  0  0  0  0  0
   23.1877  -20.4803  -12.3910 C   0  0  1  0  0  0  0  0  0  0  0  0
   22.4664  -19.3107  -13.0133 C   0  0  0  0  0  0  0  0  0  0  0  0
   21.6376  -19.7354  -14.1768 C   0  0  0  0  0  0  0  0  0  0  0  0
   20.2563  -20.2036  -13.7671 C   0  0  0  0  0  0  0  0  0  0  0  0
   19.1613  -19.3746  -14.3968 C   0  0  0  0  0  0  0  0  0  0  0  0
   18.6212  -20.1608  -15.5012 N   0  0  0  0  0  0  0  0  0  0  0  0
   24.3992  -20.0768  -11.6389 C   0  0  0  0  0  0  0  0  0  0  0  0
   25.2769  -19.3181  -12.1348 O   0  0  0  0  0  0  0  0  0  0  0  0
   24.5735  -20.5622  -10.3209 N   0  0  0  0  0  0  0  0  0  0  0  0
   25.8074  -20.2712   -9.6052 C   0  0  1  0  0  0  0  0  0  0  0  0
   25.5518  -20.2562   -8.1145 C   0  0  0  0  0  0  0  0  0  0  0  0
   26.6582  -19.5526   -7.4475 C   0  0  0  0  0  0  0  0  0  0  0  0
   27.1227  -18.3064   -7.7659 C   0  0  0  0  0  0  0  0  0  0  0  0
   28.1311  -17.9605   -6.9611 N   0  0  0  0  0  0  0  0  0  0  0  0
   28.3321  -18.9807   -6.1104 C   0  0  0  0  0  0  0  0  0  0  0  0
   29.2354  -19.1556   -5.0820 C   0  0  0  0  0  0  0  0  0  0  0  0
   29.2542  -20.3098   -4.3311 C   0  0  0  0  0  0  0  0  0  0  0  0
   28.3541  -21.3098   -4.6114 C   0  0  0  0  0  0  0  0  0  0  0  0
   27.4515  -21.1432   -5.6338 C   0  0  0  0  0  0  0  0  0  0  0  0
   27.4236  -19.9950   -6.3900 C   0  0  0  0  0  0  0  0  0  0  0  0
   26.8215  -21.2910  -10.0039 C   0  0  0  0  0  0  0  0  0  0  0  0
   26.4395  -22.5066  -10.1047 O   0  0  0  0  0  0  0  0  0  0  0  0
   28.1599  -20.9772  -10.2718 N   0  0  0  0  0  0  0  0  0  0  0  0
   28.8206  -19.7147  -10.2114 C   0  0  0  0  0  0  0  0  0  0  0  0
   29.9262  -19.7639  -11.2558 C   0  0  0  0  0  0  0  0  0  0  0  0
   29.8882  -21.1731  -11.7826 C   0  0  0  0  0  0  0  0  0  0  0  0
   29.1747  -21.9328  -10.6910 C   0  0  1  0  0  0  0  0  0  0  0  0
   30.1142  -22.1921   -9.5962 C   0  0  0  0  0  0  0  0  0  0  0  0
   31.1112  -23.1753   -9.7111 O   0  0  0  0  0  0  0  0  0  0  0  0
   30.0937  -21.5714   -8.5112 O   0  0  0  0  0  0  0  0  0  0  0  0
  2  1  1  1
  3  4  1  0
  3  2  1  0
  5  6  1  0
  5  4  1  0
  7  6  1  0
  8  2  1  0
  8  9  2  0
 10  8  1  0
 11 10  1  0
 11 12  1  1
 13 12  1  0
 14 13  2  0
 15 14  1  0
 16 15  1  0
 16 21  2  0
 17 16  1  0
 18 17  2  0
 18 19  1  0
 19 20  2  0
 20 21  1  0
 21 13  1  0
 22 11  1  0
 23 22  2  0
 24 25  1  0
 24 22  1  0
 26 27  1  0
 26 25  1  0
 27 28  1  0
 28 24  1  0
 28 29  1  1
 29 30  1  0
 31 29  2  0
M  END
$$$$
