DFV.pdb
     RDKit          3D

 27 27  0  0  1  0  0  0  0  0999 V2000
   28.8948  -23.0584  -16.9603 N   0  0  0  0  0  0  0  0  0  0  0  0
   27.9759  -21.9749  -17.1212 C   0  0  1  0  0  0  0  0  0  0  0  0
   27.1403  -22.0997  -18.3750 C   0  0  0  0  0  0  0  0  0  0  0  0
   27.9390  -21.9037  -19.5973 C   0  0  0  0  0  0  0  0  0  0  0  0
   27.6432  -22.5207  -20.6366 O   0  0  0  0  0  0  0  0  0  0  0  0
   27.1315  -21.8645  -15.9055 C   0  0  0  0  0  0  0  0  0  0  0  0
   26.6549  -22.8696  -15.3334 O   0  0  0  0  0  0  0  0  0  0  0  0
   29.0096  -21.0412  -19.5919 O   0  0  0  0  0  0  0  0  0  0  0  0
   26.8612  -20.5810  -15.3828 N   0  0  0  0  0  0  0  0  0  0  0  0
   26.0855  -20.3292  -14.2046 C   0  0  1  0  0  0  0  0  0  0  0  0
   26.7658  -19.2542  -13.3899 C   0  0  0  0  0  0  0  0  0  0  0  0
   27.5543  -19.9762  -12.3288 C   0  0  0  0  0  0  0  0  0  0  0  0
   28.8971  -20.2069  -12.5247 C   0  0  0  0  0  0  0  0  0  0  0  0
   29.6484  -20.8724  -11.5587 C   0  0  0  0  0  0  0  0  0  0  0  0
   29.0699  -21.3143  -10.3888 C   0  0  0  0  0  0  0  0  0  0  0  0
   27.7154  -21.0782  -10.1980 C   0  0  0  0  0  0  0  0  0  0  0  0
   26.9774  -20.4166  -11.1626 C   0  0  0  0  0  0  0  0  0  0  0  0
   24.6710  -20.0628  -14.4670 C   0  0  0  0  0  0  0  0  0  0  0  0
   24.3750  -19.2021  -15.3346 O   0  0  0  0  0  0  0  0  0  0  0  0
   21.6382  -22.8457  -13.6433 C   0  0  0  0  0  0  0  0  0  0  0  0
   21.5124  -21.6445  -14.5578 C   0  0  2  0  0  0  0  0  0  0  0  0
   22.0983  -22.0398  -15.8965 C   0  0  0  0  0  0  0  0  0  0  0  0
   22.2650  -20.4487  -14.0166 C   0  0  2  0  0  0  0  0  0  0  0  0
   23.6508  -20.7447  -13.7738 N   0  0  0  0  0  0  0  0  0  0  0  0
   21.6318  -20.0343  -12.7509 C   0  0  0  0  0  0  0  0  0  0  0  0
   22.2345  -20.2355  -11.6704 O   0  0  0  0  0  0  0  0  0  0  0  0
   20.3876  -19.4258  -12.6977 O   0  0  0  0  0  0  0  0  0  0  0  0
  2  1  1  1
  2  3  1  0
  4  3  1  0
  4  8  1  0
  5  4  2  0
  6  2  1  0
  7  6  2  0
  9  6  1  0
 10  9  1  0
 10 11  1  6
 12 11  1  0
 12 13  2  0
 14 13  1  0
 15 14  2  0
 16 17  2  0
 16 15  1  0
 17 12  1  0
 18 10  1  0
 18 24  1  0
 19 18  2  0
 21 20  1  1
 21 23  1  0
 22 21  1  0
 23 24  1  1
 23 25  1  0
 25 27  1  0
 26 25  2  0
M  END
$$$$
