DFV.pdb
     RDKit          3D

 27 27  0  0  1  0  0  0  0  0999 V2000
   27.3550  -19.8350  -17.0431 N   0  0  0  0  0  0  0  0  0  0  0  0
   26.1591  -19.2540  -16.5172 C   0  0  1  0  0  0  0  0  0  0  0  0
   25.1271  -18.9747  -17.5862 C   0  0  0  0  0  0  0  0  0  0  0  0
   25.2759  -17.6280  -18.1645 C   0  0  0  0  0  0  0  0  0  0  0  0
   26.1184  -16.8416  -17.6953 O   0  0  0  0  0  0  0  0  0  0  0  0
   25.6197  -20.1288  -15.4463 C   0  0  0  0  0  0  0  0  0  0  0  0
   25.5632  -21.3723  -15.5689 O   0  0  0  0  0  0  0  0  0  0  0  0
   24.4866  -17.2386  -19.2207 O   0  0  0  0  0  0  0  0  0  0  0  0
   25.1571  -19.5321  -14.2531 N   0  0  0  0  0  0  0  0  0  0  0  0
   24.6081  -20.2527  -13.1429 C   0  0  1  0  0  0  0  0  0  0  0  0
   25.2067  -19.7146  -11.8645 C   0  0  0  0  0  0  0  0  0  0  0  0
   26.6610  -20.1061  -11.8921 C   0  0  0  0  0  0  0  0  0  0  0  0
   27.5560  -19.3314  -12.5946 C   0  0  0  0  0  0  0  0  0  0  0  0
   28.9061  -19.6720  -12.6355 C   0  0  0  0  0  0  0  0  0  0  0  0
   29.3776  -20.7870  -11.9775 C   0  0  0  0  0  0  0  0  0  0  0  0
   28.4695  -21.5637  -11.2711 C   0  0  0  0  0  0  0  0  0  0  0  0
   27.1309  -21.2177  -11.2360 C   0  0  0  0  0  0  0  0  0  0  0  0
   23.1460  -20.3074  -13.1311 C   0  0  0  0  0  0  0  0  0  0  0  0
   22.5092  -19.2468  -12.9059 O   0  0  0  0  0  0  0  0  0  0  0  0
   21.0981  -21.6234  -16.0045 C   0  0  0  0  0  0  0  0  0  0  0  0
   20.5727  -22.2712  -14.7399 C   0  0  2  0  0  0  0  0  0  0  0  0
   19.0612  -22.2454  -14.8204 C   0  0  0  0  0  0  0  0  0  0  0  0
   21.0198  -21.5248  -13.5021 C   0  0  2  0  0  0  0  0  0  0  0  0
   22.4508  -21.5110  -13.3646 N   0  0  0  0  0  0  0  0  0  0  0  0
   20.4287  -22.1837  -12.3226 C   0  0  0  0  0  0  0  0  0  0  0  0
   19.5125  -21.6045  -11.6929 O   0  0  0  0  0  0  0  0  0  0  0  0
   20.8422  -23.4273  -11.8712 O   0  0  0  0  0  0  0  0  0  0  0  0
  2  1  1  6
  2  3  1  0
  4  3  1  0
  4  8  1  0
  5  4  2  0
  6  2  1  0
  7  6  2  0
  9  6  1  0
 10  9  1  0
 10 11  1  1
 12 11  1  0
 12 13  2  0
 14 13  1  0
 15 14  2  0
 16 17  2  0
 16 15  1  0
 17 12  1  0
 18 10  1  0
 18 24  1  0
 19 18  2  0
 21 20  1  6
 21 23  1  0
 22 21  1  0
 23 24  1  1
 23 25  1  0
 25 27  1  0
 26 25  2  0
M  END
$$$$
