DFV.pdb
     RDKit          3D

 27 27  0  0  1  0  0  0  0  0999 V2000
   25.2350  -19.5256  -16.3235 N   0  0  0  0  0  0  0  0  0  0  0  0
   26.1806  -19.4276  -15.2556 C   0  0  1  0  0  0  0  0  0  0  0  0
   27.1321  -18.2648  -15.4234 C   0  0  0  0  0  0  0  0  0  0  0  0
   28.0781  -18.4761  -16.5328 C   0  0  0  0  0  0  0  0  0  0  0  0
   28.4475  -19.6288  -16.8213 O   0  0  0  0  0  0  0  0  0  0  0  0
   25.4540  -19.3624  -13.9629 C   0  0  0  0  0  0  0  0  0  0  0  0
   24.8125  -18.3478  -13.6112 O   0  0  0  0  0  0  0  0  0  0  0  0
   28.5532  -17.4033  -17.2494 O   0  0  0  0  0  0  0  0  0  0  0  0
   25.4919  -20.4849  -13.1072 N   0  0  0  0  0  0  0  0  0  0  0  0
   24.8216  -20.5674  -11.8434 C   0  0  1  0  0  0  0  0  0  0  0  0
   23.6979  -21.5716  -11.9488 C   0  0  0  0  0  0  0  0  0  0  0  0
   22.6216  -20.9038  -12.7640 C   0  0  0  0  0  0  0  0  0  0  0  0
   22.5351  -21.1656  -14.1125 C   0  0  0  0  0  0  0  0  0  0  0  0
   21.5488  -20.5607  -14.8883 C   0  0  0  0  0  0  0  0  0  0  0  0
   20.6396  -19.6897  -14.3287 C   0  0  0  0  0  0  0  0  0  0  0  0
   20.7327  -19.4303  -12.9682 C   0  0  0  0  0  0  0  0  0  0  0  0
   21.7153  -20.0354  -12.2059 C   0  0  0  0  0  0  0  0  0  0  0  0
   25.7148  -20.8001  -10.7082 C   0  0  0  0  0  0  0  0  0  0  0  0
   26.5510  -21.7359  -10.7866 O   0  0  0  0  0  0  0  0  0  0  0  0
   27.3404  -17.9260   -8.2295 C   0  0  0  0  0  0  0  0  0  0  0  0
   26.6562  -19.0734   -7.5152 C   0  0  2  0  0  0  0  0  0  0  0  0
   27.5247  -19.4436   -6.3319 C   0  0  0  0  0  0  0  0  0  0  0  0
   26.4993  -20.2788   -8.4162 C   0  0  2  0  0  0  0  0  0  0  0  0
   25.6540  -20.0046   -9.5464 N   0  0  0  0  0  0  0  0  0  0  0  0
   25.9084  -21.3756   -7.6273 C   0  0  0  0  0  0  0  0  0  0  0  0
   24.7228  -21.7179   -7.8472 O   0  0  0  0  0  0  0  0  0  0  0  0
   26.6089  -22.0543   -6.6425 O   0  0  0  0  0  0  0  0  0  0  0  0
  2  1  1  6
  2  3  1  0
  4  3  1  0
  4  8  1  0
  5  4  2  0
  6  2  1  0
  7  6  2  0
  9  6  1  0
 10  9  1  0
 10 11  1  6
 12 11  1  0
 12 13  2  0
 14 13  1  0
 15 14  2  0
 16 17  2  0
 16 15  1  0
 17 12  1  0
 18 10  1  0
 18 24  1  0
 19 18  2  0
 21 20  1  6
 21 23  1  0
 22 21  1  0
 23 24  1  6
 23 25  1  0
 25 27  1  0
 26 25  2  0
M  END
$$$$
