DFV.pdb
     RDKit          3D

 27 27  0  0  1  0  0  0  0  0999 V2000
   20.5419  -10.8917  -16.9629 N   0  0  0  0  0  0  0  0  0  0  0  0
   20.3883   -9.6976  -17.7343 C   0  0  1  0  0  0  0  0  0  0  0  0
   19.2776   -9.8011  -18.7548 C   0  0  0  0  0  0  0  0  0  0  0  0
   19.6265  -10.7020  -19.8670 C   0  0  0  0  0  0  0  0  0  0  0  0
   18.7258  -11.2710  -20.5097 O   0  0  0  0  0  0  0  0  0  0  0  0
   20.1899   -8.5459  -16.8193 C   0  0  0  0  0  0  0  0  0  0  0  0
   19.2980   -8.5394  -15.9422 O   0  0  0  0  0  0  0  0  0  0  0  0
   20.9444  -10.9150  -20.1959 O   0  0  0  0  0  0  0  0  0  0  0  0
   21.0382   -7.4246  -16.9480 N   0  0  0  0  0  0  0  0  0  0  0  0
   21.0289   -6.2923  -16.0698 C   0  0  1  0  0  0  0  0  0  0  0  0
   22.3507   -6.2254  -15.3416 C   0  0  0  0  0  0  0  0  0  0  0  0
   22.3375   -7.3637  -14.3551 C   0  0  0  0  0  0  0  0  0  0  0  0
   21.6280   -7.2333  -13.1828 C   0  0  0  0  0  0  0  0  0  0  0  0
   21.5999   -8.2714  -12.2543 C   0  0  0  0  0  0  0  0  0  0  0  0
   22.2779   -9.4487  -12.4843 C   0  0  0  0  0  0  0  0  0  0  0  0
   22.9913   -9.5732  -13.6685 C   0  0  0  0  0  0  0  0  0  0  0  0
   23.0134   -8.5372  -14.5846 C   0  0  0  0  0  0  0  0  0  0  0  0
   20.6498   -5.0370  -16.7188 C   0  0  0  0  0  0  0  0  0  0  0  0
   21.2464   -4.7051  -17.7746 O   0  0  0  0  0  0  0  0  0  0  0  0
   16.8644   -3.4554  -16.2991 C   0  0  0  0  0  0  0  0  0  0  0  0
   17.8466   -3.0393  -17.3748 C   0  0  2  0  0  0  0  0  0  0  0  0
   17.7621   -4.0711  -18.4792 C   0  0  0  0  0  0  0  0  0  0  0  0
   19.2639   -2.9868  -16.8476 C   0  0  2  0  0  0  0  0  0  0  0  0
   19.6423   -4.2067  -16.1876 N   0  0  0  0  0  0  0  0  0  0  0  0
   19.3629   -1.8699  -15.8898 C   0  0  0  0  0  0  0  0  0  0  0  0
   19.4061   -2.1185  -14.6620 O   0  0  0  0  0  0  0  0  0  0  0  0
   19.4111   -0.5427  -16.2864 O   0  0  0  0  0  0  0  0  0  0  0  0
  2  1  1  1
  2  3  1  0
  4  3  1  0
  4  8  1  0
  5  4  2  0
  6  2  1  0
  7  6  2  0
  9  6  1  0
 10  9  1  0
 10 11  1  6
 12 11  1  0
 12 13  2  0
 14 13  1  0
 15 14  2  0
 16 17  2  0
 16 15  1  0
 17 12  1  0
 18 10  1  0
 18 24  1  0
 19 18  2  0
 21 20  1  1
 21 23  1  0
 22 21  1  0
 23 24  1  1
 23 25  1  0
 25 27  1  0
 26 25  2  0
M  END
$$$$
