DFV.pdb
     RDKit          3D

 27 27  0  0  1  0  0  0  0  0999 V2000
   34.7439  -28.0578    3.2168 N   0  0  0  0  0  0  0  0  0  0  0  0
   35.0344  -27.8473    4.6008 C   0  0  1  0  0  0  0  0  0  0  0  0
   35.9235  -28.9239    5.1807 C   0  0  0  0  0  0  0  0  0  0  0  0
   35.2345  -30.2225    5.2760 C   0  0  0  0  0  0  0  0  0  0  0  0
   35.6321  -31.1865    4.5970 O   0  0  0  0  0  0  0  0  0  0  0  0
   35.6199  -26.4950    4.7779 C   0  0  0  0  0  0  0  0  0  0  0  0
   36.6410  -26.1259    4.1566 O   0  0  0  0  0  0  0  0  0  0  0  0
   34.1539  -30.3713    6.1129 O   0  0  0  0  0  0  0  0  0  0  0  0
   35.0000  -25.6010    5.6780 N   0  0  0  0  0  0  0  0  0  0  0  0
   35.4529  -24.2673    5.9415 C   0  0  1  0  0  0  0  0  0  0  0  0
   34.2944  -23.4498    6.4626 C   0  0  0  0  0  0  0  0  0  0  0  0
   33.6864  -22.7795    5.2585 C   0  0  0  0  0  0  0  0  0  0  0  0
   32.3218  -22.8161    5.0820 C   0  0  0  0  0  0  0  0  0  0  0  0
   31.7352  -22.2038    3.9768 C   0  0  0  0  0  0  0  0  0  0  0  0
   32.5016  -21.5496    3.0371 C   0  0  0  0  0  0  0  0  0  0  0  0
   33.8771  -21.5166    3.2214 C   0  0  0  0  0  0  0  0  0  0  0  0
   34.4507  -22.1273    4.3218 C   0  0  0  0  0  0  0  0  0  0  0  0
   36.6480  -24.1982    6.7827 C   0  0  0  0  0  0  0  0  0  0  0  0
   36.6755  -24.8776    7.8403 O   0  0  0  0  0  0  0  0  0  0  0  0
   40.3528  -24.1837    5.2150 C   0  0  0  0  0  0  0  0  0  0  0  0
   40.1864  -23.1584    6.3177 C   0  0  2  0  0  0  0  0  0  0  0  0
   41.4352  -23.2149    7.1715 C   0  0  0  0  0  0  0  0  0  0  0  0
   38.9784  -23.4550    7.1792 C   0  0  2  0  0  0  0  0  0  0  0  0
   37.7517  -23.3948    6.4320 N   0  0  0  0  0  0  0  0  0  0  0  0
   38.9286  -22.4620    8.2683 C   0  0  0  0  0  0  0  0  0  0  0  0
   38.0955  -21.5275    8.2069 O   0  0  0  0  0  0  0  0  0  0  0  0
   39.7686  -22.5127    9.3697 O   0  0  0  0  0  0  0  0  0  0  0  0
  2  1  1  6
  2  3  1  0
  4  3  1  0
  4  8  1  0
  5  4  2  0
  6  2  1  0
  7  6  2  0
  9  6  1  0
 10  9  1  0
 10 11  1  1
 12 11  1  0
 12 13  2  0
 14 13  1  0
 15 14  2  0
 16 17  2  0
 16 15  1  0
 17 12  1  0
 18 10  1  0
 18 24  1  0
 19 18  2  0
 21 20  1  6
 21 23  1  0
 22 21  1  0
 23 24  1  6
 23 25  1  0
 25 27  1  0
 26 25  2  0
M  END
$$$$
