DFV.pdb
     RDKit          3D

 27 27  0  0  1  0  0  0  0  0999 V2000
   43.0279   -6.6656   -8.5108 N   0  0  0  0  0  0  0  0  0  0  0  0
   41.7462   -6.2150   -8.9562 C   0  0  1  0  0  0  0  0  0  0  0  0
   41.7635   -4.7777   -9.4249 C   0  0  0  0  0  0  0  0  0  0  0  0
   42.1802   -3.8502   -8.3589 C   0  0  0  0  0  0  0  0  0  0  0  0
   41.5523   -3.8177   -7.2851 O   0  0  0  0  0  0  0  0  0  0  0  0
   41.2440   -7.1318  -10.0099 C   0  0  0  0  0  0  0  0  0  0  0  0
   41.9764   -7.5454  -10.9358 O   0  0  0  0  0  0  0  0  0  0  0  0
   43.2606   -3.0212   -8.5479 O   0  0  0  0  0  0  0  0  0  0  0  0
   39.8953   -7.5469   -9.9602 N   0  0  0  0  0  0  0  0  0  0  0  0
   39.2630   -8.3775  -10.9418 C   0  0  1  0  0  0  0  0  0  0  0  0
   38.2575   -9.2709  -10.2542 C   0  0  0  0  0  0  0  0  0  0  0  0
   37.7102  -10.1782  -11.3248 C   0  0  0  0  0  0  0  0  0  0  0  0
   38.4127  -11.3085  -11.6765 C   0  0  0  0  0  0  0  0  0  0  0  0
   37.9278  -12.1636  -12.6635 C   0  0  0  0  0  0  0  0  0  0  0  0
   36.7393  -11.9014  -13.3094 C   0  0  0  0  0  0  0  0  0  0  0  0
   36.0362  -10.7599  -12.9496 C   0  0  0  0  0  0  0  0  0  0  0  0
   36.5252   -9.9166  -11.9685 C   0  0  0  0  0  0  0  0  0  0  0  0
   38.7149   -7.6423  -12.0819 C   0  0  0  0  0  0  0  0  0  0  0  0
   37.8896   -6.7204  -11.8587 O   0  0  0  0  0  0  0  0  0  0  0  0
   40.7108   -7.2439  -15.6960 C   0  0  0  0  0  0  0  0  0  0  0  0
   39.5070   -6.4244  -15.2788 C   0  0  2  0  0  0  0  0  0  0  0  0
   40.0121   -5.3144  -14.3820 C   0  0  0  0  0  0  0  0  0  0  0  0
   38.4981   -7.2591  -14.5205 C   0  0  2  0  0  0  0  0  0  0  0  0
   39.0914   -7.9463  -13.4057 N   0  0  0  0  0  0  0  0  0  0  0  0
   37.9241   -8.2514  -15.4482 C   0  0  0  0  0  0  0  0  0  0  0  0
   38.3531   -9.4290  -15.4269 O   0  0  0  0  0  0  0  0  0  0  0  0
   36.9212   -7.9411  -16.3532 O   0  0  0  0  0  0  0  0  0  0  0  0
  2  1  1  6
  2  3  1  0
  4  3  1  0
  4  8  1  0
  5  4  2  0
  6  2  1  0
  7  6  2  0
  9  6  1  0
 10  9  1  0
 10 11  1  1
 12 11  1  0
 12 13  2  0
 14 13  1  0
 15 14  2  0
 16 17  2  0
 16 15  1  0
 17 12  1  0
 18 10  1  0
 18 24  1  0
 19 18  2  0
 21 20  1  1
 21 23  1  0
 22 21  1  0
 23 24  1  1
 23 25  1  0
 25 27  1  0
 26 25  2  0
M  END
$$$$
