DFV.pdb
     RDKit          3D

 27 27  0  0  1  0  0  0  0  0999 V2000
   26.7812  -21.8244  -12.8521 N   0  0  0  0  0  0  0  0  0  0  0  0
   25.8489  -21.0811  -12.0630 C   0  0  1  0  0  0  0  0  0  0  0  0
   24.4110  -21.4069  -12.3978 C   0  0  0  0  0  0  0  0  0  0  0  0
   23.6376  -20.2054  -12.7563 C   0  0  0  0  0  0  0  0  0  0  0  0
   23.7705  -19.6963  -13.8840 O   0  0  0  0  0  0  0  0  0  0  0  0
   26.1422  -21.2988  -10.6244 C   0  0  0  0  0  0  0  0  0  0  0  0
   25.9532  -22.4024  -10.0668 O   0  0  0  0  0  0  0  0  0  0  0  0
   22.7701  -19.6459  -11.8483 O   0  0  0  0  0  0  0  0  0  0  0  0
   26.6508  -20.2217   -9.8663 N   0  0  0  0  0  0  0  0  0  0  0  0
   27.0481  -20.3099   -8.4923 C   0  0  1  0  0  0  0  0  0  0  0  0
   28.2120  -19.3758   -8.2574 C   0  0  0  0  0  0  0  0  0  0  0  0
   28.6494  -19.6098   -6.8351 C   0  0  0  0  0  0  0  0  0  0  0  0
   28.2722  -18.7179   -5.8569 C   0  0  0  0  0  0  0  0  0  0  0  0
   28.6638  -18.9118   -4.5342 C   0  0  0  0  0  0  0  0  0  0  0  0
   29.4345  -19.9955   -4.1732 C   0  0  0  0  0  0  0  0  0  0  0  0
   29.8112  -20.8908   -5.1648 C   0  0  0  0  0  0  0  0  0  0  0  0
   29.4177  -20.6902   -6.4754 C   0  0  0  0  0  0  0  0  0  0  0  0
   25.9504  -20.1338   -7.5413 C   0  0  0  0  0  0  0  0  0  0  0  0
   25.1322  -19.1995   -7.7378 O   0  0  0  0  0  0  0  0  0  0  0  0
   24.2746  -23.2837   -5.5025 C   0  0  0  0  0  0  0  0  0  0  0  0
   23.6629  -21.9070   -5.6618 C   0  0  2  0  0  0  0  0  0  0  0  0
   23.0643  -21.8429   -7.0508 C   0  0  0  0  0  0  0  0  0  0  0  0
   24.6990  -20.8143   -5.5136 C   0  0  2  0  0  0  0  0  0  0  0  0
   25.7976  -20.9815   -6.4257 N   0  0  0  0  0  0  0  0  0  0  0  0
   25.2115  -20.8437   -4.1312 C   0  0  0  0  0  0  0  0  0  0  0  0
   26.4028  -21.1758   -3.9270 O   0  0  0  0  0  0  0  0  0  0  0  0
   24.4303  -20.5179   -3.0335 O   0  0  0  0  0  0  0  0  0  0  0  0
  2  1  1  6
  2  3  1  0
  4  3  1  0
  4  8  1  0
  5  4  2  0
  6  2  1  0
  7  6  2  0
  9  6  1  0
 10  9  1  0
 10 11  1  1
 12 11  1  0
 12 13  2  0
 14 13  1  0
 15 14  2  0
 16 17  2  0
 16 15  1  0
 17 12  1  0
 18 10  1  0
 18 24  1  0
 19 18  2  0
 21 20  1  6
 21 23  1  0
 22 21  1  0
 23 24  1  6
 23 25  1  0
 25 27  1  0
 26 25  2  0
M  END
$$$$
