DFV.pdb
     RDKit          3D

 27 27  0  0  1  0  0  0  0  0999 V2000
   21.8291   -5.8331  -19.8791 N   0  0  0  0  0  0  0  0  0  0  0  0
   22.4987   -6.8898  -19.1868 C   0  0  1  0  0  0  0  0  0  0  0  0
   23.9623   -6.9912  -19.5520 C   0  0  0  0  0  0  0  0  0  0  0  0
   24.1588   -7.4197  -20.9477 C   0  0  0  0  0  0  0  0  0  0  0  0
   23.3310   -8.1768  -21.4860 O   0  0  0  0  0  0  0  0  0  0  0  0
   22.3065   -6.7164  -17.7253 C   0  0  0  0  0  0  0  0  0  0  0  0
   23.1101   -7.1845  -16.8888 O   0  0  0  0  0  0  0  0  0  0  0  0
   25.2540   -6.9851  -21.6561 O   0  0  0  0  0  0  0  0  0  0  0  0
   21.1784   -5.9991  -17.2708 N   0  0  0  0  0  0  0  0  0  0  0  0
   20.8436   -5.7978  -15.8922 C   0  0  1  0  0  0  0  0  0  0  0  0
   20.0783   -4.5023  -15.7574 C   0  0  0  0  0  0  0  0  0  0  0  0
   21.0360   -3.4122  -16.1618 C   0  0  0  0  0  0  0  0  0  0  0  0
   21.0528   -2.9780  -17.4679 C   0  0  0  0  0  0  0  0  0  0  0  0
   21.9290   -1.9714  -17.8671 C   0  0  0  0  0  0  0  0  0  0  0  0
   22.7967   -1.3878  -16.9697 C   0  0  0  0  0  0  0  0  0  0  0  0
   22.7743   -1.8307  -15.6543 C   0  0  0  0  0  0  0  0  0  0  0  0
   21.9009   -2.8306  -15.2671 C   0  0  0  0  0  0  0  0  0  0  0  0
   20.1800   -6.9416  -15.2661 C   0  0  0  0  0  0  0  0  0  0  0  0
   19.1187   -7.3744  -15.7829 O   0  0  0  0  0  0  0  0  0  0  0  0
   22.2604   -9.9421  -13.4815 C   0  0  0  0  0  0  0  0  0  0  0  0
   21.0336   -9.5275  -12.6955 C   0  0  2  0  0  0  0  0  0  0  0  0
   20.3466  -10.7968  -12.2386 C   0  0  0  0  0  0  0  0  0  0  0  0
   20.0753   -8.7175  -13.5410 C   0  0  2  0  0  0  0  0  0  0  0  0
   20.7033   -7.5566  -14.1108 N   0  0  0  0  0  0  0  0  0  0  0  0
   18.9516   -8.2878  -12.6882 C   0  0  0  0  0  0  0  0  0  0  0  0
   18.1293   -9.1425  -12.2825 O   0  0  0  0  0  0  0  0  0  0  0  0
   18.7583   -6.9686  -12.3091 O   0  0  0  0  0  0  0  0  0  0  0  0
  2  1  1  6
  2  3  1  0
  4  3  1  0
  4  8  1  0
  5  4  2  0
  6  2  1  0
  7  6  2  0
  9  6  1  0
 10  9  1  0
 10 11  1  6
 12 11  1  0
 12 13  2  0
 14 13  1  0
 15 14  2  0
 16 17  2  0
 16 15  1  0
 17 12  1  0
 18 10  1  0
 18 24  1  0
 19 18  2  0
 21 20  1  6
 21 23  1  0
 22 21  1  0
 23 24  1  1
 23 25  1  0
 25 27  1  0
 26 25  2  0
M  END
$$$$
