DFV.pdb
     RDKit          3D

 27 27  0  0  1  0  0  0  0  0999 V2000
   27.1030  -20.0849  -19.0051 N   0  0  0  0  0  0  0  0  0  0  0  0
   26.5017  -19.1859  -18.0699 C   0  0  1  0  0  0  0  0  0  0  0  0
   25.3838  -18.3710  -18.6799 C   0  0  0  0  0  0  0  0  0  0  0  0
   25.8857  -17.3584  -19.6249 C   0  0  0  0  0  0  0  0  0  0  0  0
   27.0810  -17.0146  -19.5880 O   0  0  0  0  0  0  0  0  0  0  0  0
   26.0421  -19.9495  -16.8830 C   0  0  0  0  0  0  0  0  0  0  0  0
   25.2169  -20.8853  -16.9730 O   0  0  0  0  0  0  0  0  0  0  0  0
   25.0368  -16.7931  -20.5468 O   0  0  0  0  0  0  0  0  0  0  0  0
   26.5565  -19.6039  -15.6143 N   0  0  0  0  0  0  0  0  0  0  0  0
   26.0159  -20.0557  -14.3666 C   0  0  1  0  0  0  0  0  0  0  0  0
   26.9523  -19.6528  -13.2517 C   0  0  0  0  0  0  0  0  0  0  0  0
   26.3190  -20.1514  -11.9792 C   0  0  0  0  0  0  0  0  0  0  0  0
   25.7593  -19.2482  -11.1042 C   0  0  0  0  0  0  0  0  0  0  0  0
   25.1675  -19.6840   -9.9208 C   0  0  0  0  0  0  0  0  0  0  0  0
   25.1275  -21.0228   -9.5976 C   0  0  0  0  0  0  0  0  0  0  0  0
   25.6939  -21.9280  -10.4846 C   0  0  0  0  0  0  0  0  0  0  0  0
   26.2792  -21.4862  -11.6572 C   0  0  0  0  0  0  0  0  0  0  0  0
   24.6257  -19.6596  -14.1402 C   0  0  0  0  0  0  0  0  0  0  0  0
   24.3484  -18.4333  -14.1202 O   0  0  0  0  0  0  0  0  0  0  0  0
   21.7005  -19.6608  -16.0611 C   0  0  0  0  0  0  0  0  0  0  0  0
   21.3349  -20.4928  -14.8491 C   0  0  2  0  0  0  0  0  0  0  0  0
   19.9164  -20.1265  -14.4680 C   0  0  0  0  0  0  0  0  0  0  0  0
   22.2543  -20.2123  -13.6805 C   0  0  2  0  0  0  0  0  0  0  0  0
   23.6083  -20.6156  -13.9470 N   0  0  0  0  0  0  0  0  0  0  0  0
   21.7535  -20.9513  -12.5068 C   0  0  0  0  0  0  0  0  0  0  0  0
   22.0294  -22.1681  -12.3861 O   0  0  0  0  0  0  0  0  0  0  0  0
   20.9832  -20.3583  -11.5187 O   0  0  0  0  0  0  0  0  0  0  0  0
  2  1  1  6
  2  3  1  0
  4  3  1  0
  4  8  1  0
  5  4  2  0
  6  2  1  0
  7  6  2  0
  9  6  1  0
 10  9  1  0
 10 11  1  1
 12 11  1  0
 12 13  2  0
 14 13  1  0
 15 14  2  0
 16 17  2  0
 16 15  1  0
 17 12  1  0
 18 10  1  0
 18 24  1  0
 19 18  2  0
 21 20  1  6
 21 23  1  0
 22 21  1  0
 23 24  1  6
 23 25  1  0
 25 27  1  0
 26 25  2  0
M  END
$$$$
