DFV.pdb
     RDKit          3D

 27 27  0  0  1  0  0  0  0  0999 V2000
   23.2839  -11.1908  -18.5291 N   0  0  0  0  0  0  0  0  0  0  0  0
   22.4555  -10.0953  -18.9264 C   0  0  1  0  0  0  0  0  0  0  0  0
   21.3940  -10.4984  -19.9246 C   0  0  0  0  0  0  0  0  0  0  0  0
   21.9683  -10.8538  -21.2339 C   0  0  0  0  0  0  0  0  0  0  0  0
   21.4515  -11.7601  -21.9121 O   0  0  0  0  0  0  0  0  0  0  0  0
   21.8652   -9.4649  -17.7193 C   0  0  0  0  0  0  0  0  0  0  0  0
   21.1618  -10.1086  -16.9095 O   0  0  0  0  0  0  0  0  0  0  0  0
   23.0730  -10.1865  -21.7077 O   0  0  0  0  0  0  0  0  0  0  0  0
   22.1090   -8.0944  -17.4828 N   0  0  0  0  0  0  0  0  0  0  0  0
   21.6419   -7.3707  -16.3376 C   0  0  1  0  0  0  0  0  0  0  0  0
   22.8327   -6.8882  -15.5430 C   0  0  0  0  0  0  0  0  0  0  0  0
   23.4382   -8.1176  -14.9177 C   0  0  0  0  0  0  0  0  0  0  0  0
   24.5967   -8.6424  -15.4441 C   0  0  0  0  0  0  0  0  0  0  0  0
   25.1766   -9.7784  -14.8841 C   0  0  0  0  0  0  0  0  0  0  0  0
   24.6083  -10.4025  -13.7949 C   0  0  0  0  0  0  0  0  0  0  0  0
   23.4401   -9.8679  -13.2694 C   0  0  0  0  0  0  0  0  0  0  0  0
   22.8715   -8.7396  -13.8320 C   0  0  0  0  0  0  0  0  0  0  0  0
   20.6766   -6.3167  -16.6508 C   0  0  0  0  0  0  0  0  0  0  0  0
   21.0588   -5.3434  -17.3490 O   0  0  0  0  0  0  0  0  0  0  0  0
   17.2278   -6.7858  -18.2771 C   0  0  0  0  0  0  0  0  0  0  0  0
   17.0728   -5.9739  -17.0075 C   0  0  2  0  0  0  0  0  0  0  0  0
   16.0883   -4.8633  -17.3057 C   0  0  0  0  0  0  0  0  0  0  0  0
   18.3881   -5.3703  -16.5659 C   0  0  2  0  0  0  0  0  0  0  0  0
   19.3460   -6.3741  -16.1895 N   0  0  0  0  0  0  0  0  0  0  0  0
   18.1317   -4.4913  -15.4099 C   0  0  0  0  0  0  0  0  0  0  0  0
   18.0911   -3.2503  -15.5817 O   0  0  0  0  0  0  0  0  0  0  0  0
   17.9310   -4.9769  -14.1272 O   0  0  0  0  0  0  0  0  0  0  0  0
  2  1  1  1
  2  3  1  0
  4  3  1  0
  4  8  1  0
  5  4  2  0
  6  2  1  0
  7  6  2  0
  9  6  1  0
 10  9  1  0
 10 11  1  6
 12 11  1  0
 12 13  2  0
 14 13  1  0
 15 14  2  0
 16 17  2  0
 16 15  1  0
 17 12  1  0
 18 10  1  0
 18 24  1  0
 19 18  2  0
 21 20  1  6
 21 23  1  0
 22 21  1  0
 23 24  1  1
 23 25  1  0
 25 27  1  0
 26 25  2  0
M  END
$$$$
