DFV.pdb
     RDKit          3D

 27 27  0  0  1  0  0  0  0  0999 V2000
   20.8423  -11.5882  -19.4485 N   0  0  0  0  0  0  0  0  0  0  0  0
   21.0534  -10.1796  -19.5720 C   0  0  1  0  0  0  0  0  0  0  0  0
   20.2230   -9.5593  -20.6728 C   0  0  0  0  0  0  0  0  0  0  0  0
   20.5107  -10.1549  -21.9891 C   0  0  0  0  0  0  0  0  0  0  0  0
   21.6839  -10.2148  -22.3992 O   0  0  0  0  0  0  0  0  0  0  0  0
   20.8031   -9.5302  -18.2610 C   0  0  0  0  0  0  0  0  0  0  0  0
   19.7909   -9.7891  -17.5732 O   0  0  0  0  0  0  0  0  0  0  0  0
   19.4864  -10.6443  -22.7647 O   0  0  0  0  0  0  0  0  0  0  0  0
   21.7414   -8.5911  -17.7802 N   0  0  0  0  0  0  0  0  0  0  0  0
   21.5919   -7.8381  -16.5702 C   0  0  1  0  0  0  0  0  0  0  0  0
   22.7910   -8.0875  -15.6859 C   0  0  0  0  0  0  0  0  0  0  0  0
   22.4737   -7.4361  -14.3653 C   0  0  0  0  0  0  0  0  0  0  0  0
   21.9998   -8.2073  -13.3283 C   0  0  0  0  0  0  0  0  0  0  0  0
   21.6989   -7.6289  -12.0973 C   0  0  0  0  0  0  0  0  0  0  0  0
   21.8670   -6.2775  -11.8874 C   0  0  0  0  0  0  0  0  0  0  0  0
   22.3452   -5.5060  -12.9375 C   0  0  0  0  0  0  0  0  0  0  0  0
   22.6413   -6.0889  -14.1563 C   0  0  0  0  0  0  0  0  0  0  0  0
   21.3011   -6.4199  -16.7820 C   0  0  0  0  0  0  0  0  0  0  0  0
   22.0719   -5.7546  -17.5199 O   0  0  0  0  0  0  0  0  0  0  0  0
   18.1321   -4.8249  -18.1971 C   0  0  0  0  0  0  0  0  0  0  0  0
   18.4302   -4.2242  -16.8387 C   0  0  2  0  0  0  0  0  0  0  0  0
   18.1319   -2.7429  -16.9308 C   0  0  0  0  0  0  0  0  0  0  0  0
   19.8788   -4.4186  -16.4472 C   0  0  2  0  0  0  0  0  0  0  0  0
   20.1883   -5.7972  -16.1817 N   0  0  0  0  0  0  0  0  0  0  0  0
   20.1436   -3.6230  -15.2341 C   0  0  0  0  0  0  0  0  0  0  0  0
   19.6756   -4.0065  -14.1363 O   0  0  0  0  0  0  0  0  0  0  0  0
   20.8940   -2.4577  -15.2493 O   0  0  0  0  0  0  0  0  0  0  0  0
  2  1  1  1
  2  3  1  0
  4  3  1  0
  4  8  1  0
  5  4  2  0
  6  2  1  0
  7  6  2  0
  9  6  1  0
 10  9  1  0
 10 11  1  6
 12 11  1  0
 12 13  2  0
 14 13  1  0
 15 14  2  0
 16 17  2  0
 16 15  1  0
 17 12  1  0
 18 10  1  0
 18 24  1  0
 19 18  2  0
 21 20  1  6
 21 23  1  0
 22 21  1  0
 23 24  1  1
 23 25  1  0
 25 27  1  0
 26 25  2  0
M  END
$$$$
