DFV.pdb
     RDKit          3D

 27 27  0  0  1  0  0  0  0  0999 V2000
   24.7252  -12.4301  -19.1712 N   0  0  0  0  0  0  0  0  0  0  0  0
   23.9684  -11.2515  -19.4578 C   0  0  1  0  0  0  0  0  0  0  0  0
   22.7364  -11.5363  -20.2866 C   0  0  0  0  0  0  0  0  0  0  0  0
   23.0628  -11.7800  -21.7023 C   0  0  0  0  0  0  0  0  0  0  0  0
   23.8739  -12.6731  -22.0065 O   0  0  0  0  0  0  0  0  0  0  0  0
   23.6299  -10.5658  -18.1857 C   0  0  0  0  0  0  0  0  0  0  0  0
   23.0593  -11.1574  -17.2428 O   0  0  0  0  0  0  0  0  0  0  0  0
   22.4734  -11.0232  -22.6873 O   0  0  0  0  0  0  0  0  0  0  0  0
   23.9652   -9.2018  -18.0413 N   0  0  0  0  0  0  0  0  0  0  0  0
   23.6985   -8.4178  -16.8719 C   0  0  1  0  0  0  0  0  0  0  0  0
   24.9712   -7.7250  -16.4450 C   0  0  0  0  0  0  0  0  0  0  0  0
   25.9482   -8.8225  -16.1133 C   0  0  0  0  0  0  0  0  0  0  0  0
   27.0343   -9.0305  -16.9330 C   0  0  0  0  0  0  0  0  0  0  0  0
   27.9522  -10.0388  -16.6481 C   0  0  0  0  0  0  0  0  0  0  0  0
   27.7973  -10.8494  -15.5446 C   0  0  0  0  0  0  0  0  0  0  0  0
   26.6998  -10.6340  -14.7225 C   0  0  0  0  0  0  0  0  0  0  0  0
   25.7936   -9.6304  -15.0132 C   0  0  0  0  0  0  0  0  0  0  0  0
   22.5538   -7.5165  -17.0061 C   0  0  0  0  0  0  0  0  0  0  0  0
   22.5649   -6.6692  -17.9351 O   0  0  0  0  0  0  0  0  0  0  0  0
   19.0825   -8.2123  -17.8830 C   0  0  0  0  0  0  0  0  0  0  0  0
   19.0455   -7.4982  -16.5475 C   0  0  2  0  0  0  0  0  0  0  0  0
   17.8733   -6.5410  -16.5859 C   0  0  0  0  0  0  0  0  0  0  0  0
   20.3180   -6.7198  -16.2943 C   0  0  2  0  0  0  0  0  0  0  0  0
   21.4561   -7.5816  -16.1246 N   0  0  0  0  0  0  0  0  0  0  0  0
   20.1359   -5.9155  -15.0718 C   0  0  0  0  0  0  0  0  0  0  0  0
   19.4631   -4.8594  -15.1284 O   0  0  0  0  0  0  0  0  0  0  0  0
   20.6792   -6.2753  -13.8484 O   0  0  0  0  0  0  0  0  0  0  0  0
  2  1  1  1
  2  3  1  0
  4  3  1  0
  4  8  1  0
  5  4  2  0
  6  2  1  0
  7  6  2  0
  9  6  1  0
 10  9  1  0
 10 11  1  6
 12 11  1  0
 12 13  2  0
 14 13  1  0
 15 14  2  0
 16 17  2  0
 16 15  1  0
 17 12  1  0
 18 10  1  0
 18 24  1  0
 19 18  2  0
 21 20  1  6
 21 23  1  0
 22 21  1  0
 23 24  1  1
 23 25  1  0
 25 27  1  0
 26 25  2  0
M  END
$$$$
