CHH.pdb
     RDKit          3D

 27 28  0  0  1  0  0  0  0  0999 V2000
   11.9446  -17.2400   16.5400 N   0  0  0  0  0  0  0  0  0  0  0  0
   11.1886  -17.8038   17.6411 C   0  0  1  0  0  0  0  0  0  0  0  0
   11.9138  -19.0683   18.0869 C   0  0  0  0  0  0  0  0  0  0  0  0
   11.0519  -19.8428   19.4637 S   0  0  0  0  0  0  0  0  0  0  0  0
   11.0919  -16.8385   18.7615 C   0  0  0  0  0  0  0  0  0  0  0  0
   12.0373  -16.1056   19.1228 O   0  0  0  0  0  0  0  0  0  0  0  0
    9.8829  -16.7175   19.4768 N   0  0  0  0  0  0  0  0  0  0  0  0
    9.6495  -15.7959   20.5426 C   0  0  1  0  0  0  0  0  0  0  0  0
    8.2783  -15.2403   20.6459 C   0  0  0  0  0  0  0  0  0  0  0  0
    7.9728  -14.4581   19.4235 C   0  0  0  0  0  0  0  0  0  0  0  0
    8.3345  -13.1449   19.2126 C   0  0  0  0  0  0  0  0  0  0  0  0
    7.9046  -12.7378   18.0022 N   0  0  0  0  0  0  0  0  0  0  0  0
    7.2756  -13.7932   17.4571 C   0  0  0  0  0  0  0  0  0  0  0  0
    7.3185  -14.8210   18.3106 N   0  0  0  0  0  0  0  0  0  0  0  0
    9.9829  -16.4998   21.8048 C   0  0  0  0  0  0  0  0  0  0  0  0
    9.4554  -17.6137   22.0127 O   0  0  0  0  0  0  0  0  0  0  0  0
   10.8623  -15.9756   22.7777 N   0  0  0  0  0  0  0  0  0  0  0  0
   11.2280  -16.7593   23.9845 C   0  0  1  0  0  0  0  0  0  0  0  0
   12.4800  -16.2072   24.5771 C   0  0  0  0  0  0  0  0  0  0  0  0
   13.6916  -16.4723   23.7862 C   0  0  0  0  0  0  0  0  0  0  0  0
   13.8075  -17.5095   22.8456 C   0  0  0  0  0  0  0  0  0  0  0  0
   15.0338  -17.4747   22.3041 N   0  0  0  0  0  0  0  0  0  0  0  0
   15.7082  -16.4556   22.8612 C   0  0  0  0  0  0  0  0  0  0  0  0
   14.8893  -15.8614   23.7506 N   0  0  0  0  0  0  0  0  0  0  0  0
   10.0858  -16.6011   24.9063 C   0  0  0  0  0  0  0  0  0  0  0  0
   10.0773  -17.3046   26.1260 O   0  0  0  0  0  0  0  0  0  0  0  0
    9.1234  -15.8521   24.6231 O   0  0  0  0  0  0  0  0  0  0  0  0
  2  1  1  6
  2  5  1  0
  3  4  1  0
  3  2  1  0
  5  6  2  0
  5  7  1  0
  7  8  1  0
  8 15  1  0
  8  9  1  1
 10  9  1  0
 10 11  2  0
 12 11  1  0
 13 14  2  0
 13 12  1  0
 14 10  1  0
 15 16  2  0
 17 18  1  0
 17 15  1  0
 19 20  1  0
 18 19  1  1
 20 24  1  0
 21 20  2  0
 21 22  1  0
 22 23  1  0
 24 23  2  0
 25 26  1  0
 25 18  1  0
 27 25  2  0
M  END
$$$$
