CHH.pdb
     RDKit          3D

 27 28  0  0  1  0  0  0  0  0999 V2000
    8.2861  -15.3105   15.2641 N   0  0  0  0  0  0  0  0  0  0  0  0
    9.1103  -14.9819   16.4107 C   0  0  1  0  0  0  0  0  0  0  0  0
    8.5472  -13.7035   17.0208 C   0  0  0  0  0  0  0  0  0  0  0  0
    9.5200  -13.1991   18.4482 S   0  0  0  0  0  0  0  0  0  0  0  0
    9.0932  -16.0822   17.4033 C   0  0  0  0  0  0  0  0  0  0  0  0
    8.0842  -16.7802   17.6406 O   0  0  0  0  0  0  0  0  0  0  0  0
   10.2609  -16.3815   18.1345 N   0  0  0  0  0  0  0  0  0  0  0  0
   10.3810  -17.4331   19.0933 C   0  0  1  0  0  0  0  0  0  0  0  0
   11.3662  -18.4980   18.7847 C   0  0  0  0  0  0  0  0  0  0  0  0
   10.7724  -19.4489   17.8139 C   0  0  0  0  0  0  0  0  0  0  0  0
    9.5004  -19.9732   17.8956 C   0  0  0  0  0  0  0  0  0  0  0  0
    9.2760  -20.8010   16.8564 N   0  0  0  0  0  0  0  0  0  0  0  0
   10.4045  -20.7949   16.1262 C   0  0  0  0  0  0  0  0  0  0  0  0
   11.2978  -19.9844   16.7024 N   0  0  0  0  0  0  0  0  0  0  0  0
   10.7401  -16.8016   20.3864 C   0  0  0  0  0  0  0  0  0  0  0  0
   11.6817  -15.9797   20.3967 O   0  0  0  0  0  0  0  0  0  0  0  0
   10.0737  -17.0822   21.5996 N   0  0  0  0  0  0  0  0  0  0  0  0
   10.3987  -16.3404   22.8439 C   0  0  1  0  0  0  0  0  0  0  0  0
    9.1367  -15.9397   23.5296 C   0  0  0  0  0  0  0  0  0  0  0  0
    8.2753  -15.0478   22.7382 C   0  0  0  0  0  0  0  0  0  0  0  0
    8.7560  -14.0329   21.8939 C   0  0  0  0  0  0  0  0  0  0  0  0
    7.7154  -13.4085   21.3232 N   0  0  0  0  0  0  0  0  0  0  0  0
    6.5867  -13.9840   21.7689 C   0  0  0  0  0  0  0  0  0  0  0  0
    6.9380  -14.9681   22.6191 N   0  0  0  0  0  0  0  0  0  0  0  0
   11.1749  -17.2898   23.6658 C   0  0  0  0  0  0  0  0  0  0  0  0
   11.3829  -18.6016   23.1985 O   0  0  0  0  0  0  0  0  0  0  0  0
   11.6521  -16.9495   24.7722 O   0  0  0  0  0  0  0  0  0  0  0  0
  2  1  1  6
  2  5  1  0
  3  4  1  0
  3  2  1  0
  5  6  2  0
  5  7  1  0
  7  8  1  0
  8 15  1  0
  8  9  1  6
 10  9  1  0
 10 11  2  0
 12 11  1  0
 13 14  2  0
 13 12  1  0
 14 10  1  0
 15 16  2  0
 17 18  1  0
 17 15  1  0
 19 20  1  0
 18 19  1  1
 20 24  1  0
 21 20  2  0
 21 22  1  0
 22 23  1  0
 24 23  2  0
 25 26  1  0
 25 18  1  0
 27 25  2  0
M  END
$$$$
