CHH.pdb
     RDKit          3D

 27 28  0  0  1  0  0  0  0  0999 V2000
    7.5455  -15.0552   18.4057 N   0  0  0  0  0  0  0  0  0  0  0  0
    8.5445  -14.6150   19.3597 C   0  0  1  0  0  0  0  0  0  0  0  0
    7.9548  -13.4317   20.1183 C   0  0  0  0  0  0  0  0  0  0  0  0
    7.6745  -12.0424   19.0095 S   0  0  0  0  0  0  0  0  0  0  0  0
    8.8959  -15.7088   20.2958 C   0  0  0  0  0  0  0  0  0  0  0  0
    8.1317  -16.6615   20.5599 O   0  0  0  0  0  0  0  0  0  0  0  0
   10.1511  -15.7025   20.9379 N   0  0  0  0  0  0  0  0  0  0  0  0
   10.5596  -16.6247   21.9490 C   0  0  1  0  0  0  0  0  0  0  0  0
   11.9662  -17.0910   21.8872 C   0  0  0  0  0  0  0  0  0  0  0  0
   12.0801  -18.1735   20.8800 C   0  0  0  0  0  0  0  0  0  0  0  0
   11.0285  -18.7015   20.1624 C   0  0  0  0  0  0  0  0  0  0  0  0
   11.4748  -19.6656   19.3336 N   0  0  0  0  0  0  0  0  0  0  0  0
   12.8021  -19.7408   19.5319 C   0  0  0  0  0  0  0  0  0  0  0  0
   13.1608  -18.8462   20.4581 N   0  0  0  0  0  0  0  0  0  0  0  0
   10.3252  -15.9657   23.2568 C   0  0  0  0  0  0  0  0  0  0  0  0
   10.1063  -14.7351   23.2632 O   0  0  0  0  0  0  0  0  0  0  0  0
   10.3373  -16.6570   24.4883 N   0  0  0  0  0  0  0  0  0  0  0  0
    9.5246  -16.1897   25.6395 C   0  0  1  0  0  0  0  0  0  0  0  0
    8.0846  -16.1588   25.2535 C   0  0  0  0  0  0  0  0  0  0  0  0
    7.4689  -14.8246   25.3203 C   0  0  0  0  0  0  0  0  0  0  0  0
    8.1440  -13.6651   25.7372 C   0  0  0  0  0  0  0  0  0  0  0  0
    7.3010  -12.6236   25.6818 N   0  0  0  0  0  0  0  0  0  0  0  0
    6.1121  -13.0707   25.2456 C   0  0  0  0  0  0  0  0  0  0  0  0
    6.2271  -14.3958   25.0321 N   0  0  0  0  0  0  0  0  0  0  0  0
    9.7697  -17.1771   26.7092 C   0  0  0  0  0  0  0  0  0  0  0  0
   10.5126  -18.3385   26.4231 O   0  0  0  0  0  0  0  0  0  0  0  0
    9.3285  -17.0007   27.8676 O   0  0  0  0  0  0  0  0  0  0  0  0
  2  1  1  6
  2  5  1  0
  3  4  1  0
  3  2  1  0
  5  6  2  0
  5  7  1  0
  7  8  1  0
  8 15  1  0
  8  9  1  6
 10  9  1  0
 10 11  2  0
 12 11  1  0
 13 14  2  0
 13 12  1  0
 14 10  1  0
 15 16  2  0
 17 18  1  0
 17 15  1  0
 19 20  1  0
 18 19  1  6
 20 24  1  0
 21 20  2  0
 21 22  1  0
 22 23  1  0
 24 23  2  0
 25 26  1  0
 25 18  1  0
 27 25  2  0
M  END
$$$$
