CHH.pdb
     RDKit          3D

 27 28  0  0  1  0  0  0  0  0999 V2000
    9.9183  -14.3818   17.7200 N   0  0  0  0  0  0  0  0  0  0  0  0
    8.7506  -13.9586   18.4677 C   0  0  1  0  0  0  0  0  0  0  0  0
    7.5606  -14.0128   17.5166 C   0  0  0  0  0  0  0  0  0  0  0  0
    7.9702  -13.2424   15.9427 S   0  0  0  0  0  0  0  0  0  0  0  0
    8.5236  -14.8442   19.6341 C   0  0  0  0  0  0  0  0  0  0  0  0
    7.5218  -14.7622   20.3766 O   0  0  0  0  0  0  0  0  0  0  0  0
    9.4694  -15.8415   19.9486 N   0  0  0  0  0  0  0  0  0  0  0  0
    9.3629  -16.7580   21.0386 C   0  0  1  0  0  0  0  0  0  0  0  0
   10.3743  -17.8415   21.0907 C   0  0  0  0  0  0  0  0  0  0  0  0
   10.1009  -18.7117   22.2601 C   0  0  0  0  0  0  0  0  0  0  0  0
    8.8480  -18.9999   22.7570 C   0  0  0  0  0  0  0  0  0  0  0  0
    8.9524  -19.8194   23.8216 N   0  0  0  0  0  0  0  0  0  0  0  0
   10.2669  -20.0434   23.9904 C   0  0  0  0  0  0  0  0  0  0  0  0
   10.9512  -19.3788   23.0540 N   0  0  0  0  0  0  0  0  0  0  0  0
    9.4445  -15.9594   22.2858 C   0  0  0  0  0  0  0  0  0  0  0  0
   10.3487  -15.1011   22.3750 O   0  0  0  0  0  0  0  0  0  0  0  0
    8.5554  -16.1207   23.3712 N   0  0  0  0  0  0  0  0  0  0  0  0
    8.5229  -15.1444   24.4891 C   0  0  1  0  0  0  0  0  0  0  0  0
    7.1583  -14.5524   24.5947 C   0  0  0  0  0  0  0  0  0  0  0  0
    6.9947  -13.6045   25.7076 C   0  0  0  0  0  0  0  0  0  0  0  0
    8.0317  -13.2195   26.5739 C   0  0  0  0  0  0  0  0  0  0  0  0
    7.5508  -12.3482   27.4727 N   0  0  0  0  0  0  0  0  0  0  0  0
    6.2460  -12.1600   27.2160 C   0  0  0  0  0  0  0  0  0  0  0  0
    5.9248  -12.9214   26.1521 N   0  0  0  0  0  0  0  0  0  0  0  0
    8.8597  -15.9282   25.6940 C   0  0  0  0  0  0  0  0  0  0  0  0
    9.4252  -15.2782   26.8076 O   0  0  0  0  0  0  0  0  0  0  0  0
    8.6515  -17.1617   25.7437 O   0  0  0  0  0  0  0  0  0  0  0  0
  2  1  1  6
  2  5  1  0
  3  4  1  0
  3  2  1  0
  5  6  2  0
  5  7  1  0
  7  8  1  0
  8 15  1  0
  8  9  1  1
 10  9  1  0
 10 11  2  0
 12 11  1  0
 13 14  2  0
 13 12  1  0
 14 10  1  0
 15 16  2  0
 17 18  1  0
 17 15  1  0
 19 20  1  0
 18 19  1  1
 20 24  1  0
 21 20  2  0
 21 22  1  0
 22 23  1  0
 24 23  2  0
 25 26  1  0
 25 18  1  0
 27 25  2  0
M  END
$$$$
