CHH.pdb
     RDKit          3D

 27 28  0  0  1  0  0  0  0  0999 V2000
   10.6654  -18.9168   19.4323 N   0  0  0  0  0  0  0  0  0  0  0  0
   11.4634  -19.4551   20.5163 C   0  0  1  0  0  0  0  0  0  0  0  0
   12.7340  -18.6172   20.6016 C   0  0  0  0  0  0  0  0  0  0  0  0
   13.4284  -18.3481   18.9634 S   0  0  0  0  0  0  0  0  0  0  0  0
   10.7181  -19.3995   21.7960 C   0  0  0  0  0  0  0  0  0  0  0  0
    9.8203  -18.5637   22.0345 O   0  0  0  0  0  0  0  0  0  0  0  0
   11.0144  -20.3248   22.8178 N   0  0  0  0  0  0  0  0  0  0  0  0
   10.3127  -20.4306   24.0571 C   0  0  1  0  0  0  0  0  0  0  0  0
   10.4352  -21.7218   24.7765 C   0  0  0  0  0  0  0  0  0  0  0  0
    9.4900  -22.7020   24.1891 C   0  0  0  0  0  0  0  0  0  0  0  0
    8.5566  -22.4170   23.2158 C   0  0  0  0  0  0  0  0  0  0  0  0
    7.8618  -23.5287   22.9047 N   0  0  0  0  0  0  0  0  0  0  0  0
    8.3588  -24.5069   23.6811 C   0  0  0  0  0  0  0  0  0  0  0  0
    9.3331  -24.0083   24.4485 N   0  0  0  0  0  0  0  0  0  0  0  0
   10.8101  -19.3405   24.9311 C   0  0  0  0  0  0  0  0  0  0  0  0
   12.0009  -18.9828   24.8034 O   0  0  0  0  0  0  0  0  0  0  0  0
   10.0083  -18.6906   25.8952 N   0  0  0  0  0  0  0  0  0  0  0  0
   10.5492  -17.5845   26.7247 C   0  0  1  0  0  0  0  0  0  0  0  0
    9.5464  -16.4837   26.8032 C   0  0  0  0  0  0  0  0  0  0  0  0
    9.8613  -15.4486   27.7998 C   0  0  0  0  0  0  0  0  0  0  0  0
   10.6952  -15.6531   28.9119 C   0  0  0  0  0  0  0  0  0  0  0  0
   10.7731  -14.5145   29.6161 N   0  0  0  0  0  0  0  0  0  0  0  0
   10.0216  -13.5885   28.9985 C   0  0  0  0  0  0  0  0  0  0  0  0
    9.4790  -14.1636   27.9078 N   0  0  0  0  0  0  0  0  0  0  0  0
   10.7907  -18.1826   28.0527 C   0  0  0  0  0  0  0  0  0  0  0  0
   11.7906  -17.6428   28.8841 O   0  0  0  0  0  0  0  0  0  0  0  0
   10.1220  -19.1622   28.4535 O   0  0  0  0  0  0  0  0  0  0  0  0
  2  1  1  6
  2  5  1  0
  3  4  1  0
  3  2  1  0
  5  6  2  0
  5  7  1  0
  7  8  1  0
  8 15  1  0
  8  9  1  1
 10  9  1  0
 10 11  2  0
 12 11  1  0
 13 14  2  0
 13 12  1  0
 14 10  1  0
 15 16  2  0
 17 18  1  0
 17 15  1  0
 19 20  1  0
 18 19  1  1
 20 24  1  0
 21 20  2  0
 21 22  1  0
 22 23  1  0
 24 23  2  0
 25 26  1  0
 25 18  1  0
 27 25  2  0
M  END
$$$$
