CHH.pdb
     RDKit          3D

 27 28  0  0  1  0  0  0  0  0999 V2000
   11.0587  -17.6625   17.0228 N   0  0  0  0  0  0  0  0  0  0  0  0
   10.2281  -18.1043   18.1258 C   0  0  1  0  0  0  0  0  0  0  0  0
   10.5716  -19.5651   18.3935 C   0  0  0  0  0  0  0  0  0  0  0  0
    9.9790  -20.6123   17.0553 S   0  0  0  0  0  0  0  0  0  0  0  0
   10.4772  -17.2827   19.3338 C   0  0  0  0  0  0  0  0  0  0  0  0
   11.5449  -16.6669   19.5398 O   0  0  0  0  0  0  0  0  0  0  0  0
    9.4766  -17.1703   20.3207 N   0  0  0  0  0  0  0  0  0  0  0  0
    9.5617  -16.3473   21.4847 C   0  0  1  0  0  0  0  0  0  0  0  0
    8.3569  -15.5492   21.8179 C   0  0  0  0  0  0  0  0  0  0  0  0
    8.1456  -14.5200   20.7713 C   0  0  0  0  0  0  0  0  0  0  0  0
    7.1726  -14.5699   19.7964 C   0  0  0  0  0  0  0  0  0  0  0  0
    7.2540  -13.4798   19.0086 N   0  0  0  0  0  0  0  0  0  0  0  0
    8.2750  -12.7496   19.4891 C   0  0  0  0  0  0  0  0  0  0  0  0
    8.8062  -13.3753   20.5441 N   0  0  0  0  0  0  0  0  0  0  0  0
    9.8809  -17.2408   22.6247 C   0  0  0  0  0  0  0  0  0  0  0  0
    9.1939  -18.2748   22.7703 O   0  0  0  0  0  0  0  0  0  0  0  0
   10.9173  -16.9815   23.5485 N   0  0  0  0  0  0  0  0  0  0  0  0
   11.1938  -17.9103   24.6732 C   0  0  1  0  0  0  0  0  0  0  0  0
   12.6666  -18.0202   24.8786 C   0  0  0  0  0  0  0  0  0  0  0  0
   13.3581  -18.8404   23.8722 C   0  0  0  0  0  0  0  0  0  0  0  0
   12.7031  -19.5827   22.8752 C   0  0  0  0  0  0  0  0  0  0  0  0
   13.6190  -20.2141   22.1264 N   0  0  0  0  0  0  0  0  0  0  0  0
   14.8353  -19.9053   22.6048 C   0  0  0  0  0  0  0  0  0  0  0  0
   14.6638  -19.0786   23.6545 N   0  0  0  0  0  0  0  0  0  0  0  0
   10.5351  -17.3011   25.8456 C   0  0  0  0  0  0  0  0  0  0  0  0
   10.5417  -17.9843   27.0767 O   0  0  0  0  0  0  0  0  0  0  0  0
    9.9699  -16.1868   25.7651 O   0  0  0  0  0  0  0  0  0  0  0  0
  2  1  1  6
  2  5  1  0
  3  4  1  0
  3  2  1  0
  5  6  2  0
  5  7  1  0
  7  8  1  0
  8 15  1  0
  8  9  1  1
 10  9  1  0
 10 11  2  0
 12 11  1  0
 13 14  2  0
 13 12  1  0
 14 10  1  0
 15 16  2  0
 17 18  1  0
 17 15  1  0
 19 20  1  0
 18 19  1  1
 20 24  1  0
 21 20  2  0
 21 22  1  0
 22 23  1  0
 24 23  2  0
 25 26  1  0
 25 18  1  0
 27 25  2  0
M  END
$$$$
