CHH.pdb
     RDKit          3D

 27 28  0  0  1  0  0  0  0  0999 V2000
    7.9331  -19.2675   15.4074 N   0  0  0  0  0  0  0  0  0  0  0  0
    9.3193  -18.8656   15.5443 C   0  0  1  0  0  0  0  0  0  0  0  0
    9.4045  -17.3950   15.1523 C   0  0  0  0  0  0  0  0  0  0  0  0
    8.9820  -17.1749   13.4169 S   0  0  0  0  0  0  0  0  0  0  0  0
    9.7882  -19.0596   16.9368 C   0  0  0  0  0  0  0  0  0  0  0  0
    9.0410  -18.9679   17.9342 O   0  0  0  0  0  0  0  0  0  0  0  0
   11.1428  -19.3647   17.1816 N   0  0  0  0  0  0  0  0  0  0  0  0
   11.6732  -19.7912   18.4371 C   0  0  1  0  0  0  0  0  0  0  0  0
   12.4951  -21.0257   18.4209 C   0  0  0  0  0  0  0  0  0  0  0  0
   11.6163  -22.1967   18.1849 C   0  0  0  0  0  0  0  0  0  0  0  0
   10.5669  -22.5753   18.9942 C   0  0  0  0  0  0  0  0  0  0  0  0
    9.9755  -23.6784   18.4953 N   0  0  0  0  0  0  0  0  0  0  0  0
   10.6529  -23.9895   17.3768 C   0  0  0  0  0  0  0  0  0  0  0  0
   11.6342  -23.1004   17.1942 N   0  0  0  0  0  0  0  0  0  0  0  0
   12.4913  -18.6720   18.9645 C   0  0  0  0  0  0  0  0  0  0  0  0
   13.2579  -18.0816   18.1733 O   0  0  0  0  0  0  0  0  0  0  0  0
   12.4464  -18.2435   20.3095 N   0  0  0  0  0  0  0  0  0  0  0  0
   13.2473  -17.0825   20.7729 C   0  0  1  0  0  0  0  0  0  0  0  0
   12.3883  -16.1785   21.5904 C   0  0  0  0  0  0  0  0  0  0  0  0
   11.4497  -16.8783   22.4810 C   0  0  0  0  0  0  0  0  0  0  0  0
   11.3071  -18.2749   22.5351 C   0  0  0  0  0  0  0  0  0  0  0  0
   10.3729  -18.5849   23.4458 N   0  0  0  0  0  0  0  0  0  0  0  0
    9.9113  -17.4412   23.9773 C   0  0  0  0  0  0  0  0  0  0  0  0
   10.5673  -16.4227   23.3881 N   0  0  0  0  0  0  0  0  0  0  0  0
   14.3344  -17.6646   21.5846 C   0  0  0  0  0  0  0  0  0  0  0  0
   15.3477  -16.8269   22.0883 O   0  0  0  0  0  0  0  0  0  0  0  0
   14.3717  -18.8911   21.8335 O   0  0  0  0  0  0  0  0  0  0  0  0
  2  1  1  1
  2  5  1  0
  3  4  1  0
  3  2  1  0
  5  6  2  0
  5  7  1  0
  7  8  1  0
  8 15  1  0
  8  9  1  6
 10  9  1  0
 10 11  2  0
 12 11  1  0
 13 14  2  0
 13 12  1  0
 14 10  1  0
 15 16  2  0
 17 18  1  0
 17 15  1  0
 19 20  1  0
 18 19  1  1
 20 24  1  0
 21 20  2  0
 21 22  1  0
 22 23  1  0
 24 23  2  0
 25 26  1  0
 25 18  1  0
 27 25  2  0
M  END
$$$$
