CHH.pdb
     RDKit          3D

 27 28  0  0  1  0  0  0  0  0999 V2000
    8.4616  -14.4722   17.2637 N   0  0  0  0  0  0  0  0  0  0  0  0
    9.5425  -13.8290   17.9846 C   0  0  1  0  0  0  0  0  0  0  0  0
    8.9969  -13.4215   19.3484 C   0  0  0  0  0  0  0  0  0  0  0  0
    7.6468  -12.2456   19.1666 S   0  0  0  0  0  0  0  0  0  0  0  0
   10.6928  -14.7505   18.1400 C   0  0  0  0  0  0  0  0  0  0  0  0
   10.5843  -15.9953   18.1306 O   0  0  0  0  0  0  0  0  0  0  0  0
   11.9904  -14.2256   18.3090 N   0  0  0  0  0  0  0  0  0  0  0  0
   13.1781  -15.0055   18.4524 C   0  0  1  0  0  0  0  0  0  0  0  0
   14.2726  -14.7235   17.4920 C   0  0  0  0  0  0  0  0  0  0  0  0
   13.9743  -15.3877   16.2000 C   0  0  0  0  0  0  0  0  0  0  0  0
   13.5350  -16.6865   16.0600 C   0  0  0  0  0  0  0  0  0  0  0  0
   13.3591  -16.9749   14.7555 N   0  0  0  0  0  0  0  0  0  0  0  0
   13.6874  -15.8596   14.0810 C   0  0  0  0  0  0  0  0  0  0  0  0
   14.0551  -14.9118   14.9488 N   0  0  0  0  0  0  0  0  0  0  0  0
   13.6765  -14.7863   19.8320 C   0  0  0  0  0  0  0  0  0  0  0  0
   13.9359  -13.6152   20.1833 O   0  0  0  0  0  0  0  0  0  0  0  0
   13.8712  -15.8305   20.7628 N   0  0  0  0  0  0  0  0  0  0  0  0
   14.2879  -15.5470   22.1593 C   0  0  1  0  0  0  0  0  0  0  0  0
   13.7458  -16.6003   23.0650 C   0  0  0  0  0  0  0  0  0  0  0  0
   12.2938  -16.5193   23.2860 C   0  0  0  0  0  0  0  0  0  0  0  0
   11.4713  -15.5100   22.7580 C   0  0  0  0  0  0  0  0  0  0  0  0
   10.2064  -15.7280   23.1461 N   0  0  0  0  0  0  0  0  0  0  0  0
   10.1864  -16.8378   23.9022 C   0  0  0  0  0  0  0  0  0  0  0  0
   11.4482  -17.3034   23.9781 N   0  0  0  0  0  0  0  0  0  0  0  0
   15.7637  -15.5731   22.1329 C   0  0  0  0  0  0  0  0  0  0  0  0
   16.4830  -15.2725   23.3054 O   0  0  0  0  0  0  0  0  0  0  0  0
   16.3882  -15.8578   21.0858 O   0  0  0  0  0  0  0  0  0  0  0  0
  2  1  1  6
  2  5  1  0
  3  4  1  0
  3  2  1  0
  5  6  2  0
  5  7  1  0
  7  8  1  0
  8 15  1  0
  8  9  1  6
 10  9  1  0
 10 11  2  0
 12 11  1  0
 13 14  2  0
 13 12  1  0
 14 10  1  0
 15 16  2  0
 17 18  1  0
 17 15  1  0
 19 20  1  0
 18 19  1  1
 20 24  1  0
 21 20  2  0
 21 22  1  0
 22 23  1  0
 24 23  2  0
 25 26  1  0
 25 18  1  0
 27 25  2  0
M  END
$$$$
