CHH.pdb
     RDKit          3D

 27 28  0  0  1  0  0  0  0  0999 V2000
    7.5388  -14.4361   18.3819 N   0  0  0  0  0  0  0  0  0  0  0  0
    8.5546  -14.2389   19.3974 C   0  0  1  0  0  0  0  0  0  0  0  0
    8.2790  -12.8927   20.0571 C   0  0  0  0  0  0  0  0  0  0  0  0
    8.6087  -11.5448   18.9113 S   0  0  0  0  0  0  0  0  0  0  0  0
    8.5122  -15.3277   20.4020 C   0  0  0  0  0  0  0  0  0  0  0  0
    7.4705  -15.9506   20.6992 O   0  0  0  0  0  0  0  0  0  0  0  0
    9.6928  -15.7035   21.0750 N   0  0  0  0  0  0  0  0  0  0  0  0
    9.8233  -16.8408   21.9288 C   0  0  1  0  0  0  0  0  0  0  0  0
   11.0357  -17.6736   21.7377 C   0  0  0  0  0  0  0  0  0  0  0  0
   10.8636  -18.5207   20.5327 C   0  0  0  0  0  0  0  0  0  0  0  0
    9.6519  -18.8685   19.9755 C   0  0  0  0  0  0  0  0  0  0  0  0
    9.8495  -19.6429   18.8906 N   0  0  0  0  0  0  0  0  0  0  0  0
   11.1811  -19.7794   18.7691 C   0  0  0  0  0  0  0  0  0  0  0  0
   11.7848  -19.1063   19.7537 N   0  0  0  0  0  0  0  0  0  0  0  0
    9.7952  -16.3402   23.3247 C   0  0  0  0  0  0  0  0  0  0  0  0
   10.3892  -15.2697   23.5765 O   0  0  0  0  0  0  0  0  0  0  0  0
    9.1336  -17.0106   24.3772 N   0  0  0  0  0  0  0  0  0  0  0  0
    9.0614  -16.4211   25.7379 C   0  0  1  0  0  0  0  0  0  0  0  0
    7.6335  -16.2555   26.1344 C   0  0  0  0  0  0  0  0  0  0  0  0
    7.0942  -14.9065   25.9037 C   0  0  0  0  0  0  0  0  0  0  0  0
    7.8674  -13.8088   25.4900 C   0  0  0  0  0  0  0  0  0  0  0  0
    7.0746  -12.7336   25.3738 N   0  0  0  0  0  0  0  0  0  0  0  0
    5.8235  -13.0996   25.6969 C   0  0  0  0  0  0  0  0  0  0  0  0
    5.8496  -14.4088   26.0135 N   0  0  0  0  0  0  0  0  0  0  0  0
    9.7499  -17.3899   26.6135 C   0  0  0  0  0  0  0  0  0  0  0  0
   10.3336  -18.5405   26.0497 O   0  0  0  0  0  0  0  0  0  0  0  0
    9.8244  -17.2070   27.8499 O   0  0  0  0  0  0  0  0  0  0  0  0
  2  1  1  6
  2  5  1  0
  3  4  1  0
  3  2  1  0
  5  6  2  0
  5  7  1  0
  7  8  1  0
  8 15  1  0
  8  9  1  6
 10  9  1  0
 10 11  2  0
 12 11  1  0
 13 14  2  0
 13 12  1  0
 14 10  1  0
 15 16  2  0
 17 18  1  0
 17 15  1  0
 19 20  1  0
 18 19  1  1
 20 24  1  0
 21 20  2  0
 21 22  1  0
 22 23  1  0
 24 23  2  0
 25 26  1  0
 25 18  1  0
 27 25  2  0
M  END
$$$$
