CHH.pdb
     RDKit          3D

 27 28  0  0  1  0  0  0  0  0999 V2000
    8.7342  -19.0368   17.3314 N   0  0  0  0  0  0  0  0  0  0  0  0
    8.1676  -18.5292   18.5656 C   0  0  1  0  0  0  0  0  0  0  0  0
    7.9191  -19.7269   19.4752 C   0  0  0  0  0  0  0  0  0  0  0  0
    7.0475  -21.0278   18.5884 S   0  0  0  0  0  0  0  0  0  0  0  0
    9.0921  -17.5687   19.2128 C   0  0  0  0  0  0  0  0  0  0  0  0
   10.2885  -17.4326   18.8790 O   0  0  0  0  0  0  0  0  0  0  0  0
    8.6272  -16.7515   20.2635 N   0  0  0  0  0  0  0  0  0  0  0  0
    9.3911  -15.7320   20.9089 C   0  0  1  0  0  0  0  0  0  0  0  0
    8.6807  -14.4649   21.2081 C   0  0  0  0  0  0  0  0  0  0  0  0
    8.2039  -13.8592   19.9412 C   0  0  0  0  0  0  0  0  0  0  0  0
    8.8945  -12.9233   19.2017 C   0  0  0  0  0  0  0  0  0  0  0  0
    8.1828  -12.5836   18.1091 N   0  0  0  0  0  0  0  0  0  0  0  0
    7.0499  -13.3049   18.1646 C   0  0  0  0  0  0  0  0  0  0  0  0
    7.0661  -14.0671   19.2626 N   0  0  0  0  0  0  0  0  0  0  0  0
    9.9032  -16.3103   22.1751 C   0  0  0  0  0  0  0  0  0  0  0  0
    9.0869  -16.5158   23.0990 O   0  0  0  0  0  0  0  0  0  0  0  0
   11.2606  -16.6382   22.3863 N   0  0  0  0  0  0  0  0  0  0  0  0
   11.7037  -17.3081   23.6350 C   0  0  1  0  0  0  0  0  0  0  0  0
   12.3462  -18.6115   23.3007 C   0  0  0  0  0  0  0  0  0  0  0  0
   11.4222  -19.6202   22.7599 C   0  0  0  0  0  0  0  0  0  0  0  0
   10.2411  -20.0310   23.4003 C   0  0  0  0  0  0  0  0  0  0  0  0
    9.6332  -20.9578   22.6455 N   0  0  0  0  0  0  0  0  0  0  0  0
   10.3789  -21.1569   21.5464 C   0  0  0  0  0  0  0  0  0  0  0  0
   11.4516  -20.3462   21.6280 N   0  0  0  0  0  0  0  0  0  0  0  0
   12.6716  -16.3771   24.2480 C   0  0  0  0  0  0  0  0  0  0  0  0
   13.2219  -16.6803   25.5080 O   0  0  0  0  0  0  0  0  0  0  0  0
   13.0126  -15.3216   23.6673 O   0  0  0  0  0  0  0  0  0  0  0  0
  2  1  1  6
  2  5  1  0
  3  4  1  0
  3  2  1  0
  5  6  2  0
  5  7  1  0
  7  8  1  0
  8 15  1  0
  8  9  1  1
 10  9  1  0
 10 11  2  0
 12 11  1  0
 13 14  2  0
 13 12  1  0
 14 10  1  0
 15 16  2  0
 17 18  1  0
 17 15  1  0
 19 20  1  0
 18 19  1  6
 20 24  1  0
 21 20  2  0
 21 22  1  0
 22 23  1  0
 24 23  2  0
 25 26  1  0
 25 18  1  0
 27 25  2  0
M  END
$$$$
