CHH.pdb
     RDKit          3D

 27 28  0  0  1  0  0  0  0  0999 V2000
    6.2072  -15.5700   20.8823 N   0  0  0  0  0  0  0  0  0  0  0  0
    7.5560  -15.0762   21.0792 C   0  0  1  0  0  0  0  0  0  0  0  0
    7.4429  -13.6612   21.6345 C   0  0  0  0  0  0  0  0  0  0  0  0
    6.4613  -13.6474   23.1427 S   0  0  0  0  0  0  0  0  0  0  0  0
    8.3020  -15.9450   22.0200 C   0  0  0  0  0  0  0  0  0  0  0  0
    7.7549  -16.7979   22.7513 O   0  0  0  0  0  0  0  0  0  0  0  0
    9.7035  -15.8269   22.1182 N   0  0  0  0  0  0  0  0  0  0  0  0
   10.5328  -16.6001   22.9865 C   0  0  1  0  0  0  0  0  0  0  0  0
   11.9824  -16.6159   22.6732 C   0  0  0  0  0  0  0  0  0  0  0  0
   12.2310  -17.5509   21.5493 C   0  0  0  0  0  0  0  0  0  0  0  0
   11.3288  -18.4801   21.0778 C   0  0  0  0  0  0  0  0  0  0  0  0
   11.8684  -19.1656   20.0508 N   0  0  0  0  0  0  0  0  0  0  0  0
   13.1048  -18.6669   19.8801 C   0  0  0  0  0  0  0  0  0  0  0  0
   13.3183  -17.7006   20.7787 N   0  0  0  0  0  0  0  0  0  0  0  0
   10.3397  -16.0680   24.3574 C   0  0  0  0  0  0  0  0  0  0  0  0
   10.0836  -14.8512   24.4841 O   0  0  0  0  0  0  0  0  0  0  0  0
   10.4307  -16.8648   25.5199 N   0  0  0  0  0  0  0  0  0  0  0  0
    9.7941  -16.4419   26.7928 C   0  0  1  0  0  0  0  0  0  0  0  0
    8.3144  -16.3876   26.6164 C   0  0  0  0  0  0  0  0  0  0  0  0
    7.7737  -15.0289   26.4571 C   0  0  0  0  0  0  0  0  0  0  0  0
    8.5540  -13.8611   26.4922 C   0  0  0  0  0  0  0  0  0  0  0  0
    7.7575  -12.7967   26.3159 N   0  0  0  0  0  0  0  0  0  0  0  0
    6.4973  -13.2372   26.1692 C   0  0  0  0  0  0  0  0  0  0  0  0
    6.5214  -14.5813   26.2563 N   0  0  0  0  0  0  0  0  0  0  0  0
   10.1773  -17.4744   27.7759 C   0  0  0  0  0  0  0  0  0  0  0  0
   10.1126  -17.1795   29.1511 O   0  0  0  0  0  0  0  0  0  0  0  0
   10.5592  -18.6088   27.4088 O   0  0  0  0  0  0  0  0  0  0  0  0
  2  1  1  1
  2  5  1  0
  3  4  1  0
  3  2  1  0
  5  6  2  0
  5  7  1  0
  7  8  1  0
  8 15  1  0
  8  9  1  6
 10  9  1  0
 10 11  2  0
 12 11  1  0
 13 14  2  0
 13 12  1  0
 14 10  1  0
 15 16  2  0
 17 18  1  0
 17 15  1  0
 19 20  1  0
 18 19  1  6
 20 24  1  0
 21 20  2  0
 21 22  1  0
 22 23  1  0
 24 23  2  0
 25 26  1  0
 25 18  1  0
 27 25  2  0
M  END
$$$$
