CHH.pdb
     RDKit          3D

 27 28  0  0  1  0  0  0  0  0999 V2000
    9.1586  -22.8185   12.7054 N   0  0  0  0  0  0  0  0  0  0  0  0
    8.8312  -22.6528   14.1080 C   0  0  1  0  0  0  0  0  0  0  0  0
    9.1878  -23.9566   14.8126 C   0  0  0  0  0  0  0  0  0  0  0  0
   10.9725  -24.1265   14.9686 S   0  0  0  0  0  0  0  0  0  0  0  0
    9.5880  -21.5217   14.6947 C   0  0  0  0  0  0  0  0  0  0  0  0
   10.4010  -20.8277   14.0477 O   0  0  0  0  0  0  0  0  0  0  0  0
    9.4028  -21.1864   16.0516 N   0  0  0  0  0  0  0  0  0  0  0  0
    9.9544  -20.0369   16.6948 C   0  0  1  0  0  0  0  0  0  0  0  0
    8.9956  -18.9732   17.0809 C   0  0  0  0  0  0  0  0  0  0  0  0
    8.5622  -18.2397   15.8670 C   0  0  0  0  0  0  0  0  0  0  0  0
    9.4078  -17.6248   14.9690 C   0  0  0  0  0  0  0  0  0  0  0  0
    8.6926  -17.0520   13.9811 N   0  0  0  0  0  0  0  0  0  0  0  0
    7.4028  -17.3078   14.2600 C   0  0  0  0  0  0  0  0  0  0  0  0
    7.3287  -18.0188   15.3895 N   0  0  0  0  0  0  0  0  0  0  0  0
   10.6600  -20.5161   17.9082 C   0  0  0  0  0  0  0  0  0  0  0  0
   10.0770  -21.3483   18.6361 O   0  0  0  0  0  0  0  0  0  0  0  0
   11.9511  -20.0802   18.2792 N   0  0  0  0  0  0  0  0  0  0  0  0
   12.5745  -20.5213   19.5523 C   0  0  1  0  0  0  0  0  0  0  0  0
   14.0340  -20.2171   19.5246 C   0  0  0  0  0  0  0  0  0  0  0  0
   14.7676  -20.6629   20.7192 C   0  0  0  0  0  0  0  0  0  0  0  0
   14.5904  -21.9151   21.3312 C   0  0  0  0  0  0  0  0  0  0  0  0
   15.4069  -22.0040   22.3912 N   0  0  0  0  0  0  0  0  0  0  0  0
   16.1005  -20.8575   22.4821 C   0  0  0  0  0  0  0  0  0  0  0  0
   15.7061  -20.0600   21.4706 N   0  0  0  0  0  0  0  0  0  0  0  0
   11.8875  -19.7473   20.6052 C   0  0  0  0  0  0  0  0  0  0  0  0
   11.7200  -20.3133   21.8834 O   0  0  0  0  0  0  0  0  0  0  0  0
   11.4506  -18.5955   20.3819 O   0  0  0  0  0  0  0  0  0  0  0  0
  2  1  1  6
  2  5  1  0
  3  4  1  0
  3  2  1  0
  5  6  2  0
  5  7  1  0
  7  8  1  0
  8 15  1  0
  8  9  1  1
 10  9  1  0
 10 11  2  0
 12 11  1  0
 13 14  2  0
 13 12  1  0
 14 10  1  0
 15 16  2  0
 17 18  1  0
 17 15  1  0
 19 20  1  0
 18 19  1  6
 20 24  1  0
 21 20  2  0
 21 22  1  0
 22 23  1  0
 24 23  2  0
 25 26  1  0
 25 18  1  0
 27 25  2  0
M  END
$$$$
