CHH.pdb
     RDKit          3D

 27 28  0  0  1  0  0  0  0  0999 V2000
   12.0097  -18.8182   24.1183 N   0  0  0  0  0  0  0  0  0  0  0  0
   13.2661  -18.4712   24.7531 C   0  0  1  0  0  0  0  0  0  0  0  0
   13.0688  -17.1251   25.4406 C   0  0  0  0  0  0  0  0  0  0  0  0
   12.6929  -15.8446   24.2334 S   0  0  0  0  0  0  0  0  0  0  0  0
   13.6604  -19.5049   25.7392 C   0  0  0  0  0  0  0  0  0  0  0  0
   12.8583  -20.3241   26.2363 O   0  0  0  0  0  0  0  0  0  0  0  0
   15.0036  -19.5942   26.1584 N   0  0  0  0  0  0  0  0  0  0  0  0
   15.5214  -20.5864   27.0455 C   0  0  1  0  0  0  0  0  0  0  0  0
   16.7265  -21.3183   26.5854 C   0  0  0  0  0  0  0  0  0  0  0  0
   16.4941  -21.8325   25.2139 C   0  0  0  0  0  0  0  0  0  0  0  0
   15.6921  -22.9074   24.8964 C   0  0  0  0  0  0  0  0  0  0  0  0
   15.6979  -23.1084   23.5641 N   0  0  0  0  0  0  0  0  0  0  0  0
   16.5014  -22.1619   23.0491 C   0  0  0  0  0  0  0  0  0  0  0  0
   16.9760  -21.4000   24.0396 N   0  0  0  0  0  0  0  0  0  0  0  0
   15.8289  -19.9045   28.3262 C   0  0  0  0  0  0  0  0  0  0  0  0
   15.5781  -18.6833   28.4160 O   0  0  0  0  0  0  0  0  0  0  0  0
   16.3882  -20.5641   29.4428 N   0  0  0  0  0  0  0  0  0  0  0  0
   15.9080  -20.2851   30.8197 C   0  0  1  0  0  0  0  0  0  0  0  0
   14.4428  -20.5500   30.9001 C   0  0  0  0  0  0  0  0  0  0  0  0
   13.6000  -19.3734   30.6375 C   0  0  0  0  0  0  0  0  0  0  0  0
   14.1010  -18.0826   30.3990 C   0  0  0  0  0  0  0  0  0  0  0  0
   13.0738  -17.2445   30.1971 N   0  0  0  0  0  0  0  0  0  0  0  0
   11.9342  -17.9480   30.2971 C   0  0  0  0  0  0  0  0  0  0  0  0
   12.2652  -19.2267   30.5621 N   0  0  0  0  0  0  0  0  0  0  0  0
   16.6662  -21.2093   31.6859 C   0  0  0  0  0  0  0  0  0  0  0  0
   16.6959  -20.9885   33.0762 O   0  0  0  0  0  0  0  0  0  0  0  0
   17.2840  -22.1870   31.2064 O   0  0  0  0  0  0  0  0  0  0  0  0
  2  1  1  1
  2  5  1  0
  3  4  1  0
  3  2  1  0
  5  6  2  0
  5  7  1  0
  7  8  1  0
  8 15  1  0
  8  9  1  6
 10  9  1  0
 10 11  2  0
 12 11  1  0
 13 14  2  0
 13 12  1  0
 14 10  1  0
 15 16  2  0
 17 18  1  0
 17 15  1  0
 19 20  1  0
 18 19  1  6
 20 24  1  0
 21 20  2  0
 21 22  1  0
 22 23  1  0
 24 23  2  0
 25 26  1  0
 25 18  1  0
 27 25  2  0
M  END
$$$$
