CHH.pdb
     RDKit          3D

 27 28  0  0  1  0  0  0  0  0999 V2000
   14.3829  -13.8741   16.6706 N   0  0  0  0  0  0  0  0  0  0  0  0
   13.6488  -14.9936   17.2269 C   0  0  1  0  0  0  0  0  0  0  0  0
   14.6045  -16.1801   17.2785 C   0  0  0  0  0  0  0  0  0  0  0  0
   14.5758  -17.0867   15.7243 S   0  0  0  0  0  0  0  0  0  0  0  0
   13.1472  -14.6716   18.5838 C   0  0  0  0  0  0  0  0  0  0  0  0
   13.7353  -13.8986   19.3700 O   0  0  0  0  0  0  0  0  0  0  0  0
   11.9463  -15.2521   19.0406 N   0  0  0  0  0  0  0  0  0  0  0  0
   11.3638  -15.0278   20.3251 C   0  0  1  0  0  0  0  0  0  0  0  0
    9.9019  -15.2526   20.4349 C   0  0  0  0  0  0  0  0  0  0  0  0
    9.1837  -14.1549   19.7430 C   0  0  0  0  0  0  0  0  0  0  0  0
    9.7868  -13.0915   19.1064 C   0  0  0  0  0  0  0  0  0  0  0  0
    8.8499  -12.2779   18.5813 N   0  0  0  0  0  0  0  0  0  0  0  0
    7.6637  -12.8305   18.8882 C   0  0  0  0  0  0  0  0  0  0  0  0
    7.8675  -13.9538   19.5835 N   0  0  0  0  0  0  0  0  0  0  0  0
   12.0638  -15.9208   21.2802 C   0  0  0  0  0  0  0  0  0  0  0  0
   12.2086  -17.1212   20.9633 O   0  0  0  0  0  0  0  0  0  0  0  0
   12.5719  -15.4833   22.5232 N   0  0  0  0  0  0  0  0  0  0  0  0
   13.2431  -16.4259   23.4534 C   0  0  1  0  0  0  0  0  0  0  0  0
   14.3063  -15.7060   24.2116 C   0  0  0  0  0  0  0  0  0  0  0  0
   15.5232  -15.4301   23.4328 C   0  0  0  0  0  0  0  0  0  0  0  0
   15.7012  -15.8036   22.0901 C   0  0  0  0  0  0  0  0  0  0  0  0
   16.9145  -15.4046   21.6816 N   0  0  0  0  0  0  0  0  0  0  0  0
   17.5209  -14.7900   22.7103 C   0  0  0  0  0  0  0  0  0  0  0  0
   16.6731  -14.8124   23.7569 N   0  0  0  0  0  0  0  0  0  0  0  0
   12.1751  -16.9033   24.3539 C   0  0  0  0  0  0  0  0  0  0  0  0
   12.4724  -17.8777   25.3258 O   0  0  0  0  0  0  0  0  0  0  0  0
   11.0083  -16.4571   24.2691 O   0  0  0  0  0  0  0  0  0  0  0  0
  2  1  1  1
  2  5  1  0
  3  4  1  0
  3  2  1  0
  5  6  2  0
  5  7  1  0
  7  8  1  0
  8 15  1  0
  8  9  1  6
 10  9  1  0
 10 11  2  0
 12 11  1  0
 13 14  2  0
 13 12  1  0
 14 10  1  0
 15 16  2  0
 17 18  1  0
 17 15  1  0
 19 20  1  0
 18 19  1  1
 20 24  1  0
 21 20  2  0
 21 22  1  0
 22 23  1  0
 24 23  2  0
 25 26  1  0
 25 18  1  0
 27 25  2  0
M  END
$$$$
