CHH.pdb
     RDKit          3D

 27 28  0  0  1  0  0  0  0  0999 V2000
    9.0760  -14.6767   18.9311 N   0  0  0  0  0  0  0  0  0  0  0  0
    8.2158  -13.7993   19.7005 C   0  0  1  0  0  0  0  0  0  0  0  0
    7.0297  -13.4376   18.8140 C   0  0  0  0  0  0  0  0  0  0  0  0
    7.5932  -12.7783   17.2373 S   0  0  0  0  0  0  0  0  0  0  0  0
    7.7531  -14.4696   20.9387 C   0  0  0  0  0  0  0  0  0  0  0  0
    6.9444  -13.9543   21.7399 O   0  0  0  0  0  0  0  0  0  0  0  0
    8.2325  -15.7567   21.2571 N   0  0  0  0  0  0  0  0  0  0  0  0
    7.7624  -16.5624   22.3385 C   0  0  1  0  0  0  0  0  0  0  0  0
    7.5200  -17.9943   22.0376 C   0  0  0  0  0  0  0  0  0  0  0  0
    6.3402  -18.1153   21.1472 C   0  0  0  0  0  0  0  0  0  0  0  0
    6.3905  -18.4079   19.8013 C   0  0  0  0  0  0  0  0  0  0  0  0
    5.1438  -18.4446   19.2914 N   0  0  0  0  0  0  0  0  0  0  0  0
    4.3155  -18.1758   20.3153 C   0  0  0  0  0  0  0  0  0  0  0  0
    5.0352  -17.9793   21.4244 N   0  0  0  0  0  0  0  0  0  0  0  0
    8.7676  -16.4595   23.4243 C   0  0  0  0  0  0  0  0  0  0  0  0
    9.9583  -16.7212   23.1486 O   0  0  0  0  0  0  0  0  0  0  0  0
    8.4466  -16.0825   24.7469 N   0  0  0  0  0  0  0  0  0  0  0  0
    9.5042  -15.9079   25.7741 C   0  0  1  0  0  0  0  0  0  0  0  0
    9.7294  -14.4538   26.0159 C   0  0  0  0  0  0  0  0  0  0  0  0
    8.5071  -13.6955   26.3235 C   0  0  0  0  0  0  0  0  0  0  0  0
    7.3809  -13.6420   25.4853 C   0  0  0  0  0  0  0  0  0  0  0  0
    6.4460  -12.8688   26.0565 N   0  0  0  0  0  0  0  0  0  0  0  0
    6.9295  -12.4246   27.2282 C   0  0  0  0  0  0  0  0  0  0  0  0
    8.1697  -12.9293   27.3762 N   0  0  0  0  0  0  0  0  0  0  0  0
    8.9808  -16.5755   26.9823 C   0  0  0  0  0  0  0  0  0  0  0  0
    9.8090  -16.7110   28.1128 O   0  0  0  0  0  0  0  0  0  0  0  0
    7.8124  -17.0240   27.0201 O   0  0  0  0  0  0  0  0  0  0  0  0
  2  1  1  6
  2  5  1  0
  3  4  1  0
  3  2  1  0
  5  6  2  0
  5  7  1  0
  7  8  1  0
  8 15  1  0
  8  9  1  6
 10  9  1  0
 10 11  2  0
 12 11  1  0
 13 14  2  0
 13 12  1  0
 14 10  1  0
 15 16  2  0
 17 18  1  0
 17 15  1  0
 19 20  1  0
 18 19  1  1
 20 24  1  0
 21 20  2  0
 21 22  1  0
 22 23  1  0
 24 23  2  0
 25 26  1  0
 25 18  1  0
 27 25  2  0
M  END
$$$$
