VLR.pdb
     RDKit          3D

 27 26  0  0  1  0  0  0  0  0999 V2000
   33.5992  -12.6324  -18.4316 C   0  0  0  0  0  0  0  0  0  0  0  0
   34.1903  -11.2693  -18.2099 C   0  0  1  0  0  0  0  0  0  0  0  0
   33.2285  -10.2630  -18.8304 C   0  0  0  0  0  0  0  0  0  0  0  0
   34.3607  -10.9042  -16.7730 C   0  0  2  0  0  0  0  0  0  0  0  0
   33.0844  -11.1191  -16.0688 N   0  0  0  0  0  0  0  0  0  0  0  0
   34.7870   -9.5161  -16.5245 C   0  0  0  0  0  0  0  0  0  0  0  0
   35.9854   -9.2049  -16.8514 O   0  0  0  0  0  0  0  0  0  0  0  0
   34.3686   -5.2565  -17.9743 C   0  0  0  0  0  0  0  0  0  0  0  0
   33.1529   -5.8423  -17.2392 C   0  0  2  0  0  0  0  0  0  0  0  0
   32.0463   -4.8400  -17.4094 C   0  0  0  0  0  0  0  0  0  0  0  0
   33.5872   -6.0781  -15.8395 C   0  0  0  0  0  0  0  0  0  0  0  0
   34.5510   -7.2217  -15.6411 C   0  0  2  0  0  0  0  0  0  0  0  0
   33.9956   -8.4918  -15.9590 N   0  0  0  0  0  0  0  0  0  0  0  0
   35.2077   -7.2193  -14.3078 C   0  0  0  0  0  0  0  0  0  0  0  0
   34.8042   -7.9727  -13.3733 O   0  0  0  0  0  0  0  0  0  0  0  0
   41.0830  -10.5070   -9.8756 N   0  0  0  0  0  0  0  0  0  0  0  0
   40.0144  -10.1283   -9.0291 C   0  0  0  0  0  0  0  0  0  0  0  0
   40.1011  -10.3306   -7.7458 N   0  0  0  0  0  0  0  0  0  0  0  0
   38.8200   -9.5200   -9.5390 N   0  0  0  0  0  0  0  0  0  0  0  0
   38.6710   -9.2213  -10.9394 C   0  0  0  0  0  0  0  0  0  0  0  0
   38.0947   -7.8363  -11.0820 C   0  0  0  0  0  0  0  0  0  0  0  0
   37.4667   -7.7595  -12.4747 C   0  0  0  0  0  0  0  0  0  0  0  0
   36.8590   -6.3521  -12.6446 C   0  0  2  0  0  0  0  0  0  0  0  0
   36.3175   -6.3820  -14.0044 N   0  0  0  0  0  0  0  0  0  0  0  0
   37.9953   -5.4264  -12.4954 C   0  0  0  0  0  0  0  0  0  0  0  0
   38.4932   -4.8928  -13.4948 O   0  0  0  0  0  0  0  0  0  0  0  0
   38.4948   -5.1618  -11.2414 O   0  0  0  0  0  0  0  0  0  0  0  0
  2  1  1  1
  2  4  1  0
  2  3  1  0
  4  6  1  0
  4  5  1  1
  6  7  2  0
  9  8  1  6
 10  9  1  0
 11  9  1  0
 12 11  1  1
 13 12  1  0
 13  6  1  0
 14 12  1  0
 14 15  2  0
 16 17  1  0
 17 19  1  0
 17 18  2  0
 19 20  1  0
 21 20  1  0
 21 22  1  0
 23 22  1  6
 23 24  1  0
 23 25  1  0
 24 14  1  0
 25 26  2  0
 25 27  1  0
M  END
$$$$
