VLR.pdb
     RDKit          3D

 27 26  0  0  1  0  0  0  0  0999 V2000
   24.1757  -19.0663  -17.0870 C   0  0  0  0  0  0  0  0  0  0  0  0
   23.2867  -18.9363  -15.8831 C   0  0  1  0  0  0  0  0  0  0  0  0
   21.9314  -18.4510  -16.3836 C   0  0  0  0  0  0  0  0  0  0  0  0
   23.0647  -20.2154  -15.1473 C   0  0  2  0  0  0  0  0  0  0  0  0
   22.5650  -21.2311  -16.0905 N   0  0  0  0  0  0  0  0  0  0  0  0
   22.1164  -20.1359  -14.0227 C   0  0  0  0  0  0  0  0  0  0  0  0
   22.4815  -19.4632  -12.9961 O   0  0  0  0  0  0  0  0  0  0  0  0
   19.6590  -17.8504  -11.5934 C   0  0  0  0  0  0  0  0  0  0  0  0
   19.2432  -18.1490  -13.0424 C   0  0  2  0  0  0  0  0  0  0  0  0
   18.1372  -17.1828  -13.3610 C   0  0  0  0  0  0  0  0  0  0  0  0
   18.8641  -19.5837  -13.0791 C   0  0  0  0  0  0  0  0  0  0  0  0
   19.9893  -20.5603  -12.8413 C   0  0  2  0  0  0  0  0  0  0  0  0
   20.8371  -20.7328  -13.9700 N   0  0  0  0  0  0  0  0  0  0  0  0
   19.5375  -21.8604  -12.2806 C   0  0  0  0  0  0  0  0  0  0  0  0
   19.2676  -22.8437  -13.0318 O   0  0  0  0  0  0  0  0  0  0  0  0
   16.2259  -26.2042   -6.0481 N   0  0  0  0  0  0  0  0  0  0  0  0
   17.5942  -26.4767   -5.8130 C   0  0  0  0  0  0  0  0  0  0  0  0
   17.9463  -27.6081   -5.2735 N   0  0  0  0  0  0  0  0  0  0  0  0
   18.6248  -25.5389   -6.1519 N   0  0  0  0  0  0  0  0  0  0  0  0
   18.3131  -24.2690   -6.7544 C   0  0  0  0  0  0  0  0  0  0  0  0
   18.2506  -24.4432   -8.2498 C   0  0  0  0  0  0  0  0  0  0  0  0
   18.8692  -23.1881   -8.8678 C   0  0  0  0  0  0  0  0  0  0  0  0
   18.7359  -23.2984  -10.4005 C   0  0  2  0  0  0  0  0  0  0  0  0
   19.3843  -22.0777  -10.8827 N   0  0  0  0  0  0  0  0  0  0  0  0
   17.2852  -23.3214  -10.6556 C   0  0  0  0  0  0  0  0  0  0  0  0
   16.6115  -22.2972  -10.4868 O   0  0  0  0  0  0  0  0  0  0  0  0
   16.6895  -24.4859  -11.0814 O   0  0  0  0  0  0  0  0  0  0  0  0
  2  1  1  6
  2  4  1  0
  2  3  1  0
  4  6  1  0
  4  5  1  6
  6  7  2  0
  9  8  1  1
 10  9  1  0
 11  9  1  0
 12 11  1  6
 13 12  1  0
 13  6  1  0
 14 12  1  0
 14 15  2  0
 16 17  1  0
 17 19  1  0
 17 18  2  0
 19 20  1  0
 21 20  1  0
 21 22  1  0
 23 22  1  1
 23 24  1  0
 23 25  1  0
 24 14  1  0
 25 26  2  0
 25 27  1  0
M  END
$$$$
