VLR.pdb
     RDKit          3D

 27 26  0  0  1  0  0  0  0  0999 V2000
   29.7891  -19.2174  -11.2594 C   0  0  0  0  0  0  0  0  0  0  0  0
   29.5536  -20.6459  -11.6600 C   0  0  1  0  0  0  0  0  0  0  0  0
   30.5771  -21.4907  -10.9107 C   0  0  0  0  0  0  0  0  0  0  0  0
   28.1982  -21.1626  -11.3095 C   0  0  2  0  0  0  0  0  0  0  0  0
   28.1221  -22.5903  -11.6658 N   0  0  0  0  0  0  0  0  0  0  0  0
   27.0743  -20.4716  -11.9650 C   0  0  0  0  0  0  0  0  0  0  0  0
   26.6882  -19.3644  -11.4503 O   0  0  0  0  0  0  0  0  0  0  0  0
   26.2141  -17.3376  -14.1556 C   0  0  0  0  0  0  0  0  0  0  0  0
   26.7123  -18.5454  -14.9646 C   0  0  2  0  0  0  0  0  0  0  0  0
   27.1063  -18.0055  -16.3105 C   0  0  0  0  0  0  0  0  0  0  0  0
   25.5988  -19.5270  -14.9747 C   0  0  0  0  0  0  0  0  0  0  0  0
   25.2907  -20.1751  -13.6476 C   0  0  2  0  0  0  0  0  0  0  0  0
   26.3806  -20.9157  -13.1126 N   0  0  0  0  0  0  0  0  0  0  0  0
   24.0306  -20.9632  -13.6509 C   0  0  0  0  0  0  0  0  0  0  0  0
   24.0032  -22.1603  -14.0631 O   0  0  0  0  0  0  0  0  0  0  0  0
   20.2385  -23.4570   -8.3091 N   0  0  0  0  0  0  0  0  0  0  0  0
   19.1227  -23.8430   -9.0887 C   0  0  0  0  0  0  0  0  0  0  0  0
   18.6568  -25.0554   -8.9978 N   0  0  0  0  0  0  0  0  0  0  0  0
   18.4747  -22.9349   -9.9898 N   0  0  0  0  0  0  0  0  0  0  0  0
   19.1101  -21.7119  -10.4060 C   0  0  0  0  0  0  0  0  0  0  0  0
   19.6925  -21.9108  -11.7815 C   0  0  0  0  0  0  0  0  0  0  0  0
   20.9658  -21.0658  -11.8493 C   0  0  0  0  0  0  0  0  0  0  0  0
   21.5794  -21.2435  -13.2532 C   0  0  2  0  0  0  0  0  0  0  0  0
   22.7935  -20.4277  -13.1949 N   0  0  0  0  0  0  0  0  0  0  0  0
   20.5679  -20.7085  -14.1810 C   0  0  0  0  0  0  0  0  0  0  0  0
   20.6117  -19.5206  -14.5253 O   0  0  0  0  0  0  0  0  0  0  0  0
   19.5796  -21.5374  -14.6590 O   0  0  0  0  0  0  0  0  0  0  0  0
  2  1  1  1
  2  4  1  0
  2  3  1  0
  4  6  1  0
  4  5  1  6
  6  7  2  0
  9  8  1  1
 10  9  1  0
 11  9  1  0
 12 11  1  6
 13 12  1  0
 13  6  1  0
 14 12  1  0
 14 15  2  0
 16 17  1  0
 17 19  1  0
 17 18  2  0
 19 20  1  0
 21 20  1  0
 21 22  1  0
 23 22  1  1
 23 24  1  0
 23 25  1  0
 24 14  1  0
 25 26  2  0
 25 27  1  0
M  END
$$$$
