VLR.pdb
     RDKit          3D

 27 26  0  0  1  0  0  0  0  0999 V2000
   18.1089  -13.6675  -18.7855 C   0  0  0  0  0  0  0  0  0  0  0  0
   18.7636  -12.8775  -17.6883 C   0  0  1  0  0  0  0  0  0  0  0  0
   19.8176  -13.7814  -17.0600 C   0  0  0  0  0  0  0  0  0  0  0  0
   19.4518  -11.6385  -18.1554 C   0  0  2  0  0  0  0  0  0  0  0  0
   20.2914  -11.9663  -19.3210 N   0  0  0  0  0  0  0  0  0  0  0  0
   20.3064  -10.9794  -17.1526 C   0  0  0  0  0  0  0  0  0  0  0  0
   19.7395  -10.5681  -16.0806 O   0  0  0  0  0  0  0  0  0  0  0  0
   23.1303  -11.9743  -14.0572 C   0  0  0  0  0  0  0  0  0  0  0  0
   23.7861  -12.0368  -15.4455 C   0  0  2  0  0  0  0  0  0  0  0  0
   25.1472  -12.6365  -15.2315 C   0  0  0  0  0  0  0  0  0  0  0  0
   23.7786  -10.6488  -15.9718 C   0  0  0  0  0  0  0  0  0  0  0  0
   22.4151  -10.0651  -16.2484 C   0  0  2  0  0  0  0  0  0  0  0  0
   21.6974  -10.7585  -17.2616 N   0  0  0  0  0  0  0  0  0  0  0  0
   22.4351   -8.5980  -16.4852 C   0  0  0  0  0  0  0  0  0  0  0  0
   22.9814   -8.1044  -17.5156 O   0  0  0  0  0  0  0  0  0  0  0  0
   16.8433   -2.1294  -16.7417 N   0  0  0  0  0  0  0  0  0  0  0  0
   18.1239   -1.5527  -16.9132 C   0  0  0  0  0  0  0  0  0  0  0  0
   18.2304   -0.3173  -17.3104 N   0  0  0  0  0  0  0  0  0  0  0  0
   19.3285   -2.2890  -16.6621 N   0  0  0  0  0  0  0  0  0  0  0  0
   19.2914   -3.6702  -16.2579 C   0  0  0  0  0  0  0  0  0  0  0  0
   20.7048   -4.1755  -16.1247 C   0  0  0  0  0  0  0  0  0  0  0  0
   20.6146   -5.6820  -15.8759 C   0  0  0  0  0  0  0  0  0  0  0  0
   22.0515   -6.2333  -15.7737 C   0  0  2  0  0  0  0  0  0  0  0  0
   21.8471   -7.6700  -15.5808 N   0  0  0  0  0  0  0  0  0  0  0  0
   22.6310   -5.5686  -14.5936 C   0  0  0  0  0  0  0  0  0  0  0  0
   22.3704   -5.9867  -13.4584 O   0  0  0  0  0  0  0  0  0  0  0  0
   23.4605   -4.4847  -14.7644 O   0  0  0  0  0  0  0  0  0  0  0  0
  2  1  1  6
  2  4  1  0
  2  3  1  0
  4  6  1  0
  4  5  1  6
  6  7  2  0
  9  8  1  1
 10  9  1  0
 11  9  1  0
 12 11  1  6
 13 12  1  0
 13  6  1  0
 14 12  1  0
 14 15  2  0
 16 17  1  0
 17 19  1  0
 17 18  2  0
 19 20  1  0
 21 20  1  0
 21 22  1  0
 23 22  1  1
 23 24  1  0
 23 25  1  0
 24 14  1  0
 25 26  2  0
 25 27  1  0
M  END
$$$$
