VLR.pdb
     RDKit          3D

 27 26  0  0  1  0  0  0  0  0999 V2000
   21.7245  -22.6818  -10.0150 C   0  0  0  0  0  0  0  0  0  0  0  0
   21.1860  -22.1053   -8.7367 C   0  0  1  0  0  0  0  0  0  0  0  0
   20.1551  -23.0937   -8.2046 C   0  0  0  0  0  0  0  0  0  0  0  0
   22.2152  -21.9105   -7.6738 C   0  0  2  0  0  0  0  0  0  0  0  0
   21.5697  -21.3354   -6.4806 N   0  0  0  0  0  0  0  0  0  0  0  0
   23.3424  -21.0373   -8.0442 C   0  0  0  0  0  0  0  0  0  0  0  0
   23.0567  -19.8774   -8.5055 O   0  0  0  0  0  0  0  0  0  0  0  0
   27.0848  -18.4505   -6.9102 C   0  0  0  0  0  0  0  0  0  0  0  0
   27.1239  -19.9610   -6.6298 C   0  0  2  0  0  0  0  0  0  0  0  0
   28.3865  -20.2030   -5.8517 C   0  0  0  0  0  0  0  0  0  0  0  0
   27.0540  -20.6314   -7.9524 C   0  0  0  0  0  0  0  0  0  0  0  0
   25.7038  -20.6046   -8.6249 C   0  0  2  0  0  0  0  0  0  0  0  0
   24.7137  -21.3592   -7.9371 N   0  0  0  0  0  0  0  0  0  0  0  0
   25.7550  -20.9415  -10.0716 C   0  0  0  0  0  0  0  0  0  0  0  0
   25.7123  -22.1427  -10.4702 O   0  0  0  0  0  0  0  0  0  0  0  0
   26.2755  -18.7451  -18.1957 N   0  0  0  0  0  0  0  0  0  0  0  0
   27.1859  -18.0398  -17.3738 C   0  0  0  0  0  0  0  0  0  0  0  0
   28.3702  -17.7420  -17.8255 N   0  0  0  0  0  0  0  0  0  0  0  0
   26.8483  -17.6336  -16.0406 N   0  0  0  0  0  0  0  0  0  0  0  0
   25.5823  -17.9813  -15.4498 C   0  0  0  0  0  0  0  0  0  0  0  0
   25.7231  -19.3047  -14.7432 C   0  0  0  0  0  0  0  0  0  0  0  0
   25.6927  -19.0106  -13.2424 C   0  0  0  0  0  0  0  0  0  0  0  0
   25.9032  -20.3423  -12.4932 C   0  0  2  0  0  0  0  0  0  0  0  0
   25.8522  -19.9468  -11.0846 N   0  0  0  0  0  0  0  0  0  0  0  0
   27.2354  -20.8093  -12.9143 C   0  0  0  0  0  0  0  0  0  0  0  0
   28.2161  -20.6210  -12.1832 O   0  0  0  0  0  0  0  0  0  0  0  0
   27.3784  -21.4536  -14.1211 O   0  0  0  0  0  0  0  0  0  0  0  0
  2  1  1  6
  2  4  1  0
  2  3  1  0
  4  6  1  0
  4  5  1  1
  6  7  2  0
  9  8  1  6
 10  9  1  0
 11  9  1  0
 12 11  1  1
 13 12  1  0
 13  6  1  0
 14 12  1  0
 14 15  2  0
 16 17  1  0
 17 19  1  0
 17 18  2  0
 19 20  1  0
 21 20  1  0
 21 22  1  0
 23 22  1  6
 23 24  1  0
 23 25  1  0
 24 14  1  0
 25 26  2  0
 25 27  1  0
M  END
$$$$
