VLR.pdb
     RDKit          3D

 27 26  0  0  1  0  0  0  0  0999 V2000
   28.8978  -18.7325  -16.1147 C   0  0  0  0  0  0  0  0  0  0  0  0
   28.0231  -19.6577  -15.3175 C   0  0  1  0  0  0  0  0  0  0  0  0
   28.8220  -20.0727  -14.0878 C   0  0  0  0  0  0  0  0  0  0  0  0
   26.7520  -19.0372  -14.8420 C   0  0  2  0  0  0  0  0  0  0  0  0
   27.0565  -17.7376  -14.2181 N   0  0  0  0  0  0  0  0  0  0  0  0
   25.9879  -19.8383  -13.8700 C   0  0  0  0  0  0  0  0  0  0  0  0
   25.5107  -20.9543  -14.2784 O   0  0  0  0  0  0  0  0  0  0  0  0
   26.4690  -21.7684   -9.6961 C   0  0  0  0  0  0  0  0  0  0  0  0
   26.2852  -20.2437   -9.6442 C   0  0  2  0  0  0  0  0  0  0  0  0
   26.4280  -19.8605   -8.1982 C   0  0  0  0  0  0  0  0  0  0  0  0
   24.9582  -19.9639  -10.2478 C   0  0  0  0  0  0  0  0  0  0  0  0
   24.8399  -20.2557  -11.7233 C   0  0  2  0  0  0  0  0  0  0  0  0
   25.7320  -19.4912  -12.5248 N   0  0  0  0  0  0  0  0  0  0  0  0
   23.4441  -20.1938  -12.2300 C   0  0  0  0  0  0  0  0  0  0  0  0
   22.9482  -19.1125  -12.6642 O   0  0  0  0  0  0  0  0  0  0  0  0
   17.6949  -23.4656  -16.4251 N   0  0  0  0  0  0  0  0  0  0  0  0
   18.4945  -24.5524  -15.9992 C   0  0  0  0  0  0  0  0  0  0  0  0
   18.7313  -25.5408  -16.8129 N   0  0  0  0  0  0  0  0  0  0  0  0
   19.0633  -24.6076  -14.6839 N   0  0  0  0  0  0  0  0  0  0  0  0
   18.8403  -23.5555  -13.7269 C   0  0  0  0  0  0  0  0  0  0  0  0
   19.5698  -22.3192  -14.1852 C   0  0  0  0  0  0  0  0  0  0  0  0
   20.9863  -22.4040  -13.6143 C   0  0  0  0  0  0  0  0  0  0  0  0
   21.1982  -21.1897  -12.6872 C   0  0  2  0  0  0  0  0  0  0  0  0
   22.5910  -21.3323  -12.2597 N   0  0  0  0  0  0  0  0  0  0  0  0
   20.2346  -21.3769  -11.5887 C   0  0  0  0  0  0  0  0  0  0  0  0
   20.5587  -22.0258  -10.5860 O   0  0  0  0  0  0  0  0  0  0  0  0
   18.9779  -20.8264  -11.6872 O   0  0  0  0  0  0  0  0  0  0  0  0
  2  1  1  1
  2  4  1  0
  2  3  1  0
  4  6  1  0
  4  5  1  1
  6  7  2  0
  9  8  1  1
 10  9  1  0
 11  9  1  0
 12 11  1  1
 13 12  1  0
 13  6  1  0
 14 12  1  0
 14 15  2  0
 16 17  1  0
 17 19  1  0
 17 18  2  0
 19 20  1  0
 21 20  1  0
 21 22  1  0
 23 22  1  6
 23 24  1  0
 23 25  1  0
 24 14  1  0
 25 26  2  0
 25 27  1  0
M  END
$$$$
