VLR.pdb
     RDKit          3D

 27 26  0  0  1  0  0  0  0  0999 V2000
   22.5107  -16.4134  -20.4733 C   0  0  0  0  0  0  0  0  0  0  0  0
   22.7393  -15.5086  -19.2962 C   0  0  1  0  0  0  0  0  0  0  0  0
   24.1145  -15.8504  -18.7351 C   0  0  0  0  0  0  0  0  0  0  0  0
   22.7381  -14.0551  -19.6342 C   0  0  2  0  0  0  0  0  0  0  0  0
   23.6248  -13.8305  -20.7894 N   0  0  0  0  0  0  0  0  0  0  0  0
   23.1718  -13.1581  -18.5491 C   0  0  0  0  0  0  0  0  0  0  0  0
   22.3868  -13.0326  -17.5451 O   0  0  0  0  0  0  0  0  0  0  0  0
   26.4264  -12.9228  -15.4532 C   0  0  0  0  0  0  0  0  0  0  0  0
   26.9400  -12.5026  -16.8392 C   0  0  2  0  0  0  0  0  0  0  0  0
   28.4160  -12.2704  -16.6787 C   0  0  0  0  0  0  0  0  0  0  0  0
   26.1480  -11.3102  -17.2323 C   0  0  0  0  0  0  0  0  0  0  0  0
   24.6709  -11.5460  -17.4291 C   0  0  2  0  0  0  0  0  0  0  0  0
   24.3766  -12.4216  -18.5105 N   0  0  0  0  0  0  0  0  0  0  0  0
   23.8739  -10.2933  -17.4945 C   0  0  0  0  0  0  0  0  0  0  0  0
   23.9503   -9.5150  -18.4906 O   0  0  0  0  0  0  0  0  0  0  0  0
   15.4786   -9.0866  -16.8244 N   0  0  0  0  0  0  0  0  0  0  0  0
   16.0281   -7.7986  -17.0272 C   0  0  0  0  0  0  0  0  0  0  0  0
   15.2431   -6.7925  -17.2858 N   0  0  0  0  0  0  0  0  0  0  0  0
   17.4396   -7.5552  -16.9577 N   0  0  0  0  0  0  0  0  0  0  0  0
   18.3700   -8.6183  -16.6807 C   0  0  0  0  0  0  0  0  0  0  0  0
   19.7669   -8.0531  -16.6790 C   0  0  0  0  0  0  0  0  0  0  0  0
   20.7239   -9.2387  -16.5440 C   0  0  0  0  0  0  0  0  0  0  0  0
   22.1657   -8.6955  -16.6144 C   0  0  2  0  0  0  0  0  0  0  0  0
   22.9857   -9.8978  -16.4554 N   0  0  0  0  0  0  0  0  0  0  0  0
   22.2779   -7.7652  -15.4777 C   0  0  0  0  0  0  0  0  0  0  0  0
   22.7390   -8.1598  -14.3992 O   0  0  0  0  0  0  0  0  0  0  0  0
   21.8677   -6.4606  -15.6255 O   0  0  0  0  0  0  0  0  0  0  0  0
  2  1  1  6
  2  4  1  0
  2  3  1  0
  4  6  1  0
  4  5  1  6
  6  7  2  0
  9  8  1  1
 10  9  1  0
 11  9  1  0
 12 11  1  6
 13 12  1  0
 13  6  1  0
 14 12  1  0
 14 15  2  0
 16 17  1  0
 17 19  1  0
 17 18  2  0
 19 20  1  0
 21 20  1  0
 21 22  1  0
 23 22  1  1
 23 24  1  0
 23 25  1  0
 24 14  1  0
 25 26  2  0
 25 27  1  0
M  END
$$$$
