VLR.pdb
     RDKit          3D

 27 26  0  0  1  0  0  0  0  0999 V2000
   25.0496  -20.1647  -15.7201 C   0  0  0  0  0  0  0  0  0  0  0  0
   25.4077  -21.6057  -15.9472 C   0  0  1  0  0  0  0  0  0  0  0  0
   26.2850  -21.6533  -17.1925 C   0  0  0  0  0  0  0  0  0  0  0  0
   26.1766  -22.2271  -14.8293 C   0  0  2  0  0  0  0  0  0  0  0  0
   26.3308  -23.6680  -15.0958 N   0  0  0  0  0  0  0  0  0  0  0  0
   25.5747  -22.0754  -13.4933 C   0  0  0  0  0  0  0  0  0  0  0  0
   24.5665  -22.8156  -13.2185 O   0  0  0  0  0  0  0  0  0  0  0  0
   26.2266  -19.1971   -8.0709 C   0  0  0  0  0  0  0  0  0  0  0  0
   25.3488  -20.1482   -8.8994 C   0  0  2  0  0  0  0  0  0  0  0  0
   25.1219  -21.3568   -8.0356 C   0  0  0  0  0  0  0  0  0  0  0  0
   26.0857  -20.3995  -10.1632 C   0  0  0  0  0  0  0  0  0  0  0  0
   25.2864  -21.0524  -11.2637 C   0  0  2  0  0  0  0  0  0  0  0  0
   26.0068  -21.1883  -12.4824 N   0  0  0  0  0  0  0  0  0  0  0  0
   23.9506  -20.4353  -11.4727 C   0  0  0  0  0  0  0  0  0  0  0  0
   23.8216  -19.3366  -12.0892 O   0  0  0  0  0  0  0  0  0  0  0  0
   18.1456  -25.0010   -9.6753 N   0  0  0  0  0  0  0  0  0  0  0  0
   18.1929  -24.1745   -8.5279 C   0  0  0  0  0  0  0  0  0  0  0  0
   18.0176  -24.6943   -7.3471 N   0  0  0  0  0  0  0  0  0  0  0  0
   18.4305  -22.7631   -8.6174 N   0  0  0  0  0  0  0  0  0  0  0  0
   18.7502  -22.1358   -9.8731 C   0  0  0  0  0  0  0  0  0  0  0  0
   20.2400  -22.2096  -10.0876 C   0  0  0  0  0  0  0  0  0  0  0  0
   20.5170  -21.6254  -11.4739 C   0  0  0  0  0  0  0  0  0  0  0  0
   21.4576  -20.4155  -11.3000 C   0  0  2  0  0  0  0  0  0  0  0  0
   22.7497  -21.0349  -11.0001 N   0  0  0  0  0  0  0  0  0  0  0  0
   20.9010  -19.6609  -10.1638 C   0  0  0  0  0  0  0  0  0  0  0  0
   21.3300  -19.8597   -9.0202 O   0  0  0  0  0  0  0  0  0  0  0  0
   19.9055  -18.7378  -10.3847 O   0  0  0  0  0  0  0  0  0  0  0  0
  2  1  1  1
  2  4  1  0
  2  3  1  0
  4  6  1  0
  4  5  1  6
  6  7  2  0
  9  8  1  1
 10  9  1  0
 11  9  1  0
 12 11  1  1
 13 12  1  0
 13  6  1  0
 14 12  1  0
 14 15  2  0
 16 17  1  0
 17 19  1  0
 17 18  2  0
 19 20  1  0
 21 20  1  0
 21 22  1  0
 23 22  1  1
 23 24  1  0
 23 25  1  0
 24 14  1  0
 25 26  2  0
 25 27  1  0
M  END
$$$$
