VLR.pdb
     RDKit          3D

 27 26  0  0  1  0  0  0  0  0999 V2000
   21.9441  -15.4975  -19.3773 C   0  0  0  0  0  0  0  0  0  0  0  0
   22.2548  -14.4734  -18.3232 C   0  0  1  0  0  0  0  0  0  0  0  0
   23.6932  -14.7146  -17.8813 C   0  0  0  0  0  0  0  0  0  0  0  0
   22.1587  -13.0615  -18.7967 C   0  0  2  0  0  0  0  0  0  0  0  0
   22.8651  -12.9380  -20.0838 N   0  0  0  0  0  0  0  0  0  0  0  0
   22.7124  -12.0523  -17.8774 C   0  0  0  0  0  0  0  0  0  0  0  0
   22.1819  -11.9663  -16.7150 O   0  0  0  0  0  0  0  0  0  0  0  0
   26.5176  -11.0674  -15.6991 C   0  0  0  0  0  0  0  0  0  0  0  0
   26.5868  -10.6891  -17.1869 C   0  0  2  0  0  0  0  0  0  0  0  0
   28.0009  -10.2448  -17.4337 C   0  0  0  0  0  0  0  0  0  0  0  0
   25.5478   -9.6507  -17.4008 C   0  0  0  0  0  0  0  0  0  0  0  0
   24.1206  -10.1194  -17.2597 C   0  0  2  0  0  0  0  0  0  0  0  0
   23.7779  -11.1680  -18.1573 N   0  0  0  0  0  0  0  0  0  0  0  0
   23.1277   -9.0140  -17.2899 C   0  0  0  0  0  0  0  0  0  0  0  0
   22.6383   -8.5976  -18.3813 O   0  0  0  0  0  0  0  0  0  0  0  0
   15.5803   -8.3747  -18.7196 N   0  0  0  0  0  0  0  0  0  0  0  0
   15.8903   -7.0271  -18.4198 C   0  0  0  0  0  0  0  0  0  0  0  0
   15.0235   -6.0901  -18.6766 N   0  0  0  0  0  0  0  0  0  0  0  0
   17.1433   -6.6479  -17.8344 N   0  0  0  0  0  0  0  0  0  0  0  0
   18.1585   -7.6252  -17.5400 C   0  0  0  0  0  0  0  0  0  0  0  0
   19.3463   -6.9240  -16.9332 C   0  0  0  0  0  0  0  0  0  0  0  0
   20.4227   -7.9880  -16.7116 C   0  0  0  0  0  0  0  0  0  0  0  0
   21.6946   -7.2783  -16.2043 C   0  0  2  0  0  0  0  0  0  0  0  0
   22.6705   -8.3654  -16.1088 N   0  0  0  0  0  0  0  0  0  0  0  0
   21.3215   -6.7200  -14.8931 C   0  0  0  0  0  0  0  0  0  0  0  0
   21.5950   -7.3392  -13.8571 O   0  0  0  0  0  0  0  0  0  0  0  0
   20.6701   -5.5101  -14.8312 O   0  0  0  0  0  0  0  0  0  0  0  0
  2  1  1  6
  2  4  1  0
  2  3  1  0
  4  6  1  0
  4  5  1  6
  6  7  2  0
  9  8  1  1
 10  9  1  0
 11  9  1  0
 12 11  1  6
 13 12  1  0
 13  6  1  0
 14 12  1  0
 14 15  2  0
 16 17  1  0
 17 19  1  0
 17 18  2  0
 19 20  1  0
 21 20  1  0
 21 22  1  0
 23 22  1  1
 23 24  1  0
 23 25  1  0
 24 14  1  0
 25 26  2  0
 25 27  1  0
M  END
$$$$
