VLR.pdb
     RDKit          3D

 27 26  0  0  1  0  0  0  0  0999 V2000
   24.2808  -21.2005  -17.6769 C   0  0  0  0  0  0  0  0  0  0  0  0
   25.3363  -20.2139  -17.2657 C   0  0  1  0  0  0  0  0  0  0  0  0
   24.6197  -18.9097  -16.9368 C   0  0  0  0  0  0  0  0  0  0  0  0
   26.1134  -20.6191  -16.0579 C   0  0  2  0  0  0  0  0  0  0  0  0
   27.1133  -21.6289  -16.4472 N   0  0  0  0  0  0  0  0  0  0  0  0
   25.3124  -21.1767  -14.9543 C   0  0  0  0  0  0  0  0  0  0  0  0
   24.9348  -22.3954  -15.0634 O   0  0  0  0  0  0  0  0  0  0  0  0
   26.1106  -22.0845  -10.7569 C   0  0  0  0  0  0  0  0  0  0  0  0
   25.7416  -20.6000  -10.9033 C   0  0  2  0  0  0  0  0  0  0  0  0
   25.9569  -19.9865   -9.5485 C   0  0  0  0  0  0  0  0  0  0  0  0
   24.3437  -20.5660  -11.4015 C   0  0  0  0  0  0  0  0  0  0  0  0
   24.1322  -21.1291  -12.7852 C   0  0  2  0  0  0  0  0  0  0  0  0
   24.9213  -20.4920  -13.7823 N   0  0  0  0  0  0  0  0  0  0  0  0
   22.7015  -21.2148  -13.1782 C   0  0  0  0  0  0  0  0  0  0  0  0
   22.1234  -20.2582  -13.7736 O   0  0  0  0  0  0  0  0  0  0  0  0
   16.5402  -26.7767  -10.0817 N   0  0  0  0  0  0  0  0  0  0  0  0
   16.0473  -25.4685  -10.3001 C   0  0  0  0  0  0  0  0  0  0  0  0
   14.8841  -25.1266   -9.8255 N   0  0  0  0  0  0  0  0  0  0  0  0
   16.7924  -24.4890  -11.0362 N   0  0  0  0  0  0  0  0  0  0  0  0
   17.9667  -24.8499  -11.7868 C   0  0  0  0  0  0  0  0  0  0  0  0
   18.4370  -23.6461  -12.5615 C   0  0  0  0  0  0  0  0  0  0  0  0
   19.9381  -23.5106  -12.3007 C   0  0  0  0  0  0  0  0  0  0  0  0
   20.4555  -22.3089  -13.1174 C   0  0  2  0  0  0  0  0  0  0  0  0
   21.9043  -22.3636  -12.9144 N   0  0  0  0  0  0  0  0  0  0  0  0
   19.8293  -21.1289  -12.4963 C   0  0  0  0  0  0  0  0  0  0  0  0
   20.2288  -20.7234  -11.3975 O   0  0  0  0  0  0  0  0  0  0  0  0
   18.8019  -20.4850  -13.1461 O   0  0  0  0  0  0  0  0  0  0  0  0
  2  1  1  1
  2  4  1  0
  2  3  1  0
  4  6  1  0
  4  5  1  6
  6  7  2  0
  9  8  1  1
 10  9  1  0
 11  9  1  0
 12 11  1  1
 13 12  1  0
 13  6  1  0
 14 12  1  0
 14 15  2  0
 16 17  1  0
 17 19  1  0
 17 18  2  0
 19 20  1  0
 21 20  1  0
 21 22  1  0
 23 22  1  1
 23 24  1  0
 23 25  1  0
 24 14  1  0
 25 26  2  0
 25 27  1  0
M  END
$$$$
