VLR.pdb
     RDKit          3D

 27 26  0  0  1  0  0  0  0  0999 V2000
   27.4976  -20.3953  -17.5744 C   0  0  0  0  0  0  0  0  0  0  0  0
   27.0987  -21.0783  -16.2974 C   0  0  1  0  0  0  0  0  0  0  0  0
   27.8075  -20.3469  -15.1636 C   0  0  0  0  0  0  0  0  0  0  0  0
   25.6340  -21.0373  -16.0150 C   0  0  2  0  0  0  0  0  0  0  0  0
   25.1267  -19.6851  -16.3069 N   0  0  0  0  0  0  0  0  0  0  0  0
   25.2516  -21.3761  -14.6332 C   0  0  0  0  0  0  0  0  0  0  0  0
   25.3395  -22.6057  -14.2867 O   0  0  0  0  0  0  0  0  0  0  0  0
   24.8234  -19.3866   -8.9392 C   0  0  0  0  0  0  0  0  0  0  0  0
   24.6461  -20.5993   -9.8661 C   0  0  2  0  0  0  0  0  0  0  0  0
   25.5274  -21.6793   -9.3046 C   0  0  0  0  0  0  0  0  0  0  0  0
   25.0007  -20.1351  -11.2307 C   0  0  0  0  0  0  0  0  0  0  0  0
   24.3881  -20.9197  -12.3646 C   0  0  2  0  0  0  0  0  0  0  0  0
   24.7967  -20.4692  -13.6502 N   0  0  0  0  0  0  0  0  0  0  0  0
   22.9112  -21.0517  -12.2644 C   0  0  0  0  0  0  0  0  0  0  0  0
   22.1376  -20.1556  -12.7143 O   0  0  0  0  0  0  0  0  0  0  0  0
   18.2594  -25.2214   -6.1348 N   0  0  0  0  0  0  0  0  0  0  0  0
   17.6477  -25.4947   -7.3810 C   0  0  0  0  0  0  0  0  0  0  0  0
   16.7477  -26.4314   -7.4697 N   0  0  0  0  0  0  0  0  0  0  0  0
   17.9867  -24.7673   -8.5695 N   0  0  0  0  0  0  0  0  0  0  0  0
   18.9830  -23.7282   -8.5529 C   0  0  0  0  0  0  0  0  0  0  0  0
   19.1483  -23.1915   -9.9512 C   0  0  0  0  0  0  0  0  0  0  0  0
   20.6481  -22.9880  -10.1727 C   0  0  0  0  0  0  0  0  0  0  0  0
   20.8314  -22.1963  -11.4836 C   0  0  2  0  0  0  0  0  0  0  0  0
   22.2839  -22.1800  -11.6659 N   0  0  0  0  0  0  0  0  0  0  0  0
   20.2691  -20.8635  -11.2050 C   0  0  0  0  0  0  0  0  0  0  0  0
   19.1210  -20.5873  -11.5751 O   0  0  0  0  0  0  0  0  0  0  0  0
   21.0280  -19.9339  -10.5327 O   0  0  0  0  0  0  0  0  0  0  0  0
  2  1  1  6
  2  4  1  0
  2  3  1  0
  4  6  1  0
  4  5  1  1
  6  7  2  0
  9  8  1  1
 10  9  1  0
 11  9  1  0
 12 11  1  1
 13 12  1  0
 13  6  1  0
 14 12  1  0
 14 15  2  0
 16 17  1  0
 17 19  1  0
 17 18  2  0
 19 20  1  0
 21 20  1  0
 21 22  1  0
 23 22  1  1
 23 24  1  0
 23 25  1  0
 24 14  1  0
 25 26  2  0
 25 27  1  0
M  END
$$$$
