VYP.pdb
     RDKit          3D

 27 28  0  0  1  0  0  0  0  0999 V2000
   11.1191  -17.3033   18.4127 C   0  0  0  0  0  0  0  0  0  0  0  0
   10.7419  -16.3554   19.5019 C   0  0  1  0  0  0  0  0  0  0  0  0
    9.4353  -15.6905   19.1866 C   0  0  0  0  0  0  0  0  0  0  0  0
   10.7578  -16.9666   20.8815 C   0  0  2  0  0  0  0  0  0  0  0  0
   10.0353  -18.2004   20.9152 N   0  0  0  0  0  0  0  0  0  0  0  0
   10.3826  -16.0365   21.9530 C   0  0  0  0  0  0  0  0  0  0  0  0
   11.0481  -14.9946   22.1467 O   0  0  0  0  0  0  0  0  0  0  0  0
    5.9075  -11.0127   27.5376 O   0  0  0  0  0  0  0  0  0  0  0  0
    6.2841  -11.9966   26.6536 C   0  0  0  0  0  0  0  0  0  0  0  0
    6.0743  -13.3091   26.9730 C   0  0  0  0  0  0  0  0  0  0  0  0
    6.4525  -14.3110   26.0841 C   0  0  0  0  0  0  0  0  0  0  0  0
    7.0413  -14.0182   24.8724 C   0  0  0  0  0  0  0  0  0  0  0  0
    7.4197  -15.1122   23.9774 C   0  0  0  0  0  0  0  0  0  0  0  0
    8.9309  -15.3280   23.8821 C   0  0  2  0  0  0  0  0  0  0  0  0
    9.2615  -16.2374   22.8368 N   0  0  0  0  0  0  0  0  0  0  0  0
    9.3611  -15.7899   25.1896 C   0  0  0  0  0  0  0  0  0  0  0  0
    9.3478  -17.0838   25.3220 O   0  0  0  0  0  0  0  0  0  0  0  0
    7.2434  -12.6877   24.5708 C   0  0  0  0  0  0  0  0  0  0  0  0
    6.8750  -11.6742   25.4402 C   0  0  0  0  0  0  0  0  0  0  0  0
    9.7917  -15.0441   26.3352 N   0  0  0  0  0  0  0  0  0  0  0  0
    9.6097  -13.6543   26.5604 C   0  0  0  0  0  0  0  0  0  0  0  0
    9.7027  -13.4691   28.0643 C   0  0  0  0  0  0  0  0  0  0  0  0
   10.7795  -14.5149   28.3908 C   0  0  0  0  0  0  0  0  0  0  0  0
   10.4920  -15.6365   27.4726 C   0  0  1  0  0  0  0  0  0  0  0  0
    9.7137  -16.7314   28.0791 C   0  0  0  0  0  0  0  0  0  0  0  0
   10.2248  -17.5818   29.0419 O   0  0  0  0  0  0  0  0  0  0  0  0
    8.5303  -16.9054   27.7084 O   0  0  0  0  0  0  0  0  0  0  0  0
  2  1  1  6
  2  4  1  0
  2  3  1  0
  4  5  1  6
  6  4  1  0
  6  7  2  0
  8  9  1  0
  9 10  2  0
 10 11  1  0
 12 13  1  0
 12 11  2  0
 14 13  1  1
 14 15  1  0
 15  6  1  0
 16 20  1  0
 16 14  1  0
 17 16  2  0
 18 12  1  0
 19 18  2  0
 19  9  1  0
 20 24  1  0
 21 20  1  0
 22 21  1  0
 22 23  1  0
 24 23  1  0
 24 25  1  1
 26 25  1  0
 27 25  2  0
M  END
$$$$
