VYP.pdb
     RDKit          3D

 27 28  0  0  1  0  0  0  0  0999 V2000
   11.3491  -19.9454   20.7903 C   0  0  0  0  0  0  0  0  0  0  0  0
   11.3123  -18.8963   21.8510 C   0  0  1  0  0  0  0  0  0  0  0  0
   12.5062  -19.0199   22.7498 C   0  0  0  0  0  0  0  0  0  0  0  0
   11.1329  -17.4942   21.3227 C   0  0  2  0  0  0  0  0  0  0  0  0
   12.2595  -17.0804   20.5449 N   0  0  0  0  0  0  0  0  0  0  0  0
   10.7315  -16.5171   22.3416 C   0  0  0  0  0  0  0  0  0  0  0  0
   11.5384  -15.6438   22.7317 O   0  0  0  0  0  0  0  0  0  0  0  0
    5.8314  -11.3899   27.6332 O   0  0  0  0  0  0  0  0  0  0  0  0
    6.2588  -12.3106   26.7053 C   0  0  0  0  0  0  0  0  0  0  0  0
    6.0249  -13.6410   26.9154 C   0  0  0  0  0  0  0  0  0  0  0  0
    6.4541  -14.5793   25.9813 C   0  0  0  0  0  0  0  0  0  0  0  0
    7.1182  -14.2048   24.8327 C   0  0  0  0  0  0  0  0  0  0  0  0
    7.5476  -15.2345   23.8860 C   0  0  0  0  0  0  0  0  0  0  0  0
    9.0528  -15.5042   23.9186 C   0  0  2  0  0  0  0  0  0  0  0  0
    9.4267  -16.4832   22.9539 N   0  0  0  0  0  0  0  0  0  0  0  0
    9.3673  -15.9027   25.2788 C   0  0  0  0  0  0  0  0  0  0  0  0
    9.1068  -17.1508   25.5358 O   0  0  0  0  0  0  0  0  0  0  0  0
    7.3433  -12.8576   24.6411 C   0  0  0  0  0  0  0  0  0  0  0  0
    6.9251  -11.9065   25.5572 C   0  0  0  0  0  0  0  0  0  0  0  0
    9.9138  -15.1377   26.3607 N   0  0  0  0  0  0  0  0  0  0  0  0
    9.9966  -13.7229   26.4426 C   0  0  0  0  0  0  0  0  0  0  0  0
   10.0989  -13.4053   27.9236 C   0  0  0  0  0  0  0  0  0  0  0  0
   10.9510  -14.5959   28.3883 C   0  0  0  0  0  0  0  0  0  0  0  0
   10.4698  -15.7315   27.5744 C   0  0  1  0  0  0  0  0  0  0  0  0
    9.4872  -16.5924   28.2570 C   0  0  0  0  0  0  0  0  0  0  0  0
    8.1750  -16.7221   27.8414 O   0  0  0  0  0  0  0  0  0  0  0  0
    9.8526  -17.2411   29.2639 O   0  0  0  0  0  0  0  0  0  0  0  0
  2  1  1  6
  2  4  1  0
  2  3  1  0
  4  5  1  1
  6  4  1  0
  6  7  2  0
  8  9  1  0
  9 10  2  0
 10 11  1  0
 12 13  1  0
 12 11  2  0
 14 13  1  1
 14 15  1  0
 15  6  1  0
 16 20  1  0
 16 14  1  0
 17 16  2  0
 18 12  1  0
 19 18  2  0
 19  9  1  0
 20 24  1  0
 21 20  1  0
 22 21  1  0
 22 23  1  0
 24 23  1  0
 24 25  1  1
 26 25  1  0
 27 25  2  0
M  END
$$$$
