VYP.pdb
     RDKit          3D

 27 28  0  0  1  0  0  0  0  0999 V2000
   10.4230  -16.7803   18.2063 C   0  0  0  0  0  0  0  0  0  0  0  0
   10.0607  -15.9232   19.3731 C   0  0  1  0  0  0  0  0  0  0  0  0
    8.6476  -15.4377   19.2459 C   0  0  0  0  0  0  0  0  0  0  0  0
   10.3304  -16.5629   20.7128 C   0  0  2  0  0  0  0  0  0  0  0  0
    9.7414  -17.8632   20.7996 N   0  0  0  0  0  0  0  0  0  0  0  0
   10.0237  -15.7011   21.8606 C   0  0  0  0  0  0  0  0  0  0  0  0
   10.5826  -14.5880   21.9818 O   0  0  0  0  0  0  0  0  0  0  0  0
    6.0231  -11.0979   28.0721 O   0  0  0  0  0  0  0  0  0  0  0  0
    6.3472  -12.0280   27.1123 C   0  0  0  0  0  0  0  0  0  0  0  0
    6.1054  -13.3531   27.3458 C   0  0  0  0  0  0  0  0  0  0  0  0
    6.4305  -14.3009   26.3799 C   0  0  0  0  0  0  0  0  0  0  0  0
    6.9975  -13.9412   25.1758 C   0  0  0  0  0  0  0  0  0  0  0  0
    7.3198  -14.9804   24.1975 C   0  0  0  0  0  0  0  0  0  0  0  0
    8.8221  -15.2014   24.0140 C   0  0  2  0  0  0  0  0  0  0  0  0
    9.0910  -16.0509   22.9027 N   0  0  0  0  0  0  0  0  0  0  0  0
    9.3122  -15.7415   25.2694 C   0  0  0  0  0  0  0  0  0  0  0  0
    9.2495  -17.0384   25.3452 O   0  0  0  0  0  0  0  0  0  0  0  0
    7.2326  -12.5992   24.9615 C   0  0  0  0  0  0  0  0  0  0  0  0
    6.9172  -11.6389   25.9086 C   0  0  0  0  0  0  0  0  0  0  0  0
    9.8463  -15.0687   26.4167 N   0  0  0  0  0  0  0  0  0  0  0  0
    9.7600  -13.6809   26.7031 C   0  0  0  0  0  0  0  0  0  0  0  0
    9.9428  -13.5624   28.2055 C   0  0  0  0  0  0  0  0  0  0  0  0
   10.9706  -14.6810   28.4332 C   0  0  0  0  0  0  0  0  0  0  0  0
   10.5687  -15.7461   27.4911 C   0  0  1  0  0  0  0  0  0  0  0  0
    9.7591  -16.8178   28.0981 C   0  0  0  0  0  0  0  0  0  0  0  0
   10.2902  -17.7991   28.9144 O   0  0  0  0  0  0  0  0  0  0  0  0
    8.5286  -16.8465   27.8672 O   0  0  0  0  0  0  0  0  0  0  0  0
  2  1  1  6
  2  4  1  0
  2  3  1  0
  4  5  1  1
  6  4  1  0
  6  7  2  0
  8  9  1  0
  9 10  2  0
 10 11  1  0
 12 13  1  0
 12 11  2  0
 14 13  1  1
 14 15  1  0
 15  6  1  0
 16 20  1  0
 16 14  1  0
 17 16  2  0
 18 12  1  0
 19 18  2  0
 19  9  1  0
 20 24  1  0
 21 20  1  0
 22 21  1  0
 22 23  1  0
 24 23  1  0
 24 25  1  1
 26 25  1  0
 27 25  2  0
M  END
$$$$
