VYP.pdb
     RDKit          3D

 27 28  0  0  1  0  0  0  0  0999 V2000
    6.9971  -19.1043   19.4488 C   0  0  0  0  0  0  0  0  0  0  0  0
    6.6984  -18.6298   20.8319 C   0  0  1  0  0  0  0  0  0  0  0  0
    6.6544  -19.7879   21.7834 C   0  0  0  0  0  0  0  0  0  0  0  0
    7.6071  -17.5250   21.3123 C   0  0  2  0  0  0  0  0  0  0  0  0
    8.9807  -17.9203   21.2655 N   0  0  0  0  0  0  0  0  0  0  0  0
    7.2081  -16.9373   22.5966 C   0  0  0  0  0  0  0  0  0  0  0  0
    6.0484  -16.4948   22.7555 O   0  0  0  0  0  0  0  0  0  0  0  0
    6.2710  -22.3530   26.4020 O   0  0  0  0  0  0  0  0  0  0  0  0
    6.7273  -21.0565   26.3575 C   0  0  0  0  0  0  0  0  0  0  0  0
    7.8357  -20.7548   25.6162 C   0  0  0  0  0  0  0  0  0  0  0  0
    8.3041  -19.4452   25.5659 C   0  0  0  0  0  0  0  0  0  0  0  0
    7.6769  -18.4259   26.2501 C   0  0  0  0  0  0  0  0  0  0  0  0
    8.2142  -17.0677   26.1619 C   0  0  0  0  0  0  0  0  0  0  0  0
    7.6641  -16.2692   24.9792 C   0  0  2  0  0  0  0  0  0  0  0  0
    8.0836  -16.8248   23.7364 N   0  0  0  0  0  0  0  0  0  0  0  0
    8.1121  -14.9009   25.1660 C   0  0  0  0  0  0  0  0  0  0  0  0
    9.3730  -14.7189   24.9041 O   0  0  0  0  0  0  0  0  0  0  0  0
    6.5607  -18.7528   26.9914 C   0  0  0  0  0  0  0  0  0  0  0  0
    6.0769  -20.0492   27.0558 C   0  0  0  0  0  0  0  0  0  0  0  0
    7.3828  -13.7414   25.5878 N   0  0  0  0  0  0  0  0  0  0  0  0
    5.9713  -13.5938   25.6249 C   0  0  0  0  0  0  0  0  0  0  0  0
    5.7030  -12.4889   26.6309 C   0  0  0  0  0  0  0  0  0  0  0  0
    6.9073  -11.5785   26.3472 C   0  0  0  0  0  0  0  0  0  0  0  0
    8.0159  -12.5138   26.0644 C   0  0  1  0  0  0  0  0  0  0  0  0
    8.9003  -12.7704   27.2153 C   0  0  0  0  0  0  0  0  0  0  0  0
    8.8461  -13.9277   27.9697 O   0  0  0  0  0  0  0  0  0  0  0  0
    9.7448  -11.9011   27.5306 O   0  0  0  0  0  0  0  0  0  0  0  0
  2  1  1  6
  2  4  1  0
  2  3  1  0
  4  5  1  1
  6  4  1  0
  6  7  2  0
  8  9  1  0
  9 10  2  0
 10 11  1  0
 12 13  1  0
 12 11  2  0
 14 13  1  1
 14 15  1  0
 15  6  1  0
 16 20  1  0
 16 14  1  0
 17 16  2  0
 18 12  1  0
 19 18  2  0
 19  9  1  0
 20 24  1  0
 21 20  1  0
 22 21  1  0
 22 23  1  0
 24 23  1  0
 24 25  1  1
 26 25  1  0
 27 25  2  0
M  END
$$$$
