VYP.pdb
     RDKit          3D

 27 28  0  0  1  0  0  0  0  0999 V2000
    7.7231  -20.4069   22.0860 C   0  0  0  0  0  0  0  0  0  0  0  0
    6.2791  -20.7615   21.9581 C   0  0  1  0  0  0  0  0  0  0  0  0
    6.1142  -22.2476   21.8446 C   0  0  0  0  0  0  0  0  0  0  0  0
    5.4026  -20.1662   23.0325 C   0  0  2  0  0  0  0  0  0  0  0  0
    4.0314  -20.5287   22.8492 N   0  0  0  0  0  0  0  0  0  0  0  0
    5.6070  -18.7282   23.2436 C   0  0  0  0  0  0  0  0  0  0  0  0
    5.0634  -17.8949   22.4847 O   0  0  0  0  0  0  0  0  0  0  0  0
    7.4159  -10.8343   26.6602 O   0  0  0  0  0  0  0  0  0  0  0  0
    7.3348  -12.1935   26.4667 C   0  0  0  0  0  0  0  0  0  0  0  0
    6.1095  -12.7976   26.4178 C   0  0  0  0  0  0  0  0  0  0  0  0
    6.0185  -14.1726   26.2223 C   0  0  0  0  0  0  0  0  0  0  0  0
    7.1419  -14.9579   26.0741 C   0  0  0  0  0  0  0  0  0  0  0  0
    6.9866  -16.3988   25.8725 C   0  0  0  0  0  0  0  0  0  0  0  0
    6.6815  -16.7831   24.4239 C   0  0  2  0  0  0  0  0  0  0  0  0
    6.4189  -18.1777   24.3001 N   0  0  0  0  0  0  0  0  0  0  0  0
    7.8228  -16.3513   23.6373 C   0  0  0  0  0  0  0  0  0  0  0  0
    8.8835  -17.0862   23.8004 O   0  0  0  0  0  0  0  0  0  0  0  0
    8.3675  -14.3275   26.1268 C   0  0  0  0  0  0  0  0  0  0  0  0
    8.4817  -12.9607   26.3203 C   0  0  0  0  0  0  0  0  0  0  0  0
    7.9507  -15.2550   22.7229 N   0  0  0  0  0  0  0  0  0  0  0  0
    7.0404  -14.1786   22.5561 C   0  0  0  0  0  0  0  0  0  0  0  0
    7.8504  -13.0507   21.9426 C   0  0  0  0  0  0  0  0  0  0  0  0
    8.7862  -13.8638   21.0355 C   0  0  0  0  0  0  0  0  0  0  0  0
    9.0816  -15.0849   21.8135 C   0  0  1  0  0  0  0  0  0  0  0  0
   10.3626  -15.0440   22.5416 C   0  0  0  0  0  0  0  0  0  0  0  0
   11.5933  -15.0698   21.9123 O   0  0  0  0  0  0  0  0  0  0  0  0
   10.3420  -14.9827   23.7922 O   0  0  0  0  0  0  0  0  0  0  0  0
  2  1  1  1
  2  4  1  0
  2  3  1  0
  4  5  1  6
  6  4  1  0
  6  7  2  0
  8  9  1  0
  9 10  2  0
 10 11  1  0
 12 13  1  0
 12 11  2  0
 14 13  1  1
 14 15  1  0
 15  6  1  0
 16 20  1  0
 16 14  1  0
 17 16  2  0
 18 12  1  0
 19 18  2  0
 19  9  1  0
 20 24  1  0
 21 20  1  0
 22 21  1  0
 22 23  1  0
 24 23  1  0
 24 25  1  1
 26 25  1  0
 27 25  2  0
M  END
$$$$
