VYP.pdb
     RDKit          3D

 27 28  0  0  1  0  0  0  0  0999 V2000
    8.5483  -12.9843   19.1369 C   0  0  0  0  0  0  0  0  0  0  0  0
    8.5067  -14.4727   19.0367 C   0  0  1  0  0  0  0  0  0  0  0  0
    8.7538  -14.9083   17.6233 C   0  0  0  0  0  0  0  0  0  0  0  0
    9.4045  -15.1803   20.0217 C   0  0  2  0  0  0  0  0  0  0  0  0
    9.2282  -16.5984   19.9648 N   0  0  0  0  0  0  0  0  0  0  0  0
    9.3470  -14.6352   21.3832 C   0  0  0  0  0  0  0  0  0  0  0  0
    9.8089  -13.4983   21.6283 O   0  0  0  0  0  0  0  0  0  0  0  0
    5.9527  -11.3994   28.5973 O   0  0  0  0  0  0  0  0  0  0  0  0
    6.2384  -12.1742   27.4977 C   0  0  0  0  0  0  0  0  0  0  0  0
    6.0208  -13.5230   27.5459 C   0  0  0  0  0  0  0  0  0  0  0  0
    6.3073  -14.3144   26.4374 C   0  0  0  0  0  0  0  0  0  0  0  0
    6.8114  -13.7739   25.2737 C   0  0  0  0  0  0  0  0  0  0  0  0
    7.0954  -14.6540   24.1398 C   0  0  0  0  0  0  0  0  0  0  0  0
    8.5798  -14.7237   23.7779 C   0  0  2  0  0  0  0  0  0  0  0  0
    8.7771  -15.3358   22.5069 N   0  0  0  0  0  0  0  0  0  0  0  0
    9.2306  -15.4429   24.8582 C   0  0  0  0  0  0  0  0  0  0  0  0
    9.3131  -16.7260   24.6624 O   0  0  0  0  0  0  0  0  0  0  0  0
    7.0230  -12.4113   25.2472 C   0  0  0  0  0  0  0  0  0  0  0  0
    6.7451  -11.6045   26.3384 C   0  0  0  0  0  0  0  0  0  0  0  0
    9.7866  -14.9562   26.0863 N   0  0  0  0  0  0  0  0  0  0  0  0
    9.6420  -13.6506   26.6247 C   0  0  0  0  0  0  0  0  0  0  0  0
    9.8951  -13.7935   28.1148 C   0  0  0  0  0  0  0  0  0  0  0  0
   10.9908  -14.8698   28.0922 C   0  0  0  0  0  0  0  0  0  0  0  0
   10.5978  -15.7704   26.9885 C   0  0  1  0  0  0  0  0  0  0  0  0
    9.8781  -16.9814   27.4221 C   0  0  0  0  0  0  0  0  0  0  0  0
   10.4851  -18.0216   28.1011 O   0  0  0  0  0  0  0  0  0  0  0  0
    8.6562  -17.0791   27.1661 O   0  0  0  0  0  0  0  0  0  0  0  0
  2  1  1  6
  2  4  1  0
  2  3  1  0
  4  5  1  1
  6  4  1  0
  6  7  2  0
  8  9  1  0
  9 10  2  0
 10 11  1  0
 12 13  1  0
 12 11  2  0
 14 13  1  1
 14 15  1  0
 15  6  1  0
 16 20  1  0
 16 14  1  0
 17 16  2  0
 18 12  1  0
 19 18  2  0
 19  9  1  0
 20 24  1  0
 21 20  1  0
 22 21  1  0
 22 23  1  0
 24 23  1  0
 24 25  1  1
 26 25  1  0
 27 25  2  0
M  END
$$$$
