VYP.pdb
     RDKit          3D

 27 28  0  0  1  0  0  0  0  0999 V2000
    8.1481  -21.1205   24.9990 C   0  0  0  0  0  0  0  0  0  0  0  0
    7.8672  -19.7891   24.3859 C   0  0  1  0  0  0  0  0  0  0  0  0
    8.0523  -19.8491   22.8991 C   0  0  0  0  0  0  0  0  0  0  0  0
    6.5330  -19.2020   24.7760 C   0  0  2  0  0  0  0  0  0  0  0  0
    5.4633  -20.1140   24.5128 N   0  0  0  0  0  0  0  0  0  0  0  0
    6.2965  -17.8517   24.2517 C   0  0  0  0  0  0  0  0  0  0  0  0
    5.4597  -17.6660   23.3400 O   0  0  0  0  0  0  0  0  0  0  0  0
   10.9793  -15.1870   29.0244 O   0  0  0  0  0  0  0  0  0  0  0  0
   10.0238  -14.9827   28.0567 C   0  0  0  0  0  0  0  0  0  0  0  0
    9.9176  -13.7577   27.4591 C   0  0  0  0  0  0  0  0  0  0  0  0
    8.9533  -13.5426   26.4789 C   0  0  0  0  0  0  0  0  0  0  0  0
    8.0877  -14.5405   26.0845 C   0  0  0  0  0  0  0  0  0  0  0  0
    7.0926  -14.2574   25.0498 C   0  0  0  0  0  0  0  0  0  0  0  0
    6.8864  -15.4126   24.0689 C   0  0  2  0  0  0  0  0  0  0  0  0
    6.9811  -16.6741   24.7236 N   0  0  0  0  0  0  0  0  0  0  0  0
    7.8791  -15.2430   23.0231 C   0  0  0  0  0  0  0  0  0  0  0  0
    8.9390  -15.9807   23.1782 O   0  0  0  0  0  0  0  0  0  0  0  0
    8.2127  -15.7681   26.7005 C   0  0  0  0  0  0  0  0  0  0  0  0
    9.1649  -16.0047   27.6783 C   0  0  0  0  0  0  0  0  0  0  0  0
    7.8635  -14.3986   21.8651 N   0  0  0  0  0  0  0  0  0  0  0  0
    7.0026  -13.2942   21.6319 C   0  0  0  0  0  0  0  0  0  0  0  0
    7.7196  -12.4260   20.6136 C   0  0  0  0  0  0  0  0  0  0  0  0
    8.3815  -13.5174   19.7590 C   0  0  0  0  0  0  0  0  0  0  0  0
    8.7716  -14.5591   20.7318 C   0  0  1  0  0  0  0  0  0  0  0  0
   10.1826  -14.4961   21.1534 C   0  0  0  0  0  0  0  0  0  0  0  0
   10.5808  -14.0705   22.4071 O   0  0  0  0  0  0  0  0  0  0  0  0
   11.0695  -14.8438   20.3405 O   0  0  0  0  0  0  0  0  0  0  0  0
  2  1  1  6
  2  4  1  0
  2  3  1  0
  4  5  1  6
  6  4  1  0
  6  7  2  0
  8  9  1  0
  9 10  2  0
 10 11  1  0
 12 13  1  0
 12 11  2  0
 14 13  1  1
 14 15  1  0
 15  6  1  0
 16 20  1  0
 16 14  1  0
 17 16  2  0
 18 12  1  0
 19 18  2  0
 19  9  1  0
 20 24  1  0
 21 20  1  0
 22 21  1  0
 22 23  1  0
 24 23  1  0
 24 25  1  1
 26 25  1  0
 27 25  2  0
M  END
$$$$
