VYP.pdb
     RDKit          3D

 27 28  0  0  1  0  0  0  0  0999 V2000
   11.3834  -19.3401   22.9927 C   0  0  0  0  0  0  0  0  0  0  0  0
   11.9491  -18.7276   21.7550 C   0  0  1  0  0  0  0  0  0  0  0  0
   12.1647  -19.7761   20.7048 C   0  0  0  0  0  0  0  0  0  0  0  0
   11.1619  -17.5488   21.2375 C   0  0  2  0  0  0  0  0  0  0  0  0
   11.7924  -16.9588   20.0975 N   0  0  0  0  0  0  0  0  0  0  0  0
   10.7897  -16.5766   22.2721 C   0  0  0  0  0  0  0  0  0  0  0  0
   11.5928  -15.6800   22.6144 O   0  0  0  0  0  0  0  0  0  0  0  0
    5.8424  -11.5959   27.6797 O   0  0  0  0  0  0  0  0  0  0  0  0
    6.2936  -12.4596   26.7093 C   0  0  0  0  0  0  0  0  0  0  0  0
    6.1128  -13.8057   26.8650 C   0  0  0  0  0  0  0  0  0  0  0  0
    6.5664  -14.6866   25.8876 C   0  0  0  0  0  0  0  0  0  0  0  0
    7.2024  -14.2389   24.7493 C   0  0  0  0  0  0  0  0  0  0  0  0
    7.6596  -15.2106   23.7555 C   0  0  0  0  0  0  0  0  0  0  0  0
    9.1436  -15.5590   23.8801 C   0  0  2  0  0  0  0  0  0  0  0  0
    9.5192  -16.5735   22.9534 N   0  0  0  0  0  0  0  0  0  0  0  0
    9.3572  -15.9494   25.2621 C   0  0  0  0  0  0  0  0  0  0  0  0
    9.0506  -17.1883   25.5130 O   0  0  0  0  0  0  0  0  0  0  0  0
    7.3740  -12.8772   24.6130 C   0  0  0  0  0  0  0  0  0  0  0  0
    6.9307  -11.9822   25.5728 C   0  0  0  0  0  0  0  0  0  0  0  0
    9.8482  -15.1852   26.3707 N   0  0  0  0  0  0  0  0  0  0  0  0
    9.8406  -13.7712   26.4964 C   0  0  0  0  0  0  0  0  0  0  0  0
    9.9147  -13.4937   27.9871 C   0  0  0  0  0  0  0  0  0  0  0  0
   10.8383  -14.6417   28.4214 C   0  0  0  0  0  0  0  0  0  0  0  0
   10.4344  -15.7798   27.5697 C   0  0  1  0  0  0  0  0  0  0  0  0
    9.5050  -16.7219   28.2187 C   0  0  0  0  0  0  0  0  0  0  0  0
    8.2146  -16.9414   27.7734 O   0  0  0  0  0  0  0  0  0  0  0  0
    9.8972  -17.3582   29.2234 O   0  0  0  0  0  0  0  0  0  0  0  0
  2  1  1  1
  2  4  1  0
  2  3  1  0
  4  5  1  6
  6  4  1  0
  6  7  2  0
  8  9  1  0
  9 10  2  0
 10 11  1  0
 12 13  1  0
 12 11  2  0
 14 13  1  1
 14 15  1  0
 15  6  1  0
 16 20  1  0
 16 14  1  0
 17 16  2  0
 18 12  1  0
 19 18  2  0
 19  9  1  0
 20 24  1  0
 21 20  1  0
 22 21  1  0
 22 23  1  0
 24 23  1  0
 24 25  1  1
 26 25  1  0
 27 25  2  0
M  END
$$$$
