VYP.pdb
     RDKit          3D

 27 28  0  0  1  0  0  0  0  0999 V2000
   11.4465  -19.2692   23.1851 C   0  0  0  0  0  0  0  0  0  0  0  0
   12.1157  -18.6343   22.0120 C   0  0  1  0  0  0  0  0  0  0  0  0
   12.4372  -19.6660   20.9724 C   0  0  0  0  0  0  0  0  0  0  0  0
   11.3661  -17.4561   21.4402 C   0  0  2  0  0  0  0  0  0  0  0  0
   12.0799  -16.8592   20.3541 N   0  0  0  0  0  0  0  0  0  0  0  0
   10.9121  -16.4893   22.4469 C   0  0  0  0  0  0  0  0  0  0  0  0
   11.7010  -15.6282   22.8965 O   0  0  0  0  0  0  0  0  0  0  0  0
    5.8135  -11.5704   27.7343 O   0  0  0  0  0  0  0  0  0  0  0  0
    6.2535  -12.4843   26.8056 C   0  0  0  0  0  0  0  0  0  0  0  0
    6.8933  -12.0488   25.6787 C   0  0  0  0  0  0  0  0  0  0  0  0
    7.3418  -12.9671   24.7339 C   0  0  0  0  0  0  0  0  0  0  0  0
    7.1588  -14.3234   24.9000 C   0  0  0  0  0  0  0  0  0  0  0  0
    7.6500  -15.2431   23.8734 C   0  0  0  0  0  0  0  0  0  0  0  0
    9.1563  -15.4967   23.9511 C   0  0  2  0  0  0  0  0  0  0  0  0
    9.5735  -16.4525   22.9808 N   0  0  0  0  0  0  0  0  0  0  0  0
    9.4301  -15.9182   25.3132 C   0  0  0  0  0  0  0  0  0  0  0  0
    9.0831  -17.1462   25.5646 O   0  0  0  0  0  0  0  0  0  0  0  0
    6.5111  -14.7404   26.0440 C   0  0  0  0  0  0  0  0  0  0  0  0
    6.0564  -13.8443   26.9975 C   0  0  0  0  0  0  0  0  0  0  0  0
   10.0170  -15.1941   26.4020 N   0  0  0  0  0  0  0  0  0  0  0  0
   10.2397  -13.7936   26.4676 C   0  0  0  0  0  0  0  0  0  0  0  0
   10.3272  -13.4633   27.9468 C   0  0  0  0  0  0  0  0  0  0  0  0
   11.0398  -14.7256   28.4551 C   0  0  0  0  0  0  0  0  0  0  0  0
   10.4720  -15.8205   27.6412 C   0  0  1  0  0  0  0  0  0  0  0  0
    9.3866  -16.5667   28.3027 C   0  0  0  0  0  0  0  0  0  0  0  0
    9.5962  -17.4283   29.3635 O   0  0  0  0  0  0  0  0  0  0  0  0
    8.2144  -16.4175   27.8883 O   0  0  0  0  0  0  0  0  0  0  0  0
  2  1  1  1
  2  4  1  0
  2  3  1  0
  4  5  1  6
  6  4  1  0
  6  7  2  0
  8  9  1  0
  9 10  2  0
 10 11  1  0
 12 13  1  0
 12 11  2  0
 14 13  1  1
 14 15  1  0
 15  6  1  0
 16 20  1  0
 16 14  1  0
 17 16  2  0
 18 12  1  0
 19 18  2  0
 19  9  1  0
 20 24  1  0
 21 20  1  0
 22 21  1  0
 22 23  1  0
 24 23  1  0
 24 25  1  1
 26 25  1  0
 27 25  2  0
M  END
$$$$
