VYP.pdb
     RDKit          3D

 27 28  0  0  1  0  0  0  0  0999 V2000
   11.7154  -20.0140   21.0805 C   0  0  0  0  0  0  0  0  0  0  0  0
   11.6126  -18.8717   22.0354 C   0  0  1  0  0  0  0  0  0  0  0  0
   12.8471  -18.7862   22.8824 C   0  0  0  0  0  0  0  0  0  0  0  0
   11.2702  -17.5546   21.3835 C   0  0  2  0  0  0  0  0  0  0  0  0
   12.3092  -17.1220   20.5012 N   0  0  0  0  0  0  0  0  0  0  0  0
   10.8283  -16.5180   22.3238 C   0  0  0  0  0  0  0  0  0  0  0  0
   11.6277  -15.6387   22.7159 O   0  0  0  0  0  0  0  0  0  0  0  0
    5.9485  -11.2685   27.4727 O   0  0  0  0  0  0  0  0  0  0  0  0
    6.3415  -12.2462   26.5890 C   0  0  0  0  0  0  0  0  0  0  0  0
    7.0317  -11.9002   25.4608 C   0  0  0  0  0  0  0  0  0  0  0  0
    7.4331  -12.8834   24.5613 C   0  0  0  0  0  0  0  0  0  0  0  0
    7.1528  -14.2163   24.7742 C   0  0  0  0  0  0  0  0  0  0  0  0
    7.5983  -15.2071   23.7939 C   0  0  0  0  0  0  0  0  0  0  0  0
    9.1068  -15.4579   23.8217 C   0  0  2  0  0  0  0  0  0  0  0  0
    9.4904  -16.4297   22.8535 N   0  0  0  0  0  0  0  0  0  0  0  0
    9.4301  -15.8558   25.1801 C   0  0  0  0  0  0  0  0  0  0  0  0
    9.1684  -17.1030   25.4402 O   0  0  0  0  0  0  0  0  0  0  0  0
    6.4556  -14.5426   25.9186 C   0  0  0  0  0  0  0  0  0  0  0  0
    6.0463  -13.5808   26.8275 C   0  0  0  0  0  0  0  0  0  0  0  0
    9.9862  -15.0910   26.2572 N   0  0  0  0  0  0  0  0  0  0  0  0
   10.2110  -13.6894   26.2752 C   0  0  0  0  0  0  0  0  0  0  0  0
   10.2550  -13.3021   27.7424 C   0  0  0  0  0  0  0  0  0  0  0  0
   10.9482  -14.5450   28.3205 C   0  0  0  0  0  0  0  0  0  0  0  0
   10.4019  -15.6697   27.5328 C   0  0  1  0  0  0  0  0  0  0  0  0
    9.2949  -16.3877   28.1898 C   0  0  0  0  0  0  0  0  0  0  0  0
    9.4614  -17.1662   29.3201 O   0  0  0  0  0  0  0  0  0  0  0  0
    8.1442  -16.2921   27.7052 O   0  0  0  0  0  0  0  0  0  0  0  0
  2  1  1  6
  2  4  1  0
  2  3  1  0
  4  5  1  1
  6  4  1  0
  6  7  2  0
  8  9  1  0
  9 10  2  0
 10 11  1  0
 12 13  1  0
 12 11  2  0
 14 13  1  1
 14 15  1  0
 15  6  1  0
 16 20  1  0
 16 14  1  0
 17 16  2  0
 18 12  1  0
 19 18  2  0
 19  9  1  0
 20 24  1  0
 21 20  1  0
 22 21  1  0
 22 23  1  0
 24 23  1  0
 24 25  1  1
 26 25  1  0
 27 25  2  0
M  END
$$$$
