VYP.pdb
     RDKit          3D

 27 28  0  0  1  0  0  0  0  0999 V2000
    8.0552  -12.5884   20.7062 C   0  0  0  0  0  0  0  0  0  0  0  0
    7.8082  -13.6623   19.6998 C   0  0  1  0  0  0  0  0  0  0  0  0
    8.5197  -13.3501   18.4172 C   0  0  0  0  0  0  0  0  0  0  0  0
    8.1085  -15.0540   20.1998 C   0  0  2  0  0  0  0  0  0  0  0  0
    7.7764  -16.0439   19.2225 N   0  0  0  0  0  0  0  0  0  0  0  0
    7.5679  -15.3408   21.5339 C   0  0  0  0  0  0  0  0  0  0  0  0
    6.3434  -15.5477   21.6880 O   0  0  0  0  0  0  0  0  0  0  0  0
    5.0244  -20.7911   21.4525 O   0  0  0  0  0  0  0  0  0  0  0  0
    5.7318  -19.8811   22.2026 C   0  0  0  0  0  0  0  0  0  0  0  0
    7.0305  -19.6021   21.8791 C   0  0  0  0  0  0  0  0  0  0  0  0
    7.7535  -18.6824   22.6331 C   0  0  0  0  0  0  0  0  0  0  0  0
    7.1939  -18.0331   23.7128 C   0  0  0  0  0  0  0  0  0  0  0  0
    8.0016  -17.0768   24.4705 C   0  0  0  0  0  0  0  0  0  0  0  0
    7.8117  -15.6270   24.0217 C   0  0  2  0  0  0  0  0  0  0  0  0
    8.3698  -15.4050   22.7301 N   0  0  0  0  0  0  0  0  0  0  0  0
    8.4173  -14.7985   25.0487 C   0  0  0  0  0  0  0  0  0  0  0  0
    9.6823  -15.0345   25.2379 O   0  0  0  0  0  0  0  0  0  0  0  0
    5.8827  -18.3298   24.0211 C   0  0  0  0  0  0  0  0  0  0  0  0
    5.1443  -19.2415   23.2848 C   0  0  0  0  0  0  0  0  0  0  0  0
    7.8377  -13.7765   25.8695 N   0  0  0  0  0  0  0  0  0  0  0  0
    6.5075  -13.2853   25.8003 C   0  0  0  0  0  0  0  0  0  0  0  0
    6.2244  -12.6807   27.1638 C   0  0  0  0  0  0  0  0  0  0  0  0
    7.6085  -12.0960   27.4833 C   0  0  0  0  0  0  0  0  0  0  0  0
    8.5601  -13.0844   26.9344 C   0  0  1  0  0  0  0  0  0  0  0  0
    9.0940  -14.0295   27.9315 C   0  0  0  0  0  0  0  0  0  0  0  0
   10.0616  -13.6876   28.8580 O   0  0  0  0  0  0  0  0  0  0  0  0
    8.6536  -15.2017   27.9456 O   0  0  0  0  0  0  0  0  0  0  0  0
  2  1  1  1
  2  4  1  0
  2  3  1  0
  4  5  1  6
  6  4  1  0
  6  7  2  0
  8  9  1  0
  9 10  2  0
 10 11  1  0
 12 13  1  0
 12 11  2  0
 14 13  1  1
 14 15  1  0
 15  6  1  0
 16 20  1  0
 16 14  1  0
 17 16  2  0
 18 12  1  0
 19 18  2  0
 19  9  1  0
 20 24  1  0
 21 20  1  0
 22 21  1  0
 22 23  1  0
 24 23  1  0
 24 25  1  1
 26 25  1  0
 27 25  2  0
M  END
$$$$
