VYP.pdb
     RDKit          3D

 27 28  0  0  1  0  0  0  0  0999 V2000
   11.7252  -19.1236   22.7528 C   0  0  0  0  0  0  0  0  0  0  0  0
   12.1436  -18.4486   21.4893 C   0  0  1  0  0  0  0  0  0  0  0  0
   12.4380  -19.4649   20.4267 C   0  0  0  0  0  0  0  0  0  0  0  0
   11.1863  -17.3826   21.0158 C   0  0  2  0  0  0  0  0  0  0  0  0
   11.6386  -16.7749   19.8028 N   0  0  0  0  0  0  0  0  0  0  0  0
   10.8074  -16.4148   22.0522 C   0  0  0  0  0  0  0  0  0  0  0  0
   11.5397  -15.4293   22.2940 O   0  0  0  0  0  0  0  0  0  0  0  0
    5.8872  -11.2953   27.2794 O   0  0  0  0  0  0  0  0  0  0  0  0
    6.3425  -12.2294   26.3786 C   0  0  0  0  0  0  0  0  0  0  0  0
    6.1024  -13.5567   26.6012 C   0  0  0  0  0  0  0  0  0  0  0  0
    6.5598  -14.5085   25.6946 C   0  0  0  0  0  0  0  0  0  0  0  0
    7.2583  -14.1507   24.5612 C   0  0  0  0  0  0  0  0  0  0  0  0
    7.7163  -15.1942   23.6433 C   0  0  0  0  0  0  0  0  0  0  0  0
    9.2084  -15.5060   23.7691 C   0  0  2  0  0  0  0  0  0  0  0  0
    9.6085  -16.5148   22.8465 N   0  0  0  0  0  0  0  0  0  0  0  0
    9.4315  -15.8854   25.1527 C   0  0  0  0  0  0  0  0  0  0  0  0
    9.1278  -17.1225   25.4153 O   0  0  0  0  0  0  0  0  0  0  0  0
    7.4891  -12.8065   24.3566 C   0  0  0  0  0  0  0  0  0  0  0  0
    7.0433  -11.8421   25.2454 C   0  0  0  0  0  0  0  0  0  0  0  0
    9.9292  -15.1121   26.2520 N   0  0  0  0  0  0  0  0  0  0  0  0
    9.9900  -13.6962   26.3348 C   0  0  0  0  0  0  0  0  0  0  0  0
   10.0358  -13.3759   27.8181 C   0  0  0  0  0  0  0  0  0  0  0  0
   10.8870  -14.5544   28.3142 C   0  0  0  0  0  0  0  0  0  0  0  0
   10.4500  -15.6972   27.4854 C   0  0  1  0  0  0  0  0  0  0  0  0
    9.4557  -16.5707   28.1342 C   0  0  0  0  0  0  0  0  0  0  0  0
    9.7555  -17.4005   29.1986 O   0  0  0  0  0  0  0  0  0  0  0  0
    8.2793  -16.5655   27.7050 O   0  0  0  0  0  0  0  0  0  0  0  0
  2  1  1  1
  2  4  1  0
  2  3  1  0
  4  5  1  6
  6  4  1  0
  6  7  2  0
  8  9  1  0
  9 10  2  0
 10 11  1  0
 12 13  1  0
 12 11  2  0
 14 13  1  1
 14 15  1  0
 15  6  1  0
 16 20  1  0
 16 14  1  0
 17 16  2  0
 18 12  1  0
 19 18  2  0
 19  9  1  0
 20 24  1  0
 21 20  1  0
 22 21  1  0
 22 23  1  0
 24 23  1  0
 24 25  1  1
 26 25  1  0
 27 25  2  0
M  END
$$$$
