VYP.pdb
     RDKit          3D

 27 28  0  0  1  0  0  0  0  0999 V2000
    7.0752  -21.7509   23.0341 C   0  0  0  0  0  0  0  0  0  0  0  0
    7.0817  -20.2914   22.7231 C   0  0  1  0  0  0  0  0  0  0  0  0
    6.8399  -20.0679   21.2601 C   0  0  0  0  0  0  0  0  0  0  0  0
    6.1558  -19.4741   23.5902 C   0  0  2  0  0  0  0  0  0  0  0  0
    4.8132  -19.9626   23.5271 N   0  0  0  0  0  0  0  0  0  0  0  0
    6.2643  -18.0252   23.3828 C   0  0  0  0  0  0  0  0  0  0  0  0
    5.3298  -17.3930   22.8415 O   0  0  0  0  0  0  0  0  0  0  0  0
    5.5207  -11.3615   27.5441 O   0  0  0  0  0  0  0  0  0  0  0  0
    6.2228  -12.2641   26.7801 C   0  0  0  0  0  0  0  0  0  0  0  0
    6.5056  -13.5024   27.2857 C   0  0  0  0  0  0  0  0  0  0  0  0
    7.2158  -14.4217   26.5192 C   0  0  0  0  0  0  0  0  0  0  0  0
    7.6503  -14.1196   25.2462 C   0  0  0  0  0  0  0  0  0  0  0  0
    8.3940  -15.1247   24.4861 C   0  0  0  0  0  0  0  0  0  0  0  0
    7.5428  -15.8591   23.4492 C   0  0  2  0  0  0  0  0  0  0  0  0
    7.4105  -17.2408   23.7692 N   0  0  0  0  0  0  0  0  0  0  0  0
    8.1806  -15.6355   22.1642 C   0  0  0  0  0  0  0  0  0  0  0  0
    9.0328  -16.5599   21.8311 O   0  0  0  0  0  0  0  0  0  0  0  0
    7.3538  -12.8649   24.7562 C   0  0  0  0  0  0  0  0  0  0  0  0
    6.6485  -11.9342   25.5013 C   0  0  0  0  0  0  0  0  0  0  0  0
    8.0122  -14.5662   21.2249 N   0  0  0  0  0  0  0  0  0  0  0  0
    7.1839  -13.4237   21.3793 C   0  0  0  0  0  0  0  0  0  0  0  0
    7.7613  -12.3723   20.4487 C   0  0  0  0  0  0  0  0  0  0  0  0
    8.2087  -13.2700   19.2853 C   0  0  0  0  0  0  0  0  0  0  0  0
    8.7035  -14.4992   19.9394 C   0  0  1  0  0  0  0  0  0  0  0  0
   10.1671  -14.5491   20.1067 C   0  0  0  0  0  0  0  0  0  0  0  0
   11.0343  -14.9077   19.0914 O   0  0  0  0  0  0  0  0  0  0  0  0
   10.6556  -14.2531   21.2211 O   0  0  0  0  0  0  0  0  0  0  0  0
  2  1  1  6
  2  4  1  0
  2  3  1  0
  4  5  1  6
  6  4  1  0
  6  7  2  0
  8  9  1  0
  9 10  2  0
 10 11  1  0
 12 13  1  0
 12 11  2  0
 14 13  1  1
 14 15  1  0
 15  6  1  0
 16 20  1  0
 16 14  1  0
 17 16  2  0
 18 12  1  0
 19 18  2  0
 19  9  1  0
 20 24  1  0
 21 20  1  0
 22 21  1  0
 22 23  1  0
 24 23  1  0
 24 25  1  1
 26 25  1  0
 27 25  2  0
M  END
$$$$
