VYP.pdb
     RDKit          3D

 27 28  0  0  1  0  0  0  0  0999 V2000
    6.6983  -22.4015   22.5763 C   0  0  0  0  0  0  0  0  0  0  0  0
    6.8172  -20.9152   22.6381 C   0  0  1  0  0  0  0  0  0  0  0  0
    7.1664  -20.3625   21.2885 C   0  0  0  0  0  0  0  0  0  0  0  0
    5.6208  -20.2278   23.2489 C   0  0  2  0  0  0  0  0  0  0  0  0
    4.4101  -20.5938   22.5814 N   0  0  0  0  0  0  0  0  0  0  0  0
    5.7839  -18.7790   23.4175 C   0  0  0  0  0  0  0  0  0  0  0  0
    5.1927  -17.9837   22.6533 O   0  0  0  0  0  0  0  0  0  0  0  0
    7.2928  -10.7895   26.7779 O   0  0  0  0  0  0  0  0  0  0  0  0
    7.2859  -12.1503   26.5793 C   0  0  0  0  0  0  0  0  0  0  0  0
    6.1038  -12.8351   26.6300 C   0  0  0  0  0  0  0  0  0  0  0  0
    6.0880  -14.2123   26.4301 C   0  0  0  0  0  0  0  0  0  0  0  0
    7.2441  -14.9199   26.1785 C   0  0  0  0  0  0  0  0  0  0  0  0
    7.1682  -16.3673   25.9773 C   0  0  0  0  0  0  0  0  0  0  0  0
    6.7786  -16.7660   24.5530 C   0  0  2  0  0  0  0  0  0  0  0  0
    6.6060  -18.1751   24.4362 N   0  0  0  0  0  0  0  0  0  0  0  0
    7.8217  -16.2508   23.6845 C   0  0  0  0  0  0  0  0  0  0  0  0
    8.9576  -16.8741   23.7983 O   0  0  0  0  0  0  0  0  0  0  0  0
    8.4250  -14.2090   26.1317 C   0  0  0  0  0  0  0  0  0  0  0  0
    8.4643  -12.8383   26.3277 C   0  0  0  0  0  0  0  0  0  0  0  0
    7.7850  -15.1767   22.7362 N   0  0  0  0  0  0  0  0  0  0  0  0
    6.7385  -14.2333   22.5628 C   0  0  0  0  0  0  0  0  0  0  0  0
    7.3805  -13.0298   21.8964 C   0  0  0  0  0  0  0  0  0  0  0  0
    8.3938  -13.7429   20.9885 C   0  0  0  0  0  0  0  0  0  0  0  0
    8.8634  -14.8902   21.7929 C   0  0  1  0  0  0  0  0  0  0  0  0
   10.1440  -14.6604   22.4855 C   0  0  0  0  0  0  0  0  0  0  0  0
   10.2452  -14.4847   23.8532 O   0  0  0  0  0  0  0  0  0  0  0  0
   11.1961  -14.6212   21.8076 O   0  0  0  0  0  0  0  0  0  0  0  0
  2  1  1  6
  2  4  1  0
  2  3  1  0
  4  5  1  6
  6  4  1  0
  6  7  2  0
  8  9  1  0
  9 10  2  0
 10 11  1  0
 12 13  1  0
 12 11  2  0
 14 13  1  1
 14 15  1  0
 15  6  1  0
 16 20  1  0
 16 14  1  0
 17 16  2  0
 18 12  1  0
 19 18  2  0
 19  9  1  0
 20 24  1  0
 21 20  1  0
 22 21  1  0
 22 23  1  0
 24 23  1  0
 24 25  1  1
 26 25  1  0
 27 25  2  0
M  END
$$$$
