VYP.pdb
     RDKit          3D

 27 28  0  0  1  0  0  0  0  0999 V2000
    6.9653  -22.6071   22.6327 C   0  0  0  0  0  0  0  0  0  0  0  0
    7.0342  -21.1184   22.7112 C   0  0  1  0  0  0  0  0  0  0  0  0
    7.3206  -20.5366   21.3592 C   0  0  0  0  0  0  0  0  0  0  0  0
    5.8347  -20.4816   23.3689 C   0  0  2  0  0  0  0  0  0  0  0  0
    4.6160  -20.8906   22.7421 N   0  0  0  0  0  0  0  0  0  0  0  0
    5.9475  -19.0285   23.5418 C   0  0  0  0  0  0  0  0  0  0  0  0
    5.3971  -18.2513   22.7300 O   0  0  0  0  0  0  0  0  0  0  0  0
    7.0965  -10.9715   26.8551 O   0  0  0  0  0  0  0  0  0  0  0  0
    7.1450  -12.3345   26.6782 C   0  0  0  0  0  0  0  0  0  0  0  0
    5.9819  -13.0503   26.6177 C   0  0  0  0  0  0  0  0  0  0  0  0
    6.0222  -14.4299   26.4389 C   0  0  0  0  0  0  0  0  0  0  0  0
    7.2158  -15.1092   26.3189 C   0  0  0  0  0  0  0  0  0  0  0  0
    7.1982  -16.5605   26.1338 C   0  0  0  0  0  0  0  0  0  0  0  0
    6.8508  -16.9898   24.7075 C   0  0  2  0  0  0  0  0  0  0  0  0
    6.6729  -18.4003   24.6177 N   0  0  0  0  0  0  0  0  0  0  0  0
    7.9239  -16.5008   23.8606 C   0  0  0  0  0  0  0  0  0  0  0  0
    9.0108  -17.2125   23.9235 O   0  0  0  0  0  0  0  0  0  0  0  0
    8.3767  -14.3672   26.3829 C   0  0  0  0  0  0  0  0  0  0  0  0
    8.3604  -12.9935   26.5602 C   0  0  0  0  0  0  0  0  0  0  0  0
    7.9614  -15.3705   22.9802 N   0  0  0  0  0  0  0  0  0  0  0  0
    7.0032  -14.3263   22.8986 C   0  0  0  0  0  0  0  0  0  0  0  0
    7.7360  -13.1471   22.2845 C   0  0  0  0  0  0  0  0  0  0  0  0
    8.6529  -13.8915   21.3023 C   0  0  0  0  0  0  0  0  0  0  0  0
    9.0354  -15.1251   22.0204 C   0  0  1  0  0  0  0  0  0  0  0  0
   10.3505  -15.0573   22.6826 C   0  0  0  0  0  0  0  0  0  0  0  0
   11.5449  -14.9829   21.9903 O   0  0  0  0  0  0  0  0  0  0  0  0
   10.3951  -15.0671   23.9340 O   0  0  0  0  0  0  0  0  0  0  0  0
  2  1  1  6
  2  4  1  0
  2  3  1  0
  4  5  1  6
  6  4  1  0
  6  7  2  0
  8  9  1  0
  9 10  2  0
 10 11  1  0
 12 13  1  0
 12 11  2  0
 14 13  1  1
 14 15  1  0
 15  6  1  0
 16 20  1  0
 16 14  1  0
 17 16  2  0
 18 12  1  0
 19 18  2  0
 19  9  1  0
 20 24  1  0
 21 20  1  0
 22 21  1  0
 22 23  1  0
 24 23  1  0
 24 25  1  1
 26 25  1  0
 27 25  2  0
M  END
$$$$
