VYP.pdb
     RDKit          3D

 27 28  0  0  1  0  0  0  0  0999 V2000
    7.2445  -21.6936   23.7060 C   0  0  0  0  0  0  0  0  0  0  0  0
    7.2865  -20.2648   23.2773 C   0  0  1  0  0  0  0  0  0  0  0  0
    7.3093  -20.1687   21.7810 C   0  0  0  0  0  0  0  0  0  0  0  0
    6.2081  -19.4068   23.8921 C   0  0  2  0  0  0  0  0  0  0  0  0
    4.9058  -19.9381   23.6329 N   0  0  0  0  0  0  0  0  0  0  0  0
    6.3316  -17.9772   23.5837 C   0  0  0  0  0  0  0  0  0  0  0  0
    5.5504  -17.4372   22.7687 O   0  0  0  0  0  0  0  0  0  0  0  0
    5.7754  -11.0746   27.8404 O   0  0  0  0  0  0  0  0  0  0  0  0
    6.3933  -12.0352   27.0744 C   0  0  0  0  0  0  0  0  0  0  0  0
    7.7221  -12.2969   27.2605 C   0  0  0  0  0  0  0  0  0  0  0  0
    8.3551  -13.2674   26.4896 C   0  0  0  0  0  0  0  0  0  0  0  0
    7.6749  -13.9850   25.5288 C   0  0  0  0  0  0  0  0  0  0  0  0
    8.3917  -14.9927   24.7466 C   0  0  0  0  0  0  0  0  0  0  0  0
    7.4976  -15.7551   23.7676 C   0  0  2  0  0  0  0  0  0  0  0  0
    7.3234  -17.1105   24.1698 N   0  0  0  0  0  0  0  0  0  0  0  0
    8.1201  -15.6290   22.4621 C   0  0  0  0  0  0  0  0  0  0  0  0
    8.9420  -16.5952   22.1747 O   0  0  0  0  0  0  0  0  0  0  0  0
    6.3353  -13.7046   25.3580 C   0  0  0  0  0  0  0  0  0  0  0  0
    5.6850  -12.7431   26.1139 C   0  0  0  0  0  0  0  0  0  0  0  0
    7.9647  -14.6156   21.4606 N   0  0  0  0  0  0  0  0  0  0  0  0
    7.1230  -13.4746   21.5313 C   0  0  0  0  0  0  0  0  0  0  0  0
    7.7132  -12.4712   20.5569 C   0  0  0  0  0  0  0  0  0  0  0  0
    8.1960  -13.4279   19.4564 C   0  0  0  0  0  0  0  0  0  0  0  0
    8.6858  -14.6136   20.1898 C   0  0  1  0  0  0  0  0  0  0  0  0
   10.1454  -14.6393   20.3936 C   0  0  0  0  0  0  0  0  0  0  0  0
   11.0433  -14.9868   19.4014 O   0  0  0  0  0  0  0  0  0  0  0  0
   10.6012  -14.3322   21.5188 O   0  0  0  0  0  0  0  0  0  0  0  0
  2  1  1  6
  2  4  1  0
  2  3  1  0
  4  5  1  6
  6  4  1  0
  6  7  2  0
  8  9  1  0
  9 10  2  0
 10 11  1  0
 12 13  1  0
 12 11  2  0
 14 13  1  1
 14 15  1  0
 15  6  1  0
 16 20  1  0
 16 14  1  0
 17 16  2  0
 18 12  1  0
 19 18  2  0
 19  9  1  0
 20 24  1  0
 21 20  1  0
 22 21  1  0
 22 23  1  0
 24 23  1  0
 24 25  1  1
 26 25  1  0
 27 25  2  0
M  END
$$$$
