VYP.pdb
     RDKit          3D

 27 28  0  0  1  0  0  0  0  0999 V2000
    7.5472  -20.2487   21.4426 C   0  0  0  0  0  0  0  0  0  0  0  0
    6.0969  -20.5998   21.4208 C   0  0  1  0  0  0  0  0  0  0  0  0
    5.9179  -22.0644   21.1531 C   0  0  0  0  0  0  0  0  0  0  0  0
    5.3350  -20.1408   22.6397 C   0  0  2  0  0  0  0  0  0  0  0  0
    3.9588  -20.5237   22.5711 N   0  0  0  0  0  0  0  0  0  0  0  0
    5.5352  -18.7256   22.9733 C   0  0  0  0  0  0  0  0  0  0  0  0
    4.9905  -17.8319   22.2874 O   0  0  0  0  0  0  0  0  0  0  0  0
    7.3827  -11.1214   26.9491 O   0  0  0  0  0  0  0  0  0  0  0  0
    7.3146  -12.4630   26.6544 C   0  0  0  0  0  0  0  0  0  0  0  0
    6.0951  -13.0730   26.5572 C   0  0  0  0  0  0  0  0  0  0  0  0
    6.0174  -14.4303   26.2594 C   0  0  0  0  0  0  0  0  0  0  0  0
    7.1483  -15.1920   26.0559 C   0  0  0  0  0  0  0  0  0  0  0  0
    7.0069  -16.6152   25.7468 C   0  0  0  0  0  0  0  0  0  0  0  0
    6.6481  -16.8898   24.2856 C   0  0  2  0  0  0  0  0  0  0  0  0
    6.3438  -18.2653   24.0745 N   0  0  0  0  0  0  0  0  0  0  0  0
    7.7768  -16.4332   23.4948 C   0  0  0  0  0  0  0  0  0  0  0  0
    8.8044  -17.2295   23.5343 O   0  0  0  0  0  0  0  0  0  0  0  0
    8.3679  -14.5562   26.1588 C   0  0  0  0  0  0  0  0  0  0  0  0
    8.4689  -13.2066   26.4542 C   0  0  0  0  0  0  0  0  0  0  0  0
    7.9228  -15.2560   22.6903 N   0  0  0  0  0  0  0  0  0  0  0  0
    7.0854  -14.1097   22.7038 C   0  0  0  0  0  0  0  0  0  0  0  0
    7.9330  -12.9788   22.1494 C   0  0  0  0  0  0  0  0  0  0  0  0
    8.7420  -13.7502   21.0958 C   0  0  0  0  0  0  0  0  0  0  0  0
    8.9986  -15.0647   21.7202 C   0  0  1  0  0  0  0  0  0  0  0  0
   10.3257  -15.1874   22.3498 C   0  0  0  0  0  0  0  0  0  0  0  0
   11.5067  -15.2062   21.6313 O   0  0  0  0  0  0  0  0  0  0  0  0
   10.3938  -15.2795   23.5968 O   0  0  0  0  0  0  0  0  0  0  0  0
  2  1  1  1
  2  4  1  0
  2  3  1  0
  4  5  1  6
  6  4  1  0
  6  7  2  0
  8  9  1  0
  9 10  2  0
 10 11  1  0
 12 13  1  0
 12 11  2  0
 14 13  1  1
 14 15  1  0
 15  6  1  0
 16 20  1  0
 16 14  1  0
 17 16  2  0
 18 12  1  0
 19 18  2  0
 19  9  1  0
 20 24  1  0
 21 20  1  0
 22 21  1  0
 22 23  1  0
 24 23  1  0
 24 25  1  1
 26 25  1  0
 27 25  2  0
M  END
$$$$
