HLC.pdb
     RDKit          3D

 25 25  0  0  1  0  0  0  0  0999 V2000
    7.3826  -15.7311   21.5346 N   0  0  0  0  0  0  0  0  0  0  0  0
    8.6474  -15.0742   21.7405 C   0  0  1  0  0  0  0  0  0  0  0  0
    8.7195  -13.7849   20.9500 C   0  0  0  0  0  0  0  0  0  0  0  0
    8.5118  -14.0584   19.5070 C   0  0  0  0  0  0  0  0  0  0  0  0
    8.3252  -15.3141   18.9855 C   0  0  0  0  0  0  0  0  0  0  0  0
    8.1723  -15.1677   17.6567 N   0  0  0  0  0  0  0  0  0  0  0  0
    8.2594  -13.8639   17.3489 C   0  0  0  0  0  0  0  0  0  0  0  0
    8.4707  -13.1710   18.4995 N   0  0  0  0  0  0  0  0  0  0  0  0
    8.8923  -14.7352   23.1633 C   0  0  0  0  0  0  0  0  0  0  0  0
   10.0098  -14.2460   23.4505 O   0  0  0  0  0  0  0  0  0  0  0  0
    5.4754  -12.0813   26.1135 C   0  0  0  0  0  0  0  0  0  0  0  0
    6.7619  -12.6899   25.5685 C   0  0  1  0  0  0  0  0  0  0  0  0
    7.8295  -11.6121   25.8706 C   0  0  0  0  0  0  0  0  0  0  0  0
    7.1113  -13.9687   26.2745 C   0  0  0  0  0  0  0  0  0  0  0  0
    8.2369  -14.6603   25.5938 C   0  0  2  0  0  0  0  0  0  0  0  0
    7.9522  -14.9301   24.1930 N   0  0  0  0  0  0  0  0  0  0  0  0
    8.4985  -15.9539   26.2560 C   0  0  0  0  0  0  0  0  0  0  0  0
    8.6104  -16.1339   27.4856 O   0  0  0  0  0  0  0  0  0  0  0  0
    8.6446  -17.1395   25.4511 N   0  0  0  0  0  0  0  0  0  0  0  0
    8.8463  -18.4198   26.0540 C   0  0  1  0  0  0  0  0  0  0  0  0
    8.0766  -19.5088   25.3400 C   0  0  0  0  0  0  0  0  0  0  0  0
    6.3569  -19.0756   25.0525 S   0  0  0  0  0  0  0  0  0  0  0  0
   10.2719  -18.7913   26.0316 C   0  0  0  0  0  0  0  0  0  0  0  0
   10.7245  -19.9943   26.5439 O   0  0  0  0  0  0  0  0  0  0  0  0
   11.1147  -17.9906   25.5299 O   0  0  0  0  0  0  0  0  0  0  0  0
  2  1  1  1
  2  9  1  0
  3  2  1  0
  4  3  1  0
  5  4  2  0
  6  7  1  0
  6  5  1  0
  7  8  2  0
  8  4  1  0
  9 16  1  0
 10  9  2  0
 12 11  1  1
 12 13  1  0
 14 12  1  0
 15 14  1  1
 16 15  1  0
 17 19  1  0
 17 15  1  0
 18 17  2  0
 20 19  1  0
 20 23  1  0
 20 21  1  6
 22 21  1  0
 23 24  1  0
 25 23  2  0
M  END
$$$$
