HLC.pdb
     RDKit          3D

 25 25  0  0  1  0  0  0  0  0999 V2000
   11.9374  -17.7750   19.0264 N   0  0  0  0  0  0  0  0  0  0  0  0
   10.6024  -17.6401   19.5489 C   0  0  1  0  0  0  0  0  0  0  0  0
   10.1873  -18.8904   20.2952 C   0  0  0  0  0  0  0  0  0  0  0  0
    9.9484  -19.9995   19.3398 C   0  0  0  0  0  0  0  0  0  0  0  0
   10.0636  -19.8743   17.9779 C   0  0  0  0  0  0  0  0  0  0  0  0
    9.7743  -21.0769   17.4481 N   0  0  0  0  0  0  0  0  0  0  0  0
    9.4861  -21.9329   18.4412 C   0  0  0  0  0  0  0  0  0  0  0  0
    9.5938  -21.2644   19.6203 N   0  0  0  0  0  0  0  0  0  0  0  0
   10.4666  -16.4994   20.4869 C   0  0  0  0  0  0  0  0  0  0  0  0
   11.5109  -16.0928   21.0480 O   0  0  0  0  0  0  0  0  0  0  0  0
    6.4832  -12.9423   19.5666 C   0  0  0  0  0  0  0  0  0  0  0  0
    7.8252  -13.5784   19.9086 C   0  0  1  0  0  0  0  0  0  0  0  0
    8.8522  -12.4878   19.5233 C   0  0  0  0  0  0  0  0  0  0  0  0
    7.9331  -13.8885   21.3742 C   0  0  0  0  0  0  0  0  0  0  0  0
    9.1426  -14.7044   21.6564 C   0  0  2  0  0  0  0  0  0  0  0  0
    9.2472  -15.8583   20.7767 N   0  0  0  0  0  0  0  0  0  0  0  0
    9.0931  -15.2022   23.0457 C   0  0  0  0  0  0  0  0  0  0  0  0
    8.9374  -14.5011   24.0661 O   0  0  0  0  0  0  0  0  0  0  0  0
    9.2326  -16.6144   23.2926 N   0  0  0  0  0  0  0  0  0  0  0  0
    9.1636  -17.1414   24.6196 C   0  0  1  0  0  0  0  0  0  0  0  0
    7.8365  -17.8139   24.8928 C   0  0  0  0  0  0  0  0  0  0  0  0
    7.3737  -17.7677   26.6281 S   0  0  0  0  0  0  0  0  0  0  0  0
   10.2249  -18.1385   24.8437 C   0  0  0  0  0  0  0  0  0  0  0  0
   10.5218  -18.6227   26.1053 O   0  0  0  0  0  0  0  0  0  0  0  0
   10.8901  -18.5703   23.8565 O   0  0  0  0  0  0  0  0  0  0  0  0
  2  1  1  1
  2  9  1  0
  3  2  1  0
  4  3  1  0
  5  4  2  0
  6  7  1  0
  6  5  1  0
  7  8  2  0
  8  4  1  0
  9 16  1  0
 10  9  2  0
 12 11  1  1
 12 13  1  0
 14 12  1  0
 15 14  1  6
 16 15  1  0
 17 19  1  0
 17 15  1  0
 18 17  2  0
 20 19  1  0
 20 23  1  0
 20 21  1  6
 22 21  1  0
 23 24  1  0
 25 23  2  0
M  END
$$$$
