HLC.pdb
     RDKit          3D

 25 25  0  0  1  0  0  0  0  0999 V2000
   10.4295  -14.7837   21.1074 N   0  0  0  0  0  0  0  0  0  0  0  0
    9.1592  -14.4825   21.7149 C   0  0  1  0  0  0  0  0  0  0  0  0
    8.0416  -15.2406   21.0302 C   0  0  0  0  0  0  0  0  0  0  0  0
    7.7426  -14.6291   19.7124 C   0  0  0  0  0  0  0  0  0  0  0  0
    8.4873  -13.6232   19.1491 C   0  0  0  0  0  0  0  0  0  0  0  0
    7.9183  -13.3304   17.9654 N   0  0  0  0  0  0  0  0  0  0  0  0
    6.8504  -14.1240   17.7868 C   0  0  0  0  0  0  0  0  0  0  0  0
    6.7389  -14.9337   18.8733 N   0  0  0  0  0  0  0  0  0  0  0  0
    9.1148  -14.8340   23.1550 C   0  0  0  0  0  0  0  0  0  0  0  0
   10.1012  -15.4484   23.6245 O   0  0  0  0  0  0  0  0  0  0  0  0
    5.5931  -12.1101   26.6452 C   0  0  0  0  0  0  0  0  0  0  0  0
    6.8614  -12.6971   26.0375 C   0  0  1  0  0  0  0  0  0  0  0  0
    7.9912  -12.1006   26.9095 C   0  0  0  0  0  0  0  0  0  0  0  0
    6.8781  -14.1959   26.1328 C   0  0  0  0  0  0  0  0  0  0  0  0
    8.0694  -14.7582   25.4450 C   0  0  2  0  0  0  0  0  0  0  0  0
    8.0415  -14.5200   24.0101 N   0  0  0  0  0  0  0  0  0  0  0  0
    8.1221  -16.2186   25.6566 C   0  0  0  0  0  0  0  0  0  0  0  0
    7.1931  -17.0214   25.4346 O   0  0  0  0  0  0  0  0  0  0  0  0
    9.3326  -16.8130   26.1627 N   0  0  0  0  0  0  0  0  0  0  0  0
    9.3929  -18.2049   26.4830 C   0  0  1  0  0  0  0  0  0  0  0  0
   10.5511  -18.8937   25.7960 C   0  0  0  0  0  0  0  0  0  0  0  0
   10.5769  -18.6152   24.0213 S   0  0  0  0  0  0  0  0  0  0  0  0
    9.5518  -18.4026   27.9343 C   0  0  0  0  0  0  0  0  0  0  0  0
    9.5992  -19.6636   28.5019 O   0  0  0  0  0  0  0  0  0  0  0  0
    9.6486  -17.3927   28.6920 O   0  0  0  0  0  0  0  0  0  0  0  0
  2  1  1  6
  2  9  1  0
  3  2  1  0
  4  3  1  0
  5  4  2  0
  6  7  1  0
  6  5  1  0
  7  8  2  0
  8  4  1  0
  9 16  1  0
 10  9  2  0
 12 11  1  1
 12 13  1  0
 14 12  1  0
 15 14  1  1
 16 15  1  0
 17 19  1  0
 17 15  1  0
 18 17  2  0
 20 19  1  0
 20 23  1  0
 20 21  1  6
 22 21  1  0
 23 24  1  0
 25 23  2  0
M  END
$$$$
