HLC.pdb
     RDKit          3D

 25 25  0  0  1  0  0  0  0  0999 V2000
    7.5364  -15.9772   21.6274 N   0  0  0  0  0  0  0  0  0  0  0  0
    8.6755  -15.1283   21.8626 C   0  0  1  0  0  0  0  0  0  0  0  0
    8.5093  -13.7973   21.1601 C   0  0  0  0  0  0  0  0  0  0  0  0
    8.3691  -14.0056   19.6983 C   0  0  0  0  0  0  0  0  0  0  0  0
    9.0552  -14.9621   18.9925 C   0  0  0  0  0  0  0  0  0  0  0  0
    8.6724  -14.8505   17.7074 N   0  0  0  0  0  0  0  0  0  0  0  0
    7.7750  -13.8574   17.6044 C   0  0  0  0  0  0  0  0  0  0  0  0
    7.5844  -13.3297   18.8429 N   0  0  0  0  0  0  0  0  0  0  0  0
    8.8917  -14.8448   23.3021 C   0  0  0  0  0  0  0  0  0  0  0  0
    9.9529  -14.2566   23.6162 O   0  0  0  0  0  0  0  0  0  0  0  0
    5.6439  -12.1629   26.2850 C   0  0  0  0  0  0  0  0  0  0  0  0
    6.9108  -12.8390   25.7747 C   0  0  1  0  0  0  0  0  0  0  0  0
    8.0430  -11.9077   26.2680 C   0  0  0  0  0  0  0  0  0  0  0  0
    7.0821  -14.2098   26.3640 C   0  0  0  0  0  0  0  0  0  0  0  0
    8.2210  -14.9222   25.7284 C   0  0  2  0  0  0  0  0  0  0  0  0
    7.9837  -15.1952   24.3193 N   0  0  0  0  0  0  0  0  0  0  0  0
    8.4381  -16.2161   26.4059 C   0  0  0  0  0  0  0  0  0  0  0  0
    8.3860  -16.4120   27.6371 O   0  0  0  0  0  0  0  0  0  0  0  0
    8.7393  -17.3822   25.6159 N   0  0  0  0  0  0  0  0  0  0  0  0
    9.0073  -18.6429   26.2344 C   0  0  1  0  0  0  0  0  0  0  0  0
    8.0792  -19.7272   25.7336 C   0  0  0  0  0  0  0  0  0  0  0  0
    6.3532  -19.2288   25.7423 S   0  0  0  0  0  0  0  0  0  0  0  0
   10.3891  -19.0766   25.9637 C   0  0  0  0  0  0  0  0  0  0  0  0
   10.8869  -20.2778   26.4366 O   0  0  0  0  0  0  0  0  0  0  0  0
   11.1507  -18.3327   25.2780 O   0  0  0  0  0  0  0  0  0  0  0  0
  2  1  1  1
  2  9  1  0
  3  2  1  0
  4  3  1  0
  5  4  2  0
  6  7  1  0
  6  5  1  0
  7  8  2  0
  8  4  1  0
  9 16  1  0
 10  9  2  0
 12 11  1  1
 12 13  1  0
 14 12  1  0
 15 14  1  1
 16 15  1  0
 17 19  1  0
 17 15  1  0
 18 17  2  0
 20 19  1  0
 20 23  1  0
 20 21  1  6
 22 21  1  0
 23 24  1  0
 25 23  2  0
M  END
$$$$
