HLC.pdb
     RDKit          3D

 25 25  0  0  1  0  0  0  0  0999 V2000
    9.5285  -15.3900   20.7192 N   0  0  0  0  0  0  0  0  0  0  0  0
    8.5463  -15.8242   21.6785 C   0  0  1  0  0  0  0  0  0  0  0  0
    8.3616  -17.3258   21.6180 C   0  0  0  0  0  0  0  0  0  0  0  0
    7.7783  -17.7162   20.3113 C   0  0  0  0  0  0  0  0  0  0  0  0
    7.1870  -16.8329   19.4430 C   0  0  0  0  0  0  0  0  0  0  0  0
    6.7808  -17.5451   18.3760 N   0  0  0  0  0  0  0  0  0  0  0  0
    7.1044  -18.8344   18.5636 C   0  0  0  0  0  0  0  0  0  0  0  0
    7.7257  -18.9435   19.7681 N   0  0  0  0  0  0  0  0  0  0  0  0
    8.9156  -15.4797   23.0729 C   0  0  0  0  0  0  0  0  0  0  0  0
   10.1376  -15.4449   23.3490 O   0  0  0  0  0  0  0  0  0  0  0  0
    5.7049  -12.3637   26.3118 C   0  0  0  0  0  0  0  0  0  0  0  0
    6.8976  -13.0031   25.6110 C   0  0  1  0  0  0  0  0  0  0  0  0
    8.0292  -11.9660   25.8017 C   0  0  0  0  0  0  0  0  0  0  0  0
    7.2831  -14.3054   26.2522 C   0  0  0  0  0  0  0  0  0  0  0  0
    8.3561  -14.9814   25.4773 C   0  0  2  0  0  0  0  0  0  0  0  0
    7.9824  -15.1940   24.0876 N   0  0  0  0  0  0  0  0  0  0  0  0
    8.6419  -16.3022   26.0725 C   0  0  0  0  0  0  0  0  0  0  0  0
    7.8195  -17.2289   26.2194 O   0  0  0  0  0  0  0  0  0  0  0  0
    9.9741  -16.5906   26.5382 N   0  0  0  0  0  0  0  0  0  0  0  0
   10.2895  -17.8498   27.1369 C   0  0  1  0  0  0  0  0  0  0  0  0
   11.6312  -18.3748   26.6762 C   0  0  0  0  0  0  0  0  0  0  0  0
   11.9589  -18.0307   24.9436 S   0  0  0  0  0  0  0  0  0  0  0  0
   10.3339  -17.7359   28.6052 C   0  0  0  0  0  0  0  0  0  0  0  0
   10.6076  -18.8223   29.4171 O   0  0  0  0  0  0  0  0  0  0  0  0
   10.1159  -16.6129   29.1481 O   0  0  0  0  0  0  0  0  0  0  0  0
  2  1  1  6
  2  9  1  0
  3  2  1  0
  4  3  1  0
  5  4  2  0
  6  7  1  0
  6  5  1  0
  7  8  2  0
  8  4  1  0
  9 16  1  0
 10  9  2  0
 12 11  1  1
 12 13  1  0
 14 12  1  0
 15 14  1  1
 16 15  1  0
 17 19  1  0
 17 15  1  0
 18 17  2  0
 20 19  1  0
 20 23  1  0
 20 21  1  6
 22 21  1  0
 23 24  1  0
 25 23  2  0
M  END
$$$$
