HLC.pdb
     RDKit          3D

 25 25  0  0  1  0  0  0  0  0999 V2000
   10.1735  -15.6717   20.5323 N   0  0  0  0  0  0  0  0  0  0  0  0
    8.8911  -15.1977   20.9842 C   0  0  1  0  0  0  0  0  0  0  0  0
    7.7808  -16.1089   20.5051 C   0  0  0  0  0  0  0  0  0  0  0  0
    7.6316  -16.0016   19.0333 C   0  0  0  0  0  0  0  0  0  0  0  0
    8.2961  -15.0810   18.2621 C   0  0  0  0  0  0  0  0  0  0  0  0
    7.9113  -15.2858   16.9890 N   0  0  0  0  0  0  0  0  0  0  0  0
    7.0336  -16.3010   16.9568 C   0  0  0  0  0  0  0  0  0  0  0  0
    6.8577  -16.7485   18.2286 N   0  0  0  0  0  0  0  0  0  0  0  0
    8.7958  -15.1234   22.4623 C   0  0  0  0  0  0  0  0  0  0  0  0
    9.5497  -15.8760   23.1226 O   0  0  0  0  0  0  0  0  0  0  0  0
    8.1775  -12.2874   27.0673 C   0  0  0  0  0  0  0  0  0  0  0  0
    6.9365  -13.0171   26.5676 C   0  0  1  0  0  0  0  0  0  0  0  0
    5.7711  -12.1170   27.0413 C   0  0  0  0  0  0  0  0  0  0  0  0
    6.9237  -13.1252   25.0697 C   0  0  0  0  0  0  0  0  0  0  0  0
    7.9083  -14.1354   24.6021 C   0  0  2  0  0  0  0  0  0  0  0  0
    7.9180  -14.2667   23.1533 N   0  0  0  0  0  0  0  0  0  0  0  0
    7.5728  -15.4564   25.1703 C   0  0  0  0  0  0  0  0  0  0  0  0
    6.5325  -16.1058   24.9406 O   0  0  0  0  0  0  0  0  0  0  0  0
    8.4986  -16.0891   26.0743 N   0  0  0  0  0  0  0  0  0  0  0  0
    8.3444  -17.4604   26.4475 C   0  0  1  0  0  0  0  0  0  0  0  0
    8.4070  -18.3829   25.2504 C   0  0  0  0  0  0  0  0  0  0  0  0
    8.5399  -20.1149   25.7088 S   0  0  0  0  0  0  0  0  0  0  0  0
    9.4043  -17.8712   27.3848 C   0  0  0  0  0  0  0  0  0  0  0  0
   10.5765  -17.1503   27.5282 O   0  0  0  0  0  0  0  0  0  0  0  0
    9.2450  -18.9148   28.0841 O   0  0  0  0  0  0  0  0  0  0  0  0
  2  1  1  1
  2  9  1  0
  3  2  1  0
  4  3  1  0
  5  4  2  0
  6  7  1  0
  6  5  1  0
  7  8  2  0
  8  4  1  0
  9 16  1  0
 10  9  2  0
 12 11  1  6
 12 13  1  0
 14 12  1  0
 15 14  1  6
 16 15  1  0
 17 19  1  0
 17 15  1  0
 18 17  2  0
 20 19  1  0
 20 23  1  0
 20 21  1  6
 22 21  1  0
 23 24  1  0
 25 23  2  0
M  END
$$$$
