HLC.pdb
     RDKit          3D

 25 25  0  0  1  0  0  0  0  0999 V2000
   11.3050  -17.4337   16.5465 N   0  0  0  0  0  0  0  0  0  0  0  0
   10.1702  -17.5994   17.4172 C   0  0  1  0  0  0  0  0  0  0  0  0
    9.9801  -19.0565   17.7827 C   0  0  0  0  0  0  0  0  0  0  0  0
    9.5475  -19.8290   16.5926 C   0  0  0  0  0  0  0  0  0  0  0  0
    8.2693  -19.8122   16.0928 C   0  0  0  0  0  0  0  0  0  0  0  0
    8.2572  -20.6255   15.0209 N   0  0  0  0  0  0  0  0  0  0  0  0
    9.4857  -21.1388   14.8492 C   0  0  0  0  0  0  0  0  0  0  0  0
   10.2910  -20.6443   15.8267 N   0  0  0  0  0  0  0  0  0  0  0  0
   10.3036  -16.8394   18.6837 C   0  0  0  0  0  0  0  0  0  0  0  0
   11.4331  -16.8262   19.2266 O   0  0  0  0  0  0  0  0  0  0  0  0
    6.7271  -12.7486   19.8685 C   0  0  0  0  0  0  0  0  0  0  0  0
    7.9733  -13.5970   19.6456 C   0  0  1  0  0  0  0  0  0  0  0  0
    9.1075  -12.5517   19.5282 C   0  0  0  0  0  0  0  0  0  0  0  0
    8.2366  -14.5098   20.8088 C   0  0  0  0  0  0  0  0  0  0  0  0
    9.4001  -15.3935   20.5373 C   0  0  2  0  0  0  0  0  0  0  0  0
    9.2467  -16.1427   19.2998 N   0  0  0  0  0  0  0  0  0  0  0  0
    9.5510  -16.3681   21.6363 C   0  0  0  0  0  0  0  0  0  0  0  0
    9.0023  -17.4869   21.6989 O   0  0  0  0  0  0  0  0  0  0  0  0
   10.3964  -16.0409   22.7556 N   0  0  0  0  0  0  0  0  0  0  0  0
   10.5833  -16.9620   23.8327 C   0  0  1  0  0  0  0  0  0  0  0  0
   11.6734  -17.9673   23.5345 C   0  0  0  0  0  0  0  0  0  0  0  0
   13.2186  -17.1964   23.0387 S   0  0  0  0  0  0  0  0  0  0  0  0
   10.9543  -16.2537   25.0702 C   0  0  0  0  0  0  0  0  0  0  0  0
   11.1305  -16.9181   26.2710 O   0  0  0  0  0  0  0  0  0  0  0  0
   11.1187  -14.9984   25.0420 O   0  0  0  0  0  0  0  0  0  0  0  0
  2  1  1  6
  2  9  1  0
  3  2  1  0
  4  3  1  0
  5  4  2  0
  6  7  1  0
  6  5  1  0
  7  8  2  0
  8  4  1  0
  9 16  1  0
 10  9  2  0
 12 11  1  1
 12 13  1  0
 14 12  1  0
 15 14  1  1
 16 15  1  0
 17 19  1  0
 17 15  1  0
 18 17  2  0
 20 19  1  0
 20 23  1  0
 20 21  1  6
 22 21  1  0
 23 24  1  0
 25 23  2  0
M  END
$$$$
