HLC.pdb
     RDKit          3D

 25 25  0  0  1  0  0  0  0  0999 V2000
   10.6504  -16.1455   21.1595 N   0  0  0  0  0  0  0  0  0  0  0  0
    9.3785  -16.1939   21.8328 C   0  0  1  0  0  0  0  0  0  0  0  0
    8.9795  -17.6244   22.1280 C   0  0  0  0  0  0  0  0  0  0  0  0
    8.7369  -18.3583   20.8621 C   0  0  0  0  0  0  0  0  0  0  0  0
    8.5690  -17.7481   19.6442 C   0  0  0  0  0  0  0  0  0  0  0  0
    8.3731  -18.7254   18.7402 N   0  0  0  0  0  0  0  0  0  0  0  0
    8.4158  -19.9126   19.3653 C   0  0  0  0  0  0  0  0  0  0  0  0
    8.6423  -19.6867   20.6868 N   0  0  0  0  0  0  0  0  0  0  0  0
    9.3843  -15.4611   23.1222 C   0  0  0  0  0  0  0  0  0  0  0  0
   10.4954  -15.2833   23.6740 O   0  0  0  0  0  0  0  0  0  0  0  0
    7.9992  -11.5510   26.6076 C   0  0  0  0  0  0  0  0  0  0  0  0
    7.0752  -12.7626   26.5809 C   0  0  1  0  0  0  0  0  0  0  0  0
    5.6849  -12.1657   26.9029 C   0  0  0  0  0  0  0  0  0  0  0  0
    7.0527  -13.4114   25.2266 C   0  0  0  0  0  0  0  0  0  0  0  0
    8.2506  -14.2684   25.0287 C   0  0  2  0  0  0  0  0  0  0  0  0
    8.2274  -14.9621   23.7502 N   0  0  0  0  0  0  0  0  0  0  0  0
    8.3119  -15.2902   26.0928 C   0  0  0  0  0  0  0  0  0  0  0  0
    8.3840  -15.0636   27.3177 O   0  0  0  0  0  0  0  0  0  0  0  0
    8.2892  -16.6844   25.7317 N   0  0  0  0  0  0  0  0  0  0  0  0
    8.2199  -17.7041   26.7313 C   0  0  1  0  0  0  0  0  0  0  0  0
    7.2436  -18.7972   26.3573 C   0  0  0  0  0  0  0  0  0  0  0  0
    7.8087  -19.7963   24.9752 S   0  0  0  0  0  0  0  0  0  0  0  0
    9.5378  -18.3311   26.9331 C   0  0  0  0  0  0  0  0  0  0  0  0
    9.7567  -19.2771   27.9187 O   0  0  0  0  0  0  0  0  0  0  0  0
   10.5046  -17.9994   26.1857 O   0  0  0  0  0  0  0  0  0  0  0  0
  2  1  1  1
  2  9  1  0
  3  2  1  0
  4  3  1  0
  5  4  2  0
  6  7  1  0
  6  5  1  0
  7  8  2  0
  8  4  1  0
  9 16  1  0
 10  9  2  0
 12 11  1  6
 12 13  1  0
 14 12  1  0
 15 14  1  1
 16 15  1  0
 17 19  1  0
 17 15  1  0
 18 17  2  0
 20 19  1  0
 20 23  1  0
 20 21  1  6
 22 21  1  0
 23 24  1  0
 25 23  2  0
M  END
$$$$
