HLC.pdb
     RDKit          3D

 25 25  0  0  1  0  0  0  0  0999 V2000
   10.6704  -15.3044   21.9634 N   0  0  0  0  0  0  0  0  0  0  0  0
    9.3831  -14.8267   22.3973 C   0  0  1  0  0  0  0  0  0  0  0  0
    8.2729  -15.4529   21.5800 C   0  0  0  0  0  0  0  0  0  0  0  0
    8.0528  -14.6744   20.3367 C   0  0  0  0  0  0  0  0  0  0  0  0
    8.8516  -13.6333   19.9345 C   0  0  0  0  0  0  0  0  0  0  0  0
    8.3465  -13.1781   18.7733 N   0  0  0  0  0  0  0  0  0  0  0  0
    7.2655  -13.9066   18.4527 C   0  0  0  0  0  0  0  0  0  0  0  0
    7.0805  -14.8391   19.4247 N   0  0  0  0  0  0  0  0  0  0  0  0
    9.1092  -15.1314   23.8225 C   0  0  0  0  0  0  0  0  0  0  0  0
   10.0385  -15.6486   24.4857 O   0  0  0  0  0  0  0  0  0  0  0  0
    5.5357  -11.9055   26.4801 C   0  0  0  0  0  0  0  0  0  0  0  0
    6.7474  -12.7391   26.0811 C   0  0  1  0  0  0  0  0  0  0  0  0
    7.8849  -12.1702   26.9616 C   0  0  0  0  0  0  0  0  0  0  0  0
    6.5423  -14.1951   26.3873 C   0  0  0  0  0  0  0  0  0  0  0  0
    7.6865  -15.0069   25.8969 C   0  0  2  0  0  0  0  0  0  0  0  0
    7.8811  -14.8752   24.4613 N   0  0  0  0  0  0  0  0  0  0  0  0
    7.4442  -16.4340   26.1881 C   0  0  0  0  0  0  0  0  0  0  0  0
    7.0147  -16.8956   27.2649 O   0  0  0  0  0  0  0  0  0  0  0  0
    7.7132  -17.4156   25.1689 N   0  0  0  0  0  0  0  0  0  0  0  0
    7.6143  -18.8142   25.4476 C   0  0  1  0  0  0  0  0  0  0  0  0
    7.5600  -19.6407   24.1819 C   0  0  0  0  0  0  0  0  0  0  0  0
    9.0933  -19.5891   23.2471 S   0  0  0  0  0  0  0  0  0  0  0  0
    8.7719  -19.2755   26.2337 C   0  0  0  0  0  0  0  0  0  0  0  0
    8.8676  -20.5722   26.7066 O   0  0  0  0  0  0  0  0  0  0  0  0
    9.7120  -18.4663   26.4885 O   0  0  0  0  0  0  0  0  0  0  0  0
  2  1  1  6
  2  9  1  0
  3  2  1  0
  4  3  1  0
  5  4  2  0
  6  7  1  0
  6  5  1  0
  7  8  2  0
  8  4  1  0
  9 16  1  0
 10  9  2  0
 12 11  1  1
 12 13  1  0
 14 12  1  0
 15 14  1  6
 16 15  1  0
 17 19  1  0
 17 15  1  0
 18 17  2  0
 20 19  1  0
 20 23  1  0
 20 21  1  6
 22 21  1  0
 23 24  1  0
 25 23  2  0
M  END
$$$$
