HLC.pdb
     RDKit          3D

 25 25  0  0  1  0  0  0  0  0999 V2000
    9.5194  -15.5041   20.5883 N   0  0  0  0  0  0  0  0  0  0  0  0
    8.3527  -15.7047   21.4080 C   0  0  1  0  0  0  0  0  0  0  0  0
    7.8200  -17.1133   21.2511 C   0  0  0  0  0  0  0  0  0  0  0  0
    7.4327  -17.3584   19.8404 C   0  0  0  0  0  0  0  0  0  0  0  0
    7.6953  -16.4875   18.8126 C   0  0  0  0  0  0  0  0  0  0  0  0
    7.2000  -17.0436   17.6918 N   0  0  0  0  0  0  0  0  0  0  0  0
    6.6434  -18.2255   18.0008 C   0  0  0  0  0  0  0  0  0  0  0  0
    6.7870  -18.4238   19.3382 N   0  0  0  0  0  0  0  0  0  0  0  0
    8.6223  -15.4918   22.8507 C   0  0  0  0  0  0  0  0  0  0  0  0
    9.7704  -15.7751   23.2659 O   0  0  0  0  0  0  0  0  0  0  0  0
    5.6904  -11.8915   26.0192 C   0  0  0  0  0  0  0  0  0  0  0  0
    6.8566  -12.6672   25.4186 C   0  0  1  0  0  0  0  0  0  0  0  0
    8.1020  -11.9217   25.9535 C   0  0  0  0  0  0  0  0  0  0  0  0
    6.8727  -14.0936   25.8883 C   0  0  0  0  0  0  0  0  0  0  0  0
    7.9310  -14.8701   25.1912 C   0  0  2  0  0  0  0  0  0  0  0  0
    7.6734  -14.9965   23.7651 N   0  0  0  0  0  0  0  0  0  0  0  0
    8.0022  -16.2321   25.7571 C   0  0  0  0  0  0  0  0  0  0  0  0
    7.0630  -17.0522   25.8035 O   0  0  0  0  0  0  0  0  0  0  0  0
    9.2454  -16.6977   26.3158 N   0  0  0  0  0  0  0  0  0  0  0  0
    9.3585  -18.0098   26.8721 C   0  0  1  0  0  0  0  0  0  0  0  0
   10.2114  -18.9167   26.0131 C   0  0  0  0  0  0  0  0  0  0  0  0
   11.7042  -18.1142   25.4172 S   0  0  0  0  0  0  0  0  0  0  0  0
    9.9677  -17.9603   28.2126 C   0  0  0  0  0  0  0  0  0  0  0  0
   10.4274  -16.7786   28.7662 O   0  0  0  0  0  0  0  0  0  0  0  0
   10.0776  -19.0278   28.8848 O   0  0  0  0  0  0  0  0  0  0  0  0
  2  1  1  6
  2  9  1  0
  3  2  1  0
  4  3  1  0
  5  4  2  0
  6  7  1  0
  6  5  1  0
  7  8  2  0
  8  4  1  0
  9 16  1  0
 10  9  2  0
 12 11  1  1
 12 13  1  0
 14 12  1  0
 15 14  1  1
 16 15  1  0
 17 19  1  0
 17 15  1  0
 18 17  2  0
 20 19  1  0
 20 23  1  0
 20 21  1  6
 22 21  1  0
 23 24  1  0
 25 23  2  0
M  END
$$$$
