HLC.pdb
     RDKit          3D

 25 25  0  0  1  0  0  0  0  0999 V2000
   10.3417  -15.2923   21.6683 N   0  0  0  0  0  0  0  0  0  0  0  0
    9.1486  -14.6862   22.1998 C   0  0  1  0  0  0  0  0  0  0  0  0
    7.9253  -15.1426   21.4331 C   0  0  0  0  0  0  0  0  0  0  0  0
    7.8824  -14.4872   20.1032 C   0  0  0  0  0  0  0  0  0  0  0  0
    8.3485  -13.2195   19.8596 C   0  0  0  0  0  0  0  0  0  0  0  0
    8.1432  -12.9709   18.5532 N   0  0  0  0  0  0  0  0  0  0  0  0
    7.5670  -14.0449   17.9904 C   0  0  0  0  0  0  0  0  0  0  0  0
    7.4036  -14.9905   18.9535 N   0  0  0  0  0  0  0  0  0  0  0  0
    8.9247  -15.0174   23.6279 C   0  0  0  0  0  0  0  0  0  0  0  0
    9.8784  -15.5414   24.2498 O   0  0  0  0  0  0  0  0  0  0  0  0
    5.7420  -11.7450   26.6151 C   0  0  0  0  0  0  0  0  0  0  0  0
    6.8936  -12.6630   26.2232 C   0  0  1  0  0  0  0  0  0  0  0  0
    7.9891  -12.3355   27.2650 C   0  0  0  0  0  0  0  0  0  0  0  0
    6.5065  -14.1105   26.3250 C   0  0  0  0  0  0  0  0  0  0  0  0
    7.5595  -14.9836   25.7440 C   0  0  2  0  0  0  0  0  0  0  0  0
    7.7179  -14.7789   24.3125 N   0  0  0  0  0  0  0  0  0  0  0  0
    7.2040  -16.4007   25.9581 C   0  0  0  0  0  0  0  0  0  0  0  0
    6.9453  -16.9291   27.0585 O   0  0  0  0  0  0  0  0  0  0  0  0
    7.1378  -17.2884   24.8257 N   0  0  0  0  0  0  0  0  0  0  0  0
    6.8395  -18.6764   24.9931 C   0  0  1  0  0  0  0  0  0  0  0  0
    6.1844  -19.2664   23.7640 C   0  0  0  0  0  0  0  0  0  0  0  0
    6.3533  -18.2215   22.3123 S   0  0  0  0  0  0  0  0  0  0  0  0
    8.0659  -19.4479   25.2604 C   0  0  0  0  0  0  0  0  0  0  0  0
    8.0296  -20.7890   25.5987 O   0  0  0  0  0  0  0  0  0  0  0  0
    9.1913  -18.8731   25.1800 O   0  0  0  0  0  0  0  0  0  0  0  0
  2  1  1  6
  2  9  1  0
  3  2  1  0
  4  3  1  0
  5  4  2  0
  6  7  1  0
  6  5  1  0
  7  8  2  0
  8  4  1  0
  9 16  1  0
 10  9  2  0
 12 11  1  1
 12 13  1  0
 14 12  1  0
 15 14  1  6
 16 15  1  0
 17 19  1  0
 17 15  1  0
 18 17  2  0
 20 19  1  0
 20 23  1  0
 20 21  1  6
 22 21  1  0
 23 24  1  0
 25 23  2  0
M  END
$$$$
