HLC.pdb
     RDKit          3D

 25 25  0  0  1  0  0  0  0  0999 V2000
   10.3430  -15.2878   20.1701 N   0  0  0  0  0  0  0  0  0  0  0  0
    9.0298  -15.1110   20.7336 C   0  0  1  0  0  0  0  0  0  0  0  0
    8.1506  -16.3073   20.4361 C   0  0  0  0  0  0  0  0  0  0  0  0
    7.7290  -16.2900   19.0141 C   0  0  0  0  0  0  0  0  0  0  0  0
    8.1826  -15.3795   18.0927 C   0  0  0  0  0  0  0  0  0  0  0  0
    7.5858  -15.6749   16.9235 N   0  0  0  0  0  0  0  0  0  0  0  0
    6.7824  -16.7358   17.0999 C   0  0  0  0  0  0  0  0  0  0  0  0
    6.8699  -17.1208   18.4010 N   0  0  0  0  0  0  0  0  0  0  0  0
    9.0566  -14.9369   22.2061 C   0  0  0  0  0  0  0  0  0  0  0  0
   10.0654  -15.3648   22.8144 O   0  0  0  0  0  0  0  0  0  0  0  0
    8.1355  -12.1186   26.7374 C   0  0  0  0  0  0  0  0  0  0  0  0
    7.0465  -13.1220   26.3774 C   0  0  1  0  0  0  0  0  0  0  0  0
    5.7535  -12.4606   26.9095 C   0  0  0  0  0  0  0  0  0  0  0  0
    6.9463  -13.3206   24.8921 C   0  0  0  0  0  0  0  0  0  0  0  0
    8.0973  -14.1111   24.3833 C   0  0  2  0  0  0  0  0  0  0  0  0
    8.0264  -14.3266   22.9464 N   0  0  0  0  0  0  0  0  0  0  0  0
    8.1172  -15.4358   25.0355 C   0  0  0  0  0  0  0  0  0  0  0  0
    7.1875  -16.2679   25.0241 O   0  0  0  0  0  0  0  0  0  0  0  0
    9.2927  -15.8458   25.7598 N   0  0  0  0  0  0  0  0  0  0  0  0
    9.3873  -17.1517   26.3335 C   0  0  1  0  0  0  0  0  0  0  0  0
   10.4313  -17.9995   25.6411 C   0  0  0  0  0  0  0  0  0  0  0  0
   10.1261  -18.1842   23.8803 S   0  0  0  0  0  0  0  0  0  0  0  0
    9.7489  -17.0730   27.7597 C   0  0  0  0  0  0  0  0  0  0  0  0
    9.8450  -18.2009   28.5553 O   0  0  0  0  0  0  0  0  0  0  0  0
    9.9802  -15.9423   28.2804 O   0  0  0  0  0  0  0  0  0  0  0  0
  2  1  1  1
  2  9  1  0
  3  2  1  0
  4  3  1  0
  5  4  2  0
  6  7  1  0
  6  5  1  0
  7  8  2  0
  8  4  1  0
  9 16  1  0
 10  9  2  0
 12 11  1  6
 12 13  1  0
 14 12  1  0
 15 14  1  1
 16 15  1  0
 17 19  1  0
 17 15  1  0
 18 17  2  0
 20 19  1  0
 20 23  1  0
 20 21  1  6
 22 21  1  0
 23 24  1  0
 25 23  2  0
M  END
$$$$
