HLC.pdb
     RDKit          3D

 25 25  0  0  1  0  0  0  0  0999 V2000
    7.4303  -15.7682   21.3094 N   0  0  0  0  0  0  0  0  0  0  0  0
    8.7561  -15.2978   21.6164 C   0  0  1  0  0  0  0  0  0  0  0  0
    9.0162  -13.9565   20.9638 C   0  0  0  0  0  0  0  0  0  0  0  0
    8.5809  -13.9856   19.5461 C   0  0  0  0  0  0  0  0  0  0  0  0
    8.0500  -15.0920   18.9314 C   0  0  0  0  0  0  0  0  0  0  0  0
    7.7778  -14.7414   17.6611 N   0  0  0  0  0  0  0  0  0  0  0  0
    8.1248  -13.4575   17.4792 C   0  0  0  0  0  0  0  0  0  0  0  0
    8.6252  -12.9845   18.6516 N   0  0  0  0  0  0  0  0  0  0  0  0
    8.9828  -15.1326   23.0727 C   0  0  0  0  0  0  0  0  0  0  0  0
   10.1443  -14.8396   23.4411 O   0  0  0  0  0  0  0  0  0  0  0  0
    5.8421  -12.4998   26.5900 C   0  0  0  0  0  0  0  0  0  0  0  0
    7.0271  -13.1527   25.8887 C   0  0  1  0  0  0  0  0  0  0  0  0
    8.2466  -12.3753   26.4373 C   0  0  0  0  0  0  0  0  0  0  0  0
    7.1461  -14.6076   26.2420 C   0  0  0  0  0  0  0  0  0  0  0  0
    8.2467  -15.2509   25.4782 C   0  0  2  0  0  0  0  0  0  0  0  0
    7.9797  -15.2847   24.0486 N   0  0  0  0  0  0  0  0  0  0  0  0
    8.4205  -16.6441   25.9355 C   0  0  0  0  0  0  0  0  0  0  0  0
    7.5070  -17.4094   26.3051 O   0  0  0  0  0  0  0  0  0  0  0  0
    9.7438  -17.2118   25.9748 N   0  0  0  0  0  0  0  0  0  0  0  0
    9.9581  -18.5524   26.4226 C   0  0  1  0  0  0  0  0  0  0  0  0
   10.6984  -19.3802   25.3957 C   0  0  0  0  0  0  0  0  0  0  0  0
   11.7001  -18.3843   24.2855 S   0  0  0  0  0  0  0  0  0  0  0  0
   10.7487  -18.5700   27.6657 C   0  0  0  0  0  0  0  0  0  0  0  0
   11.2817  -17.4161   28.2124 O   0  0  0  0  0  0  0  0  0  0  0  0
   10.9510  -19.6709   28.2578 O   0  0  0  0  0  0  0  0  0  0  0  0
  2  1  1  1
  2  9  1  0
  3  2  1  0
  4  3  1  0
  5  4  2  0
  6  7  1  0
  6  5  1  0
  7  8  2  0
  8  4  1  0
  9 16  1  0
 10  9  2  0
 12 11  1  1
 12 13  1  0
 14 12  1  0
 15 14  1  1
 16 15  1  0
 17 19  1  0
 17 15  1  0
 18 17  2  0
 20 19  1  0
 20 23  1  0
 20 21  1  6
 22 21  1  0
 23 24  1  0
 25 23  2  0
M  END
$$$$
