YLH.pdb
     RDKit          3D

 31 32  0  0  1  0  0  0  0  0999 V2000
   22.5436  -27.7829  -14.8937 O   0  0  0  0  0  0  0  0  0  0  0  0
   22.8402  -26.4355  -14.6068 C   0  0  0  0  0  0  0  0  0  0  0  0
   22.2108  -25.4065  -15.2527 C   0  0  0  0  0  0  0  0  0  0  0  0
   22.5190  -24.0826  -14.9538 C   0  0  0  0  0  0  0  0  0  0  0  0
   23.4626  -23.7634  -14.0035 C   0  0  0  0  0  0  0  0  0  0  0  0
   23.8031  -22.3691  -13.6727 C   0  0  0  0  0  0  0  0  0  0  0  0
   24.8146  -21.7685  -14.6213 C   0  0  2  0  0  0  0  0  0  0  0  0
   26.1233  -22.3173  -14.4703 N   0  0  0  0  0  0  0  0  0  0  0  0
   24.8569  -20.3114  -14.3512 C   0  0  0  0  0  0  0  0  0  0  0  0
   25.2132  -19.9265  -13.2082 O   0  0  0  0  0  0  0  0  0  0  0  0
   24.0878  -24.8081  -13.3617 C   0  0  0  0  0  0  0  0  0  0  0  0
   23.7853  -26.1328  -13.6548 C   0  0  0  0  0  0  0  0  0  0  0  0
   27.5195  -18.2661  -15.3251 C   0  0  0  0  0  0  0  0  0  0  0  0
   26.5256  -17.9481  -16.4631 C   0  0  2  0  0  0  0  0  0  0  0  0
   27.2636  -17.3589  -17.6095 C   0  0  0  0  0  0  0  0  0  0  0  0
   25.3991  -17.1672  -15.8822 C   0  0  0  0  0  0  0  0  0  0  0  0
   24.5233  -17.9590  -14.9998 C   0  0  2  0  0  0  0  0  0  0  0  0
   24.5081  -19.3480  -15.3427 N   0  0  0  0  0  0  0  0  0  0  0  0
   23.1083  -17.4802  -15.0112 C   0  0  0  0  0  0  0  0  0  0  0  0
   22.8590  -16.2840  -14.7854 O   0  0  0  0  0  0  0  0  0  0  0  0
   21.9950  -18.3540  -15.2765 N   0  0  0  0  0  0  0  0  0  0  0  0
   20.6343  -17.8960  -15.1825 C   0  0  1  0  0  0  0  0  0  0  0  0
   19.8315  -17.9702  -16.4212 C   0  0  0  0  0  0  0  0  0  0  0  0
   20.2811  -17.1710  -17.5587 C   0  0  0  0  0  0  0  0  0  0  0  0
   20.7808  -15.9118  -17.7015 C   0  0  0  0  0  0  0  0  0  0  0  0
   21.0525  -15.6852  -18.9918 N   0  0  0  0  0  0  0  0  0  0  0  0
   20.7363  -16.7751  -19.6732 C   0  0  0  0  0  0  0  0  0  0  0  0
   20.2695  -17.6810  -18.8235 N   0  0  0  0  0  0  0  0  0  0  0  0
   19.9356  -18.5424  -14.0188 C   0  0  0  0  0  0  0  0  0  0  0  0
   18.6304  -18.2106  -13.7270 O   0  0  0  0  0  0  0  0  0  0  0  0
   20.5228  -19.3787  -13.3101 O   0  0  0  0  0  0  0  0  0  0  0  0
  2 12  2  0
  2  1  1  0
  3  2  1  0
  4  5  1  0
  4  3  2  0
  5 11  2  0
  6  7  1  0
  6  5  1  0
  7  9  1  0
  7  8  1  1
  9 10  2  0
 11 12  1  0
 14 13  1  1
 14 16  1  0
 14 15  1  0
 17 16  1  6
 18 17  1  0
 18  9  1  0
 19 21  1  0
 19 17  1  0
 20 19  2  0
 22 21  1  0
 22 23  1  6
 23 24  1  0
 24 28  1  0
 25 24  2  0
 25 26  1  0
 26 27  1  0
 28 27  2  0
 29 22  1  0
 30 29  1  0
 31 29  2  0
M  END
$$$$
