YLH.pdb
     RDKit          3D

 31 32  0  0  1  0  0  0  0  0999 V2000
   23.3759  -13.6374  -20.2380 O   0  0  0  0  0  0  0  0  0  0  0  0
   23.3285  -14.7899  -19.4286 C   0  0  0  0  0  0  0  0  0  0  0  0
   23.5382  -14.7300  -18.0778 C   0  0  0  0  0  0  0  0  0  0  0  0
   23.4867  -15.8809  -17.2969 C   0  0  0  0  0  0  0  0  0  0  0  0
   23.2246  -17.1129  -17.8525 C   0  0  0  0  0  0  0  0  0  0  0  0
   23.1658  -18.3425  -17.0436 C   0  0  0  0  0  0  0  0  0  0  0  0
   24.4877  -19.0723  -16.9839 C   0  0  2  0  0  0  0  0  0  0  0  0
   24.8162  -19.7427  -18.2003 N   0  0  0  0  0  0  0  0  0  0  0  0
   24.3915  -20.0633  -15.8853 C   0  0  0  0  0  0  0  0  0  0  0  0
   24.1198  -21.2555  -16.1793 O   0  0  0  0  0  0  0  0  0  0  0  0
   23.0157  -17.1585  -19.2121 C   0  0  0  0  0  0  0  0  0  0  0  0
   23.0654  -16.0134  -19.9986 C   0  0  0  0  0  0  0  0  0  0  0  0
   26.8779  -22.2690  -14.1773 C   0  0  0  0  0  0  0  0  0  0  0  0
   26.9769  -20.9418  -13.3946 C   0  0  2  0  0  0  0  0  0  0  0  0
   28.2462  -20.9197  -12.6235 C   0  0  0  0  0  0  0  0  0  0  0  0
   25.7028  -20.7547  -12.6476 C   0  0  0  0  0  0  0  0  0  0  0  0
   24.5103  -20.7139  -13.5130 C   0  0  2  0  0  0  0  0  0  0  0  0
   24.5967  -19.7025  -14.5214 N   0  0  0  0  0  0  0  0  0  0  0  0
   23.2500  -20.4750  -12.7472 C   0  0  0  0  0  0  0  0  0  0  0  0
   23.2759  -19.7837  -11.7150 O   0  0  0  0  0  0  0  0  0  0  0  0
   21.9797  -21.0172  -13.1540 N   0  0  0  0  0  0  0  0  0  0  0  0
   20.7794  -20.2240  -13.1421 C   0  0  1  0  0  0  0  0  0  0  0  0
   20.8943  -18.8548  -13.6867 C   0  0  0  0  0  0  0  0  0  0  0  0
   19.6780  -18.0461  -13.7256 C   0  0  0  0  0  0  0  0  0  0  0  0
   18.3863  -18.2472  -13.3424 C   0  0  0  0  0  0  0  0  0  0  0  0
   17.6713  -17.1447  -13.5941 N   0  0  0  0  0  0  0  0  0  0  0  0
   18.4821  -16.2456  -14.1294 C   0  0  0  0  0  0  0  0  0  0  0  0
   19.6964  -16.7735  -14.2156 N   0  0  0  0  0  0  0  0  0  0  0  0
   19.6362  -20.9811  -13.7583 C   0  0  0  0  0  0  0  0  0  0  0  0
   18.3401  -20.5594  -13.5551 O   0  0  0  0  0  0  0  0  0  0  0  0
   19.8445  -21.9906  -14.4542 O   0  0  0  0  0  0  0  0  0  0  0  0
  2 12  2  0
  2  1  1  0
  3  2  1  0
  4  5  1  0
  4  3  2  0
  5 11  2  0
  6  7  1  0
  6  5  1  0
  7  9  1  0
  7  8  1  6
  9 10  2  0
 11 12  1  0
 14 13  1  1
 14 16  1  0
 14 15  1  0
 17 16  1  1
 18 17  1  0
 18  9  1  0
 19 21  1  0
 19 17  1  0
 20 19  2  0
 22 21  1  0
 22 23  1  6
 23 24  1  0
 24 28  1  0
 25 24  2  0
 25 26  1  0
 26 27  1  0
 28 27  2  0
 29 22  1  0
 30 29  1  0
 31 29  2  0
M  END
$$$$
