YLH.pdb
     RDKit          3D

 31 32  0  0  1  0  0  0  0  0999 V2000
   24.3414  -15.0094  -24.9827 O   0  0  0  0  0  0  0  0  0  0  0  0
   24.2287  -15.8209  -23.8362 C   0  0  0  0  0  0  0  0  0  0  0  0
   23.6281  -17.0495  -23.8801 C   0  0  0  0  0  0  0  0  0  0  0  0
   23.5275  -17.8350  -22.7356 C   0  0  0  0  0  0  0  0  0  0  0  0
   24.0256  -17.4061  -21.5259 C   0  0  0  0  0  0  0  0  0  0  0  0
   23.9291  -18.2220  -20.3034 C   0  0  0  0  0  0  0  0  0  0  0  0
   25.2789  -18.6159  -19.7498 C   0  0  2  0  0  0  0  0  0  0  0  0
   26.0134  -19.4787  -20.6176 N   0  0  0  0  0  0  0  0  0  0  0  0
   25.0388  -19.3037  -18.4585 C   0  0  0  0  0  0  0  0  0  0  0  0
   25.0750  -20.5605  -18.4361 O   0  0  0  0  0  0  0  0  0  0  0  0
   24.6270  -16.1685  -21.4962 C   0  0  0  0  0  0  0  0  0  0  0  0
   24.7313  -15.3784  -22.6351 C   0  0  0  0  0  0  0  0  0  0  0  0
   27.5527  -19.6969  -15.4779 C   0  0  0  0  0  0  0  0  0  0  0  0
   26.8521  -18.3421  -15.2376 C   0  0  2  0  0  0  0  0  0  0  0  0
   27.6374  -17.5502  -14.2566 C   0  0  0  0  0  0  0  0  0  0  0  0
   25.4214  -18.6150  -14.9293 C   0  0  0  0  0  0  0  0  0  0  0  0
   24.7013  -19.2983  -16.0189 C   0  0  2  0  0  0  0  0  0  0  0  0
   24.7713  -18.5844  -17.2569 N   0  0  0  0  0  0  0  0  0  0  0  0
   23.2561  -19.5143  -15.7085 C   0  0  0  0  0  0  0  0  0  0  0  0
   22.9300  -20.1092  -14.6675 O   0  0  0  0  0  0  0  0  0  0  0  0
   22.1995  -19.0579  -16.5737 N   0  0  0  0  0  0  0  0  0  0  0  0
   20.8144  -19.3027  -16.2708 C   0  0  1  0  0  0  0  0  0  0  0  0
   19.8813  -18.1850  -16.5248 C   0  0  0  0  0  0  0  0  0  0  0  0
   20.1509  -16.9205  -15.8441 C   0  0  0  0  0  0  0  0  0  0  0  0
   21.0198  -16.5274  -14.8714 C   0  0  0  0  0  0  0  0  0  0  0  0
   20.8540  -15.2222  -14.6284 N   0  0  0  0  0  0  0  0  0  0  0  0
   19.8972  -14.7765  -15.4273 C   0  0  0  0  0  0  0  0  0  0  0  0
   19.4625  -15.7885  -16.1673 N   0  0  0  0  0  0  0  0  0  0  0  0
   20.3490  -20.5813  -16.9098 C   0  0  0  0  0  0  0  0  0  0  0  0
   19.0608  -21.0259  -16.7051 O   0  0  0  0  0  0  0  0  0  0  0  0
   21.1153  -21.2491  -17.6263 O   0  0  0  0  0  0  0  0  0  0  0  0
  2 12  2  0
  2  1  1  0
  3  2  1  0
  4  5  1  0
  4  3  2  0
  5 11  2  0
  6  7  1  0
  6  5  1  0
  7  9  1  0
  7  8  1  6
  9 10  2  0
 11 12  1  0
 14 13  1  1
 14 16  1  0
 14 15  1  0
 17 16  1  1
 18 17  1  0
 18  9  1  0
 19 21  1  0
 19 17  1  0
 20 19  2  0
 22 21  1  0
 22 23  1  6
 23 24  1  0
 24 28  1  0
 25 24  2  0
 25 26  1  0
 26 27  1  0
 28 27  2  0
 29 22  1  0
 30 29  1  0
 31 29  2  0
M  END
$$$$
