YLH.pdb
     RDKit          3D

 31 32  0  0  1  0  0  0  0  0999 V2000
   16.0683  -12.4151  -22.2574 O   0  0  0  0  0  0  0  0  0  0  0  0
   16.7909  -11.8193  -21.2045 C   0  0  0  0  0  0  0  0  0  0  0  0
   17.1462  -12.5234  -20.0864 C   0  0  0  0  0  0  0  0  0  0  0  0
   17.8601  -11.9152  -19.0581 C   0  0  0  0  0  0  0  0  0  0  0  0
   18.2319  -10.5916  -19.1290 C   0  0  0  0  0  0  0  0  0  0  0  0
   18.9875   -9.9295  -18.0518 C   0  0  0  0  0  0  0  0  0  0  0  0
   20.4836   -9.9982  -18.2531 C   0  0  2  0  0  0  0  0  0  0  0  0
   21.0128  -11.3145  -18.0974 N   0  0  0  0  0  0  0  0  0  0  0  0
   21.1020   -9.0966  -17.2518 C   0  0  0  0  0  0  0  0  0  0  0  0
   21.4380   -9.5800  -16.1406 O   0  0  0  0  0  0  0  0  0  0  0  0
   17.8681   -9.8955  -20.2591 C   0  0  0  0  0  0  0  0  0  0  0  0
   17.1550  -10.4960  -21.2903 C   0  0  0  0  0  0  0  0  0  0  0  0
   23.6709   -3.5489  -16.6967 C   0  0  0  0  0  0  0  0  0  0  0  0
   23.1448   -4.8140  -15.9850 C   0  0  2  0  0  0  0  0  0  0  0  0
   24.1718   -5.3036  -15.0301 C   0  0  0  0  0  0  0  0  0  0  0  0
   22.6559   -5.7565  -17.0286 C   0  0  0  0  0  0  0  0  0  0  0  0
   21.8844   -6.8899  -16.4876 C   0  0  2  0  0  0  0  0  0  0  0  0
   21.3223   -7.7127  -17.5144 N   0  0  0  0  0  0  0  0  0  0  0  0
   20.7642   -6.4541  -15.6007 C   0  0  0  0  0  0  0  0  0  0  0  0
   19.7778   -5.8777  -16.0893 O   0  0  0  0  0  0  0  0  0  0  0  0
   20.7703   -6.6729  -14.1776 N   0  0  0  0  0  0  0  0  0  0  0  0
   19.6430   -6.3260  -13.3536 C   0  0  1  0  0  0  0  0  0  0  0  0
   19.2830   -7.2934  -12.2958 C   0  0  0  0  0  0  0  0  0  0  0  0
   18.2402   -6.8962  -11.3526 C   0  0  0  0  0  0  0  0  0  0  0  0
   17.4885   -5.7734  -11.1793 C   0  0  0  0  0  0  0  0  0  0  0  0
   16.6506   -5.9539  -10.1519 N   0  0  0  0  0  0  0  0  0  0  0  0
   16.8537   -7.1692   -9.6680 C   0  0  0  0  0  0  0  0  0  0  0  0
   17.8094   -7.7510  -10.3813 N   0  0  0  0  0  0  0  0  0  0  0  0
   19.7887   -4.9303  -12.8145 C   0  0  0  0  0  0  0  0  0  0  0  0
   20.9837   -4.2582  -12.9537 O   0  0  0  0  0  0  0  0  0  0  0  0
   18.8393   -4.3687  -12.2403 O   0  0  0  0  0  0  0  0  0  0  0  0
  2 12  2  0
  2  1  1  0
  3  2  1  0
  4  5  1  0
  4  3  2  0
  5 11  2  0
  6  7  1  0
  6  5  1  0
  7  9  1  0
  7  8  1  1
  9 10  2  0
 11 12  1  0
 14 13  1  6
 14 16  1  0
 14 15  1  0
 17 16  1  6
 18 17  1  0
 18  9  1  0
 19 21  1  0
 19 17  1  0
 20 19  2  0
 22 21  1  0
 22 23  1  1
 23 24  1  0
 24 28  1  0
 25 24  2  0
 25 26  1  0
 26 27  1  0
 28 27  2  0
 29 22  1  0
 30 29  1  0
 31 29  2  0
M  END
$$$$
