YLH.pdb
     RDKit          3D

 31 32  0  0  1  0  0  0  0  0999 V2000
   29.4428  -15.3351  -18.9290 O   0  0  0  0  0  0  0  0  0  0  0  0
   28.6018  -16.2113  -18.2144 C   0  0  0  0  0  0  0  0  0  0  0  0
   28.4588  -16.1244  -16.8564 C   0  0  0  0  0  0  0  0  0  0  0  0
   27.6227  -17.0002  -16.1703 C   0  0  0  0  0  0  0  0  0  0  0  0
   26.9141  -17.9792  -16.8296 C   0  0  0  0  0  0  0  0  0  0  0  0
   26.0242  -18.9157  -16.1220 C   0  0  0  0  0  0  0  0  0  0  0  0
   26.7739  -20.0216  -15.4160 C   0  0  2  0  0  0  0  0  0  0  0  0
   27.4726  -20.8878  -16.3096 N   0  0  0  0  0  0  0  0  0  0  0  0
   25.7771  -20.8056  -14.6481 C   0  0  0  0  0  0  0  0  0  0  0  0
   25.2062  -21.7688  -15.2206 O   0  0  0  0  0  0  0  0  0  0  0  0
   27.0673  -18.0553  -18.1952 C   0  0  0  0  0  0  0  0  0  0  0  0
   27.9005  -17.1842  -18.8875 C   0  0  0  0  0  0  0  0  0  0  0  0
   27.1277  -20.5709  -11.0182 C   0  0  0  0  0  0  0  0  0  0  0  0
   25.6520  -20.3966  -10.5991 C   0  0  2  0  0  0  0  0  0  0  0  0
   25.5798  -20.1881   -9.1302 C   0  0  0  0  0  0  0  0  0  0  0  0
   24.8739  -21.5232  -11.1835 C   0  0  0  0  0  0  0  0  0  0  0  0
   24.5132  -21.3219  -12.5984 C   0  0  2  0  0  0  0  0  0  0  0  0
   25.4538  -20.4982  -13.2940 N   0  0  0  0  0  0  0  0  0  0  0  0
   23.1649  -20.7013  -12.7672 C   0  0  0  0  0  0  0  0  0  0  0  0
   23.0328  -19.4709  -12.6548 O   0  0  0  0  0  0  0  0  0  0  0  0
   21.9856  -21.4738  -13.0598 N   0  0  0  0  0  0  0  0  0  0  0  0
   20.6863  -20.8637  -13.1582 C   0  0  1  0  0  0  0  0  0  0  0  0
   20.0385  -20.9138  -14.4858 C   0  0  0  0  0  0  0  0  0  0  0  0
   20.7018  -20.2097  -15.5808 C   0  0  0  0  0  0  0  0  0  0  0  0
   21.7747  -19.3747  -15.6666 C   0  0  0  0  0  0  0  0  0  0  0  0
   21.9646  -19.0250  -16.9440 N   0  0  0  0  0  0  0  0  0  0  0  0
   21.0344  -19.6210  -17.6731 C   0  0  0  0  0  0  0  0  0  0  0  0
   20.2644  -20.3396  -16.8660 N   0  0  0  0  0  0  0  0  0  0  0  0
   19.7795  -21.3666  -12.0697 C   0  0  0  0  0  0  0  0  0  0  0  0
   18.5618  -20.7598  -11.8510 O   0  0  0  0  0  0  0  0  0  0  0  0
   20.1148  -22.3297  -11.3580 O   0  0  0  0  0  0  0  0  0  0  0  0
  2 12  2  0
  2  1  1  0
  3  2  1  0
  4  5  1  0
  4  3  2  0
  5 11  2  0
  6  7  1  0
  6  5  1  0
  7  9  1  0
  7  8  1  6
  9 10  2  0
 11 12  1  0
 14 13  1  1
 14 16  1  0
 14 15  1  0
 17 16  1  1
 18 17  1  0
 18  9  1  0
 19 21  1  0
 19 17  1  0
 20 19  2  0
 22 21  1  0
 22 23  1  6
 23 24  1  0
 24 28  1  0
 25 24  2  0
 25 26  1  0
 26 27  1  0
 28 27  2  0
 29 22  1  0
 30 29  1  0
 31 29  2  0
M  END
$$$$
