YLH.pdb
     RDKit          3D

 31 32  0  0  1  0  0  0  0  0999 V2000
   29.4676  -15.2908  -18.3526 O   0  0  0  0  0  0  0  0  0  0  0  0
   28.6667  -16.1936  -17.6253 C   0  0  0  0  0  0  0  0  0  0  0  0
   28.4926  -16.0737  -16.2735 C   0  0  0  0  0  0  0  0  0  0  0  0
   27.6970  -16.9767  -15.5744 C   0  0  0  0  0  0  0  0  0  0  0  0
   27.0607  -18.0163  -16.2145 C   0  0  0  0  0  0  0  0  0  0  0  0
   26.2147  -18.9824  -15.4931 C   0  0  0  0  0  0  0  0  0  0  0  0
   26.9879  -20.1752  -14.9803 C   0  0  2  0  0  0  0  0  0  0  0  0
   27.4921  -21.0096  -16.0226 N   0  0  0  0  0  0  0  0  0  0  0  0
   26.0662  -20.9591  -14.1236 C   0  0  0  0  0  0  0  0  0  0  0  0
   25.3872  -21.8730  -14.6577 O   0  0  0  0  0  0  0  0  0  0  0  0
   27.2446  -18.1249  -17.5741 C   0  0  0  0  0  0  0  0  0  0  0  0
   28.0376  -17.2270  -18.2791 C   0  0  0  0  0  0  0  0  0  0  0  0
   27.4426  -20.7213  -10.5463 C   0  0  0  0  0  0  0  0  0  0  0  0
   26.0200  -20.4870   -9.9937 C   0  0  2  0  0  0  0  0  0  0  0  0
   26.0772  -20.3969   -8.5122 C   0  0  0  0  0  0  0  0  0  0  0  0
   25.1206  -21.5085  -10.5969 C   0  0  0  0  0  0  0  0  0  0  0  0
   24.8228  -21.2680  -12.0203 C   0  0  2  0  0  0  0  0  0  0  0  0
   25.9325  -20.7056  -12.7270 N   0  0  0  0  0  0  0  0  0  0  0  0
   23.6571  -20.3552  -12.2194 C   0  0  0  0  0  0  0  0  0  0  0  0
   23.8479  -19.1721  -12.5477 O   0  0  0  0  0  0  0  0  0  0  0  0
   22.2944  -20.7868  -12.0461 N   0  0  0  0  0  0  0  0  0  0  0  0
   21.3044  -20.5981  -13.0728 C   0  0  1  0  0  0  0  0  0  0  0  0
   21.6914  -21.0091  -14.4388 C   0  0  0  0  0  0  0  0  0  0  0  0
   22.0021  -19.9479  -15.3939 C   0  0  0  0  0  0  0  0  0  0  0  0
   22.0073  -18.5867  -15.3389 C   0  0  0  0  0  0  0  0  0  0  0  0
   22.3995  -18.0958  -16.5201 N   0  0  0  0  0  0  0  0  0  0  0  0
   22.6445  -19.1171  -17.3257 C   0  0  0  0  0  0  0  0  0  0  0  0
   22.4098  -20.2417  -16.6617 N   0  0  0  0  0  0  0  0  0  0  0  0
   19.9880  -21.1935  -12.6572 C   0  0  0  0  0  0  0  0  0  0  0  0
   18.8522  -20.4134  -12.6416 O   0  0  0  0  0  0  0  0  0  0  0  0
   19.9083  -22.3892  -12.3246 O   0  0  0  0  0  0  0  0  0  0  0  0
  2 12  2  0
  2  1  1  0
  3  2  1  0
  4  5  1  0
  4  3  2  0
  5 11  2  0
  6  7  1  0
  6  5  1  0
  7  9  1  0
  7  8  1  6
  9 10  2  0
 11 12  1  0
 14 13  1  1
 14 16  1  0
 14 15  1  0
 17 16  1  1
 18 17  1  0
 18  9  1  0
 19 21  1  0
 19 17  1  0
 20 19  2  0
 22 21  1  0
 22 23  1  6
 23 24  1  0
 24 28  1  0
 25 24  2  0
 25 26  1  0
 26 27  1  0
 28 27  2  0
 29 22  1  0
 30 29  1  0
 31 29  2  0
M  END
$$$$
