YLH.pdb
     RDKit          3D

 31 32  0  0  1  0  0  0  0  0999 V2000
   28.2892  -15.9510  -20.4203 O   0  0  0  0  0  0  0  0  0  0  0  0
   27.9636  -16.7425  -19.3008 C   0  0  0  0  0  0  0  0  0  0  0  0
   27.0444  -17.7532  -19.3766 C   0  0  0  0  0  0  0  0  0  0  0  0
   26.7377  -18.5229  -18.2583 C   0  0  0  0  0  0  0  0  0  0  0  0
   27.3446  -18.2960  -17.0436 C   0  0  0  0  0  0  0  0  0  0  0  0
   27.0340  -19.0992  -15.8486 C   0  0  0  0  0  0  0  0  0  0  0  0
   28.0980  -20.1256  -15.5355 C   0  0  2  0  0  0  0  0  0  0  0  0
   28.1771  -21.1686  -16.5064 N   0  0  0  0  0  0  0  0  0  0  0  0
   27.7689  -20.7077  -14.2123 C   0  0  0  0  0  0  0  0  0  0  0  0
   26.8802  -21.5957  -14.1554 O   0  0  0  0  0  0  0  0  0  0  0  0
   28.2670  -17.2765  -16.9818 C   0  0  0  0  0  0  0  0  0  0  0  0
   28.5786  -16.5035  -18.0943 C   0  0  0  0  0  0  0  0  0  0  0  0
   30.2469  -22.7657  -11.4033 C   0  0  0  0  0  0  0  0  0  0  0  0
   30.3607  -21.2427  -11.1762 C   0  0  2  0  0  0  0  0  0  0  0  0
   31.5395  -20.9608  -10.3176 C   0  0  0  0  0  0  0  0  0  0  0  0
   29.0321  -20.7469  -10.7231 C   0  0  0  0  0  0  0  0  0  0  0  0
   27.9887  -20.8173  -11.7618 C   0  0  2  0  0  0  0  0  0  0  0  0
   28.4267  -20.2909  -13.0181 N   0  0  0  0  0  0  0  0  0  0  0  0
   26.7442  -20.0846  -11.3796 C   0  0  0  0  0  0  0  0  0  0  0  0
   26.4391  -19.0350  -11.9705 O   0  0  0  0  0  0  0  0  0  0  0  0
   25.8616  -20.5436  -10.3386 N   0  0  0  0  0  0  0  0  0  0  0  0
   24.4431  -20.6638  -10.5473 C   0  0  1  0  0  0  0  0  0  0  0  0
   24.0171  -21.5367  -11.6612 C   0  0  0  0  0  0  0  0  0  0  0  0
   23.4472  -20.8875  -12.8396 C   0  0  0  0  0  0  0  0  0  0  0  0
   23.1377  -19.6011  -13.1638 C   0  0  0  0  0  0  0  0  0  0  0  0
   22.6473  -19.5620  -14.4080 N   0  0  0  0  0  0  0  0  0  0  0  0
   22.6388  -20.7978  -14.8825 C   0  0  0  0  0  0  0  0  0  0  0  0
   23.1183  -21.6096  -13.9489 N   0  0  0  0  0  0  0  0  0  0  0  0
   23.7446  -21.0095   -9.2618 C   0  0  0  0  0  0  0  0  0  0  0  0
   22.4765  -20.5300   -9.0151 O   0  0  0  0  0  0  0  0  0  0  0  0
   24.2986  -21.7277   -8.4109 O   0  0  0  0  0  0  0  0  0  0  0  0
  2 12  2  0
  2  1  1  0
  3  2  1  0
  4  5  1  0
  4  3  2  0
  5 11  2  0
  6  7  1  0
  6  5  1  0
  7  9  1  0
  7  8  1  6
  9 10  2  0
 11 12  1  0
 14 13  1  1
 14 16  1  0
 14 15  1  0
 17 16  1  1
 18 17  1  0
 18  9  1  0
 19 21  1  0
 19 17  1  0
 20 19  2  0
 22 21  1  0
 22 23  1  6
 23 24  1  0
 24 28  1  0
 25 24  2  0
 25 26  1  0
 26 27  1  0
 28 27  2  0
 29 22  1  0
 30 29  1  0
 31 29  2  0
M  END
$$$$
