YLH.pdb
     RDKit          3D

 31 32  0  0  1  0  0  0  0  0999 V2000
   16.9221  -24.3368   -7.6568 O   0  0  0  0  0  0  0  0  0  0  0  0
   18.0200  -23.8058   -8.3626 C   0  0  0  0  0  0  0  0  0  0  0  0
   17.8982  -23.3517   -9.6476 C   0  0  0  0  0  0  0  0  0  0  0  0
   18.9958  -22.8308  -10.3265 C   0  0  0  0  0  0  0  0  0  0  0  0
   20.2356  -22.7546   -9.7329 C   0  0  0  0  0  0  0  0  0  0  0  0
   21.4095  -22.2069  -10.4341 C   0  0  0  0  0  0  0  0  0  0  0  0
   21.7960  -20.8290   -9.9488 C   0  0  2  0  0  0  0  0  0  0  0  0
   20.8386  -19.8250  -10.2837 N   0  0  0  0  0  0  0  0  0  0  0  0
   23.0991  -20.4949  -10.5719 C   0  0  0  0  0  0  0  0  0  0  0  0
   23.1008  -19.7702  -11.5997 O   0  0  0  0  0  0  0  0  0  0  0  0
   20.3438  -23.2149   -8.4404 C   0  0  0  0  0  0  0  0  0  0  0  0
   19.2521  -23.7363   -7.7558 C   0  0  0  0  0  0  0  0  0  0  0  0
   26.6040  -18.9820   -7.3449 C   0  0  0  0  0  0  0  0  0  0  0  0
   26.0101  -20.1207   -8.2020 C   0  0  2  0  0  0  0  0  0  0  0  0
   26.2932  -21.4250   -7.5503 C   0  0  0  0  0  0  0  0  0  0  0  0
   26.4708  -19.9262   -9.6042 C   0  0  0  0  0  0  0  0  0  0  0  0
   25.5616  -20.5028  -10.6110 C   0  0  2  0  0  0  0  0  0  0  0  0
   24.3347  -20.9689  -10.0413 N   0  0  0  0  0  0  0  0  0  0  0  0
   26.1731  -21.6464  -11.3525 C   0  0  0  0  0  0  0  0  0  0  0  0
   27.2603  -22.1160  -10.9764 O   0  0  0  0  0  0  0  0  0  0  0  0
   25.5525  -22.2446  -12.5059 N   0  0  0  0  0  0  0  0  0  0  0  0
   25.8419  -21.7926  -13.8408 C   0  0  1  0  0  0  0  0  0  0  0  0
   24.8711  -20.8519  -14.4383 C   0  0  0  0  0  0  0  0  0  0  0  0
   23.4951  -21.3186  -14.5921 C   0  0  0  0  0  0  0  0  0  0  0  0
   22.8612  -22.5056  -14.3799 C   0  0  0  0  0  0  0  0  0  0  0  0
   21.5619  -22.3736  -14.6702 N   0  0  0  0  0  0  0  0  0  0  0  0
   21.3558  -21.1262  -15.0625 C   0  0  0  0  0  0  0  0  0  0  0  0
   22.5119  -20.4764  -15.0210 N   0  0  0  0  0  0  0  0  0  0  0  0
   27.2525  -21.2812  -13.9343 C   0  0  0  0  0  0  0  0  0  0  0  0
   28.2370  -22.0699  -14.4890 O   0  0  0  0  0  0  0  0  0  0  0  0
   27.5464  -20.1478  -13.5151 O   0  0  0  0  0  0  0  0  0  0  0  0
  2 12  2  0
  2  1  1  0
  3  2  1  0
  4  5  1  0
  4  3  2  0
  5 11  2  0
  6  7  1  0
  6  5  1  0
  7  9  1  0
  7  8  1  6
  9 10  2  0
 11 12  1  0
 14 13  1  1
 14 16  1  0
 14 15  1  0
 17 16  1  1
 18 17  1  0
 18  9  1  0
 19 21  1  0
 19 17  1  0
 20 19  2  0
 22 21  1  0
 22 23  1  1
 23 24  1  0
 24 28  1  0
 25 24  2  0
 25 26  1  0
 26 27  1  0
 28 27  2  0
 29 22  1  0
 30 29  1  0
 31 29  2  0
M  END
$$$$
