YLH.pdb
     RDKit          3D

 31 32  0  0  1  0  0  0  0  0999 V2000
   21.1712  -16.6272  -17.8109 O   0  0  0  0  0  0  0  0  0  0  0  0
   21.2560  -17.4929  -16.7023 C   0  0  0  0  0  0  0  0  0  0  0  0
   21.2591  -18.8532  -16.8498 C   0  0  0  0  0  0  0  0  0  0  0  0
   21.3437  -19.6901  -15.7410 C   0  0  0  0  0  0  0  0  0  0  0  0
   21.4267  -19.1819  -14.4641 C   0  0  0  0  0  0  0  0  0  0  0  0
   21.5169  -20.0504  -13.2779 C   0  0  0  0  0  0  0  0  0  0  0  0
   22.9317  -20.2122  -12.7722 C   0  0  2  0  0  0  0  0  0  0  0  0
   23.8051  -20.8153  -13.7264 N   0  0  0  0  0  0  0  0  0  0  0  0
   22.8683  -21.0597  -11.5574 C   0  0  0  0  0  0  0  0  0  0  0  0
   22.7588  -22.3040  -11.7029 O   0  0  0  0  0  0  0  0  0  0  0  0
   21.4225  -17.8122  -14.3305 C   0  0  0  0  0  0  0  0  0  0  0  0
   21.3383  -16.9699  -15.4331 C   0  0  0  0  0  0  0  0  0  0  0  0
   26.0500  -21.2207   -7.2640 C   0  0  0  0  0  0  0  0  0  0  0  0
   25.1594  -20.5601   -8.3384 C   0  0  2  0  0  0  0  0  0  0  0  0
   25.5644  -19.1411   -8.5078 C   0  0  0  0  0  0  0  0  0  0  0  0
   23.7392  -20.8445   -7.9939 C   0  0  0  0  0  0  0  0  0  0  0  0
   22.9549  -21.3867   -9.1179 C   0  0  2  0  0  0  0  0  0  0  0  0
   22.9275  -20.5057  -10.2450 N   0  0  0  0  0  0  0  0  0  0  0  0
   21.5383  -21.6791   -8.7446 C   0  0  0  0  0  0  0  0  0  0  0  0
   20.7128  -20.7527   -8.6794 O   0  0  0  0  0  0  0  0  0  0  0  0
   21.0716  -23.0091   -8.4503 N   0  0  0  0  0  0  0  0  0  0  0  0
   19.6992  -23.2708   -8.1067 C   0  0  1  0  0  0  0  0  0  0  0  0
   18.9937  -24.2659   -8.9413 C   0  0  0  0  0  0  0  0  0  0  0  0
   17.6035  -24.5594   -8.6010 C   0  0  0  0  0  0  0  0  0  0  0  0
   16.5969  -23.8558   -8.0114 C   0  0  0  0  0  0  0  0  0  0  0  0
   15.4954  -24.6135   -7.9611 N   0  0  0  0  0  0  0  0  0  0  0  0
   15.7804  -25.7851   -8.5072 C   0  0  0  0  0  0  0  0  0  0  0  0
   17.0481  -25.7690   -8.8985 N   0  0  0  0  0  0  0  0  0  0  0  0
   19.5669  -23.5709   -6.6396 C   0  0  0  0  0  0  0  0  0  0  0  0
   18.3295  -23.5257   -6.0350 O   0  0  0  0  0  0  0  0  0  0  0  0
   20.5657  -23.8617   -5.9581 O   0  0  0  0  0  0  0  0  0  0  0  0
  2 12  2  0
  2  1  1  0
  3  2  1  0
  4  5  1  0
  4  3  2  0
  5 11  2  0
  6  7  1  0
  6  5  1  0
  7  9  1  0
  7  8  1  6
  9 10  2  0
 11 12  1  0
 14 13  1  1
 14 16  1  0
 14 15  1  0
 17 16  1  1
 18 17  1  0
 18  9  1  0
 19 21  1  0
 19 17  1  0
 20 19  2  0
 22 21  1  0
 22 23  1  6
 23 24  1  0
 24 28  1  0
 25 24  2  0
 25 26  1  0
 26 27  1  0
 28 27  2  0
 29 22  1  0
 30 29  1  0
 31 29  2  0
M  END
$$$$
