YLH.pdb
     RDKit          3D

 31 32  0  0  1  0  0  0  0  0999 V2000
   25.3508  -33.7704  -11.6683 O   0  0  0  0  0  0  0  0  0  0  0  0
   26.4407  -34.5689  -11.2682 C   0  0  0  0  0  0  0  0  0  0  0  0
   26.6988  -35.7794  -11.8516 C   0  0  0  0  0  0  0  0  0  0  0  0
   27.7810  -36.5522  -11.4410 C   0  0  0  0  0  0  0  0  0  0  0  0
   28.6252  -36.1286  -10.4393 C   0  0  0  0  0  0  0  0  0  0  0  0
   29.7757  -36.9314   -9.9903 C   0  0  0  0  0  0  0  0  0  0  0  0
   31.0421  -36.6259  -10.7560 C   0  0  2  0  0  0  0  0  0  0  0  0
   31.0312  -37.1361  -12.0889 N   0  0  0  0  0  0  0  0  0  0  0  0
   32.1658  -37.2344  -10.0045 C   0  0  0  0  0  0  0  0  0  0  0  0
   32.4441  -38.4416  -10.2209 O   0  0  0  0  0  0  0  0  0  0  0  0
   28.3539  -34.9094   -9.8614 C   0  0  0  0  0  0  0  0  0  0  0  0
   27.2750  -34.1319  -10.2661 C   0  0  0  0  0  0  0  0  0  0  0  0
   36.2843  -37.8406  -10.2065 C   0  0  0  0  0  0  0  0  0  0  0  0
   35.8253  -36.4074   -9.8614 C   0  0  2  0  0  0  0  0  0  0  0  0
   36.9232  -35.4538  -10.1633 C   0  0  0  0  0  0  0  0  0  0  0  0
   35.2750  -36.4235   -8.4781 C   0  0  0  0  0  0  0  0  0  0  0  0
   33.9959  -37.1460   -8.3586 C   0  0  2  0  0  0  0  0  0  0  0  0
   32.9290  -36.4942   -9.0545 N   0  0  0  0  0  0  0  0  0  0  0  0
   33.5629  -37.3212   -6.9397 C   0  0  0  0  0  0  0  0  0  0  0  0
   33.1184  -36.3498   -6.3050 O   0  0  0  0  0  0  0  0  0  0  0  0
   33.6362  -38.5863   -6.2560 N   0  0  0  0  0  0  0  0  0  0  0  0
   33.2076  -38.7347   -4.8906 C   0  0  1  0  0  0  0  0  0  0  0  0
   31.8694  -38.1997   -4.5628 C   0  0  0  0  0  0  0  0  0  0  0  0
   31.3465  -38.4778   -3.2272 C   0  0  0  0  0  0  0  0  0  0  0  0
   31.6559  -38.0458   -1.9728 C   0  0  0  0  0  0  0  0  0  0  0  0
   30.8302  -38.6183   -1.0893 N   0  0  0  0  0  0  0  0  0  0  0  0
   30.0011  -39.4058   -1.7562 C   0  0  0  0  0  0  0  0  0  0  0  0
   30.2991  -39.3324   -3.0471 N   0  0  0  0  0  0  0  0  0  0  0  0
   33.3728  -40.1574   -4.4338 C   0  0  0  0  0  0  0  0  0  0  0  0
   33.3165  -40.4617   -3.0910 O   0  0  0  0  0  0  0  0  0  0  0  0
   33.5610  -41.0710   -5.2563 O   0  0  0  0  0  0  0  0  0  0  0  0
  2 12  2  0
  2  1  1  0
  3  2  1  0
  4  5  1  0
  4  3  2  0
  5 11  2  0
  6  7  1  0
  6  5  1  0
  7  9  1  0
  7  8  1  6
  9 10  2  0
 11 12  1  0
 14 13  1  1
 14 16  1  0
 14 15  1  0
 17 16  1  1
 18 17  1  0
 18  9  1  0
 19 21  1  0
 19 17  1  0
 20 19  2  0
 22 21  1  0
 22 23  1  6
 23 24  1  0
 24 28  1  0
 25 24  2  0
 25 26  1  0
 26 27  1  0
 28 27  2  0
 29 22  1  0
 30 29  1  0
 31 29  2  0
M  END
$$$$
