YLH.pdb
     RDKit          3D

 31 32  0  0  1  0  0  0  0  0999 V2000
   14.6774  -12.1099  -21.4113 O   0  0  0  0  0  0  0  0  0  0  0  0
   15.5828  -11.5647  -20.4793 C   0  0  0  0  0  0  0  0  0  0  0  0
   16.9289  -11.5258  -20.7214 C   0  0  0  0  0  0  0  0  0  0  0  0
   17.8057  -10.9827  -19.7869 C   0  0  0  0  0  0  0  0  0  0  0  0
   17.3524  -10.4684  -18.5930 C   0  0  0  0  0  0  0  0  0  0  0  0
   18.2637   -9.8893  -17.5912 C   0  0  0  0  0  0  0  0  0  0  0  0
   19.2109  -10.9067  -16.9983 C   0  0  2  0  0  0  0  0  0  0  0  0
   18.5535  -11.8890  -16.1985 N   0  0  0  0  0  0  0  0  0  0  0  0
   20.1855  -10.1636  -16.1642 C   0  0  0  0  0  0  0  0  0  0  0  0
   19.8834   -9.9196  -14.9681 O   0  0  0  0  0  0  0  0  0  0  0  0
   15.9963  -10.5140  -18.3627 C   0  0  0  0  0  0  0  0  0  0  0  0
   15.1144  -11.0548  -19.2912 C   0  0  0  0  0  0  0  0  0  0  0  0
   25.8955  -10.2265  -15.4049 C   0  0  0  0  0  0  0  0  0  0  0  0
   24.4332   -9.9759  -14.9774 C   0  0  2  0  0  0  0  0  0  0  0  0
   23.8425  -11.2445  -14.4797 C   0  0  0  0  0  0  0  0  0  0  0  0
   23.7430   -9.2756  -16.0953 C   0  0  0  0  0  0  0  0  0  0  0  0
   22.3228   -8.9875  -15.8259 C   0  0  2  0  0  0  0  0  0  0  0  0
   21.4408   -9.7244  -16.6781 N   0  0  0  0  0  0  0  0  0  0  0  0
   21.9885   -7.5398  -15.9811 C   0  0  0  0  0  0  0  0  0  0  0  0
   21.8706   -7.0514  -17.1176 O   0  0  0  0  0  0  0  0  0  0  0  0
   21.7918   -6.6633  -14.8559 N   0  0  0  0  0  0  0  0  0  0  0  0
   21.5892   -5.2489  -15.0246 C   0  0  1  0  0  0  0  0  0  0  0  0
   20.2503   -4.7325  -14.6706 C   0  0  0  0  0  0  0  0  0  0  0  0
   19.1238   -5.1790  -15.4870 C   0  0  0  0  0  0  0  0  0  0  0  0
   18.9961   -5.9892  -16.5746 C   0  0  0  0  0  0  0  0  0  0  0  0
   17.7054   -6.0736  -16.9167 N   0  0  0  0  0  0  0  0  0  0  0  0
   17.0089   -5.3337  -16.0684 C   0  0  0  0  0  0  0  0  0  0  0  0
   17.8496   -4.7871  -15.1994 N   0  0  0  0  0  0  0  0  0  0  0  0
   22.6879   -4.4714  -14.3550 C   0  0  0  0  0  0  0  0  0  0  0  0
   22.8264   -3.1224  -14.5998 O   0  0  0  0  0  0  0  0  0  0  0  0
   23.4799   -5.0321  -13.5772 O   0  0  0  0  0  0  0  0  0  0  0  0
  2 12  2  0
  2  1  1  0
  3  2  1  0
  4  5  1  0
  4  3  2  0
  5 11  2  0
  6  7  1  0
  6  5  1  0
  7  9  1  0
  7  8  1  1
  9 10  2  0
 11 12  1  0
 14 13  1  6
 14 16  1  0
 14 15  1  0
 17 16  1  6
 18 17  1  0
 18  9  1  0
 19 21  1  0
 19 17  1  0
 20 19  2  0
 22 21  1  0
 22 23  1  1
 23 24  1  0
 24 28  1  0
 25 24  2  0
 25 26  1  0
 26 27  1  0
 28 27  2  0
 29 22  1  0
 30 29  1  0
 31 29  2  0
M  END
$$$$
