YLH.pdb
     RDKit          3D

 31 32  0  0  1  0  0  0  0  0999 V2000
   27.9728  -12.0677  -17.4439 O   0  0  0  0  0  0  0  0  0  0  0  0
   27.4528  -13.3267  -17.0832 C   0  0  0  0  0  0  0  0  0  0  0  0
   27.0569  -14.2383  -18.0236 C   0  0  0  0  0  0  0  0  0  0  0  0
   26.5459  -15.4763  -17.6454 C   0  0  0  0  0  0  0  0  0  0  0  0
   26.4214  -15.8256  -16.3195 C   0  0  0  0  0  0  0  0  0  0  0  0
   25.8832  -17.1304  -15.8985 C   0  0  0  0  0  0  0  0  0  0  0  0
   26.9545  -18.1824  -15.7276 C   0  0  2  0  0  0  0  0  0  0  0  0
   27.3975  -18.7410  -16.9640 N   0  0  0  0  0  0  0  0  0  0  0  0
   26.3834  -19.2551  -14.8785 C   0  0  0  0  0  0  0  0  0  0  0  0
   25.8841  -20.2614  -15.4438 O   0  0  0  0  0  0  0  0  0  0  0  0
   26.8233  -14.8992  -15.3844 C   0  0  0  0  0  0  0  0  0  0  0  0
   27.3347  -13.6607  -15.7544 C   0  0  0  0  0  0  0  0  0  0  0  0
   25.2484  -22.4885  -11.4687 C   0  0  0  0  0  0  0  0  0  0  0  0
   25.7137  -21.3828  -10.4966 C   0  0  2  0  0  0  0  0  0  0  0  0
   24.6081  -21.0541   -9.5608 C   0  0  0  0  0  0  0  0  0  0  0  0
   26.2955  -20.2769  -11.3059 C   0  0  0  0  0  0  0  0  0  0  0  0
   25.8079  -20.2415  -12.6964 C   0  0  2  0  0  0  0  0  0  0  0  0
   26.3861  -19.1750  -13.4550 N   0  0  0  0  0  0  0  0  0  0  0  0
   24.3235  -20.0983  -12.7835 C   0  0  0  0  0  0  0  0  0  0  0  0
   23.7702  -19.0955  -12.3017 O   0  0  0  0  0  0  0  0  0  0  0  0
   23.4837  -21.0852  -13.4113 N   0  0  0  0  0  0  0  0  0  0  0  0
   22.0568  -20.9214  -13.4959 C   0  0  1  0  0  0  0  0  0  0  0  0
   21.4576  -21.0847  -14.8371 C   0  0  0  0  0  0  0  0  0  0  0  0
   21.7426  -20.0492  -15.8277 C   0  0  0  0  0  0  0  0  0  0  0  0
   22.0809  -18.7313  -15.7595 C   0  0  0  0  0  0  0  0  0  0  0  0
   22.2483  -18.2509  -16.9969 N   0  0  0  0  0  0  0  0  0  0  0  0
   22.0236  -19.2365  -17.8515 C   0  0  0  0  0  0  0  0  0  0  0  0
   21.7174  -20.3284  -17.1624 N   0  0  0  0  0  0  0  0  0  0  0  0
   21.3632  -21.7648  -12.4627 C   0  0  0  0  0  0  0  0  0  0  0  0
   20.3850  -21.2124  -11.6646 O   0  0  0  0  0  0  0  0  0  0  0  0
   21.6614  -22.9633  -12.3164 O   0  0  0  0  0  0  0  0  0  0  0  0
  2 12  2  0
  2  1  1  0
  3  2  1  0
  4  5  1  0
  4  3  2  0
  5 11  2  0
  6  7  1  0
  6  5  1  0
  7  9  1  0
  7  8  1  6
  9 10  2  0
 11 12  1  0
 14 13  1  6
 14 16  1  0
 14 15  1  0
 17 16  1  1
 18 17  1  0
 18  9  1  0
 19 21  1  0
 19 17  1  0
 20 19  2  0
 22 21  1  0
 22 23  1  6
 23 24  1  0
 24 28  1  0
 25 24  2  0
 25 26  1  0
 26 27  1  0
 28 27  2  0
 29 22  1  0
 30 29  1  0
 31 29  2  0
M  END
$$$$
