YLH.pdb
     RDKit          3D

 31 32  0  0  1  0  0  0  0  0999 V2000
   28.1772  -13.7807  -17.6663 O   0  0  0  0  0  0  0  0  0  0  0  0
   27.4349  -14.8619  -17.1511 C   0  0  0  0  0  0  0  0  0  0  0  0
   26.6837  -15.6700  -17.9604 C   0  0  0  0  0  0  0  0  0  0  0  0
   25.9579  -16.7327  -17.4305 C   0  0  0  0  0  0  0  0  0  0  0  0
   25.9700  -17.0070  -16.0815 C   0  0  0  0  0  0  0  0  0  0  0  0
   25.2090  -18.1266  -15.5011 C   0  0  0  0  0  0  0  0  0  0  0  0
   26.0521  -19.3614  -15.2820 C   0  0  2  0  0  0  0  0  0  0  0  0
   26.4570  -19.9897  -16.4978 N   0  0  0  0  0  0  0  0  0  0  0  0
   25.2398  -20.3103  -14.4835 C   0  0  0  0  0  0  0  0  0  0  0  0
   24.5403  -21.1581  -15.0946 O   0  0  0  0  0  0  0  0  0  0  0  0
   26.7297  -16.1863  -15.2793 C   0  0  0  0  0  0  0  0  0  0  0  0
   27.4572  -15.1230  -15.8011 C   0  0  0  0  0  0  0  0  0  0  0  0
   27.3023  -20.8089  -11.3476 C   0  0  0  0  0  0  0  0  0  0  0  0
   26.0034  -20.7326  -10.5163 C   0  0  2  0  0  0  0  0  0  0  0  0
   26.3340  -20.8693   -9.0747 C   0  0  0  0  0  0  0  0  0  0  0  0
   25.0275  -21.6917  -11.1029 C   0  0  0  0  0  0  0  0  0  0  0  0
   24.4042  -21.2131  -12.3499 C   0  0  2  0  0  0  0  0  0  0  0  0
   25.2322  -20.2857  -13.0580 N   0  0  0  0  0  0  0  0  0  0  0  0
   23.0863  -20.5490  -12.1179 C   0  0  0  0  0  0  0  0  0  0  0  0
   23.0245  -19.5291  -11.4108 O   0  0  0  0  0  0  0  0  0  0  0  0
   21.8579  -21.0420  -12.6846 N   0  0  0  0  0  0  0  0  0  0  0  0
   20.7718  -20.1601  -13.0205 C   0  0  1  0  0  0  0  0  0  0  0  0
   21.1312  -18.9302  -13.7572 C   0  0  0  0  0  0  0  0  0  0  0  0
   20.0557  -17.9835  -14.0433 C   0  0  0  0  0  0  0  0  0  0  0  0
   19.4893  -16.9490  -13.3615 C   0  0  0  0  0  0  0  0  0  0  0  0
   18.5317  -16.3932  -14.1125 N   0  0  0  0  0  0  0  0  0  0  0  0
   18.4774  -17.0528  -15.2589 C   0  0  0  0  0  0  0  0  0  0  0  0
   19.3904  -18.0153  -15.2333 N   0  0  0  0  0  0  0  0  0  0  0  0
   19.6623  -20.9172  -13.6956 C   0  0  0  0  0  0  0  0  0  0  0  0
   18.3675  -20.4507  -13.6271 O   0  0  0  0  0  0  0  0  0  0  0  0
   19.8976  -21.9667  -14.3201 O   0  0  0  0  0  0  0  0  0  0  0  0
  2 12  2  0
  2  1  1  0
  3  2  1  0
  4  5  1  0
  4  3  2  0
  5 11  2  0
  6  7  1  0
  6  5  1  0
  7  9  1  0
  7  8  1  6
  9 10  2  0
 11 12  1  0
 14 13  1  6
 14 16  1  0
 14 15  1  0
 17 16  1  1
 18 17  1  0
 18  9  1  0
 19 21  1  0
 19 17  1  0
 20 19  2  0
 22 21  1  0
 22 23  1  6
 23 24  1  0
 24 28  1  0
 25 24  2  0
 25 26  1  0
 26 27  1  0
 28 27  2  0
 29 22  1  0
 30 29  1  0
 31 29  2  0
M  END
$$$$
