IHP.pdb
     RDKit          3D

 26 27  0  0  1  0  0  0  0  0999 V2000
   16.4641  -21.5788    2.7822 C   0  0  0  0  0  0  0  0  0  0  0  0
   16.1989  -20.1355    3.0753 C   0  0  0  0  0  0  0  0  0  0  0  0
   17.3172  -19.5213    3.9004 C   0  0  2  0  0  0  0  0  0  0  0  0
   17.4187  -20.2871    5.1856 C   0  0  0  0  0  0  0  0  0  0  0  0
   16.9660  -18.0617    4.1256 C   0  0  2  0  0  0  0  0  0  0  0  0
   16.8267  -17.4338    2.8168 N   0  0  0  0  0  0  0  0  0  0  0  0
   18.0382  -17.3589    4.8734 C   0  0  0  0  0  0  0  0  0  0  0  0
   19.2026  -17.2944    4.4097 O   0  0  0  0  0  0  0  0  0  0  0  0
   17.7890  -16.7406    6.1262 N   0  0  0  0  0  0  0  0  0  0  0  0
   18.8668  -16.1250    6.9234 C   0  0  1  0  0  0  0  0  0  0  0  0
   18.3833  -14.7823    7.4373 C   0  0  0  0  0  0  0  0  0  0  0  0
   18.3469  -13.7288    6.4228 C   0  0  0  0  0  0  0  0  0  0  0  0
   19.3584  -13.3640    5.5758 C   0  0  0  0  0  0  0  0  0  0  0  0
   18.8792  -12.3478    4.8017 N   0  0  0  0  0  0  0  0  0  0  0  0
   17.6102  -12.0782    5.1452 C   0  0  0  0  0  0  0  0  0  0  0  0
   17.3037  -12.9280    6.1326 N   0  0  0  0  0  0  0  0  0  0  0  0
   19.3666  -17.0394    7.9470 C   0  0  0  0  0  0  0  0  0  0  0  0
   18.6887  -18.0753    8.3095 O   0  0  0  0  0  0  0  0  0  0  0  0
   20.6039  -16.9059    8.6294 N   0  0  0  0  0  0  0  0  0  0  0  0
   21.5631  -15.8493    8.4330 C   0  0  0  0  0  0  0  0  0  0  0  0
   22.8885  -16.5596    8.4576 C   0  0  0  0  0  0  0  0  0  0  0  0
   22.6819  -17.7689    9.3063 C   0  0  0  0  0  0  0  0  0  0  0  0
   21.1974  -17.7698    9.6439 C   0  0  1  0  0  0  0  0  0  0  0  0
   21.0939  -17.2196   11.0147 C   0  0  0  0  0  0  0  0  0  0  0  0
   21.4177  -17.9043   12.1670 O   0  0  0  0  0  0  0  0  0  0  0  0
   20.6777  -16.0392   11.1280 O   0  0  0  0  0  0  0  0  0  0  0  0
  1  2  1  0
  3  5  1  0
  3  2  1  0
  3  4  1  1
  5  7  1  0
  5  6  1  6
  7  9  1  0
  8  7  2  0
 10  9  1  0
 10 11  1  1
 11 12  1  0
 12 16  1  0
 13 12  2  0
 13 14  1  0
 14 15  1  0
 16 15  2  0
 17 18  2  0
 17 10  1  0
 19 17  1  0
 20 19  1  0
 21 20  1  0
 22 21  1  0
 22 23  1  0
 23 19  1  0
 23 24  1  1
 25 24  1  0
 26 24  2  0
M  END
$$$$
