IHP.pdb
     RDKit          3D

 26 27  0  0  1  0  0  0  0  0999 V2000
   20.1117  -15.5497  -20.1414 C   0  0  0  0  0  0  0  0  0  0  0  0
   19.8026  -16.2973  -18.8824 C   0  0  0  0  0  0  0  0  0  0  0  0
   21.0581  -16.5546  -18.0662 C   0  0  2  0  0  0  0  0  0  0  0  0
   22.0227  -17.3139  -18.9273 C   0  0  0  0  0  0  0  0  0  0  0  0
   20.6454  -17.3386  -16.8336 C   0  0  2  0  0  0  0  0  0  0  0  0
   19.7003  -16.5187  -16.0844 N   0  0  0  0  0  0  0  0  0  0  0  0
   21.8122  -17.6269  -15.9630 C   0  0  0  0  0  0  0  0  0  0  0  0
   22.5362  -16.6946  -15.5369 O   0  0  0  0  0  0  0  0  0  0  0  0
   22.1483  -18.9526  -15.5842 N   0  0  0  0  0  0  0  0  0  0  0  0
   23.4080  -19.2718  -14.8861 C   0  0  1  0  0  0  0  0  0  0  0  0
   23.1517  -20.4133  -13.9208 C   0  0  0  0  0  0  0  0  0  0  0  0
   24.3441  -20.8812  -13.2139 C   0  0  0  0  0  0  0  0  0  0  0  0
   25.1664  -21.9134  -13.5772 C   0  0  0  0  0  0  0  0  0  0  0  0
   26.1493  -21.9872  -12.6338 N   0  0  0  0  0  0  0  0  0  0  0  0
   25.9573  -21.0364  -11.7064 C   0  0  0  0  0  0  0  0  0  0  0  0
   24.8549  -20.3737  -12.0758 N   0  0  0  0  0  0  0  0  0  0  0  0
   24.5037  -19.4876  -15.8278 C   0  0  0  0  0  0  0  0  0  0  0  0
   24.2962  -20.0058  -16.9906 O   0  0  0  0  0  0  0  0  0  0  0  0
   25.8643  -19.1623  -15.5881 N   0  0  0  0  0  0  0  0  0  0  0  0
   26.4043  -18.6637  -14.3493 C   0  0  0  0  0  0  0  0  0  0  0  0
   27.3745  -17.5999  -14.7838 C   0  0  0  0  0  0  0  0  0  0  0  0
   27.8297  -18.0020  -16.1463 C   0  0  0  0  0  0  0  0  0  0  0  0
   27.0047  -19.2329  -16.4948 C   0  0  1  0  0  0  0  0  0  0  0  0
   27.8850  -20.3957  -16.2388 C   0  0  0  0  0  0  0  0  0  0  0  0
   28.9764  -20.7442  -17.0063 O   0  0  0  0  0  0  0  0  0  0  0  0
   27.6092  -21.1150  -15.2458 O   0  0  0  0  0  0  0  0  0  0  0  0
  1  2  1  0
  3  5  1  0
  3  2  1  0
  3  4  1  6
  5  7  1  0
  5  6  1  1
  7  9  1  0
  8  7  2  0
 10  9  1  0
 10 11  1  6
 11 12  1  0
 12 16  1  0
 13 12  2  0
 13 14  1  0
 14 15  1  0
 16 15  2  0
 17 18  2  0
 17 10  1  0
 19 17  1  0
 20 19  1  0
 21 20  1  0
 22 21  1  0
 22 23  1  0
 23 19  1  0
 23 24  1  1
 25 24  1  0
 26 24  2  0
M  END
$$$$
