IHP.pdb
     RDKit          3D

 26 27  0  0  1  0  0  0  0  0999 V2000
   30.2603  -25.6476  -16.7566 C   0  0  0  0  0  0  0  0  0  0  0  0
   29.3540  -26.4197  -17.6631 C   0  0  0  0  0  0  0  0  0  0  0  0
   27.9086  -25.9757  -17.5139 C   0  0  2  0  0  0  0  0  0  0  0  0
   27.5079  -26.1767  -16.0829 C   0  0  0  0  0  0  0  0  0  0  0  0
   27.0760  -26.8124  -18.4684 C   0  0  2  0  0  0  0  0  0  0  0  0
   27.5249  -26.5147  -19.8236 N   0  0  0  0  0  0  0  0  0  0  0  0
   25.6347  -26.4737  -18.3646 C   0  0  0  0  0  0  0  0  0  0  0  0
   25.2049  -25.3753  -18.7932 O   0  0  0  0  0  0  0  0  0  0  0  0
   24.6999  -27.3695  -17.7837 N   0  0  0  0  0  0  0  0  0  0  0  0
   23.2603  -27.0571  -17.7063 C   0  0  1  0  0  0  0  0  0  0  0  0
   22.4924  -28.1156  -18.4749 C   0  0  0  0  0  0  0  0  0  0  0  0
   22.6542  -28.0392  -19.9269 C   0  0  0  0  0  0  0  0  0  0  0  0
   22.8948  -26.9166  -20.6721 C   0  0  0  0  0  0  0  0  0  0  0  0
   22.9791  -27.3163  -21.9739 N   0  0  0  0  0  0  0  0  0  0  0  0
   22.7986  -28.6438  -22.0512 C   0  0  0  0  0  0  0  0  0  0  0  0
   22.6025  -29.0662  -20.7966 N   0  0  0  0  0  0  0  0  0  0  0  0
   22.8283  -26.8550  -16.3256 C   0  0  0  0  0  0  0  0  0  0  0  0
   23.2809  -27.5901  -15.3671 O   0  0  0  0  0  0  0  0  0  0  0  0
   21.9056  -25.8670  -15.8935 N   0  0  0  0  0  0  0  0  0  0  0  0
   21.2481  -24.9033  -16.7384 C   0  0  0  0  0  0  0  0  0  0  0  0
   21.2920  -23.6330  -15.9344 C   0  0  0  0  0  0  0  0  0  0  0  0
   21.3268  -24.0613  -14.5058 C   0  0  0  0  0  0  0  0  0  0  0  0
   21.4220  -25.5801  -14.5476 C   0  0  1  0  0  0  0  0  0  0  0  0
   20.0498  -26.0785  -14.3000 C   0  0  0  0  0  0  0  0  0  0  0  0
   19.2195  -26.6163  -15.2607 O   0  0  0  0  0  0  0  0  0  0  0  0
   19.6163  -26.0011  -13.1229 O   0  0  0  0  0  0  0  0  0  0  0  0
  1  2  1  0
  3  5  1  0
  3  2  1  0
  3  4  1  1
  5  7  1  0
  5  6  1  6
  7  9  1  0
  8  7  2  0
 10  9  1  0
 10 11  1  1
 11 12  1  0
 12 16  1  0
 13 12  2  0
 13 14  1  0
 14 15  1  0
 16 15  2  0
 17 18  2  0
 17 10  1  0
 19 17  1  0
 20 19  1  0
 21 20  1  0
 22 21  1  0
 22 23  1  0
 23 19  1  0
 23 24  1  6
 25 24  1  0
 26 24  2  0
M  END
$$$$
