IHP.pdb
     RDKit          3D

 26 27  0  0  1  0  0  0  0  0999 V2000
   29.3746  -16.3153  -17.7404 C   0  0  0  0  0  0  0  0  0  0  0  0
   28.7892  -17.6325  -17.3382 C   0  0  0  0  0  0  0  0  0  0  0  0
   27.6246  -17.4536  -16.3788 C   0  0  2  0  0  0  0  0  0  0  0  0
   28.0294  -18.0164  -15.0492 C   0  0  0  0  0  0  0  0  0  0  0  0
   26.4315  -18.1800  -16.9729 C   0  0  2  0  0  0  0  0  0  0  0  0
   26.0841  -17.5114  -18.2216 N   0  0  0  0  0  0  0  0  0  0  0  0
   25.2587  -18.1215  -16.0653 C   0  0  0  0  0  0  0  0  0  0  0  0
   24.6344  -17.0458  -15.8978 O   0  0  0  0  0  0  0  0  0  0  0  0
   24.8049  -19.2671  -15.3613 N   0  0  0  0  0  0  0  0  0  0  0  0
   23.6455  -19.2180  -14.4506 C   0  0  1  0  0  0  0  0  0  0  0  0
   22.4268  -18.7801  -15.2402 C   0  0  0  0  0  0  0  0  0  0  0  0
   21.1832  -18.7718  -14.4697 C   0  0  0  0  0  0  0  0  0  0  0  0
   20.1778  -19.6995  -14.5162 C   0  0  0  0  0  0  0  0  0  0  0  0
   19.2236  -19.2938  -13.6292 N   0  0  0  0  0  0  0  0  0  0  0  0
   19.6100  -18.1508  -13.0418 C   0  0  0  0  0  0  0  0  0  0  0  0
   20.8040  -17.8487  -13.5654 N   0  0  0  0  0  0  0  0  0  0  0  0
   23.4911  -20.4678  -13.7104 C   0  0  0  0  0  0  0  0  0  0  0  0
   23.6522  -21.6115  -14.2848 O   0  0  0  0  0  0  0  0  0  0  0  0
   23.1656  -20.5676  -12.3325 N   0  0  0  0  0  0  0  0  0  0  0  0
   22.9696  -19.4604  -11.4322 C   0  0  0  0  0  0  0  0  0  0  0  0
   23.6559  -19.9004  -10.1684 C   0  0  0  0  0  0  0  0  0  0  0  0
   23.5928  -21.3909  -10.1736 C   0  0  0  0  0  0  0  0  0  0  0  0
   22.9702  -21.7585  -11.5132 C   0  0  1  0  0  0  0  0  0  0  0  0
   21.5456  -22.0478  -11.2315 C   0  0  0  0  0  0  0  0  0  0  0  0
   21.0715  -23.2203  -10.6819 O   0  0  0  0  0  0  0  0  0  0  0  0
   20.7118  -21.1523  -11.5185 O   0  0  0  0  0  0  0  0  0  0  0  0
  1  2  1  0
  3  5  1  0
  3  2  1  0
  3  4  1  1
  5  7  1  0
  5  6  1  6
  7  9  1  0
  8  7  2  0
 10  9  1  0
 10 11  1  6
 11 12  1  0
 12 16  1  0
 13 12  2  0
 13 14  1  0
 14 15  1  0
 16 15  2  0
 17 18  2  0
 17 10  1  0
 19 17  1  0
 20 19  1  0
 21 20  1  0
 22 21  1  0
 22 23  1  0
 23 19  1  0
 23 24  1  1
 25 24  1  0
 26 24  2  0
M  END
$$$$
