IHP.pdb
     RDKit          3D

 26 27  0  0  1  0  0  0  0  0999 V2000
   28.5596  -19.5943  -15.4783 C   0  0  0  0  0  0  0  0  0  0  0  0
   27.6563  -20.4640  -14.6617 C   0  0  0  0  0  0  0  0  0  0  0  0
   27.4677  -19.9085  -13.2600 C   0  0  2  0  0  0  0  0  0  0  0  0
   28.8253  -19.6921  -12.6612 C   0  0  0  0  0  0  0  0  0  0  0  0
   26.6474  -20.9185  -12.4782 C   0  0  2  0  0  0  0  0  0  0  0  0
   25.4325  -21.1854  -13.2396 N   0  0  0  0  0  0  0  0  0  0  0  0
   26.2618  -20.3851  -11.1480 C   0  0  0  0  0  0  0  0  0  0  0  0
   25.8461  -19.2070  -11.0290 O   0  0  0  0  0  0  0  0  0  0  0  0
   26.3477  -21.1788   -9.9747 N   0  0  0  0  0  0  0  0  0  0  0  0
   26.1315  -20.6134   -8.6295 C   0  0  1  0  0  0  0  0  0  0  0  0
   24.8676  -21.2169   -8.0473 C   0  0  0  0  0  0  0  0  0  0  0  0
   23.6636  -20.9704   -8.8409 C   0  0  0  0  0  0  0  0  0  0  0  0
   23.5834  -20.2998  -10.0315 C   0  0  0  0  0  0  0  0  0  0  0  0
   22.2725  -20.3194  -10.4093 N   0  0  0  0  0  0  0  0  0  0  0  0
   21.5480  -20.9785   -9.4919 C   0  0  0  0  0  0  0  0  0  0  0  0
   22.4109  -21.3671   -8.5456 N   0  0  0  0  0  0  0  0  0  0  0  0
   27.3236  -20.7419   -7.7952 C   0  0  0  0  0  0  0  0  0  0  0  0
   28.2618  -21.5765   -8.0904 O   0  0  0  0  0  0  0  0  0  0  0  0
   27.5822  -19.9936   -6.6172 N   0  0  0  0  0  0  0  0  0  0  0  0
   26.7963  -18.8873   -6.1340 C   0  0  0  0  0  0  0  0  0  0  0  0
   27.8246  -17.8959   -5.6636 C   0  0  0  0  0  0  0  0  0  0  0  0
   29.0156  -18.7050   -5.2735 C   0  0  0  0  0  0  0  0  0  0  0  0
   28.6646  -20.1376   -5.6502 C   0  0  1  0  0  0  0  0  0  0  0  0
   28.2422  -20.7949   -4.3923 C   0  0  0  0  0  0  0  0  0  0  0  0
   29.0860  -21.1297   -3.3543 O   0  0  0  0  0  0  0  0  0  0  0  0
   27.0211  -21.0654   -4.2698 O   0  0  0  0  0  0  0  0  0  0  0  0
  1  2  1  0
  3  5  1  0
  3  2  1  0
  3  4  1  1
  5  7  1  0
  5  6  1  6
  7  9  1  0
  8  7  2  0
 10  9  1  0
 10 11  1  1
 11 12  1  0
 12 16  1  0
 13 12  2  0
 13 14  1  0
 14 15  1  0
 16 15  2  0
 17 18  2  0
 17 10  1  0
 19 17  1  0
 20 19  1  0
 21 20  1  0
 22 21  1  0
 22 23  1  0
 23 19  1  0
 23 24  1  1
 25 24  1  0
 26 24  2  0
M  END
$$$$
