IHP.pdb
     RDKit          3D

 26 27  0  0  1  0  0  0  0  0999 V2000
   20.2604  -17.4816  -20.1048 C   0  0  0  0  0  0  0  0  0  0  0  0
   20.6957  -16.2316  -19.4067 C   0  0  0  0  0  0  0  0  0  0  0  0
   21.9307  -16.4720  -18.5548 C   0  0  2  0  0  0  0  0  0  0  0  0
   22.9855  -17.0804  -19.4298 C   0  0  0  0  0  0  0  0  0  0  0  0
   21.5252  -17.3914  -17.4170 C   0  0  2  0  0  0  0  0  0  0  0  0
   20.4825  -16.7158  -16.6532 N   0  0  0  0  0  0  0  0  0  0  0  0
   22.6692  -17.6653  -16.5121 C   0  0  0  0  0  0  0  0  0  0  0  0
   23.6243  -16.8557  -16.4280 O   0  0  0  0  0  0  0  0  0  0  0  0
   22.7245  -18.8396  -15.7172 N   0  0  0  0  0  0  0  0  0  0  0  0
   23.9330  -19.2161  -14.9597 C   0  0  1  0  0  0  0  0  0  0  0  0
   23.5064  -19.8363  -13.6430 C   0  0  0  0  0  0  0  0  0  0  0  0
   24.6064  -20.4003  -12.8605 C   0  0  0  0  0  0  0  0  0  0  0  0
   25.0205  -21.7049  -12.8409 C   0  0  0  0  0  0  0  0  0  0  0  0
   26.0767  -21.7719  -11.9796 N   0  0  0  0  0  0  0  0  0  0  0  0
   26.3232  -20.5544  -11.4719 C   0  0  0  0  0  0  0  0  0  0  0  0
   25.4192  -19.7332  -12.0191 N   0  0  0  0  0  0  0  0  0  0  0  0
   24.8399  -20.0297  -15.7657 C   0  0  0  0  0  0  0  0  0  0  0  0
   24.3922  -20.8917  -16.6144 O   0  0  0  0  0  0  0  0  0  0  0  0
   26.2570  -19.9672  -15.7169 N   0  0  0  0  0  0  0  0  0  0  0  0
   27.0322  -19.1339  -14.8340 C   0  0  0  0  0  0  0  0  0  0  0  0
   28.1419  -18.6198  -15.7092 C   0  0  0  0  0  0  0  0  0  0  0  0
   28.3383  -19.6579  -16.7624 C   0  0  0  0  0  0  0  0  0  0  0  0
   27.2416  -20.6851  -16.5186 C   0  0  1  0  0  0  0  0  0  0  0  0
   27.8872  -21.8014  -15.7910 C   0  0  0  0  0  0  0  0  0  0  0  0
   28.7743  -22.6987  -16.3475 O   0  0  0  0  0  0  0  0  0  0  0  0
   27.5991  -21.9350  -14.5750 O   0  0  0  0  0  0  0  0  0  0  0  0
  1  2  1  0
  3  5  1  0
  3  2  1  0
  3  4  1  6
  5  7  1  0
  5  6  1  1
  7  9  1  0
  8  7  2  0
 10  9  1  0
 10 11  1  1
 11 12  1  0
 12 16  1  0
 13 12  2  0
 13 14  1  0
 14 15  1  0
 16 15  2  0
 17 18  2  0
 17 10  1  0
 19 17  1  0
 20 19  1  0
 21 20  1  0
 22 21  1  0
 22 23  1  0
 23 19  1  0
 23 24  1  1
 25 24  1  0
 26 24  2  0
M  END
$$$$
