IHP.pdb
     RDKit          3D

 26 27  0  0  1  0  0  0  0  0999 V2000
   21.3960  -13.2462  -21.5305 C   0  0  0  0  0  0  0  0  0  0  0  0
   20.1527  -13.4914  -20.7346 C   0  0  0  0  0  0  0  0  0  0  0  0
   19.9792  -12.4519  -19.6401 C   0  0  2  0  0  0  0  0  0  0  0  0
   20.1067  -11.0951  -20.2657 C   0  0  0  0  0  0  0  0  0  0  0  0
   21.0513  -12.7083  -18.5966 C   0  0  2  0  0  0  0  0  0  0  0  0
   20.9511  -14.1066  -18.1945 N   0  0  0  0  0  0  0  0  0  0  0  0
   20.8498  -11.8578  -17.3971 C   0  0  0  0  0  0  0  0  0  0  0  0
   19.7948  -11.9448  -16.7231 O   0  0  0  0  0  0  0  0  0  0  0  0
   21.8319  -10.9255  -16.9727 N   0  0  0  0  0  0  0  0  0  0  0  0
   21.5971   -9.9975  -15.8503 C   0  0  1  0  0  0  0  0  0  0  0  0
   22.4900  -10.4010  -14.6925 C   0  0  0  0  0  0  0  0  0  0  0  0
   23.8957  -10.5843  -15.0538 C   0  0  0  0  0  0  0  0  0  0  0  0
   24.8534   -9.6122  -15.1609 C   0  0  0  0  0  0  0  0  0  0  0  0
   26.0143  -10.2372  -15.5120 N   0  0  0  0  0  0  0  0  0  0  0  0
   25.8005  -11.5574  -15.6232 C   0  0  0  0  0  0  0  0  0  0  0  0
   24.5066  -11.7497  -15.3409 N   0  0  0  0  0  0  0  0  0  0  0  0
   21.7169   -8.6040  -16.2719 C   0  0  0  0  0  0  0  0  0  0  0  0
   22.3859   -8.2774  -17.3252 O   0  0  0  0  0  0  0  0  0  0  0  0
   21.1331   -7.4949  -15.6060 N   0  0  0  0  0  0  0  0  0  0  0  0
   20.2310   -7.5662  -14.4853 C   0  0  0  0  0  0  0  0  0  0  0  0
   19.1959   -6.5190  -14.7914 C   0  0  0  0  0  0  0  0  0  0  0  0
   19.8888   -5.5019  -15.6346 C   0  0  0  0  0  0  0  0  0  0  0  0
   21.2793   -6.0700  -15.8819 C   0  0  1  0  0  0  0  0  0  0  0  0
   22.1748   -5.3779  -14.9272 C   0  0  0  0  0  0  0  0  0  0  0  0
   22.6937   -4.1128  -15.1061 O   0  0  0  0  0  0  0  0  0  0  0  0
   22.4811   -5.9972  -13.8774 O   0  0  0  0  0  0  0  0  0  0  0  0
  1  2  1  0
  3  5  1  0
  3  2  1  0
  3  4  1  6
  5  7  1  0
  5  6  1  1
  7  9  1  0
  8  7  2  0
 10  9  1  0
 10 11  1  1
 11 12  1  0
 12 16  1  0
 13 12  2  0
 13 14  1  0
 14 15  1  0
 16 15  2  0
 17 18  2  0
 17 10  1  0
 19 17  1  0
 20 19  1  0
 21 20  1  0
 22 21  1  0
 22 23  1  0
 23 19  1  0
 23 24  1  1
 25 24  1  0
 26 24  2  0
M  END
$$$$
