IHP.pdb
     RDKit          3D

 26 27  0  0  1  0  0  0  0  0999 V2000
   15.4749  -12.0961  -17.0564 C   0  0  0  0  0  0  0  0  0  0  0  0
   16.8898  -12.4503  -16.7218 C   0  0  0  0  0  0  0  0  0  0  0  0
   17.8578  -11.9171  -17.7645 C   0  0  2  0  0  0  0  0  0  0  0  0
   18.1583  -13.0265  -18.7276 C   0  0  0  0  0  0  0  0  0  0  0  0
   19.0977  -11.4396  -17.0305 C   0  0  2  0  0  0  0  0  0  0  0  0
   19.4520  -12.4605  -16.0511 N   0  0  0  0  0  0  0  0  0  0  0  0
   18.8415  -10.1665  -16.3119 C   0  0  0  0  0  0  0  0  0  0  0  0
   18.4731   -9.1433  -16.9382 O   0  0  0  0  0  0  0  0  0  0  0  0
   19.0014  -10.0606  -14.9058 N   0  0  0  0  0  0  0  0  0  0  0  0
   18.8415   -8.7784  -14.1941 C   0  0  1  0  0  0  0  0  0  0  0  0
   18.0662   -9.0275  -12.9145 C   0  0  0  0  0  0  0  0  0  0  0  0
   18.0507   -7.8928  -11.9912 C   0  0  0  0  0  0  0  0  0  0  0  0
   18.9427   -7.6357  -10.9853 C   0  0  0  0  0  0  0  0  0  0  0  0
   18.5448   -6.4738  -10.3909 N   0  0  0  0  0  0  0  0  0  0  0  0
   17.4409   -6.0112  -10.9978 C   0  0  0  0  0  0  0  0  0  0  0  0
   17.1553   -6.8871  -11.9684 N   0  0  0  0  0  0  0  0  0  0  0  0
   20.1218   -8.0963  -14.0229 C   0  0  0  0  0  0  0  0  0  0  0  0
   21.1925   -8.7471  -13.7167 O   0  0  0  0  0  0  0  0  0  0  0  0
   20.3313   -6.7004  -14.1718 N   0  0  0  0  0  0  0  0  0  0  0  0
   19.3280   -5.7336  -14.5371 C   0  0  0  0  0  0  0  0  0  0  0  0
   20.0405   -4.8243  -15.5000 C   0  0  0  0  0  0  0  0  0  0  0  0
   21.4816   -4.8838  -15.1191 C   0  0  0  0  0  0  0  0  0  0  0  0
   21.5588   -5.9284  -14.0145 C   0  0  1  0  0  0  0  0  0  0  0  0
   21.6148   -5.1703  -12.7438 C   0  0  0  0  0  0  0  0  0  0  0  0
   20.6154   -5.1462  -11.7939 O   0  0  0  0  0  0  0  0  0  0  0  0
   22.6546   -4.5001  -12.5222 O   0  0  0  0  0  0  0  0  0  0  0  0
  1  2  1  0
  3  5  1  0
  3  2  1  0
  3  4  1  6
  5  7  1  0
  5  6  1  1
  7  9  1  0
  8  7  2  0
 10  9  1  0
 10 11  1  1
 11 12  1  0
 12 16  1  0
 13 12  2  0
 13 14  1  0
 14 15  1  0
 16 15  2  0
 17 18  2  0
 17 10  1  0
 19 17  1  0
 20 19  1  0
 21 20  1  0
 22 21  1  0
 22 23  1  0
 23 19  1  0
 23 24  1  1
 25 24  1  0
 26 24  2  0
M  END
$$$$
