IHP.pdb
     RDKit          3D

 26 27  0  0  1  0  0  0  0  0999 V2000
   13.8642  -10.4720  -15.7321 C   0  0  0  0  0  0  0  0  0  0  0  0
   15.1757  -11.0145  -16.2062 C   0  0  0  0  0  0  0  0  0  0  0  0
   16.3425  -10.2259  -15.6357 C   0  0  2  0  0  0  0  0  0  0  0  0
   16.1956   -8.7994  -16.0742 C   0  0  0  0  0  0  0  0  0  0  0  0
   17.6183  -10.8609  -16.1584 C   0  0  2  0  0  0  0  0  0  0  0  0
   17.6449  -12.2439  -15.6964 N   0  0  0  0  0  0  0  0  0  0  0  0
   18.8200  -10.1658  -15.6337 C   0  0  0  0  0  0  0  0  0  0  0  0
   19.0618  -10.1510  -14.4023 O   0  0  0  0  0  0  0  0  0  0  0  0
   19.7301   -9.5001  -16.4954 N   0  0  0  0  0  0  0  0  0  0  0  0
   20.8751   -8.7271  -15.9782 C   0  0  1  0  0  0  0  0  0  0  0  0
   22.0959   -9.0469  -16.8196 C   0  0  0  0  0  0  0  0  0  0  0  0
   22.6033  -10.4084  -16.6484 C   0  0  0  0  0  0  0  0  0  0  0  0
   22.1373  -11.3593  -15.7811 C   0  0  0  0  0  0  0  0  0  0  0  0
   22.9012  -12.4742  -15.9685 N   0  0  0  0  0  0  0  0  0  0  0  0
   23.8178  -12.2387  -16.9200 C   0  0  0  0  0  0  0  0  0  0  0  0
   23.6214  -10.9774  -17.3217 N   0  0  0  0  0  0  0  0  0  0  0  0
   20.5548   -7.3066  -15.8615 C   0  0  0  0  0  0  0  0  0  0  0  0
   19.5830   -6.7815  -16.5275 O   0  0  0  0  0  0  0  0  0  0  0  0
   21.2403   -6.3788  -15.0345 N   0  0  0  0  0  0  0  0  0  0  0  0
   22.3847   -6.6721  -14.2104 C   0  0  0  0  0  0  0  0  0  0  0  0
   22.1104   -5.9216  -12.9363 C   0  0  0  0  0  0  0  0  0  0  0  0
   21.2525   -4.7652  -13.3267 C   0  0  0  0  0  0  0  0  0  0  0  0
   20.9658   -4.9642  -14.8084 C   0  0  1  0  0  0  0  0  0  0  0  0
   21.8984   -4.0650  -15.5254 C   0  0  0  0  0  0  0  0  0  0  0  0
   21.6719   -2.7276  -15.7738 O   0  0  0  0  0  0  0  0  0  0  0  0
   22.9752   -4.5665  -15.9361 O   0  0  0  0  0  0  0  0  0  0  0  0
  1  2  1  0
  3  5  1  0
  3  2  1  0
  3  4  1  6
  5  7  1  0
  5  6  1  1
  7  9  1  0
  8  7  2  0
 10  9  1  0
 10 11  1  6
 11 12  1  0
 12 16  1  0
 13 12  2  0
 13 14  1  0
 14 15  1  0
 16 15  2  0
 17 18  2  0
 17 10  1  0
 19 17  1  0
 20 19  1  0
 21 20  1  0
 22 21  1  0
 22 23  1  0
 23 19  1  0
 23 24  1  6
 25 24  1  0
 26 24  2  0
M  END
$$$$
