IHP.pdb
     RDKit          3D

 26 27  0  0  1  0  0  0  0  0999 V2000
   25.1767  -34.6681  -18.3014 C   0  0  0  0  0  0  0  0  0  0  0  0
   24.3352  -33.4331  -18.2242 C   0  0  0  0  0  0  0  0  0  0  0  0
   24.3696  -32.8230  -16.8331 C   0  0  2  0  0  0  0  0  0  0  0  0
   23.9568  -33.8805  -15.8534 C   0  0  0  0  0  0  0  0  0  0  0  0
   23.4221  -31.6371  -16.8340 C   0  0  2  0  0  0  0  0  0  0  0  0
   23.9951  -30.6144  -17.7016 N   0  0  0  0  0  0  0  0  0  0  0  0
   23.2702  -31.0679  -15.4718 C   0  0  0  0  0  0  0  0  0  0  0  0
   24.1776  -30.3602  -14.9711 O   0  0  0  0  0  0  0  0  0  0  0  0
   22.1061  -31.3001  -14.6940 N   0  0  0  0  0  0  0  0  0  0  0  0
   21.9722  -30.7938  -13.3150 C   0  0  1  0  0  0  0  0  0  0  0  0
   20.7624  -29.8813  -13.2488 C   0  0  0  0  0  0  0  0  0  0  0  0
   20.5433  -29.2686  -11.9385 C   0  0  0  0  0  0  0  0  0  0  0  0
   21.0653  -28.0884  -11.4822 C   0  0  0  0  0  0  0  0  0  0  0  0
   20.5896  -27.9085  -10.2161 N   0  0  0  0  0  0  0  0  0  0  0  0
   19.7949  -28.9370   -9.8820 C   0  0  0  0  0  0  0  0  0  0  0  0
   19.7787  -29.7540  -10.9418 N   0  0  0  0  0  0  0  0  0  0  0  0
   21.9848  -31.8817  -12.3402 C   0  0  0  0  0  0  0  0  0  0  0  0
   21.5608  -33.0608  -12.6459 O   0  0  0  0  0  0  0  0  0  0  0  0
   22.4494  -31.7766  -11.0032 N   0  0  0  0  0  0  0  0  0  0  0  0
   22.9587  -30.5813  -10.3812 C   0  0  0  0  0  0  0  0  0  0  0  0
   24.1384  -31.0667   -9.5848 C   0  0  0  0  0  0  0  0  0  0  0  0
   23.8395  -32.4889   -9.2479 C   0  0  0  0  0  0  0  0  0  0  0  0
   22.5386  -32.8049   -9.9726 C   0  0  1  0  0  0  0  0  0  0  0  0
   21.4715  -32.7040   -8.9510 C   0  0  0  0  0  0  0  0  0  0  0  0
   21.2510  -33.6220   -7.9459 O   0  0  0  0  0  0  0  0  0  0  0  0
   20.7133  -31.7036   -9.0120 O   0  0  0  0  0  0  0  0  0  0  0  0
  1  2  1  0
  3  5  1  0
  3  2  1  0
  3  4  1  1
  5  7  1  0
  5  6  1  6
  7  9  1  0
  8  7  2  0
 10  9  1  0
 10 11  1  6
 11 12  1  0
 12 16  1  0
 13 12  2  0
 13 14  1  0
 14 15  1  0
 16 15  2  0
 17 18  2  0
 17 10  1  0
 19 17  1  0
 20 19  1  0
 21 20  1  0
 22 21  1  0
 22 23  1  0
 23 19  1  0
 23 24  1  1
 25 24  1  0
 26 24  2  0
M  END
$$$$
