IHP.pdb
     RDKit          3D

 26 27  0  0  1  0  0  0  0  0999 V2000
   25.3494  -16.5926  -15.3193 C   0  0  0  0  0  0  0  0  0  0  0  0
   25.8546  -17.9926  -15.1637 C   0  0  0  0  0  0  0  0  0  0  0  0
   27.3522  -18.0181  -14.9088 C   0  0  2  0  0  0  0  0  0  0  0  0
   28.0478  -18.0334  -16.2371 C   0  0  0  0  0  0  0  0  0  0  0  0
   27.6517  -19.2588  -14.0872 C   0  0  2  0  0  0  0  0  0  0  0  0
   27.1214  -20.4076  -14.8124 N   0  0  0  0  0  0  0  0  0  0  0  0
   26.9941  -19.1964  -12.7582 C   0  0  0  0  0  0  0  0  0  0  0  0
   27.1136  -18.1783  -12.0343 O   0  0  0  0  0  0  0  0  0  0  0  0
   26.2143  -20.2736  -12.2626 N   0  0  0  0  0  0  0  0  0  0  0  0
   25.5817  -20.2343  -10.9306 C   0  0  1  0  0  0  0  0  0  0  0  0
   24.2364  -20.9300  -11.0119 C   0  0  0  0  0  0  0  0  0  0  0  0
   23.4356  -20.8334   -9.7914 C   0  0  0  0  0  0  0  0  0  0  0  0
   23.5263  -21.6278   -8.6803 C   0  0  0  0  0  0  0  0  0  0  0  0
   22.5964  -21.1728   -7.7915 N   0  0  0  0  0  0  0  0  0  0  0  0
   21.9402  -20.1281   -8.3197 C   0  0  0  0  0  0  0  0  0  0  0  0
   22.4642  -19.9362   -9.5361 N   0  0  0  0  0  0  0  0  0  0  0  0
   26.4804  -20.7371   -9.8946 C   0  0  0  0  0  0  0  0  0  0  0  0
   27.2388  -21.7594  -10.1033 O   0  0  0  0  0  0  0  0  0  0  0  0
   26.6235  -20.1823   -8.5960 N   0  0  0  0  0  0  0  0  0  0  0  0
   25.9155  -19.0349   -8.0889 C   0  0  0  0  0  0  0  0  0  0  0  0
   26.9654  -18.2742   -7.3268 C   0  0  0  0  0  0  0  0  0  0  0  0
   27.9543  -19.2955   -6.8746 C   0  0  0  0  0  0  0  0  0  0  0  0
   27.4917  -20.6030   -7.5021 C   0  0  1  0  0  0  0  0  0  0  0  0
   26.7738  -21.3334   -6.4327 C   0  0  0  0  0  0  0  0  0  0  0  0
   25.4386  -21.6762   -6.4696 O   0  0  0  0  0  0  0  0  0  0  0  0
   27.4383  -21.6612   -5.4176 O   0  0  0  0  0  0  0  0  0  0  0  0
  1  2  1  0
  3  5  1  0
  3  2  1  0
  3  4  1  6
  5  7  1  0
  5  6  1  6
  7  9  1  0
  8  7  2  0
 10  9  1  0
 10 11  1  6
 11 12  1  0
 12 16  1  0
 13 12  2  0
 13 14  1  0
 14 15  1  0
 16 15  2  0
 17 18  2  0
 17 10  1  0
 19 17  1  0
 20 19  1  0
 21 20  1  0
 22 21  1  0
 22 23  1  0
 23 19  1  0
 23 24  1  1
 25 24  1  0
 26 24  2  0
M  END
$$$$
