CRM.pdb
     RDKit          3D

 26 25  0  0  1  0  0  0  0  0999 V2000
    6.9263  -14.4629   18.3340 N   0  0  0  0  0  0  0  0  0  0  0  0
    8.2364  -14.1490   18.9409 C   0  0  1  0  0  0  0  0  0  0  0  0
    8.2134  -12.7423   19.4901 C   0  0  0  0  0  0  0  0  0  0  0  0
    8.2597  -11.5827   18.1094 S   0  0  0  0  0  0  0  0  0  0  0  0
    8.4106  -15.0927   20.0763 C   0  0  0  0  0  0  0  0  0  0  0  0
    7.4250  -15.2861   20.8219 O   0  0  0  0  0  0  0  0  0  0  0  0
   14.2630  -20.4146   23.8215 N   0  0  0  0  0  0  0  0  0  0  0  0
   13.0098  -21.0026   24.1661 C   0  0  0  0  0  0  0  0  0  0  0  0
   12.9270  -21.8802   25.1220 N   0  0  0  0  0  0  0  0  0  0  0  0
   11.8108  -20.6619   23.4853 N   0  0  0  0  0  0  0  0  0  0  0  0
   11.8748  -19.7189   22.3946 C   0  0  0  0  0  0  0  0  0  0  0  0
   10.7994  -18.6441   22.5292 C   0  0  0  0  0  0  0  0  0  0  0  0
   10.7655  -17.7433   21.3480 C   0  0  0  0  0  0  0  0  0  0  0  0
    9.7441  -16.6798   21.4456 C   0  0  2  0  0  0  0  0  0  0  0  0
    9.5832  -15.7785   20.3731 N   0  0  0  0  0  0  0  0  0  0  0  0
    9.8053  -15.9765   22.7451 C   0  0  0  0  0  0  0  0  0  0  0  0
   10.3659  -14.8462   22.7756 O   0  0  0  0  0  0  0  0  0  0  0  0
   12.0180  -22.2618   25.4440 C   0  0  0  0  0  0  0  0  0  0  0  0
    6.6862  -11.4042   27.5026 S   0  0  0  0  0  0  0  0  0  0  0  0
    6.6504  -12.5947   26.1094 C   0  0  0  0  0  0  0  0  0  0  0  0
    8.0530  -13.7357   26.2901 C   0  0  0  0  0  0  0  0  0  0  0  0
    8.0672  -14.6475   25.0713 C   0  0  2  0  0  0  0  0  0  0  0  0
    9.2233  -15.6209   25.1595 N   0  0  0  0  0  0  0  0  0  0  0  0
    9.2866  -16.4586   23.9671 C   0  0  0  0  0  0  0  0  0  0  0  0
    8.9826  -16.4882   26.3252 O   0  0  0  0  0  0  0  0  0  0  0  0
    8.4866  -17.6174   26.1869 O   0  0  0  0  0  0  0  0  0  0  0  0
  2  5  1  0
  2  1  1  1
  3  2  1  0
  4  3  1  0
  5  6  2  0
  7  8  1  0
  8 10  1  0
  9  8  2  0
 10 11  1  0
 12 11  1  0
 13 12  1  0
 14 13  1  6
 15 14  1  0
 15  5  1  0
 16 14  1  0
 17 16  2  0
 19 18  1  0
 20 19  1  0
 21 20  1  0
 22 21  1  6
 22 23  1  0
 23 16  1  0
 24 22  1  0
 24 26  1  0
 25 24  2  0
M  END
$$$$
