CRM.pdb
     RDKit          3D

 26 25  0  0  1  0  0  0  0  0999 V2000
    7.7010  -14.0237   18.1729 N   0  0  0  0  0  0  0  0  0  0  0  0
    8.7633  -13.8083   19.1770 C   0  0  1  0  0  0  0  0  0  0  0  0
    8.6103  -12.4348   19.7861 C   0  0  0  0  0  0  0  0  0  0  0  0
    9.3694  -11.2264   18.6831 S   0  0  0  0  0  0  0  0  0  0  0  0
    8.5453  -14.8210   20.2434 C   0  0  0  0  0  0  0  0  0  0  0  0
    7.3831  -14.9496   20.6876 O   0  0  0  0  0  0  0  0  0  0  0  0
    8.2839  -21.7059   20.8097 N   0  0  0  0  0  0  0  0  0  0  0  0
    9.0693  -21.6490   19.6201 C   0  0  0  0  0  0  0  0  0  0  0  0
    8.8049  -22.4247   18.6106 N   0  0  0  0  0  0  0  0  0  0  0  0
   10.1650  -20.7549   19.4888 N   0  0  0  0  0  0  0  0  0  0  0  0
   10.5355  -19.9388   20.6200 C   0  0  0  0  0  0  0  0  0  0  0  0
    9.6311  -18.7149   20.7385 C   0  0  0  0  0  0  0  0  0  0  0  0
   10.0431  -17.8278   21.8569 C   0  0  0  0  0  0  0  0  0  0  0  0
    9.3463  -16.5246   21.8645 C   0  0  2  0  0  0  0  0  0  0  0  0
    9.5323  -15.6375   20.7843 N   0  0  0  0  0  0  0  0  0  0  0  0
    9.4827  -15.8359   23.1661 C   0  0  0  0  0  0  0  0  0  0  0  0
   10.5443  -15.1876   23.3793 O   0  0  0  0  0  0  0  0  0  0  0  0
    9.4037  -22.4528   17.7642 C   0  0  0  0  0  0  0  0  0  0  0  0
    6.0208  -11.5255   25.9845 S   0  0  0  0  0  0  0  0  0  0  0  0
    6.2399  -12.5827   27.4656 C   0  0  0  0  0  0  0  0  0  0  0  0
    7.6657  -13.6745   27.1886 C   0  0  0  0  0  0  0  0  0  0  0  0
    7.4680  -14.3611   25.8445 C   0  0  1  0  0  0  0  0  0  0  0  0
    8.7289  -15.0958   25.4417 N   0  0  0  0  0  0  0  0  0  0  0  0
    8.5228  -15.8362   24.2020 C   0  0  0  0  0  0  0  0  0  0  0  0
    9.0406  -16.0580   26.5122 O   0  0  0  0  0  0  0  0  0  0  0  0
    8.7016  -17.2481   26.4169 O   0  0  0  0  0  0  0  0  0  0  0  0
  2  5  1  0
  2  1  1  6
  3  2  1  0
  4  3  1  0
  5  6  2  0
  7  8  1  0
  8 10  1  0
  9  8  2  0
 10 11  1  0
 12 11  1  0
 13 12  1  0
 14 13  1  1
 15 14  1  0
 15  5  1  0
 16 14  1  0
 17 16  2  0
 19 18  1  0
 20 19  1  0
 21 20  1  0
 22 21  1  6
 22 23  1  0
 23 16  1  0
 24 22  1  0
 24 26  1  0
 25 24  2  0
M  END
$$$$
