CRM.pdb
     RDKit          3D

 26 25  0  0  1  0  0  0  0  0999 V2000
    7.1797  -14.9749   17.5952 N   0  0  0  0  0  0  0  0  0  0  0  0
    8.2296  -14.3474   18.4241 C   0  0  1  0  0  0  0  0  0  0  0  0
    7.7961  -12.9554   18.8180 C   0  0  0  0  0  0  0  0  0  0  0  0
    9.0148  -12.2722   19.9587 S   0  0  0  0  0  0  0  0  0  0  0  0
    8.3397  -15.1707   19.6571 C   0  0  0  0  0  0  0  0  0  0  0  0
    7.2977  -15.3510   20.3251 O   0  0  0  0  0  0  0  0  0  0  0  0
   13.5195  -19.6762   21.3685 N   0  0  0  0  0  0  0  0  0  0  0  0
   13.1281  -20.0881   22.6770 C   0  0  0  0  0  0  0  0  0  0  0  0
   13.9783  -20.0753   23.6608 N   0  0  0  0  0  0  0  0  0  0  0  0
   11.8078  -20.5289   22.9592 N   0  0  0  0  0  0  0  0  0  0  0  0
   10.7098  -19.9515   22.2218 C   0  0  0  0  0  0  0  0  0  0  0  0
   10.5386  -18.4714   22.5536 C   0  0  0  0  0  0  0  0  0  0  0  0
   10.6368  -17.6171   21.3420 C   0  0  0  0  0  0  0  0  0  0  0  0
    9.6085  -16.5574   21.2818 C   0  0  2  0  0  0  0  0  0  0  0  0
    9.5105  -15.7572   20.1247 N   0  0  0  0  0  0  0  0  0  0  0  0
    9.5886  -15.7400   22.5140 C   0  0  0  0  0  0  0  0  0  0  0  0
   10.5049  -14.8857   22.6671 O   0  0  0  0  0  0  0  0  0  0  0  0
   13.7168  -20.3691   24.6204 C   0  0  0  0  0  0  0  0  0  0  0  0
    5.9806  -11.3194   27.6442 S   0  0  0  0  0  0  0  0  0  0  0  0
    6.6302  -11.8531   26.0155 C   0  0  0  0  0  0  0  0  0  0  0  0
    7.5606  -13.3971   26.2440 C   0  0  0  0  0  0  0  0  0  0  0  0
    7.4747  -14.1853   24.9447 C   0  0  1  0  0  0  0  0  0  0  0  0
    8.7225  -15.0216   24.7564 N   0  0  0  0  0  0  0  0  0  0  0  0
    8.6271  -15.8280   23.5447 C   0  0  0  0  0  0  0  0  0  0  0  0
    8.8249  -15.9286   25.9122 O   0  0  0  0  0  0  0  0  0  0  0  0
    8.6520  -17.1504   25.7798 O   0  0  0  0  0  0  0  0  0  0  0  0
  2  5  1  0
  2  1  1  6
  3  2  1  0
  4  3  1  0
  5  6  2  0
  7  8  1  0
  8 10  1  0
  9  8  2  0
 10 11  1  0
 12 11  1  0
 13 12  1  0
 14 13  1  6
 15 14  1  0
 15  5  1  0
 16 14  1  0
 17 16  2  0
 19 18  1  0
 20 19  1  0
 21 20  1  0
 22 21  1  6
 22 23  1  0
 23 16  1  0
 24 22  1  0
 24 26  1  0
 25 24  2  0
M  END
$$$$
