CRM.pdb
     RDKit          3D

 26 25  0  0  1  0  0  0  0  0999 V2000
    5.0584  -18.9734   23.2807 N   0  0  0  0  0  0  0  0  0  0  0  0
    6.0869  -19.9437   23.7094 C   0  0  1  0  0  0  0  0  0  0  0  0
    5.9588  -21.2078   22.8930 C   0  0  0  0  0  0  0  0  0  0  0  0
    4.2116  -21.6350   22.7607 S   0  0  0  0  0  0  0  0  0  0  0  0
    7.4031  -19.3219   23.4075 C   0  0  0  0  0  0  0  0  0  0  0  0
    8.4212  -20.0382   23.5305 O   0  0  0  0  0  0  0  0  0  0  0  0
    7.8310  -11.8243   20.1070 N   0  0  0  0  0  0  0  0  0  0  0  0
    8.1058  -12.8557   19.1605 C   0  0  0  0  0  0  0  0  0  0  0  0
    8.8952  -12.6386   18.1503 N   0  0  0  0  0  0  0  0  0  0  0  0
    7.5327  -14.1500   19.2766 N   0  0  0  0  0  0  0  0  0  0  0  0
    8.3923  -15.2649   19.5942 C   0  0  0  0  0  0  0  0  0  0  0  0
    8.1931  -15.7232   21.0364 C   0  0  0  0  0  0  0  0  0  0  0  0
    9.1009  -16.8444   21.3918 C   0  0  0  0  0  0  0  0  0  0  0  0
    8.8415  -17.4125   22.7312 C   0  0  2  0  0  0  0  0  0  0  0  0
    7.5906  -18.0066   22.9972 N   0  0  0  0  0  0  0  0  0  0  0  0
    9.2453  -16.4844   23.8095 C   0  0  0  0  0  0  0  0  0  0  0  0
    9.3548  -15.2607   23.5211 O   0  0  0  0  0  0  0  0  0  0  0  0
    9.1110  -13.3730   17.4505 C   0  0  0  0  0  0  0  0  0  0  0  0
    7.2705  -11.7425   26.9887 S   0  0  0  0  0  0  0  0  0  0  0  0
    6.4391  -13.2008   26.2526 C   0  0  0  0  0  0  0  0  0  0  0  0
    7.6997  -14.2464   25.4655 C   0  0  0  0  0  0  0  0  0  0  0  0
    7.9689  -15.4232   26.3927 C   0  0  2  0  0  0  0  0  0  0  0  0
    9.4009  -15.8909   26.2423 N   0  0  0  0  0  0  0  0  0  0  0  0
    9.5208  -16.8463   25.1466 C   0  0  0  0  0  0  0  0  0  0  0  0
    9.7780  -16.5688   27.4942 O   0  0  0  0  0  0  0  0  0  0  0  0
    9.8494  -17.8065   27.5513 O   0  0  0  0  0  0  0  0  0  0  0  0
  2  5  1  0
  2  1  1  6
  3  2  1  0
  4  3  1  0
  5  6  2  0
  7  8  1  0
  8 10  1  0
  9  8  2  0
 10 11  1  0
 12 11  1  0
 13 12  1  0
 14 13  1  6
 15 14  1  0
 15  5  1  0
 16 14  1  0
 17 16  2  0
 19 18  1  0
 20 19  1  0
 21 20  1  0
 22 21  1  6
 22 23  1  0
 23 16  1  0
 24 22  1  0
 24 26  1  0
 25 24  2  0
M  END
$$$$
