CRM.pdb
     RDKit          3D

 26 25  0  0  1  0  0  0  0  0999 V2000
    7.8398  -21.7693   25.3565 N   0  0  0  0  0  0  0  0  0  0  0  0
    6.9293  -20.6078   25.4267 C   0  0  1  0  0  0  0  0  0  0  0  0
    6.8386  -20.1239   26.8545 C   0  0  0  0  0  0  0  0  0  0  0  0
    5.9542  -21.3585   27.8274 S   0  0  0  0  0  0  0  0  0  0  0  0
    7.5521  -19.5353   24.6070 C   0  0  0  0  0  0  0  0  0  0  0  0
    8.7906  -19.3853   24.6983 O   0  0  0  0  0  0  0  0  0  0  0  0
    6.6016  -12.6731   19.3209 N   0  0  0  0  0  0  0  0  0  0  0  0
    7.7936  -13.3720   18.9665 C   0  0  0  0  0  0  0  0  0  0  0  0
    8.8208  -12.7350   18.4870 N   0  0  0  0  0  0  0  0  0  0  0  0
    7.9085  -14.7796   19.1167 N   0  0  0  0  0  0  0  0  0  0  0  0
    6.9462  -15.4715   19.9402 C   0  0  0  0  0  0  0  0  0  0  0  0
    7.5698  -15.9230   21.2583 C   0  0  0  0  0  0  0  0  0  0  0  0
    6.8075  -17.0373   21.8787 C   0  0  0  0  0  0  0  0  0  0  0  0
    7.4141  -17.5444   23.1272 C   0  0  2  0  0  0  0  0  0  0  0  0
    6.8655  -18.6870   23.7453 N   0  0  0  0  0  0  0  0  0  0  0  0
    7.6542  -16.4587   24.1023 C   0  0  0  0  0  0  0  0  0  0  0  0
    6.7035  -16.1344   24.8663 O   0  0  0  0  0  0  0  0  0  0  0  0
    9.6774  -13.2270   18.1712 C   0  0  0  0  0  0  0  0  0  0  0  0
    6.4727  -10.1945   27.1333 S   0  0  0  0  0  0  0  0  0  0  0  0
    6.2738  -11.7132   26.1265 C   0  0  0  0  0  0  0  0  0  0  0  0
    7.8393  -12.6352   26.1588 C   0  0  0  0  0  0  0  0  0  0  0  0
    7.7288  -13.7693   25.1496 C   0  0  1  0  0  0  0  0  0  0  0  0
    8.9793  -14.6219   25.1816 N   0  0  0  0  0  0  0  0  0  0  0  0
    8.8632  -15.7457   24.2589 C   0  0  0  0  0  0  0  0  0  0  0  0
    9.1163  -15.1541   26.5480 O   0  0  0  0  0  0  0  0  0  0  0  0
    8.7813  -16.3191   26.8140 O   0  0  0  0  0  0  0  0  0  0  0  0
  2  5  1  0
  2  1  1  1
  3  2  1  0
  4  3  1  0
  5  6  2  0
  7  8  1  0
  8 10  1  0
  9  8  2  0
 10 11  1  0
 12 11  1  0
 13 12  1  0
 14 13  1  6
 15 14  1  0
 15  5  1  0
 16 14  1  0
 17 16  2  0
 19 18  1  0
 20 19  1  0
 21 20  1  0
 22 21  1  6
 22 23  1  0
 23 16  1  0
 24 22  1  0
 24 26  1  0
 25 24  2  0
M  END
$$$$
