CRM.pdb
     RDKit          3D

 26 25  0  0  1  0  0  0  0  0999 V2000
    5.9611  -15.5827   27.1654 N   0  0  0  0  0  0  0  0  0  0  0  0
    6.0759  -14.8598   25.8819 C   0  0  1  0  0  0  0  0  0  0  0  0
    6.6061  -13.4681   26.1329 C   0  0  0  0  0  0  0  0  0  0  0  0
    5.2146  -12.3736   26.4777 S   0  0  0  0  0  0  0  0  0  0  0  0
    7.0748  -15.6024   25.0691 C   0  0  0  0  0  0  0  0  0  0  0  0
    7.9374  -16.2686   25.6830 O   0  0  0  0  0  0  0  0  0  0  0  0
    7.7794  -14.5694   17.2278 N   0  0  0  0  0  0  0  0  0  0  0  0
    8.7373  -13.8033   17.9562 C   0  0  0  0  0  0  0  0  0  0  0  0
    8.9305  -12.5467   17.6837 N   0  0  0  0  0  0  0  0  0  0  0  0
    9.5164  -14.3741   18.9976 N   0  0  0  0  0  0  0  0  0  0  0  0
    9.4038  -15.7900   19.2536 C   0  0  0  0  0  0  0  0  0  0  0  0
    9.4690  -16.0882   20.7492 C   0  0  0  0  0  0  0  0  0  0  0  0
    8.2715  -15.5811   21.4679 C   0  0  0  0  0  0  0  0  0  0  0  0
    8.2758  -15.8891   22.9132 C   0  0  2  0  0  0  0  0  0  0  0  0
    7.1240  -15.6156   23.6795 N   0  0  0  0  0  0  0  0  0  0  0  0
    9.5024  -15.3964   23.5766 C   0  0  0  0  0  0  0  0  0  0  0  0
    9.5042  -14.2074   23.9998 O   0  0  0  0  0  0  0  0  0  0  0  0
    9.6639  -11.9857   18.1559 C   0  0  0  0  0  0  0  0  0  0  0  0
   10.2052  -13.2748   28.6742 S   0  0  0  0  0  0  0  0  0  0  0  0
   10.6278  -15.0531   28.8114 C   0  0  0  0  0  0  0  0  0  0  0  0
   11.6549  -15.5130   27.3847 C   0  0  0  0  0  0  0  0  0  0  0  0
   10.7426  -15.6093   26.1701 C   0  0  1  0  0  0  0  0  0  0  0  0
   11.5555  -15.9021   24.9269 N   0  0  0  0  0  0  0  0  0  0  0  0
   10.6831  -16.1434   23.7831 C   0  0  0  0  0  0  0  0  0  0  0  0
   12.3328  -17.1260   25.1856 O   0  0  0  0  0  0  0  0  0  0  0  0
   13.2249  -17.1431   26.0482 O   0  0  0  0  0  0  0  0  0  0  0  0
  2  5  1  0
  2  1  1  1
  3  2  1  0
  4  3  1  0
  5  6  2  0
  7  8  1  0
  8 10  1  0
  9  8  2  0
 10 11  1  0
 12 11  1  0
 13 12  1  0
 14 13  1  6
 15 14  1  0
 15  5  1  0
 16 14  1  0
 17 16  2  0
 19 18  1  0
 20 19  1  0
 21 20  1  0
 22 21  1  6
 22 23  1  0
 23 16  1  0
 24 22  1  0
 24 26  1  0
 25 24  2  0
M  END
$$$$
