CRM.pdb
     RDKit          3D

 26 25  0  0  1  0  0  0  0  0999 V2000
    6.5287  -19.9908   25.2372 N   0  0  0  0  0  0  0  0  0  0  0  0
    6.2909  -18.5406   25.3903 C   0  0  1  0  0  0  0  0  0  0  0  0
    6.8154  -18.0824   26.7304 C   0  0  0  0  0  0  0  0  0  0  0  0
    6.3049  -16.3732   26.9965 S   0  0  0  0  0  0  0  0  0  0  0  0
    7.0804  -17.8703   24.3238 C   0  0  0  0  0  0  0  0  0  0  0  0
    8.2180  -18.3271   24.0750 O   0  0  0  0  0  0  0  0  0  0  0  0
    6.9070  -12.5968   18.0373 N   0  0  0  0  0  0  0  0  0  0  0  0
    8.0693  -13.3987   18.2400 C   0  0  0  0  0  0  0  0  0  0  0  0
    9.2406  -12.9806   17.8605 N   0  0  0  0  0  0  0  0  0  0  0  0
    7.9986  -14.6768   18.8553 N   0  0  0  0  0  0  0  0  0  0  0  0
    8.6137  -14.8609   20.1479 C   0  0  0  0  0  0  0  0  0  0  0  0
    7.8767  -14.0735   21.2280 C   0  0  0  0  0  0  0  0  0  0  0  0
    6.8796  -14.9124   21.9419 C   0  0  0  0  0  0  0  0  0  0  0  0
    7.4875  -15.9535   22.7966 C   0  0  2  0  0  0  0  0  0  0  0  0
    6.6522  -16.7762   23.5800 N   0  0  0  0  0  0  0  0  0  0  0  0
    8.6248  -15.4258   23.5810 C   0  0  0  0  0  0  0  0  0  0  0  0
    8.7088  -14.1749   23.7252 O   0  0  0  0  0  0  0  0  0  0  0  0
   10.1084  -13.5117   18.0619 C   0  0  0  0  0  0  0  0  0  0  0  0
   10.4133  -14.2284   29.3095 S   0  0  0  0  0  0  0  0  0  0  0  0
    9.0389  -13.7575   28.1920 C   0  0  0  0  0  0  0  0  0  0  0  0
    9.5923  -13.9740   26.4748 C   0  0  0  0  0  0  0  0  0  0  0  0
   10.2870  -15.3251   26.3798 C   0  0  2  0  0  0  0  0  0  0  0  0
   10.7183  -15.5926   24.9535 N   0  0  0  0  0  0  0  0  0  0  0  0
    9.6346  -16.2022   24.1909 C   0  0  0  0  0  0  0  0  0  0  0  0
   11.8437  -16.5413   25.0029 O   0  0  0  0  0  0  0  0  0  0  0  0
   12.9252  -16.2196   25.5195 O   0  0  0  0  0  0  0  0  0  0  0  0
  2  5  1  0
  2  1  1  1
  3  2  1  0
  4  3  1  0
  5  6  2  0
  7  8  1  0
  8 10  1  0
  9  8  2  0
 10 11  1  0
 12 11  1  0
 13 12  1  0
 14 13  1  1
 15 14  1  0
 15  5  1  0
 16 14  1  0
 17 16  2  0
 19 18  1  0
 20 19  1  0
 21 20  1  0
 22 21  1  6
 22 23  1  0
 23 16  1  0
 24 22  1  0
 24 26  1  0
 25 24  2  0
M  END
$$$$
