CRM.pdb
     RDKit          3D

 26 25  0  0  1  0  0  0  0  0999 V2000
    6.2768  -14.8509   19.3453 N   0  0  0  0  0  0  0  0  0  0  0  0
    7.7453  -15.0114   19.3749 C   0  0  1  0  0  0  0  0  0  0  0  0
    8.4013  -13.6511   19.3659 C   0  0  0  0  0  0  0  0  0  0  0  0
    7.7809  -12.7016   20.7683 S   0  0  0  0  0  0  0  0  0  0  0  0
    8.0691  -15.6796   20.6628 C   0  0  0  0  0  0  0  0  0  0  0  0
    7.2294  -15.5911   21.5856 O   0  0  0  0  0  0  0  0  0  0  0  0
   13.0268  -20.2883   22.6302 N   0  0  0  0  0  0  0  0  0  0  0  0
   12.8240  -21.1205   21.4894 C   0  0  0  0  0  0  0  0  0  0  0  0
   13.1913  -22.3678   21.5021 N   0  0  0  0  0  0  0  0  0  0  0  0
   12.2220  -20.6278   20.3012 N   0  0  0  0  0  0  0  0  0  0  0  0
   11.6395  -19.3074   20.3131 C   0  0  0  0  0  0  0  0  0  0  0  0
   10.5418  -19.1970   21.3680 C   0  0  0  0  0  0  0  0  0  0  0  0
   10.6875  -17.9697   22.1926 C   0  0  0  0  0  0  0  0  0  0  0  0
    9.5159  -17.0713   22.1264 C   0  0  2  0  0  0  0  0  0  0  0  0
    9.2322  -16.3967   20.9210 N   0  0  0  0  0  0  0  0  0  0  0  0
    9.4559  -16.1596   23.2893 C   0  0  0  0  0  0  0  0  0  0  0  0
   10.1599  -15.1128   23.2521 O   0  0  0  0  0  0  0  0  0  0  0  0
   13.1503  -22.9640   20.6545 C   0  0  0  0  0  0  0  0  0  0  0  0
    7.5628  -10.9026   26.6260 S   0  0  0  0  0  0  0  0  0  0  0  0
    6.4436  -12.3328   26.3777 C   0  0  0  0  0  0  0  0  0  0  0  0
    7.3026  -13.8382   26.9234 C   0  0  0  0  0  0  0  0  0  0  0  0
    7.2900  -14.8238   25.7634 C   0  0  1  0  0  0  0  0  0  0  0  0
    8.6749  -15.3961   25.5480 N   0  0  0  0  0  0  0  0  0  0  0  0
    8.6734  -16.3549   24.4487 C   0  0  0  0  0  0  0  0  0  0  0  0
    9.0574  -16.1035   26.7818 O   0  0  0  0  0  0  0  0  0  0  0  0
    9.0567  -17.3436   26.8309 O   0  0  0  0  0  0  0  0  0  0  0  0
  2  5  1  0
  2  1  1  1
  3  2  1  0
  4  3  1  0
  5  6  2  0
  7  8  1  0
  8 10  1  0
  9  8  2  0
 10 11  1  0
 12 11  1  0
 13 12  1  0
 14 13  1  6
 15 14  1  0
 15  5  1  0
 16 14  1  0
 17 16  2  0
 19 18  1  0
 20 19  1  0
 21 20  1  0
 22 21  1  6
 22 23  1  0
 23 16  1  0
 24 22  1  0
 24 26  1  0
 25 24  2  0
M  END
$$$$
