CRM.pdb
     RDKit          3D

 26 25  0  0  1  0  0  0  0  0999 V2000
    7.6092  -13.1144   18.5287 N   0  0  0  0  0  0  0  0  0  0  0  0
    8.7430  -14.0027   18.8583 C   0  0  1  0  0  0  0  0  0  0  0  0
    9.9604  -13.1683   19.1788 C   0  0  0  0  0  0  0  0  0  0  0  0
    9.5368  -12.0111   20.4957 S   0  0  0  0  0  0  0  0  0  0  0  0
    8.3504  -14.7486   20.0828 C   0  0  0  0  0  0  0  0  0  0  0  0
    7.4473  -14.2553   20.7940 O   0  0  0  0  0  0  0  0  0  0  0  0
    9.9900  -20.1024   18.6180 N   0  0  0  0  0  0  0  0  0  0  0  0
    8.6714  -20.3436   18.1299 C   0  0  0  0  0  0  0  0  0  0  0  0
    8.4489  -20.4854   16.8566 N   0  0  0  0  0  0  0  0  0  0  0  0
    7.5551  -20.4349   19.0032 N   0  0  0  0  0  0  0  0  0  0  0  0
    7.6594  -19.8675   20.3261 C   0  0  0  0  0  0  0  0  0  0  0  0
    8.7571  -18.8087   20.3884 C   0  0  0  0  0  0  0  0  0  0  0  0
    8.7961  -18.1282   21.7087 C   0  0  0  0  0  0  0  0  0  0  0  0
    8.5036  -16.6815   21.6362 C   0  0  2  0  0  0  0  0  0  0  0  0
    8.9076  -15.9530   20.4984 N   0  0  0  0  0  0  0  0  0  0  0  0
    8.8672  -15.9837   22.8885 C   0  0  0  0  0  0  0  0  0  0  0  0
   10.0874  -15.7292   23.0861 O   0  0  0  0  0  0  0  0  0  0  0  0
    7.4922  -20.5995   16.4726 C   0  0  0  0  0  0  0  0  0  0  0  0
    5.3816  -11.8754   26.8569 S   0  0  0  0  0  0  0  0  0  0  0  0
    7.1601  -11.9478   27.2944 C   0  0  0  0  0  0  0  0  0  0  0  0
    7.7185  -13.6712   27.1538 C   0  0  0  0  0  0  0  0  0  0  0  0
    7.2776  -14.1904   25.7926 C   0  0  1  0  0  0  0  0  0  0  0  0
    8.4190  -14.9187   25.1154 N   0  0  0  0  0  0  0  0  0  0  0  0
    7.9639  -15.5708   23.8926 C   0  0  0  0  0  0  0  0  0  0  0  0
    8.8955  -15.9558   26.0462 O   0  0  0  0  0  0  0  0  0  0  0  0
    8.5515  -17.1404   25.9095 O   0  0  0  0  0  0  0  0  0  0  0  0
  2  5  1  0
  2  1  1  1
  3  2  1  0
  4  3  1  0
  5  6  2  0
  7  8  1  0
  8 10  1  0
  9  8  2  0
 10 11  1  0
 12 11  1  0
 13 12  1  0
 14 13  1  1
 15 14  1  0
 15  5  1  0
 16 14  1  0
 17 16  2  0
 19 18  1  0
 20 19  1  0
 21 20  1  0
 22 21  1  6
 22 23  1  0
 23 16  1  0
 24 22  1  0
 24 26  1  0
 25 24  2  0
M  END
$$$$
