CRM.pdb
     RDKit          3D

 26 25  0  0  1  0  0  0  0  0999 V2000
    7.7273  -14.8665   17.6936 N   0  0  0  0  0  0  0  0  0  0  0  0
    8.4583  -14.4554   18.9101 C   0  0  1  0  0  0  0  0  0  0  0  0
    8.3408  -12.9602   19.0877 C   0  0  0  0  0  0  0  0  0  0  0  0
    9.6688  -12.1630   18.1636 S   0  0  0  0  0  0  0  0  0  0  0  0
    7.7775  -15.1181   20.0536 C   0  0  0  0  0  0  0  0  0  0  0  0
    6.5624  -14.8735   20.2219 O   0  0  0  0  0  0  0  0  0  0  0  0
    9.4970  -20.7415   22.6651 N   0  0  0  0  0  0  0  0  0  0  0  0
    9.0494  -20.9872   23.9971 C   0  0  0  0  0  0  0  0  0  0  0  0
    9.8102  -21.6054   24.8514 N   0  0  0  0  0  0  0  0  0  0  0  0
    7.7655  -20.5752   24.4431 N   0  0  0  0  0  0  0  0  0  0  0  0
    6.8501  -19.9980   23.4882 C   0  0  0  0  0  0  0  0  0  0  0  0
    6.9883  -18.4787   23.4386 C   0  0  0  0  0  0  0  0  0  0  0  0
    7.6402  -18.0224   22.1837 C   0  0  0  0  0  0  0  0  0  0  0  0
    7.7612  -16.5531   22.0816 C   0  0  2  0  0  0  0  0  0  0  0  0
    8.3859  -15.9902   20.9497 N   0  0  0  0  0  0  0  0  0  0  0  0
    8.2641  -15.9544   23.3369 C   0  0  0  0  0  0  0  0  0  0  0  0
    9.4817  -16.1241   23.6221 O   0  0  0  0  0  0  0  0  0  0  0  0
    9.5158  -21.7752   25.8312 C   0  0  0  0  0  0  0  0  0  0  0  0
    5.9213  -10.8148   26.4106 S   0  0  0  0  0  0  0  0  0  0  0  0
    6.6555  -11.6413   27.8726 C   0  0  0  0  0  0  0  0  0  0  0  0
    7.7619  -12.9612   27.2933 C   0  0  0  0  0  0  0  0  0  0  0  0
    7.1725  -13.5284   26.0096 C   0  0  1  0  0  0  0  0  0  0  0  0
    8.1009  -14.5706   25.4233 N   0  0  0  0  0  0  0  0  0  0  0  0
    7.4985  -15.2011   24.2540 C   0  0  0  0  0  0  0  0  0  0  0  0
    8.3117  -15.6032   26.4519 O   0  0  0  0  0  0  0  0  0  0  0  0
    7.5421  -16.5720   26.5484 O   0  0  0  0  0  0  0  0  0  0  0  0
  2  5  1  0
  2  1  1  6
  3  2  1  0
  4  3  1  0
  5  6  2  0
  7  8  1  0
  8 10  1  0
  9  8  2  0
 10 11  1  0
 12 11  1  0
 13 12  1  0
 14 13  1  1
 15 14  1  0
 15  5  1  0
 16 14  1  0
 17 16  2  0
 19 18  1  0
 20 19  1  0
 21 20  1  0
 22 21  1  6
 22 23  1  0
 23 16  1  0
 24 22  1  0
 24 26  1  0
 25 24  2  0
M  END
$$$$
