CRM.pdb
     RDKit          3D

 26 25  0  0  1  0  0  0  0  0999 V2000
    7.6324  -14.4774   18.1651 N   0  0  0  0  0  0  0  0  0  0  0  0
    8.6800  -14.1183   19.1433 C   0  0  1  0  0  0  0  0  0  0  0  0
    8.3731  -12.7635   19.7360 C   0  0  0  0  0  0  0  0  0  0  0  0
    8.9409  -11.4905   18.5914 S   0  0  0  0  0  0  0  0  0  0  0  0
    8.6072  -15.1320   20.2282 C   0  0  0  0  0  0  0  0  0  0  0  0
    7.4771  -15.3993   20.6930 O   0  0  0  0  0  0  0  0  0  0  0  0
    9.3154  -20.0656   18.6893 N   0  0  0  0  0  0  0  0  0  0  0  0
   10.6429  -20.3846   18.2760 C   0  0  0  0  0  0  0  0  0  0  0  0
   10.8782  -20.8256   17.0755 N   0  0  0  0  0  0  0  0  0  0  0  0
   11.7537  -20.2397   19.1490 N   0  0  0  0  0  0  0  0  0  0  0  0
   11.5276  -19.7418   20.4846 C   0  0  0  0  0  0  0  0  0  0  0  0
   10.6533  -18.4908   20.4676 C   0  0  0  0  0  0  0  0  0  0  0  0
   10.4700  -17.9244   21.8289 C   0  0  0  0  0  0  0  0  0  0  0  0
    9.6386  -16.7029   21.8533 C   0  0  2  0  0  0  0  0  0  0  0  0
    9.6975  -15.8075   20.7655 N   0  0  0  0  0  0  0  0  0  0  0  0
    9.7383  -15.9958   23.1484 C   0  0  0  0  0  0  0  0  0  0  0  0
   10.7909  -15.3391   23.3796 O   0  0  0  0  0  0  0  0  0  0  0  0
   11.8390  -21.0216   16.7378 C   0  0  0  0  0  0  0  0  0  0  0  0
    5.7554  -11.7483   26.7616 S   0  0  0  0  0  0  0  0  0  0  0  0
    7.5727  -11.9333   26.9120 C   0  0  0  0  0  0  0  0  0  0  0  0
    7.9609  -13.7015   27.0699 C   0  0  0  0  0  0  0  0  0  0  0  0
    7.8049  -14.3336   25.6940 C   0  0  1  0  0  0  0  0  0  0  0  0
    8.9513  -15.2842   25.4219 N   0  0  0  0  0  0  0  0  0  0  0  0
    8.7522  -15.9872   24.1594 C   0  0  0  0  0  0  0  0  0  0  0  0
    8.9697  -16.2770   26.5095 O   0  0  0  0  0  0  0  0  0  0  0  0
    8.6519  -17.4580   26.2987 O   0  0  0  0  0  0  0  0  0  0  0  0
  2  5  1  0
  2  1  1  6
  3  2  1  0
  4  3  1  0
  5  6  2  0
  7  8  1  0
  8 10  1  0
  9  8  2  0
 10 11  1  0
 12 11  1  0
 13 12  1  0
 14 13  1  6
 15 14  1  0
 15  5  1  0
 16 14  1  0
 17 16  2  0
 19 18  1  0
 20 19  1  0
 21 20  1  0
 22 21  1  6
 22 23  1  0
 23 16  1  0
 24 22  1  0
 24 26  1  0
 25 24  2  0
M  END
$$$$
