CRM.pdb
     RDKit          3D

 26 25  0  0  1  0  0  0  0  0999 V2000
    7.0568  -20.7831   24.7545 N   0  0  0  0  0  0  0  0  0  0  0  0
    6.5490  -19.4034   24.9023 C   0  0  1  0  0  0  0  0  0  0  0  0
    6.7562  -18.9396   26.3246 C   0  0  0  0  0  0  0  0  0  0  0  0
    8.4782  -19.2240   26.7795 S   0  0  0  0  0  0  0  0  0  0  0  0
    7.3764  -18.5529   24.0067 C   0  0  0  0  0  0  0  0  0  0  0  0
    8.4647  -19.0234   23.6079 O   0  0  0  0  0  0  0  0  0  0  0  0
    8.6130  -14.9560   17.6697 N   0  0  0  0  0  0  0  0  0  0  0  0
    8.2084  -13.7329   18.2825 C   0  0  0  0  0  0  0  0  0  0  0  0
    8.7117  -12.5975   17.8975 N   0  0  0  0  0  0  0  0  0  0  0  0
    7.2511  -13.7021   19.3312 N   0  0  0  0  0  0  0  0  0  0  0  0
    7.6757  -13.2915   20.6480 C   0  0  0  0  0  0  0  0  0  0  0  0
    8.3177  -14.4492   21.4079 C   0  0  0  0  0  0  0  0  0  0  0  0
    7.3096  -15.2565   22.1424 C   0  0  0  0  0  0  0  0  0  0  0  0
    7.8896  -16.4021   22.8739 C   0  0  2  0  0  0  0  0  0  0  0  0
    7.0340  -17.2757   23.5763 N   0  0  0  0  0  0  0  0  0  0  0  0
    9.0514  -15.9986   23.6952 C   0  0  0  0  0  0  0  0  0  0  0  0
    9.9633  -15.3300   23.1346 O   0  0  0  0  0  0  0  0  0  0  0  0
    8.5636  -11.7193   18.4290 C   0  0  0  0  0  0  0  0  0  0  0  0
    8.6392  -13.6598   29.2423 S   0  0  0  0  0  0  0  0  0  0  0  0
   10.4701  -13.5736   29.2506 C   0  0  0  0  0  0  0  0  0  0  0  0
   11.1000  -14.5658   27.8647 C   0  0  0  0  0  0  0  0  0  0  0  0
    9.9098  -14.9668   27.0047 C   0  0  1  0  0  0  0  0  0  0  0  0
   10.3738  -15.7817   25.8162 N   0  0  0  0  0  0  0  0  0  0  0  0
    9.2344  -16.2948   25.0639 C   0  0  0  0  0  0  0  0  0  0  0  0
   11.1407  -16.9259   26.3374 O   0  0  0  0  0  0  0  0  0  0  0  0
   12.2091  -16.7525   26.9446 O   0  0  0  0  0  0  0  0  0  0  0  0
  2  5  1  0
  2  1  1  1
  3  2  1  0
  4  3  1  0
  5  6  2  0
  7  8  1  0
  8 10  1  0
  9  8  2  0
 10 11  1  0
 12 11  1  0
 13 12  1  0
 14 13  1  1
 15 14  1  0
 15  5  1  0
 16 14  1  0
 17 16  2  0
 19 18  1  0
 20 19  1  0
 21 20  1  0
 22 21  1  6
 22 23  1  0
 23 16  1  0
 24 22  1  0
 24 26  1  0
 25 24  2  0
M  END
$$$$
