HKP.pdb
     RDKit          3D

 27 28  0  0  1  0  0  0  0  0999 V2000
    8.3508  -16.9830   19.7700 N   0  0  0  0  0  0  0  0  0  0  0  0
    9.1497  -16.3480   20.7665 C   0  0  1  0  0  0  0  0  0  0  0  0
    9.8027  -15.0598   20.2687 C   0  0  0  0  0  0  0  0  0  0  0  0
    8.9553  -14.3629   19.2757 C   0  0  0  0  0  0  0  0  0  0  0  0
    7.7285  -14.7616   18.8223 C   0  0  0  0  0  0  0  0  0  0  0  0
    7.3002  -13.8373   17.9208 N   0  0  0  0  0  0  0  0  0  0  0  0
    8.2431  -12.8662   17.8048 C   0  0  0  0  0  0  0  0  0  0  0  0
    9.2397  -13.2075   18.6380 N   0  0  0  0  0  0  0  0  0  0  0  0
    8.2962  -15.9671   21.9150 C   0  0  0  0  0  0  0  0  0  0  0  0
    7.2570  -15.2960   21.6853 O   0  0  0  0  0  0  0  0  0  0  0  0
    8.6252  -16.3378   23.2296 N   0  0  0  0  0  0  0  0  0  0  0  0
    7.6640  -16.0740   24.3182 C   0  0  1  0  0  0  0  0  0  0  0  0
    7.2379  -17.4493   24.7820 C   0  0  0  0  0  0  0  0  0  0  0  0
    6.0166  -18.0114   24.1914 C   0  0  0  0  0  0  0  0  0  0  0  0
    6.3919  -18.8954   22.9890 C   0  0  0  0  0  0  0  0  0  0  0  0
    5.2063  -19.4468   22.2718 C   0  0  0  0  0  0  0  0  0  0  0  0
    5.6870  -20.3371   21.2196 N   0  0  0  0  0  0  0  0  0  0  0  0
    8.2484  -15.2091   25.3271 C   0  0  0  0  0  0  0  0  0  0  0  0
    9.5121  -15.3312   25.5314 O   0  0  0  0  0  0  0  0  0  0  0  0
    7.5923  -14.2413   26.1097 N   0  0  0  0  0  0  0  0  0  0  0  0
    6.2199  -13.7731   25.9366 C   0  0  0  0  0  0  0  0  0  0  0  0
    6.2987  -12.3041   26.3638 C   0  0  0  0  0  0  0  0  0  0  0  0
    7.1240  -12.4820   27.6197 C   0  0  0  0  0  0  0  0  0  0  0  0
    8.1326  -13.5009   27.2312 C   0  0  1  0  0  0  0  0  0  0  0  0
    8.5685  -14.3685   28.3309 C   0  0  0  0  0  0  0  0  0  0  0  0
    9.3533  -13.8385   29.3393 O   0  0  0  0  0  0  0  0  0  0  0  0
    8.2537  -15.5793   28.3899 O   0  0  0  0  0  0  0  0  0  0  0  0
  2  1  1  6
  2  3  1  0
  3  4  1  0
  4  8  1  0
  5  4  2  0
  5  6  1  0
  6  7  1  0
  8  7  2  0
  9  2  1  0
 10  9  2  0
 11  9  1  0
 12 11  1  0
 12 13  1  1
 13 14  1  0
 15 14  1  0
 16 17  1  0
 16 15  1  0
 18 12  1  0
 19 18  2  0
 20 18  1  0
 20 21  1  0
 22 21  1  0
 23 24  1  0
 23 22  1  0
 24 25  1  1
 24 20  1  0
 25 26  1  0
 27 25  2  0
M  END
$$$$
