HKP.pdb
     RDKit          3D

 27 28  0  0  1  0  0  0  0  0999 V2000
    6.9948  -16.7308   20.0829 N   0  0  0  0  0  0  0  0  0  0  0  0
    7.5256  -15.5984   20.7685 C   0  0  1  0  0  0  0  0  0  0  0  0
    7.0286  -14.2728   20.1945 C   0  0  0  0  0  0  0  0  0  0  0  0
    7.7207  -13.9268   18.9331 C   0  0  0  0  0  0  0  0  0  0  0  0
    8.6347  -12.9268   18.7480 C   0  0  0  0  0  0  0  0  0  0  0  0
    9.0203  -12.9550   17.4438 N   0  0  0  0  0  0  0  0  0  0  0  0
    8.3594  -13.9593   16.8113 C   0  0  0  0  0  0  0  0  0  0  0  0
    7.5752  -14.5357   17.7370 N   0  0  0  0  0  0  0  0  0  0  0  0
    7.0917  -15.6297   22.1839 C   0  0  0  0  0  0  0  0  0  0  0  0
    5.8619  -15.5287   22.4299 O   0  0  0  0  0  0  0  0  0  0  0  0
    8.0160  -15.7679   23.2328 N   0  0  0  0  0  0  0  0  0  0  0  0
    7.5244  -15.9007   24.6182 C   0  0  1  0  0  0  0  0  0  0  0  0
    7.7427  -17.3593   24.9541 C   0  0  0  0  0  0  0  0  0  0  0  0
    7.3997  -17.7967   26.3132 C   0  0  0  0  0  0  0  0  0  0  0  0
    7.7553  -19.2852   26.4748 C   0  0  0  0  0  0  0  0  0  0  0  0
    7.4246  -19.8255   27.8249 C   0  0  0  0  0  0  0  0  0  0  0  0
    7.7083  -21.2574   27.8218 N   0  0  0  0  0  0  0  0  0  0  0  0
    8.1699  -14.9375   25.4917 C   0  0  0  0  0  0  0  0  0  0  0  0
    9.4514  -14.8596   25.4191 O   0  0  0  0  0  0  0  0  0  0  0  0
    7.5546  -14.0679   26.4108 N   0  0  0  0  0  0  0  0  0  0  0  0
    6.1185  -13.8935   26.6096 C   0  0  0  0  0  0  0  0  0  0  0  0
    5.9978  -12.4125   26.9819 C   0  0  0  0  0  0  0  0  0  0  0  0
    7.1416  -12.3379   27.9699 C   0  0  0  0  0  0  0  0  0  0  0  0
    8.2029  -13.1610   27.3355 C   0  0  1  0  0  0  0  0  0  0  0  0
    9.0830  -13.8485   28.2867 C   0  0  0  0  0  0  0  0  0  0  0  0
    9.9843  -13.1079   29.0302 O   0  0  0  0  0  0  0  0  0  0  0  0
    9.0474  -15.0896   28.4508 O   0  0  0  0  0  0  0  0  0  0  0  0
  2  1  1  6
  2  3  1  0
  3  4  1  0
  4  8  1  0
  5  4  2  0
  5  6  1  0
  6  7  1  0
  8  7  2  0
  9  2  1  0
 10  9  2  0
 11  9  1  0
 12 11  1  0
 12 13  1  1
 13 14  1  0
 15 14  1  0
 16 17  1  0
 16 15  1  0
 18 12  1  0
 19 18  2  0
 20 18  1  0
 20 21  1  0
 22 21  1  0
 23 24  1  0
 23 22  1  0
 24 25  1  1
 24 20  1  0
 25 26  1  0
 27 25  2  0
M  END
$$$$
