HKP.pdb
     RDKit          3D

 27 28  0  0  1  0  0  0  0  0999 V2000
   12.3052  -16.4893   21.1777 N   0  0  0  0  0  0  0  0  0  0  0  0
   11.8222  -16.8244   22.4772 C   0  0  1  0  0  0  0  0  0  0  0  0
   12.8743  -16.6299   23.5676 C   0  0  0  0  0  0  0  0  0  0  0  0
   13.7831  -17.7935   23.6673 C   0  0  0  0  0  0  0  0  0  0  0  0
   13.7574  -18.9214   22.8949 C   0  0  0  0  0  0  0  0  0  0  0  0
   14.7619  -19.7355   23.3176 N   0  0  0  0  0  0  0  0  0  0  0  0
   15.4152  -19.1312   24.3442 C   0  0  0  0  0  0  0  0  0  0  0  0
   14.8021  -17.9520   24.5385 N   0  0  0  0  0  0  0  0  0  0  0  0
   10.6891  -15.9376   22.8269 C   0  0  0  0  0  0  0  0  0  0  0  0
   10.8612  -14.6939   22.7436 O   0  0  0  0  0  0  0  0  0  0  0  0
    9.4510  -16.4562   23.2415 N   0  0  0  0  0  0  0  0  0  0  0  0
    8.3064  -15.5417   23.4204 C   0  0  1  0  0  0  0  0  0  0  0  0
    7.1149  -16.3335   22.9289 C   0  0  0  0  0  0  0  0  0  0  0  0
    7.0518  -16.6352   21.4932 C   0  0  0  0  0  0  0  0  0  0  0  0
    5.7795  -17.4493   21.1987 C   0  0  0  0  0  0  0  0  0  0  0  0
    5.6019  -17.7594   19.7508 C   0  0  0  0  0  0  0  0  0  0  0  0
    4.3974  -18.5710   19.6058 N   0  0  0  0  0  0  0  0  0  0  0  0
    8.2367  -15.0600   24.7881 C   0  0  0  0  0  0  0  0  0  0  0  0
    8.8899  -15.7296   25.6705 O   0  0  0  0  0  0  0  0  0  0  0  0
    7.5390  -13.9353   25.2655 N   0  0  0  0  0  0  0  0  0  0  0  0
    6.7632  -12.9932   24.4636 C   0  0  0  0  0  0  0  0  0  0  0  0
    6.9652  -11.6645   25.1987 C   0  0  0  0  0  0  0  0  0  0  0  0
    6.7512  -12.1583   26.6130 C   0  0  0  0  0  0  0  0  0  0  0  0
    7.4519  -13.4678   26.6336 C   0  0  1  0  0  0  0  0  0  0  0  0
    6.8558  -14.4572   27.5379 C   0  0  0  0  0  0  0  0  0  0  0  0
    7.1347  -14.3901   28.8912 O   0  0  0  0  0  0  0  0  0  0  0  0
    6.0989  -15.3661   27.1261 O   0  0  0  0  0  0  0  0  0  0  0  0
  2  1  1  6
  2  3  1  0
  3  4  1  0
  4  8  1  0
  5  4  2  0
  5  6  1  0
  6  7  1  0
  8  7  2  0
  9  2  1  0
 10  9  2  0
 11  9  1  0
 12 11  1  0
 12 13  1  1
 13 14  1  0
 15 14  1  0
 16 17  1  0
 16 15  1  0
 18 12  1  0
 19 18  2  0
 20 18  1  0
 20 21  1  0
 22 21  1  0
 23 24  1  0
 23 22  1  0
 24 25  1  1
 24 20  1  0
 25 26  1  0
 27 25  2  0
M  END
$$$$
