HKP.pdb
     RDKit          3D

 27 28  0  0  1  0  0  0  0  0999 V2000
    9.0342  -15.4671   20.4595 N   0  0  0  0  0  0  0  0  0  0  0  0
    8.3454  -14.3415   21.0010 C   0  0  1  0  0  0  0  0  0  0  0  0
    7.2056  -13.8587   20.1057 C   0  0  0  0  0  0  0  0  0  0  0  0
    7.6248  -13.7568   18.6902 C   0  0  0  0  0  0  0  0  0  0  0  0
    8.2343  -12.6893   18.0914 C   0  0  0  0  0  0  0  0  0  0  0  0
    8.4454  -13.0116   16.7868 N   0  0  0  0  0  0  0  0  0  0  0  0
    7.9758  -14.2665   16.5622 C   0  0  0  0  0  0  0  0  0  0  0  0
    7.4817  -14.6989   17.7340 N   0  0  0  0  0  0  0  0  0  0  0  0
    7.7307  -14.7145   22.2955 C   0  0  0  0  0  0  0  0  0  0  0  0
    6.8786  -13.9346   22.7944 O   0  0  0  0  0  0  0  0  0  0  0  0
    8.0794  -15.9026   22.9592 N   0  0  0  0  0  0  0  0  0  0  0  0
    7.5743  -16.1439   24.3249 C   0  0  1  0  0  0  0  0  0  0  0  0
    7.4081  -17.6454   24.4021 C   0  0  0  0  0  0  0  0  0  0  0  0
    6.2637  -18.2342   23.6952 C   0  0  0  0  0  0  0  0  0  0  0  0
    6.2270  -19.7500   23.9579 C   0  0  0  0  0  0  0  0  0  0  0  0
    5.0567  -20.4276   23.3292 C   0  0  0  0  0  0  0  0  0  0  0  0
    5.1179  -21.8458   23.6692 N   0  0  0  0  0  0  0  0  0  0  0  0
    8.4501  -15.5435   25.3148 C   0  0  0  0  0  0  0  0  0  0  0  0
    9.6967  -15.8520   25.2466 O   0  0  0  0  0  0  0  0  0  0  0  0
    8.0953  -14.6524   26.3442 N   0  0  0  0  0  0  0  0  0  0  0  0
    6.7693  -14.0891   26.5828 C   0  0  0  0  0  0  0  0  0  0  0  0
    7.0799  -12.6964   27.1399 C   0  0  0  0  0  0  0  0  0  0  0  0
    8.1709  -13.0850   28.1139 C   0  0  0  0  0  0  0  0  0  0  0  0
    8.9588  -14.0985   27.3667 C   0  0  1  0  0  0  0  0  0  0  0  0
    9.5750  -15.1271   28.2119 C   0  0  0  0  0  0  0  0  0  0  0  0
   10.5984  -14.7711   29.0718 O   0  0  0  0  0  0  0  0  0  0  0  0
    9.2054  -16.3234   28.1828 O   0  0  0  0  0  0  0  0  0  0  0  0
  2  1  1  6
  2  3  1  0
  3  4  1  0
  4  8  1  0
  5  4  2  0
  5  6  1  0
  6  7  1  0
  8  7  2  0
  9  2  1  0
 10  9  2  0
 11  9  1  0
 12 11  1  0
 12 13  1  1
 13 14  1  0
 15 14  1  0
 16 17  1  0
 16 15  1  0
 18 12  1  0
 19 18  2  0
 20 18  1  0
 20 21  1  0
 22 21  1  0
 23 24  1  0
 23 22  1  0
 24 25  1  1
 24 20  1  0
 25 26  1  0
 27 25  2  0
M  END
$$$$
