HKP.pdb
     RDKit          3D

 27 28  0  0  1  0  0  0  0  0999 V2000
    6.4950  -16.8028   20.0711 N   0  0  0  0  0  0  0  0  0  0  0  0
    7.3040  -15.8612   20.7733 C   0  0  1  0  0  0  0  0  0  0  0  0
    7.1199  -14.4309   20.2690 C   0  0  0  0  0  0  0  0  0  0  0  0
    7.9568  -14.1560   19.0800 C   0  0  0  0  0  0  0  0  0  0  0  0
    8.6967  -13.0312   18.8415 C   0  0  0  0  0  0  0  0  0  0  0  0
    9.3115  -13.1878   17.6382 N   0  0  0  0  0  0  0  0  0  0  0  0
    8.9656  -14.3956   17.1214 C   0  0  0  0  0  0  0  0  0  0  0  0
    8.1415  -14.9658   18.0158 N   0  0  0  0  0  0  0  0  0  0  0  0
    6.9225  -15.8521   22.2041 C   0  0  0  0  0  0  0  0  0  0  0  0
    5.7102  -15.6803   22.4939 O   0  0  0  0  0  0  0  0  0  0  0  0
    7.8766  -16.0292   23.2199 N   0  0  0  0  0  0  0  0  0  0  0  0
    7.4341  -16.0854   24.6269 C   0  0  1  0  0  0  0  0  0  0  0  0
    7.6390  -17.5301   25.0258 C   0  0  0  0  0  0  0  0  0  0  0  0
    7.3504  -17.8921   26.4193 C   0  0  0  0  0  0  0  0  0  0  0  0
    7.6776  -19.3799   26.6379 C   0  0  0  0  0  0  0  0  0  0  0  0
    7.5527  -19.8064   28.0614 C   0  0  0  0  0  0  0  0  0  0  0  0
    7.8188  -21.2400   28.1297 N   0  0  0  0  0  0  0  0  0  0  0  0
    8.1281  -15.0939   25.4285 C   0  0  0  0  0  0  0  0  0  0  0  0
    9.4112  -15.0781   25.3445 O   0  0  0  0  0  0  0  0  0  0  0  0
    7.5589  -14.1365   26.2881 N   0  0  0  0  0  0  0  0  0  0  0  0
    6.1347  -13.8590   26.4529 C   0  0  0  0  0  0  0  0  0  0  0  0
    6.1061  -12.3549   26.7415 C   0  0  0  0  0  0  0  0  0  0  0  0
    7.2392  -12.2994   27.7431 C   0  0  0  0  0  0  0  0  0  0  0  0
    8.2527  -13.2233   27.1726 C   0  0  1  0  0  0  0  0  0  0  0  0
    9.0733  -13.9121   28.1747 C   0  0  0  0  0  0  0  0  0  0  0  0
   10.1018  -13.2249   28.7941 O   0  0  0  0  0  0  0  0  0  0  0  0
    8.8750  -15.1074   28.4915 O   0  0  0  0  0  0  0  0  0  0  0  0
  2  1  1  6
  2  3  1  0
  3  4  1  0
  4  8  1  0
  5  4  2  0
  5  6  1  0
  6  7  1  0
  8  7  2  0
  9  2  1  0
 10  9  2  0
 11  9  1  0
 12 11  1  0
 12 13  1  1
 13 14  1  0
 15 14  1  0
 16 17  1  0
 16 15  1  0
 18 12  1  0
 19 18  2  0
 20 18  1  0
 20 21  1  0
 22 21  1  0
 23 24  1  0
 23 22  1  0
 24 25  1  1
 24 20  1  0
 25 26  1  0
 27 25  2  0
M  END
$$$$
