HKP.pdb
     RDKit          3D

 27 28  0  0  1  0  0  0  0  0999 V2000
    6.4507  -16.7224   19.8371 N   0  0  0  0  0  0  0  0  0  0  0  0
    7.3144  -15.8892   20.6080 C   0  0  1  0  0  0  0  0  0  0  0  0
    7.2342  -14.4185   20.2027 C   0  0  0  0  0  0  0  0  0  0  0  0
    7.9594  -14.1568   18.9396 C   0  0  0  0  0  0  0  0  0  0  0  0
    8.6782  -15.0592   18.2057 C   0  0  0  0  0  0  0  0  0  0  0  0
    9.1790  -14.4064   17.1225 N   0  0  0  0  0  0  0  0  0  0  0  0
    8.7828  -13.1078   17.1696 C   0  0  0  0  0  0  0  0  0  0  0  0
    8.0426  -12.9801   18.2831 N   0  0  0  0  0  0  0  0  0  0  0  0
    6.9185  -15.9521   22.0334 C   0  0  0  0  0  0  0  0  0  0  0  0
    5.6907  -15.9563   22.3087 O   0  0  0  0  0  0  0  0  0  0  0  0
    7.8759  -16.0059   23.0601 N   0  0  0  0  0  0  0  0  0  0  0  0
    7.4282  -16.1100   24.4628 C   0  0  1  0  0  0  0  0  0  0  0  0
    7.6324  -17.5673   24.8131 C   0  0  0  0  0  0  0  0  0  0  0  0
    7.3093  -17.9827   26.1840 C   0  0  0  0  0  0  0  0  0  0  0  0
    7.6237  -19.4798   26.3506 C   0  0  0  0  0  0  0  0  0  0  0  0
    7.4744  -19.9593   27.7548 C   0  0  0  0  0  0  0  0  0  0  0  0
    7.9544  -21.3364   27.8168 N   0  0  0  0  0  0  0  0  0  0  0  0
    8.1187  -15.1459   25.3000 C   0  0  0  0  0  0  0  0  0  0  0  0
    9.4041  -15.1788   25.2797 O   0  0  0  0  0  0  0  0  0  0  0  0
    7.5443  -14.1681   26.1328 N   0  0  0  0  0  0  0  0  0  0  0  0
    6.1250  -13.8377   26.2284 C   0  0  0  0  0  0  0  0  0  0  0  0
    6.1385  -12.3335   26.5182 C   0  0  0  0  0  0  0  0  0  0  0  0
    7.2226  -12.3204   27.5739 C   0  0  0  0  0  0  0  0  0  0  0  0
    8.2277  -13.2814   27.0518 C   0  0  1  0  0  0  0  0  0  0  0  0
    8.9722  -14.0004   28.0913 C   0  0  0  0  0  0  0  0  0  0  0  0
    9.9151  -13.3197   28.8404 O   0  0  0  0  0  0  0  0  0  0  0  0
    8.7836  -15.2160   28.3264 O   0  0  0  0  0  0  0  0  0  0  0  0
  2  1  1  6
  2  3  1  0
  3  4  1  0
  4  8  1  0
  5  4  2  0
  5  6  1  0
  6  7  1  0
  8  7  2  0
  9  2  1  0
 10  9  2  0
 11  9  1  0
 12 11  1  0
 12 13  1  1
 13 14  1  0
 15 14  1  0
 16 17  1  0
 16 15  1  0
 18 12  1  0
 19 18  2  0
 20 18  1  0
 20 21  1  0
 22 21  1  0
 23 24  1  0
 23 22  1  0
 24 25  1  1
 24 20  1  0
 25 26  1  0
 27 25  2  0
M  END
$$$$
