HKP.pdb
     RDKit          3D

 27 28  0  0  1  0  0  0  0  0999 V2000
    7.0756  -16.7692   19.7818 N   0  0  0  0  0  0  0  0  0  0  0  0
    7.7396  -15.7260   20.4927 C   0  0  1  0  0  0  0  0  0  0  0  0
    7.5222  -14.3506   19.8645 C   0  0  0  0  0  0  0  0  0  0  0  0
    8.1615  -14.2475   18.5338 C   0  0  0  0  0  0  0  0  0  0  0  0
    8.9023  -15.2091   17.9044 C   0  0  0  0  0  0  0  0  0  0  0  0
    9.3001  -14.7058   16.7050 N   0  0  0  0  0  0  0  0  0  0  0  0
    8.8178  -13.4423   16.5763 C   0  0  0  0  0  0  0  0  0  0  0  0
    8.1289  -13.1860   17.7005 N   0  0  0  0  0  0  0  0  0  0  0  0
    7.2012  -15.6463   21.8698 C   0  0  0  0  0  0  0  0  0  0  0  0
    5.9998  -15.3032   22.0183 O   0  0  0  0  0  0  0  0  0  0  0  0
    7.9978  -15.9426   22.9884 N   0  0  0  0  0  0  0  0  0  0  0  0
    7.4023  -15.8825   24.3376 C   0  0  1  0  0  0  0  0  0  0  0  0
    7.2955  -17.3299   24.7639 C   0  0  0  0  0  0  0  0  0  0  0  0
    6.3318  -18.1745   24.0468 C   0  0  0  0  0  0  0  0  0  0  0  0
    6.4123  -19.6127   24.5883 C   0  0  0  0  0  0  0  0  0  0  0  0
    5.6058  -20.5853   23.7960 C   0  0  0  0  0  0  0  0  0  0  0  0
    5.9454  -21.9307   24.2492 N   0  0  0  0  0  0  0  0  0  0  0  0
    8.1745  -15.0130   25.2066 C   0  0  0  0  0  0  0  0  0  0  0  0
    9.4484  -15.1878   25.2148 O   0  0  0  0  0  0  0  0  0  0  0  0
    7.6914  -13.9897   26.0426 N   0  0  0  0  0  0  0  0  0  0  0  0
    6.3364  -13.4450   26.0499 C   0  0  0  0  0  0  0  0  0  0  0  0
    6.5567  -11.9737   26.4148 C   0  0  0  0  0  0  0  0  0  0  0  0
    7.5415  -12.1705   27.5468 C   0  0  0  0  0  0  0  0  0  0  0  0
    8.4263  -13.2565   27.0527 C   0  0  1  0  0  0  0  0  0  0  0  0
    8.9658  -14.1222   28.1069 C   0  0  0  0  0  0  0  0  0  0  0  0
    9.9236  -13.6199   28.9694 O   0  0  0  0  0  0  0  0  0  0  0  0
    8.5880  -15.3070   28.2550 O   0  0  0  0  0  0  0  0  0  0  0  0
  2  1  1  6
  2  3  1  0
  3  4  1  0
  4  8  1  0
  5  4  2  0
  5  6  1  0
  6  7  1  0
  8  7  2  0
  9  2  1  0
 10  9  2  0
 11  9  1  0
 12 11  1  0
 12 13  1  1
 13 14  1  0
 15 14  1  0
 16 17  1  0
 16 15  1  0
 18 12  1  0
 19 18  2  0
 20 18  1  0
 20 21  1  0
 22 21  1  0
 23 24  1  0
 23 22  1  0
 24 25  1  1
 24 20  1  0
 25 26  1  0
 27 25  2  0
M  END
$$$$
