HKP.pdb
     RDKit          3D

 27 28  0  0  1  0  0  0  0  0999 V2000
    8.3318  -16.2957   20.0253 N   0  0  0  0  0  0  0  0  0  0  0  0
    8.1567  -15.0261   20.6513 C   0  0  1  0  0  0  0  0  0  0  0  0
    7.2178  -14.1068   19.8721 C   0  0  0  0  0  0  0  0  0  0  0  0
    7.7025  -13.8670   18.4946 C   0  0  0  0  0  0  0  0  0  0  0  0
    8.3366  -12.7471   18.0329 C   0  0  0  0  0  0  0  0  0  0  0  0
    8.6092  -12.9399   16.7142 N   0  0  0  0  0  0  0  0  0  0  0  0
    8.1537  -14.1656   16.3456 C   0  0  0  0  0  0  0  0  0  0  0  0
    7.6065  -14.7102   17.4448 N   0  0  0  0  0  0  0  0  0  0  0  0
    7.5447  -15.2138   21.9865 C   0  0  0  0  0  0  0  0  0  0  0  0
    6.3392  -14.8866   22.1381 O   0  0  0  0  0  0  0  0  0  0  0  0
    8.2774  -15.7414   23.0629 N   0  0  0  0  0  0  0  0  0  0  0  0
    7.6343  -15.8630   24.3859 C   0  0  1  0  0  0  0  0  0  0  0  0
    7.3758  -17.3453   24.5410 C   0  0  0  0  0  0  0  0  0  0  0  0
    6.2669  -17.9206   23.7693 C   0  0  0  0  0  0  0  0  0  0  0  0
    6.2254  -19.4425   23.9933 C   0  0  0  0  0  0  0  0  0  0  0  0
    5.2394  -20.1391   23.1176 C   0  0  0  0  0  0  0  0  0  0  0  0
    5.3586  -21.5746   23.3538 N   0  0  0  0  0  0  0  0  0  0  0  0
    8.4470  -15.2421   25.4161 C   0  0  0  0  0  0  0  0  0  0  0  0
    9.6603  -15.6550   25.5220 O   0  0  0  0  0  0  0  0  0  0  0  0
    8.0638  -14.2301   26.3153 N   0  0  0  0  0  0  0  0  0  0  0  0
    6.8016  -13.4957   26.3054 C   0  0  0  0  0  0  0  0  0  0  0  0
    7.2053  -12.1066   26.8095 C   0  0  0  0  0  0  0  0  0  0  0  0
    8.0820  -12.5361   27.9658 C   0  0  0  0  0  0  0  0  0  0  0  0
    8.8325  -13.6961   27.4206 C   0  0  1  0  0  0  0  0  0  0  0  0
    9.1793  -14.7137   28.4188 C   0  0  0  0  0  0  0  0  0  0  0  0
   10.1257  -14.4187   29.3837 O   0  0  0  0  0  0  0  0  0  0  0  0
    8.6460  -15.8468   28.4288 O   0  0  0  0  0  0  0  0  0  0  0  0
  2  1  1  6
  2  3  1  0
  3  4  1  0
  4  8  1  0
  5  4  2  0
  5  6  1  0
  6  7  1  0
  8  7  2  0
  9  2  1  0
 10  9  2  0
 11  9  1  0
 12 11  1  0
 12 13  1  1
 13 14  1  0
 15 14  1  0
 16 17  1  0
 16 15  1  0
 18 12  1  0
 19 18  2  0
 20 18  1  0
 20 21  1  0
 22 21  1  0
 23 24  1  0
 23 22  1  0
 24 25  1  1
 24 20  1  0
 25 26  1  0
 27 25  2  0
M  END
$$$$
