HKP.pdb
     RDKit          3D

 27 28  0  0  1  0  0  0  0  0999 V2000
    6.8397  -16.8263   19.7672 N   0  0  0  0  0  0  0  0  0  0  0  0
    7.6062  -15.8581   20.4809 C   0  0  1  0  0  0  0  0  0  0  0  0
    7.4466  -14.4464   19.9193 C   0  0  0  0  0  0  0  0  0  0  0  0
    8.1355  -14.2918   18.6188 C   0  0  0  0  0  0  0  0  0  0  0  0
    8.8983  -15.2294   17.9795 C   0  0  0  0  0  0  0  0  0  0  0  0
    9.3415  -14.6795   16.8169 N   0  0  0  0  0  0  0  0  0  0  0  0
    8.8657  -13.4106   16.7211 C   0  0  0  0  0  0  0  0  0  0  0  0
    8.1354  -13.1976   17.8281 N   0  0  0  0  0  0  0  0  0  0  0  0
    7.1461  -15.8028   21.8873 C   0  0  0  0  0  0  0  0  0  0  0  0
    5.9156  -15.6537   22.1037 O   0  0  0  0  0  0  0  0  0  0  0  0
    8.0468  -15.9124   22.9598 N   0  0  0  0  0  0  0  0  0  0  0  0
    7.5243  -16.0133   24.3366 C   0  0  1  0  0  0  0  0  0  0  0  0
    7.6968  -17.4725   24.6959 C   0  0  0  0  0  0  0  0  0  0  0  0
    7.2835  -17.8886   26.0421 C   0  0  0  0  0  0  0  0  0  0  0  0
    7.6332  -19.3732   26.2467 C   0  0  0  0  0  0  0  0  0  0  0  0
    7.2009  -19.9019   27.5725 C   0  0  0  0  0  0  0  0  0  0  0  0
    7.4998  -21.3301   27.6100 N   0  0  0  0  0  0  0  0  0  0  0  0
    8.1778  -15.0558   25.2103 C   0  0  0  0  0  0  0  0  0  0  0  0
    9.4579  -15.1372   25.3022 O   0  0  0  0  0  0  0  0  0  0  0  0
    7.5729  -14.0373   25.9695 N   0  0  0  0  0  0  0  0  0  0  0  0
    6.1823  -13.6007   25.8802 C   0  0  0  0  0  0  0  0  0  0  0  0
    6.2697  -12.1018   26.1840 C   0  0  0  0  0  0  0  0  0  0  0  0
    7.2025  -12.1704   27.3737 C   0  0  0  0  0  0  0  0  0  0  0  0
    8.1931  -13.2045   26.9794 C   0  0  1  0  0  0  0  0  0  0  0  0
    8.7375  -13.9775   28.1010 C   0  0  0  0  0  0  0  0  0  0  0  0
    8.3691  -15.3025   28.2504 O   0  0  0  0  0  0  0  0  0  0  0  0
    9.5289  -13.4779   28.9332 O   0  0  0  0  0  0  0  0  0  0  0  0
  2  1  1  6
  2  3  1  0
  3  4  1  0
  4  8  1  0
  5  4  2  0
  5  6  1  0
  6  7  1  0
  8  7  2  0
  9  2  1  0
 10  9  2  0
 11  9  1  0
 12 11  1  0
 12 13  1  1
 13 14  1  0
 15 14  1  0
 16 17  1  0
 16 15  1  0
 18 12  1  0
 19 18  2  0
 20 18  1  0
 20 21  1  0
 22 21  1  0
 23 24  1  0
 23 22  1  0
 24 25  1  1
 24 20  1  0
 25 26  1  0
 27 25  2  0
M  END
$$$$
