HKP.pdb
     RDKit          3D

 27 28  0  0  1  0  0  0  0  0999 V2000
    8.4879  -16.3483   20.1691 N   0  0  0  0  0  0  0  0  0  0  0  0
    8.0982  -15.0428   20.5916 C   0  0  1  0  0  0  0  0  0  0  0  0
    7.0607  -14.4072   19.6678 C   0  0  0  0  0  0  0  0  0  0  0  0
    7.6088  -14.1579   18.3160 C   0  0  0  0  0  0  0  0  0  0  0  0
    8.8767  -14.4311   17.8831 C   0  0  0  0  0  0  0  0  0  0  0  0
    8.9608  -14.0476   16.5807 N   0  0  0  0  0  0  0  0  0  0  0  0
    7.7622  -13.5384   16.1938 C   0  0  0  0  0  0  0  0  0  0  0  0
    6.9565  -13.6160   17.2656 N   0  0  0  0  0  0  0  0  0  0  0  0
    7.4715  -15.1235   21.9308 C   0  0  0  0  0  0  0  0  0  0  0  0
    6.3757  -14.5317   22.1098 O   0  0  0  0  0  0  0  0  0  0  0  0
    8.0723  -15.8372   22.9812 N   0  0  0  0  0  0  0  0  0  0  0  0
    7.4285  -15.8492   24.3094 C   0  0  1  0  0  0  0  0  0  0  0  0
    7.2865  -17.3179   24.6426 C   0  0  0  0  0  0  0  0  0  0  0  0
    6.5418  -18.1554   23.6938 C   0  0  0  0  0  0  0  0  0  0  0  0
    6.5233  -19.6080   24.2015 C   0  0  0  0  0  0  0  0  0  0  0  0
    5.8312  -20.5469   23.2722 C   0  0  0  0  0  0  0  0  0  0  0  0
    4.4997  -20.8144   23.8070 N   0  0  0  0  0  0  0  0  0  0  0  0
    8.1800  -15.0461   25.2568 C   0  0  0  0  0  0  0  0  0  0  0  0
    9.4560  -15.2052   25.2650 O   0  0  0  0  0  0  0  0  0  0  0  0
    7.6747  -14.1025   26.1699 N   0  0  0  0  0  0  0  0  0  0  0  0
    6.2907  -13.6470   26.2673 C   0  0  0  0  0  0  0  0  0  0  0  0
    6.4368  -12.1863   26.7052 C   0  0  0  0  0  0  0  0  0  0  0  0
    7.4841  -12.3805   27.7801 C   0  0  0  0  0  0  0  0  0  0  0  0
    8.4098  -13.3792   27.1870 C   0  0  1  0  0  0  0  0  0  0  0  0
    9.0507  -14.2641   28.1658 C   0  0  0  0  0  0  0  0  0  0  0  0
   10.0594  -13.7644   28.9698 O   0  0  0  0  0  0  0  0  0  0  0  0
    8.7153  -15.4633   28.3005 O   0  0  0  0  0  0  0  0  0  0  0  0
  2  1  1  6
  2  3  1  0
  3  4  1  0
  4  8  1  0
  5  4  2  0
  5  6  1  0
  6  7  1  0
  8  7  2  0
  9  2  1  0
 10  9  2  0
 11  9  1  0
 12 11  1  0
 12 13  1  1
 13 14  1  0
 15 14  1  0
 16 17  1  0
 16 15  1  0
 18 12  1  0
 19 18  2  0
 20 18  1  0
 20 21  1  0
 22 21  1  0
 23 24  1  0
 23 22  1  0
 24 25  1  1
 24 20  1  0
 25 26  1  0
 27 25  2  0
M  END
$$$$
