HKP.pdb
     RDKit          3D

 27 28  0  0  1  0  0  0  0  0999 V2000
    7.3566  -16.7013   19.9831 N   0  0  0  0  0  0  0  0  0  0  0  0
    7.7190  -15.5191   20.6940 C   0  0  1  0  0  0  0  0  0  0  0  0
    7.1117  -14.2549   20.0884 C   0  0  0  0  0  0  0  0  0  0  0  0
    7.7419  -13.9084   18.7951 C   0  0  0  0  0  0  0  0  0  0  0  0
    8.6164  -12.8843   18.5585 C   0  0  0  0  0  0  0  0  0  0  0  0
    8.9504  -12.9215   17.2404 N   0  0  0  0  0  0  0  0  0  0  0  0
    8.2962  -13.9554   16.6500 C   0  0  0  0  0  0  0  0  0  0  0  0
    7.5678  -14.5404   17.6150 N   0  0  0  0  0  0  0  0  0  0  0  0
    7.2115  -15.6026   22.0826 C   0  0  0  0  0  0  0  0  0  0  0  0
    5.9840  -15.4076   22.2786 O   0  0  0  0  0  0  0  0  0  0  0  0
    8.0650  -15.8907   23.1607 N   0  0  0  0  0  0  0  0  0  0  0  0
    7.5096  -15.9545   24.5267 C   0  0  1  0  0  0  0  0  0  0  0  0
    7.5429  -17.4261   24.8754 C   0  0  0  0  0  0  0  0  0  0  0  0
    7.2159  -17.7989   26.2575 C   0  0  0  0  0  0  0  0  0  0  0  0
    7.3393  -19.3245   26.4169 C   0  0  0  0  0  0  0  0  0  0  0  0
    7.1697  -19.7842   27.8254 C   0  0  0  0  0  0  0  0  0  0  0  0
    7.4244  -21.2209   27.8668 N   0  0  0  0  0  0  0  0  0  0  0  0
    8.2303  -15.0668   25.4211 C   0  0  0  0  0  0  0  0  0  0  0  0
    9.4996  -15.2494   25.5177 O   0  0  0  0  0  0  0  0  0  0  0  0
    7.7019  -14.0181   26.1960 N   0  0  0  0  0  0  0  0  0  0  0  0
    6.3462  -13.4810   26.1167 C   0  0  0  0  0  0  0  0  0  0  0  0
    6.5422  -11.9968   26.4410 C   0  0  0  0  0  0  0  0  0  0  0  0
    7.4696  -12.1493   27.6271 C   0  0  0  0  0  0  0  0  0  0  0  0
    8.3823  -13.2465   27.2157 C   0  0  1  0  0  0  0  0  0  0  0  0
    8.8714  -14.0726   28.3249 C   0  0  0  0  0  0  0  0  0  0  0  0
    9.7847  -13.5365   29.2150 O   0  0  0  0  0  0  0  0  0  0  0  0
    8.4895  -15.2530   28.4961 O   0  0  0  0  0  0  0  0  0  0  0  0
  2  1  1  6
  2  3  1  0
  3  4  1  0
  4  8  1  0
  5  4  2  0
  5  6  1  0
  6  7  1  0
  8  7  2  0
  9  2  1  0
 10  9  2  0
 11  9  1  0
 12 11  1  0
 12 13  1  1
 13 14  1  0
 15 14  1  0
 16 17  1  0
 16 15  1  0
 18 12  1  0
 19 18  2  0
 20 18  1  0
 20 21  1  0
 22 21  1  0
 23 24  1  0
 23 22  1  0
 24 25  1  1
 24 20  1  0
 25 26  1  0
 27 25  2  0
M  END
$$$$
