VHG.pdb
     RDKit          3D

 22 22  0  0  1  0  0  0  0  0999 V2000
   29.0476  -28.6354  -15.7645 C   0  0  0  0  0  0  0  0  0  0  0  0
   28.1407  -27.7242  -16.5180 C   0  0  2  0  0  0  0  0  0  0  0  0
   27.9857  -28.1845  -17.9362 C   0  0  0  0  0  0  0  0  0  0  0  0
   28.5566  -26.2666  -16.5156 C   0  0  2  0  0  0  0  0  0  0  0  0
   27.6015  -25.4876  -17.3092 N   0  0  0  0  0  0  0  0  0  0  0  0
   29.8561  -26.1386  -17.1754 C   0  0  0  0  0  0  0  0  0  0  0  0
   29.9090  -26.0839  -18.4560 O   0  0  0  0  0  0  0  0  0  0  0  0
   31.1151  -26.0634  -16.5183 N   0  0  0  0  0  0  0  0  0  0  0  0
   32.3625  -25.9642  -17.2738 C   0  0  1  0  0  0  0  0  0  0  0  0
   32.9740  -24.5990  -17.0250 C   0  0  0  0  0  0  0  0  0  0  0  0
   32.3382  -23.5337  -17.8046 C   0  0  0  0  0  0  0  0  0  0  0  0
   31.0921  -22.9927  -17.5643 C   0  0  0  0  0  0  0  0  0  0  0  0
   30.8365  -22.0270  -18.4918 N   0  0  0  0  0  0  0  0  0  0  0  0
   31.9182  -21.9699  -19.3023 C   0  0  0  0  0  0  0  0  0  0  0  0
   32.8139  -22.8799  -18.8794 N   0  0  0  0  0  0  0  0  0  0  0  0
   33.2809  -27.0596  -16.9534 C   0  0  0  0  0  0  0  0  0  0  0  0
   33.2217  -27.6076  -15.8245 O   0  0  0  0  0  0  0  0  0  0  0  0
   34.2386  -27.5270  -17.8736 N   0  0  0  0  0  0  0  0  0  0  0  0
   35.1580  -28.6125  -17.6017 C   0  0  0  0  0  0  0  0  0  0  0  0
   35.9798  -28.8338  -18.8150 C   0  0  0  0  0  0  0  0  0  0  0  0
   35.7485  -28.2208  -19.9013 O   0  0  0  0  0  0  0  0  0  0  0  0
   37.0364  -29.7266  -18.7972 O   0  0  0  0  0  0  0  0  0  0  0  0
  2  1  1  6
  2  3  1  0
  4  2  1  0
  4  5  1  6
  6  8  1  0
  6  4  1  0
  7  6  2  0
  9  8  1  0
  9 10  1  1
 10 11  1  0
 11 12  2  0
 11 15  1  0
 12 13  1  0
 13 14  1  0
 15 14  2  0
 16  9  1  0
 17 16  2  0
 18 16  1  0
 19 20  1  0
 19 18  1  0
 20 22  1  0
 21 20  2  0
M  END
$$$$
