VHG.pdb
     RDKit          3D

 22 22  0  0  1  0  0  0  0  0999 V2000
   16.7981  -13.6114  -17.7619 C   0  0  0  0  0  0  0  0  0  0  0  0
   17.4249  -12.5396  -16.9381 C   0  0  2  0  0  0  0  0  0  0  0  0
   16.8289  -11.2034  -17.2644 C   0  0  0  0  0  0  0  0  0  0  0  0
   18.9335  -12.4478  -17.0534 C   0  0  2  0  0  0  0  0  0  0  0  0
   19.5399  -13.6406  -16.4549 N   0  0  0  0  0  0  0  0  0  0  0  0
   19.4040  -11.3008  -16.2765 C   0  0  0  0  0  0  0  0  0  0  0  0
   19.4842  -11.3959  -14.9996 O   0  0  0  0  0  0  0  0  0  0  0  0
   19.7990  -10.0437  -16.8114 N   0  0  0  0  0  0  0  0  0  0  0  0
   20.2946   -8.9724  -15.9493 C   0  0  1  0  0  0  0  0  0  0  0  0
   21.7492   -8.7096  -16.2882 C   0  0  0  0  0  0  0  0  0  0  0  0
   22.6285   -9.8342  -15.9585 C   0  0  0  0  0  0  0  0  0  0  0  0
   23.2020  -10.0750  -14.7272 C   0  0  0  0  0  0  0  0  0  0  0  0
   23.9550  -11.2092  -14.7978 N   0  0  0  0  0  0  0  0  0  0  0  0
   23.8486  -11.6686  -16.0659 C   0  0  0  0  0  0  0  0  0  0  0  0
   23.0490  -10.8340  -16.7539 N   0  0  0  0  0  0  0  0  0  0  0  0
   19.4667   -7.7679  -16.0482 C   0  0  0  0  0  0  0  0  0  0  0  0
   19.0918   -7.3648  -17.1774 O   0  0  0  0  0  0  0  0  0  0  0  0
   19.0706   -7.0364  -14.9123 N   0  0  0  0  0  0  0  0  0  0  0  0
   18.2277   -5.8597  -14.9624 C   0  0  0  0  0  0  0  0  0  0  0  0
   19.0659   -4.7110  -15.3800 C   0  0  0  0  0  0  0  0  0  0  0  0
   20.2985   -4.8444  -15.6490 O   0  0  0  0  0  0  0  0  0  0  0  0
   18.5210   -3.4442  -15.4898 O   0  0  0  0  0  0  0  0  0  0  0  0
  2  1  1  6
  2  3  1  0
  4  2  1  0
  4  5  1  1
  6  8  1  0
  6  4  1  0
  7  6  2  0
  9  8  1  0
  9 10  1  6
 10 11  1  0
 11 12  2  0
 11 15  1  0
 12 13  1  0
 13 14  1  0
 15 14  2  0
 16  9  1  0
 17 16  2  0
 18 16  1  0
 19 20  1  0
 19 18  1  0
 20 22  1  0
 21 20  2  0
M  END
$$$$
