VHG.pdb
     RDKit          3D

 22 22  0  0  1  0  0  0  0  0999 V2000
   19.9990  -12.3392  -19.2988 C   0  0  0  0  0  0  0  0  0  0  0  0
   19.0113  -11.5388  -20.0761 C   0  0  2  0  0  0  0  0  0  0  0  0
   19.0222  -11.9411  -21.5201 C   0  0  0  0  0  0  0  0  0  0  0  0
   19.1932  -10.0370  -19.9815 C   0  0  2  0  0  0  0  0  0  0  0  0
   20.4832   -9.6659  -20.5705 N   0  0  0  0  0  0  0  0  0  0  0  0
   19.2463   -9.6490  -18.5719 C   0  0  0  0  0  0  0  0  0  0  0  0
   18.2262   -9.8584  -17.8227 O   0  0  0  0  0  0  0  0  0  0  0  0
   20.3556   -9.0423  -17.9208 N   0  0  0  0  0  0  0  0  0  0  0  0
   20.2425   -8.5083  -16.5648 C   0  0  1  0  0  0  0  0  0  0  0  0
   21.2776   -9.1859  -15.6879 C   0  0  0  0  0  0  0  0  0  0  0  0
   21.1211   -8.8708  -14.2655 C   0  0  0  0  0  0  0  0  0  0  0  0
   20.1044   -8.1193  -13.7134 C   0  0  0  0  0  0  0  0  0  0  0  0
   20.2880   -8.0392  -12.3651 N   0  0  0  0  0  0  0  0  0  0  0  0
   21.4123   -8.7371  -12.0833 C   0  0  0  0  0  0  0  0  0  0  0  0
   21.9039   -9.2321  -13.2332 N   0  0  0  0  0  0  0  0  0  0  0  0
   20.3560   -7.0479  -16.5443 C   0  0  0  0  0  0  0  0  0  0  0  0
   21.2240   -6.4838  -17.2560 O   0  0  0  0  0  0  0  0  0  0  0  0
   19.5192   -6.2432  -15.7478 N   0  0  0  0  0  0  0  0  0  0  0  0
   19.5887   -4.7971  -15.7074 C   0  0  0  0  0  0  0  0  0  0  0  0
   18.3274   -4.2601  -16.2703 C   0  0  0  0  0  0  0  0  0  0  0  0
   18.0713   -4.3152  -17.5116 O   0  0  0  0  0  0  0  0  0  0  0  0
   17.3810   -3.6758  -15.4477 O   0  0  0  0  0  0  0  0  0  0  0  0
  2  1  1  1
  2  3  1  0
  4  2  1  0
  4  5  1  6
  6  8  1  0
  6  4  1  0
  7  6  2  0
  9  8  1  0
  9 10  1  1
 10 11  1  0
 11 12  2  0
 11 15  1  0
 12 13  1  0
 13 14  1  0
 15 14  2  0
 16  9  1  0
 17 16  2  0
 18 16  1  0
 19 20  1  0
 19 18  1  0
 20 22  1  0
 21 20  2  0
M  END
$$$$
