VHG.pdb
     RDKit          3D

 22 22  0  0  1  0  0  0  0  0999 V2000
   25.0252  -19.2731  -10.3776 C   0  0  0  0  0  0  0  0  0  0  0  0
   25.1816  -20.7550  -10.3891 C   0  0  2  0  0  0  0  0  0  0  0  0
   26.1359  -21.1956   -9.3204 C   0  0  0  0  0  0  0  0  0  0  0  0
   25.6244  -21.3383  -11.7162 C   0  0  2  0  0  0  0  0  0  0  0  0
   26.9736  -20.8596  -12.0312 N   0  0  0  0  0  0  0  0  0  0  0  0
   24.7438  -20.8432  -12.7745 C   0  0  0  0  0  0  0  0  0  0  0  0
   24.8476  -19.6242  -13.1606 O   0  0  0  0  0  0  0  0  0  0  0  0
   23.7477  -21.6037  -13.4467 N   0  0  0  0  0  0  0  0  0  0  0  0
   22.8720  -20.9950  -14.4464 C   0  0  1  0  0  0  0  0  0  0  0  0
   23.1303  -21.6567  -15.7861 C   0  0  0  0  0  0  0  0  0  0  0  0
   24.4326  -21.3061  -16.3589 C   0  0  0  0  0  0  0  0  0  0  0  0
   25.3016  -20.3561  -15.8637 C   0  0  0  0  0  0  0  0  0  0  0  0
   26.4099  -20.3065  -16.6559 N   0  0  0  0  0  0  0  0  0  0  0  0
   26.2285  -21.2208  -17.6365 C   0  0  0  0  0  0  0  0  0  0  0  0
   25.0368  -21.8151  -17.4475 N   0  0  0  0  0  0  0  0  0  0  0  0
   21.4638  -21.0606  -14.0479 C   0  0  0  0  0  0  0  0  0  0  0  0
   21.0733  -21.9946  -13.3041 O   0  0  0  0  0  0  0  0  0  0  0  0
   20.5206  -20.1052  -14.4719 N   0  0  0  0  0  0  0  0  0  0  0  0
   19.1220  -20.1284  -14.0961 C   0  0  0  0  0  0  0  0  0  0  0  0
   18.4925  -21.3059  -14.7391 C   0  0  0  0  0  0  0  0  0  0  0  0
   18.5921  -21.5213  -15.9854 O   0  0  0  0  0  0  0  0  0  0  0  0
   17.7690  -22.2156  -13.9889 O   0  0  0  0  0  0  0  0  0  0  0  0
  2  1  1  6
  2  3  1  0
  4  2  1  0
  4  5  1  6
  6  8  1  0
  6  4  1  0
  7  6  2  0
  9  8  1  0
  9 10  1  6
 10 11  1  0
 11 12  2  0
 11 15  1  0
 12 13  1  0
 13 14  1  0
 15 14  2  0
 16  9  1  0
 17 16  2  0
 18 16  1  0
 19 20  1  0
 19 18  1  0
 20 22  1  0
 21 20  2  0
M  END
$$$$
