VHG.pdb
     RDKit          3D

 22 22  0  0  1  0  0  0  0  0999 V2000
   14.3732  -26.0090    0.5327 C   0  0  0  0  0  0  0  0  0  0  0  0
   15.2913  -25.2164    1.3984 C   0  0  2  0  0  0  0  0  0  0  0  0
   15.6090  -25.9641    2.6583 C   0  0  0  0  0  0  0  0  0  0  0  0
   14.7894  -23.8326    1.7599 C   0  0  2  0  0  0  0  0  0  0  0  0
   14.6872  -23.0200    0.5441 N   0  0  0  0  0  0  0  0  0  0  0  0
   15.7721  -23.1774    2.6233 C   0  0  0  0  0  0  0  0  0  0  0  0
   16.7491  -22.5377    2.0922 O   0  0  0  0  0  0  0  0  0  0  0  0
   15.7541  -23.1744    4.0454 N   0  0  0  0  0  0  0  0  0  0  0  0
   16.7302  -22.4068    4.8165 C   0  0  1  0  0  0  0  0  0  0  0  0
   16.0255  -21.2237    5.4517 C   0  0  0  0  0  0  0  0  0  0  0  0
   15.7772  -20.1292    4.5098 C   0  0  0  0  0  0  0  0  0  0  0  0
   14.6003  -19.9058    3.8256 C   0  0  0  0  0  0  0  0  0  0  0  0
   14.7402  -18.7981    3.0434 N   0  0  0  0  0  0  0  0  0  0  0  0
   15.9968  -18.3378    3.2418 C   0  0  0  0  0  0  0  0  0  0  0  0
   16.6103  -19.1458    4.1250 N   0  0  0  0  0  0  0  0  0  0  0  0
   17.4253  -23.2422    5.7989 C   0  0  0  0  0  0  0  0  0  0  0  0
   16.8175  -24.2000    6.3385 O   0  0  0  0  0  0  0  0  0  0  0  0
   18.7647  -23.0094    6.1653 N   0  0  0  0  0  0  0  0  0  0  0  0
   19.5150  -23.8589    7.0670 C   0  0  0  0  0  0  0  0  0  0  0  0
   19.1328  -23.5073    8.4550 C   0  0  0  0  0  0  0  0  0  0  0  0
   18.2683  -22.6131    8.7053 O   0  0  0  0  0  0  0  0  0  0  0  0
   19.7153  -24.1525    9.5312 O   0  0  0  0  0  0  0  0  0  0  0  0
  2  1  1  1
  2  3  1  0
  4  2  1  0
  4  5  1  6
  6  8  1  0
  6  4  1  0
  7  6  2  0
  9  8  1  0
  9 10  1  1
 10 11  1  0
 11 12  2  0
 11 15  1  0
 12 13  1  0
 13 14  1  0
 15 14  2  0
 16  9  1  0
 17 16  2  0
 18 16  1  0
 19 20  1  0
 19 18  1  0
 20 22  1  0
 21 20  2  0
M  END
$$$$
