VHG.pdb
     RDKit          3D

 22 22  0  0  1  0  0  0  0  0999 V2000
   23.4028  -10.1575  -20.8002 C   0  0  0  0  0  0  0  0  0  0  0  0
   22.7041   -9.4763  -19.6740 C   0  0  2  0  0  0  0  0  0  0  0  0
   23.5974   -8.4553  -19.0361 C   0  0  0  0  0  0  0  0  0  0  0  0
   22.1715  -10.4044  -18.6005 C   0  0  2  0  0  0  0  0  0  0  0  0
   21.1840  -11.3132  -19.1903 N   0  0  0  0  0  0  0  0  0  0  0  0
   21.4667   -9.6141  -17.5910 C   0  0  0  0  0  0  0  0  0  0  0  0
   20.3796   -9.0119  -17.9093 O   0  0  0  0  0  0  0  0  0  0  0  0
   21.8769   -9.4396  -16.2405 N   0  0  0  0  0  0  0  0  0  0  0  0
   21.0970   -8.6284  -15.3076 C   0  0  1  0  0  0  0  0  0  0  0  0
   20.5155   -9.5372  -14.2421 C   0  0  0  0  0  0  0  0  0  0  0  0
   19.3394  -10.2812  -14.7004 C   0  0  0  0  0  0  0  0  0  0  0  0
   18.7633  -10.1882  -15.9504 C   0  0  0  0  0  0  0  0  0  0  0  0
   17.6899  -11.0262  -16.0125 N   0  0  0  0  0  0  0  0  0  0  0  0
   17.6015  -11.6352  -14.8075 C   0  0  0  0  0  0  0  0  0  0  0  0
   18.5980  -11.1794  -14.0276 N   0  0  0  0  0  0  0  0  0  0  0  0
   21.8911   -7.5345  -14.7429 C   0  0  0  0  0  0  0  0  0  0  0  0
   23.1217   -7.6975  -14.5505 O   0  0  0  0  0  0  0  0  0  0  0  0
   21.3205   -6.2929  -14.4038 N   0  0  0  0  0  0  0  0  0  0  0  0
   22.0772   -5.1680  -13.8942 C   0  0  0  0  0  0  0  0  0  0  0  0
   21.5679   -3.9381  -14.5455 C   0  0  0  0  0  0  0  0  0  0  0  0
   20.8510   -3.9821  -15.5913 O   0  0  0  0  0  0  0  0  0  0  0  0
   21.8635   -2.6909  -14.0251 O   0  0  0  0  0  0  0  0  0  0  0  0
  2  1  1  6
  2  3  1  0
  4  2  1  0
  4  5  1  6
  6  8  1  0
  6  4  1  0
  7  6  2  0
  9  8  1  0
  9 10  1  1
 10 11  1  0
 11 12  2  0
 11 15  1  0
 12 13  1  0
 13 14  1  0
 15 14  2  0
 16  9  1  0
 17 16  2  0
 18 16  1  0
 19 20  1  0
 19 18  1  0
 20 22  1  0
 21 20  2  0
M  END
$$$$
