VHG.pdb
     RDKit          3D

 22 22  0  0  1  0  0  0  0  0999 V2000
   21.8251   -7.4940  -22.6856 C   0  0  0  0  0  0  0  0  0  0  0  0
   21.3538   -6.8670  -21.4187 C   0  0  2  0  0  0  0  0  0  0  0  0
   22.2952   -5.7860  -20.9800 C   0  0  0  0  0  0  0  0  0  0  0  0
   21.1432   -7.8332  -20.2699 C   0  0  2  0  0  0  0  0  0  0  0  0
   20.0118   -8.7133  -20.5766 N   0  0  0  0  0  0  0  0  0  0  0  0
   20.7773   -7.0788  -19.0709 C   0  0  0  0  0  0  0  0  0  0  0  0
   19.5621   -6.6992  -18.9127 O   0  0  0  0  0  0  0  0  0  0  0  0
   21.6634   -6.7106  -18.0212 N   0  0  0  0  0  0  0  0  0  0  0  0
   21.1684   -6.1112  -16.7834 C   0  0  1  0  0  0  0  0  0  0  0  0
   21.6829   -6.9233  -15.6106 C   0  0  0  0  0  0  0  0  0  0  0  0
   20.9869   -8.2023  -15.4476 C   0  0  0  0  0  0  0  0  0  0  0  0
   19.9514   -8.6626  -16.2342 C   0  0  0  0  0  0  0  0  0  0  0  0
   19.5574   -9.8877  -15.7844 N   0  0  0  0  0  0  0  0  0  0  0  0
   20.3447  -10.1848  -14.7250 C   0  0  0  0  0  0  0  0  0  0  0  0
   21.1997   -9.1645  -14.5322 N   0  0  0  0  0  0  0  0  0  0  0  0
   21.5236   -4.6934  -16.6858 C   0  0  0  0  0  0  0  0  0  0  0  0
   22.7338   -4.3592  -16.6449 O   0  0  0  0  0  0  0  0  0  0  0  0
   20.5484   -3.6791  -16.6356 N   0  0  0  0  0  0  0  0  0  0  0  0
   20.8548   -2.2637  -16.6173 C   0  0  0  0  0  0  0  0  0  0  0  0
   20.6180   -1.7595  -15.2440 C   0  0  0  0  0  0  0  0  0  0  0  0
   20.2390   -2.5249  -14.3059 O   0  0  0  0  0  0  0  0  0  0  0  0
   20.8058   -0.4226  -14.9419 O   0  0  0  0  0  0  0  0  0  0  0  0
  2  1  1  6
  2  3  1  0
  4  2  1  0
  4  5  1  6
  6  8  1  0
  6  4  1  0
  7  6  2  0
  9  8  1  0
  9 10  1  1
 10 11  1  0
 11 12  2  0
 11 15  1  0
 12 13  1  0
 13 14  1  0
 15 14  2  0
 16  9  1  0
 17 16  2  0
 18 16  1  0
 19 20  1  0
 19 18  1  0
 20 22  1  0
 21 20  2  0
M  END
$$$$
