VHG.pdb
     RDKit          3D

 22 22  0  0  1  0  0  0  0  0999 V2000
   21.7101  -13.4543  -17.0843 C   0  0  0  0  0  0  0  0  0  0  0  0
   23.1735  -13.2680  -17.2941 C   0  0  2  0  0  0  0  0  0  0  0  0
   23.8981  -14.5739  -17.1645 C   0  0  0  0  0  0  0  0  0  0  0  0
   23.8238  -12.2505  -16.3779 C   0  0  2  0  0  0  0  0  0  0  0  0
   23.5443  -12.6043  -14.9831 N   0  0  0  0  0  0  0  0  0  0  0  0
   23.2164  -10.9400  -16.6101 C   0  0  0  0  0  0  0  0  0  0  0  0
   23.4025  -10.3503  -17.7342 O   0  0  0  0  0  0  0  0  0  0  0  0
   22.4079  -10.2256  -15.6835 N   0  0  0  0  0  0  0  0  0  0  0  0
   21.7967   -8.9456  -16.0364 C   0  0  1  0  0  0  0  0  0  0  0  0
   20.3008   -9.1456  -16.1838 C   0  0  0  0  0  0  0  0  0  0  0  0
   19.9273   -9.7752  -17.4530 C   0  0  0  0  0  0  0  0  0  0  0  0
   19.8735   -9.1465  -18.6797 C   0  0  0  0  0  0  0  0  0  0  0  0
   19.4877  -10.0466  -19.6280 N   0  0  0  0  0  0  0  0  0  0  0  0
   19.3035  -11.2266  -18.9923 C   0  0  0  0  0  0  0  0  0  0  0  0
   19.5706  -11.0510  -17.6858 N   0  0  0  0  0  0  0  0  0  0  0  0
   22.1324   -7.8978  -15.0693 C   0  0  0  0  0  0  0  0  0  0  0  0
   22.1199   -8.1612  -13.8411 O   0  0  0  0  0  0  0  0  0  0  0  0
   22.4724   -6.5912  -15.4690 N   0  0  0  0  0  0  0  0  0  0  0  0
   22.8307   -5.5321  -14.5484 C   0  0  0  0  0  0  0  0  0  0  0  0
   21.5819   -4.8777  -14.0916 C   0  0  0  0  0  0  0  0  0  0  0  0
   20.4405   -5.2608  -14.4913 O   0  0  0  0  0  0  0  0  0  0  0  0
   21.6259   -3.8167  -13.2049 O   0  0  0  0  0  0  0  0  0  0  0  0
  2  1  1  1
  2  3  1  0
  4  2  1  0
  4  5  1  1
  6  8  1  0
  6  4  1  0
  7  6  2  0
  9  8  1  0
  9 10  1  1
 10 11  1  0
 11 12  2  0
 11 15  1  0
 12 13  1  0
 13 14  1  0
 15 14  2  0
 16  9  1  0
 17 16  2  0
 18 16  1  0
 19 20  1  0
 19 18  1  0
 20 22  1  0
 21 20  2  0
M  END
$$$$
