VHG.pdb
     RDKit          3D

 22 22  0  0  1  0  0  0  0  0999 V2000
   20.1842  -11.8297  -18.4360 C   0  0  0  0  0  0  0  0  0  0  0  0
   20.9696  -10.7847  -19.1512 C   0  0  2  0  0  0  0  0  0  0  0  0
   21.9373  -11.4118  -20.1091 C   0  0  0  0  0  0  0  0  0  0  0  0
   21.7203   -9.8242  -18.2504 C   0  0  2  0  0  0  0  0  0  0  0  0
   22.7309  -10.5629  -17.4877 N   0  0  0  0  0  0  0  0  0  0  0  0
   20.7893   -9.2552  -17.2757 C   0  0  0  0  0  0  0  0  0  0  0  0
   19.8023   -8.5466  -17.6874 O   0  0  0  0  0  0  0  0  0  0  0  0
   20.8673   -9.4146  -15.8646 N   0  0  0  0  0  0  0  0  0  0  0  0
   19.8933   -8.7869  -14.9736 C   0  0  1  0  0  0  0  0  0  0  0  0
   19.2998   -9.8535  -14.0739 C   0  0  0  0  0  0  0  0  0  0  0  0
   18.1767  -10.5652  -14.6896 C   0  0  0  0  0  0  0  0  0  0  0  0
   17.6609  -10.3238  -15.9461 C   0  0  0  0  0  0  0  0  0  0  0  0
   16.6239  -11.1782  -16.1764 N   0  0  0  0  0  0  0  0  0  0  0  0
   16.4980  -11.9448  -15.0687 C   0  0  0  0  0  0  0  0  0  0  0  0
   17.4365  -11.5671  -14.1823 N   0  0  0  0  0  0  0  0  0  0  0  0
   20.4822   -7.6776  -14.2194 C   0  0  0  0  0  0  0  0  0  0  0  0
   19.8530   -7.1840  -13.2506 O   0  0  0  0  0  0  0  0  0  0  0  0
   21.7416   -7.1376  -14.5430 N   0  0  0  0  0  0  0  0  0  0  0  0
   22.3774   -6.0687  -13.8008 C   0  0  0  0  0  0  0  0  0  0  0  0
   21.8157   -4.7820  -14.2754 C   0  0  0  0  0  0  0  0  0  0  0  0
   20.9411   -4.7310  -15.1930 O   0  0  0  0  0  0  0  0  0  0  0  0
   22.2345   -3.5842  -13.7241 O   0  0  0  0  0  0  0  0  0  0  0  0
  2  1  1  1
  2  3  1  0
  4  2  1  0
  4  5  1  1
  6  8  1  0
  6  4  1  0
  7  6  2  0
  9  8  1  0
  9 10  1  1
 10 11  1  0
 11 12  2  0
 11 15  1  0
 12 13  1  0
 13 14  1  0
 15 14  2  0
 16  9  1  0
 17 16  2  0
 18 16  1  0
 19 20  1  0
 19 18  1  0
 20 22  1  0
 21 20  2  0
M  END
$$$$
