VHG.pdb
     RDKit          3D

 22 22  0  0  1  0  0  0  0  0999 V2000
   15.6165  -13.0558  -15.1306 C   0  0  0  0  0  0  0  0  0  0  0  0
   15.9663  -13.7581  -16.3974 C   0  0  2  0  0  0  0  0  0  0  0  0
   14.9566  -14.8209  -16.7105 C   0  0  0  0  0  0  0  0  0  0  0  0
   17.3521  -14.3719  -16.4235 C   0  0  2  0  0  0  0  0  0  0  0  0
   17.4722  -15.3465  -15.3352 N   0  0  0  0  0  0  0  0  0  0  0  0
   18.3433  -13.3273  -16.1652 C   0  0  0  0  0  0  0  0  0  0  0  0
   18.7840  -13.1591  -14.9722 O   0  0  0  0  0  0  0  0  0  0  0  0
   18.8914  -12.4465  -17.1380 N   0  0  0  0  0  0  0  0  0  0  0  0
   19.8390  -11.3975  -16.7659 C   0  0  1  0  0  0  0  0  0  0  0  0
   20.8099  -11.1909  -17.9123 C   0  0  0  0  0  0  0  0  0  0  0  0
   21.8605  -10.2162  -17.6073 C   0  0  0  0  0  0  0  0  0  0  0  0
   22.9247  -10.4188  -16.7531 C   0  0  0  0  0  0  0  0  0  0  0  0
   23.6927   -9.2930  -16.7195 N   0  0  0  0  0  0  0  0  0  0  0  0
   23.1076   -8.3979  -17.5482 C   0  0  0  0  0  0  0  0  0  0  0  0
   22.0075   -8.9640  -18.0758 N   0  0  0  0  0  0  0  0  0  0  0  0
   19.1563  -10.1614  -16.3761 C   0  0  0  0  0  0  0  0  0  0  0  0
   18.1997   -9.7364  -17.0706 O   0  0  0  0  0  0  0  0  0  0  0  0
   19.5364   -9.4230  -15.2391 N   0  0  0  0  0  0  0  0  0  0  0  0
   18.9360   -8.1615  -14.8571 C   0  0  0  0  0  0  0  0  0  0  0  0
   20.0227   -7.2399  -14.4494 C   0  0  0  0  0  0  0  0  0  0  0  0
   21.2402   -7.5963  -14.4551 O   0  0  0  0  0  0  0  0  0  0  0  0
   19.7366   -5.9479  -14.0458 O   0  0  0  0  0  0  0  0  0  0  0  0
  2  1  1  1
  2  3  1  0
  4  2  1  0
  4  5  1  1
  6  8  1  0
  6  4  1  0
  7  6  2  0
  9  8  1  0
  9 10  1  6
 10 11  1  0
 11 12  2  0
 11 15  1  0
 12 13  1  0
 13 14  1  0
 15 14  2  0
 16  9  1  0
 17 16  2  0
 18 16  1  0
 19 20  1  0
 19 18  1  0
 20 22  1  0
 21 20  2  0
M  END
$$$$
