VHG.pdb
     RDKit          3D

 22 22  0  0  1  0  0  0  0  0999 V2000
   24.2762  -11.8164  -20.1173 C   0  0  0  0  0  0  0  0  0  0  0  0
   23.3040  -10.8405  -19.5489 C   0  0  2  0  0  0  0  0  0  0  0  0
   23.9023   -9.4671  -19.4939 C   0  0  0  0  0  0  0  0  0  0  0  0
   22.7690  -11.2003  -18.1771 C   0  0  2  0  0  0  0  0  0  0  0  0
   22.0026  -12.4467  -18.2661 N   0  0  0  0  0  0  0  0  0  0  0  0
   21.8355  -10.1620  -17.7400 C   0  0  0  0  0  0  0  0  0  0  0  0
   20.7059  -10.0400  -18.3357 O   0  0  0  0  0  0  0  0  0  0  0  0
   22.0588   -9.2398  -16.6806 N   0  0  0  0  0  0  0  0  0  0  0  0
   21.0869   -8.1947  -16.3647 C   0  0  1  0  0  0  0  0  0  0  0  0
   20.5160   -8.4629  -14.9856 C   0  0  0  0  0  0  0  0  0  0  0  0
   19.4739   -9.4928  -14.9852 C   0  0  0  0  0  0  0  0  0  0  0  0
   19.0768  -10.2383  -16.0758 C   0  0  0  0  0  0  0  0  0  0  0  0
   18.0862  -11.0946  -15.6965 N   0  0  0  0  0  0  0  0  0  0  0  0
   17.8708  -10.8808  -14.3780 C   0  0  0  0  0  0  0  0  0  0  0  0
   18.7105   -9.9160  -13.9618 N   0  0  0  0  0  0  0  0  0  0  0  0
   21.6703   -6.8561  -16.4823 C   0  0  0  0  0  0  0  0  0  0  0  0
   22.6564   -6.5452  -15.7689 O   0  0  0  0  0  0  0  0  0  0  0  0
   21.1616   -5.8937  -17.3752 N   0  0  0  0  0  0  0  0  0  0  0  0
   21.7754   -4.6025  -17.6073 C   0  0  0  0  0  0  0  0  0  0  0  0
   21.3728   -3.6971  -16.5053 C   0  0  0  0  0  0  0  0  0  0  0  0
   20.6358   -4.0909  -15.5507 O   0  0  0  0  0  0  0  0  0  0  0  0
   21.7945   -2.3797  -16.4859 O   0  0  0  0  0  0  0  0  0  0  0  0
  2  1  1  1
  2  3  1  0
  4  2  1  0
  4  5  1  6
  6  8  1  0
  6  4  1  0
  7  6  2  0
  9  8  1  0
  9 10  1  1
 10 11  1  0
 11 12  2  0
 11 15  1  0
 12 13  1  0
 13 14  1  0
 15 14  2  0
 16  9  1  0
 17 16  2  0
 18 16  1  0
 19 20  1  0
 19 18  1  0
 20 22  1  0
 21 20  2  0
M  END
$$$$
