VHG.pdb
     RDKit          3D

 22 22  0  0  1  0  0  0  0  0999 V2000
   25.0154  -20.0412  -10.1366 C   0  0  0  0  0  0  0  0  0  0  0  0
   25.6257  -21.3123  -10.6185 C   0  0  2  0  0  0  0  0  0  0  0  0
   26.8176  -21.6771   -9.7857 C   0  0  0  0  0  0  0  0  0  0  0  0
   26.0272  -21.3120  -12.0801 C   0  0  2  0  0  0  0  0  0  0  0  0
   27.2051  -20.4583  -12.2601 N   0  0  0  0  0  0  0  0  0  0  0  0
   24.9505  -20.7171  -12.8722 C   0  0  0  0  0  0  0  0  0  0  0  0
   24.6312  -19.4897  -12.6787 O   0  0  0  0  0  0  0  0  0  0  0  0
   24.1936  -21.3841  -13.8746 N   0  0  0  0  0  0  0  0  0  0  0  0
   23.0858  -20.7199  -14.5588 C   0  0  1  0  0  0  0  0  0  0  0  0
   23.4712  -20.5022  -16.0093 C   0  0  0  0  0  0  0  0  0  0  0  0
   22.7029  -19.4341  -16.6541 C   0  0  0  0  0  0  0  0  0  0  0  0
   21.7466  -18.6483  -16.0450 C   0  0  0  0  0  0  0  0  0  0  0  0
   21.2469  -17.7647  -16.9548 N   0  0  0  0  0  0  0  0  0  0  0  0
   21.8900  -18.0018  -18.1213 C   0  0  0  0  0  0  0  0  0  0  0  0
   22.7624  -19.0071  -17.9282 N   0  0  0  0  0  0  0  0  0  0  0  0
   21.8327  -21.4647  -14.4146 C   0  0  0  0  0  0  0  0  0  0  0  0
   21.8529  -22.7206  -14.4314 O   0  0  0  0  0  0  0  0  0  0  0  0
   20.5918  -20.8185  -14.2560 N   0  0  0  0  0  0  0  0  0  0  0  0
   19.3192  -21.5093  -14.2254 C   0  0  0  0  0  0  0  0  0  0  0  0
   18.7206  -21.3112  -12.8842 C   0  0  0  0  0  0  0  0  0  0  0  0
   18.7735  -22.2079  -11.9883 O   0  0  0  0  0  0  0  0  0  0  0  0
   18.0788  -20.1275  -12.5668 O   0  0  0  0  0  0  0  0  0  0  0  0
  2  1  1  1
  2  3  1  0
  4  2  1  0
  4  5  1  1
  6  8  1  0
  6  4  1  0
  7  6  2  0
  9  8  1  0
  9 10  1  6
 10 11  1  0
 11 12  2  0
 11 15  1  0
 12 13  1  0
 13 14  1  0
 15 14  2  0
 16  9  1  0
 17 16  2  0
 18 16  1  0
 19 20  1  0
 19 18  1  0
 20 22  1  0
 21 20  2  0
M  END
$$$$
