VHG.pdb
     RDKit          3D

 22 22  0  0  1  0  0  0  0  0999 V2000
   19.5709  -11.0040  -15.7030 C   0  0  0  0  0  0  0  0  0  0  0  0
   18.1152  -10.6957  -15.6234 C   0  0  2  0  0  0  0  0  0  0  0  0
   17.2988  -11.8787  -16.0489 C   0  0  0  0  0  0  0  0  0  0  0  0
   17.6767   -9.4824  -16.4192 C   0  0  2  0  0  0  0  0  0  0  0  0
   18.1200   -9.6269  -17.8089 N   0  0  0  0  0  0  0  0  0  0  0  0
   18.3425   -8.2939  -15.8859 C   0  0  0  0  0  0  0  0  0  0  0  0
   18.0862   -7.9131  -14.6879 O   0  0  0  0  0  0  0  0  0  0  0  0
   19.2826   -7.4872  -16.5846 N   0  0  0  0  0  0  0  0  0  0  0  0
   19.8925   -6.3154  -15.9588 C   0  0  1  0  0  0  0  0  0  0  0  0
   21.3792   -6.5683  -15.7994 C   0  0  0  0  0  0  0  0  0  0  0  0
   21.6804   -7.6550  -14.8638 C   0  0  0  0  0  0  0  0  0  0  0  0
   21.0595   -7.8696  -13.6507 C   0  0  0  0  0  0  0  0  0  0  0  0
   21.6013   -8.9717  -13.0590 N   0  0  0  0  0  0  0  0  0  0  0  0
   22.5526   -9.4373  -13.9008 C   0  0  0  0  0  0  0  0  0  0  0  0
   22.5909   -8.6379  -14.9818 N   0  0  0  0  0  0  0  0  0  0  0  0
   19.6068   -5.0889  -16.7071 C   0  0  0  0  0  0  0  0  0  0  0  0
   19.6742   -5.0984  -17.9614 O   0  0  0  0  0  0  0  0  0  0  0  0
   19.2555   -3.8856  -16.0660 N   0  0  0  0  0  0  0  0  0  0  0  0
   18.9500   -2.6557  -16.7672 C   0  0  0  0  0  0  0  0  0  0  0  0
   20.2177   -2.1030  -17.2999 C   0  0  0  0  0  0  0  0  0  0  0  0
   21.3247   -2.7049  -17.1526 O   0  0  0  0  0  0  0  0  0  0  0  0
   20.2302   -0.8995  -17.9819 O   0  0  0  0  0  0  0  0  0  0  0  0
  2  1  1  6
  2  3  1  0
  4  2  1  0
  4  5  1  6
  6  8  1  0
  6  4  1  0
  7  6  2  0
  9  8  1  0
  9 10  1  6
 10 11  1  0
 11 12  2  0
 11 15  1  0
 12 13  1  0
 13 14  1  0
 15 14  2  0
 16  9  1  0
 17 16  2  0
 18 16  1  0
 19 20  1  0
 19 18  1  0
 20 22  1  0
 21 20  2  0
M  END
$$$$
