VHG.pdb
     RDKit          3D

 22 22  0  0  1  0  0  0  0  0999 V2000
   22.8341  -12.1050  -20.3632 C   0  0  0  0  0  0  0  0  0  0  0  0
   22.2419  -11.0443  -19.5002 C   0  0  2  0  0  0  0  0  0  0  0  0
   23.3056  -10.1161  -18.9960 C   0  0  0  0  0  0  0  0  0  0  0  0
   21.4369  -11.5572  -18.3226 C   0  0  2  0  0  0  0  0  0  0  0  0
   20.2905  -12.3260  -18.8160 N   0  0  0  0  0  0  0  0  0  0  0  0
   20.8935  -10.4185  -17.5820 C   0  0  0  0  0  0  0  0  0  0  0  0
   20.1279   -9.5836  -18.1842 O   0  0  0  0  0  0  0  0  0  0  0  0
   21.1338  -10.1318  -16.2099 N   0  0  0  0  0  0  0  0  0  0  0  0
   20.4125   -9.0650  -15.5184 C   0  0  1  0  0  0  0  0  0  0  0  0
   19.6354   -9.6717  -14.3661 C   0  0  0  0  0  0  0  0  0  0  0  0
   18.5467  -10.5484  -14.8054 C   0  0  0  0  0  0  0  0  0  0  0  0
   17.6483  -10.2739  -15.8156 C   0  0  0  0  0  0  0  0  0  0  0  0
   16.7815  -11.3186  -15.9404 N   0  0  0  0  0  0  0  0  0  0  0  0
   17.1409  -12.2353  -15.0126 C   0  0  0  0  0  0  0  0  0  0  0  0
   18.2028  -11.7613  -14.3368 N   0  0  0  0  0  0  0  0  0  0  0  0
   21.3113   -7.9912  -15.0881 C   0  0  0  0  0  0  0  0  0  0  0  0
   22.3894   -8.2793  -14.5114 O   0  0  0  0  0  0  0  0  0  0  0  0
   21.0089   -6.6324  -15.2991 N   0  0  0  0  0  0  0  0  0  0  0  0
   21.9373   -5.5495  -15.0481 C   0  0  0  0  0  0  0  0  0  0  0  0
   21.8139   -5.1586  -13.6239 C   0  0  0  0  0  0  0  0  0  0  0  0
   21.0057   -5.7402  -12.8377 O   0  0  0  0  0  0  0  0  0  0  0  0
   22.5864   -4.1353  -13.1045 O   0  0  0  0  0  0  0  0  0  0  0  0
  2  1  1  1
  2  3  1  0
  4  2  1  0
  4  5  1  6
  6  8  1  0
  6  4  1  0
  7  6  2  0
  9  8  1  0
  9 10  1  1
 10 11  1  0
 11 12  2  0
 11 15  1  0
 12 13  1  0
 13 14  1  0
 15 14  2  0
 16  9  1  0
 17 16  2  0
 18 16  1  0
 19 20  1  0
 19 18  1  0
 20 22  1  0
 21 20  2  0
M  END
$$$$
