VHG.pdb
     RDKit          3D

 22 22  0  0  1  0  0  0  0  0999 V2000
   24.6325  -19.1038  -15.9881 C   0  0  0  0  0  0  0  0  0  0  0  0
   24.0939  -18.5667  -17.2695 C   0  0  2  0  0  0  0  0  0  0  0  0
   25.0311  -17.5539  -17.8553 C   0  0  0  0  0  0  0  0  0  0  0  0
   22.7088  -17.9586  -17.1731 C   0  0  2  0  0  0  0  0  0  0  0  0
   22.2581  -17.5626  -18.5106 N   0  0  0  0  0  0  0  0  0  0  0  0
   22.7774  -16.7361  -16.3723 C   0  0  0  0  0  0  0  0  0  0  0  0
   22.9578  -16.8231  -15.1052 O   0  0  0  0  0  0  0  0  0  0  0  0
   22.6625  -15.4101  -16.8733 N   0  0  0  0  0  0  0  0  0  0  0  0
   22.9087  -14.2503  -16.0184 C   0  0  1  0  0  0  0  0  0  0  0  0
   24.0784  -13.4688  -16.5847 C   0  0  0  0  0  0  0  0  0  0  0  0
   25.3564  -14.1742  -16.4577 C   0  0  0  0  0  0  0  0  0  0  0  0
   25.7792  -14.8840  -15.3530 C   0  0  0  0  0  0  0  0  0  0  0  0
   27.0162  -15.4012  -15.5993 N   0  0  0  0  0  0  0  0  0  0  0  0
   27.3579  -15.0140  -16.8498 C   0  0  0  0  0  0  0  0  0  0  0  0
   26.3527  -14.2772  -17.3555 N   0  0  0  0  0  0  0  0  0  0  0  0
   21.7069  -13.4281  -15.8578 C   0  0  0  0  0  0  0  0  0  0  0  0
   21.7873  -12.3217  -15.2684 O   0  0  0  0  0  0  0  0  0  0  0  0
   20.4504  -13.8359  -16.3449 N   0  0  0  0  0  0  0  0  0  0  0  0
   19.2524  -13.0258  -16.2683 C   0  0  0  0  0  0  0  0  0  0  0  0
   18.2194  -13.8001  -15.5405 C   0  0  0  0  0  0  0  0  0  0  0  0
   18.4456  -14.9673  -15.0979 O   0  0  0  0  0  0  0  0  0  0  0  0
   16.9627  -13.2652  -15.3200 O   0  0  0  0  0  0  0  0  0  0  0  0
  2  1  1  1
  2  3  1  0
  4  2  1  0
  4  5  1  6
  6  8  1  0
  6  4  1  0
  7  6  2  0
  9  8  1  0
  9 10  1  6
 10 11  1  0
 11 12  2  0
 11 15  1  0
 12 13  1  0
 13 14  1  0
 15 14  2  0
 16  9  1  0
 17 16  2  0
 18 16  1  0
 19 20  1  0
 19 18  1  0
 20 22  1  0
 21 20  2  0
M  END
$$$$
