PNS.pdb
     RDKit          3D

 22 22  0  0  1  0  0  0  0  0999 V2000
    9.3141  -14.1752   17.9663 N   0  0  0  0  0  0  0  0  0  0  0  0
    8.1414  -14.5750   17.2517 C   0  0  0  0  0  0  0  0  0  0  0  0
    7.2873  -13.3036   17.3531 C   0  0  0  0  0  0  0  0  0  0  0  0
    7.5130  -12.8949   18.7972 C   0  0  0  0  0  0  0  0  0  0  0  0
    8.8307  -13.5806   19.1648 C   0  0  1  0  0  0  0  0  0  0  0  0
    8.6140  -14.5736   20.2271 C   0  0  0  0  0  0  0  0  0  0  0  0
    7.7811  -14.3642   21.1670 O   0  0  0  0  0  0  0  0  0  0  0  0
   11.2809  -18.3991   19.3450 N   0  0  0  0  0  0  0  0  0  0  0  0
   10.8706  -18.3083   20.6943 C   0  0  0  0  0  0  0  0  0  0  0  0
   11.7459  -18.4012   21.5953 O   0  0  0  0  0  0  0  0  0  0  0  0
    9.4312  -18.1091   20.9508 C   0  0  0  0  0  0  0  0  0  0  0  0
    9.0724  -16.7321   21.4101 C   0  0  2  0  0  0  0  0  0  0  0  0
    9.2967  -15.8034   20.2829 N   0  0  0  0  0  0  0  0  0  0  0  0
    9.9680  -16.2923   22.5032 C   0  0  0  0  0  0  0  0  0  0  0  0
   11.0455  -15.7046   22.2926 O   0  0  0  0  0  0  0  0  0  0  0  0
    8.4508  -15.2419   25.9461 O   0  0  0  0  0  0  0  0  0  0  0  0
    9.7948  -14.9817   25.7381 C   0  0  0  0  0  0  0  0  0  0  0  0
   10.4391  -16.1447   24.9711 C   0  0  2  0  0  0  0  0  0  0  0  0
    9.6170  -16.5336   23.8683 N   0  0  0  0  0  0  0  0  0  0  0  0
   10.7170  -17.1984   25.9314 C   0  0  0  0  0  0  0  0  0  0  0  0
   10.2333  -18.3390   25.7954 O   0  0  0  0  0  0  0  0  0  0  0  0
   11.5268  -16.9566   27.0195 O   0  0  0  0  0  0  0  0  0  0  0  0
  2  1  1  0
  3  2  1  0
  4  3  1  0
  4  5  1  0
  5  1  1  0
  5  6  1  1
  6 13  1  0
  7  6  2  0
  9  8  1  0
 10  9  2  0
 11  9  1  0
 12 11  1  6
 12 13  1  0
 12 14  1  0
 14 19  1  0
 15 14  2  0
 16 17  1  0
 18 20  1  0
 18 17  1  1
 19 18  1  0
 20 22  1  0
 21 20  2  0
M  END
$$$$
