PNS.pdb
     RDKit          3D

 22 22  0  0  1  0  0  0  0  0999 V2000
    9.5179  -13.0545   20.4529 N   0  0  0  0  0  0  0  0  0  0  0  0
    9.7784  -13.0692   19.0467 C   0  0  0  0  0  0  0  0  0  0  0  0
    8.3678  -12.8463   18.4838 C   0  0  0  0  0  0  0  0  0  0  0  0
    7.5337  -13.7463   19.3769 C   0  0  0  0  0  0  0  0  0  0  0  0
    8.3971  -13.9126   20.6292 C   0  0  1  0  0  0  0  0  0  0  0  0
    8.7964  -15.3178   20.7948 C   0  0  0  0  0  0  0  0  0  0  0  0
    7.9540  -16.2636   20.6645 O   0  0  0  0  0  0  0  0  0  0  0  0
   11.6913  -17.0986   18.2862 N   0  0  0  0  0  0  0  0  0  0  0  0
   12.1087  -16.5870   19.5356 C   0  0  0  0  0  0  0  0  0  0  0  0
   12.7190  -15.4854   19.5595 O   0  0  0  0  0  0  0  0  0  0  0  0
   11.7952  -17.3899   20.7333 C   0  0  0  0  0  0  0  0  0  0  0  0
   10.4349  -17.1417   21.3023 C   0  0  2  0  0  0  0  0  0  0  0  0
   10.1117  -15.7138   21.1029 N   0  0  0  0  0  0  0  0  0  0  0  0
   10.4254  -17.3761   22.7636 C   0  0  0  0  0  0  0  0  0  0  0  0
    9.8025  -16.6451   23.5564 O   0  0  0  0  0  0  0  0  0  0  0  0
   12.0292  -20.9099   24.0493 O   0  0  0  0  0  0  0  0  0  0  0  0
   11.1242  -20.3205   24.9158 C   0  0  0  0  0  0  0  0  0  0  0  0
   11.1272  -18.7984   24.7176 C   0  0  2  0  0  0  0  0  0  0  0  0
   11.1478  -18.4748   23.3256 N   0  0  0  0  0  0  0  0  0  0  0  0
   12.2342  -18.2612   25.4894 C   0  0  0  0  0  0  0  0  0  0  0  0
   13.1245  -17.5763   24.9494 O   0  0  0  0  0  0  0  0  0  0  0  0
   12.3230  -18.4997   26.8434 O   0  0  0  0  0  0  0  0  0  0  0  0
  2  1  1  0
  3  2  1  0
  4  3  1  0
  4  5  1  0
  5  1  1  0
  5  6  1  6
  6 13  1  0
  7  6  2  0
  9  8  1  0
 10  9  2  0
 11  9  1  0
 12 11  1  1
 12 13  1  0
 12 14  1  0
 14 19  1  0
 15 14  2  0
 16 17  1  0
 18 20  1  0
 18 17  1  6
 19 18  1  0
 20 22  1  0
 21 20  2  0
M  END
$$$$
