PNS.pdb
     RDKit          3D

 22 22  0  0  1  0  0  0  0  0999 V2000
    9.2601  -14.2196   18.4468 N   0  0  0  0  0  0  0  0  0  0  0  0
    7.9393  -14.3989   17.9281 C   0  0  0  0  0  0  0  0  0  0  0  0
    7.3413  -13.0039   18.1573 C   0  0  0  0  0  0  0  0  0  0  0  0
    7.8564  -12.6718   19.5457 C   0  0  0  0  0  0  0  0  0  0  0  0
    9.0787  -13.5788   19.7038 C   0  0  1  0  0  0  0  0  0  0  0  0
    8.8645  -14.5443   20.7916 C   0  0  0  0  0  0  0  0  0  0  0  0
    8.3018  -14.1987   21.8801 O   0  0  0  0  0  0  0  0  0  0  0  0
    7.6943  -18.7297   19.1332 N   0  0  0  0  0  0  0  0  0  0  0  0
    7.5544  -18.3353   20.4830 C   0  0  0  0  0  0  0  0  0  0  0  0
    6.3949  -18.1360   20.9329 O   0  0  0  0  0  0  0  0  0  0  0  0
    8.7906  -18.1844   21.2744 C   0  0  0  0  0  0  0  0  0  0  0  0
    8.9976  -16.8150   21.8380 C   0  0  2  0  0  0  0  0  0  0  0  0
    9.2571  -15.8939   20.7122 N   0  0  0  0  0  0  0  0  0  0  0  0
   10.2003  -16.7772   22.6996 C   0  0  0  0  0  0  0  0  0  0  0  0
   11.3187  -16.4297   22.2759 O   0  0  0  0  0  0  0  0  0  0  0  0
    9.6880  -17.1569   26.7650 O   0  0  0  0  0  0  0  0  0  0  0  0
   10.8842  -16.6133   26.3278 C   0  0  0  0  0  0  0  0  0  0  0  0
   11.2464  -17.1880   24.9514 C   0  0  2  0  0  0  0  0  0  0  0  0
   10.1155  -17.1471   24.0783 N   0  0  0  0  0  0  0  0  0  0  0  0
   11.8089  -18.5099   25.1661 C   0  0  0  0  0  0  0  0  0  0  0  0
   11.2898  -19.5222   24.6570 O   0  0  0  0  0  0  0  0  0  0  0  0
   12.9355  -18.6724   25.9422 O   0  0  0  0  0  0  0  0  0  0  0  0
  2  1  1  0
  3  2  1  0
  4  3  1  0
  4  5  1  0
  5  1  1  0
  5  6  1  1
  6 13  1  0
  7  6  2  0
  9  8  1  0
 10  9  2  0
 11  9  1  0
 12 11  1  6
 12 13  1  0
 12 14  1  0
 14 19  1  0
 15 14  2  0
 16 17  1  0
 18 20  1  0
 18 17  1  1
 19 18  1  0
 20 22  1  0
 21 20  2  0
M  END
$$$$
