PNS.pdb
     RDKit          3D

 22 22  0  0  1  0  0  0  0  0999 V2000
    8.2202  -14.8531   18.7518 N   0  0  0  0  0  0  0  0  0  0  0  0
    6.9409  -14.2365   18.9221 C   0  0  0  0  0  0  0  0  0  0  0  0
    7.2939  -12.7597   18.6964 C   0  0  0  0  0  0  0  0  0  0  0  0
    8.5980  -12.6338   19.4625 C   0  0  0  0  0  0  0  0  0  0  0  0
    9.1132  -14.0727   19.5373 C   0  0  1  0  0  0  0  0  0  0  0  0
    9.1642  -14.5280   20.9342 C   0  0  0  0  0  0  0  0  0  0  0  0
   10.0834  -14.1364   21.7234 O   0  0  0  0  0  0  0  0  0  0  0  0
    7.8475  -16.2315   25.6206 N   0  0  0  0  0  0  0  0  0  0  0  0
    6.7654  -16.5375   24.7649 C   0  0  0  0  0  0  0  0  0  0  0  0
    5.7773  -17.1547   25.2440 O   0  0  0  0  0  0  0  0  0  0  0  0
    6.8739  -16.1069   23.3577 C   0  0  0  0  0  0  0  0  0  0  0  0
    8.2579  -15.7329   22.9332 C   0  0  2  0  0  0  0  0  0  0  0  0
    8.2207  -15.4118   21.4914 N   0  0  0  0  0  0  0  0  0  0  0  0
    9.1824  -16.8784   23.0862 C   0  0  0  0  0  0  0  0  0  0  0  0
    9.2610  -17.7943   22.2460 O   0  0  0  0  0  0  0  0  0  0  0  0
   12.9210  -16.7604   24.2089 O   0  0  0  0  0  0  0  0  0  0  0  0
   12.2428  -17.8486   23.6862 C   0  0  0  0  0  0  0  0  0  0  0  0
   10.9312  -18.0640   24.4537 C   0  0  2  0  0  0  0  0  0  0  0  0
   10.0352  -16.9730   24.2302 N   0  0  0  0  0  0  0  0  0  0  0  0
   11.2750  -18.3011   25.8449 C   0  0  0  0  0  0  0  0  0  0  0  0
   10.8123  -17.5856   26.7546 O   0  0  0  0  0  0  0  0  0  0  0  0
   12.1254  -19.3288   26.1894 O   0  0  0  0  0  0  0  0  0  0  0  0
  2  1  1  0
  3  2  1  0
  4  3  1  0
  4  5  1  0
  5  1  1  0
  5  6  1  1
  6 13  1  0
  7  6  2  0
  9  8  1  0
 10  9  2  0
 11  9  1  0
 12 11  1  6
 12 13  1  0
 12 14  1  0
 14 19  1  0
 15 14  2  0
 16 17  1  0
 18 20  1  0
 18 17  1  6
 19 18  1  0
 20 22  1  0
 21 20  2  0
M  END
$$$$
