PNS.pdb
     RDKit          3D

 22 22  0  0  1  0  0  0  0  0999 V2000
    8.4070  -14.4746   18.3105 N   0  0  0  0  0  0  0  0  0  0  0  0
    7.0528  -14.0803   18.5480 C   0  0  0  0  0  0  0  0  0  0  0  0
    7.2516  -12.6590   19.0928 C   0  0  0  0  0  0  0  0  0  0  0  0
    8.4377  -12.8474   20.0207 C   0  0  0  0  0  0  0  0  0  0  0  0
    9.1079  -14.1191   19.4962 C   0  0  1  0  0  0  0  0  0  0  0  0
    9.0559  -15.1827   20.5099 C   0  0  0  0  0  0  0  0  0  0  0  0
    7.9774  -15.4509   21.1311 O   0  0  0  0  0  0  0  0  0  0  0  0
   11.2715  -18.8522   19.1333 N   0  0  0  0  0  0  0  0  0  0  0  0
   10.4314  -18.8770   20.2694 C   0  0  0  0  0  0  0  0  0  0  0  0
    9.3353  -19.4927   20.1920 O   0  0  0  0  0  0  0  0  0  0  0  0
   10.9056  -18.1721   21.4759 C   0  0  0  0  0  0  0  0  0  0  0  0
   10.0493  -17.0191   21.8918 C   0  0  2  0  0  0  0  0  0  0  0  0
   10.1708  -15.9669   20.8616 N   0  0  0  0  0  0  0  0  0  0  0  0
   10.5403  -16.4290   23.1572 C   0  0  0  0  0  0  0  0  0  0  0  0
   11.4342  -15.5626   23.1912 O   0  0  0  0  0  0  0  0  0  0  0  0
    8.9536  -14.5942   25.2758 O   0  0  0  0  0  0  0  0  0  0  0  0
    9.5272  -15.3538   26.2815 C   0  0  0  0  0  0  0  0  0  0  0  0
   10.4838  -16.3885   25.6729 C   0  0  2  0  0  0  0  0  0  0  0  0
    9.9915  -16.8441   24.4107 N   0  0  0  0  0  0  0  0  0  0  0  0
   10.6868  -17.4298   26.6650 C   0  0  0  0  0  0  0  0  0  0  0  0
   11.1616  -17.1679   27.7871 O   0  0  0  0  0  0  0  0  0  0  0  0
   10.3561  -18.7373   26.3835 O   0  0  0  0  0  0  0  0  0  0  0  0
  2  1  1  0
  3  2  1  0
  4  3  1  0
  4  5  1  0
  5  1  1  0
  5  6  1  1
  6 13  1  0
  7  6  2  0
  9  8  1  0
 10  9  2  0
 11  9  1  0
 12 11  1  6
 12 13  1  0
 12 14  1  0
 14 19  1  0
 15 14  2  0
 16 17  1  0
 18 20  1  0
 18 17  1  1
 19 18  1  0
 20 22  1  0
 21 20  2  0
M  END
$$$$
