PNS.pdb
     RDKit          3D

 22 22  0  0  1  0  0  0  0  0999 V2000
    9.2369  -14.1970   17.8666 N   0  0  0  0  0  0  0  0  0  0  0  0
    7.9710  -14.4827   17.2654 C   0  0  0  0  0  0  0  0  0  0  0  0
    7.2290  -13.1595   17.4994 C   0  0  0  0  0  0  0  0  0  0  0  0
    7.6305  -12.8286   18.9250 C   0  0  0  0  0  0  0  0  0  0  0  0
    8.9240  -13.6205   19.1288 C   0  0  1  0  0  0  0  0  0  0  0  0
    8.7433  -14.6392   20.1733 C   0  0  0  0  0  0  0  0  0  0  0  0
    8.0603  -14.3978   21.2203 O   0  0  0  0  0  0  0  0  0  0  0  0
    9.2097  -19.1176   18.3970 N   0  0  0  0  0  0  0  0  0  0  0  0
    8.6143  -18.7976   19.6380 C   0  0  0  0  0  0  0  0  0  0  0  0
    7.3780  -18.9937   19.7787 O   0  0  0  0  0  0  0  0  0  0  0  0
    9.4944  -18.2515   20.6889 C   0  0  0  0  0  0  0  0  0  0  0  0
    9.0916  -16.9011   21.1889 C   0  0  2  0  0  0  0  0  0  0  0  0
    9.2999  -15.9299   20.0950 N   0  0  0  0  0  0  0  0  0  0  0  0
    9.9635  -16.4722   22.3052 C   0  0  0  0  0  0  0  0  0  0  0  0
   11.1464  -16.1215   22.1363 O   0  0  0  0  0  0  0  0  0  0  0  0
    8.2478  -15.0932   25.6723 O   0  0  0  0  0  0  0  0  0  0  0  0
    9.5956  -14.8438   25.4760 C   0  0  0  0  0  0  0  0  0  0  0  0
   10.2496  -16.0382   24.7677 C   0  0  2  0  0  0  0  0  0  0  0  0
    9.4644  -16.4459   23.6450 N   0  0  0  0  0  0  0  0  0  0  0  0
   10.4727  -17.0681   25.7674 C   0  0  0  0  0  0  0  0  0  0  0  0
    9.8991  -18.1722   25.6952 O   0  0  0  0  0  0  0  0  0  0  0  0
   11.3291  -16.8436   26.8231 O   0  0  0  0  0  0  0  0  0  0  0  0
  2  1  1  0
  3  2  1  0
  4  3  1  0
  4  5  1  0
  5  1  1  0
  5  6  1  1
  6 13  1  0
  7  6  2  0
  9  8  1  0
 10  9  2  0
 11  9  1  0
 12 11  1  6
 12 13  1  0
 12 14  1  0
 14 19  1  0
 15 14  2  0
 16 17  1  0
 18 20  1  0
 18 17  1  1
 19 18  1  0
 20 22  1  0
 21 20  2  0
M  END
$$$$
