PNS.pdb
     RDKit          3D

 22 22  0  0  1  0  0  0  0  0999 V2000
    8.6565  -14.8152   19.6771 N   0  0  0  0  0  0  0  0  0  0  0  0
    7.3488  -14.5430   19.1657 C   0  0  0  0  0  0  0  0  0  0  0  0
    7.3743  -13.0099   19.0938 C   0  0  0  0  0  0  0  0  0  0  0  0
    8.0537  -12.6509   20.4025 C   0  0  0  0  0  0  0  0  0  0  0  0
    8.8159  -13.9246   20.7748 C   0  0  1  0  0  0  0  0  0  0  0  0
    8.2914  -14.4895   22.0267 C   0  0  0  0  0  0  0  0  0  0  0  0
    7.3330  -13.9320   22.6525 O   0  0  0  0  0  0  0  0  0  0  0  0
    6.5710  -18.3230   25.5411 N   0  0  0  0  0  0  0  0  0  0  0  0
    7.9519  -18.1616   25.2878 C   0  0  0  0  0  0  0  0  0  0  0  0
    8.7707  -18.5160   26.1770 O   0  0  0  0  0  0  0  0  0  0  0  0
    8.3370  -17.5834   23.9860 C   0  0  0  0  0  0  0  0  0  0  0  0
    8.3399  -16.0886   23.9528 C   0  0  2  0  0  0  0  0  0  0  0  0
    8.7990  -15.6639   22.6140 N   0  0  0  0  0  0  0  0  0  0  0  0
    9.3133  -15.5429   24.9250 C   0  0  0  0  0  0  0  0  0  0  0  0
   10.5072  -15.3380   24.6362 O   0  0  0  0  0  0  0  0  0  0  0  0
    7.9977  -13.2306   27.9759 O   0  0  0  0  0  0  0  0  0  0  0  0
    9.3225  -13.2178   27.5734 C   0  0  0  0  0  0  0  0  0  0  0  0
    9.7772  -14.6429   27.2290 C   0  0  2  0  0  0  0  0  0  0  0  0
    8.9050  -15.2259   26.2582 N   0  0  0  0  0  0  0  0  0  0  0  0
    9.8863  -15.3783   28.4768 C   0  0  0  0  0  0  0  0  0  0  0  0
    9.2623  -16.4424   28.6550 O   0  0  0  0  0  0  0  0  0  0  0  0
   10.6874  -14.9112   29.4957 O   0  0  0  0  0  0  0  0  0  0  0  0
  2  1  1  0
  3  2  1  0
  4  3  1  0
  4  5  1  0
  5  1  1  0
  5  6  1  1
  6 13  1  0
  7  6  2  0
  9  8  1  0
 10  9  2  0
 11  9  1  0
 12 11  1  6
 12 13  1  0
 12 14  1  0
 14 19  1  0
 15 14  2  0
 16 17  1  0
 18 20  1  0
 18 17  1  1
 19 18  1  0
 20 22  1  0
 21 20  2  0
M  END
$$$$
