PNS.pdb
     RDKit          3D

 22 22  0  0  1  0  0  0  0  0999 V2000
    8.3959  -14.2783   18.2071 N   0  0  0  0  0  0  0  0  0  0  0  0
    7.1165  -13.9979   18.7819 C   0  0  0  0  0  0  0  0  0  0  0  0
    7.3391  -12.5761   19.3158 C   0  0  0  0  0  0  0  0  0  0  0  0
    8.7272  -12.6870   19.9193 C   0  0  0  0  0  0  0  0  0  0  0  0
    9.3387  -13.8908   19.1992 C   0  0  1  0  0  0  0  0  0  0  0  0
    9.6148  -14.9744   20.1538 C   0  0  0  0  0  0  0  0  0  0  0  0
    8.8615  -15.9982   20.2267 O   0  0  0  0  0  0  0  0  0  0  0  0
   13.2084  -18.1701   20.7456 N   0  0  0  0  0  0  0  0  0  0  0  0
   13.1588  -16.7663   20.9000 C   0  0  0  0  0  0  0  0  0  0  0  0
   13.7124  -16.0466   20.0270 O   0  0  0  0  0  0  0  0  0  0  0  0
   12.4544  -16.2414   22.0856 C   0  0  0  0  0  0  0  0  0  0  0  0
   10.9736  -16.1190   21.9180 C   0  0  2  0  0  0  0  0  0  0  0  0
   10.7092  -14.9610   21.0390 N   0  0  0  0  0  0  0  0  0  0  0  0
   10.3206  -15.8234   23.2127 C   0  0  0  0  0  0  0  0  0  0  0  0
   10.2300  -14.6687   23.6706 O   0  0  0  0  0  0  0  0  0  0  0  0
    6.9966  -17.2850   24.6011 O   0  0  0  0  0  0  0  0  0  0  0  0
    7.7261  -16.2684   25.1943 C   0  0  0  0  0  0  0  0  0  0  0  0
    9.2017  -16.6775   25.2990 C   0  0  2  0  0  0  0  0  0  0  0  0
    9.7593  -16.8782   23.9983 N   0  0  0  0  0  0  0  0  0  0  0  0
    9.2725  -17.8289   26.1817 C   0  0  0  0  0  0  0  0  0  0  0  0
    9.7098  -18.9244   25.7791 O   0  0  0  0  0  0  0  0  0  0  0  0
    8.8548  -17.7325   27.4910 O   0  0  0  0  0  0  0  0  0  0  0  0
  2  1  1  0
  3  2  1  0
  4  3  1  0
  4  5  1  0
  5  1  1  0
  5  6  1  1
  6 13  1  0
  7  6  2  0
  9  8  1  0
 10  9  2  0
 11  9  1  0
 12 11  1  1
 12 13  1  0
 12 14  1  0
 14 19  1  0
 15 14  2  0
 16 17  1  0
 18 20  1  0
 18 17  1  6
 19 18  1  0
 20 22  1  0
 21 20  2  0
M  END
$$$$
