PNS.pdb
     RDKit          3D

 22 22  0  0  1  0  0  0  0  0999 V2000
    7.7587  -16.0784   20.2077 N   0  0  0  0  0  0  0  0  0  0  0  0
    6.6456  -15.2292   20.5001 C   0  0  0  0  0  0  0  0  0  0  0  0
    6.8925  -14.0731   19.5210 C   0  0  0  0  0  0  0  0  0  0  0  0
    8.3912  -13.8729   19.6517 C   0  0  0  0  0  0  0  0  0  0  0  0
    8.8885  -15.2141   20.1951 C   0  0  1  0  0  0  0  0  0  0  0  0
    9.4689  -15.0421   21.5349 C   0  0  0  0  0  0  0  0  0  0  0  0
   10.5131  -14.3367   21.7167 O   0  0  0  0  0  0  0  0  0  0  0  0
    8.2640  -13.0908   24.2968 N   0  0  0  0  0  0  0  0  0  0  0  0
    7.8175  -14.1367   25.1357 C   0  0  0  0  0  0  0  0  0  0  0  0
    6.8392  -13.9182   25.8984 O   0  0  0  0  0  0  0  0  0  0  0  0
    8.5381  -15.4218   25.0553 C   0  0  0  0  0  0  0  0  0  0  0  0
    9.5949  -15.4701   23.9986 C   0  0  2  0  0  0  0  0  0  0  0  0
    8.9248  -15.6316   22.6916 N   0  0  0  0  0  0  0  0  0  0  0  0
   10.4629  -16.6555   24.1767 C   0  0  0  0  0  0  0  0  0  0  0  0
   10.0364  -17.8210   24.0743 O   0  0  0  0  0  0  0  0  0  0  0  0
   14.5768  -16.0477   24.6191 O   0  0  0  0  0  0  0  0  0  0  0  0
   14.1354  -17.2337   24.0570 C   0  0  0  0  0  0  0  0  0  0  0  0
   12.7546  -17.5963   24.6207 C   0  0  2  0  0  0  0  0  0  0  0  0
   11.8516  -16.4974   24.4791 N   0  0  0  0  0  0  0  0  0  0  0  0
   12.9489  -18.0597   25.9836 C   0  0  0  0  0  0  0  0  0  0  0  0
   12.3812  -17.5007   26.9420 O   0  0  0  0  0  0  0  0  0  0  0  0
   13.7704  -19.1341   26.2460 O   0  0  0  0  0  0  0  0  0  0  0  0
  2  1  1  0
  3  2  1  0
  4  3  1  0
  4  5  1  0
  5  1  1  0
  5  6  1  1
  6 13  1  0
  7  6  2  0
  9  8  1  0
 10  9  2  0
 11  9  1  0
 12 11  1  1
 12 13  1  0
 12 14  1  0
 14 19  1  0
 15 14  2  0
 16 17  1  0
 18 20  1  0
 18 17  1  1
 19 18  1  0
 20 22  1  0
 21 20  2  0
M  END
$$$$
