EWK.pdb
     RDKit          3D

 33 34  0  0  1  0  0  0  0  0999 V2000
   29.2034  -21.3064  -15.1104 N   0  0  0  0  0  0  0  0  0  0  0  0
   28.5169  -20.3567  -14.2187 C   0  0  1  0  0  0  0  0  0  0  0  0
   27.8763  -19.3529  -15.1409 C   0  0  0  0  0  0  0  0  0  0  0  0
   28.5542  -19.1775  -16.4637 C   0  0  0  0  0  0  0  0  0  0  0  0
   28.4289  -17.7642  -16.8881 C   0  0  0  0  0  0  0  0  0  0  0  0
   27.4851  -17.4357  -17.6623 O   0  0  0  0  0  0  0  0  0  0  0  0
   27.4230  -21.0654  -13.4878 C   0  0  0  0  0  0  0  0  0  0  0  0
   26.5357  -21.6930  -14.1080 O   0  0  0  0  0  0  0  0  0  0  0  0
   29.2812  -16.7482  -16.4989 O   0  0  0  0  0  0  0  0  0  0  0  0
   27.3337  -21.0642  -12.0711 N   0  0  0  0  0  0  0  0  0  0  0  0
   26.2924  -21.7897  -11.3710 C   0  0  1  0  0  0  0  0  0  0  0  0
   26.6872  -22.0362   -9.9344 C   0  0  0  0  0  0  0  0  0  0  0  0
   26.8066  -20.7993   -9.1555 C   0  0  0  0  0  0  0  0  0  0  0  0
   26.0261  -19.6542   -9.2774 C   0  0  0  0  0  0  0  0  0  0  0  0
   26.4433  -18.7384   -8.3869 N   0  0  0  0  0  0  0  0  0  0  0  0
   27.4694  -19.2781   -7.7049 C   0  0  0  0  0  0  0  0  0  0  0  0
   28.2809  -18.8121   -6.6833 C   0  0  0  0  0  0  0  0  0  0  0  0
   29.2790  -19.6087   -6.1666 C   0  0  0  0  0  0  0  0  0  0  0  0
   29.5216  -20.8802   -6.6233 C   0  0  0  0  0  0  0  0  0  0  0  0
   28.7219  -21.3545   -7.6383 C   0  0  0  0  0  0  0  0  0  0  0  0
   27.7203  -20.5652   -8.1622 C   0  0  0  0  0  0  0  0  0  0  0  0
   25.0229  -21.0275  -11.3674 C   0  0  0  0  0  0  0  0  0  0  0  0
   25.0513  -19.7878  -11.2114 O   0  0  0  0  0  0  0  0  0  0  0  0
   23.7419  -21.6178  -11.5323 N   0  0  0  0  0  0  0  0  0  0  0  0
   22.6198  -20.8918  -11.9970 C   0  0  1  0  0  0  0  0  0  0  0  0
   22.2034  -21.4502  -13.3584 C   0  0  0  0  0  0  0  0  0  0  0  0
   21.0265  -20.6722  -13.8370 C   0  0  0  0  0  0  0  0  0  0  0  0
   20.5506  -21.0564  -15.2209 C   0  0  0  0  0  0  0  0  0  0  0  0
   19.4002  -20.1994  -15.6285 C   0  0  0  0  0  0  0  0  0  0  0  0
   19.0766  -20.4674  -17.0330 N   0  0  0  0  0  0  0  0  0  0  0  0
   21.4516  -20.8678  -11.1353 C   0  0  0  0  0  0  0  0  0  0  0  0
   21.2286  -21.6253  -10.1554 O   0  0  0  0  0  0  0  0  0  0  0  0
   20.4681  -19.9209  -11.4011 O   0  0  0  0  0  0  0  0  0  0  0  0
  2  1  1  6
  2  3  1  0
  3  4  1  0
  4  5  1  0
  5  6  2  0
  7  2  1  0
  7  8  2  0
  9  5  1  0
 10  7  1  0
 11 12  1  1
 11 10  1  0
 12 13  1  0
 13 14  2  0
 13 21  1  0
 14 15  1  0
 15 16  1  0
 16 17  2  0
 18 17  1  0
 19 18  2  0
 20 19  1  0
 21 20  2  0
 21 16  1  0
 22 11  1  0
 23 22  2  0
 24 22  1  0
 25 24  1  0
 25 26  1  6
 26 27  1  0
 27 28  1  0
 28 29  1  0
 30 29  1  0
 31 33  1  0
 31 25  1  0
 32 31  2  0
M  END
$$$$
