EWK.pdb
     RDKit          3D

 33 34  0  0  1  0  0  0  0  0999 V2000
   28.0800  -22.6223  -15.5106 N   0  0  0  0  0  0  0  0  0  0  0  0
   27.4117  -21.3712  -15.1149 C   0  0  1  0  0  0  0  0  0  0  0  0
   26.4885  -21.0460  -16.2596 C   0  0  0  0  0  0  0  0  0  0  0  0
   27.0375  -20.0885  -17.2705 C   0  0  0  0  0  0  0  0  0  0  0  0
   26.9940  -18.7175  -16.7122 C   0  0  0  0  0  0  0  0  0  0  0  0
   28.0796  -18.1095  -16.4887 O   0  0  0  0  0  0  0  0  0  0  0  0
   26.5679  -21.6207  -13.9071 C   0  0  0  0  0  0  0  0  0  0  0  0
   26.0083  -22.7258  -13.7299 O   0  0  0  0  0  0  0  0  0  0  0  0
   25.8349  -18.0300  -16.4059 O   0  0  0  0  0  0  0  0  0  0  0  0
   26.3592  -20.6313  -12.9109 N   0  0  0  0  0  0  0  0  0  0  0  0
   25.4947  -20.8654  -11.7713 C   0  0  1  0  0  0  0  0  0  0  0  0
   25.9176  -20.0152  -10.5971 C   0  0  0  0  0  0  0  0  0  0  0  0
   27.2091  -20.4223  -10.0341 C   0  0  0  0  0  0  0  0  0  0  0  0
   28.1989  -21.1701  -10.6637 C   0  0  0  0  0  0  0  0  0  0  0  0
   29.2329  -21.3328   -9.8211 N   0  0  0  0  0  0  0  0  0  0  0  0
   28.9197  -20.7051   -8.6733 C   0  0  0  0  0  0  0  0  0  0  0  0
   29.5854  -20.5374   -7.4700 C   0  0  0  0  0  0  0  0  0  0  0  0
   29.0029  -19.8268   -6.4435 C   0  0  0  0  0  0  0  0  0  0  0  0
   27.7586  -19.2574   -6.5511 C   0  0  0  0  0  0  0  0  0  0  0  0
   27.0871  -19.4172   -7.7421 C   0  0  0  0  0  0  0  0  0  0  0  0
   27.6614  -20.1264   -8.7754 C   0  0  0  0  0  0  0  0  0  0  0  0
   24.0888  -20.5282  -12.0916 C   0  0  0  0  0  0  0  0  0  0  0  0
   23.7301  -19.3310  -12.0960 O   0  0  0  0  0  0  0  0  0  0  0  0
   23.0923  -21.4910  -12.4020 N   0  0  0  0  0  0  0  0  0  0  0  0
   21.7624  -21.1362  -12.7301 C   0  0  1  0  0  0  0  0  0  0  0  0
   21.0095  -22.3967  -13.1581 C   0  0  0  0  0  0  0  0  0  0  0  0
   19.6786  -21.9837  -13.6853 C   0  0  0  0  0  0  0  0  0  0  0  0
   18.8434  -23.1252  -14.2225 C   0  0  0  0  0  0  0  0  0  0  0  0
   17.5905  -22.6029  -14.8402 C   0  0  0  0  0  0  0  0  0  0  0  0
   16.8238  -23.7244  -15.3910 N   0  0  0  0  0  0  0  0  0  0  0  0
   20.9886  -20.4685  -11.6990 C   0  0  0  0  0  0  0  0  0  0  0  0
   20.2783  -19.4399  -11.8444 O   0  0  0  0  0  0  0  0  0  0  0  0
   21.0210  -21.0019  -10.4149 O   0  0  0  0  0  0  0  0  0  0  0  0
  2  1  1  6
  2  3  1  0
  3  4  1  0
  4  5  1  0
  5  6  2  0
  7  2  1  0
  7  8  2  0
  9  5  1  0
 10  7  1  0
 11 12  1  1
 11 10  1  0
 12 13  1  0
 13 14  2  0
 13 21  1  0
 14 15  1  0
 15 16  1  0
 16 17  2  0
 18 17  1  0
 19 18  2  0
 20 19  1  0
 21 20  2  0
 21 16  1  0
 22 11  1  0
 23 22  2  0
 24 22  1  0
 25 24  1  0
 25 26  1  1
 26 27  1  0
 27 28  1  0
 28 29  1  0
 30 29  1  0
 31 33  1  0
 31 25  1  0
 32 31  2  0
M  END
$$$$
