EWK.pdb
     RDKit          3D

 33 34  0  0  1  0  0  0  0  0999 V2000
   28.0452  -22.0684  -15.1371 N   0  0  0  0  0  0  0  0  0  0  0  0
   27.9422  -20.7971  -14.4012 C   0  0  1  0  0  0  0  0  0  0  0  0
   27.1438  -19.8915  -15.3017 C   0  0  0  0  0  0  0  0  0  0  0  0
   27.8995  -19.3112  -16.4560 C   0  0  0  0  0  0  0  0  0  0  0  0
   27.7276  -20.1879  -17.6370 C   0  0  0  0  0  0  0  0  0  0  0  0
   26.5670  -20.3703  -18.1040 O   0  0  0  0  0  0  0  0  0  0  0  0
   27.1494  -21.0103  -13.1525 C   0  0  0  0  0  0  0  0  0  0  0  0
   26.1361  -21.7445  -13.1507 O   0  0  0  0  0  0  0  0  0  0  0  0
   28.7572  -20.8414  -18.2874 O   0  0  0  0  0  0  0  0  0  0  0  0
   27.4988  -20.3999  -11.9195 N   0  0  0  0  0  0  0  0  0  0  0  0
   26.7103  -20.5968  -10.7194 C   0  0  1  0  0  0  0  0  0  0  0  0
   27.2571  -19.7701   -9.5801 C   0  0  0  0  0  0  0  0  0  0  0  0
   26.6660  -20.1224   -8.2849 C   0  0  0  0  0  0  0  0  0  0  0  0
   25.4454  -20.7525   -8.0650 C   0  0  0  0  0  0  0  0  0  0  0  0
   25.2577  -20.9026   -6.7429 N   0  0  0  0  0  0  0  0  0  0  0  0
   26.3314  -20.3820   -6.1220 C   0  0  0  0  0  0  0  0  0  0  0  0
   26.6896  -20.2549   -4.7898 C   0  0  0  0  0  0  0  0  0  0  0  0
   27.8833  -19.6619   -4.4417 C   0  0  0  0  0  0  0  0  0  0  0  0
   28.7661  -19.1742   -5.3728 C   0  0  0  0  0  0  0  0  0  0  0  0
   28.4214  -19.2947   -6.7000 C   0  0  0  0  0  0  0  0  0  0  0  0
   27.2291  -19.8866   -7.0587 C   0  0  0  0  0  0  0  0  0  0  0  0
   25.3019  -20.1942  -10.9359 C   0  0  0  0  0  0  0  0  0  0  0  0
   25.0267  -18.9861  -11.1003 O   0  0  0  0  0  0  0  0  0  0  0  0
   24.2124  -21.1043  -10.9711 N   0  0  0  0  0  0  0  0  0  0  0  0
   22.8779  -20.6908  -11.1954 C   0  0  1  0  0  0  0  0  0  0  0  0
   22.2393  -21.6287  -12.2207 C   0  0  0  0  0  0  0  0  0  0  0  0
   22.2068  -20.9252  -13.5336 C   0  0  0  0  0  0  0  0  0  0  0  0
   21.4886  -21.6858  -14.6268 C   0  0  0  0  0  0  0  0  0  0  0  0
   21.4677  -20.8858  -15.8852 C   0  0  0  0  0  0  0  0  0  0  0  0
   20.8921  -21.6989  -16.9607 N   0  0  0  0  0  0  0  0  0  0  0  0
   22.0089  -20.6216  -10.0344 C   0  0  0  0  0  0  0  0  0  0  0  0
   20.9744  -19.9152   -9.9149 O   0  0  0  0  0  0  0  0  0  0  0  0
   22.3335  -21.4062   -8.9328 O   0  0  0  0  0  0  0  0  0  0  0  0
  2  1  1  6
  2  3  1  0
  3  4  1  0
  4  5  1  0
  5  6  2  0
  7  2  1  0
  7  8  2  0
  9  5  1  0
 10  7  1  0
 11 12  1  1
 11 10  1  0
 12 13  1  0
 13 14  2  0
 13 21  1  0
 14 15  1  0
 15 16  1  0
 16 17  2  0
 18 17  1  0
 19 18  2  0
 20 19  1  0
 21 20  2  0
 21 16  1  0
 22 11  1  0
 23 22  2  0
 24 22  1  0
 25 24  1  0
 25 26  1  6
 26 27  1  0
 27 28  1  0
 28 29  1  0
 30 29  1  0
 31 33  1  0
 31 25  1  0
 32 31  2  0
M  END
$$$$
