EWK.pdb
     RDKit          3D

 33 34  0  0  1  0  0  0  0  0999 V2000
   29.4675  -21.3365  -14.6913 N   0  0  0  0  0  0  0  0  0  0  0  0
   28.0717  -20.8728  -14.7621 C   0  0  1  0  0  0  0  0  0  0  0  0
   27.4402  -21.7080  -15.8447 C   0  0  0  0  0  0  0  0  0  0  0  0
   27.9840  -21.4863  -17.2213 C   0  0  0  0  0  0  0  0  0  0  0  0
   27.9673  -20.0360  -17.5205 C   0  0  0  0  0  0  0  0  0  0  0  0
   26.9438  -19.3575  -17.2197 O   0  0  0  0  0  0  0  0  0  0  0  0
   27.3776  -21.1927  -13.4779 C   0  0  0  0  0  0  0  0  0  0  0  0
   26.4930  -22.0763  -13.4270 O   0  0  0  0  0  0  0  0  0  0  0  0
   29.0042  -19.3446  -18.1180 O   0  0  0  0  0  0  0  0  0  0  0  0
   27.6805  -20.5206  -12.2649 N   0  0  0  0  0  0  0  0  0  0  0  0
   26.9885  -20.8270  -11.0287 C   0  0  1  0  0  0  0  0  0  0  0  0
   27.5662  -20.0314   -9.8825 C   0  0  0  0  0  0  0  0  0  0  0  0
   26.8439  -20.2389   -8.6231 C   0  0  0  0  0  0  0  0  0  0  0  0
   25.5299  -20.6703   -8.4725 C   0  0  0  0  0  0  0  0  0  0  0  0
   25.2343  -20.7372   -7.1633 N   0  0  0  0  0  0  0  0  0  0  0  0
   26.3309  -20.3581   -6.4829 C   0  0  0  0  0  0  0  0  0  0  0  0
   26.6150  -20.2322   -5.1328 C   0  0  0  0  0  0  0  0  0  0  0  0
   27.8592  -19.8106   -4.7180 C   0  0  0  0  0  0  0  0  0  0  0  0
   28.8656  -19.4982   -5.5975 C   0  0  0  0  0  0  0  0  0  0  0  0
   28.5954  -19.6194   -6.9418 C   0  0  0  0  0  0  0  0  0  0  0  0
   27.3536  -20.0405   -7.3672 C   0  0  0  0  0  0  0  0  0  0  0  0
   25.5485  -20.4966  -11.1289 C   0  0  0  0  0  0  0  0  0  0  0  0
   25.1935  -19.2985  -11.1536 O   0  0  0  0  0  0  0  0  0  0  0  0
   24.5144  -21.4671  -11.2005 N   0  0  0  0  0  0  0  0  0  0  0  0
   23.1695  -21.1316  -11.4849 C   0  0  1  0  0  0  0  0  0  0  0  0
   22.4841  -22.3440  -12.1164 C   0  0  0  0  0  0  0  0  0  0  0  0
   21.2559  -21.8698  -12.8137 C   0  0  0  0  0  0  0  0  0  0  0  0
   21.4604  -21.5445  -14.2771 C   0  0  0  0  0  0  0  0  0  0  0  0
   20.1902  -21.0450  -14.8781 C   0  0  0  0  0  0  0  0  0  0  0  0
   19.1994  -22.1255  -14.8718 N   0  0  0  0  0  0  0  0  0  0  0  0
   22.3578  -20.6753  -10.3710 C   0  0  0  0  0  0  0  0  0  0  0  0
   22.3916  -21.1131   -9.1917 O   0  0  0  0  0  0  0  0  0  0  0  0
   21.4450  -19.6531  -10.6086 O   0  0  0  0  0  0  0  0  0  0  0  0
  2  1  1  1
  2  3  1  0
  3  4  1  0
  4  5  1  0
  5  6  2  0
  7  2  1  0
  7  8  2  0
  9  5  1  0
 10  7  1  0
 11 12  1  1
 11 10  1  0
 12 13  1  0
 13 14  2  0
 13 21  1  0
 14 15  1  0
 15 16  1  0
 16 17  2  0
 18 17  1  0
 19 18  2  0
 20 19  1  0
 21 20  2  0
 21 16  1  0
 22 11  1  0
 23 22  2  0
 24 22  1  0
 25 24  1  0
 25 26  1  1
 26 27  1  0
 27 28  1  0
 28 29  1  0
 30 29  1  0
 31 33  1  0
 31 25  1  0
 32 31  2  0
M  END
$$$$
