EWK.pdb
     RDKit          3D

 33 34  0  0  1  0  0  0  0  0999 V2000
   28.5743  -21.0483  -14.9602 N   0  0  0  0  0  0  0  0  0  0  0  0
   27.9712  -20.0628  -14.0473 C   0  0  1  0  0  0  0  0  0  0  0  0
   27.3460  -19.0310  -14.9490 C   0  0  0  0  0  0  0  0  0  0  0  0
   28.3121  -18.1467  -15.6735 C   0  0  0  0  0  0  0  0  0  0  0  0
   28.3700  -18.5558  -17.0956 C   0  0  0  0  0  0  0  0  0  0  0  0
   27.3200  -18.4935  -17.7969 O   0  0  0  0  0  0  0  0  0  0  0  0
   26.8726  -20.7137  -13.2711 C   0  0  0  0  0  0  0  0  0  0  0  0
   26.2321  -21.6778  -13.7466 O   0  0  0  0  0  0  0  0  0  0  0  0
   29.5059  -19.0132  -17.7363 O   0  0  0  0  0  0  0  0  0  0  0  0
   26.5024  -20.2789  -11.9715 N   0  0  0  0  0  0  0  0  0  0  0  0
   25.4756  -20.9549  -11.2037 C   0  0  1  0  0  0  0  0  0  0  0  0
   25.6138  -20.6392   -9.7335 C   0  0  0  0  0  0  0  0  0  0  0  0
   26.9660  -20.8858   -9.2219 C   0  0  0  0  0  0  0  0  0  0  0  0
   27.9844  -21.5925   -9.8534 C   0  0  0  0  0  0  0  0  0  0  0  0
   29.0733  -21.5966   -9.0659 N   0  0  0  0  0  0  0  0  0  0  0  0
   28.7667  -20.9088   -7.9513 C   0  0  0  0  0  0  0  0  0  0  0  0
   29.4787  -20.5880   -6.8069 C   0  0  0  0  0  0  0  0  0  0  0  0
   28.8902  -19.8512   -5.8026 C   0  0  0  0  0  0  0  0  0  0  0  0
   27.5950  -19.4028   -5.8760 C   0  0  0  0  0  0  0  0  0  0  0  0
   26.8772  -19.7152   -7.0083 C   0  0  0  0  0  0  0  0  0  0  0  0
   27.4570  -20.4520   -8.0189 C   0  0  0  0  0  0  0  0  0  0  0  0
   24.1236  -20.5301  -11.6330 C   0  0  0  0  0  0  0  0  0  0  0  0
   23.8030  -19.3250  -11.5493 O   0  0  0  0  0  0  0  0  0  0  0  0
   23.1387  -21.4152  -12.1459 N   0  0  0  0  0  0  0  0  0  0  0  0
   21.8798  -20.9698  -12.6136 C   0  0  1  0  0  0  0  0  0  0  0  0
   21.5125  -21.7649  -13.8672 C   0  0  0  0  0  0  0  0  0  0  0  0
   21.1812  -23.1567  -13.4514 C   0  0  0  0  0  0  0  0  0  0  0  0
   20.8964  -24.0963  -14.6026 C   0  0  0  0  0  0  0  0  0  0  0  0
   20.4900  -25.4359  -14.0882 C   0  0  0  0  0  0  0  0  0  0  0  0
   20.0993  -26.2848  -15.2176 N   0  0  0  0  0  0  0  0  0  0  0  0
   20.7694  -21.0460  -11.6813 C   0  0  0  0  0  0  0  0  0  0  0  0
   20.7309  -21.7155  -10.6165 O   0  0  0  0  0  0  0  0  0  0  0  0
   19.6238  -20.3139  -11.9748 O   0  0  0  0  0  0  0  0  0  0  0  0
  2  1  1  6
  2  3  1  0
  3  4  1  0
  4  5  1  0
  5  6  2  0
  7  2  1  0
  7  8  2  0
  9  5  1  0
 10  7  1  0
 11 12  1  1
 11 10  1  0
 12 13  1  0
 13 14  2  0
 13 21  1  0
 14 15  1  0
 15 16  1  0
 16 17  2  0
 18 17  1  0
 19 18  2  0
 20 19  1  0
 21 20  2  0
 21 16  1  0
 22 11  1  0
 23 22  2  0
 24 22  1  0
 25 24  1  0
 25 26  1  6
 26 27  1  0
 27 28  1  0
 28 29  1  0
 30 29  1  0
 31 33  1  0
 31 25  1  0
 32 31  2  0
M  END
$$$$
