EWK.pdb
     RDKit          3D

 33 34  0  0  1  0  0  0  0  0999 V2000
   27.4000  -22.1400  -15.2107 N   0  0  0  0  0  0  0  0  0  0  0  0
   27.8829  -21.1378  -14.2461 C   0  0  1  0  0  0  0  0  0  0  0  0
   27.4256  -19.8142  -14.8005 C   0  0  0  0  0  0  0  0  0  0  0  0
   26.3891  -19.8968  -15.8771 C   0  0  0  0  0  0  0  0  0  0  0  0
   26.7112  -18.9124  -16.9356 C   0  0  0  0  0  0  0  0  0  0  0  0
   27.7996  -19.0240  -17.5690 O   0  0  0  0  0  0  0  0  0  0  0  0
   27.1973  -21.3423  -12.9341 C   0  0  0  0  0  0  0  0  0  0  0  0
   26.0824  -21.9070  -12.8714 O   0  0  0  0  0  0  0  0  0  0  0  0
   25.9003  -17.8533  -17.2971 O   0  0  0  0  0  0  0  0  0  0  0  0
   27.7664  -20.9128  -11.7066 N   0  0  0  0  0  0  0  0  0  0  0  0
   27.0462  -21.0171  -10.4531 C   0  0  1  0  0  0  0  0  0  0  0  0
   27.8838  -20.4928   -9.3112 C   0  0  0  0  0  0  0  0  0  0  0  0
   27.1799  -20.5269   -8.0250 C   0  0  0  0  0  0  0  0  0  0  0  0
   25.8931  -20.9988   -7.7868 C   0  0  0  0  0  0  0  0  0  0  0  0
   25.6075  -20.8628   -6.4808 N   0  0  0  0  0  0  0  0  0  0  0  0
   26.6840  -20.3159   -5.8879 C   0  0  0  0  0  0  0  0  0  0  0  0
   26.9664  -19.9514   -4.5815 C   0  0  0  0  0  0  0  0  0  0  0  0
   28.1866  -19.3988   -4.2596 C   0  0  0  0  0  0  0  0  0  0  0  0
   29.1699  -19.1825   -5.1926 C   0  0  0  0  0  0  0  0  0  0  0  0
   28.9011  -19.5406   -6.4943 C   0  0  0  0  0  0  0  0  0  0  0  0
   27.6832  -20.0943   -6.8267 C   0  0  0  0  0  0  0  0  0  0  0  0
   25.7919  -20.2310  -10.4929 C   0  0  0  0  0  0  0  0  0  0  0  0
   25.8486  -18.9826  -10.4733 O   0  0  0  0  0  0  0  0  0  0  0  0
   24.4954  -20.8071  -10.5531 N   0  0  0  0  0  0  0  0  0  0  0  0
   23.4007  -20.1626  -11.1763 C   0  0  1  0  0  0  0  0  0  0  0  0
   23.7078  -20.0039  -12.6660 C   0  0  0  0  0  0  0  0  0  0  0  0
   22.6417  -19.1566  -13.2702 C   0  0  0  0  0  0  0  0  0  0  0  0
   22.7696  -18.9728  -14.7666 C   0  0  0  0  0  0  0  0  0  0  0  0
   21.6867  -18.0808  -15.2723 C   0  0  0  0  0  0  0  0  0  0  0  0
   21.7259  -18.0624  -16.7376 N   0  0  0  0  0  0  0  0  0  0  0  0
   22.1023  -20.7981  -11.0417 C   0  0  0  0  0  0  0  0  0  0  0  0
   20.9993  -20.2177  -10.8685 O   0  0  0  0  0  0  0  0  0  0  0  0
   22.0490  -22.1864  -11.1077 O   0  0  0  0  0  0  0  0  0  0  0  0
  2  1  1  6
  2  3  1  0
  3  4  1  0
  4  5  1  0
  5  6  2  0
  7  2  1  0
  7  8  2  0
  9  5  1  0
 10  7  1  0
 11 12  1  1
 11 10  1  0
 12 13  1  0
 13 14  2  0
 13 21  1  0
 14 15  1  0
 15 16  1  0
 16 17  2  0
 18 17  1  0
 19 18  2  0
 20 19  1  0
 21 20  2  0
 21 16  1  0
 22 11  1  0
 23 22  2  0
 24 22  1  0
 25 24  1  0
 25 26  1  6
 26 27  1  0
 27 28  1  0
 28 29  1  0
 30 29  1  0
 31 33  1  0
 31 25  1  0
 32 31  2  0
M  END
$$$$
