EWK.pdb
     RDKit          3D

 33 34  0  0  1  0  0  0  0  0999 V2000
   28.6528  -21.4354  -15.3658 N   0  0  0  0  0  0  0  0  0  0  0  0
   27.6097  -20.4751  -14.9682 C   0  0  1  0  0  0  0  0  0  0  0  0
   26.8083  -20.2328  -16.2203 C   0  0  0  0  0  0  0  0  0  0  0  0
   27.5063  -19.4417  -17.2820 C   0  0  0  0  0  0  0  0  0  0  0  0
   27.6691  -18.0452  -16.8168 C   0  0  0  0  0  0  0  0  0  0  0  0
   28.8306  -17.6092  -16.5737 O   0  0  0  0  0  0  0  0  0  0  0  0
   26.7043  -21.1138  -13.9656 C   0  0  0  0  0  0  0  0  0  0  0  0
   26.3021  -22.2889  -14.1178 O   0  0  0  0  0  0  0  0  0  0  0  0
   26.6295  -17.1561  -16.6200 O   0  0  0  0  0  0  0  0  0  0  0  0
   26.2587  -20.4311  -12.8035 N   0  0  0  0  0  0  0  0  0  0  0  0
   25.3808  -21.0607  -11.8373 C   0  0  1  0  0  0  0  0  0  0  0  0
   25.5818  -20.4635  -10.4650 C   0  0  0  0  0  0  0  0  0  0  0  0
   26.8754  -20.8185   -9.8723 C   0  0  0  0  0  0  0  0  0  0  0  0
   27.9403  -21.4528  -10.5042 C   0  0  0  0  0  0  0  0  0  0  0  0
   28.9487  -21.6010   -9.6285 N   0  0  0  0  0  0  0  0  0  0  0  0
   28.5459  -21.0752   -8.4577 C   0  0  0  0  0  0  0  0  0  0  0  0
   29.1493  -20.9440   -7.2175 C   0  0  0  0  0  0  0  0  0  0  0  0
   28.4771  -20.3459   -6.1743 C   0  0  0  0  0  0  0  0  0  0  0  0
   27.2008  -19.8568   -6.3003 C   0  0  0  0  0  0  0  0  0  0  0  0
   26.5906  -19.9813   -7.5280 C   0  0  0  0  0  0  0  0  0  0  0  0
   27.2547  -20.5782   -8.5782 C   0  0  0  0  0  0  0  0  0  0  0  0
   23.9595  -20.8743  -12.2087 C   0  0  0  0  0  0  0  0  0  0  0  0
   23.4984  -19.7172  -12.3117 O   0  0  0  0  0  0  0  0  0  0  0  0
   23.0586  -21.9421  -12.4628 N   0  0  0  0  0  0  0  0  0  0  0  0
   21.7073  -21.7320  -12.8263 C   0  0  1  0  0  0  0  0  0  0  0  0
   21.1187  -23.0565  -13.3142 C   0  0  0  0  0  0  0  0  0  0  0  0
   19.7203  -22.8040  -13.7618 C   0  0  0  0  0  0  0  0  0  0  0  0
   18.9685  -24.0492  -14.1783 C   0  0  0  0  0  0  0  0  0  0  0  0
   17.5865  -23.6971  -14.6143 C   0  0  0  0  0  0  0  0  0  0  0  0
   16.9215  -24.9020  -15.1194 N   0  0  0  0  0  0  0  0  0  0  0  0
   20.8301  -21.1899  -11.8043 C   0  0  0  0  0  0  0  0  0  0  0  0
   20.9202  -21.3788  -10.5635 O   0  0  0  0  0  0  0  0  0  0  0  0
   19.7783  -20.3780  -12.2156 O   0  0  0  0  0  0  0  0  0  0  0  0
  2  1  1  6
  2  3  1  0
  3  4  1  0
  4  5  1  0
  5  6  2  0
  7  2  1  0
  7  8  2  0
  9  5  1  0
 10  7  1  0
 11 12  1  1
 11 10  1  0
 12 13  1  0
 13 14  2  0
 13 21  1  0
 14 15  1  0
 15 16  1  0
 16 17  2  0
 18 17  1  0
 19 18  2  0
 20 19  1  0
 21 20  2  0
 21 16  1  0
 22 11  1  0
 23 22  2  0
 24 22  1  0
 25 24  1  0
 25 26  1  1
 26 27  1  0
 27 28  1  0
 28 29  1  0
 30 29  1  0
 31 33  1  0
 31 25  1  0
 32 31  2  0
M  END
$$$$
