EWK.pdb
     RDKit          3D

 33 34  0  0  1  0  0  0  0  0999 V2000
   25.7432  -21.4326  -15.3484 N   0  0  0  0  0  0  0  0  0  0  0  0
   26.0785  -20.8532  -14.0369 C   0  0  1  0  0  0  0  0  0  0  0  0
   27.5688  -21.0277  -13.9055 C   0  0  0  0  0  0  0  0  0  0  0  0
   28.1102  -22.3168  -14.4396 C   0  0  0  0  0  0  0  0  0  0  0  0
   28.4453  -22.1446  -15.8718 C   0  0  0  0  0  0  0  0  0  0  0  0
   28.2237  -21.0301  -16.4259 O   0  0  0  0  0  0  0  0  0  0  0  0
   25.7925  -19.3866  -14.0554 C   0  0  0  0  0  0  0  0  0  0  0  0
   25.7221  -18.7309  -12.9919 O   0  0  0  0  0  0  0  0  0  0  0  0
   28.9935  -23.1272  -16.6744 O   0  0  0  0  0  0  0  0  0  0  0  0
   25.5882  -18.6695  -15.2633 N   0  0  0  0  0  0  0  0  0  0  0  0
   25.1415  -17.2906  -15.2667 C   0  0  1  0  0  0  0  0  0  0  0  0
   26.0956  -16.4225  -16.0518 C   0  0  0  0  0  0  0  0  0  0  0  0
   25.5987  -15.0557  -16.2413 C   0  0  0  0  0  0  0  0  0  0  0  0
   25.2275  -14.1544  -15.2487 C   0  0  0  0  0  0  0  0  0  0  0  0
   24.8282  -13.0063  -15.8215 N   0  0  0  0  0  0  0  0  0  0  0  0
   24.9384  -13.1610  -17.1532 C   0  0  0  0  0  0  0  0  0  0  0  0
   24.6764  -12.3308  -18.2309 C   0  0  0  0  0  0  0  0  0  0  0  0
   24.8898  -12.7710  -19.5188 C   0  0  0  0  0  0  0  0  0  0  0  0
   25.3633  -14.0279  -19.8019 C   0  0  0  0  0  0  0  0  0  0  0  0
   25.6275  -14.8621  -18.7393 C   0  0  0  0  0  0  0  0  0  0  0  0
   25.4173  -14.4311  -17.4468 C   0  0  0  0  0  0  0  0  0  0  0  0
   23.8022  -17.1666  -15.8859 C   0  0  0  0  0  0  0  0  0  0  0  0
   23.4590  -17.9758  -16.7745 O   0  0  0  0  0  0  0  0  0  0  0  0
   22.8544  -16.1690  -15.5349 N   0  0  0  0  0  0  0  0  0  0  0  0
   21.5902  -16.0616  -16.1613 C   0  0  1  0  0  0  0  0  0  0  0  0
   20.8308  -14.8905  -15.5364 C   0  0  0  0  0  0  0  0  0  0  0  0
   19.4553  -14.8734  -16.1085 C   0  0  0  0  0  0  0  0  0  0  0  0
   18.5747  -13.7658  -15.5725 C   0  0  0  0  0  0  0  0  0  0  0  0
   17.2379  -13.8030  -16.2325 C   0  0  0  0  0  0  0  0  0  0  0  0
   16.2380  -14.2639  -15.2646 N   0  0  0  0  0  0  0  0  0  0  0  0
   21.5850  -15.8935  -17.6033 C   0  0  0  0  0  0  0  0  0  0  0  0
   22.2816  -15.0805  -18.2646 O   0  0  0  0  0  0  0  0  0  0  0  0
   20.7323  -16.7015  -18.3481 O   0  0  0  0  0  0  0  0  0  0  0  0
  2  1  1  6
  2  3  1  0
  3  4  1  0
  4  5  1  0
  5  6  2  0
  7  2  1  0
  7  8  2  0
  9  5  1  0
 10  7  1  0
 11 12  1  6
 11 10  1  0
 12 13  1  0
 13 14  2  0
 13 21  1  0
 14 15  1  0
 15 16  1  0
 16 17  2  0
 18 17  1  0
 19 18  2  0
 20 19  1  0
 21 20  2  0
 21 16  1  0
 22 11  1  0
 23 22  2  0
 24 22  1  0
 25 24  1  0
 25 26  1  1
 26 27  1  0
 27 28  1  0
 28 29  1  0
 30 29  1  0
 31 33  1  0
 31 25  1  0
 32 31  2  0
M  END
$$$$
