EWK.pdb
     RDKit          3D

 33 34  0  0  1  0  0  0  0  0999 V2000
   26.7074  -23.7688  -16.2437 N   0  0  0  0  0  0  0  0  0  0  0  0
   27.0418  -22.4596  -15.6585 C   0  0  1  0  0  0  0  0  0  0  0  0
   26.4007  -21.4504  -16.5745 C   0  0  0  0  0  0  0  0  0  0  0  0
   27.1024  -21.2357  -17.8790 C   0  0  0  0  0  0  0  0  0  0  0  0
   28.3556  -20.4848  -17.6366 C   0  0  0  0  0  0  0  0  0  0  0  0
   28.2890  -19.3059  -17.1850 O   0  0  0  0  0  0  0  0  0  0  0  0
   26.3917  -22.3350  -14.3187 C   0  0  0  0  0  0  0  0  0  0  0  0
   25.2406  -22.7826  -14.1176 O   0  0  0  0  0  0  0  0  0  0  0  0
   29.6253  -20.9782  -17.8705 O   0  0  0  0  0  0  0  0  0  0  0  0
   27.0363  -21.7111  -13.2187 N   0  0  0  0  0  0  0  0  0  0  0  0
   26.3932  -21.5892  -11.9255 C   0  0  1  0  0  0  0  0  0  0  0  0
   27.3872  -21.1580  -10.8736 C   0  0  0  0  0  0  0  0  0  0  0  0
   26.7474  -20.7359   -9.6233 C   0  0  0  0  0  0  0  0  0  0  0  0
   25.4003  -20.4494   -9.4270 C   0  0  0  0  0  0  0  0  0  0  0  0
   25.2054  -20.0998   -8.1442 N   0  0  0  0  0  0  0  0  0  0  0  0
   26.3982  -20.1586   -7.5251 C   0  0  0  0  0  0  0  0  0  0  0  0
   26.8068  -19.9114   -6.2246 C   0  0  0  0  0  0  0  0  0  0  0  0
   28.1297  -20.0579   -5.8691 C   0  0  0  0  0  0  0  0  0  0  0  0
   29.0966  -20.4482   -6.7617 C   0  0  0  0  0  0  0  0  0  0  0  0
   28.7029  -20.6968   -8.0571 C   0  0  0  0  0  0  0  0  0  0  0  0
   27.3816  -20.5531   -8.4229 C   0  0  0  0  0  0  0  0  0  0  0  0
   25.3084  -20.5819  -11.9635 C   0  0  0  0  0  0  0  0  0  0  0  0
   25.5618  -19.4206  -12.3500 O   0  0  0  0  0  0  0  0  0  0  0  0
   23.9662  -20.8458  -11.5825 N   0  0  0  0  0  0  0  0  0  0  0  0
   22.8742  -20.0747  -12.0463 C   0  0  1  0  0  0  0  0  0  0  0  0
   22.7956  -20.2010  -13.5684 C   0  0  0  0  0  0  0  0  0  0  0  0
   21.6470  -19.3786  -14.0418 C   0  0  0  0  0  0  0  0  0  0  0  0
   21.4510  -19.3932  -15.5421 C   0  0  0  0  0  0  0  0  0  0  0  0
   20.3306  -18.4869  -15.9259 C   0  0  0  0  0  0  0  0  0  0  0  0
   20.1014  -18.5929  -17.3699 N   0  0  0  0  0  0  0  0  0  0  0  0
   21.5688  -20.3870  -11.4929 C   0  0  0  0  0  0  0  0  0  0  0  0
   20.5112  -19.7234  -11.6496 O   0  0  0  0  0  0  0  0  0  0  0  0
   21.4528  -21.5294  -10.7080 O   0  0  0  0  0  0  0  0  0  0  0  0
  2  1  1  6
  2  3  1  0
  3  4  1  0
  4  5  1  0
  5  6  2  0
  7  2  1  0
  7  8  2  0
  9  5  1  0
 10  7  1  0
 11 12  1  1
 11 10  1  0
 12 13  1  0
 13 14  2  0
 13 21  1  0
 14 15  1  0
 15 16  1  0
 16 17  2  0
 18 17  1  0
 19 18  2  0
 20 19  1  0
 21 20  2  0
 21 16  1  0
 22 11  1  0
 23 22  2  0
 24 22  1  0
 25 24  1  0
 25 26  1  6
 26 27  1  0
 27 28  1  0
 28 29  1  0
 30 29  1  0
 31 33  1  0
 31 25  1  0
 32 31  2  0
M  END
$$$$
