VKL.pdb
     RDKit          3D

 25 24  0  0  1  0  0  0  0  0999 V2000
    8.3740  -12.7210   20.9062 C   0  0  0  0  0  0  0  0  0  0  0  0
    7.7426  -13.3092   19.6818 C   0  0  1  0  0  0  0  0  0  0  0  0
    8.1151  -12.4515   18.5015 C   0  0  0  0  0  0  0  0  0  0  0  0
    8.2232  -14.7342   19.5221 C   0  0  2  0  0  0  0  0  0  0  0  0
    7.6252  -15.3162   18.3463 N   0  0  0  0  0  0  0  0  0  0  0  0
    7.9182  -15.5703   20.7019 C   0  0  0  0  0  0  0  0  0  0  0  0
    6.7620  -15.9716   20.9271 O   0  0  0  0  0  0  0  0  0  0  0  0
    8.9554  -15.9157   21.5820 N   0  0  0  0  0  0  0  0  0  0  0  0
    8.8313  -16.7749   22.7418 C   0  0  1  0  0  0  0  0  0  0  0  0
    9.8019  -17.8925   22.5828 C   0  0  0  0  0  0  0  0  0  0  0  0
    9.6725  -18.8626   23.7187 C   0  0  0  0  0  0  0  0  0  0  0  0
   10.6608  -19.9788   23.6190 C   0  0  0  0  0  0  0  0  0  0  0  0
   10.3976  -21.0465   24.6866 C   0  0  0  0  0  0  0  0  0  0  0  0
   11.3428  -22.1053   24.5008 N   0  0  0  0  0  0  0  0  0  0  0  0
    9.1318  -15.9416   23.9466 C   0  0  0  0  0  0  0  0  0  0  0  0
   10.1664  -15.2410   23.9458 O   0  0  0  0  0  0  0  0  0  0  0  0
    7.9491  -11.9153   25.6536 C   0  0  0  0  0  0  0  0  0  0  0  0
    7.0815  -13.1019   25.8196 C   0  0  2  0  0  0  0  0  0  0  0  0
    5.7240  -12.5803   26.3620 C   0  0  0  0  0  0  0  0  0  0  0  0
    7.5256  -14.2378   26.6306 C   0  0  0  0  0  0  0  0  0  0  0  0
    8.6940  -15.0617   26.2635 C   0  0  2  0  0  0  0  0  0  0  0  0
    8.3155  -15.9028   25.0791 N   0  0  0  0  0  0  0  0  0  0  0  0
    9.1347  -16.0394   27.2626 C   0  0  0  0  0  0  0  0  0  0  0  0
    8.8050  -17.2707   27.2772 O   0  0  0  0  0  0  0  0  0  0  0  0
    9.9941  -15.6539   28.3201 O   0  0  0  0  0  0  0  0  0  0  0  0
  2  1  1  1
  2  4  1  0
  3  2  1  0
  4  5  1  6
  4  6  1  0
  6  8  1  0
  6  7  2  0
  8  9  1  0
  9 10  1  6
 11 10  1  0
 12 11  1  0
 12 13  1  0
 13 14  1  0
 15  9  1  0
 15 22  1  0
 16 15  2  0
 18 17  1  1
 18 20  1  0
 19 18  1  0
 21 20  1  1
 21 22  1  0
 21 23  1  0
 23 25  1  0
 24 23  2  0
M  END
$$$$
