VKL.pdb
     RDKit          3D

 25 24  0  0  1  0  0  0  0  0999 V2000
    8.4278  -12.5766   20.9417 C   0  0  0  0  0  0  0  0  0  0  0  0
    7.8005  -13.1889   19.7270 C   0  0  1  0  0  0  0  0  0  0  0  0
    8.0970  -12.3025   18.5464 C   0  0  0  0  0  0  0  0  0  0  0  0
    8.3547  -14.5839   19.5428 C   0  0  2  0  0  0  0  0  0  0  0  0
    7.8011  -15.1689   18.3470 N   0  0  0  0  0  0  0  0  0  0  0  0
    8.0784  -15.4604   20.7001 C   0  0  0  0  0  0  0  0  0  0  0  0
    6.9483  -15.9472   20.8858 O   0  0  0  0  0  0  0  0  0  0  0  0
    9.1132  -15.7463   21.6041 N   0  0  0  0  0  0  0  0  0  0  0  0
    9.0232  -16.6426   22.7387 C   0  0  1  0  0  0  0  0  0  0  0  0
   10.0200  -17.7298   22.5364 C   0  0  0  0  0  0  0  0  0  0  0  0
    9.4363  -18.8236   21.6932 C   0  0  0  0  0  0  0  0  0  0  0  0
   10.3832  -19.9668   21.5224 C   0  0  0  0  0  0  0  0  0  0  0  0
    9.8085  -21.0227   20.5717 C   0  0  0  0  0  0  0  0  0  0  0  0
   10.7445  -22.1023   20.4862 N   0  0  0  0  0  0  0  0  0  0  0  0
    9.3156  -15.8382   23.9649 C   0  0  0  0  0  0  0  0  0  0  0  0
   10.3886  -15.2005   24.0197 O   0  0  0  0  0  0  0  0  0  0  0  0
    7.9338  -11.8629   25.7115 C   0  0  0  0  0  0  0  0  0  0  0  0
    7.1173  -13.0770   25.9301 C   0  0  2  0  0  0  0  0  0  0  0  0
    5.7813  -12.5996   26.5595 C   0  0  0  0  0  0  0  0  0  0  0  0
    7.6489  -14.1981   26.7083 C   0  0  0  0  0  0  0  0  0  0  0  0
    8.8312  -14.9692   26.2767 C   0  0  2  0  0  0  0  0  0  0  0  0
    8.4506  -15.7599   25.0587 N   0  0  0  0  0  0  0  0  0  0  0  0
    9.3193  -15.9831   27.2158 C   0  0  0  0  0  0  0  0  0  0  0  0
    9.9200  -15.7362   28.3128 O   0  0  0  0  0  0  0  0  0  0  0  0
    9.1428  -17.3620   26.9460 O   0  0  0  0  0  0  0  0  0  0  0  0
  2  1  1  1
  2  4  1  0
  3  2  1  0
  4  5  1  6
  4  6  1  0
  6  8  1  0
  6  7  2  0
  8  9  1  0
  9 10  1  6
 11 10  1  0
 12 11  1  0
 12 13  1  0
 13 14  1  0
 15  9  1  0
 15 22  1  0
 16 15  2  0
 18 17  1  1
 18 20  1  0
 19 18  1  0
 21 20  1  1
 21 22  1  0
 21 23  1  0
 23 25  1  0
 24 23  2  0
M  END
$$$$
