VKL.pdb
     RDKit          3D

 25 24  0  0  1  0  0  0  0  0999 V2000
    8.5596  -12.6138   20.8334 C   0  0  0  0  0  0  0  0  0  0  0  0
    7.8358  -13.2507   19.6870 C   0  0  1  0  0  0  0  0  0  0  0  0
    8.1207  -12.4476   18.4455 C   0  0  0  0  0  0  0  0  0  0  0  0
    8.2989  -14.6843   19.5543 C   0  0  2  0  0  0  0  0  0  0  0  0
    7.6707  -15.2899   18.4064 N   0  0  0  0  0  0  0  0  0  0  0  0
    8.0103  -15.4867   20.7612 C   0  0  0  0  0  0  0  0  0  0  0  0
    6.8448  -15.8005   21.0643 O   0  0  0  0  0  0  0  0  0  0  0  0
    9.0739  -15.9004   21.5780 N   0  0  0  0  0  0  0  0  0  0  0  0
    8.9615  -16.7330   22.7582 C   0  0  1  0  0  0  0  0  0  0  0  0
    9.9281  -17.8559   22.6134 C   0  0  0  0  0  0  0  0  0  0  0  0
    9.8094  -18.8004   23.7719 C   0  0  0  0  0  0  0  0  0  0  0  0
   10.7179  -19.9782   23.6314 C   0  0  0  0  0  0  0  0  0  0  0  0
   10.5648  -20.9383   24.8162 C   0  0  0  0  0  0  0  0  0  0  0  0
   10.0544  -22.1804   24.3205 N   0  0  0  0  0  0  0  0  0  0  0  0
    9.2773  -15.8734   23.9404 C   0  0  0  0  0  0  0  0  0  0  0  0
   10.3953  -15.3180   23.9940 O   0  0  0  0  0  0  0  0  0  0  0  0
    7.7435  -11.7234   25.4287 C   0  0  0  0  0  0  0  0  0  0  0  0
    6.9714  -12.9498   25.7257 C   0  0  2  0  0  0  0  0  0  0  0  0
    5.6338  -12.4832   26.3598 C   0  0  0  0  0  0  0  0  0  0  0  0
    7.5548  -14.0129   26.5471 C   0  0  0  0  0  0  0  0  0  0  0  0
    8.7617  -14.7566   26.1361 C   0  0  2  0  0  0  0  0  0  0  0  0
    8.3867  -15.6557   24.9940 N   0  0  0  0  0  0  0  0  0  0  0  0
    9.3278  -15.6706   27.1322 C   0  0  0  0  0  0  0  0  0  0  0  0
    9.0967  -16.9229   27.1916 O   0  0  0  0  0  0  0  0  0  0  0  0
   10.2071  -15.1924   28.1339 O   0  0  0  0  0  0  0  0  0  0  0  0
  2  1  1  1
  2  4  1  0
  3  2  1  0
  4  5  1  6
  4  6  1  0
  6  8  1  0
  6  7  2  0
  8  9  1  0
  9 10  1  6
 11 10  1  0
 12 11  1  0
 12 13  1  0
 13 14  1  0
 15  9  1  0
 15 22  1  0
 16 15  2  0
 18 17  1  1
 18 20  1  0
 19 18  1  0
 21 20  1  1
 21 22  1  0
 21 23  1  0
 23 25  1  0
 24 23  2  0
M  END
$$$$
