VKL.pdb
     RDKit          3D

 25 24  0  0  1  0  0  0  0  0999 V2000
   10.1267  -22.2822   25.6248 C   0  0  0  0  0  0  0  0  0  0  0  0
   10.4449  -21.2487   24.5883 C   0  0  1  0  0  0  0  0  0  0  0  0
   10.0668  -21.8020   23.2399 C   0  0  0  0  0  0  0  0  0  0  0  0
    9.6868  -19.9814   24.9148 C   0  0  2  0  0  0  0  0  0  0  0  0
    8.2701  -20.2493   24.8997 N   0  0  0  0  0  0  0  0  0  0  0  0
    9.9954  -18.8799   23.9792 C   0  0  0  0  0  0  0  0  0  0  0  0
   11.1594  -18.4652   23.8320 O   0  0  0  0  0  0  0  0  0  0  0  0
    8.9528  -18.2936   23.2451 N   0  0  0  0  0  0  0  0  0  0  0  0
    9.0925  -17.2130   22.2903 C   0  0  1  0  0  0  0  0  0  0  0  0
    7.8947  -17.2326   21.4066 C   0  0  0  0  0  0  0  0  0  0  0  0
    7.9460  -16.0947   20.4315 C   0  0  0  0  0  0  0  0  0  0  0  0
    8.0400  -16.5703   19.0182 C   0  0  0  0  0  0  0  0  0  0  0  0
    8.1859  -15.3930   18.0478 C   0  0  0  0  0  0  0  0  0  0  0  0
    8.3868  -15.9214   16.7327 N   0  0  0  0  0  0  0  0  0  0  0  0
    9.1904  -15.9408   23.0701 C   0  0  0  0  0  0  0  0  0  0  0  0
    9.7665  -14.9626   22.5481 O   0  0  0  0  0  0  0  0  0  0  0  0
    5.9079  -12.4171   26.6460 C   0  0  0  0  0  0  0  0  0  0  0  0
    7.2518  -12.7120   26.1025 C   0  0  2  0  0  0  0  0  0  0  0  0
    7.6823  -11.4592   25.2935 C   0  0  0  0  0  0  0  0  0  0  0  0
    7.4787  -13.9136   25.2965 C   0  0  0  0  0  0  0  0  0  0  0  0
    8.8246  -14.4829   25.0886 C   0  0  2  0  0  0  0  0  0  0  0  0
    8.6704  -15.7845   24.3568 N   0  0  0  0  0  0  0  0  0  0  0  0
    9.5666  -14.8459   26.2994 C   0  0  0  0  0  0  0  0  0  0  0  0
    9.4366  -15.9423   26.9367 O   0  0  0  0  0  0  0  0  0  0  0  0
   10.5169  -13.9568   26.8578 O   0  0  0  0  0  0  0  0  0  0  0  0
  2  1  1  1
  2  4  1  0
  3  2  1  0
  4  5  1  6
  4  6  1  0
  6  8  1  0
  6  7  2  0
  8  9  1  0
  9 10  1  6
 11 10  1  0
 12 11  1  0
 12 13  1  0
 13 14  1  0
 15  9  1  0
 15 22  1  0
 16 15  2  0
 18 17  1  6
 18 20  1  0
 19 18  1  0
 21 20  1  1
 21 22  1  0
 21 23  1  0
 23 25  1  0
 24 23  2  0
M  END
$$$$
