VKL.pdb
     RDKit          3D

 25 24  0  0  1  0  0  0  0  0999 V2000
    8.5559  -12.4462   18.3666 C   0  0  0  0  0  0  0  0  0  0  0  0
    8.4914  -13.2727   19.6142 C   0  0  1  0  0  0  0  0  0  0  0  0
    7.1946  -12.9664   20.3156 C   0  0  0  0  0  0  0  0  0  0  0  0
    8.6020  -14.7332   19.2377 C   0  0  2  0  0  0  0  0  0  0  0  0
    7.6245  -15.0457   18.2249 N   0  0  0  0  0  0  0  0  0  0  0  0
    8.4228  -15.6320   20.3970 C   0  0  0  0  0  0  0  0  0  0  0  0
    7.3033  -16.0871   20.6940 O   0  0  0  0  0  0  0  0  0  0  0  0
    9.5393  -15.9760   21.1748 N   0  0  0  0  0  0  0  0  0  0  0  0
    9.5154  -16.7697   22.3864 C   0  0  1  0  0  0  0  0  0  0  0  0
   10.7273  -17.6345   22.3846 C   0  0  0  0  0  0  0  0  0  0  0  0
   10.5938  -18.7191   21.3581 C   0  0  0  0  0  0  0  0  0  0  0  0
   11.8112  -19.5828   21.2922 C   0  0  0  0  0  0  0  0  0  0  0  0
   11.6929  -20.6196   20.1698 C   0  0  0  0  0  0  0  0  0  0  0  0
   12.9544  -21.2838   20.0415 N   0  0  0  0  0  0  0  0  0  0  0  0
    9.5097  -15.8190   23.5406 C   0  0  0  0  0  0  0  0  0  0  0  0
   10.3620  -14.9057   23.5670 O   0  0  0  0  0  0  0  0  0  0  0  0
    5.6874  -12.5948   26.8310 C   0  0  0  0  0  0  0  0  0  0  0  0
    7.0383  -13.1955   26.7791 C   0  0  2  0  0  0  0  0  0  0  0  0
    8.0443  -12.0135   26.7810 C   0  0  0  0  0  0  0  0  0  0  0  0
    7.3923  -14.1342   25.7119 C   0  0  0  0  0  0  0  0  0  0  0  0
    8.6517  -14.9039   25.7224 C   0  0  2  0  0  0  0  0  0  0  0  0
    8.5992  -15.8957   24.5969 N   0  0  0  0  0  0  0  0  0  0  0  0
    8.8939  -15.7302   26.9085 C   0  0  0  0  0  0  0  0  0  0  0  0
    9.7236  -15.4542   27.8361 O   0  0  0  0  0  0  0  0  0  0  0  0
    8.1856  -16.9411   27.1019 O   0  0  0  0  0  0  0  0  0  0  0  0
  2  1  1  6
  2  4  1  0
  3  2  1  0
  4  5  1  6
  4  6  1  0
  6  8  1  0
  6  7  2  0
  8  9  1  0
  9 10  1  1
 11 10  1  0
 12 11  1  0
 12 13  1  0
 13 14  1  0
 15  9  1  0
 15 22  1  0
 16 15  2  0
 18 17  1  6
 18 20  1  0
 19 18  1  0
 21 20  1  1
 21 22  1  0
 21 23  1  0
 23 25  1  0
 24 23  2  0
M  END
$$$$
