VKL.pdb
     RDKit          3D

 25 24  0  0  1  0  0  0  0  0999 V2000
    8.7019  -12.3152   18.8750 C   0  0  0  0  0  0  0  0  0  0  0  0
    8.5130  -13.1568   20.0997 C   0  0  1  0  0  0  0  0  0  0  0  0
    7.1670  -12.8319   20.6914 C   0  0  0  0  0  0  0  0  0  0  0  0
    8.6257  -14.6142   19.7118 C   0  0  2  0  0  0  0  0  0  0  0  0
    7.7085  -14.8996   18.6366 N   0  0  0  0  0  0  0  0  0  0  0  0
    8.3623  -15.5242   20.8461 C   0  0  0  0  0  0  0  0  0  0  0  0
    7.2235  -15.9794   21.0574 O   0  0  0  0  0  0  0  0  0  0  0  0
    9.4195  -15.8788   21.6983 N   0  0  0  0  0  0  0  0  0  0  0  0
    9.3150  -16.7209   22.8724 C   0  0  1  0  0  0  0  0  0  0  0  0
   10.3797  -17.7575   22.7818 C   0  0  0  0  0  0  0  0  0  0  0  0
   10.0887  -18.7089   21.6600 C   0  0  0  0  0  0  0  0  0  0  0  0
   11.1506  -19.7503   21.5173 C   0  0  0  0  0  0  0  0  0  0  0  0
   10.8786  -20.6547   20.3103 C   0  0  0  0  0  0  0  0  0  0  0  0
   11.9227  -21.6314   20.2407 N   0  0  0  0  0  0  0  0  0  0  0  0
    9.4931  -15.8407   24.0681 C   0  0  0  0  0  0  0  0  0  0  0  0
   10.5298  -15.1484   24.1516 O   0  0  0  0  0  0  0  0  0  0  0  0
    7.7511  -11.7929   25.8571 C   0  0  0  0  0  0  0  0  0  0  0  0
    6.9839  -13.0559   25.9250 C   0  0  2  0  0  0  0  0  0  0  0  0
    5.5909  -12.6922   26.5051 C   0  0  0  0  0  0  0  0  0  0  0  0
    7.5228  -14.2135   26.6424 C   0  0  0  0  0  0  0  0  0  0  0  0
    8.8058  -14.8437   26.2744 C   0  0  2  0  0  0  0  0  0  0  0  0
    8.5594  -15.7492   25.1027 N   0  0  0  0  0  0  0  0  0  0  0  0
    9.4045  -15.7256   27.2805 C   0  0  0  0  0  0  0  0  0  0  0  0
   10.1365  -15.3392   28.2501 O   0  0  0  0  0  0  0  0  0  0  0  0
    9.1935  -17.1250   27.2316 O   0  0  0  0  0  0  0  0  0  0  0  0
  2  1  1  6
  2  4  1  0
  3  2  1  0
  4  5  1  6
  4  6  1  0
  6  8  1  0
  6  7  2  0
  8  9  1  0
  9 10  1  6
 11 10  1  0
 12 11  1  0
 12 13  1  0
 13 14  1  0
 15  9  1  0
 15 22  1  0
 16 15  2  0
 18 17  1  1
 18 20  1  0
 19 18  1  0
 21 20  1  1
 21 22  1  0
 21 23  1  0
 23 25  1  0
 24 23  2  0
M  END
$$$$
