VKL.pdb
     RDKit          3D

 25 24  0  0  1  0  0  0  0  0999 V2000
    8.7519  -12.3810   18.5770 C   0  0  0  0  0  0  0  0  0  0  0  0
    8.5044  -13.1017   19.8666 C   0  0  1  0  0  0  0  0  0  0  0  0
    7.1818  -12.6394   20.4182 C   0  0  0  0  0  0  0  0  0  0  0  0
    8.5203  -14.5910   19.6035 C   0  0  2  0  0  0  0  0  0  0  0  0
    7.6778  -14.8901   18.4724 N   0  0  0  0  0  0  0  0  0  0  0  0
    8.0800  -15.3776   20.7745 C   0  0  0  0  0  0  0  0  0  0  0  0
    6.8732  -15.5871   20.9946 O   0  0  0  0  0  0  0  0  0  0  0  0
    9.0447  -15.8962   21.6521 N   0  0  0  0  0  0  0  0  0  0  0  0
    8.7752  -16.6877   22.8352 C   0  0  1  0  0  0  0  0  0  0  0  0
    9.5548  -17.9509   22.7215 C   0  0  0  0  0  0  0  0  0  0  0  0
    8.9313  -18.8603   21.7055 C   0  0  0  0  0  0  0  0  0  0  0  0
    9.6642  -20.1570   21.5878 C   0  0  0  0  0  0  0  0  0  0  0  0
    9.0079  -21.0699   20.5463 C   0  0  0  0  0  0  0  0  0  0  0  0
    9.7632  -22.2839   20.4782 N   0  0  0  0  0  0  0  0  0  0  0  0
    9.1964  -15.8762   24.0184 C   0  0  0  0  0  0  0  0  0  0  0  0
   10.2886  -15.2712   23.9701 O   0  0  0  0  0  0  0  0  0  0  0  0
    7.8902  -11.9253   25.6646 C   0  0  0  0  0  0  0  0  0  0  0  0
    7.1765  -13.1506   26.0859 C   0  0  2  0  0  0  0  0  0  0  0  0
    5.8931  -12.6799   26.8209 C   0  0  0  0  0  0  0  0  0  0  0  0
    7.8569  -14.1642   26.8952 C   0  0  0  0  0  0  0  0  0  0  0  0
    8.9563  -14.9929   26.3628 C   0  0  2  0  0  0  0  0  0  0  0  0
    8.4322  -15.7562   25.1812 N   0  0  0  0  0  0  0  0  0  0  0  0
    9.4699  -16.0356   27.2555 C   0  0  0  0  0  0  0  0  0  0  0  0
    9.1913  -17.2766   27.1684 O   0  0  0  0  0  0  0  0  0  0  0  0
   10.3483  -15.7091   28.3172 O   0  0  0  0  0  0  0  0  0  0  0  0
  2  1  1  6
  2  4  1  0
  3  2  1  0
  4  5  1  6
  4  6  1  0
  6  8  1  0
  6  7  2  0
  8  9  1  0
  9 10  1  6
 11 10  1  0
 12 11  1  0
 12 13  1  0
 13 14  1  0
 15  9  1  0
 15 22  1  0
 16 15  2  0
 18 17  1  1
 18 20  1  0
 19 18  1  0
 21 20  1  1
 21 22  1  0
 21 23  1  0
 23 25  1  0
 24 23  2  0
M  END
$$$$
