VKL.pdb
     RDKit          3D

 25 24  0  0  1  0  0  0  0  0999 V2000
    3.7982  -18.5579   22.3848 C   0  0  0  0  0  0  0  0  0  0  0  0
    4.6133  -18.3777   21.1410 C   0  0  1  0  0  0  0  0  0  0  0  0
    3.6706  -18.2698   19.9718 C   0  0  0  0  0  0  0  0  0  0  0  0
    5.4706  -17.1413   21.2949 C   0  0  2  0  0  0  0  0  0  0  0  0
    6.1480  -16.8662   20.0523 N   0  0  0  0  0  0  0  0  0  0  0  0
    6.4609  -17.2709   22.3841 C   0  0  0  0  0  0  0  0  0  0  0  0
    6.1038  -17.4187   23.5670 O   0  0  0  0  0  0  0  0  0  0  0  0
    7.8289  -17.2257   22.0737 N   0  0  0  0  0  0  0  0  0  0  0  0
    8.9164  -17.4497   23.0043 C   0  0  1  0  0  0  0  0  0  0  0  0
   10.1654  -17.6098   22.2102 C   0  0  0  0  0  0  0  0  0  0  0  0
   11.3089  -17.9847   23.1046 C   0  0  0  0  0  0  0  0  0  0  0  0
   12.5614  -18.2488   22.3339 C   0  0  0  0  0  0  0  0  0  0  0  0
   13.7357  -18.5452   23.2730 C   0  0  0  0  0  0  0  0  0  0  0  0
   13.3147  -19.5388   24.2135 N   0  0  0  0  0  0  0  0  0  0  0  0
    8.9788  -16.2610   23.9095 C   0  0  0  0  0  0  0  0  0  0  0  0
    9.4153  -15.1835   23.4518 O   0  0  0  0  0  0  0  0  0  0  0  0
    8.1730  -11.9804   25.7081 C   0  0  0  0  0  0  0  0  0  0  0  0
    7.2716  -13.1488   25.6047 C   0  0  2  0  0  0  0  0  0  0  0  0
    5.8574  -12.6483   26.0032 C   0  0  0  0  0  0  0  0  0  0  0  0
    7.5730  -14.3848   26.3304 C   0  0  0  0  0  0  0  0  0  0  0  0
    8.8404  -15.1189   26.1479 C   0  0  2  0  0  0  0  0  0  0  0  0
    8.5738  -16.2888   25.2458 N   0  0  0  0  0  0  0  0  0  0  0  0
    9.4140  -15.7268   27.3519 C   0  0  0  0  0  0  0  0  0  0  0  0
    9.9155  -15.0812   28.3302 O   0  0  0  0  0  0  0  0  0  0  0  0
    9.4452  -17.1342   27.5057 O   0  0  0  0  0  0  0  0  0  0  0  0
  2  1  1  1
  2  4  1  0
  3  2  1  0
  4  5  1  6
  4  6  1  0
  6  8  1  0
  6  7  2  0
  8  9  1  0
  9 10  1  6
 11 10  1  0
 12 11  1  0
 12 13  1  0
 13 14  1  0
 15  9  1  0
 15 22  1  0
 16 15  2  0
 18 17  1  1
 18 20  1  0
 19 18  1  0
 21 20  1  1
 21 22  1  0
 21 23  1  0
 23 25  1  0
 24 23  2  0
M  END
$$$$
