VKL.pdb
     RDKit          3D

 25 24  0  0  1  0  0  0  0  0999 V2000
    8.2632  -12.5800   20.8931 C   0  0  0  0  0  0  0  0  0  0  0  0
    7.6863  -13.2983   19.7120 C   0  0  1  0  0  0  0  0  0  0  0  0
    7.9054  -12.4466   18.4897 C   0  0  0  0  0  0  0  0  0  0  0  0
    8.3542  -14.6496   19.5893 C   0  0  2  0  0  0  0  0  0  0  0  0
    7.8707  -15.3213   18.4087 N   0  0  0  0  0  0  0  0  0  0  0  0
    8.1289  -15.5024   20.7750 C   0  0  0  0  0  0  0  0  0  0  0  0
    7.0304  -16.0517   20.9758 O   0  0  0  0  0  0  0  0  0  0  0  0
    9.1766  -15.6934   21.6891 N   0  0  0  0  0  0  0  0  0  0  0  0
    9.1462  -16.5718   22.8408 C   0  0  1  0  0  0  0  0  0  0  0  0
   10.2002  -17.6056   22.6490 C   0  0  0  0  0  0  0  0  0  0  0  0
   10.1609  -18.6053   23.7658 C   0  0  0  0  0  0  0  0  0  0  0  0
   11.2382  -19.6327   23.6377 C   0  0  0  0  0  0  0  0  0  0  0  0
   11.1566  -20.6627   24.7698 C   0  0  0  0  0  0  0  0  0  0  0  0
   12.1186  -21.6899   24.5082 N   0  0  0  0  0  0  0  0  0  0  0  0
    9.4037  -15.7294   24.0492 C   0  0  0  0  0  0  0  0  0  0  0  0
   10.4982  -15.1337   24.1404 O   0  0  0  0  0  0  0  0  0  0  0  0
    8.2158  -11.6535   25.6911 C   0  0  0  0  0  0  0  0  0  0  0  0
    7.2889  -12.7895   25.8882 C   0  0  2  0  0  0  0  0  0  0  0  0
    5.9822  -12.1925   26.4757 C   0  0  0  0  0  0  0  0  0  0  0  0
    7.6957  -13.9490   26.6853 C   0  0  0  0  0  0  0  0  0  0  0  0
    8.8491  -14.7941   26.3189 C   0  0  2  0  0  0  0  0  0  0  0  0
    8.4833  -15.5708   25.0876 N   0  0  0  0  0  0  0  0  0  0  0  0
    9.2264  -15.8274   27.2875 C   0  0  0  0  0  0  0  0  0  0  0  0
    9.9332  -15.6307   28.3300 O   0  0  0  0  0  0  0  0  0  0  0  0
    8.8067  -17.1686   27.1129 O   0  0  0  0  0  0  0  0  0  0  0  0
  2  1  1  1
  2  4  1  0
  3  2  1  0
  4  5  1  6
  4  6  1  0
  6  8  1  0
  6  7  2  0
  8  9  1  0
  9 10  1  6
 11 10  1  0
 12 11  1  0
 12 13  1  0
 13 14  1  0
 15  9  1  0
 15 22  1  0
 16 15  2  0
 18 17  1  1
 18 20  1  0
 19 18  1  0
 21 20  1  1
 21 22  1  0
 21 23  1  0
 23 25  1  0
 24 23  2  0
M  END
$$$$
