VKL.pdb
     RDKit          3D

 25 24  0  0  1  0  0  0  0  0999 V2000
    8.7870  -12.6506   18.0071 C   0  0  0  0  0  0  0  0  0  0  0  0
    8.5742  -13.3053   19.3374 C   0  0  1  0  0  0  0  0  0  0  0  0
    7.2808  -12.7924   19.9132 C   0  0  0  0  0  0  0  0  0  0  0  0
    8.5546  -14.8053   19.1450 C   0  0  2  0  0  0  0  0  0  0  0  0
    7.6099  -15.1466   18.1106 N   0  0  0  0  0  0  0  0  0  0  0  0
    8.2171  -15.5312   20.3872 C   0  0  0  0  0  0  0  0  0  0  0  0
    7.0359  -15.6681   20.7542 O   0  0  0  0  0  0  0  0  0  0  0  0
    9.2516  -16.0747   21.1644 N   0  0  0  0  0  0  0  0  0  0  0  0
    9.0902  -16.7542   22.4336 C   0  0  1  0  0  0  0  0  0  0  0  0
   10.1627  -17.7817   22.5362 C   0  0  0  0  0  0  0  0  0  0  0  0
    9.6438  -19.0125   23.2174 C   0  0  0  0  0  0  0  0  0  0  0  0
   10.2257  -20.2615   22.6396 C   0  0  0  0  0  0  0  0  0  0  0  0
    9.6855  -21.5048   23.3548 C   0  0  0  0  0  0  0  0  0  0  0  0
   10.2541  -22.6606   22.7306 N   0  0  0  0  0  0  0  0  0  0  0  0
    9.2025  -15.7208   23.5086 C   0  0  0  0  0  0  0  0  0  0  0  0
   10.1775  -14.9397   23.4873 O   0  0  0  0  0  0  0  0  0  0  0  0
    5.6842  -12.4640   27.3534 C   0  0  0  0  0  0  0  0  0  0  0  0
    7.0389  -12.8829   26.9317 C   0  0  2  0  0  0  0  0  0  0  0  0
    7.8073  -11.5835   26.5708 C   0  0  0  0  0  0  0  0  0  0  0  0
    7.2113  -13.8645   25.8584 C   0  0  0  0  0  0  0  0  0  0  0  0
    8.4886  -14.5676   25.6285 C   0  0  2  0  0  0  0  0  0  0  0  0
    8.2726  -15.5794   24.5409 N   0  0  0  0  0  0  0  0  0  0  0  0
    9.0004  -15.3604   26.7500 C   0  0  0  0  0  0  0  0  0  0  0  0
    8.6464  -16.5539   27.0246 O   0  0  0  0  0  0  0  0  0  0  0  0
    9.9647  -14.8205   27.6354 O   0  0  0  0  0  0  0  0  0  0  0  0
  2  1  1  6
  2  4  1  0
  3  2  1  0
  4  5  1  6
  4  6  1  0
  6  8  1  0
  6  7  2  0
  8  9  1  0
  9 10  1  1
 11 10  1  0
 12 11  1  0
 12 13  1  0
 13 14  1  0
 15  9  1  0
 15 22  1  0
 16 15  2  0
 18 17  1  6
 18 20  1  0
 19 18  1  0
 21 20  1  1
 21 22  1  0
 21 23  1  0
 23 25  1  0
 24 23  2  0
M  END
$$$$
