VKL.pdb
     RDKit          3D

 25 24  0  0  1  0  0  0  0  0999 V2000
    8.1228  -12.3747   19.1114 C   0  0  0  0  0  0  0  0  0  0  0  0
    8.2139  -13.1733   20.3755 C   0  0  1  0  0  0  0  0  0  0  0  0
    7.1195  -12.7144   21.3023 C   0  0  0  0  0  0  0  0  0  0  0  0
    8.0904  -14.6415   20.0345 C   0  0  2  0  0  0  0  0  0  0  0  0
    6.8758  -14.8634   19.2900 N   0  0  0  0  0  0  0  0  0  0  0  0
    8.1041  -15.5046   21.2340 C   0  0  0  0  0  0  0  0  0  0  0  0
    7.0519  -15.7986   21.8297 O   0  0  0  0  0  0  0  0  0  0  0  0
    9.3295  -15.9996   21.7065 N   0  0  0  0  0  0  0  0  0  0  0  0
    9.5068  -16.8687   22.8519 C   0  0  1  0  0  0  0  0  0  0  0  0
   10.7452  -17.6642   22.6286 C   0  0  0  0  0  0  0  0  0  0  0  0
   10.4939  -18.7525   21.6283 C   0  0  0  0  0  0  0  0  0  0  0  0
   11.7146  -19.5767   21.3767 C   0  0  0  0  0  0  0  0  0  0  0  0
   11.4211  -20.7112   20.3890 C   0  0  0  0  0  0  0  0  0  0  0  0
   12.6402  -21.4234   20.1529 N   0  0  0  0  0  0  0  0  0  0  0  0
    9.6150  -15.9948   24.0605 C   0  0  0  0  0  0  0  0  0  0  0  0
   10.5360  -15.1517   24.1080 O   0  0  0  0  0  0  0  0  0  0  0  0
    7.7982  -12.1307   26.1034 C   0  0  0  0  0  0  0  0  0  0  0  0
    7.1042  -13.4350   26.0270 C   0  0  2  0  0  0  0  0  0  0  0  0
    5.6480  -13.1854   26.5026 C   0  0  0  0  0  0  0  0  0  0  0  0
    7.6481  -14.6061   26.7181 C   0  0  0  0  0  0  0  0  0  0  0  0
    8.9474  -15.2050   26.3549 C   0  0  2  0  0  0  0  0  0  0  0  0
    8.7387  -16.0692   25.1454 N   0  0  0  0  0  0  0  0  0  0  0  0
    9.5371  -16.1157   27.3404 C   0  0  0  0  0  0  0  0  0  0  0  0
   10.1019  -15.7549   28.4248 O   0  0  0  0  0  0  0  0  0  0  0  0
    9.5115  -17.5166   27.1352 O   0  0  0  0  0  0  0  0  0  0  0  0
  2  1  1  6
  2  4  1  0
  3  2  1  0
  4  5  1  1
  4  6  1  0
  6  8  1  0
  6  7  2  0
  8  9  1  0
  9 10  1  6
 11 10  1  0
 12 11  1  0
 12 13  1  0
 13 14  1  0
 15  9  1  0
 15 22  1  0
 16 15  2  0
 18 17  1  1
 18 20  1  0
 19 18  1  0
 21 20  1  1
 21 22  1  0
 21 23  1  0
 23 25  1  0
 24 23  2  0
M  END
$$$$
