PFM.pdb
     RDKit          3D

 27 28  0  0  1  0  0  0  0  0999 V2000
   23.4647   -9.5928  -20.1171 N   0  0  0  0  0  0  0  0  0  0  0  0
   24.5499  -10.5161  -20.2315 C   0  0  0  0  0  0  0  0  0  0  0  0
   24.5403  -11.2296  -18.9041 C   0  0  0  0  0  0  0  0  0  0  0  0
   23.0362  -11.4550  -18.7038 C   0  0  0  0  0  0  0  0  0  0  0  0
   22.4880  -10.1322  -19.2239 C   0  0  1  0  0  0  0  0  0  0  0  0
   22.2266   -9.2263  -18.0696 C   0  0  0  0  0  0  0  0  0  0  0  0
   21.4463   -9.5983  -17.1588 O   0  0  0  0  0  0  0  0  0  0  0  0
   22.8194   -7.9510  -17.9433 N   0  0  0  0  0  0  0  0  0  0  0  0
   22.5921   -7.0865  -16.8069 C   0  0  1  0  0  0  0  0  0  0  0  0
   23.9453   -6.7656  -16.2475 C   0  0  0  0  0  0  0  0  0  0  0  0
   24.7910   -7.8998  -15.9077 C   0  0  0  0  0  0  0  0  0  0  0  0
   24.3899   -8.7713  -14.9180 C   0  0  0  0  0  0  0  0  0  0  0  0
   25.1533   -9.8656  -14.5590 C   0  0  0  0  0  0  0  0  0  0  0  0
   26.3471  -10.1123  -15.1903 C   0  0  0  0  0  0  0  0  0  0  0  0
   26.7779   -9.2435  -16.1983 C   0  0  0  0  0  0  0  0  0  0  0  0
   25.9939   -8.1691  -16.5269 C   0  0  0  0  0  0  0  0  0  0  0  0
   21.8678   -5.8555  -17.1843 C   0  0  0  0  0  0  0  0  0  0  0  0
   22.2563   -5.1784  -18.1702 O   0  0  0  0  0  0  0  0  0  0  0  0
   15.1722   -1.8080  -17.3845 C   0  0  0  0  0  0  0  0  0  0  0  0
   15.9835   -3.2965  -16.7369 S   0  0  0  0  0  0  0  0  0  0  0  0
   17.7613   -3.1134  -17.0264 C   0  0  0  0  0  0  0  0  0  0  0  0
   18.5300   -4.3536  -16.6940 C   0  0  0  0  0  0  0  0  0  0  0  0
   19.9934   -4.1721  -16.8854 C   0  0  2  0  0  0  0  0  0  0  0  0
   20.7345   -5.3711  -16.4935 N   0  0  0  0  0  0  0  0  0  0  0  0
   20.4962   -3.0616  -16.0642 C   0  0  0  0  0  0  0  0  0  0  0  0
   21.0108   -3.3211  -14.9335 O   0  0  0  0  0  0  0  0  0  0  0  0
   20.4352   -1.7496  -16.4711 O   0  0  0  0  0  0  0  0  0  0  0  0
  1  5  1  0
  1  2  1  0
  2  3  1  0
  4  3  1  0
  5  4  1  0
  5  6  1  1
  7  6  2  0
  8  6  1  0
  9  8  1  0
 10 11  1  0
  9 10  1  6
 11 16  1  0
 11 12  2  0
 12 13  1  0
 13 14  2  0
 15 14  1  0
 16 15  2  0
 17 24  1  0
 17  9  1  0
 18 17  2  0
 20 19  1  0
 21 20  1  0
 22 21  1  0
 23 22  1  1
 23 24  1  0
 25 23  1  0
 26 25  2  0
 27 25  1  0
M  END
$$$$
