PFM.pdb
     RDKit          3D

 27 28  0  0  1  0  0  0  0  0999 V2000
   27.5114  -19.6393  -17.2843 N   0  0  0  0  0  0  0  0  0  0  0  0
   28.8402  -19.2530  -17.6427 C   0  0  0  0  0  0  0  0  0  0  0  0
   29.6947  -20.3219  -17.0116 C   0  0  0  0  0  0  0  0  0  0  0  0
   28.8821  -21.5801  -17.3432 C   0  0  0  0  0  0  0  0  0  0  0  0
   27.4672  -21.0591  -17.1257 C   0  0  1  0  0  0  0  0  0  0  0  0
   27.0069  -21.4545  -15.7643 C   0  0  0  0  0  0  0  0  0  0  0  0
   26.7728  -22.6638  -15.5202 O   0  0  0  0  0  0  0  0  0  0  0  0
   26.8169  -20.5266  -14.7171 N   0  0  0  0  0  0  0  0  0  0  0  0
   26.1138  -20.8510  -13.4962 C   0  0  1  0  0  0  0  0  0  0  0  0
   26.9385  -20.2913  -12.3765 C   0  0  0  0  0  0  0  0  0  0  0  0
   26.3565  -20.3634  -11.0449 C   0  0  0  0  0  0  0  0  0  0  0  0
   25.6856  -19.2707  -10.5390 C   0  0  0  0  0  0  0  0  0  0  0  0
   25.1115  -19.2873   -9.2823 C   0  0  0  0  0  0  0  0  0  0  0  0
   25.1985  -20.4105   -8.4979 C   0  0  0  0  0  0  0  0  0  0  0  0
   25.8738  -21.5335   -8.9869 C   0  0  0  0  0  0  0  0  0  0  0  0
   26.4301  -21.4795  -10.2378 C   0  0  0  0  0  0  0  0  0  0  0  0
   24.7466  -20.2917  -13.4798 C   0  0  0  0  0  0  0  0  0  0  0  0
   24.5724  -19.0599  -13.6635 O   0  0  0  0  0  0  0  0  0  0  0  0
   19.5118  -21.7934  -16.6584 C   0  0  0  0  0  0  0  0  0  0  0  0
   20.7030  -23.0126  -16.0358 S   0  0  0  0  0  0  0  0  0  0  0  0
   21.2735  -22.4347  -14.4176 C   0  0  0  0  0  0  0  0  0  0  0  0
   21.4088  -20.9458  -14.3523 C   0  0  0  0  0  0  0  0  0  0  0  0
   22.2350  -20.5100  -13.1954 C   0  0  2  0  0  0  0  0  0  0  0  0
   23.5856  -21.0679  -13.2654 N   0  0  0  0  0  0  0  0  0  0  0  0
   21.6427  -20.9613  -11.9281 C   0  0  0  0  0  0  0  0  0  0  0  0
   22.2196  -21.8863  -11.2784 O   0  0  0  0  0  0  0  0  0  0  0  0
   20.4881  -20.4204  -11.4134 O   0  0  0  0  0  0  0  0  0  0  0  0
  1  5  1  0
  1  2  1  0
  2  3  1  0
  4  3  1  0
  5  4  1  0
  5  6  1  1
  7  6  2  0
  8  6  1  0
  9  8  1  0
 10 11  1  0
  9 10  1  1
 11 16  1  0
 11 12  2  0
 12 13  1  0
 13 14  2  0
 15 14  1  0
 16 15  2  0
 17 24  1  0
 17  9  1  0
 18 17  2  0
 20 19  1  0
 21 20  1  0
 22 21  1  0
 23 22  1  6
 23 24  1  0
 25 23  1  0
 26 25  2  0
 27 25  1  0
M  END
$$$$
