PFM.pdb
     RDKit          3D

 27 28  0  0  1  0  0  0  0  0999 V2000
   26.1524  -20.4995  -15.2790 N   0  0  0  0  0  0  0  0  0  0  0  0
   27.0901  -19.9093  -16.1820 C   0  0  0  0  0  0  0  0  0  0  0  0
   28.4011  -20.5335  -15.7785 C   0  0  0  0  0  0  0  0  0  0  0  0
   27.9782  -21.9933  -15.5694 C   0  0  0  0  0  0  0  0  0  0  0  0
   26.6243  -21.7943  -14.8999 C   0  0  1  0  0  0  0  0  0  0  0  0
   26.7886  -21.9182  -13.4236 C   0  0  0  0  0  0  0  0  0  0  0  0
   27.1562  -23.0148  -12.9346 O   0  0  0  0  0  0  0  0  0  0  0  0
   26.5490  -20.8508  -12.5309 N   0  0  0  0  0  0  0  0  0  0  0  0
   26.7030  -20.9732  -11.0986 C   0  0  1  0  0  0  0  0  0  0  0  0
   27.5043  -19.7845  -10.6603 C   0  0  0  0  0  0  0  0  0  0  0  0
   27.8279  -19.7084   -9.2438 C   0  0  0  0  0  0  0  0  0  0  0  0
   28.8746  -20.4553   -8.7471 C   0  0  0  0  0  0  0  0  0  0  0  0
   29.2259  -20.4172   -7.4113 C   0  0  0  0  0  0  0  0  0  0  0  0
   28.5288  -19.6220   -6.5360 C   0  0  0  0  0  0  0  0  0  0  0  0
   27.4620  -18.8538   -7.0136 C   0  0  0  0  0  0  0  0  0  0  0  0
   27.1432  -18.9177   -8.3446 C   0  0  0  0  0  0  0  0  0  0  0  0
   25.4000  -21.0207  -10.4040 C   0  0  0  0  0  0  0  0  0  0  0  0
   24.3809  -20.5281  -10.9517 O   0  0  0  0  0  0  0  0  0  0  0  0
   24.6635  -20.7725   -4.1040 C   0  0  0  0  0  0  0  0  0  0  0  0
   23.0336  -21.5052   -4.4198 S   0  0  0  0  0  0  0  0  0  0  0  0
   22.8184  -21.5936   -6.2153 C   0  0  0  0  0  0  0  0  0  0  0  0
   24.1212  -21.6266   -6.9509 C   0  0  0  0  0  0  0  0  0  0  0  0
   23.9305  -21.6232   -8.4256 C   0  0  2  0  0  0  0  0  0  0  0  0
   25.2134  -21.5988   -9.1284 N   0  0  0  0  0  0  0  0  0  0  0  0
   23.1766  -20.4365   -8.8544 C   0  0  0  0  0  0  0  0  0  0  0  0
   21.9103  -20.4537   -8.7722 O   0  0  0  0  0  0  0  0  0  0  0  0
   23.7868  -19.3039   -9.3398 O   0  0  0  0  0  0  0  0  0  0  0  0
  1  5  1  0
  1  2  1  0
  2  3  1  0
  4  3  1  0
  5  4  1  0
  5  6  1  1
  7  6  2  0
  8  6  1  0
  9  8  1  0
 10 11  1  0
  9 10  1  1
 11 16  1  0
 11 12  2  0
 12 13  1  0
 13 14  2  0
 15 14  1  0
 16 15  2  0
 17 24  1  0
 17  9  1  0
 18 17  2  0
 20 19  1  0
 21 20  1  0
 22 21  1  0
 23 22  1  1
 23 24  1  0
 25 23  1  0
 26 25  2  0
 27 25  1  0
M  END
$$$$
