PFM.pdb
     RDKit          3D

 27 28  0  0  1  0  0  0  0  0999 V2000
   21.7343  -11.4509  -17.5520 N   0  0  0  0  0  0  0  0  0  0  0  0
   21.9669  -12.8599  -17.6152 C   0  0  0  0  0  0  0  0  0  0  0  0
   20.6528  -13.4069  -18.1103 C   0  0  0  0  0  0  0  0  0  0  0  0
   20.3047  -12.3882  -19.2032 C   0  0  0  0  0  0  0  0  0  0  0  0
   20.7532  -11.0976  -18.5294 C   0  0  1  0  0  0  0  0  0  0  0  0
   19.5690  -10.4319  -17.9162 C   0  0  0  0  0  0  0  0  0  0  0  0
   18.5832  -10.1415  -18.6378 O   0  0  0  0  0  0  0  0  0  0  0  0
   19.4952  -10.1049  -16.5446 N   0  0  0  0  0  0  0  0  0  0  0  0
   18.3395   -9.4742  -15.9470 C   0  0  1  0  0  0  0  0  0  0  0  0
   17.9536  -10.3291  -14.7777 C   0  0  0  0  0  0  0  0  0  0  0  0
   17.2847  -11.5840  -15.0858 C   0  0  0  0  0  0  0  0  0  0  0  0
   15.9590  -11.5700  -15.4629 C   0  0  0  0  0  0  0  0  0  0  0  0
   15.2776  -12.7323  -15.7696 C   0  0  0  0  0  0  0  0  0  0  0  0
   15.9166  -13.9455  -15.7043 C   0  0  0  0  0  0  0  0  0  0  0  0
   17.2620  -13.9883  -15.3243 C   0  0  0  0  0  0  0  0  0  0  0  0
   17.9043  -12.8150  -15.0277 C   0  0  0  0  0  0  0  0  0  0  0  0
   18.6238   -8.0886  -15.5211 C   0  0  0  0  0  0  0  0  0  0  0  0
   19.6382   -7.8456  -14.8188 O   0  0  0  0  0  0  0  0  0  0  0  0
   16.0960   -0.9450  -17.2902 C   0  0  0  0  0  0  0  0  0  0  0  0
   17.1616   -2.3361  -17.7620 S   0  0  0  0  0  0  0  0  0  0  0  0
   17.2165   -3.4768  -16.3572 C   0  0  0  0  0  0  0  0  0  0  0  0
   18.0559   -4.6855  -16.6288 C   0  0  0  0  0  0  0  0  0  0  0  0
   18.1040   -5.6060  -15.4620 C   0  0  2  0  0  0  0  0  0  0  0  0
   17.8104   -6.9835  -15.8580 N   0  0  0  0  0  0  0  0  0  0  0  0
   17.1095   -5.2227  -14.4498 C   0  0  0  0  0  0  0  0  0  0  0  0
   17.2844   -4.1489  -13.7963 O   0  0  0  0  0  0  0  0  0  0  0  0
   15.9927   -5.9787  -14.1818 O   0  0  0  0  0  0  0  0  0  0  0  0
  1  5  1  0
  1  2  1  0
  2  3  1  0
  4  3  1  0
  5  4  1  0
  5  6  1  1
  7  6  2  0
  8  6  1  0
  9  8  1  0
 10 11  1  0
  9 10  1  1
 11 16  1  0
 11 12  2  0
 12 13  1  0
 13 14  2  0
 15 14  1  0
 16 15  2  0
 17 24  1  0
 17  9  1  0
 18 17  2  0
 20 19  1  0
 21 20  1  0
 22 21  1  0
 23 22  1  6
 23 24  1  0
 25 23  1  0
 26 25  2  0
 27 25  1  0
M  END
$$$$
