PFM.pdb
     RDKit          3D

 27 28  0  0  1  0  0  0  0  0999 V2000
   27.2627  -19.5168  -15.2915 N   0  0  0  0  0  0  0  0  0  0  0  0
   28.6203  -19.0697  -15.3076 C   0  0  0  0  0  0  0  0  0  0  0  0
   29.3150  -20.0353  -14.3823 C   0  0  0  0  0  0  0  0  0  0  0  0
   28.6813  -21.3635  -14.8158 C   0  0  0  0  0  0  0  0  0  0  0  0
   27.2395  -20.9224  -15.0334 C   0  0  1  0  0  0  0  0  0  0  0  0
   26.4407  -21.2538  -13.8194 C   0  0  0  0  0  0  0  0  0  0  0  0
   26.1541  -22.4524  -13.5788 O   0  0  0  0  0  0  0  0  0  0  0  0
   25.9815  -20.2757  -12.9104 N   0  0  0  0  0  0  0  0  0  0  0  0
   25.0217  -20.5599  -11.8672 C   0  0  1  0  0  0  0  0  0  0  0  0
   25.3609  -19.6484  -10.7264 C   0  0  0  0  0  0  0  0  0  0  0  0
   26.3435  -20.1419   -9.7735 C   0  0  0  0  0  0  0  0  0  0  0  0
   27.4480  -20.8266  -10.2330 C   0  0  0  0  0  0  0  0  0  0  0  0
   28.4126  -21.3132   -9.3715 C   0  0  0  0  0  0  0  0  0  0  0  0
   28.2895  -21.1222   -8.0177 C   0  0  0  0  0  0  0  0  0  0  0  0
   27.1782  -20.4308   -7.5246 C   0  0  0  0  0  0  0  0  0  0  0  0
   26.2426  -19.9631   -8.4095 C   0  0  0  0  0  0  0  0  0  0  0  0
   23.6320  -20.3480  -12.3212 C   0  0  0  0  0  0  0  0  0  0  0  0
   23.3960  -19.5448  -13.2596 O   0  0  0  0  0  0  0  0  0  0  0  0
   22.0492  -23.7260  -16.1682 C   0  0  0  0  0  0  0  0  0  0  0  0
   20.4134  -24.0044  -15.4337 S   0  0  0  0  0  0  0  0  0  0  0  0
   20.1786  -22.7544  -14.1452 C   0  0  0  0  0  0  0  0  0  0  0  0
   21.4466  -22.4288  -13.4204 C   0  0  0  0  0  0  0  0  0  0  0  0
   21.2790  -21.2819  -12.4889 C   0  0  2  0  0  0  0  0  0  0  0  0
   22.5154  -21.0049  -11.7573 N   0  0  0  0  0  0  0  0  0  0  0  0
   20.2369  -21.5640  -11.4914 C   0  0  0  0  0  0  0  0  0  0  0  0
   19.0319  -21.2776  -11.7681 O   0  0  0  0  0  0  0  0  0  0  0  0
   20.5123  -22.1292  -10.2687 O   0  0  0  0  0  0  0  0  0  0  0  0
  1  5  1  0
  1  2  1  0
  2  3  1  0
  4  3  1  0
  5  4  1  0
  5  6  1  1
  7  6  2  0
  8  6  1  0
  9  8  1  0
 10 11  1  0
  9 10  1  1
 11 16  1  0
 11 12  2  0
 12 13  1  0
 13 14  2  0
 15 14  1  0
 16 15  2  0
 17 24  1  0
 17  9  1  0
 18 17  2  0
 20 19  1  0
 21 20  1  0
 22 21  1  0
 23 22  1  6
 23 24  1  0
 25 23  1  0
 26 25  2  0
 27 25  1  0
M  END
$$$$
