PFM.pdb
     RDKit          3D

 27 28  0  0  1  0  0  0  0  0999 V2000
   27.2700  -20.6550  -17.0294 N   0  0  0  0  0  0  0  0  0  0  0  0
   28.6349  -20.4895  -17.4205 C   0  0  0  0  0  0  0  0  0  0  0  0
   29.3542  -21.5511  -16.6288 C   0  0  0  0  0  0  0  0  0  0  0  0
   28.3925  -22.7359  -16.7863 C   0  0  0  0  0  0  0  0  0  0  0  0
   27.0528  -22.0205  -16.6673 C   0  0  1  0  0  0  0  0  0  0  0  0
   26.5520  -22.1544  -15.2698 C   0  0  0  0  0  0  0  0  0  0  0  0
   26.2283  -23.2880  -14.8374 O   0  0  0  0  0  0  0  0  0  0  0  0
   26.4201  -21.0566  -14.3917 N   0  0  0  0  0  0  0  0  0  0  0  0
   25.9758  -21.1929  -13.0226 C   0  0  1  0  0  0  0  0  0  0  0  0
   26.7910  -20.2248  -12.2194 C   0  0  0  0  0  0  0  0  0  0  0  0
   26.5817  -20.2406  -10.7796 C   0  0  0  0  0  0  0  0  0  0  0  0
   27.3115  -21.1111   -9.9987 C   0  0  0  0  0  0  0  0  0  0  0  0
   27.1542  -21.1642   -8.6269 C   0  0  0  0  0  0  0  0  0  0  0  0
   26.2532  -20.3381   -8.0023 C   0  0  0  0  0  0  0  0  0  0  0  0
   25.4996  -19.4452   -8.7711 C   0  0  0  0  0  0  0  0  0  0  0  0
   25.6832  -19.4212  -10.1286 C   0  0  0  0  0  0  0  0  0  0  0  0
   24.5315  -20.9178  -12.8796 C   0  0  0  0  0  0  0  0  0  0  0  0
   24.0244  -19.9214  -13.4552 O   0  0  0  0  0  0  0  0  0  0  0  0
   17.4046  -23.4582  -10.6309 C   0  0  0  0  0  0  0  0  0  0  0  0
   19.1831  -23.7836  -10.4746 S   0  0  0  0  0  0  0  0  0  0  0  0
   20.0572  -22.3637  -11.1801 C   0  0  0  0  0  0  0  0  0  0  0  0
   21.5284  -22.6019  -11.3154 C   0  0  0  0  0  0  0  0  0  0  0  0
   22.2120  -21.4874  -12.0239 C   0  0  2  0  0  0  0  0  0  0  0  0
   23.6532  -21.7207  -12.1177 N   0  0  0  0  0  0  0  0  0  0  0  0
   22.0222  -20.2169  -11.3096 C   0  0  0  0  0  0  0  0  0  0  0  0
   22.6987  -19.9993  -10.2582 O   0  0  0  0  0  0  0  0  0  0  0  0
   21.1421  -19.2498  -11.7349 O   0  0  0  0  0  0  0  0  0  0  0  0
  1  5  1  0
  1  2  1  0
  2  3  1  0
  4  3  1  0
  5  4  1  0
  5  6  1  1
  7  6  2  0
  8  6  1  0
  9  8  1  0
 10 11  1  0
  9 10  1  1
 11 16  1  0
 11 12  2  0
 12 13  1  0
 13 14  2  0
 15 14  1  0
 16 15  2  0
 17 24  1  0
 17  9  1  0
 18 17  2  0
 20 19  1  0
 21 20  1  0
 22 21  1  0
 23 22  1  1
 23 24  1  0
 25 23  1  0
 26 25  2  0
 27 25  1  0
M  END
$$$$
