PFM.pdb
     RDKit          3D

 27 28  0  0  1  0  0  0  0  0999 V2000
   25.3044  -17.8015  -16.4177 N   0  0  0  0  0  0  0  0  0  0  0  0
   24.5351  -16.6634  -16.8128 C   0  0  0  0  0  0  0  0  0  0  0  0
   25.2581  -15.5125  -16.1617 C   0  0  0  0  0  0  0  0  0  0  0  0
   26.7190  -15.8917  -16.4361 C   0  0  0  0  0  0  0  0  0  0  0  0
   26.6595  -17.3971  -16.2107 C   0  0  1  0  0  0  0  0  0  0  0  0
   27.1277  -17.7011  -14.8286 C   0  0  0  0  0  0  0  0  0  0  0  0
   28.2575  -17.2974  -14.4582 O   0  0  0  0  0  0  0  0  0  0  0  0
   26.3559  -18.4309  -13.8984 N   0  0  0  0  0  0  0  0  0  0  0  0
   26.8271  -18.7610  -12.5720 C   0  0  1  0  0  0  0  0  0  0  0  0
   25.6165  -18.7718  -11.6880 C   0  0  0  0  0  0  0  0  0  0  0  0
   25.8493  -19.0253  -10.2743 C   0  0  0  0  0  0  0  0  0  0  0  0
   26.3013  -18.0026   -9.4683 C   0  0  0  0  0  0  0  0  0  0  0  0
   26.5351  -18.1886   -8.1192 C   0  0  0  0  0  0  0  0  0  0  0  0
   26.3189  -19.4159   -7.5434 C   0  0  0  0  0  0  0  0  0  0  0  0
   25.8603  -20.4712   -8.3386 C   0  0  0  0  0  0  0  0  0  0  0  0
   25.6398  -20.2486   -9.6723 C   0  0  0  0  0  0  0  0  0  0  0  0
   27.5200  -20.0654  -12.5396 C   0  0  0  0  0  0  0  0  0  0  0  0
   27.1430  -20.9930  -13.3004 O   0  0  0  0  0  0  0  0  0  0  0  0
   32.6037  -21.3579   -8.6724 C   0  0  0  0  0  0  0  0  0  0  0  0
   32.7287  -22.8271   -9.7302 S   0  0  0  0  0  0  0  0  0  0  0  0
   31.2280  -22.8959  -10.7407 C   0  0  0  0  0  0  0  0  0  0  0  0
   30.4751  -21.6026  -10.7431 C   0  0  0  0  0  0  0  0  0  0  0  0
   29.3049  -21.6390  -11.6598 C   0  0  2  0  0  0  0  0  0  0  0  0
   28.6098  -20.3520  -11.6874 N   0  0  0  0  0  0  0  0  0  0  0  0
   28.3306  -22.6508  -11.2270 C   0  0  0  0  0  0  0  0  0  0  0  0
   27.6270  -22.4209  -10.1962 O   0  0  0  0  0  0  0  0  0  0  0  0
   28.1464  -23.8385  -11.8950 O   0  0  0  0  0  0  0  0  0  0  0  0
  1  5  1  0
  1  2  1  0
  2  3  1  0
  4  3  1  0
  5  4  1  0
  5  6  1  1
  7  6  2  0
  8  6  1  0
  9  8  1  0
 10 11  1  0
  9 10  1  1
 11 16  1  0
 11 12  2  0
 12 13  1  0
 13 14  2  0
 15 14  1  0
 16 15  2  0
 17 24  1  0
 17  9  1  0
 18 17  2  0
 20 19  1  0
 21 20  1  0
 22 21  1  0
 23 22  1  1
 23 24  1  0
 25 23  1  0
 26 25  2  0
 27 25  1  0
M  END
$$$$
