PFM.pdb
     RDKit          3D

 27 28  0  0  1  0  0  0  0  0999 V2000
   21.3540   -8.5400  -19.1005 N   0  0  0  0  0  0  0  0  0  0  0  0
   21.9948   -9.8166  -19.1547 C   0  0  0  0  0  0  0  0  0  0  0  0
   21.5015  -10.5060  -17.9087 C   0  0  0  0  0  0  0  0  0  0  0  0
   20.0178  -10.1165  -17.9264 C   0  0  0  0  0  0  0  0  0  0  0  0
   20.1187   -8.6699  -18.3934 C   0  0  1  0  0  0  0  0  0  0  0  0
   20.0575   -7.7701  -17.2067 C   0  0  0  0  0  0  0  0  0  0  0  0
   19.1093   -7.8883  -16.3921 O   0  0  0  0  0  0  0  0  0  0  0  0
   21.0250   -6.7754  -16.9453 N   0  0  0  0  0  0  0  0  0  0  0  0
   20.9481   -5.8817  -15.8114 C   0  0  1  0  0  0  0  0  0  0  0  0
   22.2824   -5.9516  -15.1318 C   0  0  0  0  0  0  0  0  0  0  0  0
   22.6668   -7.2468  -14.5916 C   0  0  0  0  0  0  0  0  0  0  0  0
   22.0335   -7.7256  -13.4648 C   0  0  0  0  0  0  0  0  0  0  0  0
   22.3576   -8.9503  -12.9131 C   0  0  0  0  0  0  0  0  0  0  0  0
   23.3330   -9.7290  -13.4845 C   0  0  0  0  0  0  0  0  0  0  0  0
   23.9917   -9.2670  -14.6286 C   0  0  0  0  0  0  0  0  0  0  0  0
   23.6430   -8.0476  -15.1469 C   0  0  0  0  0  0  0  0  0  0  0  0
   20.6314   -4.4974  -16.2185 C   0  0  0  0  0  0  0  0  0  0  0  0
   21.3128   -3.9374  -17.1148 O   0  0  0  0  0  0  0  0  0  0  0  0
   15.2330    1.1695  -16.8588 C   0  0  0  0  0  0  0  0  0  0  0  0
   15.5475   -0.5685  -16.4421 S   0  0  0  0  0  0  0  0  0  0  0  0
   17.3421   -0.8073  -16.4346 C   0  0  0  0  0  0  0  0  0  0  0  0
   17.7357   -2.2071  -16.0811 C   0  0  0  0  0  0  0  0  0  0  0  0
   19.2100   -2.3984  -16.1150 C   0  0  2  0  0  0  0  0  0  0  0  0
   19.5841   -3.7354  -15.6536 N   0  0  0  0  0  0  0  0  0  0  0  0
   19.8849   -1.4307  -15.2385 C   0  0  0  0  0  0  0  0  0  0  0  0
   20.1198   -1.7559  -14.0345 O   0  0  0  0  0  0  0  0  0  0  0  0
   20.2764   -0.1850  -15.6694 O   0  0  0  0  0  0  0  0  0  0  0  0
  1  5  1  0
  1  2  1  0
  2  3  1  0
  4  3  1  0
  5  4  1  0
  5  6  1  1
  7  6  2  0
  8  6  1  0
  9  8  1  0
 10 11  1  0
  9 10  1  6
 11 16  1  0
 11 12  2  0
 12 13  1  0
 13 14  2  0
 15 14  1  0
 16 15  2  0
 17 24  1  0
 17  9  1  0
 18 17  2  0
 20 19  1  0
 21 20  1  0
 22 21  1  0
 23 22  1  1
 23 24  1  0
 25 23  1  0
 26 25  2  0
 27 25  1  0
M  END
$$$$
