PFM.pdb
     RDKit          3D

 27 28  0  0  1  0  0  0  0  0999 V2000
   26.8001  -19.8157  -14.9736 N   0  0  0  0  0  0  0  0  0  0  0  0
   28.0931  -19.3178  -15.3248 C   0  0  0  0  0  0  0  0  0  0  0  0
   29.0231  -20.1195  -14.4510 C   0  0  0  0  0  0  0  0  0  0  0  0
   28.4089  -21.5196  -14.5769 C   0  0  0  0  0  0  0  0  0  0  0  0
   26.9257  -21.1733  -14.5448 C   0  0  1  0  0  0  0  0  0  0  0  0
   26.4096  -21.3715  -13.1606 C   0  0  0  0  0  0  0  0  0  0  0  0
   26.3916  -22.5269  -12.6693 O   0  0  0  0  0  0  0  0  0  0  0  0
   25.9320  -20.3118  -12.3589 N   0  0  0  0  0  0  0  0  0  0  0  0
   25.4124  -20.5073  -11.0240 C   0  0  1  0  0  0  0  0  0  0  0  0
   25.9431  -19.3746  -10.1978 C   0  0  0  0  0  0  0  0  0  0  0  0
   26.4114  -19.7115   -8.8620 C   0  0  0  0  0  0  0  0  0  0  0  0
   25.6185  -19.4200   -7.7729 C   0  0  0  0  0  0  0  0  0  0  0  0
   26.0138  -19.7218   -6.4837 C   0  0  0  0  0  0  0  0  0  0  0  0
   27.2243  -20.3279   -6.2563 C   0  0  0  0  0  0  0  0  0  0  0  0
   28.0487  -20.6346   -7.3438 C   0  0  0  0  0  0  0  0  0  0  0  0
   27.6227  -20.3203   -8.6075 C   0  0  0  0  0  0  0  0  0  0  0  0
   23.9355  -20.5332  -11.0034 C   0  0  0  0  0  0  0  0  0  0  0  0
   23.2868  -19.9390  -11.9020 O   0  0  0  0  0  0  0  0  0  0  0  0
   20.2743  -23.5331   -6.3742 C   0  0  0  0  0  0  0  0  0  0  0  0
   19.1959  -23.7080   -7.8231 S   0  0  0  0  0  0  0  0  0  0  0  0
   19.7800  -22.5399   -9.0769 C   0  0  0  0  0  0  0  0  0  0  0  0
   21.2603  -22.3279   -9.0219 C   0  0  0  0  0  0  0  0  0  0  0  0
   21.7400  -21.4477  -10.1202 C   0  0  2  0  0  0  0  0  0  0  0  0
   23.1778  -21.1993  -10.0142 N   0  0  0  0  0  0  0  0  0  0  0  0
   21.0681  -20.1411  -10.0769 C   0  0  0  0  0  0  0  0  0  0  0  0
   21.6628  -19.1656   -9.5244 O   0  0  0  0  0  0  0  0  0  0  0  0
   19.8200  -19.9293  -10.6134 O   0  0  0  0  0  0  0  0  0  0  0  0
  1  5  1  0
  1  2  1  0
  2  3  1  0
  4  3  1  0
  5  4  1  0
  5  6  1  1
  7  6  2  0
  8  6  1  0
  9  8  1  0
 10 11  1  0
  9 10  1  1
 11 16  1  0
 11 12  2  0
 12 13  1  0
 13 14  2  0
 15 14  1  0
 16 15  2  0
 17 24  1  0
 17  9  1  0
 18 17  2  0
 20 19  1  0
 21 20  1  0
 22 21  1  0
 23 22  1  1
 23 24  1  0
 25 23  1  0
 26 25  2  0
 27 25  1  0
M  END
$$$$
