PFM.pdb
     RDKit          3D

 27 28  0  0  1  0  0  0  0  0999 V2000
   24.2247  -21.4045  -15.6295 N   0  0  0  0  0  0  0  0  0  0  0  0
   24.3261  -20.7781  -16.9104 C   0  0  0  0  0  0  0  0  0  0  0  0
   25.7852  -20.9286  -17.2560 C   0  0  0  0  0  0  0  0  0  0  0  0
   26.0435  -22.3743  -16.8129 C   0  0  0  0  0  0  0  0  0  0  0  0
   25.2272  -22.4181  -15.5274 C   0  0  1  0  0  0  0  0  0  0  0  0
   26.1345  -22.1909  -14.3669 C   0  0  0  0  0  0  0  0  0  0  0  0
   27.0784  -22.9919  -14.1568 O   0  0  0  0  0  0  0  0  0  0  0  0
   25.9868  -21.1051  -13.4764 N   0  0  0  0  0  0  0  0  0  0  0  0
   26.8319  -20.9164  -12.3185 C   0  0  1  0  0  0  0  0  0  0  0  0
   27.3892  -19.5292  -12.4284 C   0  0  0  0  0  0  0  0  0  0  0  0
   28.3361  -19.1284  -11.3989 C   0  0  0  0  0  0  0  0  0  0  0  0
   27.9034  -18.3503  -10.3466 C   0  0  0  0  0  0  0  0  0  0  0  0
   28.7600  -17.9451   -9.3410 C   0  0  0  0  0  0  0  0  0  0  0  0
   30.0817  -18.3147   -9.3688 C   0  0  0  0  0  0  0  0  0  0  0  0
   30.5473  -19.1042  -10.4253 C   0  0  0  0  0  0  0  0  0  0  0  0
   29.6681  -19.4865  -11.4041 C   0  0  0  0  0  0  0  0  0  0  0  0
   26.0865  -21.0908  -11.0551 C   0  0  0  0  0  0  0  0  0  0  0  0
   24.8654  -20.7946  -11.0032 O   0  0  0  0  0  0  0  0  0  0  0  0
   29.0263  -20.9813   -5.2559 C   0  0  0  0  0  0  0  0  0  0  0  0
   27.3948  -20.2733   -4.8948 S   0  0  0  0  0  0  0  0  0  0  0  0
   26.2619  -20.8359   -6.1901 C   0  0  0  0  0  0  0  0  0  0  0  0
   26.9227  -20.9389   -7.5288 C   0  0  0  0  0  0  0  0  0  0  0  0
   26.0174  -21.5199   -8.5555 C   0  0  2  0  0  0  0  0  0  0  0  0
   26.6676  -21.5822   -9.8647 N   0  0  0  0  0  0  0  0  0  0  0  0
   24.8057  -20.7023   -8.7097 C   0  0  0  0  0  0  0  0  0  0  0  0
   23.7794  -20.9942   -8.0227 O   0  0  0  0  0  0  0  0  0  0  0  0
   24.7374  -19.6296   -9.5672 O   0  0  0  0  0  0  0  0  0  0  0  0
  1  5  1  0
  1  2  1  0
  2  3  1  0
  4  3  1  0
  5  4  1  0
  5  6  1  1
  7  6  2  0
  8  6  1  0
  9  8  1  0
 10 11  1  0
  9 10  1  1
 11 16  1  0
 11 12  2  0
 12 13  1  0
 13 14  2  0
 15 14  1  0
 16 15  2  0
 17 24  1  0
 17  9  1  0
 18 17  2  0
 20 19  1  0
 21 20  1  0
 22 21  1  0
 23 22  1  1
 23 24  1  0
 25 23  1  0
 26 25  2  0
 27 25  1  0
M  END
$$$$
