PFM.pdb
     RDKit          3D

 27 28  0  0  1  0  0  0  0  0999 V2000
   25.3744   -9.1116  -20.9957 N   0  0  0  0  0  0  0  0  0  0  0  0
   25.0406   -8.6018  -22.2887 C   0  0  0  0  0  0  0  0  0  0  0  0
   24.1952   -7.3935  -21.9780 C   0  0  0  0  0  0  0  0  0  0  0  0
   24.9855   -6.7736  -20.8184 C   0  0  0  0  0  0  0  0  0  0  0  0
   25.3943   -8.0305  -20.0610 C   0  0  1  0  0  0  0  0  0  0  0  0
   24.4441   -8.2499  -18.9337 C   0  0  0  0  0  0  0  0  0  0  0  0
   23.4238   -8.9585  -19.1171 O   0  0  0  0  0  0  0  0  0  0  0  0
   24.6331   -7.6944  -17.6494 N   0  0  0  0  0  0  0  0  0  0  0  0
   23.7752   -7.9990  -16.5263 C   0  0  1  0  0  0  0  0  0  0  0  0
   24.6841   -8.2484  -15.3606 C   0  0  0  0  0  0  0  0  0  0  0  0
   25.4194   -9.5040  -15.3699 C   0  0  0  0  0  0  0  0  0  0  0  0
   26.6754   -9.5490  -15.9359 C   0  0  0  0  0  0  0  0  0  0  0  0
   27.4175  -10.7142  -15.9681 C   0  0  0  0  0  0  0  0  0  0  0  0
   26.9115  -11.8706  -15.4286 C   0  0  0  0  0  0  0  0  0  0  0  0
   25.6391  -11.8529  -14.8480 C   0  0  0  0  0  0  0  0  0  0  0  0
   24.9332  -10.6787  -14.8348 C   0  0  0  0  0  0  0  0  0  0  0  0
   22.8306   -6.9005  -16.2376 C   0  0  0  0  0  0  0  0  0  0  0  0
   23.1768   -5.7085  -16.4391 O   0  0  0  0  0  0  0  0  0  0  0  0
   20.1456   -2.4925  -18.7770 C   0  0  0  0  0  0  0  0  0  0  0  0
   18.7433   -3.5244  -18.2651 S   0  0  0  0  0  0  0  0  0  0  0  0
   19.1884   -4.3005  -16.6912 C   0  0  0  0  0  0  0  0  0  0  0  0
   20.1474   -5.4368  -16.8599 C   0  0  0  0  0  0  0  0  0  0  0  0
   20.5477   -6.0285  -15.5557 C   0  0  2  0  0  0  0  0  0  0  0  0
   21.5253   -7.1020  -15.7357 N   0  0  0  0  0  0  0  0  0  0  0  0
   19.3873   -6.6078  -14.8641 C   0  0  0  0  0  0  0  0  0  0  0  0
   18.5508   -5.8277  -14.3144 O   0  0  0  0  0  0  0  0  0  0  0  0
   19.1673   -7.9630  -14.7893 O   0  0  0  0  0  0  0  0  0  0  0  0
  1  5  1  0
  1  2  1  0
  2  3  1  0
  4  3  1  0
  5  4  1  0
  5  6  1  1
  7  6  2  0
  8  6  1  0
  9  8  1  0
 10 11  1  0
  9 10  1  1
 11 16  1  0
 11 12  2  0
 12 13  1  0
 13 14  2  0
 15 14  1  0
 16 15  2  0
 17 24  1  0
 17  9  1  0
 18 17  2  0
 20 19  1  0
 21 20  1  0
 22 21  1  0
 23 22  1  6
 23 24  1  0
 25 23  1  0
 26 25  2  0
 27 25  1  0
M  END
$$$$
