PFM.pdb
     RDKit          3D

 27 28  0  0  1  0  0  0  0  0999 V2000
   30.5686  -20.7377  -10.5114 N   0  0  0  0  0  0  0  0  0  0  0  0
   31.8092  -20.9199   -9.8251 C   0  0  0  0  0  0  0  0  0  0  0  0
   31.4942  -21.9956   -8.8178 C   0  0  0  0  0  0  0  0  0  0  0  0
   30.6577  -22.9587   -9.6700 C   0  0  0  0  0  0  0  0  0  0  0  0
   29.8372  -21.9653  -10.4828 C   0  0  1  0  0  0  0  0  0  0  0  0
   28.4994  -21.8031   -9.8460 C   0  0  0  0  0  0  0  0  0  0  0  0
   27.7381  -22.7971   -9.7501 O   0  0  0  0  0  0  0  0  0  0  0  0
   28.0346  -20.5710   -9.3363 N   0  0  0  0  0  0  0  0  0  0  0  0
   26.7057  -20.3945   -8.7949 C   0  0  1  0  0  0  0  0  0  0  0  0
   26.8133  -19.3097   -7.7659 C   0  0  0  0  0  0  0  0  0  0  0  0
   27.5234  -19.6469   -6.5414 C   0  0  0  0  0  0  0  0  0  0  0  0
   28.4803  -18.7830   -6.0537 C   0  0  0  0  0  0  0  0  0  0  0  0
   29.1811  -19.0533   -4.8939 C   0  0  0  0  0  0  0  0  0  0  0  0
   28.9354  -20.2067   -4.1912 C   0  0  0  0  0  0  0  0  0  0  0  0
   27.9694  -21.1010   -4.6640 C   0  0  0  0  0  0  0  0  0  0  0  0
   27.2949  -20.7987   -5.8177 C   0  0  0  0  0  0  0  0  0  0  0  0
   25.7247  -20.0390   -9.8407 C   0  0  0  0  0  0  0  0  0  0  0  0
   25.7849  -18.9134  -10.3981 O   0  0  0  0  0  0  0  0  0  0  0  0
   24.1091  -24.5036  -13.8902 C   0  0  0  0  0  0  0  0  0  0  0  0
   23.5242  -23.0720  -14.8397 S   0  0  0  0  0  0  0  0  0  0  0  0
   23.2779  -21.7113  -13.6711 C   0  0  0  0  0  0  0  0  0  0  0  0
   24.1335  -21.8384  -12.4500 C   0  0  0  0  0  0  0  0  0  0  0  0
   23.9311  -20.7077  -11.5057 C   0  0  2  0  0  0  0  0  0  0  0  0
   24.6922  -20.9019  -10.2715 N   0  0  0  0  0  0  0  0  0  0  0  0
   22.5155  -20.5852  -11.1296 C   0  0  0  0  0  0  0  0  0  0  0  0
   21.6662  -20.3000  -12.0285 O   0  0  0  0  0  0  0  0  0  0  0  0
   22.0703  -20.7696   -9.8418 O   0  0  0  0  0  0  0  0  0  0  0  0
  1  5  1  0
  1  2  1  0
  2  3  1  0
  4  3  1  0
  5  4  1  0
  5  6  1  1
  7  6  2  0
  8  6  1  0
  9  8  1  0
 10 11  1  0
  9 10  1  1
 11 16  1  0
 11 12  2  0
 12 13  1  0
 13 14  2  0
 15 14  1  0
 16 15  2  0
 17 24  1  0
 17  9  1  0
 18 17  2  0
 20 19  1  0
 21 20  1  0
 22 21  1  0
 23 22  1  6
 23 24  1  0
 25 23  1  0
 26 25  2  0
 27 25  1  0
M  END
$$$$
