PFM.pdb
     RDKit          3D

 27 28  0  0  1  0  0  0  0  0999 V2000
   27.4488  -21.0769  -17.5356 N   0  0  0  0  0  0  0  0  0  0  0  0
   28.8165  -20.6968  -17.7035 C   0  0  0  0  0  0  0  0  0  0  0  0
   29.5373  -21.5302  -16.6753 C   0  0  0  0  0  0  0  0  0  0  0  0
   28.8337  -22.8823  -16.8489 C   0  0  0  0  0  0  0  0  0  0  0  0
   27.3961  -22.4205  -17.0512 C   0  0  1  0  0  0  0  0  0  0  0  0
   26.6668  -22.5182  -15.7550 C   0  0  0  0  0  0  0  0  0  0  0  0
   26.5581  -23.6353  -15.1919 O   0  0  0  0  0  0  0  0  0  0  0  0
   26.0818  -21.4033  -15.1158 N   0  0  0  0  0  0  0  0  0  0  0  0
   25.3208  -21.5081  -13.8910 C   0  0  1  0  0  0  0  0  0  0  0  0
   25.9405  -20.5399  -12.9288 C   0  0  0  0  0  0  0  0  0  0  0  0
   25.4056  -20.5400  -11.5756 C   0  0  0  0  0  0  0  0  0  0  0  0
   24.2177  -19.8903  -11.3169 C   0  0  0  0  0  0  0  0  0  0  0  0
   23.6643  -19.8627  -10.0512 C   0  0  0  0  0  0  0  0  0  0  0  0
   24.2958  -20.4918   -9.0072 C   0  0  0  0  0  0  0  0  0  0  0  0
   25.5027  -21.1585   -9.2420 C   0  0  0  0  0  0  0  0  0  0  0  0
   26.0206  -21.1642  -10.5104 C   0  0  0  0  0  0  0  0  0  0  0  0
   23.8901  -21.2061  -14.1009 C   0  0  0  0  0  0  0  0  0  0  0  0
   23.5515  -20.1137  -14.6238 O   0  0  0  0  0  0  0  0  0  0  0  0
   19.4773  -25.5858  -15.1696 C   0  0  0  0  0  0  0  0  0  0  0  0
   18.2924  -24.2168  -15.0459 S   0  0  0  0  0  0  0  0  0  0  0  0
   19.2210  -22.7388  -14.5656 C   0  0  0  0  0  0  0  0  0  0  0  0
   20.6789  -23.0129  -14.3687 C   0  0  0  0  0  0  0  0  0  0  0  0
   21.4262  -21.7943  -13.9591 C   0  0  2  0  0  0  0  0  0  0  0  0
   22.8437  -22.0860  -13.7443 N   0  0  0  0  0  0  0  0  0  0  0  0
   20.8973  -21.2532  -12.6990 C   0  0  0  0  0  0  0  0  0  0  0  0
   21.4601  -21.5792  -11.6093 O   0  0  0  0  0  0  0  0  0  0  0  0
   19.8169  -20.4040  -12.6505 O   0  0  0  0  0  0  0  0  0  0  0  0
  1  5  1  0
  1  2  1  0
  2  3  1  0
  4  3  1  0
  5  4  1  0
  5  6  1  1
  7  6  2  0
  8  6  1  0
  9  8  1  0
 10 11  1  0
  9 10  1  1
 11 16  1  0
 11 12  2  0
 12 13  1  0
 13 14  2  0
 15 14  1  0
 16 15  2  0
 17 24  1  0
 17  9  1  0
 18 17  2  0
 20 19  1  0
 21 20  1  0
 22 21  1  0
 23 22  1  1
 23 24  1  0
 25 23  1  0
 26 25  2  0
 27 25  1  0
M  END
$$$$
