PFM.pdb
     RDKit          3D

 27 28  0  0  1  0  0  0  0  0999 V2000
   27.9665  -21.7936  -17.2750 N   0  0  0  0  0  0  0  0  0  0  0  0
   29.1441  -22.3240  -17.8876 C   0  0  0  0  0  0  0  0  0  0  0  0
   30.0260  -22.6590  -16.7124 C   0  0  0  0  0  0  0  0  0  0  0  0
   29.0094  -23.2938  -15.7549 C   0  0  0  0  0  0  0  0  0  0  0  0
   27.8109  -22.3809  -15.9813 C   0  0  1  0  0  0  0  0  0  0  0  0
   27.7716  -21.3529  -14.9028 C   0  0  0  0  0  0  0  0  0  0  0  0
   28.7150  -20.5305  -14.8009 O   0  0  0  0  0  0  0  0  0  0  0  0
   26.7127  -21.2528  -13.9741 N   0  0  0  0  0  0  0  0  0  0  0  0
   26.6893  -20.2745  -12.9098 C   0  0  1  0  0  0  0  0  0  0  0  0
   25.6024  -19.3026  -13.2580 C   0  0  0  0  0  0  0  0  0  0  0  0
   25.9192  -18.3154  -14.2788 C   0  0  0  0  0  0  0  0  0  0  0  0
   25.4096  -18.4687  -15.5504 C   0  0  0  0  0  0  0  0  0  0  0  0
   25.6765  -17.5589  -16.5556 C   0  0  0  0  0  0  0  0  0  0  0  0
   26.4677  -16.4654  -16.3055 C   0  0  0  0  0  0  0  0  0  0  0  0
   26.9979  -16.2858  -15.0237 C   0  0  0  0  0  0  0  0  0  0  0  0
   26.7112  -17.2090  -14.0528 C   0  0  0  0  0  0  0  0  0  0  0  0
   26.4440  -20.8961  -11.5923 C   0  0  0  0  0  0  0  0  0  0  0  0
   25.7630  -21.9504  -11.5150 O   0  0  0  0  0  0  0  0  0  0  0  0
   29.3812  -20.0101   -5.6018 C   0  0  0  0  0  0  0  0  0  0  0  0
   27.6205  -19.7190   -5.2728 S   0  0  0  0  0  0  0  0  0  0  0  0
   26.6839  -20.4914   -6.6160 C   0  0  0  0  0  0  0  0  0  0  0  0
   27.1587  -20.0645   -7.9693 C   0  0  0  0  0  0  0  0  0  0  0  0
   26.5425  -20.8694   -9.0573 C   0  0  2  0  0  0  0  0  0  0  0  0
   26.9362  -20.3725  -10.3758 N   0  0  0  0  0  0  0  0  0  0  0  0
   25.0756  -20.8080   -8.9890 C   0  0  0  0  0  0  0  0  0  0  0  0
   24.4746  -19.8629   -9.5858 O   0  0  0  0  0  0  0  0  0  0  0  0
   24.3240  -21.7352   -8.3063 O   0  0  0  0  0  0  0  0  0  0  0  0
  1  5  1  0
  1  2  1  0
  2  3  1  0
  4  3  1  0
  5  4  1  0
  5  6  1  1
  7  6  2  0
  8  6  1  0
  9  8  1  0
 10 11  1  0
  9 10  1  6
 11 16  1  0
 11 12  2  0
 12 13  1  0
 13 14  2  0
 15 14  1  0
 16 15  2  0
 17 24  1  0
 17  9  1  0
 18 17  2  0
 20 19  1  0
 21 20  1  0
 22 21  1  0
 23 22  1  1
 23 24  1  0
 25 23  1  0
 26 25  2  0
 27 25  1  0
M  END
$$$$
