PFM.pdb
     RDKit          3D

 27 28  0  0  1  0  0  0  0  0999 V2000
   27.0863  -19.9920  -16.3217 N   0  0  0  0  0  0  0  0  0  0  0  0
   28.4418  -19.5384  -16.3195 C   0  0  0  0  0  0  0  0  0  0  0  0
   29.0966  -20.4058  -15.2755 C   0  0  0  0  0  0  0  0  0  0  0  0
   28.4876  -21.7740  -15.6077 C   0  0  0  0  0  0  0  0  0  0  0  0
   27.0558  -21.3666  -15.9313 C   0  0  1  0  0  0  0  0  0  0  0  0
   26.2036  -21.5864  -14.7284 C   0  0  0  0  0  0  0  0  0  0  0  0
   26.0881  -22.7451  -14.2585 O   0  0  0  0  0  0  0  0  0  0  0  0
   25.5077  -20.5439  -14.0781 N   0  0  0  0  0  0  0  0  0  0  0  0
   24.7358  -20.7455  -12.8724 C   0  0  1  0  0  0  0  0  0  0  0  0
   25.1425  -19.6550  -11.9275 C   0  0  0  0  0  0  0  0  0  0  0  0
   25.6565  -20.0778  -10.6336 C   0  0  0  0  0  0  0  0  0  0  0  0
   24.8674  -19.9363   -9.5123 C   0  0  0  0  0  0  0  0  0  0  0  0
   25.3055  -20.3248   -8.2607 C   0  0  0  0  0  0  0  0  0  0  0  0
   26.5562  -20.8687   -8.1046 C   0  0  0  0  0  0  0  0  0  0  0  0
   27.3776  -21.0234   -9.2260 C   0  0  0  0  0  0  0  0  0  0  0  0
   26.9086  -20.6267  -10.4507 C   0  0  0  0  0  0  0  0  0  0  0  0
   23.2822  -20.7075  -13.1331 C   0  0  0  0  0  0  0  0  0  0  0  0
   22.8282  -19.9615  -14.0379 O   0  0  0  0  0  0  0  0  0  0  0  0
   18.9539  -24.6858  -10.2495 C   0  0  0  0  0  0  0  0  0  0  0  0
   17.9134  -24.0573  -11.5969 S   0  0  0  0  0  0  0  0  0  0  0  0
   18.7409  -22.6020  -12.2862 C   0  0  0  0  0  0  0  0  0  0  0  0
   20.2087  -22.5819  -11.9953 C   0  0  0  0  0  0  0  0  0  0  0  0
   20.9018  -21.4678  -12.6949 C   0  0  2  0  0  0  0  0  0  0  0  0
   22.3377  -21.4745  -12.4148 N   0  0  0  0  0  0  0  0  0  0  0  0
   20.3786  -20.1663  -12.2559 C   0  0  0  0  0  0  0  0  0  0  0  0
   20.8109  -19.6674  -11.1720 O   0  0  0  0  0  0  0  0  0  0  0  0
   19.4397  -19.4627  -12.9729 O   0  0  0  0  0  0  0  0  0  0  0  0
  1  5  1  0
  1  2  1  0
  2  3  1  0
  4  3  1  0
  5  4  1  0
  5  6  1  1
  7  6  2  0
  8  6  1  0
  9  8  1  0
 10 11  1  0
  9 10  1  1
 11 16  1  0
 11 12  2  0
 12 13  1  0
 13 14  2  0
 15 14  1  0
 16 15  2  0
 17 24  1  0
 17  9  1  0
 18 17  2  0
 20 19  1  0
 21 20  1  0
 22 21  1  0
 23 22  1  1
 23 24  1  0
 25 23  1  0
 26 25  2  0
 27 25  1  0
M  END
$$$$
