SCI.pdb
     RDKit          3D

 21 20  0  0  1  0  0  0  0  0999 V2000
    9.9436  -15.5963   20.0039 O   0  0  0  0  0  0  0  0  0  0  0  0
    9.7980  -16.9225   19.5589 C   0  0  0  0  0  0  0  0  0  0  0  0
    8.3201  -17.1529   19.3393 C   0  0  2  0  0  0  0  0  0  0  0  0
    7.8323  -16.5261   18.1479 N   0  0  0  0  0  0  0  0  0  0  0  0
    7.5456  -16.7700   20.5482 C   0  0  0  0  0  0  0  0  0  0  0  0
    6.6035  -15.9414   20.5259 O   0  0  0  0  0  0  0  0  0  0  0  0
    7.8592  -17.3496   21.8056 N   0  0  0  0  0  0  0  0  0  0  0  0
    7.1750  -17.0985   23.0313 C   0  0  1  0  0  0  0  0  0  0  0  0
    6.5748  -18.3166   23.6679 C   0  0  0  0  0  0  0  0  0  0  0  0
    6.3523  -18.0777   25.4352 S   0  0  0  0  0  0  0  0  0  0  0  0
    8.0362  -16.3847   24.0241 C   0  0  0  0  0  0  0  0  0  0  0  0
    9.2548  -16.6607   24.1242 O   0  0  0  0  0  0  0  0  0  0  0  0
    5.5394  -11.8615   26.3419 C   0  0  0  0  0  0  0  0  0  0  0  0
    6.5974  -12.6474   25.5520 C   0  0  0  0  0  0  0  0  0  0  0  0
    7.3056  -13.5670   26.4928 C   0  0  2  0  0  0  0  0  0  0  0  0
    8.0347  -12.7344   27.5097 C   0  0  0  0  0  0  0  0  0  0  0  0
    8.1322  -14.6019   25.8330 C   0  0  2  0  0  0  0  0  0  0  0  0
    7.4397  -15.3936   24.8436 N   0  0  0  0  0  0  0  0  0  0  0  0
    8.9195  -15.4721   26.7261 C   0  0  0  0  0  0  0  0  0  0  0  0
   10.2464  -15.1863   26.9728 O   0  0  0  0  0  0  0  0  0  0  0  0
    8.4546  -16.4865   27.3001 O   0  0  0  0  0  0  0  0  0  0  0  0
  2  1  1  0
  3  2  1  0
  3  4  1  6
  5  3  1  0
  5  6  2  0
  7  5  1  0
  8  7  1  0
  8 11  1  0
  8  9  1  1
 10  9  1  0
 11 18  1  0
 11 12  2  0
 13 14  1  0
 14 15  1  0
 15 16  1  1
 17 15  1  0
 17 18  1  1
 19 20  1  0
 19 17  1  0
 21 19  2  0
M  END
$$$$
