SCI.pdb
     RDKit          3D

 21 20  0  0  1  0  0  0  0  0999 V2000
    9.8648  -12.5021   19.8564 O   0  0  0  0  0  0  0  0  0  0  0  0
   10.3150  -13.6459   19.1728 C   0  0  0  0  0  0  0  0  0  0  0  0
    9.1049  -14.2706   18.5162 C   0  0  2  0  0  0  0  0  0  0  0  0
    8.4352  -13.3751   17.6219 N   0  0  0  0  0  0  0  0  0  0  0  0
    8.1949  -14.8485   19.5387 C   0  0  0  0  0  0  0  0  0  0  0  0
    7.0583  -15.3053   19.2663 O   0  0  0  0  0  0  0  0  0  0  0  0
    8.5979  -14.9026   20.8989 N   0  0  0  0  0  0  0  0  0  0  0  0
    8.0275  -15.7394   21.9029 C   0  0  1  0  0  0  0  0  0  0  0  0
    8.0446  -17.2027   21.5745 C   0  0  0  0  0  0  0  0  0  0  0  0
    7.5999  -18.1908   23.0082 S   0  0  0  0  0  0  0  0  0  0  0  0
    8.6498  -15.5177   23.2447 C   0  0  0  0  0  0  0  0  0  0  0  0
    9.8907  -15.6123   23.3942 O   0  0  0  0  0  0  0  0  0  0  0  0
    6.6137  -11.4198   27.2561 C   0  0  0  0  0  0  0  0  0  0  0  0
    7.7243  -12.4321   26.9357 C   0  0  0  0  0  0  0  0  0  0  0  0
    7.2403  -13.3401   25.8523 C   0  0  2  0  0  0  0  0  0  0  0  0
    5.8577  -13.8087   26.2097 C   0  0  0  0  0  0  0  0  0  0  0  0
    8.1850  -14.4195   25.4892 C   0  0  2  0  0  0  0  0  0  0  0  0
    7.8025  -15.1997   24.3358 N   0  0  0  0  0  0  0  0  0  0  0  0
    8.6137  -15.3051   26.5876 C   0  0  0  0  0  0  0  0  0  0  0  0
    9.3629  -14.7982   27.6292 O   0  0  0  0  0  0  0  0  0  0  0  0
    8.3353  -16.5273   26.6481 O   0  0  0  0  0  0  0  0  0  0  0  0
  2  1  1  0
  3  2  1  0
  3  4  1  1
  5  3  1  0
  5  6  2  0
  7  5  1  0
  8  7  1  0
  8 11  1  0
  8  9  1  6
 10  9  1  0
 11 18  1  0
 11 12  2  0
 13 14  1  0
 14 15  1  0
 15 16  1  1
 17 15  1  0
 17 18  1  6
 19 20  1  0
 19 17  1  0
 21 19  2  0
M  END
$$$$
