SCI.pdb
     RDKit          3D

 21 20  0  0  1  0  0  0  0  0999 V2000
    9.2187  -17.1228   18.2998 O   0  0  0  0  0  0  0  0  0  0  0  0
    8.5746  -16.6097   19.4399 C   0  0  0  0  0  0  0  0  0  0  0  0
    7.4783  -17.5855   19.8023 C   0  0  2  0  0  0  0  0  0  0  0  0
    6.4599  -17.6726   18.7996 N   0  0  0  0  0  0  0  0  0  0  0  0
    6.9325  -17.2820   21.1506 C   0  0  0  0  0  0  0  0  0  0  0  0
    6.0491  -16.4144   21.3541 O   0  0  0  0  0  0  0  0  0  0  0  0
    7.4103  -17.9882   22.2857 N   0  0  0  0  0  0  0  0  0  0  0  0
    7.0502  -17.7267   23.6405 C   0  0  1  0  0  0  0  0  0  0  0  0
    6.9269  -18.9513   24.4974 C   0  0  0  0  0  0  0  0  0  0  0  0
    6.5300  -18.5139   26.1947 S   0  0  0  0  0  0  0  0  0  0  0  0
    7.9738  -16.7476   24.2924 C   0  0  0  0  0  0  0  0  0  0  0  0
    9.2052  -16.7825   24.0605 O   0  0  0  0  0  0  0  0  0  0  0  0
    5.4058  -12.3090   26.7147 C   0  0  0  0  0  0  0  0  0  0  0  0
    6.3947  -13.0405   25.7938 C   0  0  0  0  0  0  0  0  0  0  0  0
    7.3558  -13.8068   26.6430 C   0  0  2  0  0  0  0  0  0  0  0  0
    8.1428  -12.8280   27.4685 C   0  0  0  0  0  0  0  0  0  0  0  0
    8.1753  -14.7931   25.9047 C   0  0  2  0  0  0  0  0  0  0  0  0
    7.4215  -15.7849   25.1744 N   0  0  0  0  0  0  0  0  0  0  0  0
    9.2633  -15.4345   26.6660 C   0  0  0  0  0  0  0  0  0  0  0  0
    8.9812  -16.4735   27.5286 O   0  0  0  0  0  0  0  0  0  0  0  0
   10.4684  -15.0950   26.5819 O   0  0  0  0  0  0  0  0  0  0  0  0
  2  1  1  0
  3  2  1  0
  3  4  1  6
  5  3  1  0
  5  6  2  0
  7  5  1  0
  8  7  1  0
  8 11  1  0
  8  9  1  1
 10  9  1  0
 11 18  1  0
 11 12  2  0
 13 14  1  0
 14 15  1  0
 15 16  1  6
 17 15  1  0
 17 18  1  1
 19 20  1  0
 19 17  1  0
 21 19  2  0
M  END
$$$$
