SCI.pdb
     RDKit          3D

 21 20  0  0  1  0  0  0  0  0999 V2000
   10.9362  -17.9926   18.9469 O   0  0  0  0  0  0  0  0  0  0  0  0
   10.1391  -17.3278   19.8959 C   0  0  0  0  0  0  0  0  0  0  0  0
    8.7299  -17.8496   19.7297 C   0  0  2  0  0  0  0  0  0  0  0  0
    8.2205  -17.6582   18.4052 N   0  0  0  0  0  0  0  0  0  0  0  0
    7.8369  -17.2869   20.7754 C   0  0  0  0  0  0  0  0  0  0  0  0
    6.8610  -16.5418   20.5164 O   0  0  0  0  0  0  0  0  0  0  0  0
    8.0693  -17.5857   22.1437 N   0  0  0  0  0  0  0  0  0  0  0  0
    7.2853  -17.1226   23.2412 C   0  0  1  0  0  0  0  0  0  0  0  0
    6.6872  -18.2124   24.0802 C   0  0  0  0  0  0  0  0  0  0  0  0
    7.6182  -18.4410   25.6002 S   0  0  0  0  0  0  0  0  0  0  0  0
    8.0405  -16.1723   24.1149 C   0  0  0  0  0  0  0  0  0  0  0  0
    9.2833  -16.2752   24.2420 O   0  0  0  0  0  0  0  0  0  0  0  0
    6.6832  -10.7422   26.8556 C   0  0  0  0  0  0  0  0  0  0  0  0
    7.6678  -11.9161   26.7400 C   0  0  0  0  0  0  0  0  0  0  0  0
    7.0150  -13.0072   25.9554 C   0  0  2  0  0  0  0  0  0  0  0  0
    5.7155  -13.3588   26.6238 C   0  0  0  0  0  0  0  0  0  0  0  0
    7.8927  -14.1621   25.6630 C   0  0  2  0  0  0  0  0  0  0  0  0
    7.3163  -15.1584   24.7911 N   0  0  0  0  0  0  0  0  0  0  0  0
    8.5290  -14.8062   26.8270 C   0  0  0  0  0  0  0  0  0  0  0  0
    9.5171  -14.1445   27.5262 O   0  0  0  0  0  0  0  0  0  0  0  0
    8.2254  -15.9501   27.2443 O   0  0  0  0  0  0  0  0  0  0  0  0
  2  1  1  0
  3  2  1  0
  3  4  1  6
  5  3  1  0
  5  6  2  0
  7  5  1  0
  8  7  1  0
  8 11  1  0
  8  9  1  1
 10  9  1  0
 11 18  1  0
 11 12  2  0
 13 14  1  0
 14 15  1  0
 15 16  1  1
 17 15  1  0
 17 18  1  1
 19 20  1  0
 19 17  1  0
 21 19  2  0
M  END
$$$$
