SCI.pdb
     RDKit          3D

 21 20  0  0  1  0  0  0  0  0999 V2000
    3.3283  -19.0823   22.5005 O   0  0  0  0  0  0  0  0  0  0  0  0
    3.3615  -17.9447   21.6741 C   0  0  0  0  0  0  0  0  0  0  0  0
    4.4952  -18.1457   20.6943 C   0  0  2  0  0  0  0  0  0  0  0  0
    4.2377  -19.1968   19.7567 N   0  0  0  0  0  0  0  0  0  0  0  0
    5.7835  -18.3205   21.4137 C   0  0  0  0  0  0  0  0  0  0  0  0
    6.3682  -19.4261   21.5156 O   0  0  0  0  0  0  0  0  0  0  0  0
    6.4115  -17.2048   22.0270 N   0  0  0  0  0  0  0  0  0  0  0  0
    7.7192  -17.1949   22.5957 C   0  0  1  0  0  0  0  0  0  0  0  0
    8.8071  -17.6257   21.6576 C   0  0  0  0  0  0  0  0  0  0  0  0
    8.9315  -16.5071   20.2565 S   0  0  0  0  0  0  0  0  0  0  0  0
    8.0663  -15.8684   23.1930 C   0  0  0  0  0  0  0  0  0  0  0  0
    8.4597  -14.9262   22.4659 O   0  0  0  0  0  0  0  0  0  0  0  0
    6.4638  -11.5230   26.7279 C   0  0  0  0  0  0  0  0  0  0  0  0
    7.6966  -12.3963   26.4481 C   0  0  0  0  0  0  0  0  0  0  0  0
    7.2560  -13.6145   25.7037 C   0  0  2  0  0  0  0  0  0  0  0  0
    6.1207  -14.2463   26.4593 C   0  0  0  0  0  0  0  0  0  0  0  0
    8.3508  -14.5420   25.3423 C   0  0  2  0  0  0  0  0  0  0  0  0
    7.9389  -15.7074   24.5957 N   0  0  0  0  0  0  0  0  0  0  0  0
    9.2621  -14.9293   26.4351 C   0  0  0  0  0  0  0  0  0  0  0  0
   10.0469  -13.9751   27.0489 O   0  0  0  0  0  0  0  0  0  0  0  0
    9.3782  -16.1028   26.8644 O   0  0  0  0  0  0  0  0  0  0  0  0
  2  1  1  0
  3  2  1  0
  3  4  1  1
  5  3  1  0
  5  6  2  0
  7  5  1  0
  8  7  1  0
  8 11  1  0
  8  9  1  6
 10  9  1  0
 11 18  1  0
 11 12  2  0
 13 14  1  0
 14 15  1  0
 15 16  1  1
 17 15  1  0
 17 18  1  1
 19 20  1  0
 19 17  1  0
 21 19  2  0
M  END
$$$$
