SCI.pdb
     RDKit          3D

 21 20  0  0  1  0  0  0  0  0999 V2000
   11.4146  -16.2423   18.4602 O   0  0  0  0  0  0  0  0  0  0  0  0
   10.3860  -15.4968   19.0638 C   0  0  0  0  0  0  0  0  0  0  0  0
    9.1362  -16.3455   19.0068 C   0  0  2  0  0  0  0  0  0  0  0  0
    8.4690  -16.2656   17.7423 N   0  0  0  0  0  0  0  0  0  0  0  0
    8.2397  -16.0339   20.1499 C   0  0  0  0  0  0  0  0  0  0  0  0
    7.2476  -15.2713   20.0562 O   0  0  0  0  0  0  0  0  0  0  0  0
    8.4874  -16.6089   21.4241 N   0  0  0  0  0  0  0  0  0  0  0  0
    7.6611  -16.4638   22.5772 C   0  0  1  0  0  0  0  0  0  0  0  0
    7.0348  -17.7395   23.0565 C   0  0  0  0  0  0  0  0  0  0  0  0
    8.2687  -18.8384   23.7631 S   0  0  0  0  0  0  0  0  0  0  0  0
    8.3800  -15.8005   23.7085 C   0  0  0  0  0  0  0  0  0  0  0  0
    9.6300  -15.8527   23.7862 O   0  0  0  0  0  0  0  0  0  0  0  0
    5.6563  -11.5996   26.0773 C   0  0  0  0  0  0  0  0  0  0  0  0
    6.7823  -12.4188   25.4277 C   0  0  0  0  0  0  0  0  0  0  0  0
    7.2899  -13.4048   26.4290 C   0  0  2  0  0  0  0  0  0  0  0  0
    7.9053  -12.6458   27.5710 C   0  0  0  0  0  0  0  0  0  0  0  0
    8.1458  -14.4700   25.8614 C   0  0  2  0  0  0  0  0  0  0  0  0
    7.6133  -15.1153   24.6844 N   0  0  0  0  0  0  0  0  0  0  0  0
    8.6489  -15.4767   26.8144 C   0  0  0  0  0  0  0  0  0  0  0  0
    9.7534  -15.1978   27.5924 O   0  0  0  0  0  0  0  0  0  0  0  0
    8.1267  -16.6061   26.9772 O   0  0  0  0  0  0  0  0  0  0  0  0
  2  1  1  0
  3  2  1  0
  3  4  1  6
  5  3  1  0
  5  6  2  0
  7  5  1  0
  8  7  1  0
  8 11  1  0
  8  9  1  1
 10  9  1  0
 11 18  1  0
 11 12  2  0
 13 14  1  0
 14 15  1  0
 15 16  1  1
 17 15  1  0
 17 18  1  6
 19 20  1  0
 19 17  1  0
 21 19  2  0
M  END
$$$$
