SCI.pdb
     RDKit          3D

 21 20  0  0  1  0  0  0  0  0999 V2000
   10.9421  -16.0336   18.2010 O   0  0  0  0  0  0  0  0  0  0  0  0
    9.7463  -15.8132   18.9078 C   0  0  0  0  0  0  0  0  0  0  0  0
    9.1919  -17.1726   19.2688 C   0  0  2  0  0  0  0  0  0  0  0  0
    8.6361  -17.8614   18.1433 N   0  0  0  0  0  0  0  0  0  0  0  0
    8.2390  -17.0643   20.4038 C   0  0  0  0  0  0  0  0  0  0  0  0
    7.0209  -17.3496   20.3069 O   0  0  0  0  0  0  0  0  0  0  0  0
    8.6939  -16.6202   21.6731 N   0  0  0  0  0  0  0  0  0  0  0  0
    7.9513  -16.6761   22.8893 C   0  0  1  0  0  0  0  0  0  0  0  0
    7.5365  -18.0576   23.3001 C   0  0  0  0  0  0  0  0  0  0  0  0
    8.9698  -19.1022   23.5902 S   0  0  0  0  0  0  0  0  0  0  0  0
    8.6669  -16.0086   24.0203 C   0  0  0  0  0  0  0  0  0  0  0  0
    9.9191  -15.9555   24.0383 O   0  0  0  0  0  0  0  0  0  0  0  0
    5.7804  -11.7854   25.9240 C   0  0  0  0  0  0  0  0  0  0  0  0
    6.8942  -12.6887   25.3720 C   0  0  0  0  0  0  0  0  0  0  0  0
    7.4619  -13.4856   26.5010 C   0  0  2  0  0  0  0  0  0  0  0  0
    8.0101  -12.5319   27.5252 C   0  0  0  0  0  0  0  0  0  0  0  0
    8.3977  -14.5547   26.0875 C   0  0  2  0  0  0  0  0  0  0  0  0
    7.8944  -15.4412   25.0648 N   0  0  0  0  0  0  0  0  0  0  0  0
    9.0213  -15.3298   27.1760 C   0  0  0  0  0  0  0  0  0  0  0  0
    8.7139  -16.6653   27.3347 O   0  0  0  0  0  0  0  0  0  0  0  0
    9.8412  -14.8483   27.9949 O   0  0  0  0  0  0  0  0  0  0  0  0
  2  1  1  0
  3  2  1  0
  3  4  1  6
  5  3  1  0
  5  6  2  0
  7  5  1  0
  8  7  1  0
  8 11  1  0
  8  9  1  1
 10  9  1  0
 11 18  1  0
 11 12  2  0
 13 14  1  0
 14 15  1  0
 15 16  1  1
 17 15  1  0
 17 18  1  6
 19 20  1  0
 19 17  1  0
 21 19  2  0
M  END
$$$$
