SCI.pdb
     RDKit          3D

 21 20  0  0  1  0  0  0  0  0999 V2000
   -0.5885  -24.4428   20.6896 O   0  0  0  0  0  0  0  0  0  0  0  0
   -1.7826  -24.9099   21.2677 C   0  0  0  0  0  0  0  0  0  0  0  0
   -1.3988  -25.9743   22.2703 C   0  0  2  0  0  0  0  0  0  0  0  0
   -0.8711  -27.1534   21.6525 N   0  0  0  0  0  0  0  0  0  0  0  0
   -2.5328  -26.2639   23.1857 C   0  0  0  0  0  0  0  0  0  0  0  0
   -3.3642  -27.1810   22.9798 O   0  0  0  0  0  0  0  0  0  0  0  0
   -2.7150  -25.4858   24.3591 N   0  0  0  0  0  0  0  0  0  0  0  0
   -3.6973  -25.7171   25.3665 C   0  0  1  0  0  0  0  0  0  0  0  0
   -3.6816  -27.1018   25.9424 C   0  0  0  0  0  0  0  0  0  0  0  0
   -4.5642  -27.1600   27.5068 S   0  0  0  0  0  0  0  0  0  0  0  0
   -3.6221  -24.7120   26.4715 C   0  0  0  0  0  0  0  0  0  0  0  0
   -2.5430  -24.5113   27.0769 O   0  0  0  0  0  0  0  0  0  0  0  0
   -4.6342  -19.9310   25.2542 C   0  0  0  0  0  0  0  0  0  0  0  0
   -4.1542  -21.2186   25.9417 C   0  0  0  0  0  0  0  0  0  0  0  0
   -5.1183  -21.5631   27.0298 C   0  0  2  0  0  0  0  0  0  0  0  0
   -5.2239  -20.3865   27.9590 C   0  0  0  0  0  0  0  0  0  0  0  0
   -4.8533  -22.8568   27.6972 C   0  0  2  0  0  0  0  0  0  0  0  0
   -4.7977  -23.9970   26.8129 N   0  0  0  0  0  0  0  0  0  0  0  0
   -5.6850  -23.1628   28.8760 C   0  0  0  0  0  0  0  0  0  0  0  0
   -5.2938  -22.7306   30.1263 O   0  0  0  0  0  0  0  0  0  0  0  0
   -6.7606  -23.8069   28.8232 O   0  0  0  0  0  0  0  0  0  0  0  0
  2  1  1  0
  3  2  1  0
  3  4  1  6
  5  3  1  0
  5  6  2  0
  7  5  1  0
  8  7  1  0
  8 11  1  0
  8  9  1  1
 10  9  1  0
 11 18  1  0
 11 12  2  0
 13 14  1  0
 14 15  1  0
 15 16  1  1
 17 15  1  0
 17 18  1  6
 19 20  1  0
 19 17  1  0
 21 19  2  0
M  END
$$$$
