SCI.pdb
     RDKit          3D

 21 20  0  0  1  0  0  0  0  0999 V2000
    9.7447  -12.3800   18.0940 O   0  0  0  0  0  0  0  0  0  0  0  0
    8.7684  -12.7671   19.0293 C   0  0  0  0  0  0  0  0  0  0  0  0
    8.4680  -14.2264   18.7731 C   0  0  2  0  0  0  0  0  0  0  0  0
    7.8451  -14.4496   17.5032 N   0  0  0  0  0  0  0  0  0  0  0  0
    7.6958  -14.8076   19.9017 C   0  0  0  0  0  0  0  0  0  0  0  0
    6.4912  -15.1461   19.8068 O   0  0  0  0  0  0  0  0  0  0  0  0
    8.3189  -15.0035   21.1621 N   0  0  0  0  0  0  0  0  0  0  0  0
    7.7124  -15.6012   22.3060 C   0  0  1  0  0  0  0  0  0  0  0  0
    7.5585  -17.0906   22.2200 C   0  0  0  0  0  0  0  0  0  0  0  0
    9.1511  -17.9125   22.3535 S   0  0  0  0  0  0  0  0  0  0  0  0
    8.4189  -15.2411   23.5741 C   0  0  0  0  0  0  0  0  0  0  0  0
    9.6704  -15.1792   23.6099 O   0  0  0  0  0  0  0  0  0  0  0  0
    5.7140  -11.5715   26.5267 C   0  0  0  0  0  0  0  0  0  0  0  0
    6.7209  -12.4206   25.7356 C   0  0  0  0  0  0  0  0  0  0  0  0
    7.2755  -13.4684   26.6448 C   0  0  2  0  0  0  0  0  0  0  0  0
    7.8945  -12.7857   27.8321 C   0  0  0  0  0  0  0  0  0  0  0  0
    8.1473  -14.4606   25.9776 C   0  0  2  0  0  0  0  0  0  0  0  0
    7.6388  -14.9732   24.7270 N   0  0  0  0  0  0  0  0  0  0  0  0
    8.6400  -15.5649   26.8216 C   0  0  0  0  0  0  0  0  0  0  0  0
    9.7693  -15.3906   27.5946 O   0  0  0  0  0  0  0  0  0  0  0  0
    8.0872  -16.6892   26.8929 O   0  0  0  0  0  0  0  0  0  0  0  0
  2  1  1  0
  3  2  1  0
  3  4  1  6
  5  3  1  0
  5  6  2  0
  7  5  1  0
  8  7  1  0
  8 11  1  0
  8  9  1  6
 10  9  1  0
 11 18  1  0
 11 12  2  0
 13 14  1  0
 14 15  1  0
 15 16  1  1
 17 15  1  0
 17 18  1  6
 19 20  1  0
 19 17  1  0
 21 19  2  0
M  END
$$$$
