SCI.pdb
     RDKit          3D

 21 20  0  0  1  0  0  0  0  0999 V2000
    8.5376  -16.5367   19.5977 O   0  0  0  0  0  0  0  0  0  0  0  0
    9.9325  -16.3618   19.6387 C   0  0  0  0  0  0  0  0  0  0  0  0
   10.4560  -17.2579   20.7380 C   0  0  2  0  0  0  0  0  0  0  0  0
   10.1201  -18.6353   20.5375 N   0  0  0  0  0  0  0  0  0  0  0  0
   10.0353  -16.7520   22.0702 C   0  0  0  0  0  0  0  0  0  0  0  0
   10.3359  -15.6111   22.4975 O   0  0  0  0  0  0  0  0  0  0  0  0
    9.2549  -17.5718   22.9272 N   0  0  0  0  0  0  0  0  0  0  0  0
    8.7620  -17.1997   24.2125 C   0  0  1  0  0  0  0  0  0  0  0  0
    7.5199  -17.9263   24.6350 C   0  0  0  0  0  0  0  0  0  0  0  0
    7.9186  -19.5330   25.3344 S   0  0  0  0  0  0  0  0  0  0  0  0
    9.8051  -17.3259   25.2768 C   0  0  0  0  0  0  0  0  0  0  0  0
   10.8518  -17.9830   25.0674 O   0  0  0  0  0  0  0  0  0  0  0  0
    9.8054  -13.6295   29.8835 C   0  0  0  0  0  0  0  0  0  0  0  0
    9.5955  -15.0416   29.3152 C   0  0  0  0  0  0  0  0  0  0  0  0
   10.6241  -15.2858   28.2594 C   0  0  2  0  0  0  0  0  0  0  0  0
   10.6201  -14.1165   27.3151 C   0  0  0  0  0  0  0  0  0  0  0  0
   10.5294  -16.6097   27.6054 C   0  0  2  0  0  0  0  0  0  0  0  0
    9.5786  -16.6856   26.5212 N   0  0  0  0  0  0  0  0  0  0  0  0
   10.3758  -17.7691   28.5036 C   0  0  0  0  0  0  0  0  0  0  0  0
   11.3818  -18.0915   29.3909 O   0  0  0  0  0  0  0  0  0  0  0  0
    9.3615  -18.5078   28.5228 O   0  0  0  0  0  0  0  0  0  0  0  0
  2  1  1  0
  3  2  1  0
  3  4  1  6
  5  3  1  0
  5  6  2  0
  7  5  1  0
  8  7  1  0
  8 11  1  0
  8  9  1  1
 10  9  1  0
 11 18  1  0
 11 12  2  0
 13 14  1  0
 14 15  1  0
 15 16  1  6
 17 15  1  0
 17 18  1  6
 19 20  1  0
 19 17  1  0
 21 19  2  0
M  END
$$$$
