SCI.pdb
     RDKit          3D

 21 20  0  0  1  0  0  0  0  0999 V2000
   12.1690  -18.0623   21.6871 O   0  0  0  0  0  0  0  0  0  0  0  0
   11.0288  -18.6196   21.0811 C   0  0  0  0  0  0  0  0  0  0  0  0
   10.1099  -17.4708   20.7328 C   0  0  2  0  0  0  0  0  0  0  0  0
   10.6984  -16.5515   19.8061 N   0  0  0  0  0  0  0  0  0  0  0  0
    9.6138  -16.8054   21.9653 C   0  0  0  0  0  0  0  0  0  0  0  0
    9.8624  -15.6080   22.2465 O   0  0  0  0  0  0  0  0  0  0  0  0
    8.8176  -17.5289   22.8916 N   0  0  0  0  0  0  0  0  0  0  0  0
    8.2815  -17.0135   24.1083 C   0  0  1  0  0  0  0  0  0  0  0  0
    7.0149  -17.6782   24.5593 C   0  0  0  0  0  0  0  0  0  0  0  0
    7.2788  -19.4295   24.8646 S   0  0  0  0  0  0  0  0  0  0  0  0
    9.2821  -17.0313   25.2198 C   0  0  0  0  0  0  0  0  0  0  0  0
   10.2983  -17.7618   25.1497 O   0  0  0  0  0  0  0  0  0  0  0  0
    9.1153  -12.4461   28.3363 C   0  0  0  0  0  0  0  0  0  0  0  0
    9.5221  -13.6021   27.4095 C   0  0  0  0  0  0  0  0  0  0  0  0
    9.7805  -14.8126   28.2463 C   0  0  2  0  0  0  0  0  0  0  0  0
   10.9112  -14.5050   29.1875 C   0  0  0  0  0  0  0  0  0  0  0  0
    9.9391  -16.0671   27.4778 C   0  0  2  0  0  0  0  0  0  0  0  0
    9.0506  -16.2043   26.3477 N   0  0  0  0  0  0  0  0  0  0  0  0
    9.9625  -17.3136   28.2654 C   0  0  0  0  0  0  0  0  0  0  0  0
   11.1503  -17.7698   28.7986 O   0  0  0  0  0  0  0  0  0  0  0  0
    8.9461  -18.0124   28.4967 O   0  0  0  0  0  0  0  0  0  0  0  0
  2  1  1  0
  3  2  1  0
  3  4  1  6
  5  3  1  0
  5  6  2  0
  7  5  1  0
  8  7  1  0
  8 11  1  0
  8  9  1  1
 10  9  1  0
 11 18  1  0
 11 12  2  0
 13 14  1  0
 14 15  1  0
 15 16  1  6
 17 15  1  0
 17 18  1  6
 19 20  1  0
 19 17  1  0
 21 19  2  0
M  END
$$$$
