SCI.pdb
     RDKit          3D

 21 20  0  0  1  0  0  0  0  0999 V2000
   10.4093  -15.9485   19.7543 O   0  0  0  0  0  0  0  0  0  0  0  0
   10.2794  -17.3371   19.5731 C   0  0  0  0  0  0  0  0  0  0  0  0
    8.8008  -17.6285   19.4532 C   0  0  2  0  0  0  0  0  0  0  0  0
    8.2319  -17.1198   18.2417 N   0  0  0  0  0  0  0  0  0  0  0  0
    8.0767  -17.1673   20.6659 C   0  0  0  0  0  0  0  0  0  0  0  0
    7.3034  -16.1790   20.6692 O   0  0  0  0  0  0  0  0  0  0  0  0
    8.2440  -17.8538   21.8972 N   0  0  0  0  0  0  0  0  0  0  0  0
    7.5674  -17.5532   23.1159 C   0  0  1  0  0  0  0  0  0  0  0  0
    7.2715  -18.7481   23.9726 C   0  0  0  0  0  0  0  0  0  0  0  0
    6.5538  -18.2535   25.5442 S   0  0  0  0  0  0  0  0  0  0  0  0
    8.2884  -16.5214   23.9237 C   0  0  0  0  0  0  0  0  0  0  0  0
    9.5408  -16.5158   23.9770 O   0  0  0  0  0  0  0  0  0  0  0  0
    6.8327  -10.9997   26.3359 C   0  0  0  0  0  0  0  0  0  0  0  0
    7.7991  -12.1938   26.3709 C   0  0  0  0  0  0  0  0  0  0  0  0
    7.1829  -13.3251   25.6140 C   0  0  2  0  0  0  0  0  0  0  0  0
    5.8355  -13.6171   26.2125 C   0  0  0  0  0  0  0  0  0  0  0  0
    8.0592  -14.5069   25.4563 C   0  0  2  0  0  0  0  0  0  0  0  0
    7.5210  -15.5561   24.6228 N   0  0  0  0  0  0  0  0  0  0  0  0
    8.6157  -15.0741   26.6986 C   0  0  0  0  0  0  0  0  0  0  0  0
    9.5214  -14.3470   27.4430 O   0  0  0  0  0  0  0  0  0  0  0  0
    8.3134  -16.2072   27.1453 O   0  0  0  0  0  0  0  0  0  0  0  0
  2  1  1  0
  3  2  1  0
  3  4  1  6
  5  3  1  0
  5  6  2  0
  7  5  1  0
  8  7  1  0
  8 11  1  0
  8  9  1  1
 10  9  1  0
 11 18  1  0
 11 12  2  0
 13 14  1  0
 14 15  1  0
 15 16  1  1
 17 15  1  0
 17 18  1  1
 19 20  1  0
 19 17  1  0
 21 19  2  0
M  END
$$$$
