SCI.pdb
     RDKit          3D

 21 20  0  0  1  0  0  0  0  0999 V2000
    8.6401  -15.5688   19.1080 O   0  0  0  0  0  0  0  0  0  0  0  0
    9.1353  -16.8716   19.2961 C   0  0  0  0  0  0  0  0  0  0  0  0
    7.9368  -17.7779   19.4628 C   0  0  2  0  0  0  0  0  0  0  0  0
    7.1621  -17.8985   18.2646 N   0  0  0  0  0  0  0  0  0  0  0  0
    7.1230  -17.3592   20.6333 C   0  0  0  0  0  0  0  0  0  0  0  0
    5.8687  -17.3941   20.6450 O   0  0  0  0  0  0  0  0  0  0  0  0
    7.7619  -16.8918   21.8118 N   0  0  0  0  0  0  0  0  0  0  0  0
    7.2510  -17.0104   23.1379 C   0  0  1  0  0  0  0  0  0  0  0  0
    7.0098  -18.4211   23.5862 C   0  0  0  0  0  0  0  0  0  0  0  0
    6.4724  -18.4704   25.3004 S   0  0  0  0  0  0  0  0  0  0  0  0
    8.1080  -16.3039   24.1396 C   0  0  0  0  0  0  0  0  0  0  0  0
    9.3184  -16.6043   24.2662 O   0  0  0  0  0  0  0  0  0  0  0  0
    5.5318  -11.7962   26.3992 C   0  0  0  0  0  0  0  0  0  0  0  0
    6.5503  -12.5974   25.5734 C   0  0  0  0  0  0  0  0  0  0  0  0
    7.3952  -13.3982   26.5099 C   0  0  2  0  0  0  0  0  0  0  0  0
    8.1540  -12.4481   27.3933 C   0  0  0  0  0  0  0  0  0  0  0  0
    8.2270  -14.4316   25.8543 C   0  0  2  0  0  0  0  0  0  0  0  0
    7.5170  -15.2915   24.9368 N   0  0  0  0  0  0  0  0  0  0  0  0
    9.0900  -15.2318   26.7429 C   0  0  0  0  0  0  0  0  0  0  0  0
    8.6268  -16.4219   27.2648 O   0  0  0  0  0  0  0  0  0  0  0  0
   10.2557  -14.8999   27.0681 O   0  0  0  0  0  0  0  0  0  0  0  0
  2  1  1  0
  3  2  1  0
  3  4  1  6
  5  3  1  0
  5  6  2  0
  7  5  1  0
  8  7  1  0
  8 11  1  0
  8  9  1  1
 10  9  1  0
 11 18  1  0
 11 12  2  0
 13 14  1  0
 14 15  1  0
 15 16  1  6
 17 15  1  0
 17 18  1  1
 19 20  1  0
 19 17  1  0
 21 19  2  0
M  END
$$$$
