SCI.pdb
     RDKit          3D

 21 20  0  0  1  0  0  0  0  0999 V2000
   12.5474  -18.5966   22.0785 O   0  0  0  0  0  0  0  0  0  0  0  0
   11.6967  -19.4178   21.3169 C   0  0  0  0  0  0  0  0  0  0  0  0
   10.2893  -18.9065   21.5254 C   0  0  2  0  0  0  0  0  0  0  0  0
    9.3019  -19.7257   20.8896 N   0  0  0  0  0  0  0  0  0  0  0  0
   10.1886  -17.4769   21.1332 C   0  0  0  0  0  0  0  0  0  0  0  0
   10.3662  -17.0733   19.9584 O   0  0  0  0  0  0  0  0  0  0  0  0
    9.8783  -16.4930   22.1085 N   0  0  0  0  0  0  0  0  0  0  0  0
    9.0258  -15.3669   21.9121 C   0  0  1  0  0  0  0  0  0  0  0  0
    7.6796  -15.6997   21.3408 C   0  0  0  0  0  0  0  0  0  0  0  0
    6.6539  -14.2300   21.2078 S   0  0  0  0  0  0  0  0  0  0  0  0
    8.8570  -14.5606   23.1604 C   0  0  0  0  0  0  0  0  0  0  0  0
    8.6572  -13.3247   23.0977 O   0  0  0  0  0  0  0  0  0  0  0  0
    6.2905  -12.0809   27.1134 C   0  0  0  0  0  0  0  0  0  0  0  0
    7.5992  -12.8854   27.0773 C   0  0  0  0  0  0  0  0  0  0  0  0
    7.5956  -13.7423   25.8534 C   0  0  2  0  0  0  0  0  0  0  0  0
    6.2855  -14.4765   25.7932 C   0  0  0  0  0  0  0  0  0  0  0  0
    8.7925  -14.5989   25.7009 C   0  0  2  0  0  0  0  0  0  0  0  0
    8.9288  -15.2288   24.4087 N   0  0  0  0  0  0  0  0  0  0  0  0
    9.0319  -15.5790   26.7764 C   0  0  0  0  0  0  0  0  0  0  0  0
    9.6157  -15.1753   27.9594 O   0  0  0  0  0  0  0  0  0  0  0  0
    8.7308  -16.7944   26.6930 O   0  0  0  0  0  0  0  0  0  0  0  0
  2  1  1  0
  3  2  1  0
  3  4  1  6
  5  3  1  0
  5  6  2  0
  7  5  1  0
  8  7  1  0
  8 11  1  0
  8  9  1  1
 10  9  1  0
 11 18  1  0
 11 12  2  0
 13 14  1  0
 14 15  1  0
 15 16  1  1
 17 15  1  0
 17 18  1  6
 19 20  1  0
 19 17  1  0
 21 19  2  0
M  END
$$$$
