MSC.pdb
     RDKit          3D

 21 20  0  0  1  0  0  0  0  0999 V2000
   11.1912  -13.0586  -10.2595 C   0  0  0  0  0  0  0  0  0  0  0  0
   12.3749  -11.9585   -9.4598 S   0  0  0  0  0  0  0  0  0  0  0  0
   13.7597  -11.6039  -10.5512 C   0  0  0  0  0  0  0  0  0  0  0  0
   14.7501  -10.6498   -9.9238 C   0  0  0  0  0  0  0  0  0  0  0  0
   15.9440  -10.3857  -10.8150 C   0  0  2  0  0  0  0  0  0  0  0  0
   16.9025  -11.4631  -10.7809 N   0  0  0  0  0  0  0  0  0  0  0  0
   16.5345   -9.0990  -10.3645 C   0  0  0  0  0  0  0  0  0  0  0  0
   17.2786   -9.1487   -9.3525 O   0  0  0  0  0  0  0  0  0  0  0  0
   18.6692   -6.3689  -12.0005 O   0  0  0  0  0  0  0  0  0  0  0  0
   17.4275   -5.8710  -11.6643 C   0  0  0  0  0  0  0  0  0  0  0  0
   16.7753   -6.5934  -10.5198 C   0  0  2  0  0  0  0  0  0  0  0  0
   16.2898   -7.8658  -11.0207 N   0  0  0  0  0  0  0  0  0  0  0  0
   15.6848   -5.7773   -9.9470 C   0  0  0  0  0  0  0  0  0  0  0  0
   14.5797   -5.7717  -10.5470 O   0  0  0  0  0  0  0  0  0  0  0  0
   15.8065   -5.0040   -8.7676 N   0  0  0  0  0  0  0  0  0  0  0  0
   14.7320   -4.1302   -8.3084 C   0  0  1  0  0  0  0  0  0  0  0  0
   14.4081   -4.3853   -6.8531 C   0  0  0  0  0  0  0  0  0  0  0  0
   13.1958   -3.1919   -6.2825 S   0  0  0  0  0  0  0  0  0  0  0  0
   15.1837   -2.7321   -8.5193 C   0  0  0  0  0  0  0  0  0  0  0  0
   14.2795   -1.6943   -8.7375 O   0  0  0  0  0  0  0  0  0  0  0  0
   16.4040   -2.4316   -8.5087 O   0  0  0  0  0  0  0  0  0  0  0  0
  2  1  1  0
  3  4  1  0
  3  2  1  0
  4  5  1  0
  5  7  1  0
  5  6  1  1
  7 12  1  0
  7  8  2  0
  9 10  1  0
 11 10  1  6
 11 13  1  0
 12 11  1  0
 13 15  1  0
 13 14  2  0
 15 16  1  0
 16 19  1  0
 16 17  1  1
 18 17  1  0
 19 20  1  0
 21 19  2  0
M  END
$$$$
