MSC.pdb
     RDKit          3D

 21 20  0  0  1  0  0  0  0  0999 V2000
   26.6951  -18.6498   -6.6811 C   0  0  0  0  0  0  0  0  0  0  0  0
   28.1694  -19.6878   -6.6825 S   0  0  0  0  0  0  0  0  0  0  0  0
   28.1549  -20.8207   -8.0793 C   0  0  0  0  0  0  0  0  0  0  0  0
   27.1333  -20.4274   -9.1215 C   0  0  0  0  0  0  0  0  0  0  0  0
   27.0724  -21.4085  -10.2718 C   0  0  2  0  0  0  0  0  0  0  0  0
   28.3177  -21.4823  -10.9960 N   0  0  0  0  0  0  0  0  0  0  0  0
   25.9467  -20.9766  -11.1400 C   0  0  0  0  0  0  0  0  0  0  0  0
   26.2548  -20.5206  -12.2702 O   0  0  0  0  0  0  0  0  0  0  0  0
   21.9960  -20.0803  -10.2067 O   0  0  0  0  0  0  0  0  0  0  0  0
   22.2161  -21.2520  -10.9005 C   0  0  0  0  0  0  0  0  0  0  0  0
   23.4999  -21.2616  -11.6807 C   0  0  2  0  0  0  0  0  0  0  0  0
   24.5882  -21.0621  -10.7418 N   0  0  0  0  0  0  0  0  0  0  0  0
   23.4784  -20.2167  -12.7253 C   0  0  0  0  0  0  0  0  0  0  0  0
   23.9643  -19.0926  -12.4399 O   0  0  0  0  0  0  0  0  0  0  0  0
   22.9466  -20.4026  -14.0239 N   0  0  0  0  0  0  0  0  0  0  0  0
   22.8231  -19.2970  -14.9682 C   0  0  1  0  0  0  0  0  0  0  0  0
   23.9053  -19.3596  -16.0231 C   0  0  0  0  0  0  0  0  0  0  0  0
   23.5942  -18.1239  -17.2863 S   0  0  0  0  0  0  0  0  0  0  0  0
   21.4737  -19.3912  -15.5792 C   0  0  0  0  0  0  0  0  0  0  0  0
   20.8391  -18.2795  -16.1302 O   0  0  0  0  0  0  0  0  0  0  0  0
   20.8511  -20.4820  -15.6222 O   0  0  0  0  0  0  0  0  0  0  0  0
  2  1  1  0
  3  4  1  0
  3  2  1  0
  4  5  1  0
  5  7  1  0
  5  6  1  6
  7 12  1  0
  7  8  2  0
  9 10  1  0
 11 10  1  1
 11 13  1  0
 12 11  1  0
 13 15  1  0
 13 14  2  0
 15 16  1  0
 16 19  1  0
 16 17  1  6
 18 17  1  0
 19 20  1  0
 21 19  2  0
M  END
$$$$
