MSC.pdb
     RDKit          3D

 21 20  0  0  1  0  0  0  0  0999 V2000
   28.3408  -12.1091  -15.5197 C   0  0  0  0  0  0  0  0  0  0  0  0
   27.2998  -13.4726  -14.9647 S   0  0  0  0  0  0  0  0  0  0  0  0
   25.8969  -13.6986  -16.0674 C   0  0  0  0  0  0  0  0  0  0  0  0
   25.1296  -12.4145  -16.2840 C   0  0  0  0  0  0  0  0  0  0  0  0
   23.9908  -12.5791  -17.2666 C   0  0  2  0  0  0  0  0  0  0  0  0
   24.4388  -13.0655  -18.5485 N   0  0  0  0  0  0  0  0  0  0  0  0
   23.3264  -11.2546  -17.3733 C   0  0  0  0  0  0  0  0  0  0  0  0
   23.9758  -10.3479  -17.9535 O   0  0  0  0  0  0  0  0  0  0  0  0
   19.6426  -10.5686  -15.5253 O   0  0  0  0  0  0  0  0  0  0  0  0
   19.9141   -9.9084  -16.7056 C   0  0  0  0  0  0  0  0  0  0  0  0
   21.3803   -9.7042  -16.9616 C   0  0  2  0  0  0  0  0  0  0  0  0
   22.0304  -10.9974  -16.8579 N   0  0  0  0  0  0  0  0  0  0  0  0
   21.9421   -8.7295  -16.0035 C   0  0  0  0  0  0  0  0  0  0  0  0
   22.2120   -9.1359  -14.8446 O   0  0  0  0  0  0  0  0  0  0  0  0
   22.1949   -7.3707  -16.3090 N   0  0  0  0  0  0  0  0  0  0  0  0
   22.8770   -6.4869  -15.3694 C   0  0  1  0  0  0  0  0  0  0  0  0
   23.8470   -5.5748  -16.0871 C   0  0  0  0  0  0  0  0  0  0  0  0
   25.1512   -6.5487  -16.8421 S   0  0  0  0  0  0  0  0  0  0  0  0
   21.8304   -5.7062  -14.6634 C   0  0  0  0  0  0  0  0  0  0  0  0
   20.4856   -5.7939  -15.0184 O   0  0  0  0  0  0  0  0  0  0  0  0
   22.1201   -4.9339  -13.7152 O   0  0  0  0  0  0  0  0  0  0  0  0
  2  1  1  0
  3  4  1  0
  3  2  1  0
  4  5  1  0
  5  7  1  0
  5  6  1  6
  7 12  1  0
  7  8  2  0
  9 10  1  0
 11 10  1  1
 11 13  1  0
 12 11  1  0
 13 15  1  0
 13 14  2  0
 15 16  1  0
 16 19  1  0
 16 17  1  6
 18 17  1  0
 19 20  1  0
 21 19  2  0
M  END
$$$$
