MSC.pdb
     RDKit          3D

 21 20  0  0  1  0  0  0  0  0999 V2000
   20.2430  -15.7067  -18.3340 C   0  0  0  0  0  0  0  0  0  0  0  0
   21.6137  -15.4763  -19.4825 S   0  0  0  0  0  0  0  0  0  0  0  0
   22.6459  -16.9475  -19.5529 C   0  0  0  0  0  0  0  0  0  0  0  0
   22.1583  -18.0310  -18.6187 C   0  0  0  0  0  0  0  0  0  0  0  0
   22.9475  -18.0818  -17.3287 C   0  0  2  0  0  0  0  0  0  0  0  0
   24.3231  -18.4597  -17.5422 N   0  0  0  0  0  0  0  0  0  0  0  0
   22.2396  -19.0336  -16.4343 C   0  0  0  0  0  0  0  0  0  0  0  0
   22.5151  -20.2512  -16.5825 O   0  0  0  0  0  0  0  0  0  0  0  0
   19.4071  -17.7458  -13.5155 O   0  0  0  0  0  0  0  0  0  0  0  0
   20.3049  -18.7694  -13.2941 C   0  0  0  0  0  0  0  0  0  0  0  0
   20.6617  -19.5403  -14.5333 C   0  0  2  0  0  0  0  0  0  0  0  0
   21.2987  -18.6201  -15.4570 N   0  0  0  0  0  0  0  0  0  0  0  0
   19.4567  -20.1613  -15.1212 C   0  0  0  0  0  0  0  0  0  0  0  0
   18.8195  -19.5035  -15.9829 O   0  0  0  0  0  0  0  0  0  0  0  0
   18.9769  -21.4474  -14.7759 N   0  0  0  0  0  0  0  0  0  0  0  0
   17.7400  -21.9812  -15.3364 C   0  0  1  0  0  0  0  0  0  0  0  0
   17.7841  -23.4913  -15.4113 C   0  0  0  0  0  0  0  0  0  0  0  0
   19.1248  -24.0070  -16.4865 S   0  0  0  0  0  0  0  0  0  0  0  0
   16.6296  -21.5206  -14.4656 C   0  0  0  0  0  0  0  0  0  0  0  0
   15.2989  -21.5964  -14.8725 O   0  0  0  0  0  0  0  0  0  0  0  0
   16.8500  -21.0432  -13.3241 O   0  0  0  0  0  0  0  0  0  0  0  0
  2  1  1  0
  3  4  1  0
  3  2  1  0
  4  5  1  0
  5  7  1  0
  5  6  1  6
  7 12  1  0
  7  8  2  0
  9 10  1  0
 11 10  1  1
 11 13  1  0
 12 11  1  0
 13 15  1  0
 13 14  2  0
 15 16  1  0
 16 19  1  0
 16 17  1  1
 18 17  1  0
 19 20  1  0
 21 19  2  0
M  END
$$$$
