MSC.pdb
     RDKit          3D

 21 20  0  0  1  0  0  0  0  0999 V2000
   19.6675  -16.0019  -14.1681 C   0  0  0  0  0  0  0  0  0  0  0  0
   18.0330  -15.5724  -14.7964 S   0  0  0  0  0  0  0  0  0  0  0  0
   18.1434  -14.8867  -16.4554 C   0  0  0  0  0  0  0  0  0  0  0  0
   19.2595  -13.8752  -16.5810 C   0  0  0  0  0  0  0  0  0  0  0  0
   19.4119  -13.3534  -17.9931 C   0  0  2  0  0  0  0  0  0  0  0  0
   20.4718  -14.0175  -18.7116 N   0  0  0  0  0  0  0  0  0  0  0  0
   19.6440  -11.8901  -17.8829 C   0  0  0  0  0  0  0  0  0  0  0  0
   20.8398  -11.5204  -17.7660 O   0  0  0  0  0  0  0  0  0  0  0  0
   17.5728   -7.4560  -18.1728 O   0  0  0  0  0  0  0  0  0  0  0  0
   17.5081   -8.8337  -18.1926 C   0  0  0  0  0  0  0  0  0  0  0  0
   18.8236   -9.5055  -17.9186 C   0  0  2  0  0  0  0  0  0  0  0  0
   18.5930  -10.9381  -17.9052 N   0  0  0  0  0  0  0  0  0  0  0  0
   19.3913   -9.0295  -16.6401 C   0  0  0  0  0  0  0  0  0  0  0  0
   19.0115   -9.5955  -15.5834 O   0  0  0  0  0  0  0  0  0  0  0  0
   20.3339   -7.9791  -16.5316 N   0  0  0  0  0  0  0  0  0  0  0  0
   20.7694   -7.4695  -15.2356 C   0  0  1  0  0  0  0  0  0  0  0  0
   22.1944   -7.8818  -14.9402 C   0  0  0  0  0  0  0  0  0  0  0  0
   22.7449   -7.1142  -13.4146 S   0  0  0  0  0  0  0  0  0  0  0  0
   20.6377   -5.9917  -15.2791 C   0  0  0  0  0  0  0  0  0  0  0  0
   20.4786   -5.3048  -16.4812 O   0  0  0  0  0  0  0  0  0  0  0  0
   20.6650   -5.3025  -14.2285 O   0  0  0  0  0  0  0  0  0  0  0  0
  2  1  1  0
  3  4  1  0
  3  2  1  0
  4  5  1  0
  5  7  1  0
  5  6  1  1
  7 12  1  0
  7  8  2  0
  9 10  1  0
 11 10  1  1
 11 13  1  0
 12 11  1  0
 13 15  1  0
 13 14  2  0
 15 16  1  0
 16 19  1  0
 16 17  1  6
 18 17  1  0
 19 20  1  0
 21 19  2  0
M  END
$$$$
