MSC.pdb
     RDKit          3D

 21 20  0  0  1  0  0  0  0  0999 V2000
   18.2117  -12.2883  -18.0966 C   0  0  0  0  0  0  0  0  0  0  0  0
   18.2008  -11.6518  -16.4097 S   0  0  0  0  0  0  0  0  0  0  0  0
   19.4030  -10.3284  -16.2157 C   0  0  0  0  0  0  0  0  0  0  0  0
   19.3194   -9.6775  -14.8541 C   0  0  0  0  0  0  0  0  0  0  0  0
   20.3326   -8.5672  -14.6798 C   0  0  2  0  0  0  0  0  0  0  0  0
   21.6821   -9.0670  -14.5819 N   0  0  0  0  0  0  0  0  0  0  0  0
   19.9287   -7.8096  -13.4673 C   0  0  0  0  0  0  0  0  0  0  0  0
   20.2100   -8.3342  -12.3601 O   0  0  0  0  0  0  0  0  0  0  0  0
   18.1412   -4.0215  -13.7834 O   0  0  0  0  0  0  0  0  0  0  0  0
   18.9126   -4.3535  -12.6891 C   0  0  0  0  0  0  0  0  0  0  0  0
   18.8735   -5.8146  -12.3417 C   0  0  2  0  0  0  0  0  0  0  0  0
   19.2607   -6.5598  -13.5251 N   0  0  0  0  0  0  0  0  0  0  0  0
   17.5273   -6.1980  -11.8683 C   0  0  0  0  0  0  0  0  0  0  0  0
   16.6774   -6.5375  -12.7306 O   0  0  0  0  0  0  0  0  0  0  0  0
   17.1364   -6.2073  -10.5079 N   0  0  0  0  0  0  0  0  0  0  0  0
   15.7615   -6.4856  -10.1062 C   0  0  1  0  0  0  0  0  0  0  0  0
   15.7166   -7.1641   -8.7551 C   0  0  0  0  0  0  0  0  0  0  0  0
   16.3707   -8.8295   -8.8898 S   0  0  0  0  0  0  0  0  0  0  0  0
   15.0421   -5.1875  -10.0776 C   0  0  0  0  0  0  0  0  0  0  0  0
   15.6993   -3.9798  -10.3046 O   0  0  0  0  0  0  0  0  0  0  0  0
   13.8081   -5.1299   -9.8466 O   0  0  0  0  0  0  0  0  0  0  0  0
  2  1  1  0
  3  4  1  0
  3  2  1  0
  4  5  1  0
  5  7  1  0
  5  6  1  1
  7 12  1  0
  7  8  2  0
  9 10  1  0
 11 10  1  6
 11 13  1  0
 12 11  1  0
 13 15  1  0
 13 14  2  0
 15 16  1  0
 16 19  1  0
 16 17  1  1
 18 17  1  0
 19 20  1  0
 21 19  2  0
M  END
$$$$
