MSC.pdb
     RDKit          3D

 21 20  0  0  1  0  0  0  0  0999 V2000
   19.2288  -20.0902  -14.0759 C   0  0  0  0  0  0  0  0  0  0  0  0
   20.3944  -21.0382  -15.0727 S   0  0  0  0  0  0  0  0  0  0  0  0
   21.9964  -21.1414  -14.2617 C   0  0  0  0  0  0  0  0  0  0  0  0
   22.6331  -19.7824  -14.0824 C   0  0  0  0  0  0  0  0  0  0  0  0
   22.8927  -19.0861  -15.4005 C   0  0  2  0  0  0  0  0  0  0  0  0
   23.6231  -19.9178  -16.3254 N   0  0  0  0  0  0  0  0  0  0  0  0
   23.6221  -17.8315  -15.0823 C   0  0  0  0  0  0  0  0  0  0  0  0
   23.0889  -17.0746  -14.2319 O   0  0  0  0  0  0  0  0  0  0  0  0
   27.1375  -16.7311  -17.1589 O   0  0  0  0  0  0  0  0  0  0  0  0
   26.9805  -16.4077  -15.8272 C   0  0  0  0  0  0  0  0  0  0  0  0
   25.5472  -16.2359  -15.4109 C   0  0  2  0  0  0  0  0  0  0  0  0
   24.8549  -17.4804  -15.6892 N   0  0  0  0  0  0  0  0  0  0  0  0
   24.9344  -15.0960  -16.1240 C   0  0  0  0  0  0  0  0  0  0  0  0
   24.4711  -15.3050  -17.2742 O   0  0  0  0  0  0  0  0  0  0  0  0
   24.8364  -13.7873  -15.5939 N   0  0  0  0  0  0  0  0  0  0  0  0
   24.1872  -12.7076  -16.3301 C   0  0  1  0  0  0  0  0  0  0  0  0
   23.5352  -11.7214  -15.3865 C   0  0  0  0  0  0  0  0  0  0  0  0
   22.1416  -12.4975  -14.5648 S   0  0  0  0  0  0  0  0  0  0  0  0
   25.2315  -12.0495  -17.1544 C   0  0  0  0  0  0  0  0  0  0  0  0
   24.9087  -11.1227  -18.1439 O   0  0  0  0  0  0  0  0  0  0  0  0
   26.4509  -12.3051  -16.9894 O   0  0  0  0  0  0  0  0  0  0  0  0
  2  1  1  0
  3  4  1  0
  3  2  1  0
  4  5  1  0
  5  7  1  0
  5  6  1  6
  7 12  1  0
  7  8  2  0
  9 10  1  0
 11 10  1  6
 11 13  1  0
 12 11  1  0
 13 15  1  0
 13 14  2  0
 15 16  1  0
 16 19  1  0
 16 17  1  1
 18 17  1  0
 19 20  1  0
 21 19  2  0
M  END
$$$$
