MSC.pdb
     RDKit          3D

 21 20  0  0  1  0  0  0  0  0999 V2000
   25.3109  -18.2004  -15.1686 C   0  0  0  0  0  0  0  0  0  0  0  0
   25.1772  -16.4306  -14.8513 S   0  0  0  0  0  0  0  0  0  0  0  0
   25.9313  -15.4818  -16.1802 C   0  0  0  0  0  0  0  0  0  0  0  0
   25.8098  -13.9919  -15.9568 C   0  0  0  0  0  0  0  0  0  0  0  0
   26.3866  -13.1860  -17.1002 C   0  0  2  0  0  0  0  0  0  0  0  0
   27.8098  -13.3739  -17.2401 N   0  0  0  0  0  0  0  0  0  0  0  0
   26.0340  -11.7664  -16.8401 C   0  0  0  0  0  0  0  0  0  0  0  0
   26.6711  -11.1908  -15.9218 O   0  0  0  0  0  0  0  0  0  0  0  0
   24.0941   -9.4004  -19.6588 O   0  0  0  0  0  0  0  0  0  0  0  0
   24.9044   -8.9439  -18.6401 C   0  0  0  0  0  0  0  0  0  0  0  0
   24.7153   -9.6760  -17.3419 C   0  0  2  0  0  0  0  0  0  0  0  0
   25.0371  -11.0721  -17.5719 N   0  0  0  0  0  0  0  0  0  0  0  0
   23.3329   -9.5059  -16.8484 C   0  0  0  0  0  0  0  0  0  0  0  0
   22.4776  -10.3597  -17.1957 O   0  0  0  0  0  0  0  0  0  0  0  0
   22.9133   -8.4448  -16.0110 N   0  0  0  0  0  0  0  0  0  0  0  0
   21.5073   -8.2384  -15.6797 C   0  0  1  0  0  0  0  0  0  0  0  0
   21.1837   -8.7957  -14.3113 C   0  0  0  0  0  0  0  0  0  0  0  0
   19.5386   -8.2767  -13.8176 S   0  0  0  0  0  0  0  0  0  0  0  0
   21.2537   -6.7770  -15.7362 C   0  0  0  0  0  0  0  0  0  0  0  0
   20.0293   -6.2610  -16.1567 O   0  0  0  0  0  0  0  0  0  0  0  0
   22.1380   -5.9475  -15.4054 O   0  0  0  0  0  0  0  0  0  0  0  0
  2  1  1  0
  3  4  1  0
  3  2  1  0
  4  5  1  0
  5  7  1  0
  5  6  1  1
  7 12  1  0
  7  8  2  0
  9 10  1  0
 11 10  1  6
 11 13  1  0
 12 11  1  0
 13 15  1  0
 13 14  2  0
 15 16  1  0
 16 19  1  0
 16 17  1  1
 18 17  1  0
 19 20  1  0
 21 19  2  0
M  END
$$$$
