MSC.pdb
     RDKit          3D

 21 20  0  0  1  0  0  0  0  0999 V2000
   26.9052  -14.2882  -16.4681 C   0  0  0  0  0  0  0  0  0  0  0  0
   27.8690  -13.1605  -15.4433 S   0  0  0  0  0  0  0  0  0  0  0  0
   28.5123  -11.7954  -16.4218 C   0  0  0  0  0  0  0  0  0  0  0  0
   27.4836  -10.7073  -16.6278 C   0  0  0  0  0  0  0  0  0  0  0  0
   26.4883  -11.0497  -17.7149 C   0  0  2  0  0  0  0  0  0  0  0  0
   27.1070  -11.1447  -19.0144 N   0  0  0  0  0  0  0  0  0  0  0  0
   25.4358  -10.0019  -17.6730 C   0  0  0  0  0  0  0  0  0  0  0  0
   25.7226   -8.8992  -18.2044 O   0  0  0  0  0  0  0  0  0  0  0  0
   21.8444  -10.5123  -15.5339 O   0  0  0  0  0  0  0  0  0  0  0  0
   21.8101   -9.9655  -16.7998 C   0  0  0  0  0  0  0  0  0  0  0  0
   23.0763   -9.2558  -17.1871 C   0  0  2  0  0  0  0  0  0  0  0  0
   24.1671  -10.2059  -17.0730 N   0  0  0  0  0  0  0  0  0  0  0  0
   23.2886   -8.0713  -16.3296 C   0  0  0  0  0  0  0  0  0  0  0  0
   24.0053   -8.2100  -15.3057 O   0  0  0  0  0  0  0  0  0  0  0  0
   22.7372   -6.7937  -16.5889 N   0  0  0  0  0  0  0  0  0  0  0  0
   22.9145   -5.6791  -15.6640 C   0  0  1  0  0  0  0  0  0  0  0  0
   22.7944   -4.3529  -16.3814 C   0  0  0  0  0  0  0  0  0  0  0  0
   22.8782   -3.0104  -15.1940 S   0  0  0  0  0  0  0  0  0  0  0  0
   21.8770   -5.8141  -14.6111 C   0  0  0  0  0  0  0  0  0  0  0  0
   22.0953   -5.3765  -13.3061 O   0  0  0  0  0  0  0  0  0  0  0  0
   20.7584   -6.3305  -14.8591 O   0  0  0  0  0  0  0  0  0  0  0  0
  2  1  1  0
  3  4  1  0
  3  2  1  0
  4  5  1  0
  5  7  1  0
  5  6  1  6
  7 12  1  0
  7  8  2  0
  9 10  1  0
 11 10  1  1
 11 13  1  0
 12 11  1  0
 13 15  1  0
 13 14  2  0
 15 16  1  0
 16 19  1  0
 16 17  1  6
 18 17  1  0
 19 20  1  0
 21 19  2  0
M  END
$$$$
