MSC.pdb
     RDKit          3D

 21 20  0  0  1  0  0  0  0  0999 V2000
   15.6540  -10.9376  -20.1716 C   0  0  0  0  0  0  0  0  0  0  0  0
   15.5352  -12.2952  -18.9909 S   0  0  0  0  0  0  0  0  0  0  0  0
   17.1228  -12.6010  -18.2031 C   0  0  0  0  0  0  0  0  0  0  0  0
   17.4683  -11.5379  -17.1857 C   0  0  0  0  0  0  0  0  0  0  0  0
   18.8586  -11.7129  -16.6148 C   0  0  2  0  0  0  0  0  0  0  0  0
   18.9969  -12.9438  -15.8757 N   0  0  0  0  0  0  0  0  0  0  0  0
   19.1239  -10.5209  -15.7686 C   0  0  0  0  0  0  0  0  0  0  0  0
   18.4636  -10.4335  -14.7024 O   0  0  0  0  0  0  0  0  0  0  0  0
   22.4182   -8.8099  -14.3069 O   0  0  0  0  0  0  0  0  0  0  0  0
   21.7628   -8.0742  -15.2723 C   0  0  0  0  0  0  0  0  0  0  0  0
   20.2825   -8.3254  -15.3238 C   0  0  2  0  0  0  0  0  0  0  0  0
   20.0652   -9.5196  -16.1190 N   0  0  0  0  0  0  0  0  0  0  0  0
   19.5783   -7.1552  -15.8879 C   0  0  0  0  0  0  0  0  0  0  0  0
   19.5656   -7.0258  -17.1386 O   0  0  0  0  0  0  0  0  0  0  0  0
   18.9187   -6.1740  -15.1097 N   0  0  0  0  0  0  0  0  0  0  0  0
   18.1920   -5.0680  -15.7244 C   0  0  1  0  0  0  0  0  0  0  0  0
   16.8723   -4.8291  -15.0250 C   0  0  0  0  0  0  0  0  0  0  0  0
   15.8118   -6.2629  -15.2227 S   0  0  0  0  0  0  0  0  0  0  0  0
   19.0655   -3.8706  -15.6429 C   0  0  0  0  0  0  0  0  0  0  0  0
   18.6789   -2.6432  -16.1780 O   0  0  0  0  0  0  0  0  0  0  0  0
   20.1909   -3.9201  -15.0857 O   0  0  0  0  0  0  0  0  0  0  0  0
  2  1  1  0
  3  4  1  0
  3  2  1  0
  4  5  1  0
  5  7  1  0
  5  6  1  1
  7 12  1  0
  7  8  2  0
  9 10  1  0
 11 10  1  6
 11 13  1  0
 12 11  1  0
 13 15  1  0
 13 14  2  0
 15 16  1  0
 16 19  1  0
 16 17  1  1
 18 17  1  0
 19 20  1  0
 21 19  2  0
M  END
$$$$
