MSC.pdb
     RDKit          3D

 21 20  0  0  1  0  0  0  0  0999 V2000
   14.9896  -17.3090  -16.7933 C   0  0  0  0  0  0  0  0  0  0  0  0
   15.6415  -15.8325  -15.9896 S   0  0  0  0  0  0  0  0  0  0  0  0
   17.3023  -15.4646  -16.5736 C   0  0  0  0  0  0  0  0  0  0  0  0
   17.8226  -14.1559  -16.0249 C   0  0  0  0  0  0  0  0  0  0  0  0
   19.2166  -13.8346  -16.5178 C   0  0  2  0  0  0  0  0  0  0  0  0
   20.2052  -14.7490  -16.0008 N   0  0  0  0  0  0  0  0  0  0  0  0
   19.4945  -12.4299  -16.1217 C   0  0  0  0  0  0  0  0  0  0  0  0
   19.5084  -12.1887  -14.8880 O   0  0  0  0  0  0  0  0  0  0  0  0
   20.1761   -9.4561  -19.0176 O   0  0  0  0  0  0  0  0  0  0  0  0
   20.7715   -9.3704  -17.7763 C   0  0  0  0  0  0  0  0  0  0  0  0
   19.9771  -10.0178  -16.6778 C   0  0  2  0  0  0  0  0  0  0  0  0
   19.7346  -11.3959  -17.0622 N   0  0  0  0  0  0  0  0  0  0  0  0
   18.7161   -9.2824  -16.4485 C   0  0  0  0  0  0  0  0  0  0  0  0
   17.6743   -9.7192  -17.0008 O   0  0  0  0  0  0  0  0  0  0  0  0
   18.6086   -8.1202  -15.6477 N   0  0  0  0  0  0  0  0  0  0  0  0
   17.3807   -7.3336  -15.5975 C   0  0  1  0  0  0  0  0  0  0  0  0
   16.6814   -7.5015  -14.2669 C   0  0  0  0  0  0  0  0  0  0  0  0
   15.3572   -6.2996  -14.1207 S   0  0  0  0  0  0  0  0  0  0  0  0
   17.7582   -5.9168  -15.8288 C   0  0  0  0  0  0  0  0  0  0  0  0
   16.8365   -4.9782  -16.2890 O   0  0  0  0  0  0  0  0  0  0  0  0
   18.9282   -5.5099  -15.6173 O   0  0  0  0  0  0  0  0  0  0  0  0
  2  1  1  0
  3  4  1  0
  3  2  1  0
  4  5  1  0
  5  7  1  0
  5  6  1  1
  7 12  1  0
  7  8  2  0
  9 10  1  0
 11 10  1  6
 11 13  1  0
 12 11  1  0
 13 15  1  0
 13 14  2  0
 15 16  1  0
 16 19  1  0
 16 17  1  1
 18 17  1  0
 19 20  1  0
 21 19  2  0
M  END
$$$$
