MSC.pdb
     RDKit          3D

 21 20  0  0  1  0  0  0  0  0999 V2000
   27.9239  -12.6298  -14.9656 C   0  0  0  0  0  0  0  0  0  0  0  0
   26.6292  -13.7886  -15.4471 S   0  0  0  0  0  0  0  0  0  0  0  0
   26.3910  -13.7798  -17.2298 C   0  0  0  0  0  0  0  0  0  0  0  0
   25.4308  -12.6992  -17.6712 C   0  0  0  0  0  0  0  0  0  0  0  0
   23.9880  -13.0548  -17.3860 C   0  0  2  0  0  0  0  0  0  0  0  0
   23.5206  -14.1469  -18.2041 N   0  0  0  0  0  0  0  0  0  0  0  0
   23.1946  -11.8172  -17.6010 C   0  0  0  0  0  0  0  0  0  0  0  0
   23.3458  -11.2407  -18.7078 O   0  0  0  0  0  0  0  0  0  0  0  0
   19.1689   -9.4577  -16.8033 O   0  0  0  0  0  0  0  0  0  0  0  0
   20.0550  -10.5063  -16.6695 C   0  0  0  0  0  0  0  0  0  0  0  0
   21.4925  -10.1117  -16.8563 C   0  0  2  0  0  0  0  0  0  0  0  0
   22.3069  -11.2908  -16.6282 N   0  0  0  0  0  0  0  0  0  0  0  0
   21.8507   -9.0116  -15.9371 C   0  0  0  0  0  0  0  0  0  0  0  0
   22.3582   -9.3166  -14.8278 O   0  0  0  0  0  0  0  0  0  0  0  0
   21.6589   -7.6395  -16.2274 N   0  0  0  0  0  0  0  0  0  0  0  0
   21.8547   -6.6063  -15.2158 C   0  0  1  0  0  0  0  0  0  0  0  0
   23.0321   -5.7223  -15.5623 C   0  0  0  0  0  0  0  0  0  0  0  0
   23.1157   -4.3449  -14.4155 S   0  0  0  0  0  0  0  0  0  0  0  0
   20.5978   -5.8201  -15.1435 C   0  0  0  0  0  0  0  0  0  0  0  0
   19.6750   -5.8151  -16.1878 O   0  0  0  0  0  0  0  0  0  0  0  0
   20.3185   -5.1268  -14.1332 O   0  0  0  0  0  0  0  0  0  0  0  0
  2  1  1  0
  3  4  1  0
  3  2  1  0
  4  5  1  0
  5  7  1  0
  5  6  1  6
  7 12  1  0
  7  8  2  0
  9 10  1  0
 11 10  1  1
 11 13  1  0
 12 11  1  0
 13 15  1  0
 13 14  2  0
 15 16  1  0
 16 19  1  0
 16 17  1  6
 18 17  1  0
 19 20  1  0
 21 19  2  0
M  END
$$$$
