MSC.pdb
     RDKit          3D

 21 20  0  0  1  0  0  0  0  0999 V2000
   15.3784  -12.2037  -11.9244 C   0  0  0  0  0  0  0  0  0  0  0  0
   14.9060  -12.6057  -10.2315 S   0  0  0  0  0  0  0  0  0  0  0  0
   14.4105  -11.1271   -9.3354 C   0  0  0  0  0  0  0  0  0  0  0  0
   14.9156   -9.8646   -9.9954 C   0  0  0  0  0  0  0  0  0  0  0  0
   14.5472   -8.6186   -9.2200 C   0  0  2  0  0  0  0  0  0  0  0  0
   13.1197   -8.4352   -9.1233 N   0  0  0  0  0  0  0  0  0  0  0  0
   15.2111   -7.4797   -9.9050 C   0  0  0  0  0  0  0  0  0  0  0  0
   14.6576   -7.0565  -10.9515 O   0  0  0  0  0  0  0  0  0  0  0  0
   17.6845   -3.4970   -9.8100 O   0  0  0  0  0  0  0  0  0  0  0  0
   17.0856   -4.6034   -9.2445 C   0  0  0  0  0  0  0  0  0  0  0  0
   17.0924   -5.8155  -10.1321 C   0  0  2  0  0  0  0  0  0  0  0  0
   16.4053   -6.8819   -9.4276 N   0  0  0  0  0  0  0  0  0  0  0  0
   18.4775   -6.1928  -10.4821 C   0  0  0  0  0  0  0  0  0  0  0  0
   19.2385   -6.5582   -9.5502 O   0  0  0  0  0  0  0  0  0  0  0  0
   18.9990   -6.1689  -11.7977 N   0  0  0  0  0  0  0  0  0  0  0  0
   20.4088   -6.4296  -12.0694 C   0  0  1  0  0  0  0  0  0  0  0  0
   20.5730   -7.3323  -13.2719 C   0  0  0  0  0  0  0  0  0  0  0  0
   19.8115   -8.9238  -12.9450 S   0  0  0  0  0  0  0  0  0  0  0  0
   21.0621   -5.1157  -12.2932 C   0  0  0  0  0  0  0  0  0  0  0  0
   22.4445   -4.9603  -12.2087 O   0  0  0  0  0  0  0  0  0  0  0  0
   20.3895   -4.0904  -12.5683 O   0  0  0  0  0  0  0  0  0  0  0  0
  2  1  1  0
  3  4  1  0
  3  2  1  0
  4  5  1  0
  5  7  1  0
  5  6  1  6
  7 12  1  0
  7  8  2  0
  9 10  1  0
 11 10  1  1
 11 13  1  0
 12 11  1  0
 13 15  1  0
 13 14  2  0
 15 16  1  0
 16 19  1  0
 16 17  1  6
 18 17  1  0
 19 20  1  0
 21 19  2  0
M  END
$$$$
