MSC.pdb
     RDKit          3D

 21 20  0  0  1  0  0  0  0  0999 V2000
   14.9476   -5.5082   -6.0440 C   0  0  0  0  0  0  0  0  0  0  0  0
   13.3658   -5.4212   -6.9049 S   0  0  0  0  0  0  0  0  0  0  0  0
   13.2319   -6.7271   -8.1343 C   0  0  0  0  0  0  0  0  0  0  0  0
   14.5456   -6.9869   -8.8352 C   0  0  0  0  0  0  0  0  0  0  0  0
   14.4328   -8.0572   -9.8988 C   0  0  2  0  0  0  0  0  0  0  0  0
   14.7519   -9.3694   -9.3920 N   0  0  0  0  0  0  0  0  0  0  0  0
   15.3356   -7.6522  -11.0070 C   0  0  0  0  0  0  0  0  0  0  0  0
   16.0224   -8.5653  -11.5314 O   0  0  0  0  0  0  0  0  0  0  0  0
   16.2590   -3.6471  -11.7485 O   0  0  0  0  0  0  0  0  0  0  0  0
   16.0608   -4.4660  -12.8407 C   0  0  0  0  0  0  0  0  0  0  0  0
   16.3106   -5.9206  -12.5599 C   0  0  2  0  0  0  0  0  0  0  0  0
   15.4383   -6.3154  -11.4695 N   0  0  0  0  0  0  0  0  0  0  0  0
   17.7337   -6.1477  -12.2334 C   0  0  0  0  0  0  0  0  0  0  0  0
   18.0674   -6.1270  -11.0213 O   0  0  0  0  0  0  0  0  0  0  0  0
   18.7416   -6.3868  -13.1981 N   0  0  0  0  0  0  0  0  0  0  0  0
   20.1436   -6.5361  -12.8223 C   0  0  1  0  0  0  0  0  0  0  0  0
   20.6306   -7.9435  -13.0869 C   0  0  0  0  0  0  0  0  0  0  0  0
   22.3799   -8.0625  -12.7062 S   0  0  0  0  0  0  0  0  0  0  0  0
   20.9168   -5.5449  -13.6117 C   0  0  0  0  0  0  0  0  0  0  0  0
   22.0325   -4.8973  -13.0844 O   0  0  0  0  0  0  0  0  0  0  0  0
   20.5919   -5.2520  -14.7898 O   0  0  0  0  0  0  0  0  0  0  0  0
  2  1  1  0
  3  4  1  0
  3  2  1  0
  4  5  1  0
  5  7  1  0
  5  6  1  1
  7 12  1  0
  7  8  2  0
  9 10  1  0
 11 10  1  1
 11 13  1  0
 12 11  1  0
 13 15  1  0
 13 14  2  0
 15 16  1  0
 16 19  1  0
 16 17  1  6
 18 17  1  0
 19 20  1  0
 21 19  2  0
M  END
$$$$
