MSC.pdb
     RDKit          3D

 21 20  0  0  1  0  0  0  0  0999 V2000
   17.0792  -13.2881  -13.5037 C   0  0  0  0  0  0  0  0  0  0  0  0
   16.7376  -14.3563  -12.0919 S   0  0  0  0  0  0  0  0  0  0  0  0
   15.5010  -13.6191  -11.0140 C   0  0  0  0  0  0  0  0  0  0  0  0
   15.4335  -12.1170  -11.1678 C   0  0  0  0  0  0  0  0  0  0  0  0
   14.3363  -11.4978  -10.3298 C   0  0  2  0  0  0  0  0  0  0  0  0
   13.0452  -12.0820  -10.5987 N   0  0  0  0  0  0  0  0  0  0  0  0
   14.3583  -10.0391  -10.6110 C   0  0  0  0  0  0  0  0  0  0  0  0
   13.6832   -9.6491  -11.5972 O   0  0  0  0  0  0  0  0  0  0  0  0
   16.7924   -7.4529   -8.3745 O   0  0  0  0  0  0  0  0  0  0  0  0
   15.5957   -6.9846   -8.8757 C   0  0  0  0  0  0  0  0  0  0  0  0
   15.1422   -7.6927  -10.1206 C   0  0  2  0  0  0  0  0  0  0  0  0
   15.0922   -9.1129   -9.8269 N   0  0  0  0  0  0  0  0  0  0  0  0
   16.0538   -7.3971  -11.2454 C   0  0  0  0  0  0  0  0  0  0  0  0
   17.1501   -8.0114  -11.2882 O   0  0  0  0  0  0  0  0  0  0  0  0
   15.7699   -6.4681  -12.2749 N   0  0  0  0  0  0  0  0  0  0  0  0
   16.6965   -6.2384  -13.3784 C   0  0  1  0  0  0  0  0  0  0  0  0
   16.0093   -6.4239  -14.7131 C   0  0  0  0  0  0  0  0  0  0  0  0
   15.4463   -8.1197  -14.8758 S   0  0  0  0  0  0  0  0  0  0  0  0
   17.2180   -4.8564  -13.2323 C   0  0  0  0  0  0  0  0  0  0  0  0
   18.4305   -4.4666  -13.7981 O   0  0  0  0  0  0  0  0  0  0  0  0
   16.5822   -3.9831  -12.5899 O   0  0  0  0  0  0  0  0  0  0  0  0
  2  1  1  0
  3  4  1  0
  3  2  1  0
  4  5  1  0
  5  7  1  0
  5  6  1  6
  7 12  1  0
  7  8  2  0
  9 10  1  0
 11 10  1  1
 11 13  1  0
 12 11  1  0
 13 15  1  0
 13 14  2  0
 15 16  1  0
 16 19  1  0
 16 17  1  6
 18 17  1  0
 19 20  1  0
 21 19  2  0
M  END
$$$$
