MSC.pdb
     RDKit          3D

 21 20  0  0  1  0  0  0  0  0999 V2000
   26.8617  -15.5265  -15.3171 C   0  0  0  0  0  0  0  0  0  0  0  0
   25.8046  -14.0728  -15.4598 S   0  0  0  0  0  0  0  0  0  0  0  0
   24.7509  -14.1860  -16.9129 C   0  0  0  0  0  0  0  0  0  0  0  0
   23.9483  -12.9245  -17.1346 C   0  0  0  0  0  0  0  0  0  0  0  0
   23.1622  -12.5153  -15.9082 C   0  0  2  0  0  0  0  0  0  0  0  0
   22.2855  -13.5625  -15.4443 N   0  0  0  0  0  0  0  0  0  0  0  0
   22.4160  -11.2835  -16.2729 C   0  0  0  0  0  0  0  0  0  0  0  0
   23.0944  -10.3391  -16.7509 O   0  0  0  0  0  0  0  0  0  0  0  0
   18.4545  -10.7234  -15.0176 O   0  0  0  0  0  0  0  0  0  0  0  0
   18.8316  -10.1996  -16.2367 C   0  0  0  0  0  0  0  0  0  0  0  0
   20.3019   -9.9101  -16.3424 C   0  0  2  0  0  0  0  0  0  0  0  0
   21.0143  -11.1513  -16.1024 N   0  0  0  0  0  0  0  0  0  0  0  0
   20.6927   -8.8586  -15.3806 C   0  0  0  0  0  0  0  0  0  0  0  0
   21.0243   -9.2180  -14.2221 O   0  0  0  0  0  0  0  0  0  0  0  0
   20.7174   -7.4758  -15.6819 N   0  0  0  0  0  0  0  0  0  0  0  0
   21.0638   -6.4771  -14.6760 C   0  0  1  0  0  0  0  0  0  0  0  0
   22.4797   -5.9806  -14.8678 C   0  0  0  0  0  0  0  0  0  0  0  0
   22.8080   -4.6290  -13.7344 S   0  0  0  0  0  0  0  0  0  0  0  0
   20.0856   -5.3682  -14.8044 C   0  0  0  0  0  0  0  0  0  0  0  0
   19.6792   -4.6176  -13.7027 O   0  0  0  0  0  0  0  0  0  0  0  0
   19.5856   -5.0641  -15.9166 O   0  0  0  0  0  0  0  0  0  0  0  0
  2  1  1  0
  3  4  1  0
  3  2  1  0
  4  5  1  0
  5  7  1  0
  5  6  1  6
  7 12  1  0
  7  8  2  0
  9 10  1  0
 11 10  1  1
 11 13  1  0
 12 11  1  0
 13 15  1  0
 13 14  2  0
 15 16  1  0
 16 19  1  0
 16 17  1  6
 18 17  1  0
 19 20  1  0
 21 19  2  0
M  END
$$$$
