MSC.pdb
     RDKit          3D

 21 20  0  0  1  0  0  0  0  0999 V2000
   17.2091  -13.0645  -14.0938 C   0  0  0  0  0  0  0  0  0  0  0  0
   16.0139  -13.3340  -15.4166 S   0  0  0  0  0  0  0  0  0  0  0  0
   16.5502  -12.5382  -16.9377 C   0  0  0  0  0  0  0  0  0  0  0  0
   17.7672  -11.6670  -16.7267 C   0  0  0  0  0  0  0  0  0  0  0  0
   18.2049  -10.9668  -17.9946 C   0  0  2  0  0  0  0  0  0  0  0  0
   18.7325  -11.8851  -18.9738 N   0  0  0  0  0  0  0  0  0  0  0  0
   19.2052   -9.9446  -17.5922 C   0  0  0  0  0  0  0  0  0  0  0  0
   20.0724  -10.3083  -16.7580 O   0  0  0  0  0  0  0  0  0  0  0  0
   18.7340   -5.7337  -18.1246 O   0  0  0  0  0  0  0  0  0  0  0  0
   19.8979   -6.3737  -18.4968 C   0  0  0  0  0  0  0  0  0  0  0  0
   20.1806   -7.6219  -17.7100 C   0  0  2  0  0  0  0  0  0  0  0  0
   19.2062   -8.6222  -18.1046 N   0  0  0  0  0  0  0  0  0  0  0  0
   20.1243   -7.3435  -16.2599 C   0  0  0  0  0  0  0  0  0  0  0  0
   19.1154   -7.7438  -15.6251 O   0  0  0  0  0  0  0  0  0  0  0  0
   21.1332   -6.6564  -15.5432 N   0  0  0  0  0  0  0  0  0  0  0  0
   20.9920   -6.3484  -14.1240 C   0  0  1  0  0  0  0  0  0  0  0  0
   21.1204   -7.5977  -13.2810 C   0  0  0  0  0  0  0  0  0  0  0  0
   21.1366   -7.1578  -11.5416 S   0  0  0  0  0  0  0  0  0  0  0  0
   22.0470   -5.3616  -13.7826 C   0  0  0  0  0  0  0  0  0  0  0  0
   21.8751   -4.4277  -12.7626 O   0  0  0  0  0  0  0  0  0  0  0  0
   23.1390   -5.3320  -14.4040 O   0  0  0  0  0  0  0  0  0  0  0  0
  2  1  1  0
  3  4  1  0
  3  2  1  0
  4  5  1  0
  5  7  1  0
  5  6  1  6
  7 12  1  0
  7  8  2  0
  9 10  1  0
 11 10  1  6
 11 13  1  0
 12 11  1  0
 13 15  1  0
 13 14  2  0
 15 16  1  0
 16 19  1  0
 16 17  1  1
 18 17  1  0
 19 20  1  0
 21 19  2  0
M  END
$$$$
