PTQ.pdb
     RDKit          3D

 24 24  0  0  1  0  0  0  0  0999 V2000
   10.0149  -15.9768   18.4195 N   0  0  0  0  0  0  0  0  0  0  0  0
    9.3057  -15.7150   17.2093 C   0  0  0  0  0  0  0  0  0  0  0  0
   10.2336  -14.6973   16.5272 C   0  0  0  0  0  0  0  0  0  0  0  0
   10.5146  -13.7876   17.7290 C   0  0  0  0  0  0  0  0  0  0  0  0
   10.5176  -14.7413   18.9034 C   0  0  1  0  0  0  0  0  0  0  0  0
    9.8578  -14.1926   20.0862 C   0  0  0  0  0  0  0  0  0  0  0  0
   10.3317  -13.0962   20.5435 O   0  0  0  0  0  0  0  0  0  0  0  0
    6.2992  -13.2343   20.4953 C   0  0  0  0  0  0  0  0  0  0  0  0
    6.6073  -14.0213   21.7779 C   0  0  1  0  0  0  0  0  0  0  0  0
    6.1338  -15.3200   21.5087 O   0  0  0  0  0  0  0  0  0  0  0  0
    8.0926  -14.0976   21.8799 C   0  0  2  0  0  0  0  0  0  0  0  0
    8.7624  -14.7256   20.7841 N   0  0  0  0  0  0  0  0  0  0  0  0
    8.4755  -14.7682   23.1463 C   0  0  0  0  0  0  0  0  0  0  0  0
    8.0039  -14.4138   24.2612 O   0  0  0  0  0  0  0  0  0  0  0  0
    7.2518  -18.3116   26.3220 N   0  0  0  0  0  0  0  0  0  0  0  0
    8.6329  -18.5937   26.4757 C   0  0  0  0  0  0  0  0  0  0  0  0
    9.1212  -18.6087   27.6291 O   0  0  0  0  0  0  0  0  0  0  0  0
    9.5368  -18.8748   25.3248 C   0  0  0  0  0  0  0  0  0  0  0  0
    9.2182  -17.9660   24.1924 C   0  0  0  0  0  0  0  0  0  0  0  0
    9.8157  -16.6062   24.2647 C   0  0  2  0  0  0  0  0  0  0  0  0
    9.4007  -15.8388   23.0923 N   0  0  0  0  0  0  0  0  0  0  0  0
   11.2885  -16.5716   24.3911 C   0  0  0  0  0  0  0  0  0  0  0  0
   12.0456  -16.4216   23.4013 O   0  0  0  0  0  0  0  0  0  0  0  0
   11.8599  -16.7071   25.6392 O   0  0  0  0  0  0  0  0  0  0  0  0
  1  2  1  0
  3  2  1  0
  4  5  1  0
  4  3  1  0
  5  1  1  0
  5  6  1  1
  7  6  2  0
  9  8  1  6
  9 11  1  0
 10  9  1  0
 11 13  1  0
 11 12  1  6
 12  6  1  0
 13 21  1  0
 14 13  2  0
 16 15  1  0
 17 16  2  0
 18 16  1  0
 19 18  1  0
 20 19  1  6
 21 20  1  0
 22 24  1  0
 22 20  1  0
 23 22  2  0
M  END
$$$$
