PTQ.pdb
     RDKit          3D

 24 24  0  0  1  0  0  0  0  0999 V2000
    8.7979  -14.5441   18.5213 N   0  0  0  0  0  0  0  0  0  0  0  0
    7.5208  -14.3747   17.9077 C   0  0  0  0  0  0  0  0  0  0  0  0
    7.1987  -12.9171   18.2732 C   0  0  0  0  0  0  0  0  0  0  0  0
    7.5906  -12.9505   19.7552 C   0  0  0  0  0  0  0  0  0  0  0  0
    8.7544  -13.9164   19.7931 C   0  0  1  0  0  0  0  0  0  0  0  0
    8.7213  -14.8050   20.9527 C   0  0  0  0  0  0  0  0  0  0  0  0
    7.7435  -14.6465   21.7619 O   0  0  0  0  0  0  0  0  0  0  0  0
    8.4174  -18.4005   21.4200 C   0  0  0  0  0  0  0  0  0  0  0  0
    9.6188  -18.0667   22.3169 C   0  0  1  0  0  0  0  0  0  0  0  0
   10.7394  -18.3993   21.5315 O   0  0  0  0  0  0  0  0  0  0  0  0
    9.6170  -16.5862   22.4914 C   0  0  2  0  0  0  0  0  0  0  0  0
    9.6367  -15.8155   21.2876 N   0  0  0  0  0  0  0  0  0  0  0  0
   10.7496  -16.1812   23.3592 C   0  0  0  0  0  0  0  0  0  0  0  0
   11.8088  -15.6828   22.8893 O   0  0  0  0  0  0  0  0  0  0  0  0
   10.2918  -13.4421   28.7934 N   0  0  0  0  0  0  0  0  0  0  0  0
   10.0317  -14.8308   28.9154 C   0  0  0  0  0  0  0  0  0  0  0  0
    9.4539  -15.2484   29.9453 O   0  0  0  0  0  0  0  0  0  0  0  0
   10.4147  -15.8230   27.8717 C   0  0  0  0  0  0  0  0  0  0  0  0
   11.1376  -15.1446   26.7641 C   0  0  0  0  0  0  0  0  0  0  0  0
   11.6895  -16.0351   25.7088 C   0  0  2  0  0  0  0  0  0  0  0  0
   10.6294  -16.3639   24.7582 N   0  0  0  0  0  0  0  0  0  0  0  0
   12.3243  -17.2764   26.2012 C   0  0  0  0  0  0  0  0  0  0  0  0
   13.4053  -17.2723   26.8391 O   0  0  0  0  0  0  0  0  0  0  0  0
   11.7122  -18.4880   25.9560 O   0  0  0  0  0  0  0  0  0  0  0  0
  1  2  1  0
  3  2  1  0
  4  5  1  0
  4  3  1  0
  5  1  1  0
  5  6  1  1
  7  6  2  0
  9  8  1  6
  9 11  1  0
 10  9  1  0
 11 13  1  0
 11 12  1  6
 12  6  1  0
 13 21  1  0
 14 13  2  0
 16 15  1  0
 17 16  2  0
 18 16  1  0
 19 18  1  0
 20 19  1  1
 21 20  1  0
 22 24  1  0
 22 20  1  0
 23 22  2  0
M  END
$$$$
