PTQ.pdb
     RDKit          3D

 24 24  0  0  1  0  0  0  0  0999 V2000
    9.1698  -14.2340   19.2276 N   0  0  0  0  0  0  0  0  0  0  0  0
    8.3913  -14.2740   18.0325 C   0  0  0  0  0  0  0  0  0  0  0  0
    7.9014  -12.8202   17.9399 C   0  0  0  0  0  0  0  0  0  0  0  0
    7.4710  -12.6201   19.3979 C   0  0  0  0  0  0  0  0  0  0  0  0
    8.4640  -13.4526   20.1788 C   0  0  1  0  0  0  0  0  0  0  0  0
    7.8514  -14.1804   21.2880 C   0  0  0  0  0  0  0  0  0  0  0  0
    7.0854  -13.5038   22.0569 O   0  0  0  0  0  0  0  0  0  0  0  0
    5.6919  -17.2123   21.2739 C   0  0  0  0  0  0  0  0  0  0  0  0
    6.7112  -17.5032   22.3856 C   0  0  1  0  0  0  0  0  0  0  0  0
    7.6742  -18.3227   21.7657 O   0  0  0  0  0  0  0  0  0  0  0  0
    7.3678  -16.2040   22.7070 C   0  0  2  0  0  0  0  0  0  0  0  0
    8.0028  -15.5378   21.6131 N   0  0  0  0  0  0  0  0  0  0  0  0
    8.3438  -16.3931   23.8077 C   0  0  0  0  0  0  0  0  0  0  0  0
    9.5733  -16.1525   23.6615 O   0  0  0  0  0  0  0  0  0  0  0  0
    9.3296  -20.5286   28.3789 N   0  0  0  0  0  0  0  0  0  0  0  0
    8.3874  -19.5216   28.7091 C   0  0  0  0  0  0  0  0  0  0  0  0
    7.2718  -19.8647   29.1640 O   0  0  0  0  0  0  0  0  0  0  0  0
    8.6616  -18.0667   28.5403 C   0  0  0  0  0  0  0  0  0  0  0  0
    7.9248  -17.5425   27.3605 C   0  0  0  0  0  0  0  0  0  0  0  0
    8.7506  -17.2445   26.1603 C   0  0  2  0  0  0  0  0  0  0  0  0
    7.8713  -16.8592   25.0585 N   0  0  0  0  0  0  0  0  0  0  0  0
    9.6485  -18.3364   25.7270 C   0  0  0  0  0  0  0  0  0  0  0  0
    9.2358  -19.3317   25.0833 O   0  0  0  0  0  0  0  0  0  0  0  0
   10.9910  -18.2661   26.0363 O   0  0  0  0  0  0  0  0  0  0  0  0
  1  2  1  0
  3  2  1  0
  4  5  1  0
  4  3  1  0
  5  1  1  0
  5  6  1  1
  7  6  2  0
  9  8  1  6
  9 11  1  0
 10  9  1  0
 11 13  1  0
 11 12  1  6
 12  6  1  0
 13 21  1  0
 14 13  2  0
 16 15  1  0
 17 16  2  0
 18 16  1  0
 19 18  1  0
 20 19  1  1
 21 20  1  0
 22 24  1  0
 22 20  1  0
 23 22  2  0
M  END
$$$$
