PTQ.pdb
     RDKit          3D

 24 24  0  0  1  0  0  0  0  0999 V2000
    3.5433  -19.3861   19.9473 N   0  0  0  0  0  0  0  0  0  0  0  0
    2.7624  -20.4090   20.5637 C   0  0  0  0  0  0  0  0  0  0  0  0
    1.6665  -19.5810   21.2533 C   0  0  0  0  0  0  0  0  0  0  0  0
    2.5474  -18.4929   21.8786 C   0  0  0  0  0  0  0  0  0  0  0  0
    3.6616  -18.3152   20.8707 C   0  0  1  0  0  0  0  0  0  0  0  0
    4.9719  -18.1390   21.4933 C   0  0  0  0  0  0  0  0  0  0  0  0
    5.7310  -19.1680   21.5198 O   0  0  0  0  0  0  0  0  0  0  0  0
    7.3816  -15.4630   20.6757 C   0  0  0  0  0  0  0  0  0  0  0  0
    7.5559  -15.5992   22.1958 C   0  0  1  0  0  0  0  0  0  0  0  0
    6.8543  -14.4983   22.7240 O   0  0  0  0  0  0  0  0  0  0  0  0
    6.8214  -16.8331   22.5961 C   0  0  2  0  0  0  0  0  0  0  0  0
    5.5001  -16.9722   22.0685 N   0  0  0  0  0  0  0  0  0  0  0  0
    6.7789  -16.9348   24.0752 C   0  0  0  0  0  0  0  0  0  0  0  0
    5.7056  -16.8054   24.7251 O   0  0  0  0  0  0  0  0  0  0  0  0
    6.3587  -20.6573   28.2252 N   0  0  0  0  0  0  0  0  0  0  0  0
    7.2909  -20.9676   27.2027 C   0  0  0  0  0  0  0  0  0  0  0  0
    7.6667  -22.1550   27.0688 O   0  0  0  0  0  0  0  0  0  0  0  0
    7.8483  -19.9438   26.2745 C   0  0  0  0  0  0  0  0  0  0  0  0
    7.2203  -18.6222   26.5366 C   0  0  0  0  0  0  0  0  0  0  0  0
    8.0515  -17.4333   26.2100 C   0  0  2  0  0  0  0  0  0  0  0  0
    7.9863  -17.1849   24.7714 N   0  0  0  0  0  0  0  0  0  0  0  0
    9.4635  -17.5145   26.6414 C   0  0  0  0  0  0  0  0  0  0  0  0
    9.7946  -17.5929   27.8496 O   0  0  0  0  0  0  0  0  0  0  0  0
   10.4599  -17.5056   25.6876 O   0  0  0  0  0  0  0  0  0  0  0  0
  1  2  1  0
  3  2  1  0
  4  5  1  0
  4  3  1  0
  5  1  1  0
  5  6  1  1
  7  6  2  0
  9  8  1  6
  9 11  1  0
 10  9  1  0
 11 13  1  0
 11 12  1  1
 12  6  1  0
 13 21  1  0
 14 13  2  0
 16 15  1  0
 17 16  2  0
 18 16  1  0
 19 18  1  0
 20 19  1  6
 21 20  1  0
 22 24  1  0
 22 20  1  0
 23 22  2  0
M  END
$$$$
