PTQ.pdb
     RDKit          3D

 24 24  0  0  1  0  0  0  0  0999 V2000
    8.5955  -16.9198   16.2363 N   0  0  0  0  0  0  0  0  0  0  0  0
    9.1173  -18.2195   15.9634 C   0  0  0  0  0  0  0  0  0  0  0  0
    7.9304  -19.1127   16.3580 C   0  0  0  0  0  0  0  0  0  0  0  0
    7.5662  -18.4500   17.6918 C   0  0  0  0  0  0  0  0  0  0  0  0
    7.8793  -16.9882   17.4593 C   0  0  1  0  0  0  0  0  0  0  0  0
    8.5065  -16.3481   18.6135 C   0  0  0  0  0  0  0  0  0  0  0  0
    9.7597  -16.5536   18.7654 O   0  0  0  0  0  0  0  0  0  0  0  0
    7.7004  -12.7634   20.2775 C   0  0  0  0  0  0  0  0  0  0  0  0
    7.8666  -13.8264   21.3738 C   0  0  1  0  0  0  0  0  0  0  0  0
    6.5486  -14.2178   21.6783 O   0  0  0  0  0  0  0  0  0  0  0  0
    8.5438  -14.9903   20.7342 C   0  0  2  0  0  0  0  0  0  0  0  0
    7.8974  -15.5319   19.5799 N   0  0  0  0  0  0  0  0  0  0  0  0
    8.7517  -16.0636   21.7365 C   0  0  0  0  0  0  0  0  0  0  0  0
    7.9470  -17.0265   21.8638 O   0  0  0  0  0  0  0  0  0  0  0  0
   12.6054  -20.0859   21.7573 N   0  0  0  0  0  0  0  0  0  0  0  0
   13.1372  -18.7727   21.8154 C   0  0  0  0  0  0  0  0  0  0  0  0
   14.2629  -18.5544   21.3111 O   0  0  0  0  0  0  0  0  0  0  0  0
   12.4176  -17.6330   22.4510 C   0  0  0  0  0  0  0  0  0  0  0  0
   11.0669  -18.0668   22.8948 C   0  0  0  0  0  0  0  0  0  0  0  0
   10.2352  -17.0247   23.5534 C   0  0  2  0  0  0  0  0  0  0  0  0
    9.8923  -15.9966   22.5731 N   0  0  0  0  0  0  0  0  0  0  0  0
   10.8412  -16.3971   24.7472 C   0  0  0  0  0  0  0  0  0  0  0  0
   11.1353  -17.0529   25.7762 O   0  0  0  0  0  0  0  0  0  0  0  0
   11.0973  -15.0418   24.7378 O   0  0  0  0  0  0  0  0  0  0  0  0
  1  2  1  0
  3  2  1  0
  4  5  1  0
  4  3  1  0
  5  1  1  0
  5  6  1  1
  7  6  2  0
  9  8  1  6
  9 11  1  0
 10  9  1  0
 11 13  1  0
 11 12  1  6
 12  6  1  0
 13 21  1  0
 14 13  2  0
 16 15  1  0
 17 16  2  0
 18 16  1  0
 19 18  1  0
 20 19  1  6
 21 20  1  0
 22 24  1  0
 22 20  1  0
 23 22  2  0
M  END
$$$$
