PTQ.pdb
     RDKit          3D

 24 24  0  0  1  0  0  0  0  0999 V2000
    9.3503  -14.3129   18.7156 N   0  0  0  0  0  0  0  0  0  0  0  0
    8.3355  -14.3269   17.7125 C   0  0  0  0  0  0  0  0  0  0  0  0
    7.8072  -12.8860   17.7943 C   0  0  0  0  0  0  0  0  0  0  0  0
    7.6941  -12.7595   19.3182 C   0  0  0  0  0  0  0  0  0  0  0  0
    8.8479  -13.5932   19.8305 C   0  0  1  0  0  0  0  0  0  0  0  0
    8.5015  -14.3844   21.0092 C   0  0  0  0  0  0  0  0  0  0  0  0
    7.8503  -13.7787   21.9284 O   0  0  0  0  0  0  0  0  0  0  0  0
    6.9800  -17.9355   21.2727 C   0  0  0  0  0  0  0  0  0  0  0  0
    8.1342  -17.8854   22.2849 C   0  0  1  0  0  0  0  0  0  0  0  0
    9.2070  -18.5067   21.6168 O   0  0  0  0  0  0  0  0  0  0  0  0
    8.4846  -16.4464   22.4549 C   0  0  2  0  0  0  0  0  0  0  0  0
    8.7984  -15.7343   21.2557 N   0  0  0  0  0  0  0  0  0  0  0  0
    9.6032  -16.3122   23.4196 C   0  0  0  0  0  0  0  0  0  0  0  0
   10.7943  -16.1357   23.0439 O   0  0  0  0  0  0  0  0  0  0  0  0
    9.3330  -13.3263   29.0484 N   0  0  0  0  0  0  0  0  0  0  0  0
    9.8972  -14.6100   29.2600 C   0  0  0  0  0  0  0  0  0  0  0  0
    9.7950  -15.1349   30.3927 O   0  0  0  0  0  0  0  0  0  0  0  0
   10.6098  -15.3691   28.1939 C   0  0  0  0  0  0  0  0  0  0  0  0
    9.7474  -15.4872   26.9889 C   0  0  0  0  0  0  0  0  0  0  0  0
   10.3286  -16.2424   25.8474 C   0  0  2  0  0  0  0  0  0  0  0  0
    9.3155  -16.3864   24.8040 N   0  0  0  0  0  0  0  0  0  0  0  0
   10.8885  -17.5676   26.1890 C   0  0  0  0  0  0  0  0  0  0  0  0
   10.1989  -18.6160   26.1654 O   0  0  0  0  0  0  0  0  0  0  0  0
   12.2171  -17.6645   26.5468 O   0  0  0  0  0  0  0  0  0  0  0  0
  1  2  1  0
  3  2  1  0
  4  5  1  0
  4  3  1  0
  5  1  1  0
  5  6  1  1
  7  6  2  0
  9  8  1  6
  9 11  1  0
 10  9  1  0
 11 13  1  0
 11 12  1  6
 12  6  1  0
 13 21  1  0
 14 13  2  0
 16 15  1  0
 17 16  2  0
 18 16  1  0
 19 18  1  0
 20 19  1  1
 21 20  1  0
 22 24  1  0
 22 20  1  0
 23 22  2  0
M  END
$$$$
