PTQ.pdb
     RDKit          3D

 24 24  0  0  1  0  0  0  0  0999 V2000
    8.4017  -15.7427   16.1717 N   0  0  0  0  0  0  0  0  0  0  0  0
    7.0925  -15.4240   15.7021 C   0  0  0  0  0  0  0  0  0  0  0  0
    7.3900  -14.2694   14.7324 C   0  0  0  0  0  0  0  0  0  0  0  0
    8.3525  -13.4618   15.6112 C   0  0  0  0  0  0  0  0  0  0  0  0
    9.0898  -14.5227   16.3983 C   0  0  1  0  0  0  0  0  0  0  0  0
    9.3054  -14.1507   17.7949 C   0  0  0  0  0  0  0  0  0  0  0  0
   10.0061  -13.1008   18.0013 O   0  0  0  0  0  0  0  0  0  0  0  0
    7.0659  -13.1923   20.5001 C   0  0  0  0  0  0  0  0  0  0  0  0
    7.9592  -14.2370   21.1857 C   0  0  1  0  0  0  0  0  0  0  0  0
    7.1939  -15.4188   21.1561 O   0  0  0  0  0  0  0  0  0  0  0  0
    9.1338  -14.4408   20.2907 C   0  0  2  0  0  0  0  0  0  0  0  0
    8.8349  -14.8093   18.9421 N   0  0  0  0  0  0  0  0  0  0  0  0
   10.0522  -15.4412   20.8870 C   0  0  0  0  0  0  0  0  0  0  0  0
   10.0425  -16.6527   20.5360 O   0  0  0  0  0  0  0  0  0  0  0  0
   15.4118  -16.5107   21.9547 N   0  0  0  0  0  0  0  0  0  0  0  0
   14.9980  -15.3263   21.2938 C   0  0  0  0  0  0  0  0  0  0  0  0
   15.6604  -14.9207   20.3110 O   0  0  0  0  0  0  0  0  0  0  0  0
   13.8066  -14.5362   21.7142 C   0  0  0  0  0  0  0  0  0  0  0  0
   13.1451  -15.1893   22.8742 C   0  0  0  0  0  0  0  0  0  0  0  0
   11.8820  -15.9152   22.5760 C   0  0  2  0  0  0  0  0  0  0  0  0
   10.9651  -15.0137   21.8815 N   0  0  0  0  0  0  0  0  0  0  0  0
   11.2069  -16.5117   23.7484 C   0  0  0  0  0  0  0  0  0  0  0  0
   11.6952  -17.4747   24.3884 O   0  0  0  0  0  0  0  0  0  0  0  0
    9.9959  -15.9964   24.1616 O   0  0  0  0  0  0  0  0  0  0  0  0
  1  2  1  0
  3  2  1  0
  4  5  1  0
  4  3  1  0
  5  1  1  0
  5  6  1  1
  7  6  2  0
  9  8  1  6
  9 11  1  0
 10  9  1  0
 11 13  1  0
 11 12  1  6
 12  6  1  0
 13 21  1  0
 14 13  2  0
 16 15  1  0
 17 16  2  0
 18 16  1  0
 19 18  1  0
 20 19  1  1
 21 20  1  0
 22 24  1  0
 22 20  1  0
 23 22  2  0
M  END
$$$$
