PTQ.pdb
     RDKit          3D

 24 24  0  0  1  0  0  0  0  0999 V2000
    9.3166  -15.8682   15.8510 N   0  0  0  0  0  0  0  0  0  0  0  0
   10.2550  -16.8478   15.4087 C   0  0  0  0  0  0  0  0  0  0  0  0
    9.4311  -18.1387   15.5386 C   0  0  0  0  0  0  0  0  0  0  0  0
    8.8284  -17.8983   16.9278 C   0  0  0  0  0  0  0  0  0  0  0  0
    8.6336  -16.3988   16.9759 C   0  0  1  0  0  0  0  0  0  0  0  0
    8.9758  -15.8200   18.2733 C   0  0  0  0  0  0  0  0  0  0  0  0
   10.2205  -15.6348   18.5020 O   0  0  0  0  0  0  0  0  0  0  0  0
    6.9108  -13.0762   20.2697 C   0  0  0  0  0  0  0  0  0  0  0  0
    7.4505  -14.0999   21.2797 C   0  0  1  0  0  0  0  0  0  0  0  0
    6.3586  -14.9558   21.5212 O   0  0  0  0  0  0  0  0  0  0  0  0
    8.4911  -14.8914   20.5635 C   0  0  2  0  0  0  0  0  0  0  0  0
    8.1000  -15.4413   19.3032 N   0  0  0  0  0  0  0  0  0  0  0  0
    8.9929  -15.9745   21.4439 C   0  0  0  0  0  0  0  0  0  0  0  0
    9.0885  -17.1686   21.0490 O   0  0  0  0  0  0  0  0  0  0  0  0
   14.0576  -18.6452   22.8417 N   0  0  0  0  0  0  0  0  0  0  0  0
   13.6925  -17.2782   22.7485 C   0  0  0  0  0  0  0  0  0  0  0  0
   14.3331  -16.5341   21.9705 O   0  0  0  0  0  0  0  0  0  0  0  0
   12.5774  -16.6803   23.5356 C   0  0  0  0  0  0  0  0  0  0  0  0
   11.2697  -17.1088   22.9735 C   0  0  0  0  0  0  0  0  0  0  0  0
   10.0631  -16.5773   23.6612 C   0  0  2  0  0  0  0  0  0  0  0  0
    9.3739  -15.6484   22.7681 N   0  0  0  0  0  0  0  0  0  0  0  0
   10.3168  -15.9256   24.9640 C   0  0  0  0  0  0  0  0  0  0  0  0
   10.8496  -16.5299   25.9264 O   0  0  0  0  0  0  0  0  0  0  0  0
    9.9590  -14.6046   25.1362 O   0  0  0  0  0  0  0  0  0  0  0  0
  1  2  1  0
  3  2  1  0
  4  5  1  0
  4  3  1  0
  5  1  1  0
  5  6  1  1
  7  6  2  0
  9  8  1  6
  9 11  1  0
 10  9  1  0
 11 13  1  0
 11 12  1  6
 12  6  1  0
 13 21  1  0
 14 13  2  0
 16 15  1  0
 17 16  2  0
 18 16  1  0
 19 18  1  0
 20 19  1  6
 21 20  1  0
 22 24  1  0
 22 20  1  0
 23 22  2  0
M  END
$$$$
