PTQ.pdb
     RDKit          3D

 24 24  0  0  1  0  0  0  0  0999 V2000
    9.3345  -14.3025   18.4151 N   0  0  0  0  0  0  0  0  0  0  0  0
    8.2326  -14.3375   17.5092 C   0  0  0  0  0  0  0  0  0  0  0  0
    7.6550  -12.9234   17.6783 C   0  0  0  0  0  0  0  0  0  0  0  0
    7.6784  -12.8375   19.2089 C   0  0  0  0  0  0  0  0  0  0  0  0
    8.9083  -13.6316   19.5905 C   0  0  1  0  0  0  0  0  0  0  0  0
    8.7057  -14.4645   20.7740 C   0  0  0  0  0  0  0  0  0  0  0  0
    8.2705  -13.8696   21.8192 O   0  0  0  0  0  0  0  0  0  0  0  0
    7.4599  -18.2572   20.7884 C   0  0  0  0  0  0  0  0  0  0  0  0
    8.5309  -18.0847   21.8758 C   0  0  1  0  0  0  0  0  0  0  0  0
    9.7127  -18.5603   21.2755 O   0  0  0  0  0  0  0  0  0  0  0  0
    8.6915  -16.6169   22.0812 C   0  0  2  0  0  0  0  0  0  0  0  0
    8.9321  -15.8440   20.9030 N   0  0  0  0  0  0  0  0  0  0  0  0
    9.7673  -16.3628   23.0703 C   0  0  0  0  0  0  0  0  0  0  0  0
   10.8828  -15.8776   22.7369 O   0  0  0  0  0  0  0  0  0  0  0  0
    8.6221  -13.7642   28.2921 N   0  0  0  0  0  0  0  0  0  0  0  0
    9.9017  -14.2851   28.6110 C   0  0  0  0  0  0  0  0  0  0  0  0
   10.4214  -13.9793   29.7089 O   0  0  0  0  0  0  0  0  0  0  0  0
   10.6627  -15.1841   27.6981 C   0  0  0  0  0  0  0  0  0  0  0  0
    9.8527  -15.4869   26.4890 C   0  0  0  0  0  0  0  0  0  0  0  0
   10.4792  -16.4066   25.5026 C   0  0  2  0  0  0  0  0  0  0  0  0
    9.5255  -16.6783   24.4293 N   0  0  0  0  0  0  0  0  0  0  0  0
   10.9826  -17.6801   26.0606 C   0  0  0  0  0  0  0  0  0  0  0  0
   12.2051  -17.8986   26.2425 O   0  0  0  0  0  0  0  0  0  0  0  0
   10.0823  -18.6693   26.3975 O   0  0  0  0  0  0  0  0  0  0  0  0
  1  2  1  0
  3  2  1  0
  4  5  1  0
  4  3  1  0
  5  1  1  0
  5  6  1  1
  7  6  2  0
  9  8  1  6
  9 11  1  0
 10  9  1  0
 11 13  1  0
 11 12  1  6
 12  6  1  0
 13 21  1  0
 14 13  2  0
 16 15  1  0
 17 16  2  0
 18 16  1  0
 19 18  1  0
 20 19  1  1
 21 20  1  0
 22 24  1  0
 22 20  1  0
 23 22  2  0
M  END
$$$$
