PTQ.pdb
     RDKit          3D

 24 24  0  0  1  0  0  0  0  0999 V2000
    7.9977  -15.2065   15.6951 N   0  0  0  0  0  0  0  0  0  0  0  0
    8.9979  -15.6417   14.7751 C   0  0  0  0  0  0  0  0  0  0  0  0
    8.8555  -17.1689   14.8711 C   0  0  0  0  0  0  0  0  0  0  0  0
    8.7836  -17.3065   16.3965 C   0  0  0  0  0  0  0  0  0  0  0  0
    8.0569  -16.0531   16.8323 C   0  0  1  0  0  0  0  0  0  0  0  0
    8.6126  -15.4649   18.0491 C   0  0  0  0  0  0  0  0  0  0  0  0
    9.6870  -14.7849   17.9117 O   0  0  0  0  0  0  0  0  0  0  0  0
    7.0408  -13.1220   20.4456 C   0  0  0  0  0  0  0  0  0  0  0  0
    7.7093  -14.1594   21.3601 C   0  0  1  0  0  0  0  0  0  0  0  0
    6.6644  -15.0366   21.7094 O   0  0  0  0  0  0  0  0  0  0  0  0
    8.6668  -14.9195   20.5071 C   0  0  2  0  0  0  0  0  0  0  0  0
    8.1078  -15.5566   19.3560 N   0  0  0  0  0  0  0  0  0  0  0  0
    9.3858  -15.9225   21.3299 C   0  0  0  0  0  0  0  0  0  0  0  0
    9.2091  -17.1624   21.1806 O   0  0  0  0  0  0  0  0  0  0  0  0
   15.1831  -15.2547   22.6550 N   0  0  0  0  0  0  0  0  0  0  0  0
   14.8797  -16.2914   23.5736 C   0  0  0  0  0  0  0  0  0  0  0  0
   15.8221  -16.8811   24.1509 O   0  0  0  0  0  0  0  0  0  0  0  0
   13.4861  -16.7158   23.8872 C   0  0  0  0  0  0  0  0  0  0  0  0
   12.5165  -15.8813   23.1303 C   0  0  0  0  0  0  0  0  0  0  0  0
   11.1072  -16.3558   23.1395 C   0  0  2  0  0  0  0  0  0  0  0  0
   10.2971  -15.4643   22.3121 N   0  0  0  0  0  0  0  0  0  0  0  0
   10.4965  -16.4892   24.4795 C   0  0  0  0  0  0  0  0  0  0  0  0
    9.6520  -15.6711   24.9186 O   0  0  0  0  0  0  0  0  0  0  0  0
   10.8617  -17.5494   25.2827 O   0  0  0  0  0  0  0  0  0  0  0  0
  1  2  1  0
  3  2  1  0
  4  5  1  0
  4  3  1  0
  5  1  1  0
  5  6  1  1
  7  6  2  0
  9  8  1  6
  9 11  1  0
 10  9  1  0
 11 13  1  0
 11 12  1  6
 12  6  1  0
 13 21  1  0
 14 13  2  0
 16 15  1  0
 17 16  2  0
 18 16  1  0
 19 18  1  0
 20 19  1  1
 21 20  1  0
 22 24  1  0
 22 20  1  0
 23 22  2  0
M  END
$$$$
