PTQ.pdb
     RDKit          3D

 24 24  0  0  1  0  0  0  0  0999 V2000
    5.1650  -19.3891   21.7854 N   0  0  0  0  0  0  0  0  0  0  0  0
    4.0682  -18.8465   22.5192 C   0  0  0  0  0  0  0  0  0  0  0  0
    3.0398  -18.6136   21.4011 C   0  0  0  0  0  0  0  0  0  0  0  0
    3.9596  -17.9594   20.3634 C   0  0  0  0  0  0  0  0  0  0  0  0
    5.2877  -18.6509   20.5799 C   0  0  1  0  0  0  0  0  0  0  0  0
    6.4268  -17.7398   20.4918 C   0  0  0  0  0  0  0  0  0  0  0  0
    7.3056  -18.0135   19.6037 O   0  0  0  0  0  0  0  0  0  0  0  0
    6.9474  -13.7486   22.1709 C   0  0  0  0  0  0  0  0  0  0  0  0
    7.6031  -14.3294   20.9091 C   0  0  1  0  0  0  0  0  0  0  0  0
    8.8596  -13.6963   20.8499 O   0  0  0  0  0  0  0  0  0  0  0  0
    7.8417  -15.7750   21.1845 C   0  0  2  0  0  0  0  0  0  0  0  0
    6.6744  -16.5959   21.2673 N   0  0  0  0  0  0  0  0  0  0  0  0
    8.6433  -15.9247   22.4234 C   0  0  0  0  0  0  0  0  0  0  0  0
    8.1104  -15.9589   23.5661 O   0  0  0  0  0  0  0  0  0  0  0  0
    9.7714  -20.1091   24.9941 N   0  0  0  0  0  0  0  0  0  0  0  0
   10.8591  -19.9527   24.0979 C   0  0  0  0  0  0  0  0  0  0  0  0
   11.6723  -20.8962   23.9651 O   0  0  0  0  0  0  0  0  0  0  0  0
   11.0830  -18.7130   23.3018 C   0  0  0  0  0  0  0  0  0  0  0  0
   10.6730  -17.5206   24.0889 C   0  0  0  0  0  0  0  0  0  0  0  0
   10.9417  -16.2022   23.4558 C   0  0  2  0  0  0  0  0  0  0  0  0
   10.0508  -16.0315   22.3101 N   0  0  0  0  0  0  0  0  0  0  0  0
   12.3426  -15.9775   23.0395 C   0  0  0  0  0  0  0  0  0  0  0  0
   12.6731  -15.8370   21.8368 O   0  0  0  0  0  0  0  0  0  0  0  0
   13.3290  -15.9176   24.0019 O   0  0  0  0  0  0  0  0  0  0  0  0
  1  2  1  0
  3  2  1  0
  4  5  1  0
  4  3  1  0
  5  1  1  0
  5  6  1  1
  7  6  2  0
  9  8  1  1
  9 11  1  0
 10  9  1  0
 11 13  1  0
 11 12  1  1
 12  6  1  0
 13 21  1  0
 14 13  2  0
 16 15  1  0
 17 16  2  0
 18 16  1  0
 19 18  1  0
 20 19  1  6
 21 20  1  0
 22 24  1  0
 22 20  1  0
 23 22  2  0
M  END
$$$$
