PTQ.pdb
     RDKit          3D

 24 24  0  0  1  0  0  0  0  0999 V2000
    9.2639  -14.3911   18.3670 N   0  0  0  0  0  0  0  0  0  0  0  0
    8.1946  -14.3689   17.4225 C   0  0  0  0  0  0  0  0  0  0  0  0
    7.8679  -12.8681   17.3682 C   0  0  0  0  0  0  0  0  0  0  0  0
    7.8696  -12.5690   18.8720 C   0  0  0  0  0  0  0  0  0  0  0  0
    8.9331  -13.4964   19.4175 C   0  0  1  0  0  0  0  0  0  0  0  0
    8.5606  -14.1048   20.6928 C   0  0  0  0  0  0  0  0  0  0  0  0
    8.1807  -13.3038   21.6147 O   0  0  0  0  0  0  0  0  0  0  0  0
    6.2675  -17.1467   21.2426 C   0  0  0  0  0  0  0  0  0  0  0  0
    7.4455  -17.3302   22.2112 C   0  0  1  0  0  0  0  0  0  0  0  0
    8.3014  -18.2305   21.5478 O   0  0  0  0  0  0  0  0  0  0  0  0
    8.1442  -16.0152   22.2802 C   0  0  2  0  0  0  0  0  0  0  0  0
    8.5696  -15.4677   21.0300 N   0  0  0  0  0  0  0  0  0  0  0  0
    9.3030  -16.1096   23.2011 C   0  0  0  0  0  0  0  0  0  0  0  0
   10.4924  -16.1286   22.7815 O   0  0  0  0  0  0  0  0  0  0  0  0
    9.0609  -13.7239   28.8731 N   0  0  0  0  0  0  0  0  0  0  0  0
   10.2118  -14.5437   28.9922 C   0  0  0  0  0  0  0  0  0  0  0  0
   10.8176  -14.5781   30.0880 O   0  0  0  0  0  0  0  0  0  0  0  0
   10.7385  -15.3711   27.8703 C   0  0  0  0  0  0  0  0  0  0  0  0
    9.7622  -15.3912   26.7495 C   0  0  0  0  0  0  0  0  0  0  0  0
   10.1160  -16.2619   25.5972 C   0  0  2  0  0  0  0  0  0  0  0  0
    9.0567  -16.1808   24.5937 N   0  0  0  0  0  0  0  0  0  0  0  0
   10.3794  -17.6771   25.9350 C   0  0  0  0  0  0  0  0  0  0  0  0
    9.4913  -18.5615   25.8685 O   0  0  0  0  0  0  0  0  0  0  0  0
   11.6454  -18.0481   26.3379 O   0  0  0  0  0  0  0  0  0  0  0  0
  1  2  1  0
  3  2  1  0
  4  5  1  0
  4  3  1  0
  5  1  1  0
  5  6  1  1
  7  6  2  0
  9  8  1  6
  9 11  1  0
 10  9  1  0
 11 13  1  0
 11 12  1  6
 12  6  1  0
 13 21  1  0
 14 13  2  0
 16 15  1  0
 17 16  2  0
 18 16  1  0
 19 18  1  0
 20 19  1  1
 21 20  1  0
 22 24  1  0
 22 20  1  0
 23 22  2  0
M  END
$$$$
