PTQ.pdb
     RDKit          3D

 24 24  0  0  1  0  0  0  0  0999 V2000
    8.3549  -15.4837   16.4336 N   0  0  0  0  0  0  0  0  0  0  0  0
    7.0261  -15.0965   16.0865 C   0  0  0  0  0  0  0  0  0  0  0  0
    7.2803  -13.7847   15.3270 C   0  0  0  0  0  0  0  0  0  0  0  0
    8.2811  -13.1398   16.2931 C   0  0  0  0  0  0  0  0  0  0  0  0
    9.0527  -14.3185   16.8445 C   0  0  1  0  0  0  0  0  0  0  0  0
    9.3304  -14.2006   18.2743 C   0  0  0  0  0  0  0  0  0  0  0  0
   10.1786  -13.3066   18.6162 O   0  0  0  0  0  0  0  0  0  0  0  0
    7.1307  -13.5888   21.1983 C   0  0  0  0  0  0  0  0  0  0  0  0
    8.0112  -14.7565   21.6681 C   0  0  1  0  0  0  0  0  0  0  0  0
    7.2024  -15.8947   21.4850 O   0  0  0  0  0  0  0  0  0  0  0  0
    9.1415  -14.8490   20.7005 C   0  0  2  0  0  0  0  0  0  0  0  0
    8.7767  -14.9533   19.3222 N   0  0  0  0  0  0  0  0  0  0  0  0
   10.0256  -15.9820   21.0675 C   0  0  0  0  0  0  0  0  0  0  0  0
   10.3724  -16.8595   20.2304 O   0  0  0  0  0  0  0  0  0  0  0  0
   15.4187  -14.1569   21.8089 N   0  0  0  0  0  0  0  0  0  0  0  0
   15.2236  -15.5423   21.5781 C   0  0  0  0  0  0  0  0  0  0  0  0
   15.8986  -16.1065   20.6863 O   0  0  0  0  0  0  0  0  0  0  0  0
   14.2490  -16.3644   22.3494 C   0  0  0  0  0  0  0  0  0  0  0  0
   12.8632  -15.8997   22.0786 C   0  0  0  0  0  0  0  0  0  0  0  0
   11.7812  -16.6502   22.7694 C   0  0  2  0  0  0  0  0  0  0  0  0
   10.4896  -16.0735   22.4021 N   0  0  0  0  0  0  0  0  0  0  0  0
   11.9010  -16.7152   24.2417 C   0  0  0  0  0  0  0  0  0  0  0  0
   11.3301  -15.8941   25.0002 O   0  0  0  0  0  0  0  0  0  0  0  0
   12.6653  -17.7123   24.8111 O   0  0  0  0  0  0  0  0  0  0  0  0
  1  2  1  0
  3  2  1  0
  4  5  1  0
  4  3  1  0
  5  1  1  0
  5  6  1  1
  7  6  2  0
  9  8  1  6
  9 11  1  0
 10  9  1  0
 11 13  1  0
 11 12  1  6
 12  6  1  0
 13 21  1  0
 14 13  2  0
 16 15  1  0
 17 16  2  0
 18 16  1  0
 19 18  1  0
 20 19  1  1
 21 20  1  0
 22 24  1  0
 22 20  1  0
 23 22  2  0
M  END
$$$$
