PTQ.pdb
     RDKit          3D

 24 24  0  0  1  0  0  0  0  0999 V2000
    8.0936  -15.1820   13.7839 N   0  0  0  0  0  0  0  0  0  0  0  0
    8.8937  -16.1107   13.0537 C   0  0  0  0  0  0  0  0  0  0  0  0
    8.3227  -17.4522   13.5399 C   0  0  0  0  0  0  0  0  0  0  0  0
    8.2682  -17.1574   15.0435 C   0  0  0  0  0  0  0  0  0  0  0  0
    7.9475  -15.6801   15.1045 C   0  0  1  0  0  0  0  0  0  0  0  0
    8.6911  -14.9771   16.1476 C   0  0  0  0  0  0  0  0  0  0  0  0
    9.8196  -14.4822   15.8051 O   0  0  0  0  0  0  0  0  0  0  0  0
    7.1849  -12.7032   19.0485 C   0  0  0  0  0  0  0  0  0  0  0  0
    8.3288  -13.5459   19.6323 C   0  0  1  0  0  0  0  0  0  0  0  0
    7.6777  -14.6277   20.2559 O   0  0  0  0  0  0  0  0  0  0  0  0
    9.0887  -14.0891   18.4705 C   0  0  2  0  0  0  0  0  0  0  0  0
    8.3151  -14.7786   17.4857 N   0  0  0  0  0  0  0  0  0  0  0  0
   10.1800  -14.9707   18.9517 C   0  0  0  0  0  0  0  0  0  0  0  0
   10.1390  -16.2238   18.8136 O   0  0  0  0  0  0  0  0  0  0  0  0
   17.1501  -13.9228   20.4954 N   0  0  0  0  0  0  0  0  0  0  0  0
   16.1303  -14.2123   19.5537 C   0  0  0  0  0  0  0  0  0  0  0  0
   16.1891  -13.6849   18.4191 O   0  0  0  0  0  0  0  0  0  0  0  0
   14.9854  -15.1189   19.8503 C   0  0  0  0  0  0  0  0  0  0  0  0
   13.7004  -14.4237   19.5763 C   0  0  0  0  0  0  0  0  0  0  0  0
   12.4718  -15.1327   20.0226 C   0  0  2  0  0  0  0  0  0  0  0  0
   11.2990  -14.3782   19.5856 N   0  0  0  0  0  0  0  0  0  0  0  0
   12.3878  -15.3930   21.4757 C   0  0  0  0  0  0  0  0  0  0  0  0
   11.6065  -14.7619   22.2284 O   0  0  0  0  0  0  0  0  0  0  0  0
   13.1935  -16.3642   22.0328 O   0  0  0  0  0  0  0  0  0  0  0  0
  1  2  1  0
  3  2  1  0
  4  5  1  0
  4  3  1  0
  5  1  1  0
  5  6  1  1
  7  6  2  0
  9  8  1  6
  9 11  1  0
 10  9  1  0
 11 13  1  0
 11 12  1  6
 12  6  1  0
 13 21  1  0
 14 13  2  0
 16 15  1  0
 17 16  2  0
 18 16  1  0
 19 18  1  0
 20 19  1  1
 21 20  1  0
 22 24  1  0
 22 20  1  0
 23 22  2  0
M  END
$$$$
