CIS.pdb
     RDKit          3D

 21 20  0  0  1  0  0  0  0  0999 V2000
   16.1840  -10.7885  -12.3184 N   0  0  0  0  0  0  0  0  0  0  0  0
   16.7643   -9.5187  -12.0118 C   0  0  1  0  0  0  0  0  0  0  0  0
   17.4912   -8.9339  -13.2178 C   0  0  0  0  0  0  0  0  0  0  0  0
   18.9255   -9.9522  -13.6538 S   0  0  0  0  0  0  0  0  0  0  0  0
   15.7630   -8.5480  -11.4871 C   0  0  0  0  0  0  0  0  0  0  0  0
   14.6393   -8.4244  -12.0374 O   0  0  0  0  0  0  0  0  0  0  0  0
   12.2698   -6.5340   -8.2558 C   0  0  0  0  0  0  0  0  0  0  0  0
   13.6636   -6.0666   -7.8748 C   0  0  0  0  0  0  0  0  0  0  0  0
   14.6409   -7.0431   -8.4312 C   0  0  2  0  0  0  0  0  0  0  0  0
   15.8929   -6.9949   -7.5791 C   0  0  0  0  0  0  0  0  0  0  0  0
   15.0500   -6.7621   -9.8492 C   0  0  2  0  0  0  0  0  0  0  0  0
   16.0126   -7.7194  -10.3553 N   0  0  0  0  0  0  0  0  0  0  0  0
   15.6128   -5.3998  -10.0241 C   0  0  0  0  0  0  0  0  0  0  0  0
   16.8087   -5.1386   -9.7254 O   0  0  0  0  0  0  0  0  0  0  0  0
   15.5108   -1.2453  -12.3526 O   0  0  0  0  0  0  0  0  0  0  0  0
   15.0041   -2.5025  -12.1003 C   0  0  0  0  0  0  0  0  0  0  0  0
   15.3749   -2.9771  -10.6919 C   0  0  2  0  0  0  0  0  0  0  0  0
   14.8455   -4.3154  -10.5345 N   0  0  0  0  0  0  0  0  0  0  0  0
   14.8637   -2.0459   -9.6648 C   0  0  0  0  0  0  0  0  0  0  0  0
   15.6628   -1.0753   -9.1013 O   0  0  0  0  0  0  0  0  0  0  0  0
   13.6750   -2.1342   -9.2913 O   0  0  0  0  0  0  0  0  0  0  0  0
  2  1  1  6
  3  2  1  0
  4  3  1  0
  5  2  1  0
  6  5  2  0
  7  8  1  0
  8  9  1  0
  9 11  1  0
  9 10  1  1
 11 13  1  0
 11 12  1  1
 12  5  1  0
 13 18  1  0
 14 13  2  0
 15 16  1  0
 17 19  1  0
 17 16  1  6
 18 17  1  0
 19 21  2  0
 19 20  1  0
M  END
$$$$
