CIS.pdb
     RDKit          3D

 21 20  0  0  1  0  0  0  0  0999 V2000
   28.9910  -20.5308  -16.0555 N   0  0  0  0  0  0  0  0  0  0  0  0
   28.1143  -19.7204  -15.2695 C   0  0  1  0  0  0  0  0  0  0  0  0
   27.3774  -18.7011  -16.1313 C   0  0  0  0  0  0  0  0  0  0  0  0
   28.5254  -17.4472  -16.7590 S   0  0  0  0  0  0  0  0  0  0  0  0
   27.1452  -20.5317  -14.4804 C   0  0  0  0  0  0  0  0  0  0  0  0
   26.6594  -21.5905  -14.9536 O   0  0  0  0  0  0  0  0  0  0  0  0
   25.1186  -21.1262   -8.6548 C   0  0  0  0  0  0  0  0  0  0  0  0
   24.8645  -21.4447  -10.1178 C   0  0  0  0  0  0  0  0  0  0  0  0
   25.8696  -20.7021  -10.9282 C   0  0  2  0  0  0  0  0  0  0  0  0
   25.6689  -19.2200  -10.6856 C   0  0  0  0  0  0  0  0  0  0  0  0
   25.7584  -20.9354  -12.4081 C   0  0  2  0  0  0  0  0  0  0  0  0
   26.7197  -20.1653  -13.1710 N   0  0  0  0  0  0  0  0  0  0  0  0
   24.4025  -20.6396  -12.9348 C   0  0  0  0  0  0  0  0  0  0  0  0
   24.0293  -19.4583  -13.1648 O   0  0  0  0  0  0  0  0  0  0  0  0
   20.1007  -22.5511  -14.2894 O   0  0  0  0  0  0  0  0  0  0  0  0
   21.4118  -22.7251  -13.9000 C   0  0  0  0  0  0  0  0  0  0  0  0
   22.0807  -21.3824  -13.5902 C   0  0  2  0  0  0  0  0  0  0  0  0
   23.4498  -21.6602  -13.2098 N   0  0  0  0  0  0  0  0  0  0  0  0
   21.3430  -20.6501  -12.5400 C   0  0  0  0  0  0  0  0  0  0  0  0
   20.4278  -19.6667  -12.8459 O   0  0  0  0  0  0  0  0  0  0  0  0
   21.5489  -20.9240  -11.3388 O   0  0  0  0  0  0  0  0  0  0  0  0
  2  1  1  6
  3  2  1  0
  4  3  1  0
  5  2  1  0
  6  5  2  0
  7  8  1  0
  8  9  1  0
  9 11  1  0
  9 10  1  6
 11 13  1  0
 11 12  1  6
 12  5  1  0
 13 18  1  0
 14 13  2  0
 15 16  1  0
 17 19  1  0
 17 16  1  1
 18 17  1  0
 19 21  2  0
 19 20  1  0
M  END
$$$$
