CIS.pdb
     RDKit          3D

 21 20  0  0  1  0  0  0  0  0999 V2000
   18.4696  -15.3379  -15.8144 N   0  0  0  0  0  0  0  0  0  0  0  0
   18.8567  -14.1493  -16.5076 C   0  0  1  0  0  0  0  0  0  0  0  0
   17.6591  -13.4765  -17.1692 C   0  0  0  0  0  0  0  0  0  0  0  0
   16.9329  -14.5602  -18.4272 S   0  0  0  0  0  0  0  0  0  0  0  0
   19.5734  -13.1851  -15.6261 C   0  0  0  0  0  0  0  0  0  0  0  0
   19.1709  -12.9641  -14.4557 O   0  0  0  0  0  0  0  0  0  0  0  0
   24.8010  -13.2739  -14.7733 C   0  0  0  0  0  0  0  0  0  0  0  0
   23.2968  -13.1241  -14.6275 C   0  0  0  0  0  0  0  0  0  0  0  0
   22.9178  -11.7842  -15.1562 C   0  0  2  0  0  0  0  0  0  0  0  0
   23.5327  -10.7312  -14.2568 C   0  0  0  0  0  0  0  0  0  0  0  0
   21.4367  -11.5355  -15.1937 C   0  0  2  0  0  0  0  0  0  0  0  0
   20.7324  -12.4712  -16.0466 N   0  0  0  0  0  0  0  0  0  0  0  0
   21.0976  -10.1590  -15.6337 C   0  0  0  0  0  0  0  0  0  0  0  0
   21.4150   -9.7370  -16.7777 O   0  0  0  0  0  0  0  0  0  0  0  0
   17.8092   -8.1679  -14.5046 O   0  0  0  0  0  0  0  0  0  0  0  0
   18.9379   -7.3976  -14.3207 C   0  0  0  0  0  0  0  0  0  0  0  0
   20.0909   -7.8844  -15.2038 C   0  0  2  0  0  0  0  0  0  0  0  0
   20.4004   -9.2400  -14.8004 N   0  0  0  0  0  0  0  0  0  0  0  0
   21.2589   -6.9856  -15.0973 C   0  0  0  0  0  0  0  0  0  0  0  0
   21.2812   -5.7479  -15.7021 O   0  0  0  0  0  0  0  0  0  0  0  0
   22.2582   -7.3504  -14.4425 O   0  0  0  0  0  0  0  0  0  0  0  0
  2  1  1  1
  3  2  1  0
  4  3  1  0
  5  2  1  0
  6  5  2  0
  7  8  1  0
  8  9  1  0
  9 11  1  0
  9 10  1  1
 11 13  1  0
 11 12  1  6
 12  5  1  0
 13 18  1  0
 14 13  2  0
 15 16  1  0
 17 19  1  0
 17 16  1  1
 18 17  1  0
 19 21  2  0
 19 20  1  0
M  END
$$$$
