CIS.pdb
     RDKit          3D

 21 20  0  0  1  0  0  0  0  0999 V2000
   28.8064  -18.7226  -15.6172 N   0  0  0  0  0  0  0  0  0  0  0  0
   27.7484  -18.3600  -14.7272 C   0  0  1  0  0  0  0  0  0  0  0  0
   26.8010  -17.3535  -15.3706 C   0  0  0  0  0  0  0  0  0  0  0  0
   27.5219  -15.6911  -15.3440 S   0  0  0  0  0  0  0  0  0  0  0  0
   26.9913  -19.5439  -14.2320 C   0  0  0  0  0  0  0  0  0  0  0  0
   26.9625  -20.6111  -14.8962 O   0  0  0  0  0  0  0  0  0  0  0  0
   26.3274  -20.4170   -8.7612 C   0  0  0  0  0  0  0  0  0  0  0  0
   26.6587  -20.7215  -10.2116 C   0  0  0  0  0  0  0  0  0  0  0  0
   25.3933  -20.6500  -10.9940 C   0  0  2  0  0  0  0  0  0  0  0  0
   24.5302  -21.8326  -10.6037 C   0  0  0  0  0  0  0  0  0  0  0  0
   25.5879  -20.7061  -12.4826 C   0  0  2  0  0  0  0  0  0  0  0  0
   26.2701  -19.5387  -13.0033 N   0  0  0  0  0  0  0  0  0  0  0  0
   24.3109  -20.8668  -13.2219 C   0  0  0  0  0  0  0  0  0  0  0  0
   23.5516  -19.8863  -13.4445 O   0  0  0  0  0  0  0  0  0  0  0  0
   21.2907  -24.0598  -15.3870 O   0  0  0  0  0  0  0  0  0  0  0  0
   22.5200  -23.7679  -14.8349 C   0  0  0  0  0  0  0  0  0  0  0  0
   22.5754  -22.3192  -14.3403 C   0  0  2  0  0  0  0  0  0  0  0  0
   23.8692  -22.1245  -13.7202 N   0  0  0  0  0  0  0  0  0  0  0  0
   21.4596  -22.0295  -13.4159 C   0  0  0  0  0  0  0  0  0  0  0  0
   20.2315  -21.6017  -13.8706 O   0  0  0  0  0  0  0  0  0  0  0  0
   21.6261  -22.1738  -12.1863 O   0  0  0  0  0  0  0  0  0  0  0  0
  2  1  1  6
  3  2  1  0
  4  3  1  0
  5  2  1  0
  6  5  2  0
  7  8  1  0
  8  9  1  0
  9 11  1  0
  9 10  1  1
 11 13  1  0
 11 12  1  6
 12  5  1  0
 13 18  1  0
 14 13  2  0
 15 16  1  0
 17 19  1  0
 17 16  1  1
 18 17  1  0
 19 21  2  0
 19 20  1  0
M  END
$$$$
