CIS.pdb
     RDKit          3D

 21 20  0  0  1  0  0  0  0  0999 V2000
   28.5471  -21.0992  -15.6159 N   0  0  0  0  0  0  0  0  0  0  0  0
   27.7608  -20.1468  -14.8964 C   0  0  1  0  0  0  0  0  0  0  0  0
   27.3033  -19.0074  -15.8003 C   0  0  0  0  0  0  0  0  0  0  0  0
   28.6906  -17.9109  -16.1969 S   0  0  0  0  0  0  0  0  0  0  0  0
   26.5920  -20.7724  -14.2163 C   0  0  0  0  0  0  0  0  0  0  0  0
   26.0341  -21.7884  -14.7035 O   0  0  0  0  0  0  0  0  0  0  0  0
   26.0931  -20.5471   -8.6912 C   0  0  0  0  0  0  0  0  0  0  0  0
   26.1413  -21.1025  -10.1038 C   0  0  0  0  0  0  0  0  0  0  0  0
   24.9405  -20.6051  -10.8314 C   0  0  2  0  0  0  0  0  0  0  0  0
   23.7182  -21.2751  -10.2374 C   0  0  0  0  0  0  0  0  0  0  0  0
   24.9473  -20.9040  -12.3037 C   0  0  2  0  0  0  0  0  0  0  0  0
   26.0479  -20.2687  -12.9997 N   0  0  0  0  0  0  0  0  0  0  0  0
   23.6833  -20.5096  -12.9744 C   0  0  0  0  0  0  0  0  0  0  0  0
   23.3511  -19.3001  -13.0933 O   0  0  0  0  0  0  0  0  0  0  0  0
   22.2366  -22.2024  -16.1891 O   0  0  0  0  0  0  0  0  0  0  0  0
   21.2462  -22.1624  -15.2306 C   0  0  0  0  0  0  0  0  0  0  0  0
   21.5403  -21.0930  -14.1742 C   0  0  2  0  0  0  0  0  0  0  0  0
   22.7775  -21.4624  -13.5192 N   0  0  0  0  0  0  0  0  0  0  0  0
   20.4175  -20.9622  -13.2225 C   0  0  0  0  0  0  0  0  0  0  0  0
   19.2713  -20.2676  -13.5415 O   0  0  0  0  0  0  0  0  0  0  0  0
   20.5018  -21.4933  -12.0950 O   0  0  0  0  0  0  0  0  0  0  0  0
  2  1  1  6
  3  2  1  0
  4  3  1  0
  5  2  1  0
  6  5  2  0
  7  8  1  0
  8  9  1  0
  9 11  1  0
  9 10  1  1
 11 13  1  0
 11 12  1  6
 12  5  1  0
 13 18  1  0
 14 13  2  0
 15 16  1  0
 17 19  1  0
 17 16  1  6
 18 17  1  0
 19 21  2  0
 19 20  1  0
M  END
$$$$
