CIS.pdb
     RDKit          3D

 21 20  0  0  1  0  0  0  0  0999 V2000
   22.2379  -13.5518  -17.6437 N   0  0  0  0  0  0  0  0  0  0  0  0
   21.6128  -12.7084  -16.6736 C   0  0  1  0  0  0  0  0  0  0  0  0
   22.2724  -12.8499  -15.3064 C   0  0  0  0  0  0  0  0  0  0  0  0
   21.9534  -14.4927  -14.6108 S   0  0  0  0  0  0  0  0  0  0  0  0
   21.5889  -11.2792  -17.0942 C   0  0  0  0  0  0  0  0  0  0  0  0
   22.5179  -10.8001  -17.7929 O   0  0  0  0  0  0  0  0  0  0  0  0
   18.0477  -10.1861  -19.5450 C   0  0  0  0  0  0  0  0  0  0  0  0
   19.2753   -9.3071  -19.3823 C   0  0  0  0  0  0  0  0  0  0  0  0
   19.2443   -8.7285  -18.0101 C   0  0  2  0  0  0  0  0  0  0  0  0
   19.1231   -7.2234  -18.1357 C   0  0  0  0  0  0  0  0  0  0  0  0
   20.4734   -9.0151  -17.1952 C   0  0  2  0  0  0  0  0  0  0  0  0
   20.5355  -10.3885  -16.7380 N   0  0  0  0  0  0  0  0  0  0  0  0
   20.5979   -8.1255  -16.0135 C   0  0  0  0  0  0  0  0  0  0  0  0
   19.8679   -8.2752  -14.9975 O   0  0  0  0  0  0  0  0  0  0  0  0
   23.0786   -4.4183  -13.9983 O   0  0  0  0  0  0  0  0  0  0  0  0
   22.9175   -5.3313  -15.0189 C   0  0  0  0  0  0  0  0  0  0  0  0
   21.6405   -6.1555  -14.8286 C   0  0  2  0  0  0  0  0  0  0  0  0
   21.5391   -7.0598  -15.9547 N   0  0  0  0  0  0  0  0  0  0  0  0
   20.4565   -5.2806  -14.7016 C   0  0  0  0  0  0  0  0  0  0  0  0
   19.9218   -4.9546  -13.4745 O   0  0  0  0  0  0  0  0  0  0  0  0
   19.9192   -4.8195  -15.7307 O   0  0  0  0  0  0  0  0  0  0  0  0
  2  1  1  6
  3  2  1  0
  4  3  1  0
  5  2  1  0
  6  5  2  0
  7  8  1  0
  8  9  1  0
  9 11  1  0
  9 10  1  6
 11 13  1  0
 11 12  1  1
 12  5  1  0
 13 18  1  0
 14 13  2  0
 15 16  1  0
 17 19  1  0
 17 16  1  6
 18 17  1  0
 19 21  2  0
 19 20  1  0
M  END
$$$$
