CIS.pdb
     RDKit          3D

 21 20  0  0  1  0  0  0  0  0999 V2000
   19.7557  -13.7068  -16.2206 N   0  0  0  0  0  0  0  0  0  0  0  0
   20.0369  -12.4247  -16.7867 C   0  0  1  0  0  0  0  0  0  0  0  0
   18.7551  -11.6514  -17.0758 C   0  0  0  0  0  0  0  0  0  0  0  0
   17.7640  -12.5049  -18.3301 S   0  0  0  0  0  0  0  0  0  0  0  0
   20.9516  -11.6150  -15.9336 C   0  0  0  0  0  0  0  0  0  0  0  0
   20.8325  -11.6179  -14.6820 O   0  0  0  0  0  0  0  0  0  0  0  0
   26.6889  -10.1651  -15.2819 C   0  0  0  0  0  0  0  0  0  0  0  0
   25.2876   -9.6716  -14.9675 C   0  0  0  0  0  0  0  0  0  0  0  0
   24.3301  -10.4583  -15.7937 C   0  0  2  0  0  0  0  0  0  0  0  0
   24.7106  -10.2846  -17.2500 C   0  0  0  0  0  0  0  0  0  0  0  0
   22.8975  -10.0299  -15.6482 C   0  0  2  0  0  0  0  0  0  0  0  0
   21.9936  -10.8063  -16.4724 N   0  0  0  0  0  0  0  0  0  0  0  0
   22.6943   -8.5932  -15.9613 C   0  0  0  0  0  0  0  0  0  0  0  0
   22.5772   -8.1888  -17.1488 O   0  0  0  0  0  0  0  0  0  0  0  0
   22.0193   -4.1173  -14.0998 O   0  0  0  0  0  0  0  0  0  0  0  0
   22.1217   -5.4812  -13.9252 C   0  0  0  0  0  0  0  0  0  0  0  0
   22.4614   -6.1846  -15.2428 C   0  0  2  0  0  0  0  0  0  0  0  0
   22.6199   -7.5938  -14.9510 N   0  0  0  0  0  0  0  0  0  0  0  0
   23.6686   -5.5996  -15.8625 C   0  0  0  0  0  0  0  0  0  0  0  0
   23.5887   -4.7081  -16.9099 O   0  0  0  0  0  0  0  0  0  0  0  0
   24.7970   -5.9168  -15.4307 O   0  0  0  0  0  0  0  0  0  0  0  0
  2  1  1  1
  3  2  1  0
  4  3  1  0
  5  2  1  0
  6  5  2  0
  7  8  1  0
  8  9  1  0
  9 11  1  0
  9 10  1  6
 11 13  1  0
 11 12  1  6
 12  5  1  0
 13 18  1  0
 14 13  2  0
 15 16  1  0
 17 19  1  0
 17 16  1  1
 18 17  1  0
 19 21  2  0
 19 20  1  0
M  END
$$$$
