CIS.pdb
     RDKit          3D

 21 20  0  0  1  0  0  0  0  0999 V2000
   16.7221  -11.7741  -16.6423 N   0  0  0  0  0  0  0  0  0  0  0  0
   17.3499  -10.5355  -16.9810 C   0  0  1  0  0  0  0  0  0  0  0  0
   16.3188   -9.4555  -17.2889 C   0  0  0  0  0  0  0  0  0  0  0  0
   15.4482   -9.8264  -18.8345 S   0  0  0  0  0  0  0  0  0  0  0  0
   18.2926  -10.0688  -15.9257 C   0  0  0  0  0  0  0  0  0  0  0  0
   18.0019  -10.1860  -14.7080 O   0  0  0  0  0  0  0  0  0  0  0  0
   23.7265  -10.5766  -13.9353 C   0  0  0  0  0  0  0  0  0  0  0  0
   22.6418   -9.5173  -14.0224 C   0  0  0  0  0  0  0  0  0  0  0  0
   21.6409   -9.9700  -15.0283 C   0  0  2  0  0  0  0  0  0  0  0  0
   22.3386  -10.0864  -16.3683 C   0  0  0  0  0  0  0  0  0  0  0  0
   20.4804   -9.0324  -15.2046 C   0  0  2  0  0  0  0  0  0  0  0  0
   19.5523   -9.4746  -16.2255 N   0  0  0  0  0  0  0  0  0  0  0  0
   20.9061   -7.6485  -15.5310 C   0  0  0  0  0  0  0  0  0  0  0  0
   21.5052   -7.3808  -16.6067 O   0  0  0  0  0  0  0  0  0  0  0  0
   18.8772   -4.5996  -15.7291 O   0  0  0  0  0  0  0  0  0  0  0  0
   19.8462   -4.2974  -14.7960 C   0  0  0  0  0  0  0  0  0  0  0  0
   21.0763   -5.1945  -14.9641 C   0  0  2  0  0  0  0  0  0  0  0  0
   20.6669   -6.5494  -14.6593 N   0  0  0  0  0  0  0  0  0  0  0  0
   22.1896   -4.7373  -14.1067 C   0  0  0  0  0  0  0  0  0  0  0  0
   22.9736   -3.6570  -14.4480 O   0  0  0  0  0  0  0  0  0  0  0  0
   22.4335   -5.3415  -13.0410 O   0  0  0  0  0  0  0  0  0  0  0  0
  2  1  1  1
  3  2  1  0
  4  3  1  0
  5  2  1  0
  6  5  2  0
  7  8  1  0
  8  9  1  0
  9 11  1  0
  9 10  1  6
 11 13  1  0
 11 12  1  6
 12  5  1  0
 13 18  1  0
 14 13  2  0
 15 16  1  0
 17 19  1  0
 17 16  1  1
 18 17  1  0
 19 21  2  0
 19 20  1  0
M  END
$$$$
