CIS.pdb
     RDKit          3D

 21 20  0  0  1  0  0  0  0  0999 V2000
   25.7859  -11.5328  -17.1336 N   0  0  0  0  0  0  0  0  0  0  0  0
   25.4589  -10.3134  -16.4634 C   0  0  1  0  0  0  0  0  0  0  0  0
   26.5156   -9.2425  -16.7107 C   0  0  0  0  0  0  0  0  0  0  0  0
   28.0700   -9.6775  -15.8868 S   0  0  0  0  0  0  0  0  0  0  0  0
   24.1077   -9.8060  -16.8337 C   0  0  0  0  0  0  0  0  0  0  0  0
   23.7033   -9.8658  -18.0227 O   0  0  0  0  0  0  0  0  0  0  0  0
   19.6325  -10.5513  -13.7422 C   0  0  0  0  0  0  0  0  0  0  0  0
   20.8560   -9.7651  -14.1795 C   0  0  0  0  0  0  0  0  0  0  0  0
   20.7931   -9.6080  -15.6594 C   0  0  2  0  0  0  0  0  0  0  0  0
   20.9107  -10.9830  -16.2849 C   0  0  0  0  0  0  0  0  0  0  0  0
   21.8898   -8.7567  -16.2334 C   0  0  2  0  0  0  0  0  0  0  0  0
   23.2121   -9.2350  -15.8841 N   0  0  0  0  0  0  0  0  0  0  0  0
   21.7861   -7.3343  -15.8221 C   0  0  0  0  0  0  0  0  0  0  0  0
   22.3504   -6.9081  -14.7793 O   0  0  0  0  0  0  0  0  0  0  0  0
   20.5578   -4.3146  -18.4025 O   0  0  0  0  0  0  0  0  0  0  0  0
   21.2808   -4.0825  -17.2516 C   0  0  0  0  0  0  0  0  0  0  0  0
   20.8361   -5.0146  -16.1204 C   0  0  2  0  0  0  0  0  0  0  0  0
   21.0512   -6.3734  -16.5716 N   0  0  0  0  0  0  0  0  0  0  0  0
   19.4293   -4.7628  -15.7453 C   0  0  0  0  0  0  0  0  0  0  0  0
   19.0447   -3.6085  -15.0989 O   0  0  0  0  0  0  0  0  0  0  0  0
   18.5578   -5.6151  -16.0183 O   0  0  0  0  0  0  0  0  0  0  0  0
  2  1  1  6
  3  2  1  0
  4  3  1  0
  5  2  1  0
  6  5  2  0
  7  8  1  0
  8  9  1  0
  9 11  1  0
  9 10  1  6
 11 13  1  0
 11 12  1  1
 12  5  1  0
 13 18  1  0
 14 13  2  0
 15 16  1  0
 17 19  1  0
 17 16  1  6
 18 17  1  0
 19 21  2  0
 19 20  1  0
M  END
$$$$
