CIS.pdb
     RDKit          3D

 21 20  0  0  1  0  0  0  0  0999 V2000
   18.5630  -12.9232  -16.5069 N   0  0  0  0  0  0  0  0  0  0  0  0
   18.8198  -11.5823  -16.9302 C   0  0  1  0  0  0  0  0  0  0  0  0
   17.5243  -10.7996  -17.1138 C   0  0  0  0  0  0  0  0  0  0  0  0
   16.4906  -11.5666  -18.3894 S   0  0  0  0  0  0  0  0  0  0  0  0
   19.7371  -10.8599  -16.0046 C   0  0  0  0  0  0  0  0  0  0  0  0
   19.4372  -10.7074  -14.7931 O   0  0  0  0  0  0  0  0  0  0  0  0
   24.9192  -11.9073  -15.3715 C   0  0  0  0  0  0  0  0  0  0  0  0
   23.4590  -11.5329  -15.1871 C   0  0  0  0  0  0  0  0  0  0  0  0
   23.2934  -10.1156  -15.6140 C   0  0  2  0  0  0  0  0  0  0  0  0
   24.1401   -9.2475  -14.7055 C   0  0  0  0  0  0  0  0  0  0  0  0
   21.8809   -9.6106  -15.5314 C   0  0  2  0  0  0  0  0  0  0  0  0
   20.9820  -10.3104  -16.4267 N   0  0  0  0  0  0  0  0  0  0  0  0
   21.7749   -8.1564  -15.8092 C   0  0  0  0  0  0  0  0  0  0  0  0
   22.0442   -7.6821  -16.9450 O   0  0  0  0  0  0  0  0  0  0  0  0
   19.0932   -5.8973  -16.0016 O   0  0  0  0  0  0  0  0  0  0  0  0
   19.8325   -5.3762  -14.9609 C   0  0  0  0  0  0  0  0  0  0  0  0
   21.3033   -5.7912  -15.0637 C   0  0  2  0  0  0  0  0  0  0  0  0
   21.3670   -7.2171  -14.8210 N   0  0  0  0  0  0  0  0  0  0  0  0
   22.1404   -5.0222  -14.1196 C   0  0  0  0  0  0  0  0  0  0  0  0
   22.5049   -3.7170  -14.3682 O   0  0  0  0  0  0  0  0  0  0  0  0
   22.5329   -5.5631  -13.0642 O   0  0  0  0  0  0  0  0  0  0  0  0
  2  1  1  1
  3  2  1  0
  4  3  1  0
  5  2  1  0
  6  5  2  0
  7  8  1  0
  8  9  1  0
  9 11  1  0
  9 10  1  1
 11 13  1  0
 11 12  1  6
 12  5  1  0
 13 18  1  0
 14 13  2  0
 15 16  1  0
 17 19  1  0
 17 16  1  1
 18 17  1  0
 19 21  2  0
 19 20  1  0
M  END
$$$$
