CIS.pdb
     RDKit          3D

 21 20  0  0  1  0  0  0  0  0999 V2000
   24.5458  -10.7664  -21.5435 N   0  0  0  0  0  0  0  0  0  0  0  0
   24.5670   -9.5285  -20.8291 C   0  0  1  0  0  0  0  0  0  0  0  0
   23.9831   -8.3945  -21.6643 C   0  0  0  0  0  0  0  0  0  0  0  0
   24.9739   -8.1263  -23.1578 S   0  0  0  0  0  0  0  0  0  0  0  0
   23.8703   -9.6186  -19.5151 C   0  0  0  0  0  0  0  0  0  0  0  0
   22.7777  -10.2315  -19.4086 O   0  0  0  0  0  0  0  0  0  0  0  0
   26.4669  -10.6159  -14.8603 C   0  0  0  0  0  0  0  0  0  0  0  0
   25.4808  -10.5915  -16.0150 C   0  0  0  0  0  0  0  0  0  0  0  0
   24.6801   -9.3404  -15.9055 C   0  0  2  0  0  0  0  0  0  0  0  0
   23.8633   -9.4133  -14.6314 C   0  0  0  0  0  0  0  0  0  0  0  0
   23.7226   -9.1229  -17.0426 C   0  0  2  0  0  0  0  0  0  0  0  0
   24.3884   -9.0289  -18.3261 N   0  0  0  0  0  0  0  0  0  0  0  0
   22.8856   -7.9103  -16.8631 C   0  0  0  0  0  0  0  0  0  0  0  0
   23.3926   -6.7570  -16.8491 O   0  0  0  0  0  0  0  0  0  0  0  0
   18.4745   -6.0079  -17.2594 O   0  0  0  0  0  0  0  0  0  0  0  0
   19.3229   -7.0940  -17.3008 C   0  0  0  0  0  0  0  0  0  0  0  0
   20.6381   -6.7978  -16.5738 C   0  0  2  0  0  0  0  0  0  0  0  0
   21.4736   -7.9738  -16.6976 N   0  0  0  0  0  0  0  0  0  0  0  0
   20.3952   -6.4266  -15.1644 C   0  0  0  0  0  0  0  0  0  0  0  0
   20.3759   -5.1122  -14.7518 O   0  0  0  0  0  0  0  0  0  0  0  0
   20.2009   -7.3234  -14.3167 O   0  0  0  0  0  0  0  0  0  0  0  0
  2  1  1  6
  3  2  1  0
  4  3  1  0
  5  2  1  0
  6  5  2  0
  7  8  1  0
  8  9  1  0
  9 11  1  0
  9 10  1  1
 11 13  1  0
 11 12  1  6
 12  5  1  0
 13 18  1  0
 14 13  2  0
 15 16  1  0
 17 19  1  0
 17 16  1  1
 18 17  1  0
 19 21  2  0
 19 20  1  0
M  END
$$$$
