CIS.pdb
     RDKit          3D

 21 20  0  0  1  0  0  0  0  0999 V2000
   21.4355  -14.5514  -17.7223 N   0  0  0  0  0  0  0  0  0  0  0  0
   21.7992  -13.3095  -18.3294 C   0  0  1  0  0  0  0  0  0  0  0  0
   20.7255  -12.8294  -19.2995 C   0  0  0  0  0  0  0  0  0  0  0  0
   20.4443  -14.0597  -20.6002 S   0  0  0  0  0  0  0  0  0  0  0  0
   22.1017  -12.2524  -17.3238 C   0  0  0  0  0  0  0  0  0  0  0  0
   21.4148  -12.1480  -16.2759 O   0  0  0  0  0  0  0  0  0  0  0  0
   27.1473  -11.2370  -15.7070 C   0  0  0  0  0  0  0  0  0  0  0  0
   25.6508  -11.4837  -15.7841 C   0  0  0  0  0  0  0  0  0  0  0  0
   25.0061  -10.2326  -16.2718 C   0  0  2  0  0  0  0  0  0  0  0  0
   25.2452   -9.1468  -15.2424 C   0  0  0  0  0  0  0  0  0  0  0  0
   23.5214  -10.3448  -16.4717 C   0  0  2  0  0  0  0  0  0  0  0  0
   23.1639  -11.3167  -17.4851 N   0  0  0  0  0  0  0  0  0  0  0  0
   22.8914   -9.0488  -16.8276 C   0  0  0  0  0  0  0  0  0  0  0  0
   23.1786   -8.4496  -17.8981 O   0  0  0  0  0  0  0  0  0  0  0  0
   19.1375   -6.2226  -16.7455 O   0  0  0  0  0  0  0  0  0  0  0  0
   19.8172   -7.3963  -16.4974 C   0  0  0  0  0  0  0  0  0  0  0  0
   21.3172   -7.1415  -16.3214 C   0  0  2  0  0  0  0  0  0  0  0  0
   21.9342   -8.4090  -15.9913 N   0  0  0  0  0  0  0  0  0  0  0  0
   21.5647   -6.1107  -15.2920 C   0  0  0  0  0  0  0  0  0  0  0  0
   21.7504   -4.7856  -15.6201 O   0  0  0  0  0  0  0  0  0  0  0  0
   21.6082   -6.4415  -14.0882 O   0  0  0  0  0  0  0  0  0  0  0  0
  2  1  1  1
  3  2  1  0
  4  3  1  0
  5  2  1  0
  6  5  2  0
  7  8  1  0
  8  9  1  0
  9 11  1  0
  9 10  1  1
 11 13  1  0
 11 12  1  6
 12  5  1  0
 13 18  1  0
 14 13  2  0
 15 16  1  0
 17 19  1  0
 17 16  1  1
 18 17  1  0
 19 21  2  0
 19 20  1  0
M  END
$$$$
