CIS.pdb
     RDKit          3D

 21 20  0  0  1  0  0  0  0  0999 V2000
   19.6364  -12.7662  -17.4986 N   0  0  0  0  0  0  0  0  0  0  0  0
   20.2319  -11.5286  -17.8946 C   0  0  1  0  0  0  0  0  0  0  0  0
   19.1886  -10.5577  -18.4363 C   0  0  0  0  0  0  0  0  0  0  0  0
   18.4613  -11.1929  -19.9699 S   0  0  0  0  0  0  0  0  0  0  0  0
   21.0103  -10.8944  -16.7936 C   0  0  0  0  0  0  0  0  0  0  0  0
   20.5896  -10.9264  -15.6092 O   0  0  0  0  0  0  0  0  0  0  0  0
   26.0942  -11.8913  -15.7259 C   0  0  0  0  0  0  0  0  0  0  0  0
   24.6114  -11.5670  -15.6776 C   0  0  0  0  0  0  0  0  0  0  0  0
   24.4545  -10.1074  -15.9299 C   0  0  2  0  0  0  0  0  0  0  0  0
   25.1715   -9.3582  -14.8251 C   0  0  0  0  0  0  0  0  0  0  0  0
   23.0280   -9.6363  -15.9414 C   0  0  2  0  0  0  0  0  0  0  0  0
   22.2506  -10.2281  -17.0113 N   0  0  0  0  0  0  0  0  0  0  0  0
   22.9128   -8.1600  -16.0446 C   0  0  0  0  0  0  0  0  0  0  0  0
   23.2885   -7.5412  -17.0758 O   0  0  0  0  0  0  0  0  0  0  0  0
   19.8490   -6.1904  -14.8536 O   0  0  0  0  0  0  0  0  0  0  0  0
   20.8274   -5.6509  -15.6616 C   0  0  0  0  0  0  0  0  0  0  0  0
   22.2249   -5.9237  -15.0971 C   0  0  2  0  0  0  0  0  0  0  0  0
   22.3767   -7.3600  -14.9969 N   0  0  0  0  0  0  0  0  0  0  0  0
   22.4156   -5.2462  -13.7978 C   0  0  0  0  0  0  0  0  0  0  0  0
   22.4807   -3.8737  -13.6963 O   0  0  0  0  0  0  0  0  0  0  0  0
   22.5215   -5.9294  -12.7575 O   0  0  0  0  0  0  0  0  0  0  0  0
  2  1  1  1
  3  2  1  0
  4  3  1  0
  5  2  1  0
  6  5  2  0
  7  8  1  0
  8  9  1  0
  9 11  1  0
  9 10  1  1
 11 13  1  0
 11 12  1  6
 12  5  1  0
 13 18  1  0
 14 13  2  0
 15 16  1  0
 17 19  1  0
 17 16  1  1
 18 17  1  0
 19 21  2  0
 19 20  1  0
M  END
$$$$
