CIS.pdb
     RDKit          3D

 21 20  0  0  1  0  0  0  0  0999 V2000
   19.8312  -12.7235  -17.8869 N   0  0  0  0  0  0  0  0  0  0  0  0
   20.6185  -11.6093  -18.3133 C   0  0  1  0  0  0  0  0  0  0  0  0
   19.7708  -10.5799  -19.0523 C   0  0  0  0  0  0  0  0  0  0  0  0
   19.2082  -11.2402  -20.6434 S   0  0  0  0  0  0  0  0  0  0  0  0
   21.3516  -10.9668  -17.1863 C   0  0  0  0  0  0  0  0  0  0  0  0
   20.8231  -10.8690  -16.0497 O   0  0  0  0  0  0  0  0  0  0  0  0
   26.7922  -10.7415  -14.7248 C   0  0  0  0  0  0  0  0  0  0  0  0
   25.5121   -9.9364  -14.8644 C   0  0  0  0  0  0  0  0  0  0  0  0
   24.7355  -10.5065  -16.0003 C   0  0  2  0  0  0  0  0  0  0  0  0
   25.5488  -10.3248  -17.2658 C   0  0  0  0  0  0  0  0  0  0  0  0
   23.4026   -9.8503  -16.2233 C   0  0  2  0  0  0  0  0  0  0  0  0
   22.6665  -10.4362  -17.3252 N   0  0  0  0  0  0  0  0  0  0  0  0
   23.5157   -8.3900  -16.4639 C   0  0  0  0  0  0  0  0  0  0  0  0
   24.2181   -7.9305  -17.4036 O   0  0  0  0  0  0  0  0  0  0  0  0
   20.5876   -5.9140  -16.0258 O   0  0  0  0  0  0  0  0  0  0  0  0
   21.7591   -5.5266  -16.6410 C   0  0  0  0  0  0  0  0  0  0  0  0
   22.9829   -6.0000  -15.8507 C   0  0  2  0  0  0  0  0  0  0  0  0
   22.8453   -7.4282  -15.6573 N   0  0  0  0  0  0  0  0  0  0  0  0
   23.1063   -5.2689  -14.5726 C   0  0  0  0  0  0  0  0  0  0  0  0
   23.3205   -3.9085  -14.5310 O   0  0  0  0  0  0  0  0  0  0  0  0
   23.0151   -5.8941  -13.4949 O   0  0  0  0  0  0  0  0  0  0  0  0
  2  1  1  1
  3  2  1  0
  4  3  1  0
  5  2  1  0
  6  5  2  0
  7  8  1  0
  8  9  1  0
  9 11  1  0
  9 10  1  6
 11 13  1  0
 11 12  1  6
 12  5  1  0
 13 18  1  0
 14 13  2  0
 15 16  1  0
 17 19  1  0
 17 16  1  1
 18 17  1  0
 19 21  2  0
 19 20  1  0
M  END
$$$$
