YIQ.pdb
     RDKit          3D

 30 30  0  0  1  0  0  0  0  0999 V2000
   29.8029  -16.1865  -19.1622 O   0  0  0  0  0  0  0  0  0  0  0  0
   28.9307  -16.9117  -18.3469 C   0  0  0  0  0  0  0  0  0  0  0  0
   28.0976  -17.8322  -18.9469 C   0  0  0  0  0  0  0  0  0  0  0  0
   27.2136  -18.5775  -18.1833 C   0  0  0  0  0  0  0  0  0  0  0  0
   27.1531  -18.4110  -16.8151 C   0  0  0  0  0  0  0  0  0  0  0  0
   26.2134  -19.1984  -15.9757 C   0  0  0  0  0  0  0  0  0  0  0  0
   26.9864  -20.1911  -15.1416 C   0  0  2  0  0  0  0  0  0  0  0  0
   27.6769  -21.1015  -16.0141 N   0  0  0  0  0  0  0  0  0  0  0  0
   26.1164  -20.8979  -14.1673 C   0  0  0  0  0  0  0  0  0  0  0  0
   25.8492  -22.1249  -14.3763 O   0  0  0  0  0  0  0  0  0  0  0  0
   27.9968  -17.4839  -16.2391 C   0  0  0  0  0  0  0  0  0  0  0  0
   28.8827  -16.7339  -16.9860 C   0  0  0  0  0  0  0  0  0  0  0  0
   26.9441  -20.2993   -8.9062 C   0  0  0  0  0  0  0  0  0  0  0  0
   26.5737  -20.8461  -10.2667 C   0  0  0  0  0  0  0  0  0  0  0  0
   25.1526  -20.5996  -10.6315 C   0  0  2  0  0  0  0  0  0  0  0  0
   24.2036  -21.0774   -9.5616 C   0  0  0  0  0  0  0  0  0  0  0  0
   24.8264  -21.0711  -12.0070 C   0  0  2  0  0  0  0  0  0  0  0  0
   25.5651  -20.3063  -13.0266 N   0  0  0  0  0  0  0  0  0  0  0  0
   23.3714  -21.0155  -12.3436 C   0  0  0  0  0  0  0  0  0  0  0  0
   22.4943  -21.6364  -11.6926 O   0  0  0  0  0  0  0  0  0  0  0  0
   20.6480  -24.1888  -15.4129 N   0  0  0  0  0  0  0  0  0  0  0  0
   19.5735  -23.2738  -15.3123 C   0  0  0  0  0  0  0  0  0  0  0  0
   18.4409  -23.6246  -15.6999 O   0  0  0  0  0  0  0  0  0  0  0  0
   19.8095  -21.9390  -14.7584 C   0  0  0  0  0  0  0  0  0  0  0  0
   21.1930  -21.6866  -14.2747 C   0  0  0  0  0  0  0  0  0  0  0  0
   21.4788  -20.2805  -13.8421 C   0  0  2  0  0  0  0  0  0  0  0  0
   22.8966  -20.2366  -13.4463 N   0  0  0  0  0  0  0  0  0  0  0  0
   20.6616  -19.8990  -12.6662 C   0  0  0  0  0  0  0  0  0  0  0  0
   19.4364  -19.6930  -12.8029 O   0  0  0  0  0  0  0  0  0  0  0  0
   21.2068  -19.7574  -11.3917 O   0  0  0  0  0  0  0  0  0  0  0  0
  2  1  1  0
  3  2  2  0
  4  3  1  0
  5 11  1  0
  5  4  2  0
  6  5  1  0
  7  9  1  0
  7  6  1  0
  7  8  1  6
  9 10  2  0
 11 12  2  0
 12  2  1  0
 14 13  1  0
 15 14  1  0
 15 16  1  1
 17 15  1  0
 17 18  1  6
 18  9  1  0
 19 17  1  0
 20 19  2  0
 21 22  1  0
 22 24  1  0
 22 23  2  0
 24 25  1  0
 26 25  1  1
 26 27  1  0
 27 19  1  0
 28 30  1  0
 28 26  1  0
 29 28  2  0
M  END
$$$$
