YIQ.pdb
     RDKit          3D

 30 30  0  0  1  0  0  0  0  0999 V2000
   20.3984  -31.9550  -16.0338 O   0  0  0  0  0  0  0  0  0  0  0  0
   20.2239  -31.2250  -14.8558 C   0  0  0  0  0  0  0  0  0  0  0  0
   21.2024  -31.3129  -13.8882 C   0  0  0  0  0  0  0  0  0  0  0  0
   21.0776  -30.6087  -12.7013 C   0  0  0  0  0  0  0  0  0  0  0  0
   19.9760  -29.8111  -12.4697 C   0  0  0  0  0  0  0  0  0  0  0  0
   19.8202  -29.0469  -11.2050 C   0  0  0  0  0  0  0  0  0  0  0  0
   20.1447  -27.5925  -11.4465 C   0  0  2  0  0  0  0  0  0  0  0  0
   21.5410  -27.4689  -11.7655 N   0  0  0  0  0  0  0  0  0  0  0  0
   19.7529  -26.7356  -10.2984 C   0  0  0  0  0  0  0  0  0  0  0  0
   20.6199  -26.5030   -9.3958 O   0  0  0  0  0  0  0  0  0  0  0  0
   19.0113  -29.7401  -13.4533 C   0  0  0  0  0  0  0  0  0  0  0  0
   19.1212  -30.4354  -14.6406 C   0  0  0  0  0  0  0  0  0  0  0  0
   16.3539  -21.8193   -9.0770 C   0  0  0  0  0  0  0  0  0  0  0  0
   17.0442  -23.0546   -8.5435 C   0  0  0  0  0  0  0  0  0  0  0  0
   17.4575  -24.0038   -9.6119 C   0  0  2  0  0  0  0  0  0  0  0  0
   16.3206  -24.3327  -10.5463 C   0  0  0  0  0  0  0  0  0  0  0  0
   18.1815  -25.1896   -9.0730 C   0  0  2  0  0  0  0  0  0  0  0  0
   18.4884  -26.1613  -10.1369 N   0  0  0  0  0  0  0  0  0  0  0  0
   17.4549  -25.9058   -7.9809 C   0  0  0  0  0  0  0  0  0  0  0  0
   16.4307  -26.6046   -8.1844 O   0  0  0  0  0  0  0  0  0  0  0  0
   19.7110  -26.6878   -2.0838 N   0  0  0  0  0  0  0  0  0  0  0  0
   18.4336  -27.2908   -2.0012 C   0  0  0  0  0  0  0  0  0  0  0  0
   18.1019  -27.8645   -0.9444 O   0  0  0  0  0  0  0  0  0  0  0  0
   17.5298  -27.2310   -3.1517 C   0  0  0  0  0  0  0  0  0  0  0  0
   18.0889  -26.5803   -4.3666 C   0  0  0  0  0  0  0  0  0  0  0  0
   17.1758  -26.5385   -5.5541 C   0  0  2  0  0  0  0  0  0  0  0  0
   17.8993  -25.8290   -6.6227 N   0  0  0  0  0  0  0  0  0  0  0  0
   15.9363  -25.7820   -5.2579 C   0  0  0  0  0  0  0  0  0  0  0  0
   15.9419  -24.5337   -5.3202 O   0  0  0  0  0  0  0  0  0  0  0  0
   14.7432  -26.4106   -4.9074 O   0  0  0  0  0  0  0  0  0  0  0  0
  2  1  1  0
  3  2  2  0
  4  3  1  0
  5 11  1  0
  5  4  2  0
  6  5  1  0
  7  9  1  0
  7  6  1  0
  7  8  1  1
  9 10  2  0
 11 12  2  0
 12  2  1  0
 14 13  1  0
 15 14  1  0
 15 16  1  1
 17 15  1  0
 17 18  1  6
 18  9  1  0
 19 17  1  0
 20 19  2  0
 21 22  1  0
 22 24  1  0
 22 23  2  0
 24 25  1  0
 26 25  1  1
 26 27  1  0
 27 19  1  0
 28 30  1  0
 28 26  1  0
 29 28  2  0
M  END
$$$$
