YIQ.pdb
     RDKit          3D

 30 30  0  0  1  0  0  0  0  0999 V2000
   15.2080  -12.6259  -21.6918 O   0  0  0  0  0  0  0  0  0  0  0  0
   15.9614  -12.0284  -20.6786 C   0  0  0  0  0  0  0  0  0  0  0  0
   15.7643  -12.4606  -19.3840 C   0  0  0  0  0  0  0  0  0  0  0  0
   16.4863  -11.9007  -18.3422 C   0  0  0  0  0  0  0  0  0  0  0  0
   17.4107  -10.9052  -18.5828 C   0  0  0  0  0  0  0  0  0  0  0  0
   18.1964  -10.2898  -17.4822 C   0  0  0  0  0  0  0  0  0  0  0  0
   19.2385  -11.2666  -16.9934 C   0  0  2  0  0  0  0  0  0  0  0  0
   18.5810  -12.3824  -16.3694 N   0  0  0  0  0  0  0  0  0  0  0  0
   20.2279  -10.6221  -16.0926 C   0  0  0  0  0  0  0  0  0  0  0  0
   19.9379  -10.5127  -14.8579 O   0  0  0  0  0  0  0  0  0  0  0  0
   17.5893  -10.4906  -19.8864 C   0  0  0  0  0  0  0  0  0  0  0  0
   16.8780  -11.0384  -20.9348 C   0  0  0  0  0  0  0  0  0  0  0  0
   26.1663  -10.0062  -14.9553 C   0  0  0  0  0  0  0  0  0  0  0  0
   24.7715   -9.4407  -14.8072 C   0  0  0  0  0  0  0  0  0  0  0  0
   23.7720  -10.1056  -15.6857 C   0  0  2  0  0  0  0  0  0  0  0  0
   24.2822  -10.2757  -17.0944 C   0  0  0  0  0  0  0  0  0  0  0  0
   22.4210   -9.4848  -15.5851 C   0  0  2  0  0  0  0  0  0  0  0  0
   21.4661  -10.1228  -16.5077 N   0  0  0  0  0  0  0  0  0  0  0  0
   22.4041   -8.0121  -15.8392 C   0  0  0  0  0  0  0  0  0  0  0  0
   22.7408   -7.5035  -16.9376 O   0  0  0  0  0  0  0  0  0  0  0  0
   17.8061   -5.6426  -17.8906 N   0  0  0  0  0  0  0  0  0  0  0  0
   18.4897   -5.2999  -16.7001 C   0  0  0  0  0  0  0  0  0  0  0  0
   17.8664   -4.7172  -15.7901 O   0  0  0  0  0  0  0  0  0  0  0  0
   19.9086   -5.6332  -16.5592 C   0  0  0  0  0  0  0  0  0  0  0  0
   20.5219   -5.2652  -15.2552 C   0  0  0  0  0  0  0  0  0  0  0  0
   21.9627   -5.6431  -15.0905 C   0  0  2  0  0  0  0  0  0  0  0  0
   21.9952   -7.0909  -14.8231 N   0  0  0  0  0  0  0  0  0  0  0  0
   22.5760   -4.9485  -13.9339 C   0  0  0  0  0  0  0  0  0  0  0  0
   22.7932   -5.5782  -12.8763 O   0  0  0  0  0  0  0  0  0  0  0  0
   22.9285   -3.6010  -13.9728 O   0  0  0  0  0  0  0  0  0  0  0  0
  2  1  1  0
  3  2  2  0
  4  3  1  0
  5 11  1  0
  5  4  2  0
  6  5  1  0
  7  9  1  0
  7  6  1  0
  7  8  1  1
  9 10  2  0
 11 12  2  0
 12  2  1  0
 14 13  1  0
 15 14  1  0
 15 16  1  6
 17 15  1  0
 17 18  1  6
 18  9  1  0
 19 17  1  0
 20 19  2  0
 21 22  1  0
 22 24  1  0
 22 23  2  0
 24 25  1  0
 26 25  1  1
 26 27  1  0
 27 19  1  0
 28 30  1  0
 28 26  1  0
 29 28  2  0
M  END
$$$$
