YIQ.pdb
     RDKit          3D

 30 30  0  0  1  0  0  0  0  0999 V2000
   29.8061  -16.3680  -19.2003 O   0  0  0  0  0  0  0  0  0  0  0  0
   28.8867  -17.0900  -18.4356 C   0  0  0  0  0  0  0  0  0  0  0  0
   28.3050  -18.2039  -19.0032 C   0  0  0  0  0  0  0  0  0  0  0  0
   27.3866  -18.9549  -18.2872 C   0  0  0  0  0  0  0  0  0  0  0  0
   27.0408  -18.6011  -16.9993 C   0  0  0  0  0  0  0  0  0  0  0  0
   26.0586  -19.3906  -16.2121 C   0  0  0  0  0  0  0  0  0  0  0  0
   26.7890  -20.3235  -15.2766 C   0  0  2  0  0  0  0  0  0  0  0  0
   27.5437  -21.2705  -16.0515 N   0  0  0  0  0  0  0  0  0  0  0  0
   25.8675  -20.9880  -14.3200 C   0  0  0  0  0  0  0  0  0  0  0  0
   25.4744  -22.1699  -14.5830 O   0  0  0  0  0  0  0  0  0  0  0  0
   27.6368  -17.4827  -16.4542 C   0  0  0  0  0  0  0  0  0  0  0  0
   28.5532  -16.7245  -17.1545 C   0  0  0  0  0  0  0  0  0  0  0  0
   26.5210  -20.4454   -9.0398 C   0  0  0  0  0  0  0  0  0  0  0  0
   26.1588  -21.0145  -10.3933 C   0  0  0  0  0  0  0  0  0  0  0  0
   24.7582  -20.7193  -10.7987 C   0  0  2  0  0  0  0  0  0  0  0  0
   23.7580  -21.2495   -9.8026 C   0  0  0  0  0  0  0  0  0  0  0  0
   24.4829  -21.0935  -12.2146 C   0  0  2  0  0  0  0  0  0  0  0  0
   25.3970  -20.4027  -13.1406 N   0  0  0  0  0  0  0  0  0  0  0  0
   23.0802  -20.8267  -12.6562 C   0  0  0  0  0  0  0  0  0  0  0  0
   22.7053  -19.7168  -13.1103 O   0  0  0  0  0  0  0  0  0  0  0  0
   18.0090  -21.6523  -11.0019 N   0  0  0  0  0  0  0  0  0  0  0  0
   17.7254  -20.6370  -11.9457 C   0  0  0  0  0  0  0  0  0  0  0  0
   16.5358  -20.3498  -12.1873 O   0  0  0  0  0  0  0  0  0  0  0  0
   18.8276  -19.9463  -12.6182 C   0  0  0  0  0  0  0  0  0  0  0  0
   20.1903  -20.4183  -12.2546 C   0  0  0  0  0  0  0  0  0  0  0  0
   20.7042  -21.5798  -13.0500 C   0  0  2  0  0  0  0  0  0  0  0  0
   22.0755  -21.8430  -12.5817 N   0  0  0  0  0  0  0  0  0  0  0  0
   20.7658  -21.2612  -14.4960 C   0  0  0  0  0  0  0  0  0  0  0  0
   19.7096  -21.0491  -15.1298 O   0  0  0  0  0  0  0  0  0  0  0  0
   21.9696  -21.1854  -15.1936 O   0  0  0  0  0  0  0  0  0  0  0  0
  2  1  1  0
  3  2  2  0
  4  3  1  0
  5 11  1  0
  5  4  2  0
  6  5  1  0
  7  9  1  0
  7  6  1  0
  7  8  1  6
  9 10  2  0
 11 12  2  0
 12  2  1  0
 14 13  1  0
 15 14  1  0
 15 16  1  1
 17 15  1  0
 17 18  1  6
 18  9  1  0
 19 17  1  0
 20 19  2  0
 21 22  1  0
 22 24  1  0
 22 23  2  0
 24 25  1  0
 26 25  1  1
 26 27  1  0
 27 19  1  0
 28 30  1  0
 28 26  1  0
 29 28  2  0
M  END
$$$$
