YIQ.pdb
     RDKit          3D

 30 30  0  0  1  0  0  0  0  0999 V2000
   19.0384  -15.0456  -23.3705 O   0  0  0  0  0  0  0  0  0  0  0  0
   19.3422  -14.3309  -22.2094 C   0  0  0  0  0  0  0  0  0  0  0  0
   18.8217  -14.7833  -21.0153 C   0  0  0  0  0  0  0  0  0  0  0  0
   19.0928  -14.1105  -19.8346 C   0  0  0  0  0  0  0  0  0  0  0  0
   19.8852  -12.9811  -19.8350 C   0  0  0  0  0  0  0  0  0  0  0  0
   20.1895  -12.2431  -18.5819 C   0  0  0  0  0  0  0  0  0  0  0  0
   21.6251  -12.4873  -18.1838 C   0  0  2  0  0  0  0  0  0  0  0  0
   21.7846  -13.8701  -17.8244 N   0  0  0  0  0  0  0  0  0  0  0  0
   22.0673  -11.5711  -17.1018 C   0  0  0  0  0  0  0  0  0  0  0  0
   21.6959  -11.8213  -15.9101 O   0  0  0  0  0  0  0  0  0  0  0  0
   20.3937  -12.5491  -21.0424 C   0  0  0  0  0  0  0  0  0  0  0  0
   20.1329  -13.2081  -22.2268 C   0  0  0  0  0  0  0  0  0  0  0  0
   26.8416  -10.6071  -15.6098 C   0  0  0  0  0  0  0  0  0  0  0  0
   25.3395  -10.7017  -15.7575 C   0  0  0  0  0  0  0  0  0  0  0  0
   24.6949   -9.3936  -16.0520 C   0  0  2  0  0  0  0  0  0  0  0  0
   25.1385   -8.3168  -15.0942 C   0  0  0  0  0  0  0  0  0  0  0  0
   23.2183   -9.5091  -16.2163 C   0  0  2  0  0  0  0  0  0  0  0  0
   22.8695  -10.4433  -17.3006 N   0  0  0  0  0  0  0  0  0  0  0  0
   22.5286   -8.2095  -16.4788 C   0  0  0  0  0  0  0  0  0  0  0  0
   22.7205   -7.5309  -17.5186 O   0  0  0  0  0  0  0  0  0  0  0  0
   17.0194   -6.6082  -16.2220 N   0  0  0  0  0  0  0  0  0  0  0  0
   17.4455   -5.3433  -15.7523 C   0  0  0  0  0  0  0  0  0  0  0  0
   16.6712   -4.3699  -15.8468 O   0  0  0  0  0  0  0  0  0  0  0  0
   18.7804   -5.2010  -15.1676 C   0  0  0  0  0  0  0  0  0  0  0  0
   19.5884   -6.4485  -15.1158 C   0  0  0  0  0  0  0  0  0  0  0  0
   20.9132   -6.3885  -15.8138 C   0  0  2  0  0  0  0  0  0  0  0  0
   21.5970   -7.6636  -15.5395 N   0  0  0  0  0  0  0  0  0  0  0  0
   21.7562   -5.2916  -15.2824 C   0  0  0  0  0  0  0  0  0  0  0  0
   22.5185   -5.5078  -14.3158 O   0  0  0  0  0  0  0  0  0  0  0  0
   21.7376   -4.0069  -15.8216 O   0  0  0  0  0  0  0  0  0  0  0  0
  2  1  1  0
  3  2  2  0
  4  3  1  0
  5 11  1  0
  5  4  2  0
  6  5  1  0
  7  9  1  0
  7  6  1  0
  7  8  1  1
  9 10  2  0
 11 12  2  0
 12  2  1  0
 14 13  1  0
 15 14  1  0
 15 16  1  1
 17 15  1  0
 17 18  1  6
 18  9  1  0
 19 17  1  0
 20 19  2  0
 21 22  1  0
 22 24  1  0
 22 23  2  0
 24 25  1  0
 26 25  1  1
 26 27  1  0
 27 19  1  0
 28 30  1  0
 28 26  1  0
 29 28  2  0
M  END
$$$$
