YIQ.pdb
     RDKit          3D

 30 30  0  0  1  0  0  0  0  0999 V2000
   26.0407  -29.1578  -18.8922 O   0  0  0  0  0  0  0  0  0  0  0  0
   25.9329  -28.0263  -18.0803 C   0  0  0  0  0  0  0  0  0  0  0  0
   25.1810  -26.9667  -18.5421 C   0  0  0  0  0  0  0  0  0  0  0  0
   25.0423  -25.8208  -17.7754 C   0  0  0  0  0  0  0  0  0  0  0  0
   25.6523  -25.7221  -16.5420 C   0  0  0  0  0  0  0  0  0  0  0  0
   25.5181  -24.5038  -15.7022 C   0  0  0  0  0  0  0  0  0  0  0  0
   26.4446  -23.4280  -16.2153 C   0  0  2  0  0  0  0  0  0  0  0  0
   27.8037  -23.8080  -15.9412 N   0  0  0  0  0  0  0  0  0  0  0  0
   26.1114  -22.0925  -15.6574 C   0  0  0  0  0  0  0  0  0  0  0  0
   26.4536  -21.8372  -14.4581 O   0  0  0  0  0  0  0  0  0  0  0  0
   26.3990  -26.7957  -16.1026 C   0  0  0  0  0  0  0  0  0  0  0  0
   26.5466  -27.9438  -16.8545 C   0  0  0  0  0  0  0  0  0  0  0  0
   28.0889  -18.5871  -17.7668 C   0  0  0  0  0  0  0  0  0  0  0  0
   27.4113  -18.9970  -16.4785 C   0  0  0  0  0  0  0  0  0  0  0  0
   25.9547  -18.6948  -16.4592 C   0  0  2  0  0  0  0  0  0  0  0  0
   25.6742  -17.2968  -15.9686 C   0  0  0  0  0  0  0  0  0  0  0  0
   25.1595  -19.7605  -15.7866 C   0  0  2  0  0  0  0  0  0  0  0  0
   25.4428  -21.0867  -16.3620 N   0  0  0  0  0  0  0  0  0  0  0  0
   23.6820  -19.5391  -15.8272 C   0  0  0  0  0  0  0  0  0  0  0  0
   23.0013  -19.6566  -16.8767 O   0  0  0  0  0  0  0  0  0  0  0  0
   20.4309  -22.5093  -13.7626 N   0  0  0  0  0  0  0  0  0  0  0  0
   20.0435  -21.3229  -13.0960 C   0  0  0  0  0  0  0  0  0  0  0  0
   18.8311  -21.1094  -12.8949 O   0  0  0  0  0  0  0  0  0  0  0  0
   21.0675  -20.3725  -12.6572 C   0  0  0  0  0  0  0  0  0  0  0  0
   21.0007  -19.0284  -13.2903 C   0  0  0  0  0  0  0  0  0  0  0  0
   21.5010  -18.9542  -14.7010 C   0  0  2  0  0  0  0  0  0  0  0  0
   22.9561  -19.1750  -14.6489 N   0  0  0  0  0  0  0  0  0  0  0  0
   21.2602  -17.6164  -15.2914 C   0  0  0  0  0  0  0  0  0  0  0  0
   22.1622  -16.7519  -15.2571 O   0  0  0  0  0  0  0  0  0  0  0  0
   20.0521  -17.2724  -15.8945 O   0  0  0  0  0  0  0  0  0  0  0  0
  2  1  1  0
  3  2  2  0
  4  3  1  0
  5 11  1  0
  5  4  2  0
  6  5  1  0
  7  9  1  0
  7  6  1  0
  7  8  1  1
  9 10  2  0
 11 12  2  0
 12  2  1  0
 14 13  1  0
 15 14  1  0
 15 16  1  1
 17 15  1  0
 17 18  1  6
 18  9  1  0
 19 17  1  0
 20 19  2  0
 21 22  1  0
 22 24  1  0
 22 23  2  0
 24 25  1  0
 26 25  1  1
 26 27  1  0
 27 19  1  0
 28 30  1  0
 28 26  1  0
 29 28  2  0
M  END
$$$$
