YIQ.pdb
     RDKit          3D

 30 30  0  0  1  0  0  0  0  0999 V2000
   16.8790  -29.3063   -6.1188 O   0  0  0  0  0  0  0  0  0  0  0  0
   17.0889  -28.0620   -6.7177 C   0  0  0  0  0  0  0  0  0  0  0  0
   18.1089  -27.9502   -7.6389 C   0  0  0  0  0  0  0  0  0  0  0  0
   18.3589  -26.7380   -8.2619 C   0  0  0  0  0  0  0  0  0  0  0  0
   17.5938  -25.6273   -7.9713 C   0  0  0  0  0  0  0  0  0  0  0  0
   17.8431  -24.3171   -8.6263 C   0  0  0  0  0  0  0  0  0  0  0  0
   19.2007  -23.7961   -8.2209 C   0  0  2  0  0  0  0  0  0  0  0  0
   19.2024  -23.5386   -6.8066 N   0  0  0  0  0  0  0  0  0  0  0  0
   19.5980  -22.6020   -9.0097 C   0  0  0  0  0  0  0  0  0  0  0  0
   19.1101  -21.4728   -8.6819 O   0  0  0  0  0  0  0  0  0  0  0  0
   16.5796  -25.7652   -7.0463 C   0  0  0  0  0  0  0  0  0  0  0  0
   16.3182  -26.9658   -6.4174 C   0  0  0  0  0  0  0  0  0  0  0  0
   22.5360  -19.8613   -8.5757 C   0  0  0  0  0  0  0  0  0  0  0  0
   22.8495  -21.1747   -9.2567 C   0  0  0  0  0  0  0  0  0  0  0  0
   22.3970  -21.2244  -10.6731 C   0  0  2  0  0  0  0  0  0  0  0  0
   22.9542  -20.0822  -11.4847 C   0  0  0  0  0  0  0  0  0  0  0  0
   20.9238  -21.4127  -10.7953 C   0  0  2  0  0  0  0  0  0  0  0  0
   20.4776  -22.6302  -10.0962 N   0  0  0  0  0  0  0  0  0  0  0  0
   20.4300  -21.4751  -12.2046 C   0  0  0  0  0  0  0  0  0  0  0  0
   20.8209  -22.3390  -13.0288 O   0  0  0  0  0  0  0  0  0  0  0  0
   15.5063  -18.0790  -14.3960 N   0  0  0  0  0  0  0  0  0  0  0  0
   15.8512  -18.8767  -15.5126 C   0  0  0  0  0  0  0  0  0  0  0  0
   15.1398  -18.8260  -16.5360 O   0  0  0  0  0  0  0  0  0  0  0  0
   17.0301  -19.7426  -15.4464 C   0  0  0  0  0  0  0  0  0  0  0  0
   17.7378  -19.7547  -14.1384 C   0  0  0  0  0  0  0  0  0  0  0  0
   18.9441  -20.6409  -14.0657 C   0  0  2  0  0  0  0  0  0  0  0  0
   19.4683  -20.5348  -12.6936 N   0  0  0  0  0  0  0  0  0  0  0  0
   20.0040  -20.1905  -14.9985 C   0  0  0  0  0  0  0  0  0  0  0  0
   20.7575  -19.2480  -14.6725 O   0  0  0  0  0  0  0  0  0  0  0  0
   20.2028  -20.7811  -16.2447 O   0  0  0  0  0  0  0  0  0  0  0  0
  2  1  1  0
  3  2  2  0
  4  3  1  0
  5 11  1  0
  5  4  2  0
  6  5  1  0
  7  9  1  0
  7  6  1  0
  7  8  1  1
  9 10  2  0
 11 12  2  0
 12  2  1  0
 14 13  1  0
 15 14  1  0
 15 16  1  1
 17 15  1  0
 17 18  1  6
 18  9  1  0
 19 17  1  0
 20 19  2  0
 21 22  1  0
 22 24  1  0
 22 23  2  0
 24 25  1  0
 26 25  1  1
 26 27  1  0
 27 19  1  0
 28 30  1  0
 28 26  1  0
 29 28  2  0
M  END
$$$$
