YIQ.pdb
     RDKit          3D

 30 30  0  0  1  0  0  0  0  0999 V2000
   22.2156  -21.7167   -5.5642 O   0  0  0  0  0  0  0  0  0  0  0  0
   22.9382  -21.2742   -6.6748 C   0  0  0  0  0  0  0  0  0  0  0  0
   24.2222  -20.8147   -6.4712 C   0  0  0  0  0  0  0  0  0  0  0  0
   24.9816  -20.3646   -7.5393 C   0  0  0  0  0  0  0  0  0  0  0  0
   24.4666  -20.3691   -8.8193 C   0  0  0  0  0  0  0  0  0  0  0  0
   25.2616  -19.8913   -9.9800 C   0  0  0  0  0  0  0  0  0  0  0  0
   25.5173  -21.0381  -10.9278 C   0  0  2  0  0  0  0  0  0  0  0  0
   26.7253  -21.7117  -10.5357 N   0  0  0  0  0  0  0  0  0  0  0  0
   25.5569  -20.5928  -12.3441 C   0  0  0  0  0  0  0  0  0  0  0  0
   26.6884  -20.3181  -12.8588 O   0  0  0  0  0  0  0  0  0  0  0  0
   23.1798  -20.8337   -8.9964 C   0  0  0  0  0  0  0  0  0  0  0  0
   22.4109  -21.2852   -7.9428 C   0  0  0  0  0  0  0  0  0  0  0  0
   25.6750  -23.3344  -16.9911 C   0  0  0  0  0  0  0  0  0  0  0  0
   25.0859  -22.0177  -16.5369 C   0  0  0  0  0  0  0  0  0  0  0  0
   25.0507  -21.8696  -15.0570 C   0  0  2  0  0  0  0  0  0  0  0  0
   24.4339  -23.0695  -14.3836 C   0  0  0  0  0  0  0  0  0  0  0  0
   24.4873  -20.5584  -14.6279 C   0  0  2  0  0  0  0  0  0  0  0  0
   24.4298  -20.4527  -13.1597 N   0  0  0  0  0  0  0  0  0  0  0  0
   23.1250  -20.2707  -15.1712 C   0  0  0  0  0  0  0  0  0  0  0  0
   22.1195  -20.9753  -14.9049 O   0  0  0  0  0  0  0  0  0  0  0  0
   19.9854  -16.6125  -16.2144 N   0  0  0  0  0  0  0  0  0  0  0  0
   21.0744  -15.9113  -16.7841 C   0  0  0  0  0  0  0  0  0  0  0  0
   21.1738  -14.6836  -16.5874 O   0  0  0  0  0  0  0  0  0  0  0  0
   22.0591  -16.6359  -17.5901 C   0  0  0  0  0  0  0  0  0  0  0  0
   21.7524  -18.0713  -17.8299 C   0  0  0  0  0  0  0  0  0  0  0  0
   21.5568  -18.9035  -16.5991 C   0  0  2  0  0  0  0  0  0  0  0  0
   22.8951  -19.1560  -16.0387 N   0  0  0  0  0  0  0  0  0  0  0  0
   20.9398  -20.2117  -16.9223 C   0  0  0  0  0  0  0  0  0  0  0  0
   21.6678  -21.1886  -17.2016 O   0  0  0  0  0  0  0  0  0  0  0  0
   19.5601  -20.4058  -16.9284 O   0  0  0  0  0  0  0  0  0  0  0  0
  2  1  1  0
  3  2  2  0
  4  3  1  0
  5 11  1  0
  5  4  2  0
  6  5  1  0
  7  9  1  0
  7  6  1  0
  7  8  1  1
  9 10  2  0
 11 12  2  0
 12  2  1  0
 14 13  1  0
 15 14  1  0
 15 16  1  1
 17 15  1  0
 17 18  1  1
 18  9  1  0
 19 17  1  0
 20 19  2  0
 21 22  1  0
 22 24  1  0
 22 23  2  0
 24 25  1  0
 26 25  1  6
 26 27  1  0
 27 19  1  0
 28 30  1  0
 28 26  1  0
 29 28  2  0
M  END
$$$$
