YIQ.pdb
     RDKit          3D

 30 30  0  0  1  0  0  0  0  0999 V2000
   29.5344  -19.7336   -3.3139 O   0  0  0  0  0  0  0  0  0  0  0  0
   28.8050  -20.0679   -4.4573 C   0  0  0  0  0  0  0  0  0  0  0  0
   27.4413  -20.2295   -4.3317 C   0  0  0  0  0  0  0  0  0  0  0  0
   26.6717  -20.5611   -5.4353 C   0  0  0  0  0  0  0  0  0  0  0  0
   27.2557  -20.7342   -6.6732 C   0  0  0  0  0  0  0  0  0  0  0  0
   26.4512  -21.0899   -7.8706 C   0  0  0  0  0  0  0  0  0  0  0  0
   26.5501  -19.9863   -8.8958 C   0  0  2  0  0  0  0  0  0  0  0  0
   26.1247  -18.7499   -8.2982 N   0  0  0  0  0  0  0  0  0  0  0  0
   25.7900  -20.3035  -10.1317 C   0  0  0  0  0  0  0  0  0  0  0  0
   24.5842  -19.9044  -10.2175 O   0  0  0  0  0  0  0  0  0  0  0  0
   28.6214  -20.5668   -6.7725 C   0  0  0  0  0  0  0  0  0  0  0  0
   29.4015  -20.2366   -5.6827 C   0  0  0  0  0  0  0  0  0  0  0  0
   29.6062  -19.8673  -13.7936 C   0  0  0  0  0  0  0  0  0  0  0  0
   28.3137  -19.7459  -13.0178 C   0  0  0  0  0  0  0  0  0  0  0  0
   27.2774  -20.7234  -13.4466 C   0  0  2  0  0  0  0  0  0  0  0  0
   27.0401  -20.6788  -14.9350 C   0  0  0  0  0  0  0  0  0  0  0  0
   26.0414  -20.6454  -12.6178 C   0  0  2  0  0  0  0  0  0  0  0  0
   26.3091  -21.0155  -11.2173 N   0  0  0  0  0  0  0  0  0  0  0  0
   24.9151  -21.4909  -13.1180 C   0  0  0  0  0  0  0  0  0  0  0  0
   24.8011  -22.7114  -12.8422 O   0  0  0  0  0  0  0  0  0  0  0  0
   20.5149  -21.2895  -10.3314 N   0  0  0  0  0  0  0  0  0  0  0  0
   19.8178  -21.8421  -11.4317 C   0  0  0  0  0  0  0  0  0  0  0  0
   18.6511  -22.2511  -11.2660 O   0  0  0  0  0  0  0  0  0  0  0  0
   20.4755  -21.9238  -12.7374 C   0  0  0  0  0  0  0  0  0  0  0  0
   21.8960  -21.4841  -12.7627 C   0  0  0  0  0  0  0  0  0  0  0  0
   22.5879  -21.6135  -14.0857 C   0  0  2  0  0  0  0  0  0  0  0  0
   23.8910  -20.9405  -13.9523 N   0  0  0  0  0  0  0  0  0  0  0  0
   21.8287  -20.9352  -15.1626 C   0  0  0  0  0  0  0  0  0  0  0  0
   20.9333  -21.5556  -15.7755 O   0  0  0  0  0  0  0  0  0  0  0  0
   22.0716  -19.6130  -15.5292 O   0  0  0  0  0  0  0  0  0  0  0  0
  2  1  1  0
  3  2  2  0
  4  3  1  0
  5 11  1  0
  5  4  2  0
  6  5  1  0
  7  9  1  0
  7  6  1  0
  7  8  1  1
  9 10  2  0
 11 12  2  0
 12  2  1  0
 14 13  1  0
 15 14  1  0
 15 16  1  6
 17 15  1  0
 17 18  1  1
 18  9  1  0
 19 17  1  0
 20 19  2  0
 21 22  1  0
 22 24  1  0
 22 23  2  0
 24 25  1  0
 26 25  1  1
 26 27  1  0
 27 19  1  0
 28 30  1  0
 28 26  1  0
 29 28  2  0
M  END
$$$$
