YIQ.pdb
     RDKit          3D

 30 30  0  0  1  0  0  0  0  0999 V2000
   15.6641  -23.5519  -15.3616 O   0  0  0  0  0  0  0  0  0  0  0  0
   16.8452  -22.8302  -15.1728 C   0  0  0  0  0  0  0  0  0  0  0  0
   16.7434  -21.5120  -14.7812 C   0  0  0  0  0  0  0  0  0  0  0  0
   17.8845  -20.7520  -14.5803 C   0  0  0  0  0  0  0  0  0  0  0  0
   19.1365  -21.3004  -14.7683 C   0  0  0  0  0  0  0  0  0  0  0  0
   20.3741  -20.5053  -14.5592 C   0  0  0  0  0  0  0  0  0  0  0  0
   21.0666  -20.9644  -13.2988 C   0  0  2  0  0  0  0  0  0  0  0  0
   20.2501  -20.6277  -12.1645 N   0  0  0  0  0  0  0  0  0  0  0  0
   22.4409  -20.4130  -13.1851 C   0  0  0  0  0  0  0  0  0  0  0  0
   22.5748  -19.1870  -12.8694 O   0  0  0  0  0  0  0  0  0  0  0  0
   19.2113  -22.6210  -15.1601 C   0  0  0  0  0  0  0  0  0  0  0  0
   18.0841  -23.3910  -15.3642 C   0  0  0  0  0  0  0  0  0  0  0  0
   25.9041  -21.4609   -9.7035 C   0  0  0  0  0  0  0  0  0  0  0  0
   25.1076  -20.8982  -10.8594 C   0  0  0  0  0  0  0  0  0  0  0  0
   25.7321  -21.1580  -12.1844 C   0  0  2  0  0  0  0  0  0  0  0  0
   27.2028  -20.8253  -12.1908 C   0  0  0  0  0  0  0  0  0  0  0  0
   24.9555  -20.5623  -13.3081 C   0  0  2  0  0  0  0  0  0  0  0  0
   23.6084  -21.1510  -13.4021 N   0  0  0  0  0  0  0  0  0  0  0  0
   25.6157  -20.6894  -14.6429 C   0  0  0  0  0  0  0  0  0  0  0  0
   25.8499  -21.7971  -15.1876 O   0  0  0  0  0  0  0  0  0  0  0  0
   25.0664  -16.7629  -19.3776 N   0  0  0  0  0  0  0  0  0  0  0  0
   24.2254  -17.8112  -18.9351 C   0  0  0  0  0  0  0  0  0  0  0  0
   23.0433  -17.8477  -19.3316 O   0  0  0  0  0  0  0  0  0  0  0  0
   24.7553  -18.8282  -18.0245 C   0  0  0  0  0  0  0  0  0  0  0  0
   26.1575  -18.6134  -17.5779 C   0  0  0  0  0  0  0  0  0  0  0  0
   26.7150  -19.6694  -16.6724 C   0  0  2  0  0  0  0  0  0  0  0  0
   26.0214  -19.5321  -15.3805 N   0  0  0  0  0  0  0  0  0  0  0  0
   28.1650  -19.4720  -16.4385 C   0  0  0  0  0  0  0  0  0  0  0  0
   28.5541  -18.5271  -15.7187 O   0  0  0  0  0  0  0  0  0  0  0  0
   29.1319  -20.3073  -16.9942 O   0  0  0  0  0  0  0  0  0  0  0  0
  2  1  1  0
  3  2  2  0
  4  3  1  0
  5 11  1  0
  5  4  2  0
  6  5  1  0
  7  9  1  0
  7  6  1  0
  7  8  1  1
  9 10  2  0
 11 12  2  0
 12  2  1  0
 14 13  1  0
 15 14  1  0
 15 16  1  1
 17 15  1  0
 17 18  1  6
 18  9  1  0
 19 17  1  0
 20 19  2  0
 21 22  1  0
 22 24  1  0
 22 23  2  0
 24 25  1  0
 26 25  1  6
 26 27  1  0
 27 19  1  0
 28 30  1  0
 28 26  1  0
 29 28  2  0
M  END
$$$$
