YIQ.pdb
     RDKit          3D

 30 30  0  0  1  0  0  0  0  0999 V2000
   18.7909  -23.0148  -11.0830 O   0  0  0  0  0  0  0  0  0  0  0  0
   18.3823  -23.6337   -9.8993 C   0  0  0  0  0  0  0  0  0  0  0  0
   17.2325  -24.3942   -9.9292 C   0  0  0  0  0  0  0  0  0  0  0  0
   16.7838  -25.0293   -8.7823 C   0  0  0  0  0  0  0  0  0  0  0  0
   17.4782  -24.9111   -7.5960 C   0  0  0  0  0  0  0  0  0  0  0  0
   17.0166  -25.5825   -6.3535 C   0  0  0  0  0  0  0  0  0  0  0  0
   17.9170  -26.7539   -6.0439 C   0  0  2  0  0  0  0  0  0  0  0  0
   17.8578  -27.6926   -7.1312 N   0  0  0  0  0  0  0  0  0  0  0  0
   17.5852  -27.3831   -4.7401 C   0  0  0  0  0  0  0  0  0  0  0  0
   16.8641  -28.4321   -4.7426 O   0  0  0  0  0  0  0  0  0  0  0  0
   18.6253  -24.1448   -7.5923 C   0  0  0  0  0  0  0  0  0  0  0  0
   19.0850  -23.5061   -8.7263 C   0  0  0  0  0  0  0  0  0  0  0  0
   21.2622  -27.2027   -1.0540 C   0  0  0  0  0  0  0  0  0  0  0  0
   20.0918  -27.8368   -1.7718 C   0  0  0  0  0  0  0  0  0  0  0  0
   18.7722  -27.4152   -1.2296 C   0  0  2  0  0  0  0  0  0  0  0  0
   18.4883  -28.0380    0.1140 C   0  0  0  0  0  0  0  0  0  0  0  0
   17.6733  -27.5593   -2.2258 C   0  0  2  0  0  0  0  0  0  0  0  0
   18.0124  -26.9008   -3.4992 N   0  0  0  0  0  0  0  0  0  0  0  0
   16.3545  -27.0306   -1.7625 C   0  0  0  0  0  0  0  0  0  0  0  0
   15.9815  -25.8483   -1.9666 O   0  0  0  0  0  0  0  0  0  0  0  0
   16.8442  -26.0467    1.4193 N   0  0  0  0  0  0  0  0  0  0  0  0
   15.6569  -26.0138    2.1882 C   0  0  0  0  0  0  0  0  0  0  0  0
   15.7403  -26.0366    3.4326 O   0  0  0  0  0  0  0  0  0  0  0  0
   14.3591  -25.9545    1.5127 C   0  0  0  0  0  0  0  0  0  0  0  0
   14.4130  -25.9937    0.0269 C   0  0  0  0  0  0  0  0  0  0  0  0
   14.1383  -27.3299   -0.5935 C   0  0  2  0  0  0  0  0  0  0  0  0
   15.4335  -27.8621   -1.0494 N   0  0  0  0  0  0  0  0  0  0  0  0
   13.2511  -27.2067   -1.7742 C   0  0  0  0  0  0  0  0  0  0  0  0
   12.1190  -26.6920   -1.6482 O   0  0  0  0  0  0  0  0  0  0  0  0
   13.6287  -27.6459   -3.0415 O   0  0  0  0  0  0  0  0  0  0  0  0
  2  1  1  0
  3  2  2  0
  4  3  1  0
  5 11  1  0
  5  4  2  0
  6  5  1  0
  7  9  1  0
  7  6  1  0
  7  8  1  6
  9 10  2  0
 11 12  2  0
 12  2  1  0
 14 13  1  0
 15 14  1  0
 15 16  1  1
 17 15  1  0
 17 18  1  6
 18  9  1  0
 19 17  1  0
 20 19  2  0
 21 22  1  0
 22 24  1  0
 22 23  2  0
 24 25  1  0
 26 25  1  6
 26 27  1  0
 27 19  1  0
 28 30  1  0
 28 26  1  0
 29 28  2  0
M  END
$$$$
