MAC.pdb
     RDKit          3D

 20 19  0  0  1  0  0  0  0  0999 V2000
   26.7848  -21.9666  -18.8497 C   0  0  0  0  0  0  0  0  0  0  0  0
   28.0726  -20.7684  -18.3571 S   0  0  0  0  0  0  0  0  0  0  0  0
   28.9717  -21.4663  -16.9805 C   0  0  0  0  0  0  0  0  0  0  0  0
   28.1000  -21.9573  -15.8630 C   0  0  0  0  0  0  0  0  0  0  0  0
   27.1379  -20.9226  -15.3477 C   0  0  2  0  0  0  0  0  0  0  0  0
   27.7696  -19.6817  -15.0452 N   0  0  0  0  0  0  0  0  0  0  0  0
   26.3994  -21.5203  -14.2137 C   0  0  0  0  0  0  0  0  0  0  0  0
   25.8942  -22.6623  -14.4225 O   0  0  0  0  0  0  0  0  0  0  0  0
   25.7036  -20.9628  -10.6394 C   0  0  0  0  0  0  0  0  0  0  0  0
   25.3103  -21.5259  -12.0112 C   0  0  2  0  0  0  0  0  0  0  0  0
   26.2227  -20.9339  -12.9631 N   0  0  0  0  0  0  0  0  0  0  0  0
   23.9156  -21.1773  -12.3441 C   0  0  0  0  0  0  0  0  0  0  0  0
   22.9315  -21.5162  -11.6169 O   0  0  0  0  0  0  0  0  0  0  0  0
   23.6380  -20.4329  -13.5208 N   0  0  0  0  0  0  0  0  0  0  0  0
   22.3137  -20.0027  -13.8584 C   0  0  1  0  0  0  0  0  0  0  0  0
   22.3045  -18.7541  -14.7096 C   0  0  0  0  0  0  0  0  0  0  0  0
   20.6265  -18.0833  -14.7830 S   0  0  0  0  0  0  0  0  0  0  0  0
   21.5987  -21.1035  -14.5574 C   0  0  0  0  0  0  0  0  0  0  0  0
   20.2429  -21.3548  -14.3379 O   0  0  0  0  0  0  0  0  0  0  0  0
   22.2137  -21.8390  -15.3718 O   0  0  0  0  0  0  0  0  0  0  0  0
  2  1  1  0
  3  2  1  0
  4  5  1  0
  4  3  1  0
  5  6  1  1
  7 11  1  0
  7  5  1  0
  8  7  2  0
 10  9  1  1
 10 11  1  0
 12 10  1  0
 12 14  1  0
 13 12  2  0
 15 14  1  0
 15 16  1  6
 16 17  1  0
 18 15  1  0
 19 18  1  0
 20 18  2  0
M  END
$$$$
