MAC.pdb
     RDKit          3D

 20 19  0  0  1  0  0  0  0  0999 V2000
   27.8913  -12.8978  -15.4427 C   0  0  0  0  0  0  0  0  0  0  0  0
   26.5574  -13.8850  -14.6793 S   0  0  0  0  0  0  0  0  0  0  0  0
   25.2052  -13.9706  -15.8432 C   0  0  0  0  0  0  0  0  0  0  0  0
   24.5752  -12.6448  -16.1515 C   0  0  0  0  0  0  0  0  0  0  0  0
   23.3835  -12.7397  -17.0640 C   0  0  2  0  0  0  0  0  0  0  0  0
   23.6889  -13.3586  -18.3105 N   0  0  0  0  0  0  0  0  0  0  0  0
   22.8008  -11.3852  -17.1851 C   0  0  0  0  0  0  0  0  0  0  0  0
   23.4586  -10.5603  -17.8848 O   0  0  0  0  0  0  0  0  0  0  0  0
   19.6259   -9.6474  -16.5132 C   0  0  0  0  0  0  0  0  0  0  0  0
   21.1231   -9.6222  -16.8470 C   0  0  2  0  0  0  0  0  0  0  0  0
   21.6105  -10.9604  -16.6005 N   0  0  0  0  0  0  0  0  0  0  0  0
   21.8359   -8.6466  -15.9999 C   0  0  0  0  0  0  0  0  0  0  0  0
   22.3576   -8.9582  -14.8851 O   0  0  0  0  0  0  0  0  0  0  0  0
   21.9562   -7.2983  -16.4281 N   0  0  0  0  0  0  0  0  0  0  0  0
   22.6723   -6.3164  -15.6693 C   0  0  1  0  0  0  0  0  0  0  0  0
   23.4443   -5.3534  -16.5412 C   0  0  0  0  0  0  0  0  0  0  0  0
   24.2448   -4.1059  -15.5048 S   0  0  0  0  0  0  0  0  0  0  0  0
   21.7217   -5.5713  -14.8016 C   0  0  0  0  0  0  0  0  0  0  0  0
   22.0651   -5.1733  -13.5079 O   0  0  0  0  0  0  0  0  0  0  0  0
   20.5732   -5.2822  -15.2256 O   0  0  0  0  0  0  0  0  0  0  0  0
  2  1  1  0
  3  2  1  0
  4  5  1  0
  4  3  1  0
  5  6  1  6
  7 11  1  0
  7  5  1  0
  8  7  2  0
 10  9  1  1
 10 11  1  0
 12 10  1  0
 12 14  1  0
 13 12  2  0
 15 14  1  0
 15 16  1  6
 16 17  1  0
 18 15  1  0
 19 18  1  0
 20 18  2  0
M  END
$$$$
