MAC.pdb
     RDKit          3D

 20 19  0  0  1  0  0  0  0  0999 V2000
   17.9390  -15.4997  -16.4665 C   0  0  0  0  0  0  0  0  0  0  0  0
   19.2106  -16.0653  -17.6496 S   0  0  0  0  0  0  0  0  0  0  0  0
   19.8711  -14.6247  -18.4735 C   0  0  0  0  0  0  0  0  0  0  0  0
   20.0362  -13.4293  -17.5827 C   0  0  0  0  0  0  0  0  0  0  0  0
   20.9609  -12.3828  -18.1409 C   0  0  2  0  0  0  0  0  0  0  0  0
   22.0507  -12.9398  -18.8705 N   0  0  0  0  0  0  0  0  0  0  0  0
   21.3653  -11.4988  -17.0256 C   0  0  0  0  0  0  0  0  0  0  0  0
   20.4215  -10.9914  -16.3513 O   0  0  0  0  0  0  0  0  0  0  0  0
   24.4266  -10.4416  -15.2410 C   0  0  0  0  0  0  0  0  0  0  0  0
   22.9330  -10.3005  -15.5615 C   0  0  2  0  0  0  0  0  0  0  0  0
   22.6762  -11.1908  -16.6708 N   0  0  0  0  0  0  0  0  0  0  0  0
   22.6008   -8.9096  -15.9254 C   0  0  0  0  0  0  0  0  0  0  0  0
   22.7626   -8.4500  -17.0980 O   0  0  0  0  0  0  0  0  0  0  0  0
   22.0776   -8.0304  -14.9411 N   0  0  0  0  0  0  0  0  0  0  0  0
   21.7948   -6.6536  -15.2187 C   0  0  1  0  0  0  0  0  0  0  0  0
   20.3640   -6.4263  -15.6485 C   0  0  0  0  0  0  0  0  0  0  0  0
   20.0348   -4.6505  -15.7440 S   0  0  0  0  0  0  0  0  0  0  0  0
   22.1047   -5.8327  -14.0180 C   0  0  0  0  0  0  0  0  0  0  0  0
   22.6428   -4.5486  -14.1248 O   0  0  0  0  0  0  0  0  0  0  0  0
   21.8836   -6.2889  -12.8668 O   0  0  0  0  0  0  0  0  0  0  0  0
  2  1  1  0
  3  2  1  0
  4  5  1  0
  4  3  1  0
  5  6  1  1
  7 11  1  0
  7  5  1  0
  8  7  2  0
 10  9  1  6
 10 11  1  0
 12 10  1  0
 12 14  1  0
 13 12  2  0
 15 14  1  0
 15 16  1  1
 16 17  1  0
 18 15  1  0
 19 18  1  0
 20 18  2  0
M  END
$$$$
