MAC.pdb
     RDKit          3D

 20 19  0  0  1  0  0  0  0  0999 V2000
   22.5577  -18.1305  -15.8424 C   0  0  0  0  0  0  0  0  0  0  0  0
   24.0485  -18.2135  -14.7902 S   0  0  0  0  0  0  0  0  0  0  0  0
   25.2030  -16.9844  -15.3788 C   0  0  0  0  0  0  0  0  0  0  0  0
   24.5783  -15.6595  -15.7016 C   0  0  0  0  0  0  0  0  0  0  0  0
   25.5370  -14.6704  -16.3053 C   0  0  2  0  0  0  0  0  0  0  0  0
   26.6179  -14.3460  -15.4355 N   0  0  0  0  0  0  0  0  0  0  0  0
   24.7512  -13.5020  -16.7594 C   0  0  0  0  0  0  0  0  0  0  0  0
   24.5700  -12.5894  -15.9008 O   0  0  0  0  0  0  0  0  0  0  0  0
   23.4022  -12.0885  -19.8923 C   0  0  0  0  0  0  0  0  0  0  0  0
   23.5071  -12.1160  -18.3620 C   0  0  2  0  0  0  0  0  0  0  0  0
   24.2089  -13.3355  -18.0311 N   0  0  0  0  0  0  0  0  0  0  0  0
   22.1684  -12.1035  -17.7413 C   0  0  0  0  0  0  0  0  0  0  0  0
   21.5746  -13.1626  -17.3699 O   0  0  0  0  0  0  0  0  0  0  0  0
   21.4971  -10.8686  -17.5411 N   0  0  0  0  0  0  0  0  0  0  0  0
   20.1630  -10.7992  -17.0233 C   0  0  1  0  0  0  0  0  0  0  0  0
   20.1097  -10.9654  -15.5222 C   0  0  0  0  0  0  0  0  0  0  0  0
   18.4502  -10.5626  -14.9265 S   0  0  0  0  0  0  0  0  0  0  0  0
   19.5460   -9.5045  -17.4167 C   0  0  0  0  0  0  0  0  0  0  0  0
   20.2600   -8.3054  -17.3677 O   0  0  0  0  0  0  0  0  0  0  0  0
   18.3507   -9.4672  -17.8067 O   0  0  0  0  0  0  0  0  0  0  0  0
  2  1  1  0
  3  2  1  0
  4  5  1  0
  4  3  1  0
  5  6  1  1
  7 11  1  0
  7  5  1  0
  8  7  2  0
 10  9  1  6
 10 11  1  0
 12 10  1  0
 12 14  1  0
 13 12  2  0
 15 14  1  0
 15 16  1  1
 16 17  1  0
 18 15  1  0
 19 18  1  0
 20 18  2  0
M  END
$$$$
