MAC.pdb
     RDKit          3D

 20 19  0  0  1  0  0  0  0  0999 V2000
   30.7695  -20.8026  -10.2786 C   0  0  0  0  0  0  0  0  0  0  0  0
   29.1003  -21.5446  -10.2841 S   0  0  0  0  0  0  0  0  0  0  0  0
   28.5866  -21.7240  -11.9853 C   0  0  0  0  0  0  0  0  0  0  0  0
   27.5043  -20.7735  -12.4037 C   0  0  0  0  0  0  0  0  0  0  0  0
   27.1118  -20.9034  -13.8497 C   0  0  2  0  0  0  0  0  0  0  0  0
   28.1338  -20.4673  -14.7417 N   0  0  0  0  0  0  0  0  0  0  0  0
   25.8154  -20.2131  -14.0275 C   0  0  0  0  0  0  0  0  0  0  0  0
   25.8243  -18.9613  -13.8381 O   0  0  0  0  0  0  0  0  0  0  0  0
   22.9897  -20.0643  -15.9461 C   0  0  0  0  0  0  0  0  0  0  0  0
   23.4048  -20.0376  -14.4694 C   0  0  2  0  0  0  0  0  0  0  0  0
   24.6144  -20.8236  -14.3796 N   0  0  0  0  0  0  0  0  0  0  0  0
   22.3484  -20.6122  -13.6142 C   0  0  0  0  0  0  0  0  0  0  0  0
   22.1935  -21.8633  -13.4626 O   0  0  0  0  0  0  0  0  0  0  0  0
   21.4566  -19.7507  -12.9226 N   0  0  0  0  0  0  0  0  0  0  0  0
   20.4132  -20.2500  -12.0772 C   0  0  1  0  0  0  0  0  0  0  0  0
   20.1221  -19.3378  -10.9080 C   0  0  0  0  0  0  0  0  0  0  0  0
   19.5986  -17.7180  -11.5190 S   0  0  0  0  0  0  0  0  0  0  0  0
   19.1805  -20.4584  -12.8825 C   0  0  0  0  0  0  0  0  0  0  0  0
   18.1700  -21.3281  -12.4675 O   0  0  0  0  0  0  0  0  0  0  0  0
   19.0248  -19.8443  -13.9694 O   0  0  0  0  0  0  0  0  0  0  0  0
  2  1  1  0
  3  2  1  0
  4  5  1  0
  4  3  1  0
  5  6  1  6
  7 11  1  0
  7  5  1  0
  8  7  2  0
 10  9  1  6
 10 11  1  0
 12 10  1  0
 12 14  1  0
 13 12  2  0
 15 14  1  0
 15 16  1  1
 16 17  1  0
 18 15  1  0
 19 18  1  0
 20 18  2  0
M  END
$$$$
