MAC.pdb
     RDKit          3D

 20 19  0  0  1  0  0  0  0  0999 V2000
   17.2607  -16.7558  -20.0757 C   0  0  0  0  0  0  0  0  0  0  0  0
   17.7904  -18.4300  -19.5728 S   0  0  0  0  0  0  0  0  0  0  0  0
   19.4904  -18.3276  -19.0344 C   0  0  0  0  0  0  0  0  0  0  0  0
   19.8997  -16.9693  -18.5473 C   0  0  0  0  0  0  0  0  0  0  0  0
   21.3360  -16.8924  -18.1080 C   0  0  2  0  0  0  0  0  0  0  0  0
   21.7114  -17.9683  -17.2526 N   0  0  0  0  0  0  0  0  0  0  0  0
   21.5576  -15.5496  -17.5278 C   0  0  0  0  0  0  0  0  0  0  0  0
   21.4100  -14.5731  -18.3200 O   0  0  0  0  0  0  0  0  0  0  0  0
   21.4878  -13.8700  -14.3386 C   0  0  0  0  0  0  0  0  0  0  0  0
   22.0641  -13.9205  -15.7595 C   0  0  2  0  0  0  0  0  0  0  0  0
   21.9082  -15.2863  -16.2061 N   0  0  0  0  0  0  0  0  0  0  0  0
   23.4878  -13.5325  -15.7652 C   0  0  0  0  0  0  0  0  0  0  0  0
   23.8859  -12.3794  -15.4131 O   0  0  0  0  0  0  0  0  0  0  0  0
   24.4710  -14.4701  -16.1774 N   0  0  0  0  0  0  0  0  0  0  0  0
   25.8625  -14.1366  -16.2494 C   0  0  1  0  0  0  0  0  0  0  0  0
   26.7585  -15.2697  -15.8057 C   0  0  0  0  0  0  0  0  0  0  0  0
   26.1464  -15.9509  -14.2460 S   0  0  0  0  0  0  0  0  0  0  0  0
   26.2027  -13.7295  -17.6387 C   0  0  0  0  0  0  0  0  0  0  0  0
   27.2694  -12.8710  -17.9124 O   0  0  0  0  0  0  0  0  0  0  0  0
   25.5240  -14.1590  -18.6068 O   0  0  0  0  0  0  0  0  0  0  0  0
  2  1  1  0
  3  2  1  0
  4  5  1  0
  4  3  1  0
  5  6  1  1
  7 11  1  0
  7  5  1  0
  8  7  2  0
 10  9  1  1
 10 11  1  0
 12 10  1  0
 12 14  1  0
 13 12  2  0
 15 14  1  0
 15 16  1  6
 16 17  1  0
 18 15  1  0
 19 18  1  0
 20 18  2  0
M  END
$$$$
