MAC.pdb
     RDKit          3D

 20 19  0  0  1  0  0  0  0  0999 V2000
   26.2144  -20.7293   -9.9348 C   0  0  0  0  0  0  0  0  0  0  0  0
   24.5314  -21.4363  -10.0012 S   0  0  0  0  0  0  0  0  0  0  0  0
   23.4813  -20.2705  -10.8548 C   0  0  0  0  0  0  0  0  0  0  0  0
   23.7650  -20.1485  -12.3226 C   0  0  0  0  0  0  0  0  0  0  0  0
   22.5774  -20.4502  -13.1947 C   0  0  2  0  0  0  0  0  0  0  0  0
   21.9536  -21.6896  -12.8706 N   0  0  0  0  0  0  0  0  0  0  0  0
   23.0148  -20.3407  -14.6038 C   0  0  0  0  0  0  0  0  0  0  0  0
   23.1428  -21.4335  -15.2302 O   0  0  0  0  0  0  0  0  0  0  0  0
   23.3418  -17.7945  -17.2315 C   0  0  0  0  0  0  0  0  0  0  0  0
   23.6691  -19.1845  -16.6708 C   0  0  2  0  0  0  0  0  0  0  0  0
   23.2896  -19.1528  -15.2764 N   0  0  0  0  0  0  0  0  0  0  0  0
   25.1073  -19.4841  -16.8099 C   0  0  0  0  0  0  0  0  0  0  0  0
   25.6674  -19.6502  -17.9373 O   0  0  0  0  0  0  0  0  0  0  0  0
   25.9183  -19.5959  -15.6500 N   0  0  0  0  0  0  0  0  0  0  0  0
   27.3221  -19.8728  -15.7227 C   0  0  1  0  0  0  0  0  0  0  0  0
   28.0995  -19.2521  -14.5851 C   0  0  0  0  0  0  0  0  0  0  0  0
   27.1780  -17.8465  -13.9173 S   0  0  0  0  0  0  0  0  0  0  0  0
   27.5359  -21.3443  -15.7454 C   0  0  0  0  0  0  0  0  0  0  0  0
   28.8031  -21.8998  -15.9338 O   0  0  0  0  0  0  0  0  0  0  0  0
   26.5625  -22.1264  -15.5927 O   0  0  0  0  0  0  0  0  0  0  0  0
  2  1  1  0
  3  2  1  0
  4  5  1  0
  4  3  1  0
  5  6  1  1
  7 11  1  0
  7  5  1  0
  8  7  2  0
 10  9  1  1
 10 11  1  0
 12 10  1  0
 12 14  1  0
 13 12  2  0
 15 14  1  0
 15 16  1  1
 16 17  1  0
 18 15  1  0
 19 18  1  0
 20 18  2  0
M  END
$$$$
