MAC.pdb
     RDKit          3D

 20 19  0  0  1  0  0  0  0  0999 V2000
   28.7410  -19.1440  -15.8500 C   0  0  0  0  0  0  0  0  0  0  0  0
   28.1696  -20.4156  -14.6696 S   0  0  0  0  0  0  0  0  0  0  0  0
   27.1794  -21.5959  -15.5734 C   0  0  0  0  0  0  0  0  0  0  0  0
   27.9425  -22.7907  -16.0631 C   0  0  0  0  0  0  0  0  0  0  0  0
   29.2413  -22.4435  -16.7373 C   0  0  2  0  0  0  0  0  0  0  0  0
   29.0642  -21.6307  -17.8941 N   0  0  0  0  0  0  0  0  0  0  0  0
   29.9694  -23.7067  -16.9884 C   0  0  0  0  0  0  0  0  0  0  0  0
   29.7648  -24.2492  -18.1139 O   0  0  0  0  0  0  0  0  0  0  0  0
   32.5866  -25.8071  -15.4345 C   0  0  0  0  0  0  0  0  0  0  0  0
   31.4686  -25.5804  -16.4603 C   0  0  2  0  0  0  0  0  0  0  0  0
   30.8426  -24.3286  -16.0996 N   0  0  0  0  0  0  0  0  0  0  0  0
   30.4865  -26.6812  -16.4218 C   0  0  0  0  0  0  0  0  0  0  0  0
   29.6314  -26.8053  -15.4915 O   0  0  0  0  0  0  0  0  0  0  0  0
   30.4783  -27.6534  -17.4564 N   0  0  0  0  0  0  0  0  0  0  0  0
   29.5435  -28.7390  -17.4776 C   0  0  1  0  0  0  0  0  0  0  0  0
   28.3954  -28.5026  -18.4314 C   0  0  0  0  0  0  0  0  0  0  0  0
   27.2414  -29.8925  -18.3468 S   0  0  0  0  0  0  0  0  0  0  0  0
   30.2532  -29.9965  -17.8333 C   0  0  0  0  0  0  0  0  0  0  0  0
   29.9510  -31.2111  -17.2142 O   0  0  0  0  0  0  0  0  0  0  0  0
   31.1528  -29.9870  -18.7126 O   0  0  0  0  0  0  0  0  0  0  0  0
  2  1  1  0
  3  2  1  0
  4  5  1  0
  4  3  1  0
  5  6  1  6
  7 11  1  0
  7  5  1  0
  8  7  2  0
 10  9  1  1
 10 11  1  0
 12 10  1  0
 12 14  1  0
 13 12  2  0
 15 14  1  0
 15 16  1  6
 16 17  1  0
 18 15  1  0
 19 18  1  0
 20 18  2  0
M  END
$$$$
