MAC.pdb
     RDKit          3D

 20 19  0  0  1  0  0  0  0  0999 V2000
   29.6634  -24.3205  -17.3058 C   0  0  0  0  0  0  0  0  0  0  0  0
   28.0226  -24.0296  -16.5575 S   0  0  0  0  0  0  0  0  0  0  0  0
   27.1829  -25.6025  -16.4513 C   0  0  0  0  0  0  0  0  0  0  0  0
   25.9187  -25.5707  -15.6447 C   0  0  0  0  0  0  0  0  0  0  0  0
   24.6919  -25.9469  -16.4290 C   0  0  2  0  0  0  0  0  0  0  0  0
   24.6242  -25.2977  -17.6956 N   0  0  0  0  0  0  0  0  0  0  0  0
   23.5153  -25.7129  -15.5631 C   0  0  0  0  0  0  0  0  0  0  0  0
   23.1248  -24.5120  -15.4725 O   0  0  0  0  0  0  0  0  0  0  0  0
   20.6254  -25.8146  -15.1313 C   0  0  0  0  0  0  0  0  0  0  0  0
   21.6387  -26.3389  -14.1057 C   0  0  2  0  0  0  0  0  0  0  0  0
   22.8218  -26.6925  -14.8571 N   0  0  0  0  0  0  0  0  0  0  0  0
   21.1064  -27.5160  -13.3926 C   0  0  0  0  0  0  0  0  0  0  0  0
   20.7576  -28.5804  -13.9905 O   0  0  0  0  0  0  0  0  0  0  0  0
   20.9694  -27.4803  -11.9799 N   0  0  0  0  0  0  0  0  0  0  0  0
   20.5001  -28.6066  -11.2289 C   0  0  1  0  0  0  0  0  0  0  0  0
   21.0043  -28.6097   -9.8042 C   0  0  0  0  0  0  0  0  0  0  0  0
   20.8349  -30.2691   -9.1052 S   0  0  0  0  0  0  0  0  0  0  0  0
   19.0132  -28.6279  -11.2453 C   0  0  0  0  0  0  0  0  0  0  0  0
   18.2964  -29.8230  -11.3323 O   0  0  0  0  0  0  0  0  0  0  0  0
   18.3655  -27.5515  -11.1800 O   0  0  0  0  0  0  0  0  0  0  0  0
  2  1  1  0
  3  2  1  0
  4  5  1  0
  4  3  1  0
  5  6  1  6
  7 11  1  0
  7  5  1  0
  8  7  2  0
 10  9  1  6
 10 11  1  0
 12 10  1  0
 12 14  1  0
 13 12  2  0
 15 14  1  0
 15 16  1  1
 16 17  1  0
 18 15  1  0
 19 18  1  0
 20 18  2  0
M  END
$$$$
