MAC.pdb
     RDKit          3D

 20 19  0  0  1  0  0  0  0  0999 V2000
   13.5858  -14.4868  -14.9724 C   0  0  0  0  0  0  0  0  0  0  0  0
   14.6967  -13.1294  -15.4823 S   0  0  0  0  0  0  0  0  0  0  0  0
   16.3538  -13.5567  -14.9706 C   0  0  0  0  0  0  0  0  0  0  0  0
   17.3783  -12.5008  -15.2622 C   0  0  0  0  0  0  0  0  0  0  0  0
   17.7142  -12.3717  -16.7225 C   0  0  2  0  0  0  0  0  0  0  0  0
   18.2739  -13.5627  -17.2689 N   0  0  0  0  0  0  0  0  0  0  0  0
   18.5643  -11.1716  -16.8840 C   0  0  0  0  0  0  0  0  0  0  0  0
   19.7430  -11.2632  -16.4310 O   0  0  0  0  0  0  0  0  0  0  0  0
   18.6428   -8.0276  -18.7676 C   0  0  0  0  0  0  0  0  0  0  0  0
   19.1076   -8.8782  -17.5784 C   0  0  2  0  0  0  0  0  0  0  0  0
   18.1733   -9.9770  -17.4833 N   0  0  0  0  0  0  0  0  0  0  0  0
   19.1068   -8.0877  -16.3324 C   0  0  0  0  0  0  0  0  0  0  0  0
   18.0571   -7.8908  -15.6456 O   0  0  0  0  0  0  0  0  0  0  0  0
   20.3174   -7.5140  -15.8623 N   0  0  0  0  0  0  0  0  0  0  0  0
   20.3869   -6.7724  -14.6383 C   0  0  1  0  0  0  0  0  0  0  0  0
   21.7949   -6.6645  -14.1001 C   0  0  0  0  0  0  0  0  0  0  0  0
   22.3965   -8.3077  -13.6431 S   0  0  0  0  0  0  0  0  0  0  0  0
   19.8142   -5.4161  -14.8480 C   0  0  0  0  0  0  0  0  0  0  0  0
   19.1091   -4.7527  -13.8418 O   0  0  0  0  0  0  0  0  0  0  0  0
   19.9577   -4.8340  -15.9539 O   0  0  0  0  0  0  0  0  0  0  0  0
  2  1  1  0
  3  2  1  0
  4  5  1  0
  4  3  1  0
  5  6  1  1
  7 11  1  0
  7  5  1  0
  8  7  2  0
 10  9  1  6
 10 11  1  0
 12 10  1  0
 12 14  1  0
 13 12  2  0
 15 14  1  0
 15 16  1  6
 16 17  1  0
 18 15  1  0
 19 18  1  0
 20 18  2  0
M  END
$$$$
