HSF.pdb
     RDKit          3D

 28 29  0  0  1  0  0  0  0  0999 V2000
   25.6793  -23.2987  -16.6129 N   0  0  0  0  0  0  0  0  0  0  0  0
   25.2494  -23.3828  -15.2538 C   0  0  1  0  0  0  0  0  0  0  0  0
   25.5290  -24.7721  -14.7324 C   0  0  0  0  0  0  0  0  0  0  0  0
   24.6178  -25.7525  -15.3716 C   0  0  0  0  0  0  0  0  0  0  0  0
   24.9276  -26.8256  -16.1786 C   0  0  0  0  0  0  0  0  0  0  0  0
   23.7774  -27.4289  -16.5234 N   0  0  0  0  0  0  0  0  0  0  0  0
   22.7774  -26.7519  -15.9481 C   0  0  0  0  0  0  0  0  0  0  0  0
   23.2864  -25.7402  -15.2531 N   0  0  0  0  0  0  0  0  0  0  0  0
   25.9161  -22.3714  -14.3820 C   0  0  0  0  0  0  0  0  0  0  0  0
   27.0832  -22.0004  -14.5883 O   0  0  0  0  0  0  0  0  0  0  0  0
   23.4826  -20.0487  -11.9813 O   0  0  0  0  0  0  0  0  0  0  0  0
   24.7236  -19.5569  -12.4183 C   0  0  0  0  0  0  0  0  0  0  0  0
   25.6631  -20.7183  -12.4887 C   0  0  2  0  0  0  0  0  0  0  0  0
   25.2254  -21.8050  -13.2868 N   0  0  0  0  0  0  0  0  0  0  0  0
   26.0688  -21.2122  -11.1512 C   0  0  0  0  0  0  0  0  0  0  0  0
   25.5563  -22.2527  -10.7072 O   0  0  0  0  0  0  0  0  0  0  0  0
   27.0295  -20.5218  -10.3679 N   0  0  0  0  0  0  0  0  0  0  0  0
   27.1070  -20.6986   -8.9277 C   0  0  1  0  0  0  0  0  0  0  0  0
   28.0753  -19.7092   -8.3422 C   0  0  0  0  0  0  0  0  0  0  0  0
   28.1720  -19.7313   -6.8829 C   0  0  0  0  0  0  0  0  0  0  0  0
   28.8495  -20.7405   -6.2412 C   0  0  0  0  0  0  0  0  0  0  0  0
   28.9392  -20.7508   -4.8696 C   0  0  0  0  0  0  0  0  0  0  0  0
   28.3355  -19.7260   -4.1350 C   0  0  0  0  0  0  0  0  0  0  0  0
   27.6533  -18.7111   -4.7970 C   0  0  0  0  0  0  0  0  0  0  0  0
   27.5624  -18.6991   -6.1708 C   0  0  0  0  0  0  0  0  0  0  0  0
   25.7510  -20.6084   -8.3526 C   0  0  0  0  0  0  0  0  0  0  0  0
   25.3535  -21.4799   -7.5106 O   0  0  0  0  0  0  0  0  0  0  0  0
   24.8518  -19.6105   -8.6740 O   0  0  0  0  0  0  0  0  0  0  0  0
  2  9  1  0
  2  1  1  6
  3  2  1  0
  4  3  1  0
  5  4  2  0
  6  7  1  0
  6  5  1  0
  7  8  2  0
  8  4  1  0
  9 10  2  0
 12 11  1  0
 13 12  1  1
 14 13  1  0
 14  9  1  0
 15 13  1  0
 16 15  2  0
 17 15  1  0
 18 17  1  0
 18 19  1  1
 20 19  1  0
 21 20  2  0
 22 21  1  0
 23 24  1  0
 23 22  2  0
 24 25  2  0
 25 20  1  0
 26 18  1  0
 26 28  1  0
 27 26  2  0
M  END
$$$$
