HSF.pdb
     RDKit          3D

 28 29  0  0  1  0  0  0  0  0999 V2000
   19.6599  -14.6737  -19.8138 N   0  0  0  0  0  0  0  0  0  0  0  0
   19.7901  -13.9362  -18.5980 C   0  0  1  0  0  0  0  0  0  0  0  0
   21.0606  -14.3569  -17.8987 C   0  0  0  0  0  0  0  0  0  0  0  0
   20.9928  -15.7927  -17.5326 C   0  0  0  0  0  0  0  0  0  0  0  0
   21.6794  -16.8583  -18.0730 C   0  0  0  0  0  0  0  0  0  0  0  0
   21.2946  -17.9700  -17.4234 N   0  0  0  0  0  0  0  0  0  0  0  0
   20.3933  -17.6090  -16.5033 C   0  0  0  0  0  0  0  0  0  0  0  0
   20.2122  -16.2943  -16.5705 N   0  0  0  0  0  0  0  0  0  0  0  0
   19.8023  -12.4611  -18.8252 C   0  0  0  0  0  0  0  0  0  0  0  0
   20.7653  -11.8921  -19.3648 O   0  0  0  0  0  0  0  0  0  0  0  0
   17.3225   -8.4606  -19.4356 O   0  0  0  0  0  0  0  0  0  0  0  0
   17.2346   -9.8371  -19.1704 C   0  0  0  0  0  0  0  0  0  0  0  0
   18.5584  -10.2713  -18.6269 C   0  0  2  0  0  0  0  0  0  0  0  0
   18.7033  -11.6671  -18.4261 N   0  0  0  0  0  0  0  0  0  0  0  0
   18.9390   -9.5465  -17.3911 C   0  0  0  0  0  0  0  0  0  0  0  0
   18.5705   -9.9882  -16.2905 O   0  0  0  0  0  0  0  0  0  0  0  0
   19.7148   -8.3596  -17.4390 N   0  0  0  0  0  0  0  0  0  0  0  0
   20.0227   -7.6021  -16.2378 C   0  0  1  0  0  0  0  0  0  0  0  0
   21.4898   -7.7079  -15.9282 C   0  0  0  0  0  0  0  0  0  0  0  0
   21.9545   -6.8438  -14.8434 C   0  0  0  0  0  0  0  0  0  0  0  0
   21.9044   -7.2705  -13.5378 C   0  0  0  0  0  0  0  0  0  0  0  0
   22.3476   -6.4536  -12.5251 C   0  0  0  0  0  0  0  0  0  0  0  0
   22.8491   -5.1862  -12.8359 C   0  0  0  0  0  0  0  0  0  0  0  0
   22.8942   -4.7672  -14.1612 C   0  0  0  0  0  0  0  0  0  0  0  0
   22.4507   -5.5842  -15.1768 C   0  0  0  0  0  0  0  0  0  0  0  0
   19.5535   -6.2129  -16.4048 C   0  0  0  0  0  0  0  0  0  0  0  0
   19.4722   -5.7004  -17.5698 O   0  0  0  0  0  0  0  0  0  0  0  0
   19.1831   -5.4018  -15.3501 O   0  0  0  0  0  0  0  0  0  0  0  0
  2  9  1  0
  2  1  1  6
  3  2  1  0
  4  3  1  0
  5  4  2  0
  6  7  1  0
  6  5  1  0
  7  8  2  0
  8  4  1  0
  9 10  2  0
 12 11  1  0
 13 12  1  1
 14 13  1  0
 14  9  1  0
 15 13  1  0
 16 15  2  0
 17 15  1  0
 18 17  1  0
 18 19  1  6
 20 19  1  0
 21 20  2  0
 22 21  1  0
 23 24  1  0
 23 22  2  0
 24 25  2  0
 25 20  1  0
 26 18  1  0
 26 28  1  0
 27 26  2  0
M  END
$$$$
