HSF.pdb
     RDKit          3D

 28 29  0  0  1  0  0  0  0  0999 V2000
   25.6532  -19.7436  -18.8282 N   0  0  0  0  0  0  0  0  0  0  0  0
   25.6583  -19.1199  -17.5437 C   0  0  1  0  0  0  0  0  0  0  0  0
   24.4900  -18.1676  -17.4524 C   0  0  0  0  0  0  0  0  0  0  0  0
   24.6082  -17.1106  -18.4863 C   0  0  0  0  0  0  0  0  0  0  0  0
   25.6384  -16.2215  -18.7028 C   0  0  0  0  0  0  0  0  0  0  0  0
   25.3050  -15.4502  -19.7516 N   0  0  0  0  0  0  0  0  0  0  0  0
   24.1007  -15.8465  -20.1781 C   0  0  0  0  0  0  0  0  0  0  0  0
   23.6814  -16.8489  -19.4132 N   0  0  0  0  0  0  0  0  0  0  0  0
   25.5920  -20.1105  -16.4294 C   0  0  0  0  0  0  0  0  0  0  0  0
   24.5545  -20.7473  -16.1836 O   0  0  0  0  0  0  0  0  0  0  0  0
   28.8972  -20.6501  -13.6941 O   0  0  0  0  0  0  0  0  0  0  0  0
   28.1747  -21.7437  -14.1990 C   0  0  0  0  0  0  0  0  0  0  0  0
   26.8004  -21.2552  -14.5290 C   0  0  2  0  0  0  0  0  0  0  0  0
   26.7236  -20.3498  -15.6172 N   0  0  0  0  0  0  0  0  0  0  0  0
   26.0941  -20.6876  -13.3559 C   0  0  0  0  0  0  0  0  0  0  0  0
   25.8694  -19.4668  -13.3148 O   0  0  0  0  0  0  0  0  0  0  0  0
   25.6696  -21.5087  -12.2796 N   0  0  0  0  0  0  0  0  0  0  0  0
   25.1423  -20.9408  -11.0503 C   0  0  1  0  0  0  0  0  0  0  0  0
   26.0418  -19.8366  -10.5699 C   0  0  0  0  0  0  0  0  0  0  0  0
   26.9199  -20.1973   -9.4571 C   0  0  0  0  0  0  0  0  0  0  0  0
   26.6719  -19.7288   -8.1890 C   0  0  0  0  0  0  0  0  0  0  0  0
   27.4998  -20.0766   -7.1483 C   0  0  0  0  0  0  0  0  0  0  0  0
   28.5950  -20.9104   -7.3924 C   0  0  0  0  0  0  0  0  0  0  0  0
   28.8342  -21.3773   -8.6802 C   0  0  0  0  0  0  0  0  0  0  0  0
   28.0060  -21.0300   -9.7238 C   0  0  0  0  0  0  0  0  0  0  0  0
   23.7477  -20.5119  -11.2715 C   0  0  0  0  0  0  0  0  0  0  0  0
   23.3609  -20.1681  -12.4370 O   0  0  0  0  0  0  0  0  0  0  0  0
   22.7997  -20.4557  -10.2686 O   0  0  0  0  0  0  0  0  0  0  0  0
  2  9  1  0
  2  1  1  6
  3  2  1  0
  4  3  1  0
  5  4  2  0
  6  7  1  0
  6  5  1  0
  7  8  2  0
  8  4  1  0
  9 10  2  0
 12 11  1  0
 13 12  1  1
 14 13  1  0
 14  9  1  0
 15 13  1  0
 16 15  2  0
 17 15  1  0
 18 17  1  0
 18 19  1  6
 20 19  1  0
 21 20  2  0
 22 21  1  0
 23 24  1  0
 23 22  2  0
 24 25  2  0
 25 20  1  0
 26 18  1  0
 26 28  1  0
 27 26  2  0
M  END
$$$$
