HSF.pdb
     RDKit          3D

 28 29  0  0  1  0  0  0  0  0999 V2000
   18.6070  -11.2505  -18.0958 N   0  0  0  0  0  0  0  0  0  0  0  0
   18.6787  -11.3744  -16.6751 C   0  0  1  0  0  0  0  0  0  0  0  0
   19.9730  -12.0574  -16.3034 C   0  0  0  0  0  0  0  0  0  0  0  0
   19.9925  -13.4424  -16.8340 C   0  0  0  0  0  0  0  0  0  0  0  0
   20.9133  -14.0381  -17.6682 C   0  0  0  0  0  0  0  0  0  0  0  0
   20.5196  -15.3054  -17.8803 N   0  0  0  0  0  0  0  0  0  0  0  0
   19.3850  -15.4959  -17.1979 C   0  0  0  0  0  0  0  0  0  0  0  0
   19.0681  -14.3703  -16.5668 N   0  0  0  0  0  0  0  0  0  0  0  0
   18.5858  -10.0553  -15.9831 C   0  0  0  0  0  0  0  0  0  0  0  0
   19.4655   -9.1881  -16.1112 O   0  0  0  0  0  0  0  0  0  0  0  0
   15.0217   -9.0477  -13.9279 O   0  0  0  0  0  0  0  0  0  0  0  0
   15.8066   -8.0592  -14.5441 C   0  0  0  0  0  0  0  0  0  0  0  0
   17.2264   -8.5268  -14.5005 C   0  0  2  0  0  0  0  0  0  0  0  0
   17.4796   -9.7587  -15.1548 N   0  0  0  0  0  0  0  0  0  0  0  0
   17.7763   -8.5697  -13.1246 C   0  0  0  0  0  0  0  0  0  0  0  0
   17.7959   -9.6498  -12.5121 O   0  0  0  0  0  0  0  0  0  0  0  0
   18.2804   -7.4035  -12.4929 N   0  0  0  0  0  0  0  0  0  0  0  0
   18.8329   -7.4434  -11.1495 C   0  0  1  0  0  0  0  0  0  0  0  0
   20.3271   -7.5929  -11.2151 C   0  0  0  0  0  0  0  0  0  0  0  0
   20.9882   -6.7453  -12.2070 C   0  0  0  0  0  0  0  0  0  0  0  0
   21.5317   -7.2923  -13.3448 C   0  0  0  0  0  0  0  0  0  0  0  0
   22.1471   -6.4876  -14.2739 C   0  0  0  0  0  0  0  0  0  0  0  0
   22.2146   -5.1093  -14.0501 C   0  0  0  0  0  0  0  0  0  0  0  0
   21.6606   -4.5691  -12.8947 C   0  0  0  0  0  0  0  0  0  0  0  0
   21.0437   -5.3736  -11.9631 C   0  0  0  0  0  0  0  0  0  0  0  0
   18.3915   -6.2476  -10.4060 C   0  0  0  0  0  0  0  0  0  0  0  0
   17.8093   -5.2921  -11.0180 O   0  0  0  0  0  0  0  0  0  0  0  0
   18.5710   -6.0865   -9.0461 O   0  0  0  0  0  0  0  0  0  0  0  0
  2  9  1  0
  2  1  1  6
  3  2  1  0
  4  3  1  0
  5  4  2  0
  6  7  1  0
  6  5  1  0
  7  8  2  0
  8  4  1  0
  9 10  2  0
 12 11  1  0
 13 12  1  1
 14 13  1  0
 14  9  1  0
 15 13  1  0
 16 15  2  0
 17 15  1  0
 18 17  1  0
 18 19  1  6
 20 19  1  0
 21 20  2  0
 22 21  1  0
 23 24  1  0
 23 22  2  0
 24 25  2  0
 25 20  1  0
 26 18  1  0
 26 28  1  0
 27 26  2  0
M  END
$$$$
