HSF.pdb
     RDKit          3D

 28 29  0  0  1  0  0  0  0  0999 V2000
   16.5594  -10.8806  -18.3604 N   0  0  0  0  0  0  0  0  0  0  0  0
   17.6639  -10.9725  -17.4601 C   0  0  1  0  0  0  0  0  0  0  0  0
   18.8409  -11.5828  -18.1828 C   0  0  0  0  0  0  0  0  0  0  0  0
   18.5080  -12.9550  -18.6370 C   0  0  0  0  0  0  0  0  0  0  0  0
   18.5689  -14.1391  -17.9348 C   0  0  0  0  0  0  0  0  0  0  0  0
   18.1723  -15.1269  -18.7552 N   0  0  0  0  0  0  0  0  0  0  0  0
   17.8722  -14.5754  -19.9363 C   0  0  0  0  0  0  0  0  0  0  0  0
   18.0754  -13.2643  -19.8633 N   0  0  0  0  0  0  0  0  0  0  0  0
   18.0496   -9.6462  -16.8947 C   0  0  0  0  0  0  0  0  0  0  0  0
   18.3155   -8.6779  -17.6256 O   0  0  0  0  0  0  0  0  0  0  0  0
   18.5761   -9.1944  -12.7001 O   0  0  0  0  0  0  0  0  0  0  0  0
   17.9159   -8.1749  -13.4056 C   0  0  0  0  0  0  0  0  0  0  0  0
   18.3857   -8.2388  -14.8240 C   0  0  2  0  0  0  0  0  0  0  0  0
   18.1222   -9.4590  -15.4957 N   0  0  0  0  0  0  0  0  0  0  0  0
   19.8177   -7.8858  -14.9724 C   0  0  0  0  0  0  0  0  0  0  0  0
   20.6514   -8.7905  -15.1423 O   0  0  0  0  0  0  0  0  0  0  0  0
   20.2559   -6.5372  -14.9245 N   0  0  0  0  0  0  0  0  0  0  0  0
   21.6598   -6.1874  -15.0589 C   0  0  1  0  0  0  0  0  0  0  0  0
   22.0096   -6.0242  -16.5116 C   0  0  0  0  0  0  0  0  0  0  0  0
   23.3556   -5.5120  -16.7676 C   0  0  0  0  0  0  0  0  0  0  0  0
   24.4492   -6.3393  -16.6741 C   0  0  0  0  0  0  0  0  0  0  0  0
   25.7100   -5.8505  -16.9209 C   0  0  0  0  0  0  0  0  0  0  0  0
   25.8685   -4.5055  -17.2674 C   0  0  0  0  0  0  0  0  0  0  0  0
   24.7534   -3.6796  -17.3584 C   0  0  0  0  0  0  0  0  0  0  0  0
   23.4897   -4.1675  -17.1116 C   0  0  0  0  0  0  0  0  0  0  0  0
   21.9428   -4.9890  -14.2455 C   0  0  0  0  0  0  0  0  0  0  0  0
   21.0193   -4.1410  -14.0122 O   0  0  0  0  0  0  0  0  0  0  0  0
   23.1815   -4.7133  -13.7003 O   0  0  0  0  0  0  0  0  0  0  0  0
  2  9  1  0
  2  1  1  6
  3  2  1  0
  4  3  1  0
  5  4  2  0
  6  7  1  0
  6  5  1  0
  7  8  2  0
  8  4  1  0
  9 10  2  0
 12 11  1  0
 13 12  1  1
 14 13  1  0
 14  9  1  0
 15 13  1  0
 16 15  2  0
 17 15  1  0
 18 17  1  0
 18 19  1  6
 20 19  1  0
 21 20  2  0
 22 21  1  0
 23 24  1  0
 23 22  2  0
 24 25  2  0
 25 20  1  0
 26 18  1  0
 26 28  1  0
 27 26  2  0
M  END
$$$$
