HSF.pdb
     RDKit          3D

 28 29  0  0  1  0  0  0  0  0999 V2000
   24.2929  -19.8645  -15.3676 N   0  0  0  0  0  0  0  0  0  0  0  0
   24.4311  -19.5888  -13.9734 C   0  0  1  0  0  0  0  0  0  0  0  0
   23.0588  -19.4863  -13.3518 C   0  0  0  0  0  0  0  0  0  0  0  0
   22.2629  -18.4384  -14.0363 C   0  0  0  0  0  0  0  0  0  0  0  0
   22.5876  -17.1206  -14.2744 C   0  0  0  0  0  0  0  0  0  0  0  0
   21.5586  -16.5528  -14.9262 N   0  0  0  0  0  0  0  0  0  0  0  0
   20.6179  -17.4894  -15.0905 C   0  0  0  0  0  0  0  0  0  0  0  0
   21.0446  -18.6272  -14.5527 N   0  0  0  0  0  0  0  0  0  0  0  0
   25.2317  -20.6294  -13.2637 C   0  0  0  0  0  0  0  0  0  0  0  0
   24.7407  -21.7242  -12.9433 O   0  0  0  0  0  0  0  0  0  0  0  0
   29.2281  -19.9900  -13.1767 O   0  0  0  0  0  0  0  0  0  0  0  0
   28.8613  -21.3274  -12.9539 C   0  0  0  0  0  0  0  0  0  0  0  0
   27.4881  -21.3199  -12.3618 C   0  0  2  0  0  0  0  0  0  0  0  0
   26.5853  -20.3896  -12.9355 N   0  0  0  0  0  0  0  0  0  0  0  0
   27.4978  -21.1628  -10.8878 C   0  0  0  0  0  0  0  0  0  0  0  0
   28.5847  -21.1320  -10.2878 O   0  0  0  0  0  0  0  0  0  0  0  0
   26.2925  -21.0470  -10.1484 N   0  0  0  0  0  0  0  0  0  0  0  0
   26.2980  -20.8609   -8.7072 C   0  0  1  0  0  0  0  0  0  0  0  0
   27.1647  -19.6871   -8.3463 C   0  0  0  0  0  0  0  0  0  0  0  0
   27.7731  -19.7558   -7.0179 C   0  0  0  0  0  0  0  0  0  0  0  0
   29.1027  -20.0724   -6.8721 C   0  0  0  0  0  0  0  0  0  0  0  0
   29.6672  -20.1301   -5.6202 C   0  0  0  0  0  0  0  0  0  0  0  0
   28.8767  -19.8641   -4.4983 C   0  0  0  0  0  0  0  0  0  0  0  0
   27.5329  -19.5450   -4.6602 C   0  0  0  0  0  0  0  0  0  0  0  0
   26.9657  -19.4866   -5.9135 C   0  0  0  0  0  0  0  0  0  0  0  0
   24.9080  -20.7380   -8.2270 C   0  0  0  0  0  0  0  0  0  0  0  0
   24.0134  -20.2290   -8.9799 O   0  0  0  0  0  0  0  0  0  0  0  0
   24.4949  -21.1508   -6.9754 O   0  0  0  0  0  0  0  0  0  0  0  0
  2  9  1  0
  2  1  1  6
  3  2  1  0
  4  3  1  0
  5  4  2  0
  6  7  1  0
  6  5  1  0
  7  8  2  0
  8  4  1  0
  9 10  2  0
 12 11  1  0
 13 12  1  6
 14 13  1  0
 14  9  1  0
 15 13  1  0
 16 15  2  0
 17 15  1  0
 18 17  1  0
 18 19  1  6
 20 19  1  0
 21 20  2  0
 22 21  1  0
 23 24  1  0
 23 22  2  0
 24 25  2  0
 25 20  1  0
 26 18  1  0
 26 28  1  0
 27 26  2  0
M  END
$$$$
