HSF.pdb
     RDKit          3D

 28 29  0  0  1  0  0  0  0  0999 V2000
   26.2472  -35.2397   -5.0272 N   0  0  0  0  0  0  0  0  0  0  0  0
   27.1697  -34.3510   -4.3962 C   0  0  1  0  0  0  0  0  0  0  0  0
   26.6769  -32.9326   -4.5557 C   0  0  0  0  0  0  0  0  0  0  0  0
   26.7531  -32.5205   -5.9786 C   0  0  0  0  0  0  0  0  0  0  0  0
   27.7854  -32.6890   -6.8756 C   0  0  0  0  0  0  0  0  0  0  0  0
   27.4043  -32.1561   -8.0490 N   0  0  0  0  0  0  0  0  0  0  0  0
   26.1689  -31.6686   -7.8894 C   0  0  0  0  0  0  0  0  0  0  0  0
   25.7772  -31.8895   -6.6390 N   0  0  0  0  0  0  0  0  0  0  0  0
   27.3596  -34.6609   -2.9486 C   0  0  0  0  0  0  0  0  0  0  0  0
   26.4651  -34.4494   -2.1135 O   0  0  0  0  0  0  0  0  0  0  0  0
   31.1520  -35.8686   -1.6078 O   0  0  0  0  0  0  0  0  0  0  0  0
   30.0547  -36.5062   -1.0060 C   0  0  0  0  0  0  0  0  0  0  0  0
   28.8746  -35.6004   -1.1587 C   0  0  2  0  0  0  0  0  0  0  0  0
   28.5782  -35.2096   -2.4887 N   0  0  0  0  0  0  0  0  0  0  0  0
   28.9535  -34.4010   -0.2912 C   0  0  0  0  0  0  0  0  0  0  0  0
   29.3840  -33.3367   -0.7647 O   0  0  0  0  0  0  0  0  0  0  0  0
   28.5480  -34.4431    1.0677 N   0  0  0  0  0  0  0  0  0  0  0  0
   28.6910  -33.2906    1.9412 C   0  0  1  0  0  0  0  0  0  0  0  0
   27.4109  -33.0569    2.6935 C   0  0  0  0  0  0  0  0  0  0  0  0
   26.4175  -32.2510    1.9840 C   0  0  0  0  0  0  0  0  0  0  0  0
   26.3159  -32.3109    0.6146 C   0  0  0  0  0  0  0  0  0  0  0  0
   25.3764  -31.5534   -0.0435 C   0  0  0  0  0  0  0  0  0  0  0  0
   24.5266  -30.7229    0.6929 C   0  0  0  0  0  0  0  0  0  0  0  0
   24.6403  -30.6721    2.0779 C   0  0  0  0  0  0  0  0  0  0  0  0
   25.5807  -31.4301    2.7388 C   0  0  0  0  0  0  0  0  0  0  0  0
   29.8628  -33.4858    2.8167 C   0  0  0  0  0  0  0  0  0  0  0  0
   30.3193  -34.6586    3.0232 O   0  0  0  0  0  0  0  0  0  0  0  0
   30.5222  -32.4502    3.4494 O   0  0  0  0  0  0  0  0  0  0  0  0
  2  9  1  0
  2  1  1  1
  3  2  1  0
  4  3  1  0
  5  4  2  0
  6  7  1  0
  6  5  1  0
  7  8  2  0
  8  4  1  0
  9 10  2  0
 12 11  1  0
 13 12  1  6
 14 13  1  0
 14  9  1  0
 15 13  1  0
 16 15  2  0
 17 15  1  0
 18 17  1  0
 18 19  1  1
 20 19  1  0
 21 20  2  0
 22 21  1  0
 23 24  1  0
 23 22  2  0
 24 25  2  0
 25 20  1  0
 26 18  1  0
 26 28  1  0
 27 26  2  0
M  END
$$$$
