HSF.pdb
     RDKit          3D

 28 29  0  0  1  0  0  0  0  0999 V2000
   25.9339  -13.4344  -19.8809 N   0  0  0  0  0  0  0  0  0  0  0  0
   26.6281  -12.3801  -19.2136 C   0  0  1  0  0  0  0  0  0  0  0  0
   27.1545  -11.4071  -20.2414 C   0  0  0  0  0  0  0  0  0  0  0  0
   28.1172  -12.0853  -21.1433 C   0  0  0  0  0  0  0  0  0  0  0  0
   29.4748  -12.2617  -20.9869 C   0  0  0  0  0  0  0  0  0  0  0  0
   29.9302  -12.9343  -22.0576 N   0  0  0  0  0  0  0  0  0  0  0  0
   28.8865  -13.1713  -22.8600 C   0  0  0  0  0  0  0  0  0  0  0  0
   27.7928  -12.6581  -22.3066 N   0  0  0  0  0  0  0  0  0  0  0  0
   25.7637  -11.6609  -18.2322 C   0  0  0  0  0  0  0  0  0  0  0  0
   24.6160  -11.2872  -18.5247 O   0  0  0  0  0  0  0  0  0  0  0  0
   27.5511  -10.2590  -14.7315 O   0  0  0  0  0  0  0  0  0  0  0  0
   26.2045  -10.6311  -14.5864 C   0  0  0  0  0  0  0  0  0  0  0  0
   25.5846  -10.5991  -15.9469 C   0  0  2  0  0  0  0  0  0  0  0  0
   26.2377  -11.3847  -16.9296 N   0  0  0  0  0  0  0  0  0  0  0  0
   25.3885   -9.2214  -16.4578 C   0  0  0  0  0  0  0  0  0  0  0  0
   26.2983   -8.6794  -17.1065 O   0  0  0  0  0  0  0  0  0  0  0  0
   24.1844   -8.5093  -16.2214 N   0  0  0  0  0  0  0  0  0  0  0  0
   23.9767   -7.1695  -16.7444 C   0  0  1  0  0  0  0  0  0  0  0  0
   24.0574   -7.1881  -18.2452 C   0  0  0  0  0  0  0  0  0  0  0  0
   23.7290   -5.9197  -18.8957 C   0  0  0  0  0  0  0  0  0  0  0  0
   24.6017   -4.8591  -18.8428 C   0  0  0  0  0  0  0  0  0  0  0  0
   24.2869   -3.6724  -19.4609 C   0  0  0  0  0  0  0  0  0  0  0  0
   23.0721   -3.5552  -20.1427 C   0  0  0  0  0  0  0  0  0  0  0  0
   22.1985   -4.6362  -20.1883 C   0  0  0  0  0  0  0  0  0  0  0  0
   22.5122   -5.8257  -19.5698 C   0  0  0  0  0  0  0  0  0  0  0  0
   22.7003   -6.6381  -16.2285 C   0  0  0  0  0  0  0  0  0  0  0  0
   21.7121   -7.4209  -16.0361 O   0  0  0  0  0  0  0  0  0  0  0  0
   22.4953   -5.3055  -15.9289 O   0  0  0  0  0  0  0  0  0  0  0  0
  2  9  1  0
  2  1  1  6
  3  2  1  0
  4  3  1  0
  5  4  2  0
  6  7  1  0
  6  5  1  0
  7  8  2  0
  8  4  1  0
  9 10  2  0
 12 11  1  0
 13 12  1  1
 14 13  1  0
 14  9  1  0
 15 13  1  0
 16 15  2  0
 17 15  1  0
 18 17  1  0
 18 19  1  6
 20 19  1  0
 21 20  2  0
 22 21  1  0
 23 24  1  0
 23 22  2  0
 24 25  2  0
 25 20  1  0
 26 18  1  0
 26 28  1  0
 27 26  2  0
M  END
$$$$
