HSF.pdb
     RDKit          3D

 28 29  0  0  1  0  0  0  0  0999 V2000
   23.5095  -22.8278  -15.9246 N   0  0  0  0  0  0  0  0  0  0  0  0
   23.4576  -22.0198  -14.7484 C   0  0  1  0  0  0  0  0  0  0  0  0
   22.3131  -22.4846  -13.8800 C   0  0  0  0  0  0  0  0  0  0  0  0
   21.0194  -22.2410  -14.5634 C   0  0  0  0  0  0  0  0  0  0  0  0
   20.1060  -23.1555  -15.0413 C   0  0  0  0  0  0  0  0  0  0  0  0
   19.0832  -22.4731  -15.5838 N   0  0  0  0  0  0  0  0  0  0  0  0
   19.3502  -21.1694  -15.4485 C   0  0  0  0  0  0  0  0  0  0  0  0
   20.5193  -21.0310  -14.8324 N   0  0  0  0  0  0  0  0  0  0  0  0
   24.7315  -22.0619  -13.9718 C   0  0  0  0  0  0  0  0  0  0  0  0
   25.2912  -23.1353  -13.6946 O   0  0  0  0  0  0  0  0  0  0  0  0
   26.5554  -18.4224  -12.8545 O   0  0  0  0  0  0  0  0  0  0  0  0
   27.3677  -19.5461  -13.0791 C   0  0  0  0  0  0  0  0  0  0  0  0
   26.5419  -20.7581  -12.7868 C   0  0  2  0  0  0  0  0  0  0  0  0
   25.3383  -20.8651  -13.5281 N   0  0  0  0  0  0  0  0  0  0  0  0
   26.2553  -20.9245  -11.3420 C   0  0  0  0  0  0  0  0  0  0  0  0
   25.0750  -20.9759  -10.9592 O   0  0  0  0  0  0  0  0  0  0  0  0
   27.3002  -21.0263  -10.3876 N   0  0  0  0  0  0  0  0  0  0  0  0
   27.0240  -21.1771   -8.9690 C   0  0  1  0  0  0  0  0  0  0  0  0
   28.3143  -21.2522   -8.2017 C   0  0  0  0  0  0  0  0  0  0  0  0
   28.3041  -20.5656   -6.9102 C   0  0  0  0  0  0  0  0  0  0  0  0
   27.8260  -19.2813   -6.8037 C   0  0  0  0  0  0  0  0  0  0  0  0
   27.8160  -18.6453   -5.5852 C   0  0  0  0  0  0  0  0  0  0  0  0
   28.2961  -19.3168   -4.4570 C   0  0  0  0  0  0  0  0  0  0  0  0
   28.7769  -20.6160   -4.5790 C   0  0  0  0  0  0  0  0  0  0  0  0
   28.7876  -21.2546   -5.7988 C   0  0  0  0  0  0  0  0  0  0  0  0
   26.1372  -20.0835   -8.5269 C   0  0  0  0  0  0  0  0  0  0  0  0
   26.3002  -18.9035   -8.9823 O   0  0  0  0  0  0  0  0  0  0  0  0
   25.1071  -20.2559   -7.6231 O   0  0  0  0  0  0  0  0  0  0  0  0
  2  9  1  0
  2  1  1  6
  3  2  1  0
  4  3  1  0
  5  4  2  0
  6  7  1  0
  6  5  1  0
  7  8  2  0
  8  4  1  0
  9 10  2  0
 12 11  1  0
 13 12  1  1
 14 13  1  0
 14  9  1  0
 15 13  1  0
 16 15  2  0
 17 15  1  0
 18 17  1  0
 18 19  1  1
 20 19  1  0
 21 20  2  0
 22 21  1  0
 23 24  1  0
 23 22  2  0
 24 25  2  0
 25 20  1  0
 26 18  1  0
 26 28  1  0
 27 26  2  0
M  END
$$$$
