HSF.pdb
     RDKit          3D

 28 29  0  0  1  0  0  0  0  0999 V2000
   25.1649  -14.2797  -21.1202 N   0  0  0  0  0  0  0  0  0  0  0  0
   24.2246  -13.8882  -20.1194 C   0  0  1  0  0  0  0  0  0  0  0  0
   24.5486  -14.6044  -18.8301 C   0  0  0  0  0  0  0  0  0  0  0  0
   24.3173  -16.0617  -18.9812 C   0  0  0  0  0  0  0  0  0  0  0  0
   23.8220  -16.7528  -20.0656 C   0  0  0  0  0  0  0  0  0  0  0  0
   23.7889  -18.0573  -19.7442 N   0  0  0  0  0  0  0  0  0  0  0  0
   24.2503  -18.1775  -18.4945 C   0  0  0  0  0  0  0  0  0  0  0  0
   24.5689  -16.9719  -18.0353 N   0  0  0  0  0  0  0  0  0  0  0  0
   24.2170  -12.4134  -19.8909 C   0  0  0  0  0  0  0  0  0  0  0  0
   25.2500  -11.7318  -19.9950 O   0  0  0  0  0  0  0  0  0  0  0  0
   20.5145  -10.3782  -19.4762 O   0  0  0  0  0  0  0  0  0  0  0  0
   21.6437   -9.7698  -20.0486 C   0  0  0  0  0  0  0  0  0  0  0  0
   22.8491  -10.3515  -19.3815 C   0  0  2  0  0  0  0  0  0  0  0  0
   23.0180  -11.7494  -19.5460 N   0  0  0  0  0  0  0  0  0  0  0  0
   22.9350  -10.0036  -17.9432 C   0  0  0  0  0  0  0  0  0  0  0  0
   22.4695  -10.7879  -17.1001 O   0  0  0  0  0  0  0  0  0  0  0  0
   23.5372   -8.7945  -17.5093 N   0  0  0  0  0  0  0  0  0  0  0  0
   23.6086   -8.4415  -16.1015 C   0  0  1  0  0  0  0  0  0  0  0  0
   25.0288   -8.1241  -15.7251 C   0  0  0  0  0  0  0  0  0  0  0  0
   25.9729   -9.2283  -15.8951 C   0  0  0  0  0  0  0  0  0  0  0  0
   25.9354  -10.3169  -15.0568 C   0  0  0  0  0  0  0  0  0  0  0  0
   26.8236  -11.3522  -15.2268 C   0  0  0  0  0  0  0  0  0  0  0  0
   27.7638  -11.2868  -16.2592 C   0  0  0  0  0  0  0  0  0  0  0  0
   27.7906  -10.1794  -17.1000 C   0  0  0  0  0  0  0  0  0  0  0  0
   26.9017   -9.1416  -16.9313 C   0  0  0  0  0  0  0  0  0  0  0  0
   22.6651   -7.3405  -15.8273 C   0  0  0  0  0  0  0  0  0  0  0  0
   22.4510   -6.9648  -14.6276 O   0  0  0  0  0  0  0  0  0  0  0  0
   21.9746   -6.6651  -16.8146 O   0  0  0  0  0  0  0  0  0  0  0  0
  2  9  1  0
  2  1  1  6
  3  2  1  0
  4  3  1  0
  5  4  2  0
  6  7  1  0
  6  5  1  0
  7  8  2  0
  8  4  1  0
  9 10  2  0
 12 11  1  0
 13 12  1  1
 14 13  1  0
 14  9  1  0
 15 13  1  0
 16 15  2  0
 17 15  1  0
 18 17  1  0
 18 19  1  6
 20 19  1  0
 21 20  2  0
 22 21  1  0
 23 24  1  0
 23 22  2  0
 24 25  2  0
 25 20  1  0
 26 18  1  0
 26 28  1  0
 27 26  2  0
M  END
$$$$
