HSF.pdb
     RDKit          3D

 28 29  0  0  1  0  0  0  0  0999 V2000
   22.6339  -33.0017   -8.4605 N   0  0  0  0  0  0  0  0  0  0  0  0
   23.8627  -33.2856   -7.7907 C   0  0  1  0  0  0  0  0  0  0  0  0
   24.9635  -32.4541   -8.4046 C   0  0  0  0  0  0  0  0  0  0  0  0
   25.2252  -32.8970   -9.7958 C   0  0  0  0  0  0  0  0  0  0  0  0
   24.6009  -33.8880  -10.5218 C   0  0  0  0  0  0  0  0  0  0  0  0
   25.1725  -33.9323  -11.7372 N   0  0  0  0  0  0  0  0  0  0  0  0
   26.1269  -32.9955  -11.7695 C   0  0  0  0  0  0  0  0  0  0  0  0
   26.1574  -32.3715  -10.5968 N   0  0  0  0  0  0  0  0  0  0  0  0
   23.7863  -33.0202   -6.3239 C   0  0  0  0  0  0  0  0  0  0  0  0
   23.0938  -32.0979   -5.8631 O   0  0  0  0  0  0  0  0  0  0  0  0
   23.5873  -35.8855   -3.5093 O   0  0  0  0  0  0  0  0  0  0  0  0
   23.2985  -34.5164   -3.3856 C   0  0  0  0  0  0  0  0  0  0  0  0
   24.4363  -33.7642   -3.9989 C   0  0  2  0  0  0  0  0  0  0  0  0
   24.5099  -33.8231   -5.4134 N   0  0  0  0  0  0  0  0  0  0  0  0
   25.7489  -34.1288   -3.4146 C   0  0  0  0  0  0  0  0  0  0  0  0
   26.4008  -35.0579   -3.9188 O   0  0  0  0  0  0  0  0  0  0  0  0
   26.2759  -33.4395   -2.2921 N   0  0  0  0  0  0  0  0  0  0  0  0
   27.5575  -33.8002   -1.7097 C   0  0  1  0  0  0  0  0  0  0  0  0
   28.0956  -32.6502   -0.9052 C   0  0  0  0  0  0  0  0  0  0  0  0
   27.2726  -32.2604    0.2395 C   0  0  0  0  0  0  0  0  0  0  0  0
   26.1703  -31.4574    0.0683 C   0  0  0  0  0  0  0  0  0  0  0  0
   25.3999  -31.0999    1.1491 C   0  0  0  0  0  0  0  0  0  0  0  0
   25.7483  -31.5604    2.4222 C   0  0  0  0  0  0  0  0  0  0  0  0
   26.8661  -32.3723    2.5810 C   0  0  0  0  0  0  0  0  0  0  0  0
   27.6389  -32.7315    1.4996 C   0  0  0  0  0  0  0  0  0  0  0  0
   27.4054  -35.0448   -0.9316 C   0  0  0  0  0  0  0  0  0  0  0  0
   26.2432  -35.5117   -0.6916 O   0  0  0  0  0  0  0  0  0  0  0  0
   28.4718  -35.7639   -0.4283 O   0  0  0  0  0  0  0  0  0  0  0  0
  2  9  1  0
  2  1  1  6
  3  2  1  0
  4  3  1  0
  5  4  2  0
  6  7  1  0
  6  5  1  0
  7  8  2  0
  8  4  1  0
  9 10  2  0
 12 11  1  0
 13 12  1  1
 14 13  1  0
 14  9  1  0
 15 13  1  0
 16 15  2  0
 17 15  1  0
 18 17  1  0
 18 19  1  1
 20 19  1  0
 21 20  2  0
 22 21  1  0
 23 24  1  0
 23 22  2  0
 24 25  2  0
 25 20  1  0
 26 18  1  0
 26 28  1  0
 27 26  2  0
M  END
$$$$
