HSF.pdb
     RDKit          3D

 28 29  0  0  1  0  0  0  0  0999 V2000
   20.0461  -12.4648  -19.1654 N   0  0  0  0  0  0  0  0  0  0  0  0
   20.0485  -11.7110  -17.9527 C   0  0  1  0  0  0  0  0  0  0  0  0
   21.0671  -12.3005  -17.0067 C   0  0  0  0  0  0  0  0  0  0  0  0
   20.6781  -13.6815  -16.6302 C   0  0  0  0  0  0  0  0  0  0  0  0
   19.8012  -14.0989  -15.6526 C   0  0  0  0  0  0  0  0  0  0  0  0
   19.7652  -15.4421  -15.6760 N   0  0  0  0  0  0  0  0  0  0  0  0
   20.5959  -15.8520  -16.6409 C   0  0  0  0  0  0  0  0  0  0  0  0
   21.1462  -14.7880  -17.2160 N   0  0  0  0  0  0  0  0  0  0  0  0
   20.3462  -10.2664  -18.1807 C   0  0  0  0  0  0  0  0  0  0  0  0
   21.1820   -9.8975  -19.0221 O   0  0  0  0  0  0  0  0  0  0  0  0
   17.5103   -7.4541  -17.6007 O   0  0  0  0  0  0  0  0  0  0  0  0
   18.6897   -7.1961  -18.3187 C   0  0  0  0  0  0  0  0  0  0  0  0
   19.8099   -7.8691  -17.5916 C   0  0  2  0  0  0  0  0  0  0  0  0
   19.6749   -9.2715  -17.4344 N   0  0  0  0  0  0  0  0  0  0  0  0
   20.1013   -7.2449  -16.2791 C   0  0  0  0  0  0  0  0  0  0  0  0
   19.4935   -7.6400  -15.2707 O   0  0  0  0  0  0  0  0  0  0  0  0
   21.0593   -6.2063  -16.1504 N   0  0  0  0  0  0  0  0  0  0  0  0
   21.3151   -5.5600  -14.8743 C   0  0  1  0  0  0  0  0  0  0  0  0
   22.7268   -5.8332  -14.4364 C   0  0  0  0  0  0  0  0  0  0  0  0
   23.0797   -7.2496  -14.3427 C   0  0  0  0  0  0  0  0  0  0  0  0
   22.4996   -8.0544  -13.3915 C   0  0  0  0  0  0  0  0  0  0  0  0
   22.8338   -9.3854  -13.3137 C   0  0  0  0  0  0  0  0  0  0  0  0
   23.7683   -9.9115  -14.2104 C   0  0  0  0  0  0  0  0  0  0  0  0
   24.3476   -9.0860  -15.1679 C   0  0  0  0  0  0  0  0  0  0  0  0
   24.0139   -7.7525  -15.2474 C   0  0  0  0  0  0  0  0  0  0  0  0
   20.9992   -4.1227  -14.9847 C   0  0  0  0  0  0  0  0  0  0  0  0
   20.7257   -3.6129  -16.1212 O   0  0  0  0  0  0  0  0  0  0  0  0
   20.9779   -3.2621  -13.9047 O   0  0  0  0  0  0  0  0  0  0  0  0
  2  9  1  0
  2  1  1  6
  3  2  1  0
  4  3  1  0
  5  4  2  0
  6  7  1  0
  6  5  1  0
  7  8  2  0
  8  4  1  0
  9 10  2  0
 12 11  1  0
 13 12  1  1
 14 13  1  0
 14  9  1  0
 15 13  1  0
 16 15  2  0
 17 15  1  0
 18 17  1  0
 18 19  1  6
 20 19  1  0
 21 20  2  0
 22 21  1  0
 23 24  1  0
 23 22  2  0
 24 25  2  0
 25 20  1  0
 26 18  1  0
 26 28  1  0
 27 26  2  0
M  END
$$$$
