HSF.pdb
     RDKit          3D

 28 29  0  0  1  0  0  0  0  0999 V2000
   22.8679  -12.0051  -19.5098 N   0  0  0  0  0  0  0  0  0  0  0  0
   21.8616  -11.2913  -18.7909 C   0  0  1  0  0  0  0  0  0  0  0  0
   21.6725  -11.9331  -17.4373 C   0  0  0  0  0  0  0  0  0  0  0  0
   21.0989  -13.2924  -17.5901 C   0  0  0  0  0  0  0  0  0  0  0  0
   19.8472  -13.6600  -18.0339 C   0  0  0  0  0  0  0  0  0  0  0  0
   19.7756  -15.0017  -18.0034 N   0  0  0  0  0  0  0  0  0  0  0  0
   20.9492  -15.4590  -17.5532 C   0  0  0  0  0  0  0  0  0  0  0  0
   21.7470  -14.4259  -17.3042 N   0  0  0  0  0  0  0  0  0  0  0  0
   22.1977   -9.8468  -18.6235 C   0  0  0  0  0  0  0  0  0  0  0  0
   23.3226   -9.4781  -18.2479 O   0  0  0  0  0  0  0  0  0  0  0  0
   21.1743   -5.3362  -19.8055 O   0  0  0  0  0  0  0  0  0  0  0  0
   20.7242   -6.6634  -19.8994 C   0  0  0  0  0  0  0  0  0  0  0  0
   21.4318   -7.4494  -18.8421 C   0  0  2  0  0  0  0  0  0  0  0  0
   21.2306   -8.8518  -18.8923 N   0  0  0  0  0  0  0  0  0  0  0  0
   21.1537   -6.9534  -17.4732 C   0  0  0  0  0  0  0  0  0  0  0  0
   20.2085   -7.4403  -16.8315 O   0  0  0  0  0  0  0  0  0  0  0  0
   21.9440   -5.9348  -16.8809 N   0  0  0  0  0  0  0  0  0  0  0  0
   21.6593   -5.4275  -15.5493 C   0  0  1  0  0  0  0  0  0  0  0  0
   22.7732   -5.7995  -14.6111 C   0  0  0  0  0  0  0  0  0  0  0  0
   22.7884   -7.2028  -14.1984 C   0  0  0  0  0  0  0  0  0  0  0  0
   21.8934   -7.6678  -13.2646 C   0  0  0  0  0  0  0  0  0  0  0  0
   21.9119   -8.9890  -12.8861 C   0  0  0  0  0  0  0  0  0  0  0  0
   22.8488   -9.8538  -13.4595 C   0  0  0  0  0  0  0  0  0  0  0  0
   23.7484   -9.3700  -14.4032 C   0  0  0  0  0  0  0  0  0  0  0  0
   23.7313   -8.0469  -14.7836 C   0  0  0  0  0  0  0  0  0  0  0  0
   21.4117   -3.9746  -15.6246 C   0  0  0  0  0  0  0  0  0  0  0  0
   21.5805   -3.3527  -16.7251 O   0  0  0  0  0  0  0  0  0  0  0  0
   20.9949   -3.2159  -14.5484 O   0  0  0  0  0  0  0  0  0  0  0  0
  2  9  1  0
  2  1  1  1
  3  2  1  0
  4  3  1  0
  5  4  2  0
  6  7  1  0
  6  5  1  0
  7  8  2  0
  8  4  1  0
  9 10  2  0
 12 11  1  0
 13 12  1  6
 14 13  1  0
 14  9  1  0
 15 13  1  0
 16 15  2  0
 17 15  1  0
 18 17  1  0
 18 19  1  1
 20 19  1  0
 21 20  2  0
 22 21  1  0
 23 24  1  0
 23 22  2  0
 24 25  2  0
 25 20  1  0
 26 18  1  0
 26 28  1  0
 27 26  2  0
M  END
$$$$
