HSF.pdb
     RDKit          3D

 28 29  0  0  1  0  0  0  0  0999 V2000
   18.4307  -10.9127  -18.7558 N   0  0  0  0  0  0  0  0  0  0  0  0
   19.3270  -10.2561  -17.8588 C   0  0  1  0  0  0  0  0  0  0  0  0
   20.6717  -10.9407  -17.9149 C   0  0  0  0  0  0  0  0  0  0  0  0
   20.5470  -12.3520  -17.4758 C   0  0  0  0  0  0  0  0  0  0  0  0
   20.3681  -12.8514  -16.2040 C   0  0  0  0  0  0  0  0  0  0  0  0
   20.3104  -14.1913  -16.2906 N   0  0  0  0  0  0  0  0  0  0  0  0
   20.4493  -14.5194  -17.5799 C   0  0  0  0  0  0  0  0  0  0  0  0
   20.5920  -13.4080  -18.2941 N   0  0  0  0  0  0  0  0  0  0  0  0
   19.4845   -8.8052  -18.1717 C   0  0  0  0  0  0  0  0  0  0  0  0
   19.5582   -8.3944  -19.3414 O   0  0  0  0  0  0  0  0  0  0  0  0
   17.2186   -6.2406  -17.0675 O   0  0  0  0  0  0  0  0  0  0  0  0
   18.2957   -5.8794  -17.8934 C   0  0  0  0  0  0  0  0  0  0  0  0
   19.5369   -6.4428  -17.2783 C   0  0  2  0  0  0  0  0  0  0  0  0
   19.5542   -7.8526  -17.1301 N   0  0  0  0  0  0  0  0  0  0  0  0
   19.8825   -5.8004  -15.9879 C   0  0  0  0  0  0  0  0  0  0  0  0
   19.1904   -6.0414  -14.9853 O   0  0  0  0  0  0  0  0  0  0  0  0
   20.9866   -4.9167  -15.8739 N   0  0  0  0  0  0  0  0  0  0  0  0
   21.3724   -4.3408  -14.5968 C   0  0  1  0  0  0  0  0  0  0  0  0
   22.7452   -4.8186  -14.2140 C   0  0  0  0  0  0  0  0  0  0  0  0
   22.9084   -6.2720  -14.1938 C   0  0  0  0  0  0  0  0  0  0  0  0
   23.6852   -6.9026  -15.1362 C   0  0  0  0  0  0  0  0  0  0  0  0
   23.8367   -8.2685  -15.1069 C   0  0  0  0  0  0  0  0  0  0  0  0
   23.1937   -9.0086  -14.1104 C   0  0  0  0  0  0  0  0  0  0  0  0
   22.4108   -8.3578  -13.1632 C   0  0  0  0  0  0  0  0  0  0  0  0
   22.2580   -6.9898  -13.1909 C   0  0  0  0  0  0  0  0  0  0  0  0
   21.2584   -2.8713  -14.6712 C   0  0  0  0  0  0  0  0  0  0  0  0
   20.9829   -2.3060  -15.7806 O   0  0  0  0  0  0  0  0  0  0  0  0
   21.4352   -2.0374  -13.5845 O   0  0  0  0  0  0  0  0  0  0  0  0
  2  9  1  0
  2  1  1  6
  3  2  1  0
  4  3  1  0
  5  4  2  0
  6  7  1  0
  6  5  1  0
  7  8  2  0
  8  4  1  0
  9 10  2  0
 12 11  1  0
 13 12  1  1
 14 13  1  0
 14  9  1  0
 15 13  1  0
 16 15  2  0
 17 15  1  0
 18 17  1  0
 18 19  1  6
 20 19  1  0
 21 20  2  0
 22 21  1  0
 23 24  1  0
 23 22  2  0
 24 25  2  0
 25 20  1  0
 26 18  1  0
 26 28  1  0
 27 26  2  0
M  END
$$$$
