HSF.pdb
     RDKit          3D

 28 29  0  0  1  0  0  0  0  0999 V2000
   22.4233  -32.4761   -9.0330 N   0  0  0  0  0  0  0  0  0  0  0  0
   22.9740  -32.8749   -7.7774 C   0  0  1  0  0  0  0  0  0  0  0  0
   24.2297  -32.0789   -7.5135 C   0  0  0  0  0  0  0  0  0  0  0  0
   25.3540  -32.6129   -8.3204 C   0  0  0  0  0  0  0  0  0  0  0  0
   25.3697  -33.6910   -9.1784 C   0  0  0  0  0  0  0  0  0  0  0  0
   26.6094  -33.7970   -9.6862 N   0  0  0  0  0  0  0  0  0  0  0  0
   27.3472  -32.8129   -9.1603 C   0  0  0  0  0  0  0  0  0  0  0  0
   26.5879  -32.0990   -8.3360 N   0  0  0  0  0  0  0  0  0  0  0  0
   22.0129  -32.6922   -6.6502 C   0  0  0  0  0  0  0  0  0  0  0  0
   21.2697  -31.6997   -6.5810 O   0  0  0  0  0  0  0  0  0  0  0  0
   21.0037  -35.9796   -4.1726 O   0  0  0  0  0  0  0  0  0  0  0  0
   20.1430  -34.9123   -4.4775 C   0  0  0  0  0  0  0  0  0  0  0  0
   20.9802  -33.6762   -4.5652 C   0  0  2  0  0  0  0  0  0  0  0  0
   21.9254  -33.6576   -5.6216 N   0  0  0  0  0  0  0  0  0  0  0  0
   21.6533  -33.3451   -3.2867 C   0  0  0  0  0  0  0  0  0  0  0  0
   22.7762  -33.8203   -3.0509 O   0  0  0  0  0  0  0  0  0  0  0  0
   21.0422  -32.4972   -2.3271 N   0  0  0  0  0  0  0  0  0  0  0  0
   21.7041  -32.1590   -1.0784 C   0  0  1  0  0  0  0  0  0  0  0  0
   21.9305  -30.6748   -1.0052 C   0  0  0  0  0  0  0  0  0  0  0  0
   20.7133  -29.8640   -1.0265 C   0  0  0  0  0  0  0  0  0  0  0  0
   20.0549  -29.5584    0.1407 C   0  0  0  0  0  0  0  0  0  0  0  0
   18.9142  -28.7919    0.1116 C   0  0  0  0  0  0  0  0  0  0  0  0
   18.4313  -28.3271   -1.1151 C   0  0  0  0  0  0  0  0  0  0  0  0
   19.1073  -28.6437   -2.2884 C   0  0  0  0  0  0  0  0  0  0  0  0
   20.2501  -29.4113   -2.2612 C   0  0  0  0  0  0  0  0  0  0  0  0
   20.9165  -32.6922    0.0499 C   0  0  0  0  0  0  0  0  0  0  0  0
   21.3711  -32.6186    1.2391 O   0  0  0  0  0  0  0  0  0  0  0  0
   19.6781  -33.2855   -0.0984 O   0  0  0  0  0  0  0  0  0  0  0  0
  2  9  1  0
  2  1  1  6
  3  2  1  0
  4  3  1  0
  5  4  2  0
  6  7  1  0
  6  5  1  0
  7  8  2  0
  8  4  1  0
  9 10  2  0
 12 11  1  0
 13 12  1  1
 14 13  1  0
 14  9  1  0
 15 13  1  0
 16 15  2  0
 17 15  1  0
 18 17  1  0
 18 19  1  1
 20 19  1  0
 21 20  2  0
 22 21  1  0
 23 24  1  0
 23 22  2  0
 24 25  2  0
 25 20  1  0
 26 18  1  0
 26 28  1  0
 27 26  2  0
M  END
$$$$
