QMP.pdb
     RDKit          3D

 25 25  0  0  1  0  0  0  0  0999 V2000
    8.1286  -19.2030   20.7943 N   0  0  0  0  0  0  0  0  0  0  0  0
    8.2276  -20.4193   21.5146 C   0  0  0  0  0  0  0  0  0  0  0  0
    9.3448  -20.9621   21.6146 O   0  0  0  0  0  0  0  0  0  0  0  0
    6.9794  -20.9603   22.1018 C   0  0  0  0  0  0  0  0  0  0  0  0
    5.7705  -20.1060   21.7639 C   0  0  0  0  0  0  0  0  0  0  0  0
    5.3110  -19.4683   23.0413 C   0  0  2  0  0  0  0  0  0  0  0  0
    3.9291  -19.8146   23.2589 N   0  0  0  0  0  0  0  0  0  0  0  0
    5.5161  -17.9947   23.0645 C   0  0  0  0  0  0  0  0  0  0  0  0
    4.9187  -17.3196   22.2122 O   0  0  0  0  0  0  0  0  0  0  0  0
    7.4605  -11.4208   26.9349 C   0  0  0  0  0  0  0  0  0  0  0  0
    7.2097  -13.2051   27.0308 S   0  0  0  0  0  0  0  0  0  0  0  0
    7.2288  -13.9366   25.3304 C   0  0  0  0  0  0  0  0  0  0  0  0
    6.8626  -15.3753   25.3939 C   0  0  0  0  0  0  0  0  0  0  0  0
    6.8595  -16.0596   24.0261 C   0  0  2  0  0  0  0  0  0  0  0  0
    6.3669  -17.3952   24.0320 N   0  0  0  0  0  0  0  0  0  0  0  0
    8.0320  -15.7371   23.2708 C   0  0  0  0  0  0  0  0  0  0  0  0
    9.0837  -16.4541   23.4266 O   0  0  0  0  0  0  0  0  0  0  0  0
    8.1887  -14.6572   22.3127 N   0  0  0  0  0  0  0  0  0  0  0  0
    7.2828  -13.5445   22.1889 C   0  0  0  0  0  0  0  0  0  0  0  0
    7.5577  -13.0193   20.7857 C   0  0  0  0  0  0  0  0  0  0  0  0
    9.0182  -13.2883   20.5822 C   0  0  0  0  0  0  0  0  0  0  0  0
    9.2512  -14.5269   21.3594 C   0  0  1  0  0  0  0  0  0  0  0  0
   10.5861  -14.5390   22.0269 C   0  0  0  0  0  0  0  0  0  0  0  0
   10.6710  -14.4403   23.2597 O   0  0  0  0  0  0  0  0  0  0  0  0
   11.7136  -14.6606   21.2568 O   0  0  0  0  0  0  0  0  0  0  0  0
  1  2  1  0
  2  3  2  0
  4  5  1  0
  4  2  1  0
  6  5  1  0
  6  8  1  0
  6  7  1  6
  8  9  2  0
 11 10  1  0
 11 12  1  0
 12 13  1  0
 14 13  1  1
 15  8  1  0
 15 14  1  0
 16 14  1  0
 16 17  2  0
 18 16  1  0
 19 18  1  0
 20 19  1  0
 21 20  1  0
 21 22  1  0
 22 18  1  0
 22 23  1  1
 23 25  1  0
 24 23  2  0
M  END
$$$$
