QMP.pdb
     RDKit          3D

 25 25  0  0  1  0  0  0  0  0999 V2000
    8.7087  -14.3085   17.3992 N   0  0  0  0  0  0  0  0  0  0  0  0
    8.7279  -13.5843   18.6171 C   0  0  0  0  0  0  0  0  0  0  0  0
    8.2249  -12.4445   18.6394 O   0  0  0  0  0  0  0  0  0  0  0  0
    9.3528  -14.2457   19.7867 C   0  0  0  0  0  0  0  0  0  0  0  0
    8.7779  -15.6285   20.0372 C   0  0  0  0  0  0  0  0  0  0  0  0
    9.6040  -16.2596   21.1182 C   0  0  2  0  0  0  0  0  0  0  0  0
    9.1634  -17.6195   21.3012 N   0  0  0  0  0  0  0  0  0  0  0  0
    9.5734  -15.4978   22.3960 C   0  0  0  0  0  0  0  0  0  0  0  0
   10.5104  -14.7162   22.6195 O   0  0  0  0  0  0  0  0  0  0  0  0
    6.4599  -11.5417   27.8507 C   0  0  0  0  0  0  0  0  0  0  0  0
    6.4446  -12.3683   26.2468 S   0  0  0  0  0  0  0  0  0  0  0  0
    6.9967  -14.1248   26.4376 C   0  0  0  0  0  0  0  0  0  0  0  0
    7.0223  -14.7946   25.1115 C   0  0  0  0  0  0  0  0  0  0  0  0
    8.4324  -15.1588   24.6448 C   0  0  2  0  0  0  0  0  0  0  0  0
    8.5051  -15.6681   23.3174 N   0  0  0  0  0  0  0  0  0  0  0  0
    9.1906  -15.7804   25.6879 C   0  0  0  0  0  0  0  0  0  0  0  0
    9.3872  -17.0467   25.6380 O   0  0  0  0  0  0  0  0  0  0  0  0
    9.7887  -15.1338   26.8424 N   0  0  0  0  0  0  0  0  0  0  0  0
    9.5942  -13.7494   27.1884 C   0  0  0  0  0  0  0  0  0  0  0  0
   10.7785  -13.4420   28.0957 C   0  0  0  0  0  0  0  0  0  0  0  0
   11.0316  -14.7376   28.8058 C   0  0  0  0  0  0  0  0  0  0  0  0
   10.6475  -15.7590   27.8048 C   0  0  1  0  0  0  0  0  0  0  0  0
    9.9944  -16.9488   28.4256 C   0  0  0  0  0  0  0  0  0  0  0  0
    8.8093  -17.2140   28.1767 O   0  0  0  0  0  0  0  0  0  0  0  0
   10.7242  -17.7414   29.2730 O   0  0  0  0  0  0  0  0  0  0  0  0
  1  2  1  0
  2  3  2  0
  4  5  1  0
  4  2  1  0
  6  5  1  0
  6  8  1  0
  6  7  1  1
  8  9  2  0
 11 10  1  0
 11 12  1  0
 12 13  1  0
 14 13  1  1
 15  8  1  0
 15 14  1  0
 16 14  1  0
 16 17  2  0
 18 16  1  0
 19 18  1  0
 20 19  1  0
 21 20  1  0
 21 22  1  0
 22 18  1  0
 22 23  1  1
 23 25  1  0
 24 23  2  0
M  END
$$$$
