QMP.pdb
     RDKit          3D

 25 25  0  0  1  0  0  0  0  0999 V2000
    8.0651  -13.3166   18.3431 N   0  0  0  0  0  0  0  0  0  0  0  0
    8.4064  -14.6388   17.9643 C   0  0  0  0  0  0  0  0  0  0  0  0
    8.1878  -14.9965   16.7909 O   0  0  0  0  0  0  0  0  0  0  0  0
    9.0049  -15.5067   19.0056 C   0  0  0  0  0  0  0  0  0  0  0  0
    9.1363  -14.7933   20.3394 C   0  0  0  0  0  0  0  0  0  0  0  0
    9.2193  -15.8518   21.3987 C   0  0  2  0  0  0  0  0  0  0  0  0
    8.0271  -16.6592   21.3386 N   0  0  0  0  0  0  0  0  0  0  0  0
    9.4364  -15.2971   22.7622 C   0  0  0  0  0  0  0  0  0  0  0  0
   10.4992  -14.6926   22.9722 O   0  0  0  0  0  0  0  0  0  0  0  0
    6.4657  -10.8731   26.5011 C   0  0  0  0  0  0  0  0  0  0  0  0
    5.5798  -12.4097   26.1697 S   0  0  0  0  0  0  0  0  0  0  0  0
    6.5543  -13.4587   24.9964 C   0  0  0  0  0  0  0  0  0  0  0  0
    7.2018  -14.5749   25.7330 C   0  0  0  0  0  0  0  0  0  0  0  0
    8.5365  -15.0076   25.1244 C   0  0  2  0  0  0  0  0  0  0  0  0
    8.4554  -15.4603   23.7772 N   0  0  0  0  0  0  0  0  0  0  0  0
    9.3407  -15.7232   26.0682 C   0  0  0  0  0  0  0  0  0  0  0  0
    9.4712  -16.9917   25.9322 O   0  0  0  0  0  0  0  0  0  0  0  0
   10.0556  -15.1735   27.2064 N   0  0  0  0  0  0  0  0  0  0  0  0
   10.0220  -13.7866   27.5929 C   0  0  0  0  0  0  0  0  0  0  0  0
   11.2726  -13.6274   28.4478 C   0  0  0  0  0  0  0  0  0  0  0  0
   11.4227  -14.9613   29.1149 C   0  0  0  0  0  0  0  0  0  0  0  0
   10.8887  -15.9098   28.1110 C   0  0  1  0  0  0  0  0  0  0  0  0
   10.1452  -17.0432   28.7359 C   0  0  0  0  0  0  0  0  0  0  0  0
    8.9226  -17.1591   28.5671 O   0  0  0  0  0  0  0  0  0  0  0  0
   10.8343  -17.9512   29.4971 O   0  0  0  0  0  0  0  0  0  0  0  0
  1  2  1  0
  2  3  2  0
  4  5  1  0
  4  2  1  0
  6  5  1  0
  6  8  1  0
  6  7  1  1
  8  9  2  0
 11 10  1  0
 11 12  1  0
 12 13  1  0
 14 13  1  1
 15  8  1  0
 15 14  1  0
 16 14  1  0
 16 17  2  0
 18 16  1  0
 19 18  1  0
 20 19  1  0
 21 20  1  0
 21 22  1  0
 22 18  1  0
 22 23  1  1
 23 25  1  0
 24 23  2  0
M  END
$$$$
