QMP.pdb
     RDKit          3D

 25 25  0  0  1  0  0  0  0  0999 V2000
    6.0509  -20.0019   23.5723 N   0  0  0  0  0  0  0  0  0  0  0  0
    4.9516  -19.7398   22.7175 C   0  0  0  0  0  0  0  0  0  0  0  0
    3.8100  -20.0590   23.1017 O   0  0  0  0  0  0  0  0  0  0  0  0
    5.2465  -19.0978   21.4150 C   0  0  0  0  0  0  0  0  0  0  0  0
    6.6923  -18.6450   21.3142 C   0  0  0  0  0  0  0  0  0  0  0  0
    6.6736  -17.1796   20.9954 C   0  0  2  0  0  0  0  0  0  0  0  0
    6.9664  -17.0083   19.5948 N   0  0  0  0  0  0  0  0  0  0  0  0
    7.5977  -16.3848   21.8489 C   0  0  0  0  0  0  0  0  0  0  0  0
    8.7981  -16.3722   21.5360 O   0  0  0  0  0  0  0  0  0  0  0  0
    5.4366  -12.3095   26.8868 C   0  0  0  0  0  0  0  0  0  0  0  0
    7.2111  -12.0292   26.7179 S   0  0  0  0  0  0  0  0  0  0  0  0
    8.0163  -13.5193   25.9710 C   0  0  0  0  0  0  0  0  0  0  0  0
    7.2093  -14.0096   24.8237 C   0  0  0  0  0  0  0  0  0  0  0  0
    7.8809  -15.1479   24.0542 C   0  0  2  0  0  0  0  0  0  0  0  0
    7.1110  -15.6713   22.9772 N   0  0  0  0  0  0  0  0  0  0  0  0
    8.5768  -16.0404   24.9309 C   0  0  0  0  0  0  0  0  0  0  0  0
    7.8992  -16.7385   25.7666 O   0  0  0  0  0  0  0  0  0  0  0  0
   10.0100  -16.2643   24.9978 N   0  0  0  0  0  0  0  0  0  0  0  0
   10.9753  -15.5967   24.1633 C   0  0  0  0  0  0  0  0  0  0  0  0
   12.1934  -16.5086   24.2327 C   0  0  0  0  0  0  0  0  0  0  0  0
   12.1321  -17.0837   25.6156 C   0  0  0  0  0  0  0  0  0  0  0  0
   10.6793  -17.1643   25.8903 C   0  0  1  0  0  0  0  0  0  0  0  0
   10.3505  -16.8635   27.3148 C   0  0  0  0  0  0  0  0  0  0  0  0
    9.7387  -15.8268   27.6109 O   0  0  0  0  0  0  0  0  0  0  0  0
   10.7348  -17.7497   28.2873 O   0  0  0  0  0  0  0  0  0  0  0  0
  1  2  1  0
  2  3  2  0
  4  5  1  0
  4  2  1  0
  6  5  1  0
  6  8  1  0
  6  7  1  6
  8  9  2  0
 11 10  1  0
 11 12  1  0
 12 13  1  0
 14 13  1  1
 15  8  1  0
 15 14  1  0
 16 14  1  0
 16 17  2  0
 18 16  1  0
 19 18  1  0
 20 19  1  0
 21 20  1  0
 21 22  1  0
 22 18  1  0
 22 23  1  1
 23 25  1  0
 24 23  2  0
M  END
$$$$
