QMP.pdb
     RDKit          3D

 25 25  0  0  1  0  0  0  0  0999 V2000
   13.7941  -17.8817   20.3594 N   0  0  0  0  0  0  0  0  0  0  0  0
   12.8533  -17.0915   19.6533 C   0  0  0  0  0  0  0  0  0  0  0  0
   12.8634  -17.1257   18.4077 O   0  0  0  0  0  0  0  0  0  0  0  0
   11.9170  -16.2740   20.4599 C   0  0  0  0  0  0  0  0  0  0  0  0
   10.4673  -16.6497   20.2097 C   0  0  0  0  0  0  0  0  0  0  0  0
    9.9435  -17.2535   21.4787 C   0  0  2  0  0  0  0  0  0  0  0  0
    8.6164  -17.7598   21.2353 N   0  0  0  0  0  0  0  0  0  0  0  0
    9.9665  -16.3083   22.6276 C   0  0  0  0  0  0  0  0  0  0  0  0
   11.0666  -15.8464   22.9675 O   0  0  0  0  0  0  0  0  0  0  0  0
    5.8461  -11.4832   27.2158 C   0  0  0  0  0  0  0  0  0  0  0  0
    5.6352  -12.9840   26.2365 S   0  0  0  0  0  0  0  0  0  0  0  0
    7.2515  -13.8747   26.0920 C   0  0  0  0  0  0  0  0  0  0  0  0
    7.3103  -14.6116   24.8031 C   0  0  0  0  0  0  0  0  0  0  0  0
    8.6546  -15.2991   24.5601 C   0  0  2  0  0  0  0  0  0  0  0  0
    8.7664  -15.9558   23.3019 N   0  0  0  0  0  0  0  0  0  0  0  0
    9.1419  -15.9409   25.7433 C   0  0  0  0  0  0  0  0  0  0  0  0
    9.0513  -17.2168   25.8359 O   0  0  0  0  0  0  0  0  0  0  0  0
    9.7493  -15.3055   26.8992 N   0  0  0  0  0  0  0  0  0  0  0  0
    9.6382  -13.9027   27.2057 C   0  0  0  0  0  0  0  0  0  0  0  0
   10.8144  -13.6508   28.1402 C   0  0  0  0  0  0  0  0  0  0  0  0
   10.9602  -14.9414   28.8886 C   0  0  0  0  0  0  0  0  0  0  0  0
   10.5369  -15.9608   27.9015 C   0  0  1  0  0  0  0  0  0  0  0  0
    9.7884  -17.0883   28.5311 C   0  0  0  0  0  0  0  0  0  0  0  0
   10.3675  -17.8769   29.2922 O   0  0  0  0  0  0  0  0  0  0  0  0
    8.4540  -17.2370   28.2549 O   0  0  0  0  0  0  0  0  0  0  0  0
  1  2  1  0
  2  3  2  0
  4  5  1  0
  4  2  1  0
  6  5  1  0
  6  8  1  0
  6  7  1  6
  8  9  2  0
 11 10  1  0
 11 12  1  0
 12 13  1  0
 14 13  1  1
 15  8  1  0
 15 14  1  0
 16 14  1  0
 16 17  2  0
 18 16  1  0
 19 18  1  0
 20 19  1  0
 21 20  1  0
 21 22  1  0
 22 18  1  0
 22 23  1  1
 23 25  1  0
 24 23  2  0
M  END
$$$$
