QMP.pdb
     RDKit          3D

 25 25  0  0  1  0  0  0  0  0999 V2000
   14.1274  -18.7642   21.0234 N   0  0  0  0  0  0  0  0  0  0  0  0
   13.3033  -18.6713   19.8743 C   0  0  0  0  0  0  0  0  0  0  0  0
   13.7127  -19.1674   18.8070 O   0  0  0  0  0  0  0  0  0  0  0  0
   12.0007  -17.9826   20.0310 C   0  0  0  0  0  0  0  0  0  0  0  0
   11.7320  -17.5868   21.4720 C   0  0  0  0  0  0  0  0  0  0  0  0
   10.3794  -16.9398   21.5061 C   0  0  2  0  0  0  0  0  0  0  0  0
   10.1905  -16.2005   20.2836 N   0  0  0  0  0  0  0  0  0  0  0  0
   10.1738  -16.0799   22.7030 C   0  0  0  0  0  0  0  0  0  0  0  0
   11.0792  -15.2856   23.0000 O   0  0  0  0  0  0  0  0  0  0  0  0
    6.5096  -11.7553   27.4909 C   0  0  0  0  0  0  0  0  0  0  0  0
    6.7265  -12.5908   25.9063 S   0  0  0  0  0  0  0  0  0  0  0  0
    7.0020  -14.4007   26.1806 C   0  0  0  0  0  0  0  0  0  0  0  0
    7.2546  -15.0770   24.8819 C   0  0  0  0  0  0  0  0  0  0  0  0
    8.7058  -15.5266   24.7061 C   0  0  2  0  0  0  0  0  0  0  0  0
    8.9805  -16.1746   23.4687 N   0  0  0  0  0  0  0  0  0  0  0  0
    9.2464  -16.0554   25.9216 C   0  0  0  0  0  0  0  0  0  0  0  0
    9.1716  -17.3181   26.1330 O   0  0  0  0  0  0  0  0  0  0  0  0
    9.8940  -15.3141   26.9892 N   0  0  0  0  0  0  0  0  0  0  0  0
    9.8902  -13.8781   27.0981 C   0  0  0  0  0  0  0  0  0  0  0  0
   11.0766  -13.5895   28.0088 C   0  0  0  0  0  0  0  0  0  0  0  0
   11.1171  -14.7714   28.9299 C   0  0  0  0  0  0  0  0  0  0  0  0
   10.6221  -15.8824   28.0854 C   0  0  1  0  0  0  0  0  0  0  0  0
    9.7845  -16.8517   28.8512 C   0  0  0  0  0  0  0  0  0  0  0  0
    8.5755  -16.9676   28.6030 O   0  0  0  0  0  0  0  0  0  0  0  0
   10.3721  -17.6095   29.8307 O   0  0  0  0  0  0  0  0  0  0  0  0
  1  2  1  0
  2  3  2  0
  4  5  1  0
  4  2  1  0
  6  5  1  0
  6  8  1  0
  6  7  1  6
  8  9  2  0
 11 10  1  0
 11 12  1  0
 12 13  1  0
 14 13  1  1
 15  8  1  0
 15 14  1  0
 16 14  1  0
 16 17  2  0
 18 16  1  0
 19 18  1  0
 20 19  1  0
 21 20  1  0
 21 22  1  0
 22 18  1  0
 22 23  1  1
 23 25  1  0
 24 23  2  0
M  END
$$$$
