QMP.pdb
     RDKit          3D

 25 25  0  0  1  0  0  0  0  0999 V2000
    9.5132  -20.4501   26.8093 N   0  0  0  0  0  0  0  0  0  0  0  0
    9.6001  -20.1579   25.4254 C   0  0  0  0  0  0  0  0  0  0  0  0
   10.6766  -20.3774   24.8376 O   0  0  0  0  0  0  0  0  0  0  0  0
    8.3887  -19.6066   24.7740 C   0  0  0  0  0  0  0  0  0  0  0  0
    7.2848  -19.3118   25.7739 C   0  0  0  0  0  0  0  0  0  0  0  0
    6.0951  -18.8421   24.9906 C   0  0  2  0  0  0  0  0  0  0  0  0
    5.6205  -19.9312   24.1748 N   0  0  0  0  0  0  0  0  0  0  0  0
    6.3750  -17.6292   24.1755 C   0  0  0  0  0  0  0  0  0  0  0  0
    6.1710  -17.7004   22.9538 O   0  0  0  0  0  0  0  0  0  0  0  0
    5.6451  -11.1074   27.3317 C   0  0  0  0  0  0  0  0  0  0  0  0
    7.0685  -11.9213   26.5786 S   0  0  0  0  0  0  0  0  0  0  0  0
    6.5149  -13.4163   25.6377 C   0  0  0  0  0  0  0  0  0  0  0  0
    7.6915  -14.1138   25.0571 C   0  0  0  0  0  0  0  0  0  0  0  0
    7.3128  -15.2646   24.1238 C   0  0  2  0  0  0  0  0  0  0  0  0
    6.8575  -16.4399   24.7854 N   0  0  0  0  0  0  0  0  0  0  0  0
    8.2223  -15.3744   23.0237 C   0  0  0  0  0  0  0  0  0  0  0  0
    9.1416  -16.2674   23.0692 O   0  0  0  0  0  0  0  0  0  0  0  0
    8.2378  -14.5703   21.8146 N   0  0  0  0  0  0  0  0  0  0  0  0
    7.3285  -13.4852   21.5501 C   0  0  0  0  0  0  0  0  0  0  0  0
    7.3912  -13.3326   20.0359 C   0  0  0  0  0  0  0  0  0  0  0  0
    8.8032  -13.7042   19.6964 C   0  0  0  0  0  0  0  0  0  0  0  0
    9.1450  -14.7227   20.7154 C   0  0  1  0  0  0  0  0  0  0  0  0
   10.5652  -14.6264   21.1643 C   0  0  0  0  0  0  0  0  0  0  0  0
   10.8352  -14.2346   22.3089 O   0  0  0  0  0  0  0  0  0  0  0  0
   11.5633  -14.9772   20.2927 O   0  0  0  0  0  0  0  0  0  0  0  0
  1  2  1  0
  2  3  2  0
  4  5  1  0
  4  2  1  0
  6  5  1  0
  6  8  1  0
  6  7  1  6
  8  9  2  0
 11 10  1  0
 11 12  1  0
 12 13  1  0
 14 13  1  1
 15  8  1  0
 15 14  1  0
 16 14  1  0
 16 17  2  0
 18 16  1  0
 19 18  1  0
 20 19  1  0
 21 20  1  0
 21 22  1  0
 22 18  1  0
 22 23  1  1
 23 25  1  0
 24 23  2  0
M  END
$$$$
