QMP.pdb
     RDKit          3D

 25 25  0  0  1  0  0  0  0  0999 V2000
   10.2360  -20.6340   21.9584 N   0  0  0  0  0  0  0  0  0  0  0  0
   11.3335  -19.7383   21.9972 C   0  0  0  0  0  0  0  0  0  0  0  0
   12.4711  -20.2004   22.2091 O   0  0  0  0  0  0  0  0  0  0  0  0
   11.0412  -18.3020   21.7802 C   0  0  0  0  0  0  0  0  0  0  0  0
    9.5717  -18.0542   21.4898 C   0  0  0  0  0  0  0  0  0  0  0  0
    9.3856  -16.5689   21.3960 C   0  0  2  0  0  0  0  0  0  0  0  0
   10.3189  -16.0471   20.4300 N   0  0  0  0  0  0  0  0  0  0  0  0
    9.5146  -15.8806   22.7089 C   0  0  0  0  0  0  0  0  0  0  0  0
   10.6523  -15.5406   23.0681 O   0  0  0  0  0  0  0  0  0  0  0  0
    5.2564  -11.9154   25.6280 C   0  0  0  0  0  0  0  0  0  0  0  0
    6.7365  -12.2577   26.6016 S   0  0  0  0  0  0  0  0  0  0  0  0
    7.0149  -14.0849   26.7042 C   0  0  0  0  0  0  0  0  0  0  0  0
    6.9811  -14.6795   25.3429 C   0  0  0  0  0  0  0  0  0  0  0  0
    8.3547  -15.1333   24.8466 C   0  0  2  0  0  0  0  0  0  0  0  0
    8.3698  -15.6278   23.5118 N   0  0  0  0  0  0  0  0  0  0  0  0
    9.0855  -15.8203   25.8681 C   0  0  0  0  0  0  0  0  0  0  0  0
    9.1511  -17.1003   25.8260 O   0  0  0  0  0  0  0  0  0  0  0  0
    9.7897  -15.2284   26.9917 N   0  0  0  0  0  0  0  0  0  0  0  0
    9.7448  -13.8296   27.3316 C   0  0  0  0  0  0  0  0  0  0  0  0
   10.9889  -13.6340   28.1885 C   0  0  0  0  0  0  0  0  0  0  0  0
   11.1432  -14.9439   28.9006 C   0  0  0  0  0  0  0  0  0  0  0  0
   10.6216  -15.9287   27.9255 C   0  0  1  0  0  0  0  0  0  0  0  0
    9.8813  -17.0455   28.5832 C   0  0  0  0  0  0  0  0  0  0  0  0
    8.6688  -17.2003   28.3771 O   0  0  0  0  0  0  0  0  0  0  0  0
   10.5621  -17.8949   29.4163 O   0  0  0  0  0  0  0  0  0  0  0  0
  1  2  1  0
  2  3  2  0
  4  5  1  0
  4  2  1  0
  6  5  1  0
  6  8  1  0
  6  7  1  6
  8  9  2  0
 11 10  1  0
 11 12  1  0
 12 13  1  0
 14 13  1  1
 15  8  1  0
 15 14  1  0
 16 14  1  0
 16 17  2  0
 18 16  1  0
 19 18  1  0
 20 19  1  0
 21 20  1  0
 21 22  1  0
 22 18  1  0
 22 23  1  1
 23 25  1  0
 24 23  2  0
M  END
$$$$
