QMP.pdb
     RDKit          3D

 25 25  0  0  1  0  0  0  0  0999 V2000
    6.2270  -19.4810   22.2087 N   0  0  0  0  0  0  0  0  0  0  0  0
    6.9316  -19.7909   21.0189 C   0  0  0  0  0  0  0  0  0  0  0  0
    7.5528  -20.8695   20.9593 O   0  0  0  0  0  0  0  0  0  0  0  0
    6.8755  -18.7963   19.9220 C   0  0  0  0  0  0  0  0  0  0  0  0
    6.1484  -17.5290   20.3349 C   0  0  0  0  0  0  0  0  0  0  0  0
    7.1034  -16.3894   20.1385 C   0  0  2  0  0  0  0  0  0  0  0  0
    8.0089  -16.7252   19.0689 N   0  0  0  0  0  0  0  0  0  0  0  0
    7.8358  -16.0213   21.3804 C   0  0  0  0  0  0  0  0  0  0  0  0
    9.0573  -16.2363   21.4102 O   0  0  0  0  0  0  0  0  0  0  0  0
    7.4017  -11.4483   27.9031 C   0  0  0  0  0  0  0  0  0  0  0  0
    6.5515  -12.1103   26.4557 S   0  0  0  0  0  0  0  0  0  0  0  0
    7.5618  -13.4618   25.6945 C   0  0  0  0  0  0  0  0  0  0  0  0
    6.9091  -13.9420   24.4491 C   0  0  0  0  0  0  0  0  0  0  0  0
    7.7237  -15.0047   23.7101 C   0  0  2  0  0  0  0  0  0  0  0  0
    7.1504  -15.4455   22.4839 N   0  0  0  0  0  0  0  0  0  0  0  0
    8.2913  -15.9589   24.6138 C   0  0  0  0  0  0  0  0  0  0  0  0
    7.5050  -16.7195   25.2830 O   0  0  0  0  0  0  0  0  0  0  0  0
    9.7009  -16.1837   24.8807 N   0  0  0  0  0  0  0  0  0  0  0  0
   10.7699  -15.4164   24.2955 C   0  0  0  0  0  0  0  0  0  0  0  0
   11.9826  -16.3254   24.4490 C   0  0  0  0  0  0  0  0  0  0  0  0
   11.7176  -17.0637   25.7264 C   0  0  0  0  0  0  0  0  0  0  0  0
   10.2419  -17.1825   25.7550 C   0  0  1  0  0  0  0  0  0  0  0  0
    9.6861  -17.0573   27.1346 C   0  0  0  0  0  0  0  0  0  0  0  0
    8.9782  -16.0863   27.4390 O   0  0  0  0  0  0  0  0  0  0  0  0
    9.9704  -18.0307   28.0568 O   0  0  0  0  0  0  0  0  0  0  0  0
  1  2  1  0
  2  3  2  0
  4  5  1  0
  4  2  1  0
  6  5  1  0
  6  8  1  0
  6  7  1  6
  8  9  2  0
 11 10  1  0
 11 12  1  0
 12 13  1  0
 14 13  1  1
 15  8  1  0
 15 14  1  0
 16 14  1  0
 16 17  2  0
 18 16  1  0
 19 18  1  0
 20 19  1  0
 21 20  1  0
 21 22  1  0
 22 18  1  0
 22 23  1  1
 23 25  1  0
 24 23  2  0
M  END
$$$$
