GCQ.pdb
     RDKit          3D

 20 19  0  0  1  0  0  0  0  0999 V2000
    8.5128  -15.2070   20.5668 N   0  0  0  0  0  0  0  0  0  0  0  0
    7.3905  -15.1453   21.4827 C   0  0  0  0  0  0  0  0  0  0  0  0
    7.8565  -14.5609   22.7499 C   0  0  0  0  0  0  0  0  0  0  0  0
    9.0926  -14.5060   23.0186 O   0  0  0  0  0  0  0  0  0  0  0  0
    6.9621  -14.0304   23.7349 N   0  0  0  0  0  0  0  0  0  0  0  0
    7.4705  -13.5634   24.9802 C   0  0  1  0  0  0  0  0  0  0  0  0
    6.4357  -12.7277   25.6983 C   0  0  0  0  0  0  0  0  0  0  0  0
    6.9452  -12.2444   27.3459 S   0  0  0  0  0  0  0  0  0  0  0  0
    7.9050  -14.6596   25.8837 C   0  0  0  0  0  0  0  0  0  0  0  0
    7.1277  -15.6184   26.1234 O   0  0  0  0  0  0  0  0  0  0  0  0
   12.9853  -17.7297   25.6997 N   0  0  0  0  0  0  0  0  0  0  0  0
   12.6079  -16.4656   25.1244 C   0  0  0  0  0  0  0  0  0  0  0  0
   13.2483  -16.0408   24.1361 O   0  0  0  0  0  0  0  0  0  0  0  0
   11.4743  -15.7428   25.7451 C   0  0  0  0  0  0  0  0  0  0  0  0
   10.7939  -16.5070   26.8261 C   0  0  0  0  0  0  0  0  0  0  0  0
    9.6167  -15.7583   27.3943 C   0  0  2  0  0  0  0  0  0  0  0  0
    9.1783  -14.6903   26.5091 N   0  0  0  0  0  0  0  0  0  0  0  0
   10.1425  -15.1021   28.6479 C   0  0  0  0  0  0  0  0  0  0  0  0
   10.1532  -13.8570   28.7823 O   0  0  0  0  0  0  0  0  0  0  0  0
   10.6341  -15.8582   29.6989 O   0  0  0  0  0  0  0  0  0  0  0  0
  1  2  1  0
  3  4  2  0
  3  2  1  0
  5  3  1  0
  6  5  1  0
  7  8  1  0
  6  7  1  1
  9  6  1  0
  9 10  2  0
 11 12  1  0
 12 14  1  0
 13 12  2  0
 14 15  1  0
 16 17  1  0
 16 15  1  6
 17  9  1  0
 18 16  1  0
 19 18  2  0
 20 18  1  0
M  END
$$$$
