GCQ.pdb
     RDKit          3D

 20 19  0  0  1  0  0  0  0  0999 V2000
    7.5988  -15.5788   21.1352 N   0  0  0  0  0  0  0  0  0  0  0  0
    6.7089  -15.4984   22.2770 C   0  0  0  0  0  0  0  0  0  0  0  0
    7.4341  -14.8616   23.3873 C   0  0  0  0  0  0  0  0  0  0  0  0
    8.6944  -14.9511   23.4699 O   0  0  0  0  0  0  0  0  0  0  0  0
    6.7752  -14.1185   24.4195 N   0  0  0  0  0  0  0  0  0  0  0  0
    7.5174  -13.6389   25.5360 C   0  0  1  0  0  0  0  0  0  0  0  0
    6.6716  -12.7128   26.3797 C   0  0  0  0  0  0  0  0  0  0  0  0
    6.3233  -11.1520   25.5734 S   0  0  0  0  0  0  0  0  0  0  0  0
    8.0395  -14.7262   26.4030 C   0  0  0  0  0  0  0  0  0  0  0  0
    7.2903  -15.6823   26.7276 O   0  0  0  0  0  0  0  0  0  0  0  0
   13.1941  -19.5739   27.7831 N   0  0  0  0  0  0  0  0  0  0  0  0
   12.7245  -18.3609   27.1670 C   0  0  0  0  0  0  0  0  0  0  0  0
   13.2927  -17.9569   26.1272 O   0  0  0  0  0  0  0  0  0  0  0  0
   11.5875  -17.6630   27.8097 C   0  0  0  0  0  0  0  0  0  0  0  0
   11.0973  -16.4832   27.0458 C   0  0  0  0  0  0  0  0  0  0  0  0
    9.9081  -15.8357   27.7056 C   0  0  2  0  0  0  0  0  0  0  0  0
    9.3683  -14.7511   26.9002 N   0  0  0  0  0  0  0  0  0  0  0  0
   10.4549  -15.2152   28.9684 C   0  0  0  0  0  0  0  0  0  0  0  0
   10.8767  -15.9174   29.9157 O   0  0  0  0  0  0  0  0  0  0  0  0
   10.5096  -13.8401   29.1242 O   0  0  0  0  0  0  0  0  0  0  0  0
  1  2  1  0
  3  4  2  0
  3  2  1  0
  5  3  1  0
  6  5  1  0
  7  8  1  0
  6  7  1  1
  9  6  1  0
  9 10  2  0
 11 12  1  0
 12 14  1  0
 13 12  2  0
 14 15  1  0
 16 17  1  0
 16 15  1  6
 17  9  1  0
 18 16  1  0
 19 18  2  0
 20 18  1  0
M  END
$$$$
