GCQ.pdb
     RDKit          3D

 20 19  0  0  1  0  0  0  0  0999 V2000
    7.4427  -14.2702   19.8354 N   0  0  0  0  0  0  0  0  0  0  0  0
    6.5187  -14.0161   20.9234 C   0  0  0  0  0  0  0  0  0  0  0  0
    7.2894  -13.9090   22.1720 C   0  0  0  0  0  0  0  0  0  0  0  0
    8.5183  -14.2124   22.1993 O   0  0  0  0  0  0  0  0  0  0  0  0
    6.7110  -13.4654   23.4051 N   0  0  0  0  0  0  0  0  0  0  0  0
    7.5051  -13.4135   24.5858 C   0  0  1  0  0  0  0  0  0  0  0  0
    6.7952  -12.6374   25.6714 C   0  0  0  0  0  0  0  0  0  0  0  0
    7.7458  -12.5190   27.1847 S   0  0  0  0  0  0  0  0  0  0  0  0
    7.8562  -14.7563   25.1151 C   0  0  0  0  0  0  0  0  0  0  0  0
    6.9616  -15.6294   25.2504 O   0  0  0  0  0  0  0  0  0  0  0  0
   12.7912  -20.1296   24.6994 N   0  0  0  0  0  0  0  0  0  0  0  0
   12.3671  -18.7659   24.5208 C   0  0  0  0  0  0  0  0  0  0  0  0
   13.0098  -18.0358   23.7326 O   0  0  0  0  0  0  0  0  0  0  0  0
   11.1855  -18.3108   25.2886 C   0  0  0  0  0  0  0  0  0  0  0  0
   10.7680  -16.9161   24.9782 C   0  0  0  0  0  0  0  0  0  0  0  0
    9.5778  -16.4862   25.7954 C   0  0  2  0  0  0  0  0  0  0  0  0
    9.1757  -15.1226   25.4870 N   0  0  0  0  0  0  0  0  0  0  0  0
   10.0665  -16.4879   27.2236 C   0  0  0  0  0  0  0  0  0  0  0  0
   10.3284  -15.4235   27.8293 O   0  0  0  0  0  0  0  0  0  0  0  0
   10.2433  -17.6733   27.9178 O   0  0  0  0  0  0  0  0  0  0  0  0
  1  2  1  0
  3  4  2  0
  3  2  1  0
  5  3  1  0
  6  5  1  0
  7  8  1  0
  6  7  1  1
  9  6  1  0
  9 10  2  0
 11 12  1  0
 12 14  1  0
 13 12  2  0
 14 15  1  0
 16 17  1  0
 16 15  1  6
 17  9  1  0
 18 16  1  0
 19 18  2  0
 20 18  1  0
M  END
$$$$
