GCQ.pdb
     RDKit          3D

 20 19  0  0  1  0  0  0  0  0999 V2000
    7.5055  -14.7573   20.1393 N   0  0  0  0  0  0  0  0  0  0  0  0
    6.5691  -14.6470   21.2407 C   0  0  0  0  0  0  0  0  0  0  0  0
    7.3204  -14.2964   22.4559 C   0  0  0  0  0  0  0  0  0  0  0  0
    8.5568  -14.5537   22.5464 O   0  0  0  0  0  0  0  0  0  0  0  0
    6.7142  -13.6574   23.5856 N   0  0  0  0  0  0  0  0  0  0  0  0
    7.4696  -13.4460   24.7739 C   0  0  1  0  0  0  0  0  0  0  0  0
    6.6998  -12.5835   25.7478 C   0  0  0  0  0  0  0  0  0  0  0  0
    7.5808  -12.3000   27.2812 S   0  0  0  0  0  0  0  0  0  0  0  0
    7.8517  -14.7081   25.4576 C   0  0  0  0  0  0  0  0  0  0  0  0
    7.0016  -15.6229   25.6041 O   0  0  0  0  0  0  0  0  0  0  0  0
   12.8030  -19.9912   25.8634 N   0  0  0  0  0  0  0  0  0  0  0  0
   12.3792  -18.6615   25.5118 C   0  0  0  0  0  0  0  0  0  0  0  0
   13.0167  -18.0418   24.6302 O   0  0  0  0  0  0  0  0  0  0  0  0
   11.2042  -18.1076   26.2225 C   0  0  0  0  0  0  0  0  0  0  0  0
   10.7737  -16.7732   25.7227 C   0  0  0  0  0  0  0  0  0  0  0  0
    9.5905  -16.2375   26.4857 C   0  0  2  0  0  0  0  0  0  0  0  0
    9.1532  -14.9499   25.9688 N   0  0  0  0  0  0  0  0  0  0  0  0
   10.1067  -15.9973   27.8837 C   0  0  0  0  0  0  0  0  0  0  0  0
   10.3802  -14.8461   28.2940 O   0  0  0  0  0  0  0  0  0  0  0  0
   10.2968  -17.0476   28.7664 O   0  0  0  0  0  0  0  0  0  0  0  0
  1  2  1  0
  3  4  2  0
  3  2  1  0
  5  3  1  0
  6  5  1  0
  7  8  1  0
  6  7  1  1
  9  6  1  0
  9 10  2  0
 11 12  1  0
 12 14  1  0
 13 12  2  0
 14 15  1  0
 16 17  1  0
 16 15  1  6
 17  9  1  0
 18 16  1  0
 19 18  2  0
 20 18  1  0
M  END
$$$$
