GCQ.pdb
     RDKit          3D

 20 19  0  0  1  0  0  0  0  0999 V2000
    5.8729  -18.9224   23.5624 N   0  0  0  0  0  0  0  0  0  0  0  0
    5.8451  -18.0056   24.6852 C   0  0  0  0  0  0  0  0  0  0  0  0
    6.4654  -16.7391   24.2663 C   0  0  0  0  0  0  0  0  0  0  0  0
    7.0449  -16.6449   23.1446 O   0  0  0  0  0  0  0  0  0  0  0  0
    6.4524  -15.5617   25.0821 N   0  0  0  0  0  0  0  0  0  0  0  0
    7.0732  -14.3673   24.6181 C   0  0  1  0  0  0  0  0  0  0  0  0
    6.5370  -13.1651   25.3611 C   0  0  0  0  0  0  0  0  0  0  0  0
    6.3494  -13.4536   27.1187 S   0  0  0  0  0  0  0  0  0  0  0  0
    8.5525  -14.3861   24.7511 C   0  0  0  0  0  0  0  0  0  0  0  0
    9.2278  -13.3955   24.3719 O   0  0  0  0  0  0  0  0  0  0  0  0
    8.8917  -14.4301   29.0733 N   0  0  0  0  0  0  0  0  0  0  0  0
   10.2771  -14.8150   29.0118 C   0  0  0  0  0  0  0  0  0  0  0  0
   10.8027  -15.3296   30.0249 O   0  0  0  0  0  0  0  0  0  0  0  0
   10.9979  -14.5755   27.7406 C   0  0  0  0  0  0  0  0  0  0  0  0
   11.1151  -15.7839   26.8794 C   0  0  0  0  0  0  0  0  0  0  0  0
   10.7142  -15.5048   25.4544 C   0  0  2  0  0  0  0  0  0  0  0  0
    9.2684  -15.4840   25.2948 N   0  0  0  0  0  0  0  0  0  0  0  0
   11.2261  -16.6876   24.6685 C   0  0  0  0  0  0  0  0  0  0  0  0
   10.4469  -17.5340   24.1737 O   0  0  0  0  0  0  0  0  0  0  0  0
   12.5827  -16.8789   24.4660 O   0  0  0  0  0  0  0  0  0  0  0  0
  1  2  1  0
  3  4  2  0
  3  2  1  0
  5  3  1  0
  6  5  1  0
  7  8  1  0
  6  7  1  1
  9  6  1  0
  9 10  2  0
 11 12  1  0
 12 14  1  0
 13 12  2  0
 14 15  1  0
 16 17  1  0
 16 15  1  1
 17  9  1  0
 18 16  1  0
 19 18  2  0
 20 18  1  0
M  END
$$$$
