GCQ.pdb
     RDKit          3D

 20 19  0  0  1  0  0  0  0  0999 V2000
    5.4637  -19.6312   23.4083 N   0  0  0  0  0  0  0  0  0  0  0  0
    5.3754  -18.1959   23.5934 C   0  0  0  0  0  0  0  0  0  0  0  0
    6.5970  -17.5815   23.0507 C   0  0  0  0  0  0  0  0  0  0  0  0
    7.5759  -18.3002   22.6925 O   0  0  0  0  0  0  0  0  0  0  0  0
    6.7511  -16.1657   22.8974 N   0  0  0  0  0  0  0  0  0  0  0  0
    7.9748  -15.6324   22.4019 C   0  0  1  0  0  0  0  0  0  0  0  0
    7.7569  -14.2572   21.8135 C   0  0  0  0  0  0  0  0  0  0  0  0
    6.4521  -14.2180   20.5873 S   0  0  0  0  0  0  0  0  0  0  0  0
    9.0364  -15.5426   23.4370 C   0  0  0  0  0  0  0  0  0  0  0  0
    8.7225  -15.3707   24.6424 O   0  0  0  0  0  0  0  0  0  0  0  0
   10.2072  -16.8371   27.2953 N   0  0  0  0  0  0  0  0  0  0  0  0
   10.0713  -17.8897   26.3233 C   0  0  0  0  0  0  0  0  0  0  0  0
    8.9611  -18.4559   26.2029 O   0  0  0  0  0  0  0  0  0  0  0  0
   11.2657  -18.2376   25.5201 C   0  0  0  0  0  0  0  0  0  0  0  0
   11.2087  -17.7481   24.1155 C   0  0  0  0  0  0  0  0  0  0  0  0
   11.3947  -16.2558   24.0280 C   0  0  2  0  0  0  0  0  0  0  0  0
   10.4202  -15.6418   23.1393 N   0  0  0  0  0  0  0  0  0  0  0  0
   12.7499  -16.0703   23.3896 C   0  0  0  0  0  0  0  0  0  0  0  0
   13.8014  -16.0677   24.0699 O   0  0  0  0  0  0  0  0  0  0  0  0
   12.8784  -15.8956   22.0217 O   0  0  0  0  0  0  0  0  0  0  0  0
  1  2  1  0
  3  4  2  0
  3  2  1  0
  5  3  1  0
  6  5  1  0
  7  8  1  0
  6  7  1  1
  9  6  1  0
  9 10  2  0
 11 12  1  0
 12 14  1  0
 13 12  2  0
 14 15  1  0
 16 17  1  0
 16 15  1  6
 17  9  1  0
 18 16  1  0
 19 18  2  0
 20 18  1  0
M  END
$$$$
