GCQ.pdb
     RDKit          3D

 20 19  0  0  1  0  0  0  0  0999 V2000
    7.6089  -12.6737   20.3154 N   0  0  0  0  0  0  0  0  0  0  0  0
    6.6586  -13.1269   21.3123 C   0  0  0  0  0  0  0  0  0  0  0  0
    7.3568  -13.2393   22.6024 C   0  0  0  0  0  0  0  0  0  0  0  0
    8.6149  -13.3751   22.6450 O   0  0  0  0  0  0  0  0  0  0  0  0
    6.6728  -13.2030   23.8604 N   0  0  0  0  0  0  0  0  0  0  0  0
    7.3728  -13.5149   25.0605 C   0  0  1  0  0  0  0  0  0  0  0  0
    6.5494  -13.1377   26.2707 C   0  0  0  0  0  0  0  0  0  0  0  0
    6.2286  -11.3791   26.3800 S   0  0  0  0  0  0  0  0  0  0  0  0
    7.7428  -14.9495   25.1669 C   0  0  0  0  0  0  0  0  0  0  0  0
    6.8951  -15.8366   24.8922 O   0  0  0  0  0  0  0  0  0  0  0  0
   11.5758  -18.2561   22.2529 N   0  0  0  0  0  0  0  0  0  0  0  0
   12.0947  -18.6494   23.5365 C   0  0  0  0  0  0  0  0  0  0  0  0
   12.9437  -19.5683   23.5847 O   0  0  0  0  0  0  0  0  0  0  0  0
   11.5858  -17.9335   24.7286 C   0  0  0  0  0  0  0  0  0  0  0  0
   10.6360  -16.8330   24.4087 C   0  0  0  0  0  0  0  0  0  0  0  0
    9.5048  -16.7550   25.4004 C   0  0  2  0  0  0  0  0  0  0  0  0
    9.0295  -15.3907   25.5707 N   0  0  0  0  0  0  0  0  0  0  0  0
   10.1127  -17.1761   26.7164 C   0  0  0  0  0  0  0  0  0  0  0  0
   10.6019  -16.3407   27.5109 O   0  0  0  0  0  0  0  0  0  0  0  0
   10.1507  -18.5083   27.0931 O   0  0  0  0  0  0  0  0  0  0  0  0
  1  2  1  0
  3  4  2  0
  3  2  1  0
  5  3  1  0
  6  5  1  0
  7  8  1  0
  6  7  1  1
  9  6  1  0
  9 10  2  0
 11 12  1  0
 12 14  1  0
 13 12  2  0
 14 15  1  0
 16 17  1  0
 16 15  1  6
 17  9  1  0
 18 16  1  0
 19 18  2  0
 20 18  1  0
M  END
$$$$
