GCQ.pdb
     RDKit          3D

 20 19  0  0  1  0  0  0  0  0999 V2000
   10.3338  -17.2777   18.8786 N   0  0  0  0  0  0  0  0  0  0  0  0
    9.8703  -18.4137   19.6512 C   0  0  0  0  0  0  0  0  0  0  0  0
    9.2683  -17.9138   20.8970 C   0  0  0  0  0  0  0  0  0  0  0  0
    9.3405  -16.6869   21.2010 O   0  0  0  0  0  0  0  0  0  0  0  0
    8.5795  -18.7640   21.8214 N   0  0  0  0  0  0  0  0  0  0  0  0
    8.1119  -18.2383   23.0594 C   0  0  1  0  0  0  0  0  0  0  0  0
    6.9985  -19.0961   23.6155 C   0  0  0  0  0  0  0  0  0  0  0  0
    6.2979  -18.4414   25.1283 S   0  0  0  0  0  0  0  0  0  0  0  0
    9.1786  -18.1212   24.0864 C   0  0  0  0  0  0  0  0  0  0  0  0
   10.1588  -18.9084   24.0635 O   0  0  0  0  0  0  0  0  0  0  0  0
   10.6281  -14.1205   29.8821 N   0  0  0  0  0  0  0  0  0  0  0  0
   10.1466  -14.0738   28.5267 C   0  0  0  0  0  0  0  0  0  0  0  0
    9.3340  -13.1759   28.2090 O   0  0  0  0  0  0  0  0  0  0  0  0
   10.6495  -15.1011   27.5862 C   0  0  0  0  0  0  0  0  0  0  0  0
    9.6786  -16.1969   27.3179 C   0  0  0  0  0  0  0  0  0  0  0  0
   10.1332  -17.0945   26.1968 C   0  0  2  0  0  0  0  0  0  0  0  0
    9.1573  -17.1485   25.1193 N   0  0  0  0  0  0  0  0  0  0  0  0
   10.1934  -18.4748   26.8048 C   0  0  0  0  0  0  0  0  0  0  0  0
   11.1482  -18.8304   27.5331 O   0  0  0  0  0  0  0  0  0  0  0  0
    9.1894  -19.4012   26.5772 O   0  0  0  0  0  0  0  0  0  0  0  0
  1  2  1  0
  3  4  2  0
  3  2  1  0
  5  3  1  0
  6  5  1  0
  7  8  1  0
  6  7  1  1
  9  6  1  0
  9 10  2  0
 11 12  1  0
 12 14  1  0
 13 12  2  0
 14 15  1  0
 16 17  1  0
 16 15  1  1
 17  9  1  0
 18 16  1  0
 19 18  2  0
 20 18  1  0
M  END
$$$$
