GCQ.pdb
     RDKit          3D

 20 19  0  0  1  0  0  0  0  0999 V2000
    7.7633  -14.5802   20.3529 N   0  0  0  0  0  0  0  0  0  0  0  0
    7.3692  -15.4214   21.4661 C   0  0  0  0  0  0  0  0  0  0  0  0
    7.9117  -14.8390   22.7033 C   0  0  0  0  0  0  0  0  0  0  0  0
    9.1350  -14.9779   22.9991 O   0  0  0  0  0  0  0  0  0  0  0  0
    7.1088  -14.0962   23.6282 N   0  0  0  0  0  0  0  0  0  0  0  0
    7.6735  -13.6370   24.8521 C   0  0  1  0  0  0  0  0  0  0  0  0
    6.7073  -12.7278   25.5764 C   0  0  0  0  0  0  0  0  0  0  0  0
    7.3574  -12.1046   27.1245 S   0  0  0  0  0  0  0  0  0  0  0  0
    8.0639  -14.7399   25.7673 C   0  0  0  0  0  0  0  0  0  0  0  0
    7.2480  -15.6629   26.0190 O   0  0  0  0  0  0  0  0  0  0  0  0
   13.2316  -17.8674   25.9215 N   0  0  0  0  0  0  0  0  0  0  0  0
   11.9802  -18.2725   25.3372 C   0  0  0  0  0  0  0  0  0  0  0  0
   11.9899  -19.1571   24.4513 O   0  0  0  0  0  0  0  0  0  0  0  0
   10.7499  -17.6102   25.8277 C   0  0  0  0  0  0  0  0  0  0  0  0
   11.0009  -16.5570   26.8491 C   0  0  0  0  0  0  0  0  0  0  0  0
    9.7281  -15.8863   27.2955 C   0  0  2  0  0  0  0  0  0  0  0  0
    9.3361  -14.8163   26.3912 N   0  0  0  0  0  0  0  0  0  0  0  0
   10.0718  -15.2415   28.6164 C   0  0  0  0  0  0  0  0  0  0  0  0
   10.1256  -13.9970   28.7452 O   0  0  0  0  0  0  0  0  0  0  0  0
   10.3410  -16.0080   29.7381 O   0  0  0  0  0  0  0  0  0  0  0  0
  1  2  1  0
  3  4  2  0
  3  2  1  0
  5  3  1  0
  6  5  1  0
  7  8  1  0
  6  7  1  1
  9  6  1  0
  9 10  2  0
 11 12  1  0
 12 14  1  0
 13 12  2  0
 14 15  1  0
 16 17  1  0
 16 15  1  6
 17  9  1  0
 18 16  1  0
 19 18  2  0
 20 18  1  0
M  END
$$$$
