GCQ.pdb
     RDKit          3D

 20 19  0  0  1  0  0  0  0  0999 V2000
    4.8179  -18.6016   20.7250 N   0  0  0  0  0  0  0  0  0  0  0  0
    4.8624  -17.1985   21.0875 C   0  0  0  0  0  0  0  0  0  0  0  0
    6.2506  -16.7291   20.9582 C   0  0  0  0  0  0  0  0  0  0  0  0
    7.2032  -17.5558   20.8478 O   0  0  0  0  0  0  0  0  0  0  0  0
    6.6025  -15.3406   20.9494 N   0  0  0  0  0  0  0  0  0  0  0  0
    7.9666  -14.9527   20.8227 C   0  0  1  0  0  0  0  0  0  0  0  0
    8.0731  -13.4855   20.4750 C   0  0  0  0  0  0  0  0  0  0  0  0
    7.2973  -13.0770   18.9133 S   0  0  0  0  0  0  0  0  0  0  0  0
    8.7648  -15.2086   22.0491 C   0  0  0  0  0  0  0  0  0  0  0  0
    8.3284  -14.8382   23.1686 O   0  0  0  0  0  0  0  0  0  0  0  0
   10.6957  -20.4685   23.9284 N   0  0  0  0  0  0  0  0  0  0  0  0
   11.4487  -19.6604   24.8510 C   0  0  0  0  0  0  0  0  0  0  0  0
   12.0125  -20.2210   25.8181 O   0  0  0  0  0  0  0  0  0  0  0  0
   11.5088  -18.2035   24.5931 C   0  0  0  0  0  0  0  0  0  0  0  0
   10.7220  -17.7705   23.4060 C   0  0  0  0  0  0  0  0  0  0  0  0
   10.7350  -16.2741   23.2332 C   0  0  2  0  0  0  0  0  0  0  0  0
   10.0235  -15.8634   22.0326 N   0  0  0  0  0  0  0  0  0  0  0  0
   12.1877  -15.9199   23.0259 C   0  0  0  0  0  0  0  0  0  0  0  0
   12.6620  -15.7365   21.8815 O   0  0  0  0  0  0  0  0  0  0  0  0
   13.0513  -15.7847   24.1002 O   0  0  0  0  0  0  0  0  0  0  0  0
  1  2  1  0
  3  4  2  0
  3  2  1  0
  5  3  1  0
  6  5  1  0
  7  8  1  0
  6  7  1  1
  9  6  1  0
  9 10  2  0
 11 12  1  0
 12 14  1  0
 13 12  2  0
 14 15  1  0
 16 17  1  0
 16 15  1  6
 17  9  1  0
 18 16  1  0
 19 18  2  0
 20 18  1  0
M  END
$$$$
