GCQ.pdb
     RDKit          3D

 20 19  0  0  1  0  0  0  0  0999 V2000
    7.0702  -14.6652   20.1539 N   0  0  0  0  0  0  0  0  0  0  0  0
    6.3437  -14.3836   21.3766 C   0  0  0  0  0  0  0  0  0  0  0  0
    7.3186  -14.1671   22.4569 C   0  0  0  0  0  0  0  0  0  0  0  0
    8.5474  -14.4120   22.2752 O   0  0  0  0  0  0  0  0  0  0  0  0
    6.9469  -13.6774   23.7507 N   0  0  0  0  0  0  0  0  0  0  0  0
    7.9365  -13.5141   24.7613 C   0  0  1  0  0  0  0  0  0  0  0  0
    7.4236  -12.6240   25.8701 C   0  0  0  0  0  0  0  0  0  0  0  0
    5.9557  -13.2712   26.6664 S   0  0  0  0  0  0  0  0  0  0  0  0
    8.3857  -14.7997   25.3546 C   0  0  0  0  0  0  0  0  0  0  0  0
    7.5526  -15.7184   25.5617 O   0  0  0  0  0  0  0  0  0  0  0  0
   12.1926  -18.2616   23.6159 N   0  0  0  0  0  0  0  0  0  0  0  0
   12.4566  -18.7867   24.9297 C   0  0  0  0  0  0  0  0  0  0  0  0
   12.8954  -19.9547   25.0323 O   0  0  0  0  0  0  0  0  0  0  0  0
   12.1897  -17.9015   26.0864 C   0  0  0  0  0  0  0  0  0  0  0  0
   11.6764  -16.5565   25.7080 C   0  0  0  0  0  0  0  0  0  0  0  0
   10.2298  -16.3753   26.0867 C   0  0  2  0  0  0  0  0  0  0  0  0
    9.7342  -15.0602   25.7110 N   0  0  0  0  0  0  0  0  0  0  0  0
   10.2127  -16.4369   27.5949 C   0  0  0  0  0  0  0  0  0  0  0  0
   10.1207  -15.4014   28.2933 O   0  0  0  0  0  0  0  0  0  0  0  0
   10.2987  -17.6473   28.2625 O   0  0  0  0  0  0  0  0  0  0  0  0
  1  2  1  0
  3  4  2  0
  3  2  1  0
  5  3  1  0
  6  5  1  0
  7  8  1  0
  6  7  1  1
  9  6  1  0
  9 10  2  0
 11 12  1  0
 12 14  1  0
 13 12  2  0
 14 15  1  0
 16 17  1  0
 16 15  1  1
 17  9  1  0
 18 16  1  0
 19 18  2  0
 20 18  1  0
M  END
$$$$
