AGI.pdb
     RDKit          3D

 18 17  0  0  1  0  0  0  0  0999 V2000
    7.0700  -17.5629   18.9011 C   0  0  0  0  0  0  0  0  0  0  0  0
    8.0077  -17.9459   20.0435 C   0  0  2  0  0  0  0  0  0  0  0  0
    8.0394  -19.3614   20.2383 N   0  0  0  0  0  0  0  0  0  0  0  0
    7.5385  -17.2097   21.2472 C   0  0  0  0  0  0  0  0  0  0  0  0
    7.5511  -15.9527   21.2541 O   0  0  0  0  0  0  0  0  0  0  0  0
    7.0667  -17.8557   22.4150 N   0  0  0  0  0  0  0  0  0  0  0  0
    6.4794  -17.1236   23.5176 C   0  0  0  0  0  0  0  0  0  0  0  0
    7.5054  -16.3478   24.2609 C   0  0  0  0  0  0  0  0  0  0  0  0
    8.7157  -16.3865   23.8532 O   0  0  0  0  0  0  0  0  0  0  0  0
    5.7438  -11.7526   26.2804 C   0  0  0  0  0  0  0  0  0  0  0  0
    6.6623  -12.7588   25.7055 C   0  0  0  0  0  0  0  0  0  0  0  0
    7.5312  -13.5414   26.5961 C   0  0  2  0  0  0  0  0  0  0  0  0
    8.4444  -12.6111   27.4053 C   0  0  0  0  0  0  0  0  0  0  0  0
    8.2453  -14.7019   26.0556 C   0  0  2  0  0  0  0  0  0  0  0  0
    7.2370  -15.5700   25.3873 N   0  0  0  0  0  0  0  0  0  0  0  0
    9.1354  -15.4996   26.8647 C   0  0  0  0  0  0  0  0  0  0  0  0
   10.5126  -15.1380   26.9212 O   0  0  0  0  0  0  0  0  0  0  0  0
    8.8745  -16.5054   27.5560 O   0  0  0  0  0  0  0  0  0  0  0  0
  2  1  1  6
  3  2  1  0
  4  6  1  0
  4  2  1  0
  5  4  2  0
  7  6  1  0
  8  7  1  0
  8 15  1  0
  9  8  2  0
 11 10  1  0
 11 12  1  0
 12 14  1  0
 12 13  1  6
 14 15  1  1
 14 16  1  0
 16 17  1  0
 18 16  2  0
M  END
$$$$
