AGI.pdb
     RDKit          3D

 18 17  0  0  1  0  0  0  0  0999 V2000
    3.8046  -18.4294   21.4901 C   0  0  0  0  0  0  0  0  0  0  0  0
    5.2784  -18.7703   21.6965 C   0  0  2  0  0  0  0  0  0  0  0  0
    5.5208  -19.2513   23.0202 N   0  0  0  0  0  0  0  0  0  0  0  0
    6.0505  -17.5393   21.3810 C   0  0  0  0  0  0  0  0  0  0  0  0
    5.9966  -17.0479   20.2253 O   0  0  0  0  0  0  0  0  0  0  0  0
    6.8630  -16.8709   22.3281 N   0  0  0  0  0  0  0  0  0  0  0  0
    7.6413  -15.6988   21.9859 C   0  0  0  0  0  0  0  0  0  0  0  0
    8.3898  -15.1831   23.1610 C   0  0  0  0  0  0  0  0  0  0  0  0
    9.5550  -14.6925   22.9767 O   0  0  0  0  0  0  0  0  0  0  0  0
    5.8472  -11.9250   26.0452 C   0  0  0  0  0  0  0  0  0  0  0  0
    6.9455  -12.7110   25.4431 C   0  0  0  0  0  0  0  0  0  0  0  0
    7.6989  -13.6607   26.2743 C   0  0  2  0  0  0  0  0  0  0  0  0
    8.3338  -12.9384   27.4699 C   0  0  0  0  0  0  0  0  0  0  0  0
    8.6219  -14.5979   25.6270 C   0  0  2  0  0  0  0  0  0  0  0  0
    7.9037  -15.1970   24.4684 N   0  0  0  0  0  0  0  0  0  0  0  0
    9.3197  -15.6216   26.3675 C   0  0  0  0  0  0  0  0  0  0  0  0
    8.8608  -16.9669   26.2675 O   0  0  0  0  0  0  0  0  0  0  0  0
   10.3101  -15.5068   27.1180 O   0  0  0  0  0  0  0  0  0  0  0  0
  2  1  1  1
  3  2  1  0
  4  6  1  0
  4  2  1  0
  5  4  2  0
  7  6  1  0
  8  7  1  0
  8 15  1  0
  9  8  2  0
 11 10  1  0
 11 12  1  0
 12 14  1  0
 12 13  1  1
 14 15  1  6
 14 16  1  0
 16 17  1  0
 18 16  2  0
M  END
$$$$
