AGI.pdb
     RDKit          3D

 18 17  0  0  1  0  0  0  0  0999 V2000
    5.4009  -20.2558   21.6262 C   0  0  0  0  0  0  0  0  0  0  0  0
    6.3144  -19.5692   22.6386 C   0  0  2  0  0  0  0  0  0  0  0  0
    5.6571  -19.3901   23.8949 N   0  0  0  0  0  0  0  0  0  0  0  0
    6.7435  -18.2844   22.0251 C   0  0  0  0  0  0  0  0  0  0  0  0
    7.5902  -18.2886   21.0960 O   0  0  0  0  0  0  0  0  0  0  0  0
    6.2431  -17.0253   22.4352 N   0  0  0  0  0  0  0  0  0  0  0  0
    6.6998  -15.7845   21.8449 C   0  0  0  0  0  0  0  0  0  0  0  0
    7.5336  -15.0061   22.7966 C   0  0  0  0  0  0  0  0  0  0  0  0
    8.5819  -14.4234   22.3564 O   0  0  0  0  0  0  0  0  0  0  0  0
    5.8746  -12.0504   27.3764 C   0  0  0  0  0  0  0  0  0  0  0  0
    6.2212  -13.1050   26.3996 C   0  0  0  0  0  0  0  0  0  0  0  0
    7.4210  -12.9547   25.5639 C   0  0  2  0  0  0  0  0  0  0  0  0
    7.1551  -11.9682   24.4191 C   0  0  0  0  0  0  0  0  0  0  0  0
    8.1345  -14.1554   25.1189 C   0  0  2  0  0  0  0  0  0  0  0  0
    7.2487  -14.8647   24.1548 N   0  0  0  0  0  0  0  0  0  0  0  0
    8.7129  -15.0934   26.0511 C   0  0  0  0  0  0  0  0  0  0  0  0
    9.8582  -14.6926   26.7982 O   0  0  0  0  0  0  0  0  0  0  0  0
    8.3489  -16.2569   26.3178 O   0  0  0  0  0  0  0  0  0  0  0  0
  2  1  1  6
  3  2  1  0
  4  6  1  0
  4  2  1  0
  5  4  2  0
  7  6  1  0
  8  7  1  0
  8 15  1  0
  9  8  2  0
 11 10  1  0
 11 12  1  0
 12 14  1  0
 12 13  1  6
 14 15  1  1
 14 16  1  0
 16 17  1  0
 18 16  2  0
M  END
$$$$
