AGI.pdb
     RDKit          3D

 18 17  0  0  1  0  0  0  0  0999 V2000
    8.2585  -17.5413   18.0607 C   0  0  0  0  0  0  0  0  0  0  0  0
    9.0191  -17.6372   19.3810 C   0  0  2  0  0  0  0  0  0  0  0  0
    8.9569  -18.9583   19.9225 N   0  0  0  0  0  0  0  0  0  0  0  0
    8.4325  -16.6152   20.2880 C   0  0  0  0  0  0  0  0  0  0  0  0
    8.6041  -15.3938   20.0456 O   0  0  0  0  0  0  0  0  0  0  0  0
    7.6734  -16.9438   21.4367 N   0  0  0  0  0  0  0  0  0  0  0  0
    6.9282  -15.9487   22.1791 C   0  0  0  0  0  0  0  0  0  0  0  0
    7.7582  -15.3360   23.2482 C   0  0  0  0  0  0  0  0  0  0  0  0
    9.0296  -15.4317   23.1660 O   0  0  0  0  0  0  0  0  0  0  0  0
    5.8369  -11.5904   27.3561 C   0  0  0  0  0  0  0  0  0  0  0  0
    6.1455  -12.6973   26.4255 C   0  0  0  0  0  0  0  0  0  0  0  0
    7.3888  -12.6622   25.6423 C   0  0  2  0  0  0  0  0  0  0  0  0
    7.2162  -11.7719   24.4045 C   0  0  0  0  0  0  0  0  0  0  0  0
    8.0762  -13.9211   25.3397 C   0  0  2  0  0  0  0  0  0  0  0  0
    7.2402  -14.6548   24.3497 N   0  0  0  0  0  0  0  0  0  0  0  0
    8.5264  -14.8177   26.3773 C   0  0  0  0  0  0  0  0  0  0  0  0
    9.6637  -14.4468   27.1516 O   0  0  0  0  0  0  0  0  0  0  0  0
    8.0522  -15.9204   26.7188 O   0  0  0  0  0  0  0  0  0  0  0  0
  2  1  1  6
  3  2  1  0
  4  6  1  0
  4  2  1  0
  5  4  2  0
  7  6  1  0
  8  7  1  0
  8 15  1  0
  9  8  2  0
 11 10  1  0
 11 12  1  0
 12 14  1  0
 12 13  1  6
 14 15  1  6
 14 16  1  0
 16 17  1  0
 18 16  2  0
M  END
$$$$
