AGI.pdb
     RDKit          3D

 18 17  0  0  1  0  0  0  0  0999 V2000
    9.6899  -19.0297   20.1722 C   0  0  0  0  0  0  0  0  0  0  0  0
    8.5461  -18.2506   19.5272 C   0  0  2  0  0  0  0  0  0  0  0  0
    9.0359  -17.2803   18.5993 N   0  0  0  0  0  0  0  0  0  0  0  0
    7.7636  -17.6430   20.6361 C   0  0  0  0  0  0  0  0  0  0  0  0
    7.1330  -18.3826   21.4331 O   0  0  0  0  0  0  0  0  0  0  0  0
    7.6844  -16.2464   20.8533 N   0  0  0  0  0  0  0  0  0  0  0  0
    6.9140  -15.6773   21.9391 C   0  0  0  0  0  0  0  0  0  0  0  0
    7.7934  -15.2138   23.0431 C   0  0  0  0  0  0  0  0  0  0  0  0
    9.0580  -15.2185   22.8608 O   0  0  0  0  0  0  0  0  0  0  0  0
    5.9770  -11.5793   27.1360 C   0  0  0  0  0  0  0  0  0  0  0  0
    6.3662  -12.8214   26.4344 C   0  0  0  0  0  0  0  0  0  0  0  0
    7.6250  -12.8634   25.6768 C   0  0  2  0  0  0  0  0  0  0  0  0
    7.5620  -11.9037   24.4813 C   0  0  0  0  0  0  0  0  0  0  0  0
    8.2022  -14.1643   25.3254 C   0  0  2  0  0  0  0  0  0  0  0  0
    7.3295  -14.7678   24.2808 N   0  0  0  0  0  0  0  0  0  0  0  0
    8.5403  -15.1486   26.3255 C   0  0  0  0  0  0  0  0  0  0  0  0
    9.7311  -14.9652   27.0863 O   0  0  0  0  0  0  0  0  0  0  0  0
    7.9226  -16.1854   26.6433 O   0  0  0  0  0  0  0  0  0  0  0  0
  2  1  1  1
  3  2  1  0
  4  6  1  0
  4  2  1  0
  5  4  2  0
  7  6  1  0
  8  7  1  0
  8 15  1  0
  9  8  2  0
 11 10  1  0
 11 12  1  0
 12 14  1  0
 12 13  1  6
 14 15  1  6
 14 16  1  0
 16 17  1  0
 18 16  2  0
M  END
$$$$
