AGI.pdb
     RDKit          3D

 18 17  0  0  1  0  0  0  0  0999 V2000
    6.4665  -17.8068   19.2043 C   0  0  0  0  0  0  0  0  0  0  0  0
    7.4308  -18.0561   20.3615 C   0  0  2  0  0  0  0  0  0  0  0  0
    7.5888  -19.4537   20.6151 N   0  0  0  0  0  0  0  0  0  0  0  0
    6.8932  -17.3156   21.5335 C   0  0  0  0  0  0  0  0  0  0  0  0
    6.7719  -16.0655   21.4797 O   0  0  0  0  0  0  0  0  0  0  0  0
    6.4999  -17.9499   22.7363 N   0  0  0  0  0  0  0  0  0  0  0  0
    6.0874  -17.2002   23.9043 C   0  0  0  0  0  0  0  0  0  0  0  0
    7.2154  -16.4182   24.4728 C   0  0  0  0  0  0  0  0  0  0  0  0
    8.3640  -16.5120   23.9212 O   0  0  0  0  0  0  0  0  0  0  0  0
    5.6442  -11.7469   26.5056 C   0  0  0  0  0  0  0  0  0  0  0  0
    6.5183  -12.7316   25.8327 C   0  0  0  0  0  0  0  0  0  0  0  0
    7.5139  -13.4748   26.6182 C   0  0  2  0  0  0  0  0  0  0  0  0
    8.5055  -12.5073   27.2776 C   0  0  0  0  0  0  0  0  0  0  0  0
    8.1755  -14.6355   26.0148 C   0  0  2  0  0  0  0  0  0  0  0  0
    7.1073  -15.5776   25.5807 N   0  0  0  0  0  0  0  0  0  0  0  0
    9.2319  -15.3521   26.6885 C   0  0  0  0  0  0  0  0  0  0  0  0
    8.8850  -16.4667   27.5059 O   0  0  0  0  0  0  0  0  0  0  0  0
   10.4610  -15.1376   26.6659 O   0  0  0  0  0  0  0  0  0  0  0  0
  2  1  1  6
  3  2  1  0
  4  6  1  0
  4  2  1  0
  5  4  2  0
  7  6  1  0
  8  7  1  0
  8 15  1  0
  9  8  2  0
 11 10  1  0
 11 12  1  0
 12 14  1  0
 12 13  1  6
 14 15  1  1
 14 16  1  0
 16 17  1  0
 18 16  2  0
M  END
$$$$
