AGI.pdb
     RDKit          3D

 18 17  0  0  1  0  0  0  0  0999 V2000
    6.2162  -18.8721   19.2806 C   0  0  0  0  0  0  0  0  0  0  0  0
    7.3611  -18.7237   20.2798 C   0  0  2  0  0  0  0  0  0  0  0  0
    7.7879  -19.9948   20.7744 N   0  0  0  0  0  0  0  0  0  0  0  0
    6.8749  -17.8208   21.3566 C   0  0  0  0  0  0  0  0  0  0  0  0
    6.6237  -16.6171   21.0956 O   0  0  0  0  0  0  0  0  0  0  0  0
    6.6729  -18.2464   22.6915 N   0  0  0  0  0  0  0  0  0  0  0  0
    6.1361  -17.3666   23.7085 C   0  0  0  0  0  0  0  0  0  0  0  0
    7.1946  -16.5025   24.2915 C   0  0  0  0  0  0  0  0  0  0  0  0
    8.3876  -16.6129   23.8478 O   0  0  0  0  0  0  0  0  0  0  0  0
    5.4948  -11.7719   26.0719 C   0  0  0  0  0  0  0  0  0  0  0  0
    6.4250  -12.7611   25.4867 C   0  0  0  0  0  0  0  0  0  0  0  0
    7.3721  -13.4713   26.3580 C   0  0  2  0  0  0  0  0  0  0  0  0
    8.3552  -12.4822   26.9978 C   0  0  0  0  0  0  0  0  0  0  0  0
    8.0342  -14.6790   25.8560 C   0  0  2  0  0  0  0  0  0  0  0  0
    6.9747  -15.5668   25.3025 N   0  0  0  0  0  0  0  0  0  0  0  0
    8.9544  -15.4417   26.6653 C   0  0  0  0  0  0  0  0  0  0  0  0
   10.3506  -15.1927   26.5270 O   0  0  0  0  0  0  0  0  0  0  0  0
    8.7061  -16.3281   27.5080 O   0  0  0  0  0  0  0  0  0  0  0  0
  2  1  1  6
  3  2  1  0
  4  6  1  0
  4  2  1  0
  5  4  2  0
  7  6  1  0
  8  7  1  0
  8 15  1  0
  9  8  2  0
 11 10  1  0
 11 12  1  0
 12 14  1  0
 12 13  1  6
 14 15  1  1
 14 16  1  0
 16 17  1  0
 18 16  2  0
M  END
$$$$
