AGI.pdb
     RDKit          3D

 18 17  0  0  1  0  0  0  0  0999 V2000
    7.4870  -16.8946   17.9731 C   0  0  0  0  0  0  0  0  0  0  0  0
    7.8725  -17.8447   19.1044 C   0  0  2  0  0  0  0  0  0  0  0  0
    7.6003  -19.2041   18.7576 N   0  0  0  0  0  0  0  0  0  0  0  0
    7.1268  -17.3980   20.3109 C   0  0  0  0  0  0  0  0  0  0  0  0
    5.8845  -17.5777   20.3787 O   0  0  0  0  0  0  0  0  0  0  0  0
    7.7477  -16.7668   21.4153 N   0  0  0  0  0  0  0  0  0  0  0  0
    7.0076  -16.3775   22.5973 C   0  0  0  0  0  0  0  0  0  0  0  0
    7.8743  -15.6608   23.5681 C   0  0  0  0  0  0  0  0  0  0  0  0
    9.1066  -15.4897   23.2775 O   0  0  0  0  0  0  0  0  0  0  0  0
    5.6009  -11.5669   26.0906 C   0  0  0  0  0  0  0  0  0  0  0  0
    6.5577  -12.5100   25.4729 C   0  0  0  0  0  0  0  0  0  0  0  0
    7.4142  -13.3412   26.3308 C   0  0  2  0  0  0  0  0  0  0  0  0
    8.1602  -12.4680   27.3483 C   0  0  0  0  0  0  0  0  0  0  0  0
    8.2799  -14.3489   25.7110 C   0  0  2  0  0  0  0  0  0  0  0  0
    7.4315  -15.1551   24.7904 N   0  0  0  0  0  0  0  0  0  0  0  0
    9.1320  -15.2130   26.4923 C   0  0  0  0  0  0  0  0  0  0  0  0
    8.6179  -16.4716   26.9193 O   0  0  0  0  0  0  0  0  0  0  0  0
   10.3056  -15.0206   26.8707 O   0  0  0  0  0  0  0  0  0  0  0  0
  2  1  1  6
  3  2  1  0
  4  6  1  0
  4  2  1  0
  5  4  2  0
  7  6  1  0
  8  7  1  0
  8 15  1  0
  9  8  2  0
 11 10  1  0
 11 12  1  0
 12 14  1  0
 12 13  1  6
 14 15  1  1
 14 16  1  0
 16 17  1  0
 18 16  2  0
M  END
$$$$
