AGI.pdb
     RDKit          3D

 18 17  0  0  1  0  0  0  0  0999 V2000
    8.2782  -12.3615   19.0478 C   0  0  0  0  0  0  0  0  0  0  0  0
    8.3911  -13.8531   18.7420 C   0  0  2  0  0  0  0  0  0  0  0  0
    7.8532  -14.1624   17.4546 N   0  0  0  0  0  0  0  0  0  0  0  0
    7.6955  -14.5695   19.8438 C   0  0  0  0  0  0  0  0  0  0  0  0
    6.4449  -14.6938   19.8156 O   0  0  0  0  0  0  0  0  0  0  0  0
    8.3743  -15.1342   20.9502 N   0  0  0  0  0  0  0  0  0  0  0  0
    7.6743  -15.5973   22.1300 C   0  0  0  0  0  0  0  0  0  0  0  0
    8.2564  -15.0181   23.3681 C   0  0  0  0  0  0  0  0  0  0  0  0
    9.3823  -14.4189   23.2924 O   0  0  0  0  0  0  0  0  0  0  0  0
    5.6362  -11.6872   26.0459 C   0  0  0  0  0  0  0  0  0  0  0  0
    6.6794  -12.5943   25.5213 C   0  0  0  0  0  0  0  0  0  0  0  0
    7.3210  -13.5616   26.4231 C   0  0  2  0  0  0  0  0  0  0  0  0
    7.8732  -12.8499   27.6652 C   0  0  0  0  0  0  0  0  0  0  0  0
    8.2629  -14.5378   25.8674 C   0  0  2  0  0  0  0  0  0  0  0  0
    7.6524  -15.0834   24.6238 N   0  0  0  0  0  0  0  0  0  0  0  0
    8.8184  -15.6062   26.6631 C   0  0  0  0  0  0  0  0  0  0  0  0
   10.0427  -15.3747   27.3547 O   0  0  0  0  0  0  0  0  0  0  0  0
    8.3724  -16.7568   26.8489 O   0  0  0  0  0  0  0  0  0  0  0  0
  2  1  1  1
  3  2  1  0
  4  6  1  0
  4  2  1  0
  5  4  2  0
  7  6  1  0
  8  7  1  0
  8 15  1  0
  9  8  2  0
 11 10  1  0
 11 12  1  0
 12 14  1  0
 12 13  1  1
 14 15  1  6
 14 16  1  0
 16 17  1  0
 18 16  2  0
M  END
$$$$
