AGI.pdb
     RDKit          3D

 18 17  0  0  1  0  0  0  0  0999 V2000
    8.6947  -18.1271   18.4554 C   0  0  0  0  0  0  0  0  0  0  0  0
    9.2348  -18.0061   19.8783 C   0  0  2  0  0  0  0  0  0  0  0  0
    9.0028  -19.2016   20.6262 N   0  0  0  0  0  0  0  0  0  0  0  0
    8.5841  -16.8135   20.4829 C   0  0  0  0  0  0  0  0  0  0  0  0
    8.8470  -15.6671   20.0393 O   0  0  0  0  0  0  0  0  0  0  0  0
    7.6633  -16.8940   21.5550 N   0  0  0  0  0  0  0  0  0  0  0  0
    7.0722  -15.7157   22.1540 C   0  0  0  0  0  0  0  0  0  0  0  0
    7.8843  -15.2227   23.2961 C   0  0  0  0  0  0  0  0  0  0  0  0
    9.1561  -15.3272   23.2326 O   0  0  0  0  0  0  0  0  0  0  0  0
    5.9066  -11.7322   27.5655 C   0  0  0  0  0  0  0  0  0  0  0  0
    6.2260  -12.7801   26.5723 C   0  0  0  0  0  0  0  0  0  0  0  0
    7.5167  -12.7453   25.8698 C   0  0  2  0  0  0  0  0  0  0  0  0
    7.4594  -11.7607   24.6944 C   0  0  0  0  0  0  0  0  0  0  0  0
    8.1692  -14.0091   25.5151 C   0  0  2  0  0  0  0  0  0  0  0  0
    7.3490  -14.6463   24.4481 N   0  0  0  0  0  0  0  0  0  0  0  0
    8.5419  -14.9855   26.5105 C   0  0  0  0  0  0  0  0  0  0  0  0
    9.6647  -14.7131   27.3447 O   0  0  0  0  0  0  0  0  0  0  0  0
    8.0088  -16.0843   26.7671 O   0  0  0  0  0  0  0  0  0  0  0  0
  2  1  1  6
  3  2  1  0
  4  6  1  0
  4  2  1  0
  5  4  2  0
  7  6  1  0
  8  7  1  0
  8 15  1  0
  9  8  2  0
 11 10  1  0
 11 12  1  0
 12 14  1  0
 12 13  1  6
 14 15  1  6
 14 16  1  0
 16 17  1  0
 18 16  2  0
M  END
$$$$
