AGI.pdb
     RDKit          3D

 18 17  0  0  1  0  0  0  0  0999 V2000
    6.5909  -18.4030   19.2534 C   0  0  0  0  0  0  0  0  0  0  0  0
    7.6190  -18.4693   20.3801 C   0  0  2  0  0  0  0  0  0  0  0  0
    7.8374  -19.8157   20.8066 N   0  0  0  0  0  0  0  0  0  0  0  0
    7.1146  -17.5944   21.4716 C   0  0  0  0  0  0  0  0  0  0  0  0
    7.0197  -16.3550   21.2844 O   0  0  0  0  0  0  0  0  0  0  0  0
    6.7252  -18.0861   22.7406 N   0  0  0  0  0  0  0  0  0  0  0  0
    6.2309  -17.2153   23.7865 C   0  0  0  0  0  0  0  0  0  0  0  0
    7.3048  -16.3315   24.3087 C   0  0  0  0  0  0  0  0  0  0  0  0
    8.4913  -16.4789   23.8582 O   0  0  0  0  0  0  0  0  0  0  0  0
    6.4583  -11.5380   27.4699 C   0  0  0  0  0  0  0  0  0  0  0  0
    6.3900  -12.7624   26.6435 C   0  0  0  0  0  0  0  0  0  0  0  0
    7.4168  -13.0060   25.6205 C   0  0  2  0  0  0  0  0  0  0  0  0
    6.8991  -12.5972   24.2351 C   0  0  0  0  0  0  0  0  0  0  0  0
    8.1141  -14.2954   25.6036 C   0  0  2  0  0  0  0  0  0  0  0  0
    7.1063  -15.3390   25.2686 N   0  0  0  0  0  0  0  0  0  0  0  0
    8.9429  -14.7334   26.7012 C   0  0  0  0  0  0  0  0  0  0  0  0
    8.5291  -15.8690   27.4560 O   0  0  0  0  0  0  0  0  0  0  0  0
   10.0171  -14.2493   27.1123 O   0  0  0  0  0  0  0  0  0  0  0  0
  2  1  1  6
  3  2  1  0
  4  6  1  0
  4  2  1  0
  5  4  2  0
  7  6  1  0
  8  7  1  0
  8 15  1  0
  9  8  2  0
 11 10  1  0
 11 12  1  0
 12 14  1  0
 12 13  1  6
 14 15  1  1
 14 16  1  0
 16 17  1  0
 18 16  2  0
M  END
$$$$
