AGI.pdb
     RDKit          3D

 18 17  0  0  1  0  0  0  0  0999 V2000
    4.2533  -19.7035   22.1619 C   0  0  0  0  0  0  0  0  0  0  0  0
    5.7606  -19.5452   22.3462 C   0  0  2  0  0  0  0  0  0  0  0  0
    6.1428  -19.7513   23.7078 N   0  0  0  0  0  0  0  0  0  0  0  0
    6.1123  -18.1888   21.8487 C   0  0  0  0  0  0  0  0  0  0  0  0
    5.8072  -17.8559   20.6756 O   0  0  0  0  0  0  0  0  0  0  0  0
    6.7871  -17.2258   22.6368 N   0  0  0  0  0  0  0  0  0  0  0  0
    7.5995  -16.1809   22.0496 C   0  0  0  0  0  0  0  0  0  0  0  0
    8.1592  -15.2802   23.0900 C   0  0  0  0  0  0  0  0  0  0  0  0
    9.0470  -14.4276   22.7477 O   0  0  0  0  0  0  0  0  0  0  0  0
    5.4239  -12.2518   26.0712 C   0  0  0  0  0  0  0  0  0  0  0  0
    6.5575  -12.9259   25.4027 C   0  0  0  0  0  0  0  0  0  0  0  0
    7.4952  -13.7308   26.1984 C   0  0  2  0  0  0  0  0  0  0  0  0
    8.1084  -12.8833   27.3210 C   0  0  0  0  0  0  0  0  0  0  0  0
    8.4905  -14.5559   25.5073 C   0  0  2  0  0  0  0  0  0  0  0  0
    7.7785  -15.3000   24.4319 N   0  0  0  0  0  0  0  0  0  0  0  0
    9.3835  -15.4380   26.2199 C   0  0  0  0  0  0  0  0  0  0  0  0
    9.0429  -16.8182   26.3174 O   0  0  0  0  0  0  0  0  0  0  0  0
   10.4593  -15.1675   26.7915 O   0  0  0  0  0  0  0  0  0  0  0  0
  2  1  1  1
  3  2  1  0
  4  6  1  0
  4  2  1  0
  5  4  2  0
  7  6  1  0
  8  7  1  0
  8 15  1  0
  9  8  2  0
 11 10  1  0
 11 12  1  0
 12 14  1  0
 12 13  1  1
 14 15  1  6
 14 16  1  0
 16 17  1  0
 18 16  2  0
M  END
$$$$
