AGI.pdb
     RDKit          3D

 18 17  0  0  1  0  0  0  0  0999 V2000
    7.3489  -13.0194   18.3870 C   0  0  0  0  0  0  0  0  0  0  0  0
    8.4767  -13.6235   19.2203 C   0  0  2  0  0  0  0  0  0  0  0  0
    9.1132  -14.7013   18.5307 N   0  0  0  0  0  0  0  0  0  0  0  0
    7.8753  -14.0432   20.5139 C   0  0  0  0  0  0  0  0  0  0  0  0
    7.3373  -13.1857   21.2592 O   0  0  0  0  0  0  0  0  0  0  0  0
    7.8722  -15.3840   20.9675 N   0  0  0  0  0  0  0  0  0  0  0  0
    7.1876  -15.7870   22.1781 C   0  0  0  0  0  0  0  0  0  0  0  0
    8.0074  -15.5043   23.3843 C   0  0  0  0  0  0  0  0  0  0  0  0
    9.2798  -15.5685   23.2879 O   0  0  0  0  0  0  0  0  0  0  0  0
    5.7902  -11.8444   26.3963 C   0  0  0  0  0  0  0  0  0  0  0  0
    6.8494  -12.6478   25.7486 C   0  0  0  0  0  0  0  0  0  0  0  0
    7.5232  -13.7094   26.5098 C   0  0  2  0  0  0  0  0  0  0  0  0
    8.2895  -13.1119   27.6974 C   0  0  0  0  0  0  0  0  0  0  0  0
    8.3020  -14.7197   25.7875 C   0  0  2  0  0  0  0  0  0  0  0  0
    7.4788  -15.1692   24.6309 N   0  0  0  0  0  0  0  0  0  0  0  0
    8.8905  -15.8560   26.4550 C   0  0  0  0  0  0  0  0  0  0  0  0
   10.2133  -15.7331   26.9705 O   0  0  0  0  0  0  0  0  0  0  0  0
    8.3980  -16.9840   26.6612 O   0  0  0  0  0  0  0  0  0  0  0  0
  2  1  1  6
  3  2  1  0
  4  6  1  0
  4  2  1  0
  5  4  2  0
  7  6  1  0
  8  7  1  0
  8 15  1  0
  9  8  2  0
 11 10  1  0
 11 12  1  0
 12 14  1  0
 12 13  1  1
 14 15  1  6
 14 16  1  0
 16 17  1  0
 18 16  2  0
M  END
$$$$
