SSA.pdb
     RDKit          3D

 18 17  0  0  1  0  0  0  0  0999 V2000
    8.2053  -19.6784   17.6939 O   0  0  0  0  0  0  0  0  0  0  0  0
    8.0349  -18.8210   18.7619 C   0  0  0  0  0  0  0  0  0  0  0  0
    8.4112  -17.4074   18.3165 C   0  0  2  0  0  0  0  0  0  0  0  0
    9.3978  -17.5378   17.2674 N   0  0  0  0  0  0  0  0  0  0  0  0
    9.0564  -16.7656   19.4968 C   0  0  0  0  0  0  0  0  0  0  0  0
   10.3270  -16.7283   19.5862 O   0  0  0  0  0  0  0  0  0  0  0  0
    7.9205  -13.4192   21.2627 O   0  0  0  0  0  0  0  0  0  0  0  0
    8.1052  -14.4296   22.1898 C   0  0  0  0  0  0  0  0  0  0  0  0
    8.9983  -15.5302   21.6300 C   0  0  2  0  0  0  0  0  0  0  0  0
    8.3172  -16.1855   20.5414 N   0  0  0  0  0  0  0  0  0  0  0  0
    9.3352  -16.5113   22.6928 C   0  0  0  0  0  0  0  0  0  0  0  0
    8.5413  -17.4056   23.0716 O   0  0  0  0  0  0  0  0  0  0  0  0
   12.4898  -17.8452   24.1155 C   0  0  0  0  0  0  0  0  0  0  0  0
   11.0316  -17.4927   24.2891 C   0  0  2  0  0  0  0  0  0  0  0  0
   10.6154  -16.4687   23.3404 N   0  0  0  0  0  0  0  0  0  0  0  0
   10.7484  -17.0769   25.6834 C   0  0  0  0  0  0  0  0  0  0  0  0
   10.3281  -15.9251   25.9238 O   0  0  0  0  0  0  0  0  0  0  0  0
   10.9486  -17.9587   26.7102 O   0  0  0  0  0  0  0  0  0  0  0  0
  1  2  1  0
  3  2  1  0
  3  4  1  6
  5  3  1  0
  6  5  2  0
  8  7  1  0
  9  8  1  1
  9 10  1  0
 10  5  1  0
 11  9  1  0
 11 15  1  0
 12 11  2  0
 14 15  1  0
 14 13  1  1
 16 14  1  0
 16 18  1  0
 17 16  2  0
M  END
$$$$
