SSA.pdb
     RDKit          3D

 18 17  0  0  1  0  0  0  0  0999 V2000
   -6.3278  -10.6139   17.7750 O   0  0  0  0  0  0  0  0  0  0  0  0
   -7.5578  -11.2119   17.9597 C   0  0  0  0  0  0  0  0  0  0  0  0
   -7.5192  -12.6077   17.3362 C   0  0  2  0  0  0  0  0  0  0  0  0
   -7.5916  -12.4377   15.9019 N   0  0  0  0  0  0  0  0  0  0  0  0
   -8.7598  -13.2943   17.7952 C   0  0  0  0  0  0  0  0  0  0  0  0
   -9.7326  -13.4584   16.9887 O   0  0  0  0  0  0  0  0  0  0  0  0
   -8.7224  -15.5932   21.0875 O   0  0  0  0  0  0  0  0  0  0  0  0
   -9.7278  -15.7994   20.1595 C   0  0  0  0  0  0  0  0  0  0  0  0
  -10.1128  -14.4959   19.4703 C   0  0  2  0  0  0  0  0  0  0  0  0
   -8.9152  -13.7818   19.1038 N   0  0  0  0  0  0  0  0  0  0  0  0
  -10.9533  -13.6656   20.3702 C   0  0  0  0  0  0  0  0  0  0  0  0
  -10.4748  -12.9537   21.2854 O   0  0  0  0  0  0  0  0  0  0  0  0
  -14.6598  -12.8198   20.5754 C   0  0  0  0  0  0  0  0  0  0  0  0
  -13.2347  -12.8365   21.0751 C   0  0  2  0  0  0  0  0  0  0  0  0
  -12.3807  -13.6488   20.2193 N   0  0  0  0  0  0  0  0  0  0  0  0
  -13.1714  -13.2946   22.4834 C   0  0  0  0  0  0  0  0  0  0  0  0
  -13.0258  -14.5076   22.7449 O   0  0  0  0  0  0  0  0  0  0  0  0
  -13.2729  -12.3845   23.4999 O   0  0  0  0  0  0  0  0  0  0  0  0
  1  2  1  0
  3  2  1  0
  3  4  1  6
  5  3  1  0
  6  5  2  0
  8  7  1  0
  9  8  1  1
  9 10  1  0
 10  5  1  0
 11  9  1  0
 11 15  1  0
 12 11  2  0
 14 15  1  0
 14 13  1  6
 16 14  1  0
 16 18  1  0
 17 16  2  0
M  END
$$$$
