SSA.pdb
     RDKit          3D

 18 17  0  0  1  0  0  0  0  0999 V2000
   13.2163  -17.9351   20.8464 O   0  0  0  0  0  0  0  0  0  0  0  0
   12.3904  -17.6319   21.9097 C   0  0  0  0  0  0  0  0  0  0  0  0
   10.9912  -17.3334   21.3700 C   0  0  2  0  0  0  0  0  0  0  0  0
   11.1557  -16.5571   20.1610 N   0  0  0  0  0  0  0  0  0  0  0  0
   10.3316  -16.4776   22.3965 C   0  0  0  0  0  0  0  0  0  0  0  0
   10.3644  -15.2086   22.2845 O   0  0  0  0  0  0  0  0  0  0  0  0
    7.7810  -18.0591   25.2104 O   0  0  0  0  0  0  0  0  0  0  0  0
    7.6372  -16.7434   24.8068 C   0  0  0  0  0  0  0  0  0  0  0  0
    8.9834  -16.1351   24.4325 C   0  0  2  0  0  0  0  0  0  0  0  0
    9.6592  -17.0116   23.5087 N   0  0  0  0  0  0  0  0  0  0  0  0
    9.8118  -15.9290   25.6477 C   0  0  0  0  0  0  0  0  0  0  0  0
   10.7750  -16.6733   25.9506 O   0  0  0  0  0  0  0  0  0  0  0  0
    9.9016  -13.3345   28.4390 C   0  0  0  0  0  0  0  0  0  0  0  0
   10.3409  -14.5914   27.7261 C   0  0  2  0  0  0  0  0  0  0  0  0
    9.5310  -14.8416   26.5417 N   0  0  0  0  0  0  0  0  0  0  0  0
   10.3216  -15.7559   28.6431 C   0  0  0  0  0  0  0  0  0  0  0  0
    9.4275  -16.6226   28.5412 O   0  0  0  0  0  0  0  0  0  0  0  0
   11.2872  -15.8809   29.6042 O   0  0  0  0  0  0  0  0  0  0  0  0
  1  2  1  0
  3  2  1  0
  3  4  1  6
  5  3  1  0
  6  5  2  0
  8  7  1  0
  9  8  1  1
  9 10  1  0
 10  5  1  0
 11  9  1  0
 11 15  1  0
 12 11  2  0
 14 15  1  0
 14 13  1  1
 16 14  1  0
 16 18  1  0
 17 16  2  0
M  END
$$$$
