SSA.pdb
     RDKit          3D

 18 17  0  0  1  0  0  0  0  0999 V2000
    8.9218  -20.1881   19.6787 O   0  0  0  0  0  0  0  0  0  0  0  0
    7.9382  -21.0079   19.1638 C   0  0  0  0  0  0  0  0  0  0  0  0
    6.7831  -20.1338   18.6735 C   0  0  2  0  0  0  0  0  0  0  0  0
    7.2973  -19.3045   17.6062 N   0  0  0  0  0  0  0  0  0  0  0  0
    6.4192  -19.2564   19.8219 C   0  0  0  0  0  0  0  0  0  0  0  0
    6.8837  -18.0717   19.8907 O   0  0  0  0  0  0  0  0  0  0  0  0
    3.9994  -20.5096   23.0346 O   0  0  0  0  0  0  0  0  0  0  0  0
    3.9145  -19.2134   22.5579 C   0  0  0  0  0  0  0  0  0  0  0  0
    5.2307  -18.7741   21.9279 C   0  0  2  0  0  0  0  0  0  0  0  0
    5.5693  -19.6790   20.8579 N   0  0  0  0  0  0  0  0  0  0  0  0
    6.3097  -18.7553   22.9482 C   0  0  0  0  0  0  0  0  0  0  0  0
    7.1632  -19.6683   23.0549 O   0  0  0  0  0  0  0  0  0  0  0  0
    7.4759  -16.2862   25.6020 C   0  0  0  0  0  0  0  0  0  0  0  0
    7.4402  -17.6267   24.9071 C   0  0  2  0  0  0  0  0  0  0  0  0
    6.4157  -17.6620   23.8723 N   0  0  0  0  0  0  0  0  0  0  0  0
    7.2521  -18.7258   25.8837 C   0  0  0  0  0  0  0  0  0  0  0  0
    6.1402  -19.2843   25.9965 O   0  0  0  0  0  0  0  0  0  0  0  0
    8.3011  -19.1294   26.6638 O   0  0  0  0  0  0  0  0  0  0  0  0
  1  2  1  0
  3  2  1  0
  3  4  1  6
  5  3  1  0
  6  5  2  0
  8  7  1  0
  9  8  1  1
  9 10  1  0
 10  5  1  0
 11  9  1  0
 11 15  1  0
 12 11  2  0
 14 15  1  0
 14 13  1  1
 16 14  1  0
 16 18  1  0
 17 16  2  0
M  END
$$$$
