SSA.pdb
     RDKit          3D

 18 17  0  0  1  0  0  0  0  0999 V2000
   -3.1855  -21.5251   27.1217 O   0  0  0  0  0  0  0  0  0  0  0  0
   -4.3783  -22.1993   26.9564 C   0  0  0  0  0  0  0  0  0  0  0  0
   -5.2047  -22.0475   28.2341 C   0  0  2  0  0  0  0  0  0  0  0  0
   -4.4135  -22.5803   29.3211 N   0  0  0  0  0  0  0  0  0  0  0  0
   -6.4029  -22.9146   28.0508 C   0  0  0  0  0  0  0  0  0  0  0  0
   -7.2186  -22.6813   27.0999 O   0  0  0  0  0  0  0  0  0  0  0  0
   -7.0301  -26.1666   30.4477 O   0  0  0  0  0  0  0  0  0  0  0  0
   -7.6974  -26.1720   29.2355 C   0  0  0  0  0  0  0  0  0  0  0  0
   -7.9040  -24.7537   28.7178 C   0  0  2  0  0  0  0  0  0  0  0  0
   -6.6859  -24.0028   28.8934 N   0  0  0  0  0  0  0  0  0  0  0  0
   -9.0227  -24.0983   29.4421 C   0  0  0  0  0  0  0  0  0  0  0  0
   -8.8441  -23.2848   30.3800 O   0  0  0  0  0  0  0  0  0  0  0  0
  -12.8191  -24.1058   29.1193 C   0  0  0  0  0  0  0  0  0  0  0  0
  -11.5056  -23.7734   29.7865 C   0  0  2  0  0  0  0  0  0  0  0  0
  -10.3837  -24.3811   29.0839 N   0  0  0  0  0  0  0  0  0  0  0  0
  -11.5205  -24.1700   31.2147 C   0  0  0  0  0  0  0  0  0  0  0  0
  -12.2349  -23.5519   32.0323 O   0  0  0  0  0  0  0  0  0  0  0  0
  -10.7483  -25.2172   31.6379 O   0  0  0  0  0  0  0  0  0  0  0  0
  1  2  1  0
  3  2  1  0
  3  4  1  1
  5  3  1  0
  6  5  2  0
  8  7  1  0
  9  8  1  1
  9 10  1  0
 10  5  1  0
 11  9  1  0
 11 15  1  0
 12 11  2  0
 14 15  1  0
 14 13  1  6
 16 14  1  0
 16 18  1  0
 17 16  2  0
M  END
$$$$
