SSA.pdb
     RDKit          3D

 18 17  0  0  1  0  0  0  0  0999 V2000
   12.7598  -17.8078   21.1216 O   0  0  0  0  0  0  0  0  0  0  0  0
   12.0712  -16.6955   21.5612 C   0  0  0  0  0  0  0  0  0  0  0  0
   10.5742  -16.9427   21.3706 C   0  0  2  0  0  0  0  0  0  0  0  0
   10.1899  -16.3055   20.1306 N   0  0  0  0  0  0  0  0  0  0  0  0
    9.8974  -16.2374   22.4955 C   0  0  0  0  0  0  0  0  0  0  0  0
    9.8615  -14.9637   22.5193 O   0  0  0  0  0  0  0  0  0  0  0  0
    7.8701  -18.2553   25.5458 O   0  0  0  0  0  0  0  0  0  0  0  0
    7.4672  -16.9911   25.1533 C   0  0  0  0  0  0  0  0  0  0  0  0
    8.6431  -16.1831   24.6178 C   0  0  2  0  0  0  0  0  0  0  0  0
    9.2819  -16.9216   23.5572 N   0  0  0  0  0  0  0  0  0  0  0  0
    9.6131  -15.9009   25.7065 C   0  0  0  0  0  0  0  0  0  0  0  0
   10.6987  -16.5171   25.8291 O   0  0  0  0  0  0  0  0  0  0  0  0
    9.8976  -13.3595   28.5155 C   0  0  0  0  0  0  0  0  0  0  0  0
   10.1876  -14.6810   27.8444 C   0  0  2  0  0  0  0  0  0  0  0  0
    9.3338  -14.8858   26.6822 N   0  0  0  0  0  0  0  0  0  0  0  0
   10.0618  -15.8029   28.8049 C   0  0  0  0  0  0  0  0  0  0  0  0
   10.8115  -15.8647   29.8024 O   0  0  0  0  0  0  0  0  0  0  0  0
    9.1205  -16.7739   28.5971 O   0  0  0  0  0  0  0  0  0  0  0  0
  1  2  1  0
  3  2  1  0
  3  4  1  6
  5  3  1  0
  6  5  2  0
  8  7  1  0
  9  8  1  1
  9 10  1  0
 10  5  1  0
 11  9  1  0
 11 15  1  0
 12 11  2  0
 14 15  1  0
 14 13  1  1
 16 14  1  0
 16 18  1  0
 17 16  2  0
M  END
$$$$
