SSA.pdb
     RDKit          3D

 18 17  0  0  1  0  0  0  0  0999 V2000
    9.3500  -15.3506   17.5661 O   0  0  0  0  0  0  0  0  0  0  0  0
    8.0134  -15.2779   17.9022 C   0  0  0  0  0  0  0  0  0  0  0  0
    7.7473  -13.9182   18.5495 C   0  0  2  0  0  0  0  0  0  0  0  0
    8.4081  -12.9210   17.7370 N   0  0  0  0  0  0  0  0  0  0  0  0
    8.4145  -13.9625   19.8813 C   0  0  0  0  0  0  0  0  0  0  0  0
    9.6212  -13.5712   20.0026 O   0  0  0  0  0  0  0  0  0  0  0  0
    6.5576  -15.4410   23.3605 O   0  0  0  0  0  0  0  0  0  0  0  0
    7.4578  -14.3930   23.4362 C   0  0  0  0  0  0  0  0  0  0  0  0
    8.4679  -14.4551   22.2968 C   0  0  2  0  0  0  0  0  0  0  0  0
    7.7653  -14.4250   21.0384 N   0  0  0  0  0  0  0  0  0  0  0  0
    9.2869  -15.6897   22.4007 C   0  0  0  0  0  0  0  0  0  0  0  0
    9.0422  -16.7278   21.7405 O   0  0  0  0  0  0  0  0  0  0  0  0
   12.6403  -16.7692   23.2212 C   0  0  0  0  0  0  0  0  0  0  0  0
   11.1697  -16.9664   23.5026 C   0  0  2  0  0  0  0  0  0  0  0  0
   10.4172  -15.7385   23.2842 N   0  0  0  0  0  0  0  0  0  0  0  0
   10.9569  -17.4873   24.8740 C   0  0  0  0  0  0  0  0  0  0  0  0
   10.2641  -16.8444   25.6911 O   0  0  0  0  0  0  0  0  0  0  0  0
   11.5219  -18.6768   25.2450 O   0  0  0  0  0  0  0  0  0  0  0  0
  1  2  1  0
  3  2  1  0
  3  4  1  6
  5  3  1  0
  6  5  2  0
  8  7  1  0
  9  8  1  1
  9 10  1  0
 10  5  1  0
 11  9  1  0
 11 15  1  0
 12 11  2  0
 14 15  1  0
 14 13  1  1
 16 14  1  0
 16 18  1  0
 17 16  2  0
M  END
$$$$
