SSA.pdb
     RDKit          3D

 18 17  0  0  1  0  0  0  0  0999 V2000
    8.1300  -20.6265   17.8997 O   0  0  0  0  0  0  0  0  0  0  0  0
    8.7606  -20.2314   19.0621 C   0  0  0  0  0  0  0  0  0  0  0  0
    8.9121  -18.7099   19.0410 C   0  0  2  0  0  0  0  0  0  0  0  0
    9.5194  -18.3579   17.7766 N   0  0  0  0  0  0  0  0  0  0  0  0
    9.8691  -18.3797   20.1346 C   0  0  0  0  0  0  0  0  0  0  0  0
   11.0962  -18.1667   19.8646 O   0  0  0  0  0  0  0  0  0  0  0  0
    8.6414  -16.8974   23.7529 O   0  0  0  0  0  0  0  0  0  0  0  0
    9.8857  -16.6425   23.2038 C   0  0  0  0  0  0  0  0  0  0  0  0
   10.4276  -17.8702   22.4817 C   0  0  2  0  0  0  0  0  0  0  0  0
    9.4781  -18.2892   21.4812 N   0  0  0  0  0  0  0  0  0  0  0  0
   10.6763  -18.9694   23.4490 C   0  0  0  0  0  0  0  0  0  0  0  0
    9.7716  -19.7371   23.8560 O   0  0  0  0  0  0  0  0  0  0  0  0
   13.7689  -20.6407   24.8492 C   0  0  0  0  0  0  0  0  0  0  0  0
   12.2938  -20.3169   24.8478 C   0  0  2  0  0  0  0  0  0  0  0  0
   11.9961  -19.1970   23.9654 N   0  0  0  0  0  0  0  0  0  0  0  0
   11.8059  -20.0584   26.2234 C   0  0  0  0  0  0  0  0  0  0  0  0
   11.7667  -20.9839   27.0618 O   0  0  0  0  0  0  0  0  0  0  0  0
   11.3972  -18.8009   26.5751 O   0  0  0  0  0  0  0  0  0  0  0  0
  1  2  1  0
  3  2  1  0
  3  4  1  6
  5  3  1  0
  6  5  2  0
  8  7  1  0
  9  8  1  1
  9 10  1  0
 10  5  1  0
 11  9  1  0
 11 15  1  0
 12 11  2  0
 14 15  1  0
 14 13  1  1
 16 14  1  0
 16 18  1  0
 17 16  2  0
M  END
$$$$
