SSA.pdb
     RDKit          3D

 18 17  0  0  1  0  0  0  0  0999 V2000
   -0.8961  -25.9785   32.3241 O   0  0  0  0  0  0  0  0  0  0  0  0
   -1.9779  -25.5648   31.5735 C   0  0  0  0  0  0  0  0  0  0  0  0
   -2.5971  -26.7880   30.8962 C   0  0  2  0  0  0  0  0  0  0  0  0
   -1.7652  -27.1144   29.7592 N   0  0  0  0  0  0  0  0  0  0  0  0
   -3.9303  -26.3470   30.3969 C   0  0  0  0  0  0  0  0  0  0  0  0
   -4.0464  -25.8825   29.2160 O   0  0  0  0  0  0  0  0  0  0  0  0
   -8.7209  -26.3005   30.8744 O   0  0  0  0  0  0  0  0  0  0  0  0
   -7.4895  -26.6788   31.3796 C   0  0  0  0  0  0  0  0  0  0  0  0
   -6.3558  -25.9768   30.6418 C   0  0  2  0  0  0  0  0  0  0  0  0
   -5.0940  -26.4191   31.1809 N   0  0  0  0  0  0  0  0  0  0  0  0
   -6.4866  -24.5037   30.7775 C   0  0  0  0  0  0  0  0  0  0  0  0
   -6.1114  -23.8769   31.7972 O   0  0  0  0  0  0  0  0  0  0  0  0
   -7.4326  -21.6764   28.4246 C   0  0  0  0  0  0  0  0  0  0  0  0
   -7.1252  -22.2716   29.7781 C   0  0  2  0  0  0  0  0  0  0  0  0
   -7.0626  -23.7256   29.7177 N   0  0  0  0  0  0  0  0  0  0  0  0
   -8.1078  -21.8202   30.7919 C   0  0  0  0  0  0  0  0  0  0  0  0
   -9.0085  -22.5926   31.1833 O   0  0  0  0  0  0  0  0  0  0  0  0
   -8.0270  -20.5526   31.3004 O   0  0  0  0  0  0  0  0  0  0  0  0
  1  2  1  0
  3  2  1  0
  3  4  1  6
  5  3  1  0
  6  5  2  0
  8  7  1  0
  9  8  1  1
  9 10  1  0
 10  5  1  0
 11  9  1  0
 11 15  1  0
 12 11  2  0
 14 15  1  0
 14 13  1  6
 16 14  1  0
 16 18  1  0
 17 16  2  0
M  END
$$$$
