SSA.pdb
     RDKit          3D

 18 17  0  0  1  0  0  0  0  0999 V2000
   -5.5199  -28.5166   29.2241 O   0  0  0  0  0  0  0  0  0  0  0  0
   -4.8701  -28.0229   28.1111 C   0  0  0  0  0  0  0  0  0  0  0  0
   -3.6074  -27.2917   28.5686 C   0  0  2  0  0  0  0  0  0  0  0  0
   -2.8788  -28.1952   29.4313 N   0  0  0  0  0  0  0  0  0  0  0  0
   -4.0776  -26.1352   29.3825 C   0  0  0  0  0  0  0  0  0  0  0  0
   -4.1111  -26.2224   30.6534 O   0  0  0  0  0  0  0  0  0  0  0  0
   -4.5666  -22.3501   27.8088 O   0  0  0  0  0  0  0  0  0  0  0  0
   -4.3320  -22.5380   29.1595 C   0  0  0  0  0  0  0  0  0  0  0  0
   -4.9491  -23.8436   29.6461 C   0  0  2  0  0  0  0  0  0  0  0  0
   -4.4961  -24.9241   28.8060 N   0  0  0  0  0  0  0  0  0  0  0  0
   -6.4313  -23.7552   29.6182 C   0  0  0  0  0  0  0  0  0  0  0  0
   -7.1137  -24.0610   28.6110 O   0  0  0  0  0  0  0  0  0  0  0  0
   -9.1361  -23.2234   32.2129 C   0  0  0  0  0  0  0  0  0  0  0  0
   -8.6087  -23.2496   30.7980 C   0  0  2  0  0  0  0  0  0  0  0  0
   -7.1534  -23.3047   30.7740 N   0  0  0  0  0  0  0  0  0  0  0  0
   -9.1130  -22.0916   30.0221 C   0  0  0  0  0  0  0  0  0  0  0  0
   -8.4019  -21.0749   29.8747 O   0  0  0  0  0  0  0  0  0  0  0  0
  -10.3621  -22.1376   29.4658 O   0  0  0  0  0  0  0  0  0  0  0  0
  1  2  1  0
  3  2  1  0
  3  4  1  1
  5  3  1  0
  6  5  2  0
  8  7  1  0
  9  8  1  6
  9 10  1  0
 10  5  1  0
 11  9  1  0
 11 15  1  0
 12 11  2  0
 14 15  1  0
 14 13  1  1
 16 14  1  0
 16 18  1  0
 17 16  2  0
M  END
$$$$
