SSA.pdb
     RDKit          3D

 18 17  0  0  1  0  0  0  0  0999 V2000
   11.9013  -16.1768   20.2258 O   0  0  0  0  0  0  0  0  0  0  0  0
   11.3792  -16.5838   21.4368 C   0  0  0  0  0  0  0  0  0  0  0  0
    9.8860  -16.8595   21.2554 C   0  0  2  0  0  0  0  0  0  0  0  0
    9.4449  -16.0912   20.1125 N   0  0  0  0  0  0  0  0  0  0  0  0
    9.2202  -16.3199   22.4747 C   0  0  0  0  0  0  0  0  0  0  0  0
    8.8143  -15.1122   22.4972 O   0  0  0  0  0  0  0  0  0  0  0  0
    8.2439  -18.7036   25.7613 O   0  0  0  0  0  0  0  0  0  0  0  0
    7.4864  -17.5920   25.4370 C   0  0  0  0  0  0  0  0  0  0  0  0
    8.3420  -16.5218   24.7700 C   0  0  2  0  0  0  0  0  0  0  0  0
    9.0122  -17.0937   23.6289 N   0  0  0  0  0  0  0  0  0  0  0  0
    9.3345  -15.9808   25.7333 C   0  0  0  0  0  0  0  0  0  0  0  0
   10.5201  -16.3865   25.7908 O   0  0  0  0  0  0  0  0  0  0  0  0
    9.4223  -13.1024   28.2034 C   0  0  0  0  0  0  0  0  0  0  0  0
    9.8961  -14.4221   27.6423 C   0  0  2  0  0  0  0  0  0  0  0  0
    8.9610  -14.9472   26.6566 N   0  0  0  0  0  0  0  0  0  0  0  0
   10.1377  -15.4037   28.7264 C   0  0  0  0  0  0  0  0  0  0  0  0
    9.4329  -16.4316   28.8135 O   0  0  0  0  0  0  0  0  0  0  0  0
   11.1369  -15.1819   29.6344 O   0  0  0  0  0  0  0  0  0  0  0  0
  1  2  1  0
  3  2  1  0
  3  4  1  6
  5  3  1  0
  6  5  2  0
  8  7  1  0
  9  8  1  1
  9 10  1  0
 10  5  1  0
 11  9  1  0
 11 15  1  0
 12 11  2  0
 14 15  1  0
 14 13  1  1
 16 14  1  0
 16 18  1  0
 17 16  2  0
M  END
$$$$
