SSA.pdb
     RDKit          3D

 18 17  0  0  1  0  0  0  0  0999 V2000
   12.5759  -17.0558   22.3769 O   0  0  0  0  0  0  0  0  0  0  0  0
   11.5968  -17.9382   21.9674 C   0  0  0  0  0  0  0  0  0  0  0  0
   10.4290  -17.1366   21.3911 C   0  0  2  0  0  0  0  0  0  0  0  0
   10.9698  -16.2660   20.3709 N   0  0  0  0  0  0  0  0  0  0  0  0
    9.9194  -16.2953   22.5107 C   0  0  0  0  0  0  0  0  0  0  0  0
   10.2846  -15.0784   22.6104 O   0  0  0  0  0  0  0  0  0  0  0  0
    7.3163  -17.7690   25.4156 O   0  0  0  0  0  0  0  0  0  0  0  0
    7.2134  -16.4421   25.0370 C   0  0  0  0  0  0  0  0  0  0  0  0
    8.5475  -15.9138   24.5238 C   0  0  2  0  0  0  0  0  0  0  0  0
    9.0354  -16.7872   23.4858 N   0  0  0  0  0  0  0  0  0  0  0  0
    9.5310  -15.8322   25.6337 C   0  0  0  0  0  0  0  0  0  0  0  0
   10.4766  -16.6454   25.7679 O   0  0  0  0  0  0  0  0  0  0  0  0
   10.1843  -13.4180   28.5024 C   0  0  0  0  0  0  0  0  0  0  0  0
   10.3296  -14.7260   27.7615 C   0  0  2  0  0  0  0  0  0  0  0  0
    9.4304  -14.7918   26.6174 N   0  0  0  0  0  0  0  0  0  0  0  0
   10.1223  -15.8775   28.6716 C   0  0  0  0  0  0  0  0  0  0  0  0
    9.0894  -16.5744   28.5799 O   0  0  0  0  0  0  0  0  0  0  0  0
   11.0665  -16.1771   29.6154 O   0  0  0  0  0  0  0  0  0  0  0  0
  1  2  1  0
  3  2  1  0
  3  4  1  6
  5  3  1  0
  6  5  2  0
  8  7  1  0
  9  8  1  1
  9 10  1  0
 10  5  1  0
 11  9  1  0
 11 15  1  0
 12 11  2  0
 14 15  1  0
 14 13  1  1
 16 14  1  0
 16 18  1  0
 17 16  2  0
M  END
$$$$
