SSA.pdb
     RDKit          3D

 18 17  0  0  1  0  0  0  0  0999 V2000
    9.3590  -14.1290   20.3650 O   0  0  0  0  0  0  0  0  0  0  0  0
    9.1091  -15.3999   20.8415 C   0  0  0  0  0  0  0  0  0  0  0  0
    7.6136  -15.5244   21.1357 C   0  0  2  0  0  0  0  0  0  0  0  0
    6.9561  -14.4112   20.4878 N   0  0  0  0  0  0  0  0  0  0  0  0
    7.4731  -15.3645   22.6108 C   0  0  0  0  0  0  0  0  0  0  0  0
    7.1883  -14.2244   23.1037 O   0  0  0  0  0  0  0  0  0  0  0  0
    7.8355  -18.5602   25.3407 O   0  0  0  0  0  0  0  0  0  0  0  0
    6.8904  -17.5634   25.5077 C   0  0  0  0  0  0  0  0  0  0  0  0
    7.3720  -16.2464   24.9113 C   0  0  2  0  0  0  0  0  0  0  0  0
    7.6429  -16.4327   23.5076 N   0  0  0  0  0  0  0  0  0  0  0  0
    8.5934  -15.7781   25.6144 C   0  0  0  0  0  0  0  0  0  0  0  0
    9.7519  -15.9868   25.1812 O   0  0  0  0  0  0  0  0  0  0  0  0
    9.3122  -13.4062   28.4670 C   0  0  0  0  0  0  0  0  0  0  0  0
    9.6621  -14.5549   27.5511 C   0  0  2  0  0  0  0  0  0  0  0  0
    8.4872  -15.0507   26.8473 N   0  0  0  0  0  0  0  0  0  0  0  0
   10.3367  -15.6429   28.2983 C   0  0  0  0  0  0  0  0  0  0  0  0
    9.8106  -16.7735   28.3760 O   0  0  0  0  0  0  0  0  0  0  0  0
   11.5402  -15.4068   28.9049 O   0  0  0  0  0  0  0  0  0  0  0  0
  1  2  1  0
  3  2  1  0
  3  4  1  6
  5  3  1  0
  6  5  2  0
  8  7  1  0
  9  8  1  1
  9 10  1  0
 10  5  1  0
 11  9  1  0
 11 15  1  0
 12 11  2  0
 14 15  1  0
 14 13  1  1
 16 14  1  0
 16 18  1  0
 17 16  2  0
M  END
$$$$
