SSA.pdb
     RDKit          3D

 18 17  0  0  1  0  0  0  0  0999 V2000
   10.6056  -18.4928   17.0765 O   0  0  0  0  0  0  0  0  0  0  0  0
   10.7332  -17.7736   15.9056 C   0  0  0  0  0  0  0  0  0  0  0  0
    9.3450  -17.5966   15.2890 C   0  0  2  0  0  0  0  0  0  0  0  0
    9.5032  -16.7792   14.1066 N   0  0  0  0  0  0  0  0  0  0  0  0
    8.5481  -16.8326   16.2901 C   0  0  0  0  0  0  0  0  0  0  0  0
    8.3347  -15.5880   16.1187 O   0  0  0  0  0  0  0  0  0  0  0  0
    6.7792  -18.6033   19.6786 O   0  0  0  0  0  0  0  0  0  0  0  0
    6.1430  -17.5981   18.9720 C   0  0  0  0  0  0  0  0  0  0  0  0
    7.1540  -16.6647   18.3171 C   0  0  2  0  0  0  0  0  0  0  0  0
    8.0069  -17.4290   17.4415 N   0  0  0  0  0  0  0  0  0  0  0  0
    7.9642  -15.9740   19.3525 C   0  0  0  0  0  0  0  0  0  0  0  0
    9.0625  -16.4166   19.7662 O   0  0  0  0  0  0  0  0  0  0  0  0
    7.6559  -12.6971   21.2729 C   0  0  0  0  0  0  0  0  0  0  0  0
    8.2832  -14.0286   20.9345 C   0  0  2  0  0  0  0  0  0  0  0  0
    7.5058  -14.7429   19.9310 N   0  0  0  0  0  0  0  0  0  0  0  0
    8.4699  -14.8523   22.1526 C   0  0  0  0  0  0  0  0  0  0  0  0
    7.6528  -15.7548   22.4336 O   0  0  0  0  0  0  0  0  0  0  0  0
    9.5415  -14.6224   22.9716 O   0  0  0  0  0  0  0  0  0  0  0  0
  1  2  1  0
  3  2  1  0
  3  4  1  6
  5  3  1  0
  6  5  2  0
  8  7  1  0
  9  8  1  1
  9 10  1  0
 10  5  1  0
 11  9  1  0
 11 15  1  0
 12 11  2  0
 14 15  1  0
 14 13  1  1
 16 14  1  0
 16 18  1  0
 17 16  2  0
M  END
$$$$
