HKS.pdb
     RDKit          3D

 26 26  0  0  1  0  0  0  0  0999 V2000
   19.7638  -12.1167  -16.2197 N   0  0  0  0  0  0  0  0  0  0  0  0
   19.0400  -10.8701  -16.3576 C   0  0  1  0  0  0  0  0  0  0  0  0
   18.0274  -10.7105  -15.2463 C   0  0  0  0  0  0  0  0  0  0  0  0
   16.9140  -11.6652  -15.4879 C   0  0  0  0  0  0  0  0  0  0  0  0
   16.7315  -12.5434  -16.5222 C   0  0  0  0  0  0  0  0  0  0  0  0
   15.5829  -13.2366  -16.3680 N   0  0  0  0  0  0  0  0  0  0  0  0
   15.0419  -12.7820  -15.2187 C   0  0  0  0  0  0  0  0  0  0  0  0
   15.8353  -11.8306  -14.6738 N   0  0  0  0  0  0  0  0  0  0  0  0
   19.9933   -9.7674  -16.4337 C   0  0  0  0  0  0  0  0  0  0  0  0
   20.9981   -9.7748  -15.6982 O   0  0  0  0  0  0  0  0  0  0  0  0
   19.8793   -8.6464  -17.2982 N   0  0  0  0  0  0  0  0  0  0  0  0
   20.8720   -7.6567  -17.3575 C   0  0  1  0  0  0  0  0  0  0  0  0
   21.1472   -6.9922  -18.6444 C   0  0  0  0  0  0  0  0  0  0  0  0
   22.2858   -6.0169  -18.5981 C   0  0  0  0  0  0  0  0  0  0  0  0
   22.6673   -5.3559  -19.8687 C   0  0  0  0  0  0  0  0  0  0  0  0
   23.9083   -4.5041  -19.6474 C   0  0  0  0  0  0  0  0  0  0  0  0
   24.1985   -3.7302  -20.8499 N   0  0  0  0  0  0  0  0  0  0  0  0
   20.5991   -6.6763  -16.2716 C   0  0  0  0  0  0  0  0  0  0  0  0
   19.4885   -6.1085  -16.1282 O   0  0  0  0  0  0  0  0  0  0  0  0
   20.8390   -6.9020  -12.5984 O   0  0  0  0  0  0  0  0  0  0  0  0
   21.7602   -5.9658  -13.0147 C   0  0  0  0  0  0  0  0  0  0  0  0
   21.3932   -5.3372  -14.3419 C   0  0  2  0  0  0  0  0  0  0  0  0
   21.6288   -6.3627  -15.3542 N   0  0  0  0  0  0  0  0  0  0  0  0
   22.1733   -4.1439  -14.6495 C   0  0  0  0  0  0  0  0  0  0  0  0
   22.1373   -3.1482  -13.8984 O   0  0  0  0  0  0  0  0  0  0  0  0
   22.9611   -4.1079  -15.7798 O   0  0  0  0  0  0  0  0  0  0  0  0
  2  1  1  1
  2  9  1  0
  2  3  1  0
  3  4  1  0
  4  5  2  0
  5  6  1  0
  7  6  1  0
  8  4  1  0
  8  7  2  0
  9 10  2  0
 11 12  1  0
 11  9  1  0
 12 13  1  6
 13 14  1  0
 14 15  1  0
 15 16  1  0
 16 17  1  0
 18 23  1  0
 18 12  1  0
 19 18  2  0
 20 21  1  0
 22 21  1  1
 22 23  1  0
 24 22  1  0
 24 26  1  0
 25 24  2  0
M  END
$$$$
