HKS.pdb
     RDKit          3D

 26 26  0  0  1  0  0  0  0  0999 V2000
   23.1808  -11.1028  -20.4076 N   0  0  0  0  0  0  0  0  0  0  0  0
   22.1880  -10.2421  -21.0161 C   0  0  1  0  0  0  0  0  0  0  0  0
   21.8894  -10.6824  -22.4312 C   0  0  0  0  0  0  0  0  0  0  0  0
   23.1180  -10.4981  -23.2473 C   0  0  0  0  0  0  0  0  0  0  0  0
   23.9280  -11.4397  -23.8229 C   0  0  0  0  0  0  0  0  0  0  0  0
   24.9488  -10.8557  -24.4866 N   0  0  0  0  0  0  0  0  0  0  0  0
   24.7707   -9.5286  -24.3210 C   0  0  0  0  0  0  0  0  0  0  0  0
   23.6670   -9.2956  -23.5733 N   0  0  0  0  0  0  0  0  0  0  0  0
   21.0046  -10.1964  -20.1630 C   0  0  0  0  0  0  0  0  0  0  0  0
   20.0204   -9.5206  -20.5170 O   0  0  0  0  0  0  0  0  0  0  0  0
   20.8642  -10.8740  -18.9227 N   0  0  0  0  0  0  0  0  0  0  0  0
   19.6917  -10.7777  -18.1583 C   0  0  1  0  0  0  0  0  0  0  0  0
   19.3515  -11.8673  -17.2253 C   0  0  0  0  0  0  0  0  0  0  0  0
   17.9858  -11.7477  -16.6169 C   0  0  0  0  0  0  0  0  0  0  0  0
   17.5703  -12.8049  -15.6648 C   0  0  0  0  0  0  0  0  0  0  0  0
   16.1235  -12.5791  -15.2521 C   0  0  0  0  0  0  0  0  0  0  0  0
   15.6879  -13.6535  -14.3661 N   0  0  0  0  0  0  0  0  0  0  0  0
   19.6977   -9.4501  -17.4856 C   0  0  0  0  0  0  0  0  0  0  0  0
   20.6647   -9.0374  -16.7993 O   0  0  0  0  0  0  0  0  0  0  0  0
   18.0333   -6.0498  -19.0010 O   0  0  0  0  0  0  0  0  0  0  0  0
   17.5782   -6.4523  -17.7644 C   0  0  0  0  0  0  0  0  0  0  0  0
   18.5963   -7.2803  -17.0100 C   0  0  2  0  0  0  0  0  0  0  0  0
   18.5699   -8.6072  -17.6187 N   0  0  0  0  0  0  0  0  0  0  0  0
   18.3137   -7.3805  -15.5826 C   0  0  0  0  0  0  0  0  0  0  0  0
   17.4271   -8.1507  -15.1613 O   0  0  0  0  0  0  0  0  0  0  0  0
   19.0292   -6.6197  -14.6833 O   0  0  0  0  0  0  0  0  0  0  0  0
  2  1  1  1
  2  9  1  0
  2  3  1  0
  3  4  1  0
  4  5  2  0
  5  6  1  0
  7  6  1  0
  8  4  1  0
  8  7  2  0
  9 10  2  0
 11 12  1  0
 11  9  1  0
 12 13  1  1
 13 14  1  0
 14 15  1  0
 15 16  1  0
 16 17  1  0
 18 23  1  0
 18 12  1  0
 19 18  2  0
 20 21  1  0
 22 21  1  6
 22 23  1  0
 24 22  1  0
 24 26  1  0
 25 24  2  0
M  END
$$$$
