HKS.pdb
     RDKit          3D

 26 26  0  0  1  0  0  0  0  0999 V2000
   15.9600  -23.8925   -6.4451 N   0  0  0  0  0  0  0  0  0  0  0  0
   16.0948  -24.6801   -5.2376 C   0  0  1  0  0  0  0  0  0  0  0  0
   17.5031  -25.2116   -5.0966 C   0  0  0  0  0  0  0  0  0  0  0  0
   17.8518  -25.9476   -6.3400 C   0  0  0  0  0  0  0  0  0  0  0  0
   18.6168  -25.5458   -7.4019 C   0  0  0  0  0  0  0  0  0  0  0  0
   18.6903  -26.5172   -8.3370 N   0  0  0  0  0  0  0  0  0  0  0  0
   17.9588  -27.5403   -7.8487 C   0  0  0  0  0  0  0  0  0  0  0  0
   17.4446  -27.2114   -6.6408 N   0  0  0  0  0  0  0  0  0  0  0  0
   15.6602  -23.8840   -4.0941 C   0  0  0  0  0  0  0  0  0  0  0  0
   16.0761  -22.7172   -3.9669 O   0  0  0  0  0  0  0  0  0  0  0  0
   14.7761  -24.3301   -3.0760 N   0  0  0  0  0  0  0  0  0  0  0  0
   14.3072  -23.4656   -2.0755 C   0  0  1  0  0  0  0  0  0  0  0  0
   12.8543  -23.2721   -1.9169 C   0  0  0  0  0  0  0  0  0  0  0  0
   12.2203  -22.4712   -3.0153 C   0  0  0  0  0  0  0  0  0  0  0  0
   10.7653  -22.2082   -2.9126 C   0  0  0  0  0  0  0  0  0  0  0  0
   10.2888  -21.4841   -4.1628 C   0  0  0  0  0  0  0  0  0  0  0  0
    8.8372  -21.3395   -4.1284 N   0  0  0  0  0  0  0  0  0  0  0  0
   14.9597  -23.8573   -0.7965 C   0  0  0  0  0  0  0  0  0  0  0  0
   15.2582  -25.0447   -0.5186 O   0  0  0  0  0  0  0  0  0  0  0  0
   16.1018  -20.8621    1.8359 O   0  0  0  0  0  0  0  0  0  0  0  0
   16.8436  -22.0173    1.7186 C   0  0  0  0  0  0  0  0  0  0  0  0
   15.9962  -23.2204    1.3639 C   0  0  2  0  0  0  0  0  0  0  0  0
   15.2620  -22.8561    0.1555 N   0  0  0  0  0  0  0  0  0  0  0  0
   15.0635  -23.5994    2.4192 C   0  0  0  0  0  0  0  0  0  0  0  0
   13.8318  -23.4993    2.2469 O   0  0  0  0  0  0  0  0  0  0  0  0
   15.5397  -24.0742    3.6222 O   0  0  0  0  0  0  0  0  0  0  0  0
  2  1  1  6
  2  9  1  0
  2  3  1  0
  3  4  1  0
  4  5  2  0
  5  6  1  0
  7  6  1  0
  8  4  1  0
  8  7  2  0
  9 10  2  0
 11 12  1  0
 11  9  1  0
 12 13  1  1
 13 14  1  0
 14 15  1  0
 15 16  1  0
 16 17  1  0
 18 23  1  0
 18 12  1  0
 19 18  2  0
 20 21  1  0
 22 21  1  1
 22 23  1  0
 24 22  1  0
 24 26  1  0
 25 24  2  0
M  END
$$$$
