HKS.pdb
     RDKit          3D

 26 26  0  0  1  0  0  0  0  0999 V2000
   16.5607  -10.1047  -14.7060 N   0  0  0  0  0  0  0  0  0  0  0  0
   17.2263   -9.8543  -13.4447 C   0  0  1  0  0  0  0  0  0  0  0  0
   18.4558   -8.9978  -13.6463 C   0  0  0  0  0  0  0  0  0  0  0  0
   19.4256   -9.7599  -14.4757 C   0  0  0  0  0  0  0  0  0  0  0  0
   19.3137  -11.0156  -15.0097 C   0  0  0  0  0  0  0  0  0  0  0  0
   20.4239  -11.3436  -15.7050 N   0  0  0  0  0  0  0  0  0  0  0  0
   21.2400  -10.2741  -15.6017 C   0  0  0  0  0  0  0  0  0  0  0  0
   20.6504   -9.3071  -14.8609 N   0  0  0  0  0  0  0  0  0  0  0  0
   16.2702   -9.2806  -12.5029 C   0  0  0  0  0  0  0  0  0  0  0  0
   15.4986   -8.3812  -12.8853 O   0  0  0  0  0  0  0  0  0  0  0  0
   16.1316   -9.6648  -11.1426 N   0  0  0  0  0  0  0  0  0  0  0  0
   15.1289   -9.1258  -10.3225 C   0  0  1  0  0  0  0  0  0  0  0  0
   14.3147  -10.0333   -9.4936 C   0  0  0  0  0  0  0  0  0  0  0  0
   13.3078  -10.8311  -10.2679 C   0  0  0  0  0  0  0  0  0  0  0  0
   12.3537  -11.6585   -9.4923 C   0  0  0  0  0  0  0  0  0  0  0  0
   11.3843  -12.3449  -10.4430 C   0  0  0  0  0  0  0  0  0  0  0  0
   10.5283  -13.2633   -9.6996 N   0  0  0  0  0  0  0  0  0  0  0  0
   15.7411   -8.0344   -9.5169 C   0  0  0  0  0  0  0  0  0  0  0  0
   16.9490   -8.0345   -9.1744 O   0  0  0  0  0  0  0  0  0  0  0  0
   17.0498   -4.0153   -9.3386 O   0  0  0  0  0  0  0  0  0  0  0  0
   16.5371   -5.2622   -9.6228 C   0  0  0  0  0  0  0  0  0  0  0  0
   15.5754   -5.7525   -8.5617 C   0  0  2  0  0  0  0  0  0  0  0  0
   14.9363   -6.9435   -9.1140 N   0  0  0  0  0  0  0  0  0  0  0  0
   14.5640   -4.7655   -8.2006 C   0  0  0  0  0  0  0  0  0  0  0  0
   13.4894   -4.6950   -8.8307 O   0  0  0  0  0  0  0  0  0  0  0  0
   14.7901   -3.8983   -7.1536 O   0  0  0  0  0  0  0  0  0  0  0  0
  2  1  1  6
  2  9  1  0
  2  3  1  0
  3  4  1  0
  4  5  2  0
  5  6  1  0
  7  6  1  0
  8  4  1  0
  8  7  2  0
  9 10  2  0
 11 12  1  0
 11  9  1  0
 12 13  1  1
 13 14  1  0
 14 15  1  0
 15 16  1  0
 16 17  1  0
 18 23  1  0
 18 12  1  0
 19 18  2  0
 20 21  1  0
 22 21  1  6
 22 23  1  0
 24 22  1  0
 24 26  1  0
 25 24  2  0
M  END
$$$$
