HKS.pdb
     RDKit          3D

 26 26  0  0  1  0  0  0  0  0999 V2000
   19.8083  -12.2800  -17.1643 N   0  0  0  0  0  0  0  0  0  0  0  0
   19.7652  -10.9914  -17.8233 C   0  0  1  0  0  0  0  0  0  0  0  0
   18.3541  -10.4497  -17.8533 C   0  0  0  0  0  0  0  0  0  0  0  0
   17.5185  -11.3669  -18.6718 C   0  0  0  0  0  0  0  0  0  0  0  0
   17.6214  -11.6835  -19.9997 C   0  0  0  0  0  0  0  0  0  0  0  0
   16.6624  -12.5632  -20.3604 N   0  0  0  0  0  0  0  0  0  0  0  0
   15.9512  -12.7977  -19.2381 C   0  0  0  0  0  0  0  0  0  0  0  0
   16.4566  -12.0812  -18.2072 N   0  0  0  0  0  0  0  0  0  0  0  0
   20.7165  -10.0909  -17.1795 C   0  0  0  0  0  0  0  0  0  0  0  0
   20.7106   -9.9788  -15.9394 O   0  0  0  0  0  0  0  0  0  0  0  0
   21.6832   -9.3019  -17.8579 N   0  0  0  0  0  0  0  0  0  0  0  0
   22.5792   -8.4751  -17.1637 C   0  0  1  0  0  0  0  0  0  0  0  0
   23.9033   -8.1993  -17.7504 C   0  0  0  0  0  0  0  0  0  0  0  0
   24.7446   -9.4226  -17.9639 C   0  0  0  0  0  0  0  0  0  0  0  0
   25.9899   -9.2627  -18.7516 C   0  0  0  0  0  0  0  0  0  0  0  0
   26.6317  -10.6243  -18.9722 C   0  0  0  0  0  0  0  0  0  0  0  0
   27.7411  -10.5023  -19.9121 N   0  0  0  0  0  0  0  0  0  0  0  0
   21.8567   -7.2239  -16.8068 C   0  0  0  0  0  0  0  0  0  0  0  0
   21.1447   -6.5903  -17.6241 O   0  0  0  0  0  0  0  0  0  0  0  0
   19.4716   -4.7207  -13.7824 O   0  0  0  0  0  0  0  0  0  0  0  0
   20.1537   -5.8254  -14.2435 C   0  0  0  0  0  0  0  0  0  0  0  0
   21.3072   -5.4602  -15.1531 C   0  0  2  0  0  0  0  0  0  0  0  0
   21.9694   -6.7168  -15.4913 N   0  0  0  0  0  0  0  0  0  0  0  0
   22.2600   -4.5445  -14.5357 C   0  0  0  0  0  0  0  0  0  0  0  0
   23.2904   -4.9766  -13.9804 O   0  0  0  0  0  0  0  0  0  0  0  0
   22.0270   -3.1864  -14.5620 O   0  0  0  0  0  0  0  0  0  0  0  0
  2  1  1  1
  2  9  1  0
  2  3  1  0
  3  4  1  0
  4  5  2  0
  5  6  1  0
  7  6  1  0
  8  4  1  0
  8  7  2  0
  9 10  2  0
 11 12  1  0
 11  9  1  0
 12 13  1  6
 13 14  1  0
 14 15  1  0
 15 16  1  0
 16 17  1  0
 18 23  1  0
 18 12  1  0
 19 18  2  0
 20 21  1  0
 22 21  1  1
 22 23  1  0
 24 22  1  0
 24 26  1  0
 25 24  2  0
M  END
$$$$
