HKS.pdb
     RDKit          3D

 26 26  0  0  1  0  0  0  0  0999 V2000
   24.6122  -35.8393   -9.9608 N   0  0  0  0  0  0  0  0  0  0  0  0
   25.8758  -35.4131   -9.3964 C   0  0  1  0  0  0  0  0  0  0  0  0
   25.9862  -33.9053   -9.4028 C   0  0  0  0  0  0  0  0  0  0  0  0
   26.0962  -33.4505  -10.8137 C   0  0  0  0  0  0  0  0  0  0  0  0
   26.0549  -34.1843  -11.9687 C   0  0  0  0  0  0  0  0  0  0  0  0
   26.1917  -33.3875  -13.0503 N   0  0  0  0  0  0  0  0  0  0  0  0
   26.3201  -32.1372  -12.5599 C   0  0  0  0  0  0  0  0  0  0  0  0
   26.2644  -32.1583  -11.2078 N   0  0  0  0  0  0  0  0  0  0  0  0
   26.0302  -35.9984   -8.0684 C   0  0  0  0  0  0  0  0  0  0  0  0
   25.0377  -36.0949   -7.3226 O   0  0  0  0  0  0  0  0  0  0  0  0
   27.2492  -36.4858   -7.5265 N   0  0  0  0  0  0  0  0  0  0  0  0
   27.2955  -37.1409   -6.2867 C   0  0  1  0  0  0  0  0  0  0  0  0
   28.4206  -38.0480   -5.9956 C   0  0  0  0  0  0  0  0  0  0  0  0
   28.5139  -39.2239   -6.9219 C   0  0  0  0  0  0  0  0  0  0  0  0
   29.6177  -40.1858   -6.6912 C   0  0  0  0  0  0  0  0  0  0  0  0
   29.5657  -40.6862   -5.2554 C   0  0  0  0  0  0  0  0  0  0  0  0
   30.6216  -41.6688   -5.0350 N   0  0  0  0  0  0  0  0  0  0  0  0
   27.1196  -36.1131   -5.2248 C   0  0  0  0  0  0  0  0  0  0  0  0
   27.3761  -34.8971   -5.4031 O   0  0  0  0  0  0  0  0  0  0  0  0
   25.1427  -35.2978   -0.8846 O   0  0  0  0  0  0  0  0  0  0  0  0
   25.4650  -36.1436   -1.9234 C   0  0  0  0  0  0  0  0  0  0  0  0
   26.3789  -35.4949   -2.9409 C   0  0  2  0  0  0  0  0  0  0  0  0
   26.6426  -36.5121   -3.9546 N   0  0  0  0  0  0  0  0  0  0  0  0
   27.6350  -35.0231   -2.3689 C   0  0  0  0  0  0  0  0  0  0  0  0
   28.6021  -35.7988   -2.2289 O   0  0  0  0  0  0  0  0  0  0  0  0
   27.7628  -33.7081   -1.9767 O   0  0  0  0  0  0  0  0  0  0  0  0
  2  1  1  1
  2  9  1  0
  2  3  1  0
  3  4  1  0
  4  5  2  0
  5  6  1  0
  7  6  1  0
  8  4  1  0
  8  7  2  0
  9 10  2  0
 11 12  1  0
 11  9  1  0
 12 13  1  1
 13 14  1  0
 14 15  1  0
 15 16  1  0
 16 17  1  0
 18 23  1  0
 18 12  1  0
 19 18  2  0
 20 21  1  0
 22 21  1  1
 22 23  1  0
 24 22  1  0
 24 26  1  0
 25 24  2  0
M  END
$$$$
