HKS.pdb
     RDKit          3D

 26 26  0  0  1  0  0  0  0  0999 V2000
   18.9864  -13.0154  -18.7651 N   0  0  0  0  0  0  0  0  0  0  0  0
   19.2563  -12.7896  -17.3605 C   0  0  1  0  0  0  0  0  0  0  0  0
   20.6959  -13.1131  -17.0309 C   0  0  0  0  0  0  0  0  0  0  0  0
   20.9173  -14.5623  -17.2758 C   0  0  0  0  0  0  0  0  0  0  0  0
   20.0198  -15.5282  -17.6443 C   0  0  0  0  0  0  0  0  0  0  0  0
   20.6268  -16.7285  -17.7647 N   0  0  0  0  0  0  0  0  0  0  0  0
   21.9235  -16.5055  -17.4660 C   0  0  0  0  0  0  0  0  0  0  0  0
   22.1157  -15.1994  -17.1679 N   0  0  0  0  0  0  0  0  0  0  0  0
   18.8762  -11.4243  -17.0120 C   0  0  0  0  0  0  0  0  0  0  0  0
   19.0905  -10.5033  -17.8223 O   0  0  0  0  0  0  0  0  0  0  0  0
   18.2629  -11.0323  -15.7924 N   0  0  0  0  0  0  0  0  0  0  0  0
   17.8448   -9.7120  -15.5680 C   0  0  1  0  0  0  0  0  0  0  0  0
   16.6161   -9.4705  -14.7900 C   0  0  0  0  0  0  0  0  0  0  0  0
   15.3918  -10.1212  -15.3623 C   0  0  0  0  0  0  0  0  0  0  0  0
   14.1106   -9.9062  -14.6488 C   0  0  0  0  0  0  0  0  0  0  0  0
   12.9824  -10.5842  -15.4118 C   0  0  0  0  0  0  0  0  0  0  0  0
   11.6975  -10.2148  -14.8273 N   0  0  0  0  0  0  0  0  0  0  0  0
   19.0057   -8.9558  -15.0245 C   0  0  0  0  0  0  0  0  0  0  0  0
   19.9176   -9.4964  -14.3518 O   0  0  0  0  0  0  0  0  0  0  0  0
   22.6393   -6.8702  -15.5755 O   0  0  0  0  0  0  0  0  0  0  0  0
   21.4334   -7.5246  -15.7020 C   0  0  0  0  0  0  0  0  0  0  0  0
   20.3239   -6.8586  -14.9167 C   0  0  2  0  0  0  0  0  0  0  0  0
   19.0967   -7.5661  -15.2707 N   0  0  0  0  0  0  0  0  0  0  0  0
   20.1829   -5.4371  -15.2111 C   0  0  0  0  0  0  0  0  0  0  0  0
   20.6734   -4.5776  -14.4513 O   0  0  0  0  0  0  0  0  0  0  0  0
   19.5021   -5.0309  -16.3385 O   0  0  0  0  0  0  0  0  0  0  0  0
  2  1  1  6
  2  9  1  0
  2  3  1  0
  3  4  1  0
  4  5  2  0
  5  6  1  0
  7  6  1  0
  8  4  1  0
  8  7  2  0
  9 10  2  0
 11 12  1  0
 11  9  1  0
 12 13  1  1
 13 14  1  0
 14 15  1  0
 15 16  1  0
 16 17  1  0
 18 23  1  0
 18 12  1  0
 19 18  2  0
 20 21  1  0
 22 21  1  6
 22 23  1  0
 24 22  1  0
 24 26  1  0
 25 24  2  0
M  END
$$$$
