HKS.pdb
     RDKit          3D

 26 26  0  0  1  0  0  0  0  0999 V2000
   16.9232  -12.0612  -15.8774 N   0  0  0  0  0  0  0  0  0  0  0  0
   17.3587  -10.8636  -16.5650 C   0  0  1  0  0  0  0  0  0  0  0  0
   16.2030   -9.9106  -16.7694 C   0  0  0  0  0  0  0  0  0  0  0  0
   15.2735  -10.5092  -17.7629 C   0  0  0  0  0  0  0  0  0  0  0  0
   14.9030  -10.0443  -18.9962 C   0  0  0  0  0  0  0  0  0  0  0  0
   14.0328  -10.8905  -19.5880 N   0  0  0  0  0  0  0  0  0  0  0  0
   13.8590  -11.8985  -18.7082 C   0  0  0  0  0  0  0  0  0  0  0  0
   14.6030  -11.6826  -17.5985 N   0  0  0  0  0  0  0  0  0  0  0  0
   18.4751  -10.2704  -15.8358 C   0  0  0  0  0  0  0  0  0  0  0  0
   18.4482  -10.2434  -14.5911 O   0  0  0  0  0  0  0  0  0  0  0  0
   19.6310   -9.7004  -16.4327 N   0  0  0  0  0  0  0  0  0  0  0  0
   20.6804   -9.1812  -15.6597 C   0  0  1  0  0  0  0  0  0  0  0  0
   22.0487   -9.6858  -15.8755 C   0  0  0  0  0  0  0  0  0  0  0  0
   22.5431   -9.5307  -17.2831 C   0  0  0  0  0  0  0  0  0  0  0  0
   23.8408  -10.1616  -17.6217 C   0  0  0  0  0  0  0  0  0  0  0  0
   24.1721   -9.8936  -19.0821 C   0  0  0  0  0  0  0  0  0  0  0  0
   25.3986  -10.5941  -19.4482 N   0  0  0  0  0  0  0  0  0  0  0  0
   20.6143   -7.6969  -15.7453 C   0  0  0  0  0  0  0  0  0  0  0  0
   20.3287   -7.0867  -16.8048 O   0  0  0  0  0  0  0  0  0  0  0  0
   20.1360   -3.5758  -13.4410 O   0  0  0  0  0  0  0  0  0  0  0  0
   20.0589   -4.9453  -13.5714 C   0  0  0  0  0  0  0  0  0  0  0  0
   20.9268   -5.4735  -14.6935 C   0  0  2  0  0  0  0  0  0  0  0  0
   20.8826   -6.9292  -14.5883 N   0  0  0  0  0  0  0  0  0  0  0  0
   22.3077   -5.0097  -14.6209 C   0  0  0  0  0  0  0  0  0  0  0  0
   23.1800   -5.6935  -14.0480 O   0  0  0  0  0  0  0  0  0  0  0  0
   22.6608   -3.8046  -15.1888 O   0  0  0  0  0  0  0  0  0  0  0  0
  2  1  1  1
  2  9  1  0
  2  3  1  0
  3  4  1  0
  4  5  2  0
  5  6  1  0
  7  6  1  0
  8  4  1  0
  8  7  2  0
  9 10  2  0
 11 12  1  0
 11  9  1  0
 12 13  1  6
 13 14  1  0
 14 15  1  0
 15 16  1  0
 16 17  1  0
 18 23  1  0
 18 12  1  0
 19 18  2  0
 20 21  1  0
 22 21  1  1
 22 23  1  0
 24 22  1  0
 24 26  1  0
 25 24  2  0
M  END
$$$$
