HKS.pdb
     RDKit          3D

 26 26  0  0  1  0  0  0  0  0999 V2000
   16.9853  -18.9353    2.4007 N   0  0  0  0  0  0  0  0  0  0  0  0
   16.3895  -18.4135    3.6129 C   0  0  1  0  0  0  0  0  0  0  0  0
   15.6758  -19.5068    4.3751 C   0  0  0  0  0  0  0  0  0  0  0  0
   14.6192  -20.0753    3.4977 C   0  0  0  0  0  0  0  0  0  0  0  0
   13.2640  -19.8850    3.5347 C   0  0  0  0  0  0  0  0  0  0  0  0
   12.6527  -20.5859    2.5556 N   0  0  0  0  0  0  0  0  0  0  0  0
   13.6443  -21.2228    1.8987 C   0  0  0  0  0  0  0  0  0  0  0  0
   14.8405  -20.9242    2.4566 N   0  0  0  0  0  0  0  0  0  0  0  0
   17.4156  -17.7359    4.3991 C   0  0  0  0  0  0  0  0  0  0  0  0
   18.5845  -18.1650    4.3800 O   0  0  0  0  0  0  0  0  0  0  0  0
   17.1997  -16.5923    5.2132 N   0  0  0  0  0  0  0  0  0  0  0  0
   18.2596  -15.9299    5.8506 C   0  0  1  0  0  0  0  0  0  0  0  0
   18.1569  -14.4795    6.0940 C   0  0  0  0  0  0  0  0  0  0  0  0
   19.4309  -13.8475    6.5708 C   0  0  0  0  0  0  0  0  0  0  0  0
   19.4429  -12.3734    6.7246 C   0  0  0  0  0  0  0  0  0  0  0  0
   20.8494  -11.9087    7.0718 C   0  0  0  0  0  0  0  0  0  0  0  0
   20.8602  -10.4619    7.2606 N   0  0  0  0  0  0  0  0  0  0  0  0
   18.5810  -16.6819    7.0940 C   0  0  0  0  0  0  0  0  0  0  0  0
   17.7920  -17.5081    7.6148 O   0  0  0  0  0  0  0  0  0  0  0  0
   20.9472  -19.5283    9.3077 O   0  0  0  0  0  0  0  0  0  0  0  0
   20.5008  -18.6613    8.3343 C   0  0  0  0  0  0  0  0  0  0  0  0
   20.1943  -17.2824    8.8783 C   0  0  2  0  0  0  0  0  0  0  0  0
   19.8277  -16.4648    7.7255 N   0  0  0  0  0  0  0  0  0  0  0  0
   21.3197  -16.6772    9.5815 C   0  0  0  0  0  0  0  0  0  0  0  0
   21.8572  -15.6380    9.1480 O   0  0  0  0  0  0  0  0  0  0  0  0
   21.8003  -17.2532   10.7377 O   0  0  0  0  0  0  0  0  0  0  0  0
  2  1  1  6
  2  9  1  0
  2  3  1  0
  3  4  1  0
  4  5  2  0
  5  6  1  0
  7  6  1  0
  8  4  1  0
  8  7  2  0
  9 10  2  0
 11 12  1  0
 11  9  1  0
 12 13  1  1
 13 14  1  0
 14 15  1  0
 15 16  1  0
 16 17  1  0
 18 23  1  0
 18 12  1  0
 19 18  2  0
 20 21  1  0
 22 21  1  6
 22 23  1  0
 24 22  1  0
 24 26  1  0
 25 24  2  0
M  END
$$$$
