HKS.pdb
     RDKit          3D

 26 26  0  0  1  0  0  0  0  0999 V2000
   19.9293  -12.1972  -16.2312 N   0  0  0  0  0  0  0  0  0  0  0  0
   19.4507  -10.8899  -16.6295 C   0  0  1  0  0  0  0  0  0  0  0  0
   18.1666  -10.5452  -15.9098 C   0  0  0  0  0  0  0  0  0  0  0  0
   17.1166  -11.5046  -16.3417 C   0  0  0  0  0  0  0  0  0  0  0  0
   16.5542  -12.5453  -15.6525 C   0  0  0  0  0  0  0  0  0  0  0  0
   15.6283  -13.1769  -16.4058 N   0  0  0  0  0  0  0  0  0  0  0  0
   15.6147  -12.5181  -17.5831 C   0  0  0  0  0  0  0  0  0  0  0  0
   16.5097  -11.5033  -17.5604 N   0  0  0  0  0  0  0  0  0  0  0  0
   20.5103   -9.9075  -16.4238 C   0  0  0  0  0  0  0  0  0  0  0  0
   21.0897   -9.8533  -15.3228 O   0  0  0  0  0  0  0  0  0  0  0  0
   20.9594   -8.9738  -17.3952 N   0  0  0  0  0  0  0  0  0  0  0  0
   21.9566   -8.0303  -17.1057 C   0  0  1  0  0  0  0  0  0  0  0  0
   22.9414   -7.6842  -18.1467 C   0  0  0  0  0  0  0  0  0  0  0  0
   23.6949   -8.8611  -18.6915 C   0  0  0  0  0  0  0  0  0  0  0  0
   24.7273   -8.5908  -19.7200 C   0  0  0  0  0  0  0  0  0  0  0  0
   25.3743   -9.8994  -20.1488 C   0  0  0  0  0  0  0  0  0  0  0  0
   26.2879   -9.6589  -21.2608 N   0  0  0  0  0  0  0  0  0  0  0  0
   21.2890   -6.8231  -16.5472 C   0  0  0  0  0  0  0  0  0  0  0  0
   20.3504   -6.2299  -17.1333 O   0  0  0  0  0  0  0  0  0  0  0  0
   19.4100   -4.5660  -13.1257 O   0  0  0  0  0  0  0  0  0  0  0  0
   20.0139   -5.5966  -13.8125 C   0  0  0  0  0  0  0  0  0  0  0  0
   21.0875   -5.1128  -14.7635 C   0  0  2  0  0  0  0  0  0  0  0  0
   21.7223   -6.3126  -15.3015 N   0  0  0  0  0  0  0  0  0  0  0  0
   22.0861   -4.2651  -14.1219 C   0  0  0  0  0  0  0  0  0  0  0  0
   23.1413   -4.7541  -13.6701 O   0  0  0  0  0  0  0  0  0  0  0  0
   21.8693   -2.9086  -14.0097 O   0  0  0  0  0  0  0  0  0  0  0  0
  2  1  1  1
  2  9  1  0
  2  3  1  0
  3  4  1  0
  4  5  2  0
  5  6  1  0
  7  6  1  0
  8  4  1  0
  8  7  2  0
  9 10  2  0
 11 12  1  0
 11  9  1  0
 12 13  1  6
 13 14  1  0
 14 15  1  0
 15 16  1  0
 16 17  1  0
 18 23  1  0
 18 12  1  0
 19 18  2  0
 20 21  1  0
 22 21  1  1
 22 23  1  0
 24 22  1  0
 24 26  1  0
 25 24  2  0
M  END
$$$$
