AST.pdb
     RDKit          3D

 19 18  0  0  1  0  0  0  0  0999 V2000
    8.2921  -12.2824   19.4593 C   0  0  0  0  0  0  0  0  0  0  0  0
    8.3750  -13.7911   19.3648 C   0  0  2  0  0  0  0  0  0  0  0  0
    7.5812  -14.2102   18.2303 N   0  0  0  0  0  0  0  0  0  0  0  0
    7.8910  -14.3798   20.6323 C   0  0  0  0  0  0  0  0  0  0  0  0
    6.6511  -14.5560   20.7477 O   0  0  0  0  0  0  0  0  0  0  0  0
   10.1246  -16.7807   22.9359 O   0  0  0  0  0  0  0  0  0  0  0  0
    8.7516  -16.8532   22.9366 C   0  0  0  0  0  0  0  0  0  0  0  0
    8.1830  -15.4393   22.8753 C   0  0  2  0  0  0  0  0  0  0  0  0
    8.7128  -14.7544   21.7115 N   0  0  0  0  0  0  0  0  0  0  0  0
    8.5755  -14.6615   24.0862 C   0  0  0  0  0  0  0  0  0  0  0  0
    9.6882  -14.0712   24.1704 O   0  0  0  0  0  0  0  0  0  0  0  0
    6.7757  -11.7232   25.9494 C   0  0  0  0  0  0  0  0  0  0  0  0
    6.9274  -12.9354   26.8062 C   0  0  1  0  0  0  0  0  0  0  0  0
    5.7537  -13.6862   26.8033 O   0  0  0  0  0  0  0  0  0  0  0  0
    8.0819  -13.8151   26.4073 C   0  0  2  0  0  0  0  0  0  0  0  0
    7.7129  -14.5444   25.2124 N   0  0  0  0  0  0  0  0  0  0  0  0
    8.4682  -14.7724   27.4535 C   0  0  0  0  0  0  0  0  0  0  0  0
    9.0069  -14.3658   28.6616 O   0  0  0  0  0  0  0  0  0  0  0  0
    8.3117  -15.9997   27.2621 O   0  0  0  0  0  0  0  0  0  0  0  0
  2  1  1  1
  2  3  1  0
  4  5  2  0
  4  2  1  0
  6  7  1  0
  8  7  1  1
  8  9  1  0
  9  4  1  0
 10  8  1  0
 10 11  2  0
 13 12  1  6
 13 14  1  0
 15 16  1  6
 15 13  1  0
 16 10  1  0
 17 15  1  0
 18 17  1  0
 19 17  2  0
M  END
$$$$
