AST.pdb
     RDKit          3D

 19 18  0  0  1  0  0  0  0  0999 V2000
   -2.0051  -28.7385   31.5033 C   0  0  0  0  0  0  0  0  0  0  0  0
   -2.3532  -27.3639   32.0336 C   0  0  2  0  0  0  0  0  0  0  0  0
   -2.6594  -27.4945   33.4415 N   0  0  0  0  0  0  0  0  0  0  0  0
   -3.4944  -26.8256   31.2621 C   0  0  0  0  0  0  0  0  0  0  0  0
   -3.2903  -26.5466   30.0529 O   0  0  0  0  0  0  0  0  0  0  0  0
   -7.2202  -26.4940   32.8495 O   0  0  0  0  0  0  0  0  0  0  0  0
   -7.1958  -26.6461   31.4832 C   0  0  0  0  0  0  0  0  0  0  0  0
   -5.8688  -26.1148   30.9514 C   0  0  2  0  0  0  0  0  0  0  0  0
   -4.7840  -26.6046   31.7806 N   0  0  0  0  0  0  0  0  0  0  0  0
   -5.8441  -24.6238   30.9935 C   0  0  0  0  0  0  0  0  0  0  0  0
   -5.4605  -23.9898   32.0156 O   0  0  0  0  0  0  0  0  0  0  0  0
   -5.2158  -20.5109   28.5153 C   0  0  0  0  0  0  0  0  0  0  0  0
   -5.6012  -21.9520   28.5504 C   0  0  1  0  0  0  0  0  0  0  0  0
   -4.5110  -22.7576   28.2283 O   0  0  0  0  0  0  0  0  0  0  0  0
   -6.1715  -22.3916   29.8723 C   0  0  2  0  0  0  0  0  0  0  0  0
   -6.2530  -23.8369   29.8802 N   0  0  0  0  0  0  0  0  0  0  0  0
   -7.5048  -21.8344   30.1412 C   0  0  0  0  0  0  0  0  0  0  0  0
   -7.6802  -20.6096   30.7609 O   0  0  0  0  0  0  0  0  0  0  0  0
   -8.5263  -22.4756   29.8050 O   0  0  0  0  0  0  0  0  0  0  0  0
  2  1  1  6
  2  3  1  0
  4  5  2  0
  4  2  1  0
  6  7  1  0
  8  7  1  1
  8  9  1  0
  9  4  1  0
 10  8  1  0
 10 11  2  0
 13 12  1  1
 13 14  1  0
 15 16  1  6
 15 13  1  0
 16 10  1  0
 17 15  1  0
 18 17  1  0
 19 17  2  0
M  END
$$$$
