AST.pdb
     RDKit          3D

 19 18  0  0  1  0  0  0  0  0999 V2000
   -2.6436  -28.4033   28.3334 C   0  0  0  0  0  0  0  0  0  0  0  0
   -3.1625  -27.0704   27.8376 C   0  0  2  0  0  0  0  0  0  0  0  0
   -2.0637  -26.1295   27.8583 N   0  0  0  0  0  0  0  0  0  0  0  0
   -4.2827  -26.6389   28.7013 C   0  0  0  0  0  0  0  0  0  0  0  0
   -5.3898  -27.2123   28.5362 O   0  0  0  0  0  0  0  0  0  0  0  0
   -3.8999  -23.8385   31.7312 O   0  0  0  0  0  0  0  0  0  0  0  0
   -4.7373  -24.9082   31.9431 C   0  0  0  0  0  0  0  0  0  0  0  0
   -5.2946  -25.3716   30.6012 C   0  0  2  0  0  0  0  0  0  0  0  0
   -4.1995  -25.6391   29.6884 N   0  0  0  0  0  0  0  0  0  0  0  0
   -6.1525  -24.3129   29.9940 C   0  0  0  0  0  0  0  0  0  0  0  0
   -5.6893  -23.4547   29.1924 O   0  0  0  0  0  0  0  0  0  0  0  0
  -10.8227  -22.7582   29.2129 C   0  0  0  0  0  0  0  0  0  0  0  0
   -9.8343  -23.6091   29.9378 C   0  0  1  0  0  0  0  0  0  0  0  0
  -10.0158  -24.9523   29.6152 O   0  0  0  0  0  0  0  0  0  0  0  0
   -8.4024  -23.2240   29.6783 C   0  0  2  0  0  0  0  0  0  0  0  0
   -7.5418  -24.2156   30.2881 N   0  0  0  0  0  0  0  0  0  0  0  0
   -8.0552  -21.8973   30.2071 C   0  0  0  0  0  0  0  0  0  0  0  0
   -8.1523  -20.7498   29.4397 O   0  0  0  0  0  0  0  0  0  0  0  0
   -7.6569  -21.7832   31.3886 O   0  0  0  0  0  0  0  0  0  0  0  0
  2  1  1  1
  2  3  1  0
  4  5  2  0
  4  2  1  0
  6  7  1  0
  8  7  1  1
  8  9  1  0
  9  4  1  0
 10  8  1  0
 10 11  2  0
 13 12  1  6
 13 14  1  0
 15 16  1  1
 15 13  1  0
 16 10  1  0
 17 15  1  0
 18 17  1  0
 19 17  2  0
M  END
$$$$
