AST.pdb
     RDKit          3D

 19 18  0  0  1  0  0  0  0  0999 V2000
    6.9395  -18.5002   19.1362 C   0  0  0  0  0  0  0  0  0  0  0  0
    7.2926  -17.1394   18.5745 C   0  0  2  0  0  0  0  0  0  0  0  0
    7.8964  -17.3374   17.2748 N   0  0  0  0  0  0  0  0  0  0  0  0
    8.2048  -16.4529   19.5147 C   0  0  0  0  0  0  0  0  0  0  0  0
    9.4395  -16.5684   19.3053 O   0  0  0  0  0  0  0  0  0  0  0  0
    7.0003  -14.5689   23.0541 O   0  0  0  0  0  0  0  0  0  0  0  0
    8.0738  -14.0343   22.3817 C   0  0  0  0  0  0  0  0  0  0  0  0
    8.7443  -15.1361   21.5676 C   0  0  2  0  0  0  0  0  0  0  0  0
    7.7931  -15.6847   20.6196 N   0  0  0  0  0  0  0  0  0  0  0  0
    9.2002  -16.2439   22.4565 C   0  0  0  0  0  0  0  0  0  0  0  0
    8.4566  -17.2243   22.7385 O   0  0  0  0  0  0  0  0  0  0  0  0
   13.3449  -16.7244   23.0635 C   0  0  0  0  0  0  0  0  0  0  0  0
   12.3219  -17.8096   23.1102 C   0  0  1  0  0  0  0  0  0  0  0  0
   12.8258  -18.9284   23.7704 O   0  0  0  0  0  0  0  0  0  0  0  0
   11.0282  -17.3913   23.7561 C   0  0  2  0  0  0  0  0  0  0  0  0
   10.5010  -16.2526   23.0343 N   0  0  0  0  0  0  0  0  0  0  0  0
   11.1787  -17.0330   25.1736 C   0  0  0  0  0  0  0  0  0  0  0  0
   11.4049  -17.9834   26.1538 O   0  0  0  0  0  0  0  0  0  0  0  0
   11.1026  -15.8333   25.5235 O   0  0  0  0  0  0  0  0  0  0  0  0
  2  1  1  1
  2  3  1  0
  4  5  2  0
  4  2  1  0
  6  7  1  0
  8  7  1  1
  8  9  1  0
  9  4  1  0
 10  8  1  0
 10 11  2  0
 13 12  1  1
 13 14  1  0
 15 16  1  6
 15 13  1  0
 16 10  1  0
 17 15  1  0
 18 17  1  0
 19 17  2  0
M  END
$$$$
