AST.pdb
     RDKit          3D

 19 18  0  0  1  0  0  0  0  0999 V2000
    8.0116  -19.2077   18.2512 C   0  0  0  0  0  0  0  0  0  0  0  0
    8.0893  -17.7839   17.7424 C   0  0  2  0  0  0  0  0  0  0  0  0
    8.8217  -17.7966   16.4948 N   0  0  0  0  0  0  0  0  0  0  0  0
    8.7459  -16.9425   18.7662 C   0  0  0  0  0  0  0  0  0  0  0  0
    9.9895  -16.7827   18.6677 O   0  0  0  0  0  0  0  0  0  0  0  0
    6.8398  -15.4494   22.1349 O   0  0  0  0  0  0  0  0  0  0  0  0
    7.8097  -14.6456   21.5838 C   0  0  0  0  0  0  0  0  0  0  0  0
    8.7980  -15.5192   20.8182 C   0  0  2  0  0  0  0  0  0  0  0  0
    8.0834  -16.3118   19.8357 N   0  0  0  0  0  0  0  0  0  0  0  0
    9.4994  -16.4555   21.7439 C   0  0  0  0  0  0  0  0  0  0  0  0
    9.0923  -17.6346   21.9376 O   0  0  0  0  0  0  0  0  0  0  0  0
   13.7265  -17.6443   23.9476 C   0  0  0  0  0  0  0  0  0  0  0  0
   12.8638  -16.8227   23.0492 C   0  0  1  0  0  0  0  0  0  0  0  0
   13.1158  -17.1304   21.7138 O   0  0  0  0  0  0  0  0  0  0  0  0
   11.3916  -16.9719   23.3251 C   0  0  2  0  0  0  0  0  0  0  0  0
   10.6673  -16.0663   22.4585 N   0  0  0  0  0  0  0  0  0  0  0  0
   11.0332  -16.6886   24.7221 C   0  0  0  0  0  0  0  0  0  0  0  0
   11.1035  -17.6541   25.7110 O   0  0  0  0  0  0  0  0  0  0  0  0
   10.6496  -15.5416   25.0455 O   0  0  0  0  0  0  0  0  0  0  0  0
  2  1  1  1
  2  3  1  0
  4  5  2  0
  4  2  1  0
  6  7  1  0
  8  7  1  1
  8  9  1  0
  9  4  1  0
 10  8  1  0
 10 11  2  0
 13 12  1  1
 13 14  1  0
 15 16  1  6
 15 13  1  0
 16 10  1  0
 17 15  1  0
 18 17  1  0
 19 17  2  0
M  END
$$$$
