AST.pdb
     RDKit          3D

 19 18  0  0  1  0  0  0  0  0999 V2000
    8.4454  -19.1903   18.3599 C   0  0  0  0  0  0  0  0  0  0  0  0
    8.2849  -17.7236   18.0210 C   0  0  2  0  0  0  0  0  0  0  0  0
    8.9452  -17.4842   16.7563 N   0  0  0  0  0  0  0  0  0  0  0  0
    8.8619  -16.9114   19.1140 C   0  0  0  0  0  0  0  0  0  0  0  0
   10.1129  -16.7840   19.1368 O   0  0  0  0  0  0  0  0  0  0  0  0
    6.7277  -15.4929   22.3599 O   0  0  0  0  0  0  0  0  0  0  0  0
    7.6856  -14.6379   21.8680 C   0  0  0  0  0  0  0  0  0  0  0  0
    8.7482  -15.4544   21.1397 C   0  0  2  0  0  0  0  0  0  0  0  0
    8.1166  -16.2751   20.1240 N   0  0  0  0  0  0  0  0  0  0  0  0
    9.4577  -16.3605   22.0890 C   0  0  0  0  0  0  0  0  0  0  0  0
    9.0612  -17.5381   22.3123 O   0  0  0  0  0  0  0  0  0  0  0  0
   13.6522  -17.2857   24.5505 C   0  0  0  0  0  0  0  0  0  0  0  0
   12.8046  -16.4721   23.6307 C   0  0  1  0  0  0  0  0  0  0  0  0
   13.2449  -16.6037   22.3153 O   0  0  0  0  0  0  0  0  0  0  0  0
   11.3399  -16.8121   23.7015 C   0  0  2  0  0  0  0  0  0  0  0  0
   10.6216  -15.9428   22.7939 N   0  0  0  0  0  0  0  0  0  0  0  0
   10.7770  -16.6668   25.0514 C   0  0  0  0  0  0  0  0  0  0  0  0
   10.8148  -17.6922   25.9799 O   0  0  0  0  0  0  0  0  0  0  0  0
   10.2418  -15.5864   25.3892 O   0  0  0  0  0  0  0  0  0  0  0  0
  2  1  1  1
  2  3  1  0
  4  5  2  0
  4  2  1  0
  6  7  1  0
  8  7  1  1
  8  9  1  0
  9  4  1  0
 10  8  1  0
 10 11  2  0
 13 12  1  1
 13 14  1  0
 15 16  1  6
 15 13  1  0
 16 10  1  0
 17 15  1  0
 18 17  1  0
 19 17  2  0
M  END
$$$$
