AST.pdb
     RDKit          3D

 19 18  0  0  1  0  0  0  0  0999 V2000
    8.5244  -19.4342   18.7085 C   0  0  0  0  0  0  0  0  0  0  0  0
    8.3764  -17.9425   18.4970 C   0  0  2  0  0  0  0  0  0  0  0  0
    8.7638  -17.6455   17.1352 N   0  0  0  0  0  0  0  0  0  0  0  0
    9.2174  -17.2311   19.4839 C   0  0  0  0  0  0  0  0  0  0  0  0
   10.4576  -17.2138   19.2761 O   0  0  0  0  0  0  0  0  0  0  0  0
    7.8373  -15.5227   23.0539 O   0  0  0  0  0  0  0  0  0  0  0  0
    8.8115  -14.8573   22.3479 C   0  0  0  0  0  0  0  0  0  0  0  0
    9.6157  -15.8715   21.5412 C   0  0  2  0  0  0  0  0  0  0  0  0
    8.7326  -16.5763   20.6315 N   0  0  0  0  0  0  0  0  0  0  0  0
   10.2478  -16.8783   22.4424 C   0  0  0  0  0  0  0  0  0  0  0  0
    9.6213  -17.8937   22.8546 O   0  0  0  0  0  0  0  0  0  0  0  0
   13.7641  -18.4435   21.9076 C   0  0  0  0  0  0  0  0  0  0  0  0
   13.6514  -17.9053   23.2947 C   0  0  1  0  0  0  0  0  0  0  0  0
   14.3393  -16.6990   23.4086 O   0  0  0  0  0  0  0  0  0  0  0  0
   12.2306  -17.7132   23.7534 C   0  0  2  0  0  0  0  0  0  0  0  0
   11.5940  -16.7453   22.8853 N   0  0  0  0  0  0  0  0  0  0  0  0
   12.1295  -17.2496   25.1445 C   0  0  0  0  0  0  0  0  0  0  0  0
   12.4466  -18.0640   26.2174 O   0  0  0  0  0  0  0  0  0  0  0  0
   11.7455  -16.0824   25.3848 O   0  0  0  0  0  0  0  0  0  0  0  0
  2  1  1  1
  2  3  1  0
  4  5  2  0
  4  2  1  0
  6  7  1  0
  8  7  1  1
  8  9  1  0
  9  4  1  0
 10  8  1  0
 10 11  2  0
 13 12  1  6
 13 14  1  0
 15 16  1  6
 15 13  1  0
 16 10  1  0
 17 15  1  0
 18 17  1  0
 19 17  2  0
M  END
$$$$
