AST.pdb
     RDKit          3D

 19 18  0  0  1  0  0  0  0  0999 V2000
    6.4707  -17.7347   19.6320 C   0  0  0  0  0  0  0  0  0  0  0  0
    6.8341  -16.3161   19.2479 C   0  0  2  0  0  0  0  0  0  0  0  0
    7.4006  -16.3467   17.9171 N   0  0  0  0  0  0  0  0  0  0  0  0
    7.7826  -15.7757   20.2457 C   0  0  0  0  0  0  0  0  0  0  0  0
    9.0082  -15.8528   19.9744 O   0  0  0  0  0  0  0  0  0  0  0  0
    6.7217  -14.5649   24.0739 O   0  0  0  0  0  0  0  0  0  0  0  0
    7.7287  -13.8468   23.4733 C   0  0  0  0  0  0  0  0  0  0  0  0
    8.4037  -14.7255   22.4253 C   0  0  2  0  0  0  0  0  0  0  0  0
    7.4146  -15.1851   21.4689 N   0  0  0  0  0  0  0  0  0  0  0  0
    9.0207  -15.9249   23.0626 C   0  0  0  0  0  0  0  0  0  0  0  0
    8.3641  -16.9821   23.2742 O   0  0  0  0  0  0  0  0  0  0  0  0
   13.2284  -18.1339   24.5491 C   0  0  0  0  0  0  0  0  0  0  0  0
   12.4784  -17.0334   23.8763 C   0  0  1  0  0  0  0  0  0  0  0  0
   12.7164  -17.0477   22.5035 O   0  0  0  0  0  0  0  0  0  0  0  0
   10.9944  -17.0754   24.1246 C   0  0  2  0  0  0  0  0  0  0  0  0
   10.3856  -15.9390   23.4662 N   0  0  0  0  0  0  0  0  0  0  0  0
   10.6457  -17.0463   25.5522 C   0  0  0  0  0  0  0  0  0  0  0  0
   10.6959  -15.8825   26.2993 O   0  0  0  0  0  0  0  0  0  0  0  0
   10.2895  -18.0999   26.1272 O   0  0  0  0  0  0  0  0  0  0  0  0
  2  1  1  1
  2  3  1  0
  4  5  2  0
  4  2  1  0
  6  7  1  0
  8  7  1  1
  8  9  1  0
  9  4  1  0
 10  8  1  0
 10 11  2  0
 13 12  1  1
 13 14  1  0
 15 16  1  6
 15 13  1  0
 16 10  1  0
 17 15  1  0
 18 17  1  0
 19 17  2  0
M  END
$$$$
