AST.pdb
     RDKit          3D

 19 18  0  0  1  0  0  0  0  0999 V2000
    8.0339  -16.4160   14.6182 C   0  0  0  0  0  0  0  0  0  0  0  0
    8.0933  -14.9036   14.5838 C   0  0  2  0  0  0  0  0  0  0  0  0
    8.7063  -14.5108   13.3336 N   0  0  0  0  0  0  0  0  0  0  0  0
    8.8591  -14.4255   15.7551 C   0  0  0  0  0  0  0  0  0  0  0  0
   10.0977  -14.2659   15.6060 O   0  0  0  0  0  0  0  0  0  0  0  0
    7.2710  -13.8493   19.5632 O   0  0  0  0  0  0  0  0  0  0  0  0
    8.1925  -12.9292   19.1220 C   0  0  0  0  0  0  0  0  0  0  0  0
    9.1052  -13.5970   18.0987 C   0  0  2  0  0  0  0  0  0  0  0  0
    8.3051  -14.1381   17.0165 N   0  0  0  0  0  0  0  0  0  0  0  0
    9.8594  -14.7231   18.7220 C   0  0  0  0  0  0  0  0  0  0  0  0
    9.4206  -15.9067   18.7151 O   0  0  0  0  0  0  0  0  0  0  0  0
   13.2763  -15.9047   17.9302 C   0  0  0  0  0  0  0  0  0  0  0  0
   13.2484  -15.6151   19.3937 C   0  0  1  0  0  0  0  0  0  0  0  0
   13.8793  -14.4026   19.6643 O   0  0  0  0  0  0  0  0  0  0  0  0
   11.8613  -15.5958   19.9781 C   0  0  2  0  0  0  0  0  0  0  0  0
   11.1163  -14.5202   19.3586 N   0  0  0  0  0  0  0  0  0  0  0  0
   11.8505  -15.4092   21.4360 C   0  0  0  0  0  0  0  0  0  0  0  0
   12.3727  -16.3526   22.3034 O   0  0  0  0  0  0  0  0  0  0  0  0
   11.3564  -14.3685   21.9263 O   0  0  0  0  0  0  0  0  0  0  0  0
  2  1  1  6
  2  3  1  0
  4  5  2  0
  4  2  1  0
  6  7  1  0
  8  7  1  1
  8  9  1  0
  9  4  1  0
 10  8  1  0
 10 11  2  0
 13 12  1  6
 13 14  1  0
 15 16  1  6
 15 13  1  0
 16 10  1  0
 17 15  1  0
 18 17  1  0
 19 17  2  0
M  END
$$$$
