AST.pdb
     RDKit          3D

 19 18  0  0  1  0  0  0  0  0999 V2000
    8.4646  -18.9104   18.4435 C   0  0  0  0  0  0  0  0  0  0  0  0
    8.8417  -17.4903   18.0787 C   0  0  2  0  0  0  0  0  0  0  0  0
    9.8066  -17.5486   17.0024 N   0  0  0  0  0  0  0  0  0  0  0  0
    9.3828  -16.8134   19.2771 C   0  0  0  0  0  0  0  0  0  0  0  0
   10.6311  -16.8264   19.4302 O   0  0  0  0  0  0  0  0  0  0  0  0
    7.0958  -15.1845   22.3704 O   0  0  0  0  0  0  0  0  0  0  0  0
    8.1931  -14.4706   21.9500 C   0  0  0  0  0  0  0  0  0  0  0  0
    9.2117  -15.4371   21.3546 C   0  0  2  0  0  0  0  0  0  0  0  0
    8.6064  -16.1600   20.2522 N   0  0  0  0  0  0  0  0  0  0  0  0
    9.6497  -16.4340   22.3742 C   0  0  0  0  0  0  0  0  0  0  0  0
    9.0100  -17.5021   22.5833 O   0  0  0  0  0  0  0  0  0  0  0  0
   13.0930  -17.9820   22.5695 C   0  0  0  0  0  0  0  0  0  0  0  0
   12.7607  -17.4175   23.9101 C   0  0  1  0  0  0  0  0  0  0  0  0
   13.4330  -16.2143   24.1143 O   0  0  0  0  0  0  0  0  0  0  0  0
   11.2861  -17.2067   24.1270 C   0  0  2  0  0  0  0  0  0  0  0  0
   10.8149  -16.2316   23.1664 N   0  0  0  0  0  0  0  0  0  0  0  0
   10.9617  -16.7403   25.4825 C   0  0  0  0  0  0  0  0  0  0  0  0
   11.1513  -17.5343   26.6000 O   0  0  0  0  0  0  0  0  0  0  0  0
   10.4975  -15.5896   25.6500 O   0  0  0  0  0  0  0  0  0  0  0  0
  2  1  1  1
  2  3  1  0
  4  5  2  0
  4  2  1  0
  6  7  1  0
  8  7  1  1
  8  9  1  0
  9  4  1  0
 10  8  1  0
 10 11  2  0
 13 12  1  6
 13 14  1  0
 15 16  1  6
 15 13  1  0
 16 10  1  0
 17 15  1  0
 18 17  1  0
 19 17  2  0
M  END
$$$$
