AST.pdb
     RDKit          3D

 19 18  0  0  1  0  0  0  0  0999 V2000
   -5.5547  -28.6781   25.7455 C   0  0  0  0  0  0  0  0  0  0  0  0
   -4.6946  -27.4367   25.6412 C   0  0  2  0  0  0  0  0  0  0  0  0
   -3.5870  -27.5842   26.5601 N   0  0  0  0  0  0  0  0  0  0  0  0
   -5.5221  -26.2507   25.9507 C   0  0  0  0  0  0  0  0  0  0  0  0
   -4.9571  -25.2930   26.5382 O   0  0  0  0  0  0  0  0  0  0  0  0
   -9.6215  -26.0712   25.5152 O   0  0  0  0  0  0  0  0  0  0  0  0
   -8.9504  -24.9277   25.1514 C   0  0  0  0  0  0  0  0  0  0  0  0
   -7.6133  -24.8863   25.8840 C   0  0  2  0  0  0  0  0  0  0  0  0
   -6.8876  -26.1177   25.6371 N   0  0  0  0  0  0  0  0  0  0  0  0
   -7.8234  -24.7622   27.3557 C   0  0  0  0  0  0  0  0  0  0  0  0
   -8.0594  -25.7656   28.0845 O   0  0  0  0  0  0  0  0  0  0  0  0
   -5.7962  -22.0610   29.4934 C   0  0  0  0  0  0  0  0  0  0  0  0
   -6.5850  -23.1855   30.0763 C   0  0  1  0  0  0  0  0  0  0  0  0
   -6.7343  -23.0166   31.4513 O   0  0  0  0  0  0  0  0  0  0  0  0
   -7.9407  -23.3611   29.4463 C   0  0  2  0  0  0  0  0  0  0  0  0
   -7.7682  -23.5024   28.0159 N   0  0  0  0  0  0  0  0  0  0  0  0
   -8.8515  -22.2384   29.7111 C   0  0  0  0  0  0  0  0  0  0  0  0
   -9.2999  -21.4003   28.7053 O   0  0  0  0  0  0  0  0  0  0  0  0
   -9.2447  -22.0186   30.8793 O   0  0  0  0  0  0  0  0  0  0  0  0
  2  1  1  1
  2  3  1  0
  4  5  2  0
  4  2  1  0
  6  7  1  0
  8  7  1  6
  8  9  1  0
  9  4  1  0
 10  8  1  0
 10 11  2  0
 13 12  1  6
 13 14  1  0
 15 16  1  6
 15 13  1  0
 16 10  1  0
 17 15  1  0
 18 17  1  0
 19 17  2  0
M  END
$$$$
