AST.pdb
     RDKit          3D

 19 18  0  0  1  0  0  0  0  0999 V2000
    8.1357  -12.3144   19.1499 C   0  0  0  0  0  0  0  0  0  0  0  0
    8.4508  -13.7951   19.1375 C   0  0  2  0  0  0  0  0  0  0  0  0
    7.8640  -14.3650   17.9442 N   0  0  0  0  0  0  0  0  0  0  0  0
    7.9159  -14.4111   20.3710 C   0  0  0  0  0  0  0  0  0  0  0  0
    6.8217  -15.0244   20.2795 O   0  0  0  0  0  0  0  0  0  0  0  0
    8.4595  -17.3105   23.7314 O   0  0  0  0  0  0  0  0  0  0  0  0
    8.7498  -16.5779   22.6047 C   0  0  0  0  0  0  0  0  0  0  0  0
    8.1080  -15.2004   22.7332 C   0  0  2  0  0  0  0  0  0  0  0  0
    8.5392  -14.3607   21.6318 N   0  0  0  0  0  0  0  0  0  0  0  0
    8.5249  -14.5422   24.0053 C   0  0  0  0  0  0  0  0  0  0  0  0
    9.6889  -14.0821   24.1701 O   0  0  0  0  0  0  0  0  0  0  0  0
    6.5099  -11.6861   25.9659 C   0  0  0  0  0  0  0  0  0  0  0  0
    6.7810  -12.9086   26.7773 C   0  0  1  0  0  0  0  0  0  0  0  0
    5.6666  -13.7449   26.7887 O   0  0  0  0  0  0  0  0  0  0  0  0
    7.9825  -13.6868   26.3121 C   0  0  2  0  0  0  0  0  0  0  0  0
    7.6291  -14.3987   25.1021 N   0  0  0  0  0  0  0  0  0  0  0  0
    8.4700  -14.6495   27.3101 C   0  0  0  0  0  0  0  0  0  0  0  0
    9.0440  -14.2469   28.5032 O   0  0  0  0  0  0  0  0  0  0  0  0
    8.3707  -15.8780   27.0897 O   0  0  0  0  0  0  0  0  0  0  0  0
  2  1  1  1
  2  3  1  0
  4  5  2  0
  4  2  1  0
  6  7  1  0
  8  7  1  6
  8  9  1  0
  9  4  1  0
 10  8  1  0
 10 11  2  0
 13 12  1  6
 13 14  1  0
 15 16  1  6
 15 13  1  0
 16 10  1  0
 17 15  1  0
 18 17  1  0
 19 17  2  0
M  END
$$$$
