AST.pdb
     RDKit          3D

 19 18  0  0  1  0  0  0  0  0999 V2000
    9.8460  -19.2990   22.5574 C   0  0  0  0  0  0  0  0  0  0  0  0
    9.5749  -18.6174   21.2331 C   0  0  2  0  0  0  0  0  0  0  0  0
   10.6844  -18.9037   20.3499 N   0  0  0  0  0  0  0  0  0  0  0  0
    9.4061  -17.1665   21.4645 C   0  0  0  0  0  0  0  0  0  0  0  0
   10.4513  -16.4818   21.6077 O   0  0  0  0  0  0  0  0  0  0  0  0
    5.7368  -15.3559   21.5859 O   0  0  0  0  0  0  0  0  0  0  0  0
    6.7375  -14.6070   21.0131 C   0  0  0  0  0  0  0  0  0  0  0  0
    8.0782  -15.0544   21.5864 C   0  0  2  0  0  0  0  0  0  0  0  0
    8.1679  -16.5013   21.5356 N   0  0  0  0  0  0  0  0  0  0  0  0
    8.2072  -14.6344   23.0120 C   0  0  0  0  0  0  0  0  0  0  0  0
    8.1741  -13.4206   23.3574 O   0  0  0  0  0  0  0  0  0  0  0  0
    6.7367  -13.3662   25.2311 C   0  0  0  0  0  0  0  0  0  0  0  0
    7.0770  -14.6764   25.8591 C   0  0  1  0  0  0  0  0  0  0  0  0
    6.1026  -15.6276   25.5642 O   0  0  0  0  0  0  0  0  0  0  0  0
    8.4273  -15.2056   25.4559 C   0  0  2  0  0  0  0  0  0  0  0  0
    8.3748  -15.5836   24.0595 N   0  0  0  0  0  0  0  0  0  0  0  0
    8.8550  -16.3654   26.2511 C   0  0  0  0  0  0  0  0  0  0  0  0
    9.1639  -16.2630   27.5961 O   0  0  0  0  0  0  0  0  0  0  0  0
    8.9483  -17.4904   25.7098 O   0  0  0  0  0  0  0  0  0  0  0  0
  2  1  1  1
  2  3  1  0
  4  5  2  0
  4  2  1  0
  6  7  1  0
  8  7  1  1
  8  9  1  0
  9  4  1  0
 10  8  1  0
 10 11  2  0
 13 12  1  6
 13 14  1  0
 15 16  1  6
 15 13  1  0
 16 10  1  0
 17 15  1  0
 18 17  1  0
 19 17  2  0
M  END
$$$$
