AST.pdb
     RDKit          3D

 19 18  0  0  1  0  0  0  0  0999 V2000
    9.0327  -18.2306   17.6617 C   0  0  0  0  0  0  0  0  0  0  0  0
    9.5608  -18.9431   18.8886 C   0  0  2  0  0  0  0  0  0  0  0  0
    8.4300  -19.4859   19.6093 N   0  0  0  0  0  0  0  0  0  0  0  0
   10.3349  -17.9839   19.7059 C   0  0  0  0  0  0  0  0  0  0  0  0
   11.3694  -17.4909   19.1877 O   0  0  0  0  0  0  0  0  0  0  0  0
    9.2605  -16.7614   23.5394 O   0  0  0  0  0  0  0  0  0  0  0  0
    9.8390  -15.8409   22.6978 C   0  0  0  0  0  0  0  0  0  0  0  0
   10.7563  -16.5720   21.7229 C   0  0  2  0  0  0  0  0  0  0  0  0
    9.9993  -17.5857   21.0133 N   0  0  0  0  0  0  0  0  0  0  0  0
   11.8653  -17.2519   22.4532 C   0  0  0  0  0  0  0  0  0  0  0  0
   11.7882  -18.4597   22.8122 O   0  0  0  0  0  0  0  0  0  0  0  0
   16.6081  -16.9802   23.9660 C   0  0  0  0  0  0  0  0  0  0  0  0
   15.4177  -16.4319   23.2526 C   0  0  1  0  0  0  0  0  0  0  0  0
   15.6527  -16.3766   21.8804 O   0  0  0  0  0  0  0  0  0  0  0  0
   14.1518  -17.2045   23.5100 C   0  0  2  0  0  0  0  0  0  0  0  0
   13.0711  -16.5716   22.7838 N   0  0  0  0  0  0  0  0  0  0  0  0
   13.7963  -17.2744   24.9345 C   0  0  0  0  0  0  0  0  0  0  0  0
   14.2117  -18.3144   25.7473 O   0  0  0  0  0  0  0  0  0  0  0  0
   13.0951  -16.3718   25.4456 O   0  0  0  0  0  0  0  0  0  0  0  0
  2  1  1  6
  2  3  1  0
  4  5  2  0
  4  2  1  0
  6  7  1  0
  8  7  1  1
  8  9  1  0
  9  4  1  0
 10  8  1  0
 10 11  2  0
 13 12  1  1
 13 14  1  0
 15 16  1  6
 15 13  1  0
 16 10  1  0
 17 15  1  0
 18 17  1  0
 19 17  2  0
M  END
$$$$
