AST.pdb
     RDKit          3D

 19 18  0  0  1  0  0  0  0  0999 V2000
    6.8987  -17.9601   19.3053 C   0  0  0  0  0  0  0  0  0  0  0  0
    7.2034  -16.5018   19.0363 C   0  0  2  0  0  0  0  0  0  0  0  0
    7.8139  -16.4088   17.7281 N   0  0  0  0  0  0  0  0  0  0  0  0
    8.0907  -15.9910   20.1036 C   0  0  0  0  0  0  0  0  0  0  0  0
    9.3288  -16.1441   19.9441 O   0  0  0  0  0  0  0  0  0  0  0  0
    6.7244  -14.5267   23.7233 O   0  0  0  0  0  0  0  0  0  0  0  0
    7.8870  -13.9598   23.2569 C   0  0  0  0  0  0  0  0  0  0  0  0
    8.5759  -14.9470   22.3203 C   0  0  2  0  0  0  0  0  0  0  0  0
    7.6520  -15.3502   21.2772 N   0  0  0  0  0  0  0  0  0  0  0  0
    8.9957  -16.1710   23.0625 C   0  0  0  0  0  0  0  0  0  0  0  0
    8.1993  -17.1251   23.2839 O   0  0  0  0  0  0  0  0  0  0  0  0
   11.7914  -18.5458   22.2833 C   0  0  0  0  0  0  0  0  0  0  0  0
   11.9959  -18.0370   23.6710 C   0  0  1  0  0  0  0  0  0  0  0  0
   12.9848  -17.0557   23.6912 O   0  0  0  0  0  0  0  0  0  0  0  0
   10.7431  -17.4941   24.3048 C   0  0  2  0  0  0  0  0  0  0  0  0
   10.3200  -16.3266   23.5607 N   0  0  0  0  0  0  0  0  0  0  0  0
   10.9222  -17.1246   25.7161 C   0  0  0  0  0  0  0  0  0  0  0  0
   11.0857  -18.0726   26.7109 O   0  0  0  0  0  0  0  0  0  0  0  0
   10.9296  -15.9171   26.0468 O   0  0  0  0  0  0  0  0  0  0  0  0
  2  1  1  1
  2  3  1  0
  4  5  2  0
  4  2  1  0
  6  7  1  0
  8  7  1  1
  8  9  1  0
  9  4  1  0
 10  8  1  0
 10 11  2  0
 13 12  1  6
 13 14  1  0
 15 16  1  6
 15 13  1  0
 16 10  1  0
 17 15  1  0
 18 17  1  0
 19 17  2  0
M  END
$$$$
