AST.pdb
     RDKit          3D

 19 18  0  0  1  0  0  0  0  0999 V2000
    8.1311  -16.8749   15.5614 C   0  0  0  0  0  0  0  0  0  0  0  0
    8.5365  -15.4179   15.4909 C   0  0  2  0  0  0  0  0  0  0  0  0
    9.4774  -15.2700   14.4020 N   0  0  0  0  0  0  0  0  0  0  0  0
    9.1191  -15.0174   16.7899 C   0  0  0  0  0  0  0  0  0  0  0  0
   10.3542  -15.1965   16.9457 O   0  0  0  0  0  0  0  0  0  0  0  0
    6.9500  -13.5152   20.0389 O   0  0  0  0  0  0  0  0  0  0  0  0
    8.1823  -12.9684   19.7691 C   0  0  0  0  0  0  0  0  0  0  0  0
    9.0468  -14.0175   19.0777 C   0  0  2  0  0  0  0  0  0  0  0  0
    8.3955  -14.4538   17.8573 N   0  0  0  0  0  0  0  0  0  0  0  0
    9.2288  -15.2104   19.9548 C   0  0  0  0  0  0  0  0  0  0  0  0
    8.4207  -16.1801   19.9413 O   0  0  0  0  0  0  0  0  0  0  0  0
   12.3600  -17.2968   20.1041 C   0  0  0  0  0  0  0  0  0  0  0  0
   12.0042  -16.9032   21.4987 C   0  0  1  0  0  0  0  0  0  0  0  0
   12.8284  -15.8703   21.9406 O   0  0  0  0  0  0  0  0  0  0  0  0
   10.5645  -16.4953   21.6614 C   0  0  2  0  0  0  0  0  0  0  0  0
   10.3264  -15.3169   20.8549 N   0  0  0  0  0  0  0  0  0  0  0  0
   10.1996  -16.2044   23.0552 C   0  0  0  0  0  0  0  0  0  0  0  0
   10.1461  -17.1910   24.0241 O   0  0  0  0  0  0  0  0  0  0  0  0
    9.9251  -15.0308   23.3944 O   0  0  0  0  0  0  0  0  0  0  0  0
  2  1  1  1
  2  3  1  0
  4  5  2  0
  4  2  1  0
  6  7  1  0
  8  7  1  1
  8  9  1  0
  9  4  1  0
 10  8  1  0
 10 11  2  0
 13 12  1  6
 13 14  1  0
 15 16  1  6
 15 13  1  0
 16 10  1  0
 17 15  1  0
 18 17  1  0
 19 17  2  0
M  END
$$$$
