HPC.pdb
     RDKit          3D

 24 25  0  0  1  0  0  0  0  0999 V2000
   10.2540  -14.5188   21.2970 N   0  0  0  0  0  0  0  0  0  0  0  0
    9.0208  -14.1325   21.9420 C   0  0  1  0  0  0  0  0  0  0  0  0
    7.8784  -14.8268   21.2065 C   0  0  0  0  0  0  0  0  0  0  0  0
    7.7713  -14.3553   19.8099 C   0  0  0  0  0  0  0  0  0  0  0  0
    8.5515  -13.3752   19.2570 C   0  0  0  0  0  0  0  0  0  0  0  0
    8.1472  -13.2409   17.9850 N   0  0  0  0  0  0  0  0  0  0  0  0
    7.1499  -14.1079   17.7557 C   0  0  0  0  0  0  0  0  0  0  0  0
    6.9260  -14.7867   18.8790 N   0  0  0  0  0  0  0  0  0  0  0  0
    8.9337  -14.5920   23.3524 C   0  0  0  0  0  0  0  0  0  0  0  0
    9.7553  -15.4718   23.7031 O   0  0  0  0  0  0  0  0  0  0  0  0
    8.0037  -14.1114   24.3048 N   0  0  0  0  0  0  0  0  0  0  0  0
    6.9180  -13.2393   23.9899 C   0  0  0  0  0  0  0  0  0  0  0  0
    6.1088  -13.0340   25.2424 C   0  0  0  0  0  0  0  0  0  0  0  0
    7.1026  -13.4119   26.3226 C   0  0  0  0  0  0  0  0  0  0  0  0
    8.0105  -14.4188   25.6958 C   0  0  1  0  0  0  0  0  0  0  0  0
    7.5886  -15.8135   25.9857 C   0  0  0  0  0  0  0  0  0  0  0  0
    6.6088  -16.2616   25.3391 O   0  0  0  0  0  0  0  0  0  0  0  0
    8.2673  -16.5782   26.9422 N   0  0  0  0  0  0  0  0  0  0  0  0
    8.1840  -18.0113   26.9742 C   0  0  1  0  0  0  0  0  0  0  0  0
    8.9908  -18.6591   25.8727 C   0  0  0  0  0  0  0  0  0  0  0  0
   10.7532  -18.2420   25.9972 S   0  0  0  0  0  0  0  0  0  0  0  0
    8.6513  -18.5654   28.2583 C   0  0  0  0  0  0  0  0  0  0  0  0
    8.5278  -19.9090   28.5166 O   0  0  0  0  0  0  0  0  0  0  0  0
    9.1595  -17.8122   29.1107 O   0  0  0  0  0  0  0  0  0  0  0  0
  2  1  1  6
  3  2  1  0
  4  3  1  0
  5  4  2  0
  6  5  1  0
  7  6  1  0
  7  8  2  0
  8  4  1  0
  9 10  2  0
  9  2  1  0
 11  9  1  0
 12 11  1  0
 13 12  1  0
 14 13  1  0
 14 15  1  0
 15 11  1  0
 16 17  2  0
 15 16  1  6
 18 16  1  0
 19 20  1  6
 19 18  1  0
 20 21  1  0
 22 19  1  0
 23 22  1  0
 24 22  2  0
M  END
$$$$
