HPC.pdb
     RDKit          3D

 24 25  0  0  1  0  0  0  0  0999 V2000
   10.1428  -14.1158   21.3029 N   0  0  0  0  0  0  0  0  0  0  0  0
    8.9766  -13.8165   22.1009 C   0  0  1  0  0  0  0  0  0  0  0  0
    7.8569  -14.7494   21.6492 C   0  0  0  0  0  0  0  0  0  0  0  0
    7.5595  -14.5778   20.2117 C   0  0  0  0  0  0  0  0  0  0  0  0
    7.3963  -13.3691   19.5893 C   0  0  0  0  0  0  0  0  0  0  0  0
    7.1417  -13.6377   18.2999 N   0  0  0  0  0  0  0  0  0  0  0  0
    7.1466  -14.9678   18.1273 C   0  0  0  0  0  0  0  0  0  0  0  0
    7.4033  -15.5361   19.3037 N   0  0  0  0  0  0  0  0  0  0  0  0
    9.1755  -14.0923   23.5473 C   0  0  0  0  0  0  0  0  0  0  0  0
   10.1685  -14.7960   23.8486 O   0  0  0  0  0  0  0  0  0  0  0  0
    8.3350  -13.6223   24.5845 N   0  0  0  0  0  0  0  0  0  0  0  0
    7.0069  -13.1406   24.3783 C   0  0  0  0  0  0  0  0  0  0  0  0
    6.4131  -12.8247   25.7250 C   0  0  0  0  0  0  0  0  0  0  0  0
    7.6517  -12.6719   26.5852 C   0  0  0  0  0  0  0  0  0  0  0  0
    8.6810  -13.5591   25.9650 C   0  0  1  0  0  0  0  0  0  0  0  0
    8.7356  -14.8950   26.6129 C   0  0  0  0  0  0  0  0  0  0  0  0
    8.2273  -15.8573   25.9850 O   0  0  0  0  0  0  0  0  0  0  0  0
    9.3324  -15.0525   27.8696 N   0  0  0  0  0  0  0  0  0  0  0  0
   10.3352  -16.0492   28.1197 C   0  0  1  0  0  0  0  0  0  0  0  0
   11.1136  -15.7768   29.3861 C   0  0  0  0  0  0  0  0  0  0  0  0
   10.8735  -14.0743   29.9687 S   0  0  0  0  0  0  0  0  0  0  0  0
    9.7578  -17.4015   28.2300 C   0  0  0  0  0  0  0  0  0  0  0  0
   10.5781  -18.4922   28.3870 O   0  0  0  0  0  0  0  0  0  0  0  0
    8.5223  -17.5544   28.1804 O   0  0  0  0  0  0  0  0  0  0  0  0
  2  1  1  6
  3  2  1  0
  4  3  1  0
  5  4  2  0
  6  5  1  0
  7  6  1  0
  7  8  2  0
  8  4  1  0
  9 10  2  0
  9  2  1  0
 11  9  1  0
 12 11  1  0
 13 12  1  0
 14 13  1  0
 14 15  1  0
 15 11  1  0
 16 17  2  0
 15 16  1  1
 18 16  1  0
 19 20  1  1
 19 18  1  0
 20 21  1  0
 22 19  1  0
 23 22  1  0
 24 22  2  0
M  END
$$$$
