HPC.pdb
     RDKit          3D

 24 25  0  0  1  0  0  0  0  0999 V2000
   10.8393  -13.8463   20.1450 N   0  0  0  0  0  0  0  0  0  0  0  0
    9.5481  -13.9812   20.7782 C   0  0  1  0  0  0  0  0  0  0  0  0
    8.7714  -15.0522   20.0183 C   0  0  0  0  0  0  0  0  0  0  0  0
    8.5330  -14.6519   18.6157 C   0  0  0  0  0  0  0  0  0  0  0  0
    8.9696  -13.4814   18.0551 C   0  0  0  0  0  0  0  0  0  0  0  0
    8.5541  -13.4935   16.7797 N   0  0  0  0  0  0  0  0  0  0  0  0
    7.8824  -14.6326   16.5557 C   0  0  0  0  0  0  0  0  0  0  0  0
    7.8742  -15.3364   17.6858 N   0  0  0  0  0  0  0  0  0  0  0  0
    9.6361  -14.4626   22.1811 C   0  0  0  0  0  0  0  0  0  0  0  0
   10.6271  -15.1768   22.4636 O   0  0  0  0  0  0  0  0  0  0  0  0
    8.6943  -14.1734   23.1972 N   0  0  0  0  0  0  0  0  0  0  0  0
    7.5017  -13.4170   22.9875 C   0  0  0  0  0  0  0  0  0  0  0  0
    6.7241  -13.4090   24.2763 C   0  0  0  0  0  0  0  0  0  0  0  0
    7.7975  -13.7469   25.2917 C   0  0  0  0  0  0  0  0  0  0  0  0
    8.7925  -14.5850   24.5575 C   0  0  1  0  0  0  0  0  0  0  0  0
    8.5499  -16.0387   24.7446 C   0  0  0  0  0  0  0  0  0  0  0  0
    8.0334  -16.6616   23.7833 O   0  0  0  0  0  0  0  0  0  0  0  0
    8.8897  -16.6678   25.9484 N   0  0  0  0  0  0  0  0  0  0  0  0
    9.7224  -17.8368   25.9913 C   0  0  1  0  0  0  0  0  0  0  0  0
   11.0464  -17.6256   25.2940 C   0  0  0  0  0  0  0  0  0  0  0  0
   12.1592  -19.0415   25.5232 S   0  0  0  0  0  0  0  0  0  0  0  0
   10.0062  -18.2650   27.3734 C   0  0  0  0  0  0  0  0  0  0  0  0
    9.8824  -19.5870   27.7261 O   0  0  0  0  0  0  0  0  0  0  0  0
   10.3593  -17.4250   28.2230 O   0  0  0  0  0  0  0  0  0  0  0  0
  2  1  1  6
  3  2  1  0
  4  3  1  0
  5  4  2  0
  6  5  1  0
  7  6  1  0
  7  8  2  0
  8  4  1  0
  9 10  2  0
  9  2  1  0
 11  9  1  0
 12 11  1  0
 13 12  1  0
 14 13  1  0
 14 15  1  0
 15 11  1  0
 16 17  2  0
 15 16  1  6
 18 16  1  0
 19 20  1  1
 19 18  1  0
 20 21  1  0
 22 19  1  0
 23 22  1  0
 24 22  2  0
M  END
$$$$
