HPC.pdb
     RDKit          3D

 24 25  0  0  1  0  0  0  0  0999 V2000
    9.9509  -14.2701   21.2368 N   0  0  0  0  0  0  0  0  0  0  0  0
    8.8047  -13.8760   22.0224 C   0  0  1  0  0  0  0  0  0  0  0  0
    7.5906  -14.6172   21.4707 C   0  0  0  0  0  0  0  0  0  0  0  0
    7.3710  -14.3043   20.0430 C   0  0  0  0  0  0  0  0  0  0  0  0
    7.3611  -13.0407   19.5155 C   0  0  0  0  0  0  0  0  0  0  0  0
    7.1317  -13.1802   18.2012 N   0  0  0  0  0  0  0  0  0  0  0  0
    7.0035  -14.4858   17.9219 C   0  0  0  0  0  0  0  0  0  0  0  0
    7.1515  -15.1673   19.0560 N   0  0  0  0  0  0  0  0  0  0  0  0
    8.9116  -14.2779   23.4488 C   0  0  0  0  0  0  0  0  0  0  0  0
    9.7192  -15.2013   23.7082 O   0  0  0  0  0  0  0  0  0  0  0  0
    8.1770  -13.6986   24.5108 N   0  0  0  0  0  0  0  0  0  0  0  0
    6.9843  -12.9344   24.3318 C   0  0  0  0  0  0  0  0  0  0  0  0
    6.4540  -12.5753   25.6941 C   0  0  0  0  0  0  0  0  0  0  0  0
    7.6857  -12.7380   26.5623 C   0  0  0  0  0  0  0  0  0  0  0  0
    8.5107  -13.7879   25.8928 C   0  0  1  0  0  0  0  0  0  0  0  0
    8.2719  -15.1389   26.4631 C   0  0  0  0  0  0  0  0  0  0  0  0
    7.6211  -15.9509   25.7589 O   0  0  0  0  0  0  0  0  0  0  0  0
    8.7600  -15.4721   27.7323 N   0  0  0  0  0  0  0  0  0  0  0  0
   10.1528  -15.7247   27.9733 C   0  0  1  0  0  0  0  0  0  0  0  0
   10.8478  -14.5473   28.6173 C   0  0  0  0  0  0  0  0  0  0  0  0
   10.1935  -14.2065   30.2760 S   0  0  0  0  0  0  0  0  0  0  0  0
   10.3615  -16.8985   28.8410 C   0  0  0  0  0  0  0  0  0  0  0  0
   11.6270  -17.3954   29.0383 O   0  0  0  0  0  0  0  0  0  0  0  0
    9.3868  -17.4407   29.3962 O   0  0  0  0  0  0  0  0  0  0  0  0
  2  1  1  6
  3  2  1  0
  4  3  1  0
  5  4  2  0
  6  5  1  0
  7  6  1  0
  7  8  2  0
  8  4  1  0
  9 10  2  0
  9  2  1  0
 11  9  1  0
 12 11  1  0
 13 12  1  0
 14 13  1  0
 14 15  1  0
 15 11  1  0
 16 17  2  0
 15 16  1  1
 18 16  1  0
 19 20  1  1
 19 18  1  0
 20 21  1  0
 22 19  1  0
 23 22  1  0
 24 22  2  0
M  END
$$$$
