HPC.pdb
     RDKit          3D

 24 25  0  0  1  0  0  0  0  0999 V2000
    6.1088  -18.6469   19.4326 N   0  0  0  0  0  0  0  0  0  0  0  0
    5.9022  -17.4176   20.1623 C   0  0  1  0  0  0  0  0  0  0  0  0
    5.2136  -17.7718   21.4769 C   0  0  0  0  0  0  0  0  0  0  0  0
    3.9151  -18.4378   21.2428 C   0  0  0  0  0  0  0  0  0  0  0  0
    3.0096  -18.0639   20.2861 C   0  0  0  0  0  0  0  0  0  0  0  0
    1.9724  -18.9077   20.3951 N   0  0  0  0  0  0  0  0  0  0  0  0
    2.2250  -19.7759   21.3857 C   0  0  0  0  0  0  0  0  0  0  0  0
    3.4173  -19.4809   21.8996 N   0  0  0  0  0  0  0  0  0  0  0  0
    7.1722  -16.7442   20.5383 C   0  0  0  0  0  0  0  0  0  0  0  0
    8.1399  -17.4932   20.8115 O   0  0  0  0  0  0  0  0  0  0  0  0
    7.3564  -15.3426   20.6065 N   0  0  0  0  0  0  0  0  0  0  0  0
    6.3590  -14.3884   20.2417 C   0  0  0  0  0  0  0  0  0  0  0  0
    6.8982  -13.0153   20.5414 C   0  0  0  0  0  0  0  0  0  0  0  0
    8.3918  -13.2689   20.5881 C   0  0  0  0  0  0  0  0  0  0  0  0
    8.5429  -14.6844   21.0404 C   0  0  1  0  0  0  0  0  0  0  0  0
    8.7617  -14.7857   22.5064 C   0  0  0  0  0  0  0  0  0  0  0  0
    7.8819  -14.2875   23.2526 O   0  0  0  0  0  0  0  0  0  0  0  0
    9.9058  -15.4134   23.0136 N   0  0  0  0  0  0  0  0  0  0  0  0
   10.0977  -15.6321   24.4197 C   0  0  1  0  0  0  0  0  0  0  0  0
    8.9842  -16.4502   25.0317 C   0  0  0  0  0  0  0  0  0  0  0  0
    9.3217  -16.8491   26.7702 S   0  0  0  0  0  0  0  0  0  0  0  0
   11.3698  -16.3208   24.7052 C   0  0  0  0  0  0  0  0  0  0  0  0
   11.8278  -16.4181   25.9968 O   0  0  0  0  0  0  0  0  0  0  0  0
   12.0305  -16.8156   23.7720 O   0  0  0  0  0  0  0  0  0  0  0  0
  2  1  1  1
  3  2  1  0
  4  3  1  0
  5  4  2  0
  6  5  1  0
  7  6  1  0
  7  8  2  0
  8  4  1  0
  9 10  2  0
  9  2  1  0
 11  9  1  0
 12 11  1  0
 13 12  1  0
 14 13  1  0
 14 15  1  0
 15 11  1  0
 16 17  2  0
 15 16  1  1
 18 16  1  0
 19 20  1  6
 19 18  1  0
 20 21  1  0
 22 19  1  0
 23 22  1  0
 24 22  2  0
M  END
$$$$
