HPC.pdb
     RDKit          3D

 24 25  0  0  1  0  0  0  0  0999 V2000
    6.2031  -19.7590   20.9784 N   0  0  0  0  0  0  0  0  0  0  0  0
    5.8697  -18.3866   21.2809 C   0  0  1  0  0  0  0  0  0  0  0  0
    4.6710  -18.4003   22.2247 C   0  0  0  0  0  0  0  0  0  0  0  0
    3.4177  -18.6972   21.4998 C   0  0  0  0  0  0  0  0  0  0  0  0
    3.0111  -18.0637   20.3560 C   0  0  0  0  0  0  0  0  0  0  0  0
    1.8358  -18.6134   20.0153 N   0  0  0  0  0  0  0  0  0  0  0  0
    1.5232  -19.5561   20.9166 C   0  0  0  0  0  0  0  0  0  0  0  0
    2.4977  -19.6008   21.8227 N   0  0  0  0  0  0  0  0  0  0  0  0
    6.9507  -17.6725   22.0085 C   0  0  0  0  0  0  0  0  0  0  0  0
    7.7473  -18.3863   22.6626 O   0  0  0  0  0  0  0  0  0  0  0  0
    7.1354  -16.2694   22.0110 N   0  0  0  0  0  0  0  0  0  0  0  0
    6.2941  -15.3528   21.3107 C   0  0  0  0  0  0  0  0  0  0  0  0
    6.7562  -13.9574   21.6348 C   0  0  0  0  0  0  0  0  0  0  0  0
    8.1750  -14.1999   22.1098 C   0  0  0  0  0  0  0  0  0  0  0  0
    8.1700  -15.5724   22.6992 C   0  0  1  0  0  0  0  0  0  0  0  0
    7.9770  -15.5509   24.1722 C   0  0  0  0  0  0  0  0  0  0  0  0
    6.8812  -15.1092   24.5999 O   0  0  0  0  0  0  0  0  0  0  0  0
    8.9858  -16.0079   25.0288 N   0  0  0  0  0  0  0  0  0  0  0  0
    8.9926  -15.7037   26.4320 C   0  0  1  0  0  0  0  0  0  0  0  0
    7.9784  -16.5176   27.2019 C   0  0  0  0  0  0  0  0  0  0  0  0
    8.2229  -18.2997   26.9579 S   0  0  0  0  0  0  0  0  0  0  0  0
   10.3136  -15.9378   27.0438 C   0  0  0  0  0  0  0  0  0  0  0  0
   10.5119  -15.6810   28.3788 O   0  0  0  0  0  0  0  0  0  0  0  0
   11.2521  -16.3696   26.3473 O   0  0  0  0  0  0  0  0  0  0  0  0
  2  1  1  1
  3  2  1  0
  4  3  1  0
  5  4  2  0
  6  5  1  0
  7  6  1  0
  7  8  2  0
  8  4  1  0
  9 10  2  0
  9  2  1  0
 11  9  1  0
 12 11  1  0
 13 12  1  0
 14 13  1  0
 14 15  1  0
 15 11  1  0
 16 17  2  0
 15 16  1  1
 18 16  1  0
 19 20  1  1
 19 18  1  0
 20 21  1  0
 22 19  1  0
 23 22  1  0
 24 22  2  0
M  END
$$$$
