HPC.pdb
     RDKit          3D

 24 25  0  0  1  0  0  0  0  0999 V2000
   11.4976  -15.3160   16.0084 N   0  0  0  0  0  0  0  0  0  0  0  0
   10.2164  -15.0123   16.6023 C   0  0  1  0  0  0  0  0  0  0  0  0
    9.2884  -16.1912   16.3250 C   0  0  0  0  0  0  0  0  0  0  0  0
    9.0331  -16.3473   14.8777 C   0  0  0  0  0  0  0  0  0  0  0  0
    8.5216  -15.3691   14.0674 C   0  0  0  0  0  0  0  0  0  0  0  0
    8.4413  -15.8989   12.8376 N   0  0  0  0  0  0  0  0  0  0  0  0
    8.8876  -17.1629   12.8825 C   0  0  0  0  0  0  0  0  0  0  0  0
    9.2481  -17.4295   14.1361 N   0  0  0  0  0  0  0  0  0  0  0  0
   10.2772  -14.8830   18.0812 C   0  0  0  0  0  0  0  0  0  0  0  0
   11.2077  -15.4960   18.6560 O   0  0  0  0  0  0  0  0  0  0  0  0
    9.3724  -14.1291   18.8662 N   0  0  0  0  0  0  0  0  0  0  0  0
    8.2801  -13.3831   18.3289 C   0  0  0  0  0  0  0  0  0  0  0  0
    7.5035  -12.8022   19.4801 C   0  0  0  0  0  0  0  0  0  0  0  0
    8.5243  -12.8452   20.5997 C   0  0  0  0  0  0  0  0  0  0  0  0
    9.4146  -14.0023   20.2845 C   0  0  1  0  0  0  0  0  0  0  0  0
    8.9986  -15.2407   20.9921 C   0  0  0  0  0  0  0  0  0  0  0  0
    8.5813  -16.1918   20.2849 O   0  0  0  0  0  0  0  0  0  0  0  0
    9.0764  -15.3233   22.3876 N   0  0  0  0  0  0  0  0  0  0  0  0
    9.7635  -16.3945   23.0526 C   0  0  1  0  0  0  0  0  0  0  0  0
   11.2364  -16.4297   22.7160 C   0  0  0  0  0  0  0  0  0  0  0  0
   12.1155  -17.6919   23.6801 S   0  0  0  0  0  0  0  0  0  0  0  0
    9.6403  -16.3063   24.5193 C   0  0  0  0  0  0  0  0  0  0  0  0
    9.3055  -17.4188   25.2525 O   0  0  0  0  0  0  0  0  0  0  0  0
    9.8406  -15.2194   25.0945 O   0  0  0  0  0  0  0  0  0  0  0  0
  2  1  1  1
  3  2  1  0
  4  3  1  0
  5  4  2  0
  6  5  1  0
  7  6  1  0
  7  8  2  0
  8  4  1  0
  9 10  2  0
  9  2  1  0
 11  9  1  0
 12 11  1  0
 13 12  1  0
 14 13  1  0
 14 15  1  0
 15 11  1  0
 16 17  2  0
 15 16  1  1
 18 16  1  0
 19 20  1  1
 19 18  1  0
 20 21  1  0
 22 19  1  0
 23 22  1  0
 24 22  2  0
M  END
$$$$
