HPC.pdb
     RDKit          3D

 24 25  0  0  1  0  0  0  0  0999 V2000
   10.1566  -14.1071   20.9199 N   0  0  0  0  0  0  0  0  0  0  0  0
    8.9878  -13.8772   21.7367 C   0  0  1  0  0  0  0  0  0  0  0  0
    7.8695  -14.7670   21.2025 C   0  0  0  0  0  0  0  0  0  0  0  0
    7.6212  -14.5171   19.7671 C   0  0  0  0  0  0  0  0  0  0  0  0
    7.4885  -13.2758   19.2044 C   0  0  0  0  0  0  0  0  0  0  0  0
    7.2746  -13.4738   17.8950 N   0  0  0  0  0  0  0  0  0  0  0  0
    7.2744  -14.7930   17.6527 C   0  0  0  0  0  0  0  0  0  0  0  0
    7.4874  -15.4248   18.8051 N   0  0  0  0  0  0  0  0  0  0  0  0
    9.1818  -14.2769   23.1546 C   0  0  0  0  0  0  0  0  0  0  0  0
   10.0648  -15.1395   23.3742 O   0  0  0  0  0  0  0  0  0  0  0  0
    8.4503  -13.7584   24.2496 N   0  0  0  0  0  0  0  0  0  0  0  0
    7.2429  -13.0077   24.1185 C   0  0  0  0  0  0  0  0  0  0  0  0
    6.7229  -12.7190   25.5013 C   0  0  0  0  0  0  0  0  0  0  0  0
    7.9674  -12.8990   26.3475 C   0  0  0  0  0  0  0  0  0  0  0  0
    8.8020  -13.9035   25.6225 C   0  0  1  0  0  0  0  0  0  0  0  0
    8.5927  -15.2825   26.1342 C   0  0  0  0  0  0  0  0  0  0  0  0
    7.9500  -16.0744   25.4002 O   0  0  0  0  0  0  0  0  0  0  0  0
    9.0984  -15.6625   27.3832 N   0  0  0  0  0  0  0  0  0  0  0  0
   10.4731  -16.0323   27.5707 C   0  0  1  0  0  0  0  0  0  0  0  0
   11.2338  -15.0196   28.3952 C   0  0  0  0  0  0  0  0  0  0  0  0
   10.4417  -14.7319   30.0031 S   0  0  0  0  0  0  0  0  0  0  0  0
   10.6096  -17.3431   28.2320 C   0  0  0  0  0  0  0  0  0  0  0  0
    9.4953  -18.0101   28.6801 O   0  0  0  0  0  0  0  0  0  0  0  0
   11.7391  -17.8463   28.3845 O   0  0  0  0  0  0  0  0  0  0  0  0
  2  1  1  6
  3  2  1  0
  4  3  1  0
  5  4  2  0
  6  5  1  0
  7  6  1  0
  7  8  2  0
  8  4  1  0
  9 10  2  0
  9  2  1  0
 11  9  1  0
 12 11  1  0
 13 12  1  0
 14 13  1  0
 14 15  1  0
 15 11  1  0
 16 17  2  0
 15 16  1  1
 18 16  1  0
 19 20  1  1
 19 18  1  0
 20 21  1  0
 22 19  1  0
 23 22  1  0
 24 22  2  0
M  END
$$$$
