HPC.pdb
     RDKit          3D

 24 25  0  0  1  0  0  0  0  0999 V2000
    6.5828  -18.6836   18.6709 N   0  0  0  0  0  0  0  0  0  0  0  0
    6.3337  -17.4775   19.4255 C   0  0  1  0  0  0  0  0  0  0  0  0
    5.6372  -17.8801   20.7219 C   0  0  0  0  0  0  0  0  0  0  0  0
    4.3551  -18.5651   20.4546 C   0  0  0  0  0  0  0  0  0  0  0  0
    3.1871  -17.9307   20.1258 C   0  0  0  0  0  0  0  0  0  0  0  0
    2.2652  -18.8920   19.9659 N   0  0  0  0  0  0  0  0  0  0  0  0
    2.8410  -20.0828   20.1879 C   0  0  0  0  0  0  0  0  0  0  0  0
    4.1214  -19.8734   20.4867 N   0  0  0  0  0  0  0  0  0  0  0  0
    7.5802  -16.7798   19.8345 C   0  0  0  0  0  0  0  0  0  0  0  0
    8.5999  -17.4962   19.9719 O   0  0  0  0  0  0  0  0  0  0  0  0
    7.6886  -15.3891   20.0739 N   0  0  0  0  0  0  0  0  0  0  0  0
    6.6156  -14.4636   19.8995 C   0  0  0  0  0  0  0  0  0  0  0  0
    7.0954  -13.1073   20.3423 C   0  0  0  0  0  0  0  0  0  0  0  0
    8.6006  -13.2665   20.2630 C   0  0  0  0  0  0  0  0  0  0  0  0
    8.8632  -14.7150   20.5161 C   0  0  1  0  0  0  0  0  0  0  0  0
    9.1890  -14.9868   21.9399 C   0  0  0  0  0  0  0  0  0  0  0  0
    8.2510  -14.8914   22.7704 O   0  0  0  0  0  0  0  0  0  0  0  0
   10.4918  -15.3329   22.3183 N   0  0  0  0  0  0  0  0  0  0  0  0
   10.8163  -15.7396   23.6566 C   0  0  1  0  0  0  0  0  0  0  0  0
   10.0819  -16.9939   24.0705 C   0  0  0  0  0  0  0  0  0  0  0  0
   10.6265  -17.5844   25.6985 S   0  0  0  0  0  0  0  0  0  0  0  0
   12.2598  -15.9882   23.8260 C   0  0  0  0  0  0  0  0  0  0  0  0
   12.7894  -16.1537   25.0828 O   0  0  0  0  0  0  0  0  0  0  0  0
   13.0006  -16.0480   22.8261 O   0  0  0  0  0  0  0  0  0  0  0  0
  2  1  1  6
  3  2  1  0
  4  3  1  0
  5  4  2  0
  6  5  1  0
  7  6  1  0
  7  8  2  0
  8  4  1  0
  9 10  2  0
  9  2  1  0
 11  9  1  0
 12 11  1  0
 13 12  1  0
 14 13  1  0
 14 15  1  0
 15 11  1  0
 16 17  2  0
 15 16  1  1
 18 16  1  0
 19 20  1  6
 19 18  1  0
 20 21  1  0
 22 19  1  0
 23 22  1  0
 24 22  2  0
M  END
$$$$
