HPC.pdb
     RDKit          3D

 24 25  0  0  1  0  0  0  0  0999 V2000
   10.1499  -17.8992   19.5317 N   0  0  0  0  0  0  0  0  0  0  0  0
    8.9176  -17.2179   19.8537 C   0  0  1  0  0  0  0  0  0  0  0  0
    7.9904  -18.2312   20.5181 C   0  0  0  0  0  0  0  0  0  0  0  0
    7.4901  -19.2237   19.5438 C   0  0  0  0  0  0  0  0  0  0  0  0
    6.8536  -18.9122   18.3722 C   0  0  0  0  0  0  0  0  0  0  0  0
    6.5608  -20.0786   17.7778 N   0  0  0  0  0  0  0  0  0  0  0  0
    7.0005  -21.0803   18.5538 C   0  0  0  0  0  0  0  0  0  0  0  0
    7.5685  -20.5477   19.6337 N   0  0  0  0  0  0  0  0  0  0  0  0
    9.0993  -16.1246   20.8433 C   0  0  0  0  0  0  0  0  0  0  0  0
    9.9662  -16.3136   21.7291 O   0  0  0  0  0  0  0  0  0  0  0  0
    8.3729  -14.9099   20.8507 N   0  0  0  0  0  0  0  0  0  0  0  0
    7.4016  -14.5554   19.8662 C   0  0  0  0  0  0  0  0  0  0  0  0
    6.7880  -13.2418   20.2710 C   0  0  0  0  0  0  0  0  0  0  0  0
    7.8352  -12.6847   21.2146 C   0  0  0  0  0  0  0  0  0  0  0  0
    8.4994  -13.8763   21.8229 C   0  0  1  0  0  0  0  0  0  0  0  0
    7.9094  -14.2386   23.1375 C   0  0  0  0  0  0  0  0  0  0  0  0
    6.9515  -15.0518   23.1309 O   0  0  0  0  0  0  0  0  0  0  0  0
    8.4143  -13.6859   24.3207 N   0  0  0  0  0  0  0  0  0  0  0  0
    7.8721  -14.0135   25.6093 C   0  0  1  0  0  0  0  0  0  0  0  0
    6.3689  -13.8647   25.6556 C   0  0  0  0  0  0  0  0  0  0  0  0
    5.8734  -12.1422   25.9432 S   0  0  0  0  0  0  0  0  0  0  0  0
    8.1992  -15.3932   26.0141 C   0  0  0  0  0  0  0  0  0  0  0  0
    7.8677  -15.8417   27.2696 O   0  0  0  0  0  0  0  0  0  0  0  0
    8.7779  -16.1536   25.2146 O   0  0  0  0  0  0  0  0  0  0  0  0
  2  1  1  1
  3  2  1  0
  4  3  1  0
  5  4  2  0
  6  5  1  0
  7  6  1  0
  7  8  2  0
  8  4  1  0
  9 10  2  0
  9  2  1  0
 11  9  1  0
 12 11  1  0
 13 12  1  0
 14 13  1  0
 14 15  1  0
 15 11  1  0
 16 17  2  0
 15 16  1  1
 18 16  1  0
 19 20  1  6
 19 18  1  0
 20 21  1  0
 22 19  1  0
 23 22  1  0
 24 22  2  0
M  END
$$$$
