HPC.pdb
     RDKit          3D

 24 25  0  0  1  0  0  0  0  0999 V2000
   10.8225  -15.7801   15.6765 N   0  0  0  0  0  0  0  0  0  0  0  0
    9.6612  -15.3563   16.4236 C   0  0  1  0  0  0  0  0  0  0  0  0
    8.7937  -16.5879   16.6657 C   0  0  0  0  0  0  0  0  0  0  0  0
    8.0801  -16.9943   15.4369 C   0  0  0  0  0  0  0  0  0  0  0  0
    8.1471  -16.3296   14.2416 C   0  0  0  0  0  0  0  0  0  0  0  0
    7.3665  -17.0070   13.3866 N   0  0  0  0  0  0  0  0  0  0  0  0
    6.8328  -18.0567   14.0288 C   0  0  0  0  0  0  0  0  0  0  0  0
    7.2753  -18.0413   15.2844 N   0  0  0  0  0  0  0  0  0  0  0  0
    9.9980  -14.8264   17.7703 C   0  0  0  0  0  0  0  0  0  0  0  0
   11.1164  -15.1528   18.2335 O   0  0  0  0  0  0  0  0  0  0  0  0
    9.1564  -13.9951   18.5473 N   0  0  0  0  0  0  0  0  0  0  0  0
    7.8602  -13.5626   18.1334 C   0  0  0  0  0  0  0  0  0  0  0  0
    7.2491  -12.7788   19.2640 C   0  0  0  0  0  0  0  0  0  0  0  0
    8.4716  -12.3871   20.0699 C   0  0  0  0  0  0  0  0  0  0  0  0
    9.4698  -13.4733   19.8353 C   0  0  1  0  0  0  0  0  0  0  0  0
    9.4398  -14.5048   20.9042 C   0  0  0  0  0  0  0  0  0  0  0  0
    8.5701  -15.4064   20.8058 O   0  0  0  0  0  0  0  0  0  0  0  0
   10.3504  -14.4555   21.9664 N   0  0  0  0  0  0  0  0  0  0  0  0
   10.4043  -15.4764   22.9747 C   0  0  1  0  0  0  0  0  0  0  0  0
    9.0542  -15.7375   23.6016 C   0  0  0  0  0  0  0  0  0  0  0  0
    9.1501  -17.0027   24.8998 S   0  0  0  0  0  0  0  0  0  0  0  0
   10.9068  -16.7562   22.4419 C   0  0  0  0  0  0  0  0  0  0  0  0
   11.7558  -17.5317   23.1936 O   0  0  0  0  0  0  0  0  0  0  0  0
   10.5599  -17.1344   21.3066 O   0  0  0  0  0  0  0  0  0  0  0  0
  2  1  1  1
  3  2  1  0
  4  3  1  0
  5  4  2  0
  6  5  1  0
  7  6  1  0
  7  8  2  0
  8  4  1  0
  9 10  2  0
  9  2  1  0
 11  9  1  0
 12 11  1  0
 13 12  1  0
 14 13  1  0
 14 15  1  0
 15 11  1  0
 16 17  2  0
 15 16  1  1
 18 16  1  0
 19 20  1  6
 19 18  1  0
 20 21  1  0
 22 19  1  0
 23 22  1  0
 24 22  2  0
M  END
$$$$
