HPC.pdb
     RDKit          3D

 24 25  0  0  1  0  0  0  0  0999 V2000
    5.6896  -14.5650   21.2216 N   0  0  0  0  0  0  0  0  0  0  0  0
    7.0073  -15.1423   21.3500 C   0  0  1  0  0  0  0  0  0  0  0  0
    8.0228  -14.0500   21.0282 C   0  0  0  0  0  0  0  0  0  0  0  0
    8.1442  -13.8396   19.5703 C   0  0  0  0  0  0  0  0  0  0  0  0
    7.4978  -14.5837   18.6198 C   0  0  0  0  0  0  0  0  0  0  0  0
    7.8676  -14.0842   17.4310 N   0  0  0  0  0  0  0  0  0  0  0  0
    8.7146  -13.0648   17.6361 C   0  0  0  0  0  0  0  0  0  0  0  0
    8.8786  -12.9217   18.9496 N   0  0  0  0  0  0  0  0  0  0  0  0
    7.3148  -15.5869   22.7340 C   0  0  0  0  0  0  0  0  0  0  0  0
    7.0037  -14.7954   23.6553 O   0  0  0  0  0  0  0  0  0  0  0  0
    7.9230  -16.8193   23.0725 N   0  0  0  0  0  0  0  0  0  0  0  0
    8.2916  -17.8154   22.1185 C   0  0  0  0  0  0  0  0  0  0  0  0
    8.9893  -18.9278   22.8545 C   0  0  0  0  0  0  0  0  0  0  0  0
    8.5104  -18.7111   24.2761 C   0  0  0  0  0  0  0  0  0  0  0  0
    8.2522  -17.2445   24.3917 C   0  0  1  0  0  0  0  0  0  0  0  0
    9.4109  -16.5134   24.9666 C   0  0  0  0  0  0  0  0  0  0  0  0
    9.9905  -15.6831   24.2227 O   0  0  0  0  0  0  0  0  0  0  0  0
    9.8225  -16.7545   26.2829 N   0  0  0  0  0  0  0  0  0  0  0  0
   10.3157  -15.7079   27.1332 C   0  0  1  0  0  0  0  0  0  0  0  0
    9.2816  -14.6346   27.3832 C   0  0  0  0  0  0  0  0  0  0  0  0
    9.9341  -13.3050   28.4329 S   0  0  0  0  0  0  0  0  0  0  0  0
   10.7572  -16.2198   28.4437 C   0  0  0  0  0  0  0  0  0  0  0  0
   11.9449  -15.7940   28.9871 O   0  0  0  0  0  0  0  0  0  0  0  0
   10.0504  -17.0407   29.0591 O   0  0  0  0  0  0  0  0  0  0  0  0
  2  1  1  1
  3  2  1  0
  4  3  1  0
  5  4  2  0
  6  5  1  0
  7  6  1  0
  7  8  2  0
  8  4  1  0
  9 10  2  0
  9  2  1  0
 11  9  1  0
 12 11  1  0
 13 12  1  0
 14 13  1  0
 14 15  1  0
 15 11  1  0
 16 17  2  0
 15 16  1  6
 18 16  1  0
 19 20  1  1
 19 18  1  0
 20 21  1  0
 22 19  1  0
 23 22  1  0
 24 22  2  0
M  END
$$$$
