HPC.pdb
     RDKit          3D

 24 25  0  0  1  0  0  0  0  0999 V2000
    8.7865  -17.6438   16.5678 N   0  0  0  0  0  0  0  0  0  0  0  0
    8.6731  -16.5545   17.5095 C   0  0  1  0  0  0  0  0  0  0  0  0
    7.4130  -16.7896   18.3371 C   0  0  0  0  0  0  0  0  0  0  0  0
    7.2546  -15.7571   19.3827 C   0  0  0  0  0  0  0  0  0  0  0  0
    6.8982  -14.4565   19.1450 C   0  0  0  0  0  0  0  0  0  0  0  0
    6.8639  -13.8481   20.3400 N   0  0  0  0  0  0  0  0  0  0  0  0
    7.1879  -14.7403   21.2877 C   0  0  0  0  0  0  0  0  0  0  0  0
    7.4257  -15.9073   20.6924 N   0  0  0  0  0  0  0  0  0  0  0  0
    9.7948  -16.5082   18.4828 C   0  0  0  0  0  0  0  0  0  0  0  0
   10.0425  -17.5723   19.0980 O   0  0  0  0  0  0  0  0  0  0  0  0
   10.5846  -15.3657   18.7547 N   0  0  0  0  0  0  0  0  0  0  0  0
   10.3920  -14.0960   18.1308 C   0  0  0  0  0  0  0  0  0  0  0  0
   11.3602  -13.1232   18.7488 C   0  0  0  0  0  0  0  0  0  0  0  0
   12.4019  -14.0516   19.3406 C   0  0  0  0  0  0  0  0  0  0  0  0
   11.6715  -15.3111   19.6740 C   0  0  1  0  0  0  0  0  0  0  0  0
   11.2353  -15.3489   21.0937 C   0  0  0  0  0  0  0  0  0  0  0  0
   10.2742  -14.6071   21.4175 O   0  0  0  0  0  0  0  0  0  0  0  0
   11.8812  -16.1824   22.0148 N   0  0  0  0  0  0  0  0  0  0  0  0
   11.4270  -16.3204   23.3699 C   0  0  1  0  0  0  0  0  0  0  0  0
    9.9875  -16.7731   23.4508 C   0  0  0  0  0  0  0  0  0  0  0  0
    9.0647  -15.8538   24.7153 S   0  0  0  0  0  0  0  0  0  0  0  0
   12.2436  -17.2822   24.1332 C   0  0  0  0  0  0  0  0  0  0  0  0
   13.1495  -18.0863   23.4851 O   0  0  0  0  0  0  0  0  0  0  0  0
   12.1108  -17.3651   25.3692 O   0  0  0  0  0  0  0  0  0  0  0  0
  2  1  1  6
  3  2  1  0
  4  3  1  0
  5  4  2  0
  6  5  1  0
  7  6  1  0
  7  8  2  0
  8  4  1  0
  9 10  2  0
  9  2  1  0
 11  9  1  0
 12 11  1  0
 13 12  1  0
 14 13  1  0
 14 15  1  0
 15 11  1  0
 16 17  2  0
 15 16  1  1
 18 16  1  0
 19 20  1  6
 19 18  1  0
 20 21  1  0
 22 19  1  0
 23 22  1  0
 24 22  2  0
M  END
$$$$
