HPC.pdb
     RDKit          3D

 24 25  0  0  1  0  0  0  0  0999 V2000
    9.6911  -15.0884   21.4133 N   0  0  0  0  0  0  0  0  0  0  0  0
    8.5433  -14.9407   22.2776 C   0  0  1  0  0  0  0  0  0  0  0  0
    7.8242  -16.2856   22.3234 C   0  0  0  0  0  0  0  0  0  0  0  0
    7.4034  -16.7179   20.9742 C   0  0  0  0  0  0  0  0  0  0  0  0
    6.4290  -16.1083   20.2300 C   0  0  0  0  0  0  0  0  0  0  0  0
    6.3461  -16.7932   19.0795 N   0  0  0  0  0  0  0  0  0  0  0  0
    7.2385  -17.7941   19.1083 C   0  0  0  0  0  0  0  0  0  0  0  0
    7.8819  -17.7406   20.2726 N   0  0  0  0  0  0  0  0  0  0  0  0
    8.9103  -14.6290   23.6833 C   0  0  0  0  0  0  0  0  0  0  0  0
    9.9855  -15.1210   24.1003 O   0  0  0  0  0  0  0  0  0  0  0  0
    8.1417  -13.8300   24.5630 N   0  0  0  0  0  0  0  0  0  0  0  0
    6.9049  -13.2130   24.2051 C   0  0  0  0  0  0  0  0  0  0  0  0
    6.3534  -12.5333   25.4297 C   0  0  0  0  0  0  0  0  0  0  0  0
    7.5925  -12.3848   26.2900 C   0  0  0  0  0  0  0  0  0  0  0  0
    8.4799  -13.5256   25.9129 C   0  0  1  0  0  0  0  0  0  0  0  0
    8.3233  -14.6857   26.8278 C   0  0  0  0  0  0  0  0  0  0  0  0
    7.6260  -15.6477   26.4188 O   0  0  0  0  0  0  0  0  0  0  0  0
    8.9350  -14.6865   28.0872 N   0  0  0  0  0  0  0  0  0  0  0  0
    9.7283  -15.7898   28.5508 C   0  0  1  0  0  0  0  0  0  0  0  0
   10.9092  -16.0678   27.6495 C   0  0  0  0  0  0  0  0  0  0  0  0
   11.4430  -17.7995   27.7574 S   0  0  0  0  0  0  0  0  0  0  0  0
   10.2463  -15.5667   29.9132 C   0  0  0  0  0  0  0  0  0  0  0  0
   10.5265  -14.2932   30.3457 O   0  0  0  0  0  0  0  0  0  0  0  0
   10.4301  -16.5364   30.6735 O   0  0  0  0  0  0  0  0  0  0  0  0
  2  1  1  6
  3  2  1  0
  4  3  1  0
  5  4  2  0
  6  5  1  0
  7  6  1  0
  7  8  2  0
  8  4  1  0
  9 10  2  0
  9  2  1  0
 11  9  1  0
 12 11  1  0
 13 12  1  0
 14 13  1  0
 14 15  1  0
 15 11  1  0
 16 17  2  0
 15 16  1  1
 18 16  1  0
 19 20  1  6
 19 18  1  0
 20 21  1  0
 22 19  1  0
 23 22  1  0
 24 22  2  0
M  END
$$$$
