HER.pdb
     RDKit          3D

 31 31  0  0  1  0  0  0  0  0999 V2000
   25.7212  -14.3329  -19.7636 N   0  0  0  0  0  0  0  0  0  0  0  0
   25.6818  -12.9395  -20.1182 C   0  0  1  0  0  0  0  0  0  0  0  0
   24.4043  -12.5639  -20.8348 C   0  0  0  0  0  0  0  0  0  0  0  0
   24.2485  -13.2569  -22.1367 C   0  0  0  0  0  0  0  0  0  0  0  0
   24.5993  -12.8325  -23.3975 C   0  0  0  0  0  0  0  0  0  0  0  0
   24.2822  -13.7662  -24.3090 N   0  0  0  0  0  0  0  0  0  0  0  0
   23.7215  -14.8042  -23.6323 C   0  0  0  0  0  0  0  0  0  0  0  0
   23.7030  -14.4929  -22.3222 N   0  0  0  0  0  0  0  0  0  0  0  0
   25.6969  -12.1249  -18.8595 C   0  0  0  0  0  0  0  0  0  0  0  0
   25.2014  -12.4934  -17.7828 O   0  0  0  0  0  0  0  0  0  0  0  0
   26.3198  -10.8507  -18.9089 N   0  0  0  0  0  0  0  0  0  0  0  0
   26.3157   -9.9513  -17.7735 C   0  0  1  0  0  0  0  0  0  0  0  0
   27.5509   -9.1531  -17.6507 C   0  0  0  0  0  0  0  0  0  0  0  0
   28.8483   -9.8282  -17.5345 C   0  0  0  0  0  0  0  0  0  0  0  0
   30.0830   -9.0747  -17.6047 C   0  0  0  0  0  0  0  0  0  0  0  0
   30.1535   -7.8359  -17.6693 O   0  0  0  0  0  0  0  0  0  0  0  0
   25.0249   -9.2673  -17.6705 C   0  0  0  0  0  0  0  0  0  0  0  0
   24.2814   -9.1005  -18.7015 O   0  0  0  0  0  0  0  0  0  0  0  0
   31.3504   -9.7194  -17.6050 O   0  0  0  0  0  0  0  0  0  0  0  0
   17.8025  -11.1611  -19.0161 N   0  0  0  0  0  0  0  0  0  0  0  0
   17.4840   -9.9337  -18.3934 C   0  0  0  0  0  0  0  0  0  0  0  0
   16.2964   -9.4578  -18.5109 N   0  0  0  0  0  0  0  0  0  0  0  0
   18.4606   -9.2200  -17.6408 N   0  0  0  0  0  0  0  0  0  0  0  0
   19.8323   -9.6584  -17.6757 C   0  0  0  0  0  0  0  0  0  0  0  0
   20.7482   -8.7349  -16.9410 C   0  0  0  0  0  0  0  0  0  0  0  0
   22.1685   -9.0874  -17.0242 C   0  0  0  0  0  0  0  0  0  0  0  0
   23.1331   -8.1588  -16.4006 C   0  0  2  0  0  0  0  0  0  0  0  0
   24.4980   -8.7510  -16.4526 N   0  0  0  0  0  0  0  0  0  0  0  0
   22.9141   -7.6893  -15.0418 C   0  0  0  0  0  0  0  0  0  0  0  0
   22.0412   -6.6558  -14.7518 O   0  0  0  0  0  0  0  0  0  0  0  0
   23.5038   -8.1823  -14.0143 O   0  0  0  0  0  0  0  0  0  0  0  0
  2  1  1  1
  2  9  1  0
  3  2  1  0
  3  4  1  0
  4  5  2  0
  4  8  1  0
  5  6  1  0
  6  7  1  0
  8  7  2  0
  9 10  2  0
 11  9  1  0
 11 12  1  0
 12 17  1  0
 12 13  1  6
 13 14  1  0
 15 19  1  0
 15 14  1  0
 16 15  2  0
 17 18  2  0
 20 21  1  0
 21 22  2  0
 23 21  1  0
 23 24  1  0
 24 25  1  0
 25 26  1  0
 27 26  1  1
 27 29  1  0
 28 27  1  0
 28 17  1  0
 29 31  2  0
 29 30  1  0
M  END
$$$$
