HER.pdb
     RDKit          3D

 31 31  0  0  1  0  0  0  0  0999 V2000
   27.2358  -15.2634  -20.6533 N   0  0  0  0  0  0  0  0  0  0  0  0
   26.9216  -15.6490  -19.3037 C   0  0  1  0  0  0  0  0  0  0  0  0
   27.0414  -14.4959  -18.3329 C   0  0  0  0  0  0  0  0  0  0  0  0
   28.4296  -13.9893  -18.2079 C   0  0  0  0  0  0  0  0  0  0  0  0
   28.9300  -12.7392  -18.4902 C   0  0  0  0  0  0  0  0  0  0  0  0
   30.2486  -12.6970  -18.2395 N   0  0  0  0  0  0  0  0  0  0  0  0
   30.6048  -13.9305  -17.7909 C   0  0  0  0  0  0  0  0  0  0  0  0
   29.5047  -14.7071  -17.7734 N   0  0  0  0  0  0  0  0  0  0  0  0
   25.4861  -16.0783  -19.2506 C   0  0  0  0  0  0  0  0  0  0  0  0
   24.5937  -15.6253  -19.9848 O   0  0  0  0  0  0  0  0  0  0  0  0
   25.1307  -17.0671  -18.2967 N   0  0  0  0  0  0  0  0  0  0  0  0
   23.7759  -17.5657  -18.1781 C   0  0  1  0  0  0  0  0  0  0  0  0
   23.7034  -18.9791  -17.7603 C   0  0  0  0  0  0  0  0  0  0  0  0
   22.3979  -19.6034  -17.5186 C   0  0  0  0  0  0  0  0  0  0  0  0
   22.3016  -21.0067  -17.1740 C   0  0  0  0  0  0  0  0  0  0  0  0
   22.4423  -21.4653  -16.0278 O   0  0  0  0  0  0  0  0  0  0  0  0
   22.9315  -16.5863  -17.4906 C   0  0  0  0  0  0  0  0  0  0  0  0
   23.2737  -16.1007  -16.3545 O   0  0  0  0  0  0  0  0  0  0  0  0
   22.0293  -21.9982  -18.1561 O   0  0  0  0  0  0  0  0  0  0  0  0
   18.7928   -9.4234  -19.9169 N   0  0  0  0  0  0  0  0  0  0  0  0
   18.5048   -9.4845  -18.5352 C   0  0  0  0  0  0  0  0  0  0  0  0
   17.8641   -8.5177  -17.9825 N   0  0  0  0  0  0  0  0  0  0  0  0
   18.9156  -10.6005  -17.7507 N   0  0  0  0  0  0  0  0  0  0  0  0
   19.7188  -11.6294  -18.3599 C   0  0  0  0  0  0  0  0  0  0  0  0
   19.8894  -12.8219  -17.4764 C   0  0  0  0  0  0  0  0  0  0  0  0
   20.7666  -13.8640  -18.0176 C   0  0  0  0  0  0  0  0  0  0  0  0
   20.8799  -15.1194  -17.2477 C   0  0  2  0  0  0  0  0  0  0  0  0
   21.6994  -16.0993  -18.0123 N   0  0  0  0  0  0  0  0  0  0  0  0
   19.6792  -15.8091  -16.8035 C   0  0  0  0  0  0  0  0  0  0  0  0
   18.9113  -15.3459  -15.7499 O   0  0  0  0  0  0  0  0  0  0  0  0
   19.2392  -16.8891  -17.3387 O   0  0  0  0  0  0  0  0  0  0  0  0
  2  1  1  6
  2  9  1  0
  3  2  1  0
  3  4  1  0
  4  5  2  0
  4  8  1  0
  5  6  1  0
  6  7  1  0
  8  7  2  0
  9 10  2  0
 11  9  1  0
 11 12  1  0
 12 17  1  0
 12 13  1  1
 13 14  1  0
 15 19  1  0
 15 14  1  0
 16 15  2  0
 17 18  2  0
 20 21  1  0
 21 22  2  0
 23 21  1  0
 23 24  1  0
 24 25  1  0
 25 26  1  0
 27 26  1  6
 27 29  1  0
 28 27  1  0
 28 17  1  0
 29 31  2  0
 29 30  1  0
M  END
$$$$
