HER.pdb
     RDKit          3D

 31 31  0  0  1  0  0  0  0  0999 V2000
   18.2352  -12.0951  -15.2449 N   0  0  0  0  0  0  0  0  0  0  0  0
   17.8715  -10.7123  -15.4008 C   0  0  1  0  0  0  0  0  0  0  0  0
   16.3743  -10.5166  -15.4822 C   0  0  0  0  0  0  0  0  0  0  0  0
   15.7854  -11.0829  -16.7200 C   0  0  0  0  0  0  0  0  0  0  0  0
   15.7327  -10.5452  -17.9853 C   0  0  0  0  0  0  0  0  0  0  0  0
   15.1059  -11.3863  -18.8238 N   0  0  0  0  0  0  0  0  0  0  0  0
   14.7500  -12.4780  -18.0949 C   0  0  0  0  0  0  0  0  0  0  0  0
   15.1616  -12.2909  -16.8264 N   0  0  0  0  0  0  0  0  0  0  0  0
   18.3144   -9.9607  -14.1814 C   0  0  0  0  0  0  0  0  0  0  0  0
   18.2627  -10.4110  -13.0259 O   0  0  0  0  0  0  0  0  0  0  0  0
   18.8250   -8.6497  -14.3670 N   0  0  0  0  0  0  0  0  0  0  0  0
   19.3024   -7.8492  -13.2582 C   0  0  1  0  0  0  0  0  0  0  0  0
   20.4193   -6.9538  -13.6168 C   0  0  0  0  0  0  0  0  0  0  0  0
   20.9424   -6.0059  -12.6268 C   0  0  0  0  0  0  0  0  0  0  0  0
   22.0906   -5.1773  -12.9308 C   0  0  0  0  0  0  0  0  0  0  0  0
   23.0473   -5.5269  -13.6422 O   0  0  0  0  0  0  0  0  0  0  0  0
   18.1737   -7.2969  -12.5060 C   0  0  0  0  0  0  0  0  0  0  0  0
   17.2499   -6.6309  -13.0946 O   0  0  0  0  0  0  0  0  0  0  0  0
   22.2121   -3.8559  -12.4198 O   0  0  0  0  0  0  0  0  0  0  0  0
   11.6740   -9.6922   -7.6575 N   0  0  0  0  0  0  0  0  0  0  0  0
   11.6715   -8.2994   -7.4214 C   0  0  0  0  0  0  0  0  0  0  0  0
   10.7205   -7.7797   -6.7314 N   0  0  0  0  0  0  0  0  0  0  0  0
   12.7064   -7.4678   -7.9381 N   0  0  0  0  0  0  0  0  0  0  0  0
   13.7464   -8.0580   -8.7413 C   0  0  0  0  0  0  0  0  0  0  0  0
   14.7941   -7.0702   -9.1389 C   0  0  0  0  0  0  0  0  0  0  0  0
   15.9000   -7.6320   -9.9196 C   0  0  0  0  0  0  0  0  0  0  0  0
   16.9541   -6.6991  -10.3670 C   0  0  2  0  0  0  0  0  0  0  0  0
   18.0072   -7.4535  -11.1005 N   0  0  0  0  0  0  0  0  0  0  0  0
   17.6247   -5.8443   -9.4004 C   0  0  0  0  0  0  0  0  0  0  0  0
   18.9789   -5.9514   -9.1378 O   0  0  0  0  0  0  0  0  0  0  0  0
   17.0279   -4.9362   -8.7180 O   0  0  0  0  0  0  0  0  0  0  0  0
  2  1  1  1
  2  9  1  0
  3  2  1  0
  3  4  1  0
  4  5  2  0
  4  8  1  0
  5  6  1  0
  6  7  1  0
  8  7  2  0
  9 10  2  0
 11  9  1  0
 11 12  1  0
 12 17  1  0
 12 13  1  6
 13 14  1  0
 15 19  1  0
 15 14  1  0
 16 15  2  0
 17 18  2  0
 20 21  1  0
 21 22  2  0
 23 21  1  0
 23 24  1  0
 24 25  1  0
 25 26  1  0
 27 26  1  1
 27 29  1  0
 28 27  1  0
 28 17  1  0
 29 31  2  0
 29 30  1  0
M  END
$$$$
