HER.pdb
     RDKit          3D

 31 31  0  0  1  0  0  0  0  0999 V2000
   17.2642  -26.0674   -8.9829 N   0  0  0  0  0  0  0  0  0  0  0  0
   17.7698  -25.2408   -7.9199 C   0  0  1  0  0  0  0  0  0  0  0  0
   17.5519  -23.7678   -8.1828 C   0  0  0  0  0  0  0  0  0  0  0  0
   18.3824  -23.2523   -9.2981 C   0  0  0  0  0  0  0  0  0  0  0  0
   18.5143  -23.7322  -10.5808 C   0  0  0  0  0  0  0  0  0  0  0  0
   19.3735  -22.9709  -11.2776 N   0  0  0  0  0  0  0  0  0  0  0  0
   19.8014  -21.9896  -10.4388 C   0  0  0  0  0  0  0  0  0  0  0  0
   19.2013  -22.1630   -9.2457 N   0  0  0  0  0  0  0  0  0  0  0  0
   17.0032  -25.5486   -6.6686 C   0  0  0  0  0  0  0  0  0  0  0  0
   15.7757  -25.7279   -6.6275 O   0  0  0  0  0  0  0  0  0  0  0  0
   17.7344  -25.6396   -5.4557 N   0  0  0  0  0  0  0  0  0  0  0  0
   17.0798  -25.8456   -4.1800 C   0  0  1  0  0  0  0  0  0  0  0  0
   17.9466  -26.4830   -3.1701 C   0  0  0  0  0  0  0  0  0  0  0  0
   18.2467  -27.9160   -3.2648 C   0  0  0  0  0  0  0  0  0  0  0  0
   19.1419  -28.5483   -2.3182 C   0  0  0  0  0  0  0  0  0  0  0  0
   19.7569  -27.9517   -1.4184 O   0  0  0  0  0  0  0  0  0  0  0  0
   16.3189  -24.6534   -3.8001 C   0  0  0  0  0  0  0  0  0  0  0  0
   16.7574  -23.4778   -4.0632 O   0  0  0  0  0  0  0  0  0  0  0  0
   19.3921  -29.9477   -2.3497 O   0  0  0  0  0  0  0  0  0  0  0  0
    9.4963  -20.4684   -5.4772 N   0  0  0  0  0  0  0  0  0  0  0  0
    9.6476  -20.0217   -4.1456 C   0  0  0  0  0  0  0  0  0  0  0  0
    9.0678  -18.9364   -3.7760 N   0  0  0  0  0  0  0  0  0  0  0  0
   10.4333  -20.7570   -3.2120 N   0  0  0  0  0  0  0  0  0  0  0  0
   11.3006  -21.8016   -3.6931 C   0  0  0  0  0  0  0  0  0  0  0  0
   12.0433  -22.4833   -2.5907 C   0  0  0  0  0  0  0  0  0  0  0  0
   12.9168  -23.5768   -3.0261 C   0  0  0  0  0  0  0  0  0  0  0  0
   14.3601  -23.4429   -2.7424 C   0  0  2  0  0  0  0  0  0  0  0  0
   15.0618  -24.6967   -3.1325 N   0  0  0  0  0  0  0  0  0  0  0  0
   14.8073  -23.0925   -1.4038 C   0  0  0  0  0  0  0  0  0  0  0  0
   15.4827  -23.9891   -0.5950 O   0  0  0  0  0  0  0  0  0  0  0  0
   14.6140  -21.9434   -0.8665 O   0  0  0  0  0  0  0  0  0  0  0  0
  2  1  1  6
  2  9  1  0
  3  2  1  0
  3  4  1  0
  4  5  2  0
  4  8  1  0
  5  6  1  0
  6  7  1  0
  8  7  2  0
  9 10  2  0
 11  9  1  0
 11 12  1  0
 12 17  1  0
 12 13  1  1
 13 14  1  0
 15 19  1  0
 15 14  1  0
 16 15  2  0
 17 18  2  0
 20 21  1  0
 21 22  2  0
 23 21  1  0
 23 24  1  0
 24 25  1  0
 25 26  1  0
 27 26  1  1
 27 29  1  0
 28 27  1  0
 28 17  1  0
 29 31  2  0
 29 30  1  0
M  END
$$$$
