HER.pdb
     RDKit          3D

 31 31  0  0  1  0  0  0  0  0999 V2000
   23.0723  -25.1507  -19.8700 N   0  0  0  0  0  0  0  0  0  0  0  0
   22.4204  -24.3788  -20.8936 C   0  0  1  0  0  0  0  0  0  0  0  0
   20.9252  -24.6027  -20.9189 C   0  0  0  0  0  0  0  0  0  0  0  0
   20.5572  -26.0008  -21.2493 C   0  0  0  0  0  0  0  0  0  0  0  0
   19.9879  -26.5046  -22.3961 C   0  0  0  0  0  0  0  0  0  0  0  0
   19.8154  -27.8319  -22.2870 N   0  0  0  0  0  0  0  0  0  0  0  0
   20.2772  -28.1904  -21.0591 C   0  0  0  0  0  0  0  0  0  0  0  0
   20.7237  -27.0830  -20.4363 N   0  0  0  0  0  0  0  0  0  0  0  0
   22.6088  -22.9230  -20.5882 C   0  0  0  0  0  0  0  0  0  0  0  0
   22.6131  -22.4443  -19.4430 O   0  0  0  0  0  0  0  0  0  0  0  0
   22.7939  -22.0403  -21.6838 N   0  0  0  0  0  0  0  0  0  0  0  0
   23.0844  -20.6339  -21.4942 C   0  0  1  0  0  0  0  0  0  0  0  0
   24.4216  -20.2389  -21.9777 C   0  0  0  0  0  0  0  0  0  0  0  0
   25.3710  -19.6001  -21.0596 C   0  0  0  0  0  0  0  0  0  0  0  0
   26.6717  -19.1656  -21.5250 C   0  0  0  0  0  0  0  0  0  0  0  0
   27.0701  -19.2563  -22.6984 O   0  0  0  0  0  0  0  0  0  0  0  0
   21.9299  -19.8193  -21.8791 C   0  0  0  0  0  0  0  0  0  0  0  0
   21.1371  -20.1963  -22.8133 O   0  0  0  0  0  0  0  0  0  0  0  0
   27.6223  -18.5827  -20.6428 O   0  0  0  0  0  0  0  0  0  0  0  0
   16.1034  -14.6834  -18.2127 N   0  0  0  0  0  0  0  0  0  0  0  0
   15.9660  -14.3591  -19.5807 C   0  0  0  0  0  0  0  0  0  0  0  0
   14.9140  -13.7376  -19.9777 N   0  0  0  0  0  0  0  0  0  0  0  0
   16.9757  -14.7126  -20.5215 N   0  0  0  0  0  0  0  0  0  0  0  0
   18.0956  -15.5063  -20.0847 C   0  0  0  0  0  0  0  0  0  0  0  0
   19.0877  -15.7471  -21.1752 C   0  0  0  0  0  0  0  0  0  0  0  0
   20.1701  -16.6712  -20.8247 C   0  0  0  0  0  0  0  0  0  0  0  0
   20.4961  -17.7316  -21.7998 C   0  0  2  0  0  0  0  0  0  0  0  0
   21.5954  -18.5799  -21.2629 N   0  0  0  0  0  0  0  0  0  0  0  0
   20.8468  -17.3784  -23.1661 C   0  0  0  0  0  0  0  0  0  0  0  0
   19.9567  -17.5231  -24.2154 O   0  0  0  0  0  0  0  0  0  0  0  0
   21.9925  -16.9140  -23.5098 O   0  0  0  0  0  0  0  0  0  0  0  0
  2  1  1  1
  2  9  1  0
  3  2  1  0
  3  4  1  0
  4  5  2  0
  4  8  1  0
  5  6  1  0
  6  7  1  0
  8  7  2  0
  9 10  2  0
 11  9  1  0
 11 12  1  0
 12 17  1  0
 12 13  1  6
 13 14  1  0
 15 19  1  0
 15 14  1  0
 16 15  2  0
 17 18  2  0
 20 21  1  0
 21 22  2  0
 23 21  1  0
 23 24  1  0
 24 25  1  0
 25 26  1  0
 27 26  1  1
 27 29  1  0
 28 27  1  0
 28 17  1  0
 29 31  2  0
 29 30  1  0
M  END
$$$$
