HER.pdb
     RDKit          3D

 31 31  0  0  1  0  0  0  0  0999 V2000
   24.6346  -20.1034  -16.2917 N   0  0  0  0  0  0  0  0  0  0  0  0
   24.8421  -19.0982  -15.2840 C   0  0  1  0  0  0  0  0  0  0  0  0
   25.4444  -17.8318  -15.8496 C   0  0  0  0  0  0  0  0  0  0  0  0
   26.6133  -18.0905  -16.7249 C   0  0  0  0  0  0  0  0  0  0  0  0
   27.2586  -19.2764  -16.9895 C   0  0  0  0  0  0  0  0  0  0  0  0
   28.2781  -19.0731  -17.8396 N   0  0  0  0  0  0  0  0  0  0  0  0
   28.2927  -17.7440  -18.1279 C   0  0  0  0  0  0  0  0  0  0  0  0
   27.2870  -17.1549  -17.4534 N   0  0  0  0  0  0  0  0  0  0  0  0
   23.5095  -18.7001  -14.7238 C   0  0  0  0  0  0  0  0  0  0  0  0
   23.3525  -17.8581  -13.8256 O   0  0  0  0  0  0  0  0  0  0  0  0
   22.3565  -19.3306  -15.2597 N   0  0  0  0  0  0  0  0  0  0  0  0
   21.0326  -19.0901  -14.7235 C   0  0  1  0  0  0  0  0  0  0  0  0
   20.2616  -18.0896  -15.4866 C   0  0  0  0  0  0  0  0  0  0  0  0
   18.8710  -17.8024  -15.1177 C   0  0  0  0  0  0  0  0  0  0  0  0
   18.0841  -16.8552  -15.8798 C   0  0  0  0  0  0  0  0  0  0  0  0
   18.5323  -15.8205  -16.4016 O   0  0  0  0  0  0  0  0  0  0  0  0
   20.3866  -20.3573  -14.3750 C   0  0  0  0  0  0  0  0  0  0  0  0
   20.4701  -21.3763  -15.1484 O   0  0  0  0  0  0  0  0  0  0  0  0
   16.6915  -17.0459  -16.0950 O   0  0  0  0  0  0  0  0  0  0  0  0
   19.4535  -25.0780   -7.7029 N   0  0  0  0  0  0  0  0  0  0  0  0
   18.2299  -25.5236   -8.2505 C   0  0  0  0  0  0  0  0  0  0  0  0
   17.7804  -26.6828   -7.9267 N   0  0  0  0  0  0  0  0  0  0  0  0
   17.4921  -24.7064   -9.1546 N   0  0  0  0  0  0  0  0  0  0  0  0
   18.0313  -23.4295   -9.5469 C   0  0  0  0  0  0  0  0  0  0  0  0
   18.1043  -23.2693  -11.0303 C   0  0  0  0  0  0  0  0  0  0  0  0
   18.6902  -22.0036  -11.4810 C   0  0  0  0  0  0  0  0  0  0  0  0
   18.9379  -21.8510  -12.9291 C   0  0  2  0  0  0  0  0  0  0  0  0
   19.6391  -20.5620  -13.1804 N   0  0  0  0  0  0  0  0  0  0  0  0
   17.8303  -21.9339  -13.8676 C   0  0  0  0  0  0  0  0  0  0  0  0
   17.4646  -23.1238  -14.4716 O   0  0  0  0  0  0  0  0  0  0  0  0
   17.1123  -20.9278  -14.2125 O   0  0  0  0  0  0  0  0  0  0  0  0
  2  1  1  6
  2  9  1  0
  3  2  1  0
  3  4  1  0
  4  5  2  0
  4  8  1  0
  5  6  1  0
  6  7  1  0
  8  7  2  0
  9 10  2  0
 11  9  1  0
 11 12  1  0
 12 17  1  0
 12 13  1  6
 13 14  1  0
 15 19  1  0
 15 14  1  0
 16 15  2  0
 17 18  2  0
 20 21  1  0
 21 22  2  0
 23 21  1  0
 23 24  1  0
 24 25  1  0
 25 26  1  0
 27 26  1  1
 27 29  1  0
 28 27  1  0
 28 17  1  0
 29 31  2  0
 29 30  1  0
M  END
$$$$
