HER.pdb
     RDKit          3D

 31 31  0  0  1  0  0  0  0  0999 V2000
   25.3650  -22.4507  -12.7262 N   0  0  0  0  0  0  0  0  0  0  0  0
   24.4131  -22.1945  -13.7736 C   0  0  1  0  0  0  0  0  0  0  0  0
   22.9938  -22.4961  -13.3478 C   0  0  0  0  0  0  0  0  0  0  0  0
   22.7726  -23.9332  -13.0559 C   0  0  0  0  0  0  0  0  0  0  0  0
   23.6582  -24.9837  -13.1281 C   0  0  0  0  0  0  0  0  0  0  0  0
   23.0514  -26.1301  -12.7804 N   0  0  0  0  0  0  0  0  0  0  0  0
   21.7619  -25.8190  -12.4804 C   0  0  0  0  0  0  0  0  0  0  0  0
   21.5978  -24.4928  -12.6479 N   0  0  0  0  0  0  0  0  0  0  0  0
   24.4388  -20.7305  -14.0959 C   0  0  0  0  0  0  0  0  0  0  0  0
   24.7146  -19.8394  -13.2770 O   0  0  0  0  0  0  0  0  0  0  0  0
   24.1266  -20.3448  -15.4255 N   0  0  0  0  0  0  0  0  0  0  0  0
   24.1785  -18.9622  -15.8545 C   0  0  1  0  0  0  0  0  0  0  0  0
   25.0816  -18.7349  -16.9993 C   0  0  0  0  0  0  0  0  0  0  0  0
   26.4511  -19.2600  -16.9649 C   0  0  0  0  0  0  0  0  0  0  0  0
   27.3451  -19.0683  -18.0879 C   0  0  0  0  0  0  0  0  0  0  0  0
   27.0998  -18.3533  -19.0740 O   0  0  0  0  0  0  0  0  0  0  0  0
   22.8302  -18.3925  -15.9002 C   0  0  0  0  0  0  0  0  0  0  0  0
   21.7956  -19.1472  -15.9595 O   0  0  0  0  0  0  0  0  0  0  0  0
   28.6144  -19.7064  -18.1472 O   0  0  0  0  0  0  0  0  0  0  0  0
   19.7066  -10.0079  -15.7659 N   0  0  0  0  0  0  0  0  0  0  0  0
   18.5544  -10.8090  -15.6038 C   0  0  0  0  0  0  0  0  0  0  0  0
   17.4100  -10.2434  -15.4583 N   0  0  0  0  0  0  0  0  0  0  0  0
   18.6463  -12.2307  -15.5988 N   0  0  0  0  0  0  0  0  0  0  0  0
   19.9468  -12.8502  -15.6012 C   0  0  0  0  0  0  0  0  0  0  0  0
   19.8715  -14.3409  -15.6621 C   0  0  0  0  0  0  0  0  0  0  0  0
   21.1705  -15.0175  -15.7177 C   0  0  0  0  0  0  0  0  0  0  0  0
   21.1618  -16.4856  -15.8792 C   0  0  2  0  0  0  0  0  0  0  0  0
   22.5609  -16.9945  -15.8764 N   0  0  0  0  0  0  0  0  0  0  0  0
   20.4825  -17.0867  -17.0158 C   0  0  0  0  0  0  0  0  0  0  0  0
   19.2504  -17.7044  -16.8946 O   0  0  0  0  0  0  0  0  0  0  0  0
   20.9608  -17.0986  -18.2064 O   0  0  0  0  0  0  0  0  0  0  0  0
  2  1  1  1
  2  9  1  0
  3  2  1  0
  3  4  1  0
  4  5  2  0
  4  8  1  0
  5  6  1  0
  6  7  1  0
  8  7  2  0
  9 10  2  0
 11  9  1  0
 11 12  1  0
 12 17  1  0
 12 13  1  6
 13 14  1  0
 15 19  1  0
 15 14  1  0
 16 15  2  0
 17 18  2  0
 20 21  1  0
 21 22  2  0
 23 21  1  0
 23 24  1  0
 24 25  1  0
 25 26  1  0
 27 26  1  6
 27 29  1  0
 28 27  1  0
 28 17  1  0
 29 31  2  0
 29 30  1  0
M  END
$$$$
