HER.pdb
     RDKit          3D

 31 31  0  0  1  0  0  0  0  0999 V2000
   17.4422  -24.3863   -8.1928 N   0  0  0  0  0  0  0  0  0  0  0  0
   16.8232  -25.1210   -7.1224 C   0  0  1  0  0  0  0  0  0  0  0  0
   17.7566  -26.1401   -6.5087 C   0  0  0  0  0  0  0  0  0  0  0  0
   18.1537  -27.2053   -7.4611 C   0  0  0  0  0  0  0  0  0  0  0  0
   19.1888  -27.2228   -8.3673 C   0  0  0  0  0  0  0  0  0  0  0  0
   19.1982  -28.3836   -9.0423 N   0  0  0  0  0  0  0  0  0  0  0  0
   18.1603  -29.1241   -8.5689 C   0  0  0  0  0  0  0  0  0  0  0  0
   17.5328  -28.4096   -7.6153 N   0  0  0  0  0  0  0  0  0  0  0  0
   16.4833  -24.1642   -6.0193 C   0  0  0  0  0  0  0  0  0  0  0  0
   17.2370  -23.2628   -5.6192 O   0  0  0  0  0  0  0  0  0  0  0  0
   15.2159  -24.3033   -5.3960 N   0  0  0  0  0  0  0  0  0  0  0  0
   14.6739  -23.2806   -4.5251 C   0  0  1  0  0  0  0  0  0  0  0  0
   13.3465  -22.7922   -4.9461 C   0  0  0  0  0  0  0  0  0  0  0  0
   13.2134  -22.0112   -6.1809 C   0  0  0  0  0  0  0  0  0  0  0  0
   11.9167  -21.5416   -6.6228 C   0  0  0  0  0  0  0  0  0  0  0  0
   10.9849  -21.2198   -5.8664 O   0  0  0  0  0  0  0  0  0  0  0  0
   14.8737  -23.6487   -3.1218 C   0  0  0  0  0  0  0  0  0  0  0  0
   15.1678  -24.8515   -2.7896 O   0  0  0  0  0  0  0  0  0  0  0  0
   11.6029  -21.4092   -8.0033 O   0  0  0  0  0  0  0  0  0  0  0  0
   16.2347  -19.0204    4.3549 N   0  0  0  0  0  0  0  0  0  0  0  0
   16.4148  -20.3668    4.7430 C   0  0  0  0  0  0  0  0  0  0  0  0
   16.8251  -20.6295    5.9318 N   0  0  0  0  0  0  0  0  0  0  0  0
   16.1487  -21.4319    3.8351 N   0  0  0  0  0  0  0  0  0  0  0  0
   16.0390  -21.1442    2.4279 C   0  0  0  0  0  0  0  0  0  0  0  0
   15.5266  -22.3074    1.6432 C   0  0  0  0  0  0  0  0  0  0  0  0
   15.3782  -22.0586    0.2064 C   0  0  0  0  0  0  0  0  0  0  0  0
   14.9200  -23.1857   -0.6311 C   0  0  2  0  0  0  0  0  0  0  0  0
   14.7687  -22.7289   -2.0399 N   0  0  0  0  0  0  0  0  0  0  0  0
   13.7094  -23.9087   -0.2757 C   0  0  0  0  0  0  0  0  0  0  0  0
   13.6949  -24.8819    0.7075 O   0  0  0  0  0  0  0  0  0  0  0  0
   12.5720  -23.7119   -0.8363 O   0  0  0  0  0  0  0  0  0  0  0  0
  2  1  1  6
  2  9  1  0
  3  2  1  0
  3  4  1  0
  4  5  2  0
  4  8  1  0
  5  6  1  0
  6  7  1  0
  8  7  2  0
  9 10  2  0
 11  9  1  0
 11 12  1  0
 12 17  1  0
 12 13  1  1
 13 14  1  0
 15 19  1  0
 15 14  1  0
 16 15  2  0
 17 18  2  0
 20 21  1  0
 21 22  2  0
 23 21  1  0
 23 24  1  0
 24 25  1  0
 25 26  1  0
 27 26  1  1
 27 29  1  0
 28 27  1  0
 28 17  1  0
 29 31  2  0
 29 30  1  0
M  END
$$$$
