HER.pdb
     RDKit          3D

 31 31  0  0  1  0  0  0  0  0999 V2000
   22.2141  -22.9949  -18.3717 N   0  0  0  0  0  0  0  0  0  0  0  0
   20.9364  -22.9443  -17.7131 C   0  0  1  0  0  0  0  0  0  0  0  0
   20.1604  -24.2334  -17.8627 C   0  0  0  0  0  0  0  0  0  0  0  0
   19.8095  -24.5348  -19.2717 C   0  0  0  0  0  0  0  0  0  0  0  0
   18.7903  -24.0270  -20.0440 C   0  0  0  0  0  0  0  0  0  0  0  0
   18.8221  -24.5680  -21.2726 N   0  0  0  0  0  0  0  0  0  0  0  0
   19.8710  -25.4333  -21.2960 C   0  0  0  0  0  0  0  0  0  0  0  0
   20.4639  -25.4104  -20.0871 N   0  0  0  0  0  0  0  0  0  0  0  0
   21.1635  -22.7745  -16.2408 C   0  0  0  0  0  0  0  0  0  0  0  0
   22.0959  -23.3003  -15.6124 O   0  0  0  0  0  0  0  0  0  0  0  0
   20.2496  -21.9584  -15.5248 N   0  0  0  0  0  0  0  0  0  0  0  0
   20.4694  -21.5946  -14.1400 C   0  0  1  0  0  0  0  0  0  0  0  0
   20.9915  -20.2251  -13.9672 C   0  0  0  0  0  0  0  0  0  0  0  0
   21.1604  -19.3549  -15.1362 C   0  0  0  0  0  0  0  0  0  0  0  0
   21.5611  -17.9724  -14.9773 C   0  0  0  0  0  0  0  0  0  0  0  0
   20.9411  -16.9985  -15.4365 O   0  0  0  0  0  0  0  0  0  0  0  0
   19.3380  -22.0237  -13.3152 C   0  0  0  0  0  0  0  0  0  0  0  0
   18.1569  -22.1087  -13.8063 O   0  0  0  0  0  0  0  0  0  0  0  0
   22.7349  -17.6146  -14.2588 O   0  0  0  0  0  0  0  0  0  0  0  0
   18.6229  -25.5887   -5.1540 N   0  0  0  0  0  0  0  0  0  0  0  0
   17.2857  -25.4095   -5.5730 C   0  0  0  0  0  0  0  0  0  0  0  0
   16.3287  -25.7635   -4.7924 N   0  0  0  0  0  0  0  0  0  0  0  0
   16.9874  -24.8440   -6.8462 N   0  0  0  0  0  0  0  0  0  0  0  0
   18.0697  -24.4262   -7.7000 C   0  0  0  0  0  0  0  0  0  0  0  0
   17.5906  -23.7660   -8.9515 C   0  0  0  0  0  0  0  0  0  0  0  0
   18.6519  -23.3893   -9.8895 C   0  0  0  0  0  0  0  0  0  0  0  0
   18.2430  -22.7098  -11.1356 C   0  0  2  0  0  0  0  0  0  0  0  0
   19.4507  -22.3792  -11.9410 N   0  0  0  0  0  0  0  0  0  0  0  0
   17.4207  -21.5121  -11.0729 C   0  0  0  0  0  0  0  0  0  0  0  0
   16.0407  -21.5699  -10.9931 O   0  0  0  0  0  0  0  0  0  0  0  0
   17.8960  -20.3203  -11.0896 O   0  0  0  0  0  0  0  0  0  0  0  0
  2  1  1  6
  2  9  1  0
  3  2  1  0
  3  4  1  0
  4  5  2  0
  4  8  1  0
  5  6  1  0
  6  7  1  0
  8  7  2  0
  9 10  2  0
 11  9  1  0
 11 12  1  0
 12 17  1  0
 12 13  1  6
 13 14  1  0
 15 19  1  0
 15 14  1  0
 16 15  2  0
 17 18  2  0
 20 21  1  0
 21 22  2  0
 23 21  1  0
 23 24  1  0
 24 25  1  0
 25 26  1  0
 27 26  1  1
 27 29  1  0
 28 27  1  0
 28 17  1  0
 29 31  2  0
 29 30  1  0
M  END
$$$$
