HER.pdb
     RDKit          3D

 31 31  0  0  1  0  0  0  0  0999 V2000
   28.6917  -18.6673  -19.3904 N   0  0  0  0  0  0  0  0  0  0  0  0
   28.3738  -19.9552  -18.8345 C   0  0  1  0  0  0  0  0  0  0  0  0
   29.6101  -20.7449  -18.4677 C   0  0  0  0  0  0  0  0  0  0  0  0
   30.4443  -21.0892  -19.6446 C   0  0  0  0  0  0  0  0  0  0  0  0
   30.0870  -21.7283  -20.8094 C   0  0  0  0  0  0  0  0  0  0  0  0
   31.1497  -21.8459  -21.6218 N   0  0  0  0  0  0  0  0  0  0  0  0
   32.2041  -21.2779  -20.9774 C   0  0  0  0  0  0  0  0  0  0  0  0
   31.7744  -20.8226  -19.7850 N   0  0  0  0  0  0  0  0  0  0  0  0
   27.6258  -19.7510  -17.5512 C   0  0  0  0  0  0  0  0  0  0  0  0
   28.1645  -19.5089  -16.4594 O   0  0  0  0  0  0  0  0  0  0  0  0
   26.2103  -19.8416  -17.5941 N   0  0  0  0  0  0  0  0  0  0  0  0
   25.3942  -19.6541  -16.4120 C   0  0  1  0  0  0  0  0  0  0  0  0
   24.6856  -18.3599  -16.3854 C   0  0  0  0  0  0  0  0  0  0  0  0
   24.5285  -17.5875  -17.6228 C   0  0  0  0  0  0  0  0  0  0  0  0
   23.7442  -16.3702  -17.6403 C   0  0  0  0  0  0  0  0  0  0  0  0
   24.0822  -15.3186  -18.2091 O   0  0  0  0  0  0  0  0  0  0  0  0
   24.6396  -20.8738  -16.1158 C   0  0  0  0  0  0  0  0  0  0  0  0
   23.5053  -21.0997  -16.6687 O   0  0  0  0  0  0  0  0  0  0  0  0
   22.4852  -16.2855  -16.9849 O   0  0  0  0  0  0  0  0  0  0  0  0
   24.2090  -19.4561   -9.3861 N   0  0  0  0  0  0  0  0  0  0  0  0
   24.7403  -20.5640   -8.6891 C   0  0  0  0  0  0  0  0  0  0  0  0
   24.1457  -20.9863   -7.6314 N   0  0  0  0  0  0  0  0  0  0  0  0
   25.9235  -21.2151   -9.1429 N   0  0  0  0  0  0  0  0  0  0  0  0
   26.2979  -21.1047  -10.5295 C   0  0  0  0  0  0  0  0  0  0  0  0
   25.2122  -21.5500  -11.4537 C   0  0  0  0  0  0  0  0  0  0  0  0
   25.5609  -21.5003  -12.8765 C   0  0  0  0  0  0  0  0  0  0  0  0
   24.5477  -21.9801  -13.8381 C   0  0  2  0  0  0  0  0  0  0  0  0
   25.0907  -21.8855  -15.2211 N   0  0  0  0  0  0  0  0  0  0  0  0
   23.2203  -21.3864  -13.8504 C   0  0  0  0  0  0  0  0  0  0  0  0
   22.0881  -22.1079  -13.5160 O   0  0  0  0  0  0  0  0  0  0  0  0
   22.9892  -20.1654  -14.1702 O   0  0  0  0  0  0  0  0  0  0  0  0
  2  1  1  1
  2  9  1  0
  3  2  1  0
  3  4  1  0
  4  5  2  0
  4  8  1  0
  5  6  1  0
  6  7  1  0
  8  7  2  0
  9 10  2  0
 11  9  1  0
 11 12  1  0
 12 17  1  0
 12 13  1  6
 13 14  1  0
 15 19  1  0
 15 14  1  0
 16 15  2  0
 17 18  2  0
 20 21  1  0
 21 22  2  0
 23 21  1  0
 23 24  1  0
 24 25  1  0
 25 26  1  0
 27 26  1  1
 27 29  1  0
 28 27  1  0
 28 17  1  0
 29 31  2  0
 29 30  1  0
M  END
$$$$
