HER.pdb
     RDKit          3D

 31 31  0  0  1  0  0  0  0  0999 V2000
   28.1150  -20.6428  -18.1267 N   0  0  0  0  0  0  0  0  0  0  0  0
   27.0801  -21.3653  -17.4369 C   0  0  1  0  0  0  0  0  0  0  0  0
   27.6371  -22.3768  -16.4606 C   0  0  0  0  0  0  0  0  0  0  0  0
   28.3801  -23.4733  -17.1277 C   0  0  0  0  0  0  0  0  0  0  0  0
   27.9234  -24.6945  -17.5669 C   0  0  0  0  0  0  0  0  0  0  0  0
   28.9269  -25.3975  -18.1166 N   0  0  0  0  0  0  0  0  0  0  0  0
   30.0427  -24.6246  -18.0326 C   0  0  0  0  0  0  0  0  0  0  0  0
   29.7087  -23.4647  -17.4354 N   0  0  0  0  0  0  0  0  0  0  0  0
   26.2886  -20.3958  -16.6112 C   0  0  0  0  0  0  0  0  0  0  0  0
   26.7885  -19.4819  -15.9364 O   0  0  0  0  0  0  0  0  0  0  0  0
   24.8766  -20.5376  -16.6051 N   0  0  0  0  0  0  0  0  0  0  0  0
   24.0252  -19.6930  -15.7927 C   0  0  1  0  0  0  0  0  0  0  0  0
   23.0928  -18.8648  -16.5817 C   0  0  0  0  0  0  0  0  0  0  0  0
   21.9920  -18.1640  -15.9114 C   0  0  0  0  0  0  0  0  0  0  0  0
   21.0842  -17.3226  -16.6632 C   0  0  0  0  0  0  0  0  0  0  0  0
   21.0431  -16.0829  -16.5897 O   0  0  0  0  0  0  0  0  0  0  0  0
   23.5012  -20.4461  -14.6512 C   0  0  0  0  0  0  0  0  0  0  0  0
   22.7439  -21.4660  -14.8240 O   0  0  0  0  0  0  0  0  0  0  0  0
   20.1396  -17.8721  -17.5729 O   0  0  0  0  0  0  0  0  0  0  0  0
   27.2681  -21.1919   -8.2159 N   0  0  0  0  0  0  0  0  0  0  0  0
   26.4979  -20.0078   -8.1983 C   0  0  0  0  0  0  0  0  0  0  0  0
   27.0675  -18.8905   -7.9192 N   0  0  0  0  0  0  0  0  0  0  0  0
   25.1026  -20.0382   -8.4844 N   0  0  0  0  0  0  0  0  0  0  0  0
   24.4321  -21.3098   -8.5765 C   0  0  0  0  0  0  0  0  0  0  0  0
   23.4973  -21.3821   -9.7394 C   0  0  0  0  0  0  0  0  0  0  0  0
   24.0229  -20.8122  -10.9834 C   0  0  0  0  0  0  0  0  0  0  0  0
   23.1605  -20.8900  -12.1799 C   0  0  2  0  0  0  0  0  0  0  0  0
   23.7850  -20.1242  -13.2935 N   0  0  0  0  0  0  0  0  0  0  0  0
   21.7674  -20.4810  -12.0984 C   0  0  0  0  0  0  0  0  0  0  0  0
   21.3667  -19.1795  -12.3428 O   0  0  0  0  0  0  0  0  0  0  0  0
   20.8081  -21.2773  -11.7947 O   0  0  0  0  0  0  0  0  0  0  0  0
  2  1  1  1
  2  9  1  0
  3  2  1  0
  3  4  1  0
  4  5  2  0
  4  8  1  0
  5  6  1  0
  6  7  1  0
  8  7  2  0
  9 10  2  0
 11  9  1  0
 11 12  1  0
 12 17  1  0
 12 13  1  6
 13 14  1  0
 15 19  1  0
 15 14  1  0
 16 15  2  0
 17 18  2  0
 20 21  1  0
 21 22  2  0
 23 21  1  0
 23 24  1  0
 24 25  1  0
 25 26  1  0
 27 26  1  1
 27 29  1  0
 28 27  1  0
 28 17  1  0
 29 31  2  0
 29 30  1  0
M  END
$$$$
