HER.pdb
     RDKit          3D

 31 31  0  0  1  0  0  0  0  0999 V2000
   28.2527  -20.9502  -16.8362 N   0  0  0  0  0  0  0  0  0  0  0  0
   27.6858  -19.9874  -15.9304 C   0  0  1  0  0  0  0  0  0  0  0  0
   26.9647  -18.8721  -16.6533 C   0  0  0  0  0  0  0  0  0  0  0  0
   27.8855  -17.9723  -17.3895 C   0  0  0  0  0  0  0  0  0  0  0  0
   28.1911  -17.9456  -18.7307 C   0  0  0  0  0  0  0  0  0  0  0  0
   29.0781  -16.9707  -18.9877 N   0  0  0  0  0  0  0  0  0  0  0  0
   29.3489  -16.3609  -17.8026 C   0  0  0  0  0  0  0  0  0  0  0  0
   28.6276  -16.9681  -16.8411 N   0  0  0  0  0  0  0  0  0  0  0  0
   26.6448  -20.6709  -15.0955 C   0  0  0  0  0  0  0  0  0  0  0  0
   25.9219  -21.5956  -15.4992 O   0  0  0  0  0  0  0  0  0  0  0  0
   26.4803  -20.2274  -13.7575 N   0  0  0  0  0  0  0  0  0  0  0  0
   25.5153  -20.8327  -12.8628 C   0  0  1  0  0  0  0  0  0  0  0  0
   25.8755  -20.7077  -11.4371 C   0  0  0  0  0  0  0  0  0  0  0  0
   25.0043  -21.2893  -10.4099 C   0  0  0  0  0  0  0  0  0  0  0  0
   25.3173  -21.1404   -9.0038 C   0  0  0  0  0  0  0  0  0  0  0  0
   26.4063  -21.4391   -8.4856 O   0  0  0  0  0  0  0  0  0  0  0  0
   24.1529  -20.4885  -13.2753 C   0  0  0  0  0  0  0  0  0  0  0  0
   23.8093  -19.2687  -13.4688 O   0  0  0  0  0  0  0  0  0  0  0  0
   24.3683  -20.6230   -8.0800 O   0  0  0  0  0  0  0  0  0  0  0  0
   16.4967  -21.9828  -16.2453 N   0  0  0  0  0  0  0  0  0  0  0  0
   17.3348  -21.7936  -17.3667 C   0  0  0  0  0  0  0  0  0  0  0  0
   16.8546  -21.2489  -18.4266 N   0  0  0  0  0  0  0  0  0  0  0  0
   18.7002  -22.1990  -17.3365 N   0  0  0  0  0  0  0  0  0  0  0  0
   19.2254  -22.8089  -16.1418 C   0  0  0  0  0  0  0  0  0  0  0  0
   19.7543  -21.8048  -15.1705 C   0  0  0  0  0  0  0  0  0  0  0  0
   21.1654  -21.9812  -14.8153 C   0  0  0  0  0  0  0  0  0  0  0  0
   21.7441  -21.0253  -13.8495 C   0  0  2  0  0  0  0  0  0  0  0  0
   23.1266  -21.4504  -13.4968 N   0  0  0  0  0  0  0  0  0  0  0  0
   21.0468  -20.7380  -12.6061 C   0  0  0  0  0  0  0  0  0  0  0  0
   20.0305  -19.8020  -12.5314 O   0  0  0  0  0  0  0  0  0  0  0  0
   21.3120  -21.3150  -11.4911 O   0  0  0  0  0  0  0  0  0  0  0  0
  2  1  1  6
  2  9  1  0
  3  2  1  0
  3  4  1  0
  4  5  2  0
  4  8  1  0
  5  6  1  0
  6  7  1  0
  8  7  2  0
  9 10  2  0
 11  9  1  0
 11 12  1  0
 12 17  1  0
 12 13  1  1
 13 14  1  0
 15 19  1  0
 15 14  1  0
 16 15  2  0
 17 18  2  0
 20 21  1  0
 21 22  2  0
 23 21  1  0
 23 24  1  0
 24 25  1  0
 25 26  1  0
 27 26  1  1
 27 29  1  0
 28 27  1  0
 28 17  1  0
 29 31  2  0
 29 30  1  0
M  END
$$$$
