HER.pdb
     RDKit          3D

 31 31  0  0  1  0  0  0  0  0999 V2000
   22.0833  -18.2300  -21.3375 N   0  0  0  0  0  0  0  0  0  0  0  0
   21.3509  -19.4215  -21.0018 C   0  0  1  0  0  0  0  0  0  0  0  0
   22.0202  -20.6740  -21.5212 C   0  0  0  0  0  0  0  0  0  0  0  0
   22.0762  -20.7257  -23.0023 C   0  0  0  0  0  0  0  0  0  0  0  0
   23.1706  -20.6845  -23.8352 C   0  0  0  0  0  0  0  0  0  0  0  0
   22.7828  -20.7557  -25.1188 N   0  0  0  0  0  0  0  0  0  0  0  0
   21.4256  -20.8439  -25.1169 C   0  0  0  0  0  0  0  0  0  0  0  0
   21.0033  -20.8254  -23.8383 N   0  0  0  0  0  0  0  0  0  0  0  0
   21.3254  -19.5628  -19.5093 C   0  0  0  0  0  0  0  0  0  0  0  0
   22.3267  -19.4715  -18.7816 O   0  0  0  0  0  0  0  0  0  0  0  0
   20.0718  -19.8176  -18.8948 N   0  0  0  0  0  0  0  0  0  0  0  0
   19.9102  -19.8184  -17.4553 C   0  0  1  0  0  0  0  0  0  0  0  0
   20.4481  -18.6094  -16.8021 C   0  0  0  0  0  0  0  0  0  0  0  0
   20.1938  -17.2884  -17.3873 C   0  0  0  0  0  0  0  0  0  0  0  0
   20.7210  -16.0906  -16.7670 C   0  0  0  0  0  0  0  0  0  0  0  0
   20.0371  -15.2451  -16.1660 O   0  0  0  0  0  0  0  0  0  0  0  0
   18.5652  -20.2717  -17.0944 C   0  0  0  0  0  0  0  0  0  0  0  0
   17.5262  -19.7653  -17.6489 O   0  0  0  0  0  0  0  0  0  0  0  0
   22.1088  -15.7829  -16.8010 O   0  0  0  0  0  0  0  0  0  0  0  0
   14.4982  -26.3684  -14.5730 N   0  0  0  0  0  0  0  0  0  0  0  0
   13.3330  -25.6467  -14.9152 C   0  0  0  0  0  0  0  0  0  0  0  0
   12.1819  -26.1275  -14.6078 N   0  0  0  0  0  0  0  0  0  0  0  0
   13.4191  -24.3978  -15.5952 N   0  0  0  0  0  0  0  0  0  0  0  0
   14.7108  -23.9081  -16.0033 C   0  0  0  0  0  0  0  0  0  0  0  0
   15.5995  -23.5990  -14.8431 C   0  0  0  0  0  0  0  0  0  0  0  0
   16.9015  -23.0306  -15.2039 C   0  0  0  0  0  0  0  0  0  0  0  0
   16.9088  -21.6730  -15.7856 C   0  0  2  0  0  0  0  0  0  0  0  0
   18.3046  -21.2876  -16.1312 N   0  0  0  0  0  0  0  0  0  0  0  0
   16.3211  -20.5649  -15.0496 C   0  0  0  0  0  0  0  0  0  0  0  0
   14.9704  -20.2721  -15.1144 O   0  0  0  0  0  0  0  0  0  0  0  0
   16.9936  -19.7759  -14.2935 O   0  0  0  0  0  0  0  0  0  0  0  0
  2  1  1  1
  2  9  1  0
  3  2  1  0
  3  4  1  0
  4  5  2  0
  4  8  1  0
  5  6  1  0
  6  7  1  0
  8  7  2  0
  9 10  2  0
 11  9  1  0
 11 12  1  0
 12 17  1  0
 12 13  1  6
 13 14  1  0
 15 19  1  0
 15 14  1  0
 16 15  2  0
 17 18  2  0
 20 21  1  0
 21 22  2  0
 23 21  1  0
 23 24  1  0
 24 25  1  0
 25 26  1  0
 27 26  1  1
 27 29  1  0
 28 27  1  0
 28 17  1  0
 29 31  2  0
 29 30  1  0
M  END
$$$$
