HER.pdb
     RDKit          3D

 31 31  0  0  1  0  0  0  0  0999 V2000
   16.7027  -26.7115   -4.8490 N   0  0  0  0  0  0  0  0  0  0  0  0
   16.5811  -25.2898   -4.6682 C   0  0  1  0  0  0  0  0  0  0  0  0
   16.5133  -24.5461   -5.9830 C   0  0  0  0  0  0  0  0  0  0  0  0
   17.7458  -24.6959   -6.7942 C   0  0  0  0  0  0  0  0  0  0  0  0
   18.9510  -24.0425   -6.6774 C   0  0  0  0  0  0  0  0  0  0  0  0
   19.8081  -24.4733   -7.6170 N   0  0  0  0  0  0  0  0  0  0  0  0
   19.1522  -25.4139   -8.3483 C   0  0  0  0  0  0  0  0  0  0  0  0
   17.9085  -25.5451   -7.8488 N   0  0  0  0  0  0  0  0  0  0  0  0
   15.2838  -25.0052   -3.9724 C   0  0  0  0  0  0  0  0  0  0  0  0
   14.2368  -25.6458   -4.1567 O   0  0  0  0  0  0  0  0  0  0  0  0
   15.2578  -23.9324   -3.0438 N   0  0  0  0  0  0  0  0  0  0  0  0
   14.0266  -23.4814   -2.4281 C   0  0  1  0  0  0  0  0  0  0  0  0
   14.2214  -22.8797   -1.0948 C   0  0  0  0  0  0  0  0  0  0  0  0
   15.5721  -22.5300   -0.6415 C   0  0  0  0  0  0  0  0  0  0  0  0
   15.7878  -21.9668    0.6752 C   0  0  0  0  0  0  0  0  0  0  0  0
   16.3489  -22.5563    1.6140 O   0  0  0  0  0  0  0  0  0  0  0  0
   13.1997  -22.7700   -3.4053 C   0  0  0  0  0  0  0  0  0  0  0  0
   13.7253  -21.9700   -4.2580 O   0  0  0  0  0  0  0  0  0  0  0  0
   15.3584  -20.6513    1.0024 O   0  0  0  0  0  0  0  0  0  0  0  0
    8.4662  -24.8709   -9.8080 N   0  0  0  0  0  0  0  0  0  0  0  0
    8.1633  -23.4942   -9.7143 C   0  0  0  0  0  0  0  0  0  0  0  0
    7.5979  -22.9052  -10.7062 N   0  0  0  0  0  0  0  0  0  0  0  0
    8.4771  -22.7544   -8.5379 N   0  0  0  0  0  0  0  0  0  0  0  0
    9.3759  -23.3257   -7.5679 C   0  0  0  0  0  0  0  0  0  0  0  0
    9.1352  -22.8069   -6.1879 C   0  0  0  0  0  0  0  0  0  0  0  0
   10.0880  -23.2823   -5.1806 C   0  0  0  0  0  0  0  0  0  0  0  0
   11.0264  -22.2909   -4.6166 C   0  0  2  0  0  0  0  0  0  0  0  0
   11.7852  -22.9072   -3.4938 N   0  0  0  0  0  0  0  0  0  0  0  0
   10.5312  -21.0047   -4.1528 C   0  0  0  0  0  0  0  0  0  0  0  0
   10.2853  -19.9546   -5.0195 O   0  0  0  0  0  0  0  0  0  0  0  0
   10.2877  -20.7373   -2.9217 O   0  0  0  0  0  0  0  0  0  0  0  0
  2  1  1  6
  2  9  1  0
  3  2  1  0
  3  4  1  0
  4  5  2  0
  4  8  1  0
  5  6  1  0
  6  7  1  0
  8  7  2  0
  9 10  2  0
 11  9  1  0
 11 12  1  0
 12 17  1  0
 12 13  1  1
 13 14  1  0
 15 19  1  0
 15 14  1  0
 16 15  2  0
 17 18  2  0
 20 21  1  0
 21 22  2  0
 23 21  1  0
 23 24  1  0
 24 25  1  0
 25 26  1  0
 27 26  1  1
 27 29  1  0
 28 27  1  0
 28 17  1  0
 29 31  2  0
 29 30  1  0
M  END
$$$$
