DML.pdb
     RDKit          3D

 25 24  0  0  1  0  0  0  0  0999 V2000
   28.0336  -21.7659  -16.3908 N   0  0  0  0  0  0  0  0  0  0  0  0
   27.5540  -20.6985  -15.5329 C   0  0  1  0  0  0  0  0  0  0  0  0
   26.8137  -19.7104  -16.4185 C   0  0  0  0  0  0  0  0  0  0  0  0
   27.7366  -18.9677  -17.2828 C   0  0  0  0  0  0  0  0  0  0  0  0
   28.9738  -19.1855  -17.1354 O   0  0  0  0  0  0  0  0  0  0  0  0
   26.6381  -21.2257  -14.4860 C   0  0  0  0  0  0  0  0  0  0  0  0
   25.8199  -22.1311  -14.7362 O   0  0  0  0  0  0  0  0  0  0  0  0
   27.3699  -18.0500  -18.2448 O   0  0  0  0  0  0  0  0  0  0  0  0
   25.3484  -20.7067   -6.6692 C   0  0  0  0  0  0  0  0  0  0  0  0
   26.2442  -20.1688   -8.1367 S   0  0  0  0  0  0  0  0  0  0  0  0
   25.4978  -20.8621   -9.6352 C   0  0  0  0  0  0  0  0  0  0  0  0
   26.3638  -20.4680  -10.8040 C   0  0  0  0  0  0  0  0  0  0  0  0
   25.8226  -21.0648  -12.1099 C   0  0  2  0  0  0  0  0  0  0  0  0
   26.6893  -20.6988  -13.1870 N   0  0  0  0  0  0  0  0  0  0  0  0
   24.4906  -20.4490  -12.3446 C   0  0  0  0  0  0  0  0  0  0  0  0
   24.3889  -19.1975  -12.4873 O   0  0  0  0  0  0  0  0  0  0  0  0
   22.1232  -19.1258  -15.3585 C   0  0  0  0  0  0  0  0  0  0  0  0
   22.1542  -20.6530  -15.1862 C   0  0  2  0  0  0  0  0  0  0  0  0
   21.5877  -21.2453  -16.4417 C   0  0  0  0  0  0  0  0  0  0  0  0
   21.4466  -21.0550  -13.9479 C   0  0  0  0  0  0  0  0  0  0  0  0
   22.0163  -20.5646  -12.6621 C   0  0  2  0  0  0  0  0  0  0  0  0
   23.3106  -21.2245  -12.4159 N   0  0  0  0  0  0  0  0  0  0  0  0
   21.1050  -20.8925  -11.5271 C   0  0  0  0  0  0  0  0  0  0  0  0
   21.3073  -21.8504  -10.7583 O   0  0  0  0  0  0  0  0  0  0  0  0
   19.9656  -20.1151  -11.2838 O   0  0  0  0  0  0  0  0  0  0  0  0
  2  1  1  6
  2  3  1  0
  3  4  1  0
  4  5  2  0
  6  2  1  0
  6  7  2  0
  8  4  1  0
  9 10  1  0
 10 11  1  0
 11 12  1  0
 13 12  1  1
 13 14  1  0
 14  6  1  0
 15 22  1  0
 15 13  1  0
 16 15  2  0
 18 20  1  0
 18 17  1  6
 19 18  1  0
 21 22  1  0
 21 20  1  6
 23 21  1  0
 24 23  2  0
 25 23  1  0
M  END
$$$$
