DML.pdb
     RDKit          3D

 25 24  0  0  1  0  0  0  0  0999 V2000
   28.2562  -21.4906  -13.0793 N   0  0  0  0  0  0  0  0  0  0  0  0
   27.8309  -20.8243  -11.8627 C   0  0  1  0  0  0  0  0  0  0  0  0
   29.0608  -20.1693  -11.2571 C   0  0  0  0  0  0  0  0  0  0  0  0
   30.1452  -21.1376  -11.0645 C   0  0  0  0  0  0  0  0  0  0  0  0
   30.5180  -21.8015  -12.0744 O   0  0  0  0  0  0  0  0  0  0  0  0
   26.7981  -19.7934  -12.1516 C   0  0  0  0  0  0  0  0  0  0  0  0
   26.3471  -19.0576  -11.2533 O   0  0  0  0  0  0  0  0  0  0  0  0
   30.7945  -21.3867   -9.8736 O   0  0  0  0  0  0  0  0  0  0  0  0
   28.2683  -17.6042  -17.1190 C   0  0  0  0  0  0  0  0  0  0  0  0
   27.5470  -16.2294  -16.2052 S   0  0  0  0  0  0  0  0  0  0  0  0
   26.7178  -16.8190  -14.7059 C   0  0  0  0  0  0  0  0  0  0  0  0
   25.7977  -17.9448  -15.1026 C   0  0  0  0  0  0  0  0  0  0  0  0
   25.3073  -18.7102  -13.8665 C   0  0  2  0  0  0  0  0  0  0  0  0
   26.3157  -19.6390  -13.4597 N   0  0  0  0  0  0  0  0  0  0  0  0
   24.1021  -19.4733  -14.2833 C   0  0  0  0  0  0  0  0  0  0  0  0
   24.2265  -20.6238  -14.7910 O   0  0  0  0  0  0  0  0  0  0  0  0
   19.9612  -21.8472  -11.4016 C   0  0  0  0  0  0  0  0  0  0  0  0
   20.2266  -21.4273  -12.8563 C   0  0  2  0  0  0  0  0  0  0  0  0
   20.3754  -22.6881  -13.6541 C   0  0  0  0  0  0  0  0  0  0  0  0
   21.3911  -20.5144  -12.9340 C   0  0  0  0  0  0  0  0  0  0  0  0
   21.6335  -19.8485  -14.2440 C   0  0  2  0  0  0  0  0  0  0  0  0
   22.7970  -18.9516  -14.1304 N   0  0  0  0  0  0  0  0  0  0  0  0
   20.4520  -19.0280  -14.6405 C   0  0  0  0  0  0  0  0  0  0  0  0
   20.3032  -17.8461  -14.2791 O   0  0  0  0  0  0  0  0  0  0  0  0
   19.4484  -19.5733  -15.4511 O   0  0  0  0  0  0  0  0  0  0  0  0
  2  1  1  6
  2  3  1  0
  3  4  1  0
  4  5  2  0
  6  2  1  0
  6  7  2  0
  8  4  1  0
  9 10  1  0
 10 11  1  0
 11 12  1  0
 13 12  1  6
 13 14  1  0
 14  6  1  0
 15 22  1  0
 15 13  1  0
 16 15  2  0
 18 20  1  0
 18 17  1  1
 19 18  1  0
 21 22  1  0
 21 20  1  1
 23 21  1  0
 24 23  2  0
 25 23  1  0
M  END
$$$$
