DML.pdb
     RDKit          3D

 25 24  0  0  1  0  0  0  0  0999 V2000
   28.2875  -18.4276  -14.9936 N   0  0  0  0  0  0  0  0  0  0  0  0
   27.6245  -19.4214  -15.8168 C   0  0  1  0  0  0  0  0  0  0  0  0
   28.6601  -19.9615  -16.7885 C   0  0  0  0  0  0  0  0  0  0  0  0
   29.0800  -18.9371  -17.7502 C   0  0  0  0  0  0  0  0  0  0  0  0
   28.5965  -17.7766  -17.6117 O   0  0  0  0  0  0  0  0  0  0  0  0
   27.0840  -20.5297  -14.9845 C   0  0  0  0  0  0  0  0  0  0  0  0
   27.7176  -21.5905  -14.8265 O   0  0  0  0  0  0  0  0  0  0  0  0
   29.9589  -19.1315  -18.7951 O   0  0  0  0  0  0  0  0  0  0  0  0
   25.0322  -20.1826   -9.0913 C   0  0  0  0  0  0  0  0  0  0  0  0
   26.6277  -20.8489   -9.5973 S   0  0  0  0  0  0  0  0  0  0  0  0
   26.7995  -20.8053  -11.4005 C   0  0  0  0  0  0  0  0  0  0  0  0
   25.4292  -20.5820  -11.9870 C   0  0  0  0  0  0  0  0  0  0  0  0
   25.3058  -21.2586  -13.3587 C   0  0  2  0  0  0  0  0  0  0  0  0
   25.8358  -20.3866  -14.3607 N   0  0  0  0  0  0  0  0  0  0  0  0
   23.8545  -21.4475  -13.6160 C   0  0  0  0  0  0  0  0  0  0  0  0
   23.1180  -20.4472  -13.8486 O   0  0  0  0  0  0  0  0  0  0  0  0
   21.5656  -24.1710  -16.5437 C   0  0  0  0  0  0  0  0  0  0  0  0
   22.0505  -24.8900  -15.2745 C   0  0  2  0  0  0  0  0  0  0  0  0
   21.7348  -26.3453  -15.4499 C   0  0  0  0  0  0  0  0  0  0  0  0
   21.4537  -24.2771  -14.0647 C   0  0  0  0  0  0  0  0  0  0  0  0
   21.7983  -22.8533  -13.7961 C   0  0  2  0  0  0  0  0  0  0  0  0
   23.2547  -22.7278  -13.6107 N   0  0  0  0  0  0  0  0  0  0  0  0
   21.1292  -22.3790  -12.5497 C   0  0  0  0  0  0  0  0  0  0  0  0
   21.7257  -22.2851  -11.4611 O   0  0  0  0  0  0  0  0  0  0  0  0
   19.7767  -22.0154  -12.5638 O   0  0  0  0  0  0  0  0  0  0  0  0
  2  1  1  1
  2  3  1  0
  3  4  1  0
  4  5  2  0
  6  2  1  0
  6  7  2  0
  8  4  1  0
  9 10  1  0
 10 11  1  0
 11 12  1  0
 13 12  1  1
 13 14  1  0
 14  6  1  0
 15 22  1  0
 15 13  1  0
 16 15  2  0
 18 20  1  0
 18 17  1  6
 19 18  1  0
 21 22  1  0
 21 20  1  1
 23 21  1  0
 24 23  2  0
 25 23  1  0
M  END
$$$$
