DML.pdb
     RDKit          3D

 25 24  0  0  1  0  0  0  0  0999 V2000
   28.4687  -21.3024  -15.6697 N   0  0  0  0  0  0  0  0  0  0  0  0
   27.9180  -20.3476  -14.7263 C   0  0  1  0  0  0  0  0  0  0  0  0
   27.1184  -19.3351  -15.5288 C   0  0  0  0  0  0  0  0  0  0  0  0
   27.9839  -18.5423  -16.4079 C   0  0  0  0  0  0  0  0  0  0  0  0
   29.1819  -18.3687  -16.0417 O   0  0  0  0  0  0  0  0  0  0  0  0
   27.0346  -21.0225  -13.7379 C   0  0  0  0  0  0  0  0  0  0  0  0
   26.3441  -22.0101  -14.0533 O   0  0  0  0  0  0  0  0  0  0  0  0
   27.6020  -17.9684  -17.6024 O   0  0  0  0  0  0  0  0  0  0  0  0
   27.8552  -20.2358   -7.2238 C   0  0  0  0  0  0  0  0  0  0  0  0
   26.0699  -20.1015   -7.4241 S   0  0  0  0  0  0  0  0  0  0  0  0
   25.5371  -20.8759   -8.9731 C   0  0  0  0  0  0  0  0  0  0  0  0
   26.4206  -20.3520  -10.0760 C   0  0  0  0  0  0  0  0  0  0  0  0
   26.0491  -20.9886  -11.4218 C   0  0  2  0  0  0  0  0  0  0  0  0
   26.9709  -20.5441  -12.4208 N   0  0  0  0  0  0  0  0  0  0  0  0
   24.6940  -20.4905  -11.7737 C   0  0  0  0  0  0  0  0  0  0  0  0
   24.5265  -19.2759  -12.0799 O   0  0  0  0  0  0  0  0  0  0  0  0
   22.4242  -20.0485  -15.2546 C   0  0  0  0  0  0  0  0  0  0  0  0
   22.6082  -21.4765  -14.7162 C   0  0  2  0  0  0  0  0  0  0  0  0
   22.2139  -22.4127  -15.8190 C   0  0  0  0  0  0  0  0  0  0  0  0
   21.8508  -21.6632  -13.4565 C   0  0  0  0  0  0  0  0  0  0  0  0
   22.2758  -20.8385  -12.2914 C   0  0  2  0  0  0  0  0  0  0  0  0
   23.5636  -21.3395  -11.7795 N   0  0  0  0  0  0  0  0  0  0  0  0
   21.2719  -20.9301  -11.1914 C   0  0  0  0  0  0  0  0  0  0  0  0
   21.4533  -21.6216  -10.1722 O   0  0  0  0  0  0  0  0  0  0  0  0
   20.0646  -20.2247  -11.2711 O   0  0  0  0  0  0  0  0  0  0  0  0
  2  1  1  6
  2  3  1  0
  3  4  1  0
  4  5  2  0
  6  2  1  0
  6  7  2  0
  8  4  1  0
  9 10  1  0
 10 11  1  0
 11 12  1  0
 13 12  1  1
 13 14  1  0
 14  6  1  0
 15 22  1  0
 15 13  1  0
 16 15  2  0
 18 20  1  0
 18 17  1  6
 19 18  1  0
 21 22  1  0
 21 20  1  6
 23 21  1  0
 24 23  2  0
 25 23  1  0
M  END
$$$$
