DML.pdb
     RDKit          3D

 25 24  0  0  1  0  0  0  0  0999 V2000
   21.9018  -12.7835  -21.7230 N   0  0  0  0  0  0  0  0  0  0  0  0
   22.3795  -11.5223  -21.1880 C   0  0  1  0  0  0  0  0  0  0  0  0
   21.8578  -10.4233  -22.0982 C   0  0  0  0  0  0  0  0  0  0  0  0
   22.5589  -10.4147  -23.3862 C   0  0  0  0  0  0  0  0  0  0  0  0
   21.8910  -10.7270  -24.4138 O   0  0  0  0  0  0  0  0  0  0  0  0
   21.8851  -11.3092  -19.8012 C   0  0  0  0  0  0  0  0  0  0  0  0
   20.7641  -11.7170  -19.4425 O   0  0  0  0  0  0  0  0  0  0  0  0
   23.8872  -10.0944  -23.5730 O   0  0  0  0  0  0  0  0  0  0  0  0
   24.4951  -10.3868  -12.4676 C   0  0  0  0  0  0  0  0  0  0  0  0
   24.7999  -10.5850  -14.2321 S   0  0  0  0  0  0  0  0  0  0  0  0
   23.2752  -10.3377  -15.1793 C   0  0  0  0  0  0  0  0  0  0  0  0
   23.5757  -10.6500  -16.6228 C   0  0  0  0  0  0  0  0  0  0  0  0
   22.3480  -10.3875  -17.5049 C   0  0  2  0  0  0  0  0  0  0  0  0
   22.6907  -10.6359  -18.8710 N   0  0  0  0  0  0  0  0  0  0  0  0
   22.0116   -8.9476  -17.3563 C   0  0  0  0  0  0  0  0  0  0  0  0
   22.7658   -8.0669  -17.8587 O   0  0  0  0  0  0  0  0  0  0  0  0
   17.1331   -5.3550  -16.5370 C   0  0  0  0  0  0  0  0  0  0  0  0
   18.6679   -5.4257  -16.5840 C   0  0  2  0  0  0  0  0  0  0  0  0
   19.1110   -4.5407  -17.7103 C   0  0  0  0  0  0  0  0  0  0  0  0
   19.1246   -6.8308  -16.6953 C   0  0  0  0  0  0  0  0  0  0  0  0
   20.5834   -7.0763  -16.5227 C   0  0  2  0  0  0  0  0  0  0  0  0
   20.8580   -8.5173  -16.6612 N   0  0  0  0  0  0  0  0  0  0  0  0
   21.0291   -6.6474  -15.1649 C   0  0  0  0  0  0  0  0  0  0  0  0
   20.9174   -7.3742  -14.1604 O   0  0  0  0  0  0  0  0  0  0  0  0
   21.6012   -5.3836  -14.9714 O   0  0  0  0  0  0  0  0  0  0  0  0
  2  1  1  6
  2  3  1  0
  3  4  1  0
  4  5  2  0
  6  2  1  0
  6  7  2  0
  8  4  1  0
  9 10  1  0
 10 11  1  0
 11 12  1  0
 13 12  1  1
 13 14  1  0
 14  6  1  0
 15 22  1  0
 15 13  1  0
 16 15  2  0
 18 20  1  0
 18 17  1  6
 19 18  1  0
 21 22  1  0
 21 20  1  1
 23 21  1  0
 24 23  2  0
 25 23  1  0
M  END
$$$$
