DML.pdb
     RDKit          3D

 25 24  0  0  1  0  0  0  0  0999 V2000
   18.5166  -12.3143  -16.6948 N   0  0  0  0  0  0  0  0  0  0  0  0
   19.3417  -11.3230  -17.3594 C   0  0  1  0  0  0  0  0  0  0  0  0
   18.4023  -10.3410  -18.0389 C   0  0  0  0  0  0  0  0  0  0  0  0
   17.6509  -10.9798  -19.1242 C   0  0  0  0  0  0  0  0  0  0  0  0
   16.3889  -10.9118  -19.0760 O   0  0  0  0  0  0  0  0  0  0  0  0
   20.2051  -10.6058  -16.3831 C   0  0  0  0  0  0  0  0  0  0  0  0
   19.7354  -10.1196  -15.3368 O   0  0  0  0  0  0  0  0  0  0  0  0
   18.2041  -11.6498  -20.1951 O   0  0  0  0  0  0  0  0  0  0  0  0
   26.7576  -11.7630  -14.8453 C   0  0  0  0  0  0  0  0  0  0  0  0
   26.5642  -10.1677  -15.6596 S   0  0  0  0  0  0  0  0  0  0  0  0
   24.9342   -9.4595  -15.3063 C   0  0  0  0  0  0  0  0  0  0  0  0
   23.9315  -10.1490  -16.1955 C   0  0  0  0  0  0  0  0  0  0  0  0
   22.5006   -9.7341  -15.8286 C   0  0  2  0  0  0  0  0  0  0  0  0
   21.5777  -10.4688  -16.6373 N   0  0  0  0  0  0  0  0  0  0  0  0
   22.3733   -8.2907  -16.1585 C   0  0  0  0  0  0  0  0  0  0  0  0
   22.3147   -7.9207  -17.3654 O   0  0  0  0  0  0  0  0  0  0  0  0
   18.6664   -4.2740  -16.3740 C   0  0  0  0  0  0  0  0  0  0  0  0
   20.1891   -4.3285  -16.1710 C   0  0  2  0  0  0  0  0  0  0  0  0
   20.8154   -3.7835  -17.4196 C   0  0  0  0  0  0  0  0  0  0  0  0
   20.6221   -5.7012  -15.8196 C   0  0  0  0  0  0  0  0  0  0  0  0
   22.0703   -5.8929  -15.5299 C   0  0  2  0  0  0  0  0  0  0  0  0
   22.3139   -7.2969  -15.1547 N   0  0  0  0  0  0  0  0  0  0  0  0
   22.4952   -5.0278  -14.3909 C   0  0  0  0  0  0  0  0  0  0  0  0
   22.6151   -3.7929  -14.4936 O   0  0  0  0  0  0  0  0  0  0  0  0
   22.7795   -5.5896  -13.1399 O   0  0  0  0  0  0  0  0  0  0  0  0
  2  1  1  1
  2  3  1  0
  3  4  1  0
  4  5  2  0
  6  2  1  0
  6  7  2  0
  8  4  1  0
  9 10  1  0
 10 11  1  0
 11 12  1  0
 13 12  1  6
 13 14  1  0
 14  6  1  0
 15 22  1  0
 15 13  1  0
 16 15  2  0
 18 20  1  0
 18 17  1  6
 19 18  1  0
 21 22  1  0
 21 20  1  1
 23 21  1  0
 24 23  2  0
 25 23  1  0
M  END
$$$$
