DML.pdb
     RDKit          3D

 25 24  0  0  1  0  0  0  0  0999 V2000
   28.3272  -20.2081  -14.6994 N   0  0  0  0  0  0  0  0  0  0  0  0
   27.2208  -20.9531  -15.2703 C   0  0  1  0  0  0  0  0  0  0  0  0
   27.8169  -22.1095  -16.0551 C   0  0  0  0  0  0  0  0  0  0  0  0
   28.7001  -21.6339  -17.1248 C   0  0  0  0  0  0  0  0  0  0  0  0
   29.8886  -22.0664  -17.1329 O   0  0  0  0  0  0  0  0  0  0  0  0
   26.3216  -21.4734  -14.2055 C   0  0  0  0  0  0  0  0  0  0  0  0
   25.4172  -22.2906  -14.4625 O   0  0  0  0  0  0  0  0  0  0  0  0
   28.3446  -20.7534  -18.1249 O   0  0  0  0  0  0  0  0  0  0  0  0
   26.3532  -19.1253   -7.5119 C   0  0  0  0  0  0  0  0  0  0  0  0
   26.3953  -20.9047   -7.7902 S   0  0  0  0  0  0  0  0  0  0  0  0
   25.4705  -21.3432   -9.2854 C   0  0  0  0  0  0  0  0  0  0  0  0
   26.3005  -20.9343  -10.4751 C   0  0  0  0  0  0  0  0  0  0  0  0
   25.6418  -21.3918  -11.7832 C   0  0  2  0  0  0  0  0  0  0  0  0
   26.4877  -21.0408  -12.8816 N   0  0  0  0  0  0  0  0  0  0  0  0
   24.3667  -20.6390  -11.9089 C   0  0  0  0  0  0  0  0  0  0  0  0
   24.3838  -19.3800  -12.0179 O   0  0  0  0  0  0  0  0  0  0  0  0
   20.9942  -20.4381  -16.2355 C   0  0  0  0  0  0  0  0  0  0  0  0
   20.8660  -20.1302  -14.7349 C   0  0  2  0  0  0  0  0  0  0  0  0
   20.7390  -18.6419  -14.6043 C   0  0  0  0  0  0  0  0  0  0  0  0
   21.9999  -20.7149  -13.9814 C   0  0  0  0  0  0  0  0  0  0  0  0
   21.9397  -20.6145  -12.4966 C   0  0  2  0  0  0  0  0  0  0  0  0
   23.1115  -21.2895  -11.9115 N   0  0  0  0  0  0  0  0  0  0  0  0
   20.7114  -21.2828  -11.9763 C   0  0  0  0  0  0  0  0  0  0  0  0
   19.6688  -20.6576  -11.7083 O   0  0  0  0  0  0  0  0  0  0  0  0
   20.6905  -22.6676  -11.7675 O   0  0  0  0  0  0  0  0  0  0  0  0
  2  1  1  1
  2  3  1  0
  3  4  1  0
  4  5  2  0
  6  2  1  0
  6  7  2  0
  8  4  1  0
  9 10  1  0
 10 11  1  0
 11 12  1  0
 13 12  1  1
 13 14  1  0
 14  6  1  0
 15 22  1  0
 15 13  1  0
 16 15  2  0
 18 20  1  0
 18 17  1  6
 19 18  1  0
 21 22  1  0
 21 20  1  6
 23 21  1  0
 24 23  2  0
 25 23  1  0
M  END
$$$$
