DML.pdb
     RDKit          3D

 25 24  0  0  1  0  0  0  0  0999 V2000
   27.9315  -21.6958  -16.3221 N   0  0  0  0  0  0  0  0  0  0  0  0
   27.3925  -20.6578  -15.4635 C   0  0  1  0  0  0  0  0  0  0  0  0
   26.8106  -19.5851  -16.3687 C   0  0  0  0  0  0  0  0  0  0  0  0
   27.8542  -18.6925  -16.8832 C   0  0  0  0  0  0  0  0  0  0  0  0
   28.8726  -19.2296  -17.4066 O   0  0  0  0  0  0  0  0  0  0  0  0
   26.3314  -21.1994  -14.5726 C   0  0  0  0  0  0  0  0  0  0  0  0
   25.4845  -22.0111  -14.9918 O   0  0  0  0  0  0  0  0  0  0  0  0
   27.8199  -17.3143  -16.8449 O   0  0  0  0  0  0  0  0  0  0  0  0
   26.5323  -19.3793   -8.3408 C   0  0  0  0  0  0  0  0  0  0  0  0
   25.4706  -20.8279   -8.1999 S   0  0  0  0  0  0  0  0  0  0  0  0
   24.8046  -21.2962   -9.8187 C   0  0  0  0  0  0  0  0  0  0  0  0
   25.7576  -20.7905  -10.8710 C   0  0  0  0  0  0  0  0  0  0  0  0
   25.3169  -21.2433  -12.2692 C   0  0  2  0  0  0  0  0  0  0  0  0
   26.2749  -20.7936  -13.2311 N   0  0  0  0  0  0  0  0  0  0  0  0
   24.0184  -20.5765  -12.5479 C   0  0  0  0  0  0  0  0  0  0  0  0
   23.9472  -19.3150  -12.5697 O   0  0  0  0  0  0  0  0  0  0  0  0
   21.8820  -19.0002  -15.6837 C   0  0  0  0  0  0  0  0  0  0  0  0
   21.8874  -20.5344  -15.5879 C   0  0  2  0  0  0  0  0  0  0  0  0
   21.4135  -21.0558  -16.9114 C   0  0  0  0  0  0  0  0  0  0  0  0
   21.0841  -20.9898  -14.4290 C   0  0  0  0  0  0  0  0  0  0  0  0
   21.5782  -20.6026  -13.0784 C   0  0  2  0  0  0  0  0  0  0  0  0
   22.8373  -21.3134  -12.7944 N   0  0  0  0  0  0  0  0  0  0  0  0
   20.5857  -20.9796  -12.0301 C   0  0  0  0  0  0  0  0  0  0  0  0
   20.7728  -21.9188  -11.2348 O   0  0  0  0  0  0  0  0  0  0  0  0
   19.3831  -20.2729  -11.9036 O   0  0  0  0  0  0  0  0  0  0  0  0
  2  1  1  6
  2  3  1  0
  3  4  1  0
  4  5  2  0
  6  2  1  0
  6  7  2  0
  8  4  1  0
  9 10  1  0
 10 11  1  0
 11 12  1  0
 13 12  1  1
 13 14  1  0
 14  6  1  0
 15 22  1  0
 15 13  1  0
 16 15  2  0
 18 20  1  0
 18 17  1  6
 19 18  1  0
 21 22  1  0
 21 20  1  6
 23 21  1  0
 24 23  2  0
 25 23  1  0
M  END
$$$$
