DML.pdb
     RDKit          3D

 25 24  0  0  1  0  0  0  0  0999 V2000
   27.9243  -20.0505  -15.6894 N   0  0  0  0  0  0  0  0  0  0  0  0
   27.3904  -21.3531  -16.0402 C   0  0  1  0  0  0  0  0  0  0  0  0
   28.5736  -22.2904  -16.2133 C   0  0  0  0  0  0  0  0  0  0  0  0
   29.1455  -22.1904  -17.5600 C   0  0  0  0  0  0  0  0  0  0  0  0
   28.6138  -21.3654  -18.3576 O   0  0  0  0  0  0  0  0  0  0  0  0
   26.4896  -21.8659  -14.9732 C   0  0  0  0  0  0  0  0  0  0  0  0
   26.2697  -23.0848  -14.8405 O   0  0  0  0  0  0  0  0  0  0  0  0
   30.2159  -22.9209  -18.0319 O   0  0  0  0  0  0  0  0  0  0  0  0
   27.1009  -20.1839   -9.2444 C   0  0  0  0  0  0  0  0  0  0  0  0
   25.3265  -20.4325   -9.0571 S   0  0  0  0  0  0  0  0  0  0  0  0
   24.6138  -21.1381  -10.5662 C   0  0  0  0  0  0  0  0  0  0  0  0
   25.4618  -20.6886  -11.7282 C   0  0  0  0  0  0  0  0  0  0  0  0
   24.9747  -21.3237  -13.0373 C   0  0  2  0  0  0  0  0  0  0  0  0
   25.8702  -20.9660  -14.0934 N   0  0  0  0  0  0  0  0  0  0  0  0
   23.6408  -20.7373  -13.3295 C   0  0  0  0  0  0  0  0  0  0  0  0
   23.4995  -19.4826  -13.3826 O   0  0  0  0  0  0  0  0  0  0  0  0
   21.2789  -20.6789  -16.8674 C   0  0  0  0  0  0  0  0  0  0  0  0
   21.0682  -21.9978  -16.1064 C   0  0  2  0  0  0  0  0  0  0  0  0
   20.2841  -22.9021  -17.0095 C   0  0  0  0  0  0  0  0  0  0  0  0
   20.4334  -21.7482  -14.7911 C   0  0  0  0  0  0  0  0  0  0  0  0
   21.1996  -20.9118  -13.8259 C   0  0  2  0  0  0  0  0  0  0  0  0
   22.5023  -21.5447  -13.5547 N   0  0  0  0  0  0  0  0  0  0  0  0
   20.4623  -20.7953  -12.5340 C   0  0  0  0  0  0  0  0  0  0  0  0
   19.4453  -20.0897  -12.4022 O   0  0  0  0  0  0  0  0  0  0  0  0
   20.9004  -21.4923  -11.4008 O   0  0  0  0  0  0  0  0  0  0  0  0
  2  1  1  1
  2  3  1  0
  3  4  1  0
  4  5  2  0
  6  2  1  0
  6  7  2  0
  8  4  1  0
  9 10  1  0
 10 11  1  0
 11 12  1  0
 13 12  1  1
 13 14  1  0
 14  6  1  0
 15 22  1  0
 15 13  1  0
 16 15  2  0
 18 20  1  0
 18 17  1  6
 19 18  1  0
 21 22  1  0
 21 20  1  6
 23 21  1  0
 24 23  2  0
 25 23  1  0
M  END
$$$$
