DML.pdb
     RDKit          3D

 25 24  0  0  1  0  0  0  0  0999 V2000
   29.3470  -22.1486  -17.9321 N   0  0  0  0  0  0  0  0  0  0  0  0
   27.9612  -22.3550  -17.5554 C   0  0  1  0  0  0  0  0  0  0  0  0
   27.8733  -23.7247  -16.9037 C   0  0  0  0  0  0  0  0  0  0  0  0
   27.1786  -24.6862  -17.7659 C   0  0  0  0  0  0  0  0  0  0  0  0
   27.0498  -25.8677  -17.3335 O   0  0  0  0  0  0  0  0  0  0  0  0
   27.5061  -21.3092  -16.6004 C   0  0  0  0  0  0  0  0  0  0  0  0
   28.3202  -20.6084  -15.9697 O   0  0  0  0  0  0  0  0  0  0  0  0
   26.6527  -24.4114  -19.0109 O   0  0  0  0  0  0  0  0  0  0  0  0
   21.6061  -17.8829  -17.1810 C   0  0  0  0  0  0  0  0  0  0  0  0
   22.4753  -19.1311  -18.1463 S   0  0  0  0  0  0  0  0  0  0  0  0
   23.5325  -20.1462  -17.0808 C   0  0  0  0  0  0  0  0  0  0  0  0
   24.5869  -19.2465  -16.4890 C   0  0  0  0  0  0  0  0  0  0  0  0
   25.5619  -20.0485  -15.6169 C   0  0  2  0  0  0  0  0  0  0  0  0
   26.1337  -21.1004  -16.3990 N   0  0  0  0  0  0  0  0  0  0  0  0
   24.7605  -20.6552  -14.5223 C   0  0  0  0  0  0  0  0  0  0  0  0
   24.0003  -21.6354  -14.7636 O   0  0  0  0  0  0  0  0  0  0  0  0
   25.5383  -20.6805   -8.6788 C   0  0  0  0  0  0  0  0  0  0  0  0
   25.0414  -21.2992   -9.9953 C   0  0  2  0  0  0  0  0  0  0  0  0
   26.2289  -21.9341  -10.6546 C   0  0  0  0  0  0  0  0  0  0  0  0
   24.3532  -20.2826  -10.8250 C   0  0  0  0  0  0  0  0  0  0  0  0
   23.9035  -20.7150  -12.1774 C   0  0  2  0  0  0  0  0  0  0  0  0
   24.8174  -20.1687  -13.1961 N   0  0  0  0  0  0  0  0  0  0  0  0
   22.5316  -20.2019  -12.4617 C   0  0  0  0  0  0  0  0  0  0  0  0
   21.5057  -20.7371  -12.0027 O   0  0  0  0  0  0  0  0  0  0  0  0
   22.3488  -19.0749  -13.2730 O   0  0  0  0  0  0  0  0  0  0  0  0
  2  1  1  1
  2  3  1  0
  3  4  1  0
  4  5  2  0
  6  2  1  0
  6  7  2  0
  8  4  1  0
  9 10  1  0
 10 11  1  0
 11 12  1  0
 13 12  1  6
 13 14  1  0
 14  6  1  0
 15 22  1  0
 15 13  1  0
 16 15  2  0
 18 20  1  0
 18 17  1  1
 19 18  1  0
 21 22  1  0
 21 20  1  1
 23 21  1  0
 24 23  2  0
 25 23  1  0
M  END
$$$$
