DML.pdb
     RDKit          3D

 25 24  0  0  1  0  0  0  0  0999 V2000
   21.0879  -10.8346  -20.0529 N   0  0  0  0  0  0  0  0  0  0  0  0
   21.0512  -10.7504  -18.6049 C   0  0  1  0  0  0  0  0  0  0  0  0
   22.4325  -10.3141  -18.1463 C   0  0  0  0  0  0  0  0  0  0  0  0
   23.4493  -11.3189  -18.4736 C   0  0  0  0  0  0  0  0  0  0  0  0
   23.2722  -12.4907  -18.0319 O   0  0  0  0  0  0  0  0  0  0  0  0
   20.0325   -9.7651  -18.1530 C   0  0  0  0  0  0  0  0  0  0  0  0
   19.8504   -8.6944  -18.7631 O   0  0  0  0  0  0  0  0  0  0  0  0
   24.5848  -11.0945  -19.2235 O   0  0  0  0  0  0  0  0  0  0  0  0
   13.6935  -12.1239  -17.1079 C   0  0  0  0  0  0  0  0  0  0  0  0
   14.9562  -11.5369  -15.9649 S   0  0  0  0  0  0  0  0  0  0  0  0
   16.1722  -10.5053  -16.8253 C   0  0  0  0  0  0  0  0  0  0  0  0
   17.1670  -10.0188  -15.8031 C   0  0  0  0  0  0  0  0  0  0  0  0
   18.2608   -9.1713  -16.4662 C   0  0  2  0  0  0  0  0  0  0  0  0
   19.2558  -10.0382  -17.0173 N   0  0  0  0  0  0  0  0  0  0  0  0
   18.8856   -8.3577  -15.3910 C   0  0  0  0  0  0  0  0  0  0  0  0
   19.8382   -8.8337  -14.7104 O   0  0  0  0  0  0  0  0  0  0  0  0
   21.0470   -3.5985  -14.1959 C   0  0  0  0  0  0  0  0  0  0  0  0
   21.4497   -5.0572  -13.9257 C   0  0  2  0  0  0  0  0  0  0  0  0
   22.9103   -5.1727  -14.2444 C   0  0  0  0  0  0  0  0  0  0  0  0
   20.5834   -5.9891  -14.6850 C   0  0  0  0  0  0  0  0  0  0  0  0
   19.2127   -6.2162  -14.1486 C   0  0  2  0  0  0  0  0  0  0  0  0
   18.4471   -7.0467  -15.0949 N   0  0  0  0  0  0  0  0  0  0  0  0
   18.4940   -4.9192  -13.9828 C   0  0  0  0  0  0  0  0  0  0  0  0
   17.7409   -4.4520  -14.8570 O   0  0  0  0  0  0  0  0  0  0  0  0
   18.6466   -4.1673  -12.8110 O   0  0  0  0  0  0  0  0  0  0  0  0
  2  1  1  6
  2  3  1  0
  3  4  1  0
  4  5  2  0
  6  2  1  0
  6  7  2  0
  8  4  1  0
  9 10  1  0
 10 11  1  0
 11 12  1  0
 13 12  1  1
 13 14  1  0
 14  6  1  0
 15 22  1  0
 15 13  1  0
 16 15  2  0
 18 20  1  0
 18 17  1  6
 19 18  1  0
 21 22  1  0
 21 20  1  6
 23 21  1  0
 24 23  2  0
 25 23  1  0
M  END
$$$$
