DML.pdb
     RDKit          3D

 25 24  0  0  1  0  0  0  0  0999 V2000
   20.1976  -12.1869  -17.7543 N   0  0  0  0  0  0  0  0  0  0  0  0
   19.5931  -11.6734  -16.5395 C   0  0  1  0  0  0  0  0  0  0  0  0
   19.1851  -12.8727  -15.7005 C   0  0  0  0  0  0  0  0  0  0  0  0
   18.1624  -13.6778  -16.3761 C   0  0  0  0  0  0  0  0  0  0  0  0
   17.3037  -13.0625  -17.0716 O   0  0  0  0  0  0  0  0  0  0  0  0
   20.5538  -10.8278  -15.7813 C   0  0  0  0  0  0  0  0  0  0  0  0
   20.2609  -10.3527  -14.6676 O   0  0  0  0  0  0  0  0  0  0  0  0
   18.0567  -15.0516  -16.3175 O   0  0  0  0  0  0  0  0  0  0  0  0
   27.1671  -11.7045  -15.6200 C   0  0  0  0  0  0  0  0  0  0  0  0
   26.8886  -10.0367  -16.2415 S   0  0  0  0  0  0  0  0  0  0  0  0
   25.3125   -9.3799  -15.6351 C   0  0  0  0  0  0  0  0  0  0  0  0
   24.2066  -10.1953  -16.2544 C   0  0  0  0  0  0  0  0  0  0  0  0
   22.8413   -9.7810  -15.6900 C   0  0  2  0  0  0  0  0  0  0  0  0
   21.8182  -10.5539  -16.3234 N   0  0  0  0  0  0  0  0  0  0  0  0
   22.6438   -8.3521  -16.0474 C   0  0  0  0  0  0  0  0  0  0  0  0
   22.6691   -7.9940  -17.2590 O   0  0  0  0  0  0  0  0  0  0  0  0
   20.3228   -3.4926  -15.2067 C   0  0  0  0  0  0  0  0  0  0  0  0
   20.2329   -4.5383  -16.3298 C   0  0  2  0  0  0  0  0  0  0  0  0
   18.8196   -4.5206  -16.8303 C   0  0  0  0  0  0  0  0  0  0  0  0
   20.6947   -5.8624  -15.8511 C   0  0  0  0  0  0  0  0  0  0  0  0
   22.1320   -5.9752  -15.4775 C   0  0  2  0  0  0  0  0  0  0  0  0
   22.4244   -7.3592  -15.0651 N   0  0  0  0  0  0  0  0  0  0  0  0
   22.4473   -5.0730  -14.3317 C   0  0  0  0  0  0  0  0  0  0  0  0
   22.2923   -5.4153  -13.1449 O   0  0  0  0  0  0  0  0  0  0  0  0
   22.9394   -3.7816  -14.5589 O   0  0  0  0  0  0  0  0  0  0  0  0
  2  1  1  6
  2  3  1  0
  3  4  1  0
  4  5  2  0
  6  2  1  0
  6  7  2  0
  8  4  1  0
  9 10  1  0
 10 11  1  0
 11 12  1  0
 13 12  1  6
 13 14  1  0
 14  6  1  0
 15 22  1  0
 15 13  1  0
 16 15  2  0
 18 20  1  0
 18 17  1  1
 19 18  1  0
 21 22  1  0
 21 20  1  1
 23 21  1  0
 24 23  2  0
 25 23  1  0
M  END
$$$$
