DML.pdb
     RDKit          3D

 25 24  0  0  1  0  0  0  0  0999 V2000
   17.7147  -11.7997  -14.5226 N   0  0  0  0  0  0  0  0  0  0  0  0
   17.1828  -10.4583  -14.3718 C   0  0  1  0  0  0  0  0  0  0  0  0
   15.6865  -10.5387  -14.6230 C   0  0  0  0  0  0  0  0  0  0  0  0
   15.3932  -10.8427  -16.0273 C   0  0  0  0  0  0  0  0  0  0  0  0
   14.5230  -11.7304  -16.2605 O   0  0  0  0  0  0  0  0  0  0  0  0
   17.4395   -9.9328  -13.0040 C   0  0  0  0  0  0  0  0  0  0  0  0
   17.3562  -10.6669  -12.0010 O   0  0  0  0  0  0  0  0  0  0  0  0
   15.9867  -10.2421  -17.1177 O   0  0  0  0  0  0  0  0  0  0  0  0
   21.6918   -5.7276  -13.8826 C   0  0  0  0  0  0  0  0  0  0  0  0
   21.7644   -6.2060  -12.1472 S   0  0  0  0  0  0  0  0  0  0  0  0
   20.5661   -7.5178  -11.7917 C   0  0  0  0  0  0  0  0  0  0  0  0
   19.1907   -6.9021  -11.8160 C   0  0  0  0  0  0  0  0  0  0  0  0
   18.1116   -7.9675  -11.5818 C   0  0  2  0  0  0  0  0  0  0  0  0
   17.7831   -8.5841  -12.8297 N   0  0  0  0  0  0  0  0  0  0  0  0
   16.9090   -7.2572  -11.0744 C   0  0  0  0  0  0  0  0  0  0  0  0
   16.1389   -6.6622  -11.8805 O   0  0  0  0  0  0  0  0  0  0  0  0
   13.8879   -6.4683   -5.7078 C   0  0  0  0  0  0  0  0  0  0  0  0
   13.9387   -6.1491   -7.2106 C   0  0  2  0  0  0  0  0  0  0  0  0
   12.5792   -6.4502   -7.7667 C   0  0  0  0  0  0  0  0  0  0  0  0
   15.0438   -6.8872   -7.8660 C   0  0  0  0  0  0  0  0  0  0  0  0
   15.4153   -6.4535   -9.2415 C   0  0  2  0  0  0  0  0  0  0  0  0
   16.5871   -7.2212   -9.6982 N   0  0  0  0  0  0  0  0  0  0  0  0
   15.7753   -5.0056   -9.2544 C   0  0  0  0  0  0  0  0  0  0  0  0
   16.9087   -4.5924   -8.9471 O   0  0  0  0  0  0  0  0  0  0  0  0
   14.8280   -4.0413   -9.6212 O   0  0  0  0  0  0  0  0  0  0  0  0
  2  1  1  1
  2  3  1  0
  3  4  1  0
  4  5  2  0
  6  2  1  0
  6  7  2  0
  8  4  1  0
  9 10  1  0
 10 11  1  0
 11 12  1  0
 13 12  1  6
 13 14  1  0
 14  6  1  0
 15 22  1  0
 15 13  1  0
 16 15  2  0
 18 20  1  0
 18 17  1  1
 19 18  1  0
 21 22  1  0
 21 20  1  1
 23 21  1  0
 24 23  2  0
 25 23  1  0
M  END
$$$$
