AWN.pdb
     RDKit          3D

 28 29  0  0  1  0  0  0  0  0999 V2000
   27.4796  -18.9841  -15.2295 C   0  0  0  0  0  0  0  0  0  0  0  0
   28.0349  -20.1007  -14.3687 C   0  0  2  0  0  0  0  0  0  0  0  0
   28.5687  -21.1180  -15.2411 N   0  0  0  0  0  0  0  0  0  0  0  0
   26.9347  -20.6786  -13.5458 C   0  0  0  0  0  0  0  0  0  0  0  0
   26.1871  -21.5521  -14.0118 O   0  0  0  0  0  0  0  0  0  0  0  0
   26.6769  -20.2826  -12.2188 N   0  0  0  0  0  0  0  0  0  0  0  0
   25.7005  -20.8738  -11.3312 C   0  0  1  0  0  0  0  0  0  0  0  0
   25.9347  -20.6144   -9.9007 C   0  0  0  0  0  0  0  0  0  0  0  0
   27.2767  -20.9321   -9.3810 C   0  0  0  0  0  0  0  0  0  0  0  0
   28.2630  -21.7480   -9.9354 C   0  0  0  0  0  0  0  0  0  0  0  0
   29.3392  -21.8279   -9.1671 N   0  0  0  0  0  0  0  0  0  0  0  0
   29.1150  -21.0617   -8.0575 C   0  0  0  0  0  0  0  0  0  0  0  0
   29.9170  -20.7917   -6.9414 C   0  0  0  0  0  0  0  0  0  0  0  0
   29.3714  -19.9551   -5.9936 C   0  0  0  0  0  0  0  0  0  0  0  0
   28.1224  -19.3930   -6.0894 C   0  0  0  0  0  0  0  0  0  0  0  0
   27.3580  -19.6739   -7.1935 C   0  0  0  0  0  0  0  0  0  0  0  0
   27.8562  -20.5087   -8.1764 C   0  0  0  0  0  0  0  0  0  0  0  0
   24.3893  -20.4134  -11.8266 C   0  0  0  0  0  0  0  0  0  0  0  0
   24.2278  -19.1989  -12.2109 O   0  0  0  0  0  0  0  0  0  0  0  0
   21.0300  -19.0307  -15.4305 N   0  0  0  0  0  0  0  0  0  0  0  0
   21.3502  -20.3600  -15.0012 C   0  0  0  0  0  0  0  0  0  0  0  0
   20.6150  -21.2920  -15.4118 O   0  0  0  0  0  0  0  0  0  0  0  0
   22.4756  -20.6877  -14.1219 C   0  0  0  0  0  0  0  0  0  0  0  0
   22.0310  -20.6872  -12.6410 C   0  0  2  0  0  0  0  0  0  0  0  0
   23.2062  -21.1980  -11.9435 N   0  0  0  0  0  0  0  0  0  0  0  0
   20.9084  -21.6218  -12.4572 C   0  0  0  0  0  0  0  0  0  0  0  0
   19.7447  -21.1995  -12.3218 O   0  0  0  0  0  0  0  0  0  0  0  0
   21.1519  -23.0082  -12.4331 O   0  0  0  0  0  0  0  0  0  0  0  0
  2  3  1  0
  2  1  1  6
  4  2  1  0
  5  4  2  0
  6  4  1  0
  7  6  1  0
  8  9  1  0
  7  8  1  1
  9 10  2  0
 11 10  1  0
 12 11  1  0
 13 12  2  0
 14 13  1  0
 15 14  2  0
 15 16  1  0
 16 17  2  0
 17 12  1  0
 17  9  1  0
 18  7  1  0
 18 19  2  0
 21 20  1  0
 22 21  2  0
 23 21  1  0
 24 23  1  6
 24 25  1  0
 25 18  1  0
 26 24  1  0
 27 26  2  0
 28 26  1  0
M  END
$$$$
