AWN.pdb
     RDKit          3D

 28 29  0  0  1  0  0  0  0  0999 V2000
   30.8196  -24.0782  -17.0138 C   0  0  0  0  0  0  0  0  0  0  0  0
   29.3125  -23.9223  -17.0058 C   0  0  2  0  0  0  0  0  0  0  0  0
   28.8766  -23.6947  -18.3619 N   0  0  0  0  0  0  0  0  0  0  0  0
   28.9454  -22.7497  -16.1621 C   0  0  0  0  0  0  0  0  0  0  0  0
   29.2100  -22.7339  -14.9502 O   0  0  0  0  0  0  0  0  0  0  0  0
   28.2911  -21.6106  -16.6707 N   0  0  0  0  0  0  0  0  0  0  0  0
   27.9350  -20.4291  -15.9171 C   0  0  1  0  0  0  0  0  0  0  0  0
   28.2546  -19.1559  -16.5842 C   0  0  0  0  0  0  0  0  0  0  0  0
   27.7941  -17.9248  -15.9176 C   0  0  0  0  0  0  0  0  0  0  0  0
   27.6529  -17.6641  -14.5545 C   0  0  0  0  0  0  0  0  0  0  0  0
   27.1773  -16.4498  -14.3220 N   0  0  0  0  0  0  0  0  0  0  0  0
   26.9792  -15.8430  -15.5308 C   0  0  0  0  0  0  0  0  0  0  0  0
   26.5039  -14.5671  -15.8593 C   0  0  0  0  0  0  0  0  0  0  0  0
   26.4368  -14.2750  -17.2032 C   0  0  0  0  0  0  0  0  0  0  0  0
   26.8023  -15.1454  -18.2000 C   0  0  0  0  0  0  0  0  0  0  0  0
   27.2650  -16.3887  -17.8503 C   0  0  0  0  0  0  0  0  0  0  0  0
   27.3525  -16.7356  -16.5148 C   0  0  0  0  0  0  0  0  0  0  0  0
   26.5097  -20.5960  -15.5748 C   0  0  0  0  0  0  0  0  0  0  0  0
   25.7052  -21.1686  -16.3957 O   0  0  0  0  0  0  0  0  0  0  0  0
   25.6058  -22.3587  -11.1847 N   0  0  0  0  0  0  0  0  0  0  0  0
   24.8134  -22.0240  -12.3309 C   0  0  0  0  0  0  0  0  0  0  0  0
   24.4987  -22.9592  -13.1081 O   0  0  0  0  0  0  0  0  0  0  0  0
   24.3540  -20.6675  -12.6410 C   0  0  0  0  0  0  0  0  0  0  0  0
   24.4466  -20.3925  -14.1597 C   0  0  2  0  0  0  0  0  0  0  0  0
   25.8746  -20.1793  -14.3699 N   0  0  0  0  0  0  0  0  0  0  0  0
   23.7142  -19.1584  -14.4884 C   0  0  0  0  0  0  0  0  0  0  0  0
   22.4727  -19.1131  -14.4015 O   0  0  0  0  0  0  0  0  0  0  0  0
   24.4237  -18.0166  -14.9066 O   0  0  0  0  0  0  0  0  0  0  0  0
  2  3  1  0
  2  1  1  6
  4  2  1  0
  5  4  2  0
  6  4  1  0
  7  6  1  0
  8  9  1  0
  7  8  1  6
  9 10  2  0
 11 10  1  0
 12 11  1  0
 13 12  2  0
 14 13  1  0
 15 14  2  0
 15 16  1  0
 16 17  2  0
 17 12  1  0
 17  9  1  0
 18  7  1  0
 18 19  2  0
 21 20  1  0
 22 21  2  0
 23 21  1  0
 24 23  1  1
 24 25  1  0
 25 18  1  0
 26 24  1  0
 27 26  2  0
 28 26  1  0
M  END
$$$$
