AWN.pdb
     RDKit          3D

 28 29  0  0  1  0  0  0  0  0999 V2000
   29.2308  -21.3210  -14.0408 C   0  0  0  0  0  0  0  0  0  0  0  0
   27.9366  -20.5387  -13.9471 C   0  0  2  0  0  0  0  0  0  0  0  0
   28.2649  -19.1484  -13.7466 N   0  0  0  0  0  0  0  0  0  0  0  0
   27.1466  -21.0355  -12.7849 C   0  0  0  0  0  0  0  0  0  0  0  0
   26.8022  -22.2254  -12.7155 O   0  0  0  0  0  0  0  0  0  0  0  0
   26.7486  -20.2096  -11.7155 N   0  0  0  0  0  0  0  0  0  0  0  0
   25.8805  -20.5929  -10.6245 C   0  0  1  0  0  0  0  0  0  0  0  0
   26.2402  -20.0115   -9.3203 C   0  0  0  0  0  0  0  0  0  0  0  0
   27.5156  -20.4522   -8.7277 C   0  0  0  0  0  0  0  0  0  0  0  0
   28.4999  -21.2760   -9.2740 C   0  0  0  0  0  0  0  0  0  0  0  0
   29.5027  -21.4853   -8.4340 N   0  0  0  0  0  0  0  0  0  0  0  0
   29.2280  -20.8038   -7.2814 C   0  0  0  0  0  0  0  0  0  0  0  0
   29.9475  -20.6781   -6.0864 C   0  0  0  0  0  0  0  0  0  0  0  0
   29.3702  -19.8936   -5.1131 C   0  0  0  0  0  0  0  0  0  0  0  0
   28.1651  -19.2513   -5.2558 C   0  0  0  0  0  0  0  0  0  0  0  0
   27.4814  -19.3911   -6.4369 C   0  0  0  0  0  0  0  0  0  0  0  0
   28.0146  -20.1681   -7.4485 C   0  0  0  0  0  0  0  0  0  0  0  0
   24.5139  -20.2717  -11.0781 C   0  0  0  0  0  0  0  0  0  0  0  0
   24.2759  -19.1763  -11.7044 O   0  0  0  0  0  0  0  0  0  0  0  0
   20.8603  -21.0587  -14.8440 N   0  0  0  0  0  0  0  0  0  0  0  0
   20.9225  -21.7346  -13.5818 C   0  0  0  0  0  0  0  0  0  0  0  0
   19.8667  -22.2686  -13.1604 O   0  0  0  0  0  0  0  0  0  0  0  0
   22.1361  -21.8374  -12.7670 C   0  0  0  0  0  0  0  0  0  0  0  0
   22.1208  -20.7911  -11.6286 C   0  0  2  0  0  0  0  0  0  0  0  0
   23.3526  -21.0773  -10.9010 N   0  0  0  0  0  0  0  0  0  0  0  0
   20.9657  -21.0297  -10.7477 C   0  0  0  0  0  0  0  0  0  0  0  0
   19.9912  -20.2541  -10.7521 O   0  0  0  0  0  0  0  0  0  0  0  0
   20.9616  -22.1459   -9.8897 O   0  0  0  0  0  0  0  0  0  0  0  0
  2  3  1  0
  2  1  1  1
  4  2  1  0
  5  4  2  0
  6  4  1  0
  7  6  1  0
  8  9  1  0
  7  8  1  1
  9 10  2  0
 11 10  1  0
 12 11  1  0
 13 12  2  0
 14 13  1  0
 15 14  2  0
 15 16  1  0
 16 17  2  0
 17 12  1  0
 17  9  1  0
 18  7  1  0
 18 19  2  0
 21 20  1  0
 22 21  2  0
 23 21  1  0
 24 23  1  6
 24 25  1  0
 25 18  1  0
 26 24  1  0
 27 26  2  0
 28 26  1  0
M  END
$$$$
