AWN.pdb
     RDKit          3D

 28 29  0  0  1  0  0  0  0  0999 V2000
   19.7404  -37.1925   -3.6920 C   0  0  0  0  0  0  0  0  0  0  0  0
   19.6393  -36.0140   -4.6389 C   0  0  2  0  0  0  0  0  0  0  0  0
   18.6999  -36.3528   -5.6799 N   0  0  0  0  0  0  0  0  0  0  0  0
   20.9772  -35.7536   -5.2421 C   0  0  0  0  0  0  0  0  0  0  0  0
   21.5618  -36.6349   -5.8908 O   0  0  0  0  0  0  0  0  0  0  0  0
   21.6498  -34.5220   -5.1198 N   0  0  0  0  0  0  0  0  0  0  0  0
   22.9355  -34.1963   -5.6959 C   0  0  1  0  0  0  0  0  0  0  0  0
   23.1093  -32.7766   -6.0460 C   0  0  0  0  0  0  0  0  0  0  0  0
   24.0803  -32.4712   -7.1118 C   0  0  0  0  0  0  0  0  0  0  0  0
   23.8485  -31.9810   -8.3972 C   0  0  0  0  0  0  0  0  0  0  0  0
   24.9665  -31.8589   -9.0972 N   0  0  0  0  0  0  0  0  0  0  0  0
   26.0011  -32.2657   -8.3018 C   0  0  0  0  0  0  0  0  0  0  0  0
   27.3798  -32.3335   -8.5388 C   0  0  0  0  0  0  0  0  0  0  0  0
   28.1504  -32.7937   -7.4946 C   0  0  0  0  0  0  0  0  0  0  0  0
   27.6473  -33.1747   -6.2753 C   0  0  0  0  0  0  0  0  0  0  0  0
   26.2930  -33.0979   -6.0698 C   0  0  0  0  0  0  0  0  0  0  0  0
   25.4715  -32.6432   -7.0846 C   0  0  0  0  0  0  0  0  0  0  0  0
   23.9357  -34.7153   -4.7437 C   0  0  0  0  0  0  0  0  0  0  0  0
   23.8132  -34.4940   -3.4848 O   0  0  0  0  0  0  0  0  0  0  0  0
   27.5101  -39.4954   -4.7884 N   0  0  0  0  0  0  0  0  0  0  0  0
   26.8126  -38.3727   -4.2345 C   0  0  0  0  0  0  0  0  0  0  0  0
   26.1307  -38.5707   -3.1985 O   0  0  0  0  0  0  0  0  0  0  0  0
   26.8524  -37.0225   -4.8025 C   0  0  0  0  0  0  0  0  0  0  0  0
   25.9194  -36.0713   -4.0181 C   0  0  2  0  0  0  0  0  0  0  0  0
   25.0912  -35.4836   -5.0656 N   0  0  0  0  0  0  0  0  0  0  0  0
   26.7143  -35.0139   -3.3720 C   0  0  0  0  0  0  0  0  0  0  0  0
   27.2207  -34.0971   -4.0458 O   0  0  0  0  0  0  0  0  0  0  0  0
   26.9054  -35.0386   -1.9774 O   0  0  0  0  0  0  0  0  0  0  0  0
  2  3  1  0
  2  1  1  1
  4  2  1  0
  5  4  2  0
  6  4  1  0
  7  6  1  0
  8  9  1  0
  7  8  1  1
  9 10  2  0
 11 10  1  0
 12 11  1  0
 13 12  2  0
 14 13  1  0
 15 14  2  0
 15 16  1  0
 16 17  2  0
 17 12  1  0
 17  9  1  0
 18  7  1  0
 18 19  2  0
 21 20  1  0
 22 21  2  0
 23 21  1  0
 24 23  1  6
 24 25  1  0
 25 18  1  0
 26 24  1  0
 27 26  2  0
 28 26  1  0
M  END
$$$$
