AWN.pdb
     RDKit          3D

 28 29  0  0  1  0  0  0  0  0999 V2000
   19.7688  -18.7758  -14.1858 C   0  0  0  0  0  0  0  0  0  0  0  0
   21.2127  -18.7142  -13.7304 C   0  0  2  0  0  0  0  0  0  0  0  0
   21.8285  -17.5622  -14.3426 N   0  0  0  0  0  0  0  0  0  0  0  0
   21.9194  -19.9496  -14.1728 C   0  0  0  0  0  0  0  0  0  0  0  0
   22.1512  -20.1506  -15.3749 O   0  0  0  0  0  0  0  0  0  0  0  0
   22.3602  -20.9456  -13.2795 N   0  0  0  0  0  0  0  0  0  0  0  0
   23.1486  -22.1073  -13.6255 C   0  0  1  0  0  0  0  0  0  0  0  0
   24.1776  -22.4678  -12.6358 C   0  0  0  0  0  0  0  0  0  0  0  0
   25.2789  -21.5072  -12.4453 C   0  0  0  0  0  0  0  0  0  0  0  0
   25.4861  -20.6038  -11.4028 C   0  0  0  0  0  0  0  0  0  0  0  0
   26.5740  -19.8698  -11.5831 N   0  0  0  0  0  0  0  0  0  0  0  0
   27.1444  -20.2556  -12.7639 C   0  0  0  0  0  0  0  0  0  0  0  0
   28.3004  -19.8158  -13.4209 C   0  0  0  0  0  0  0  0  0  0  0  0
   28.5915  -20.4390  -14.6138 C   0  0  0  0  0  0  0  0  0  0  0  0
   27.8283  -21.4365  -15.1682 C   0  0  0  0  0  0  0  0  0  0  0  0
   26.7012  -21.8486  -14.5033 C   0  0  0  0  0  0  0  0  0  0  0  0
   26.3609  -21.2566  -13.3012 C   0  0  0  0  0  0  0  0  0  0  0  0
   22.1713  -23.1767  -13.9045 C   0  0  0  0  0  0  0  0  0  0  0  0
   21.3117  -23.5221  -13.0153 O   0  0  0  0  0  0  0  0  0  0  0  0
   17.8168  -25.3112  -16.6280 N   0  0  0  0  0  0  0  0  0  0  0  0
   19.2202  -25.4813  -16.8639 C   0  0  0  0  0  0  0  0  0  0  0  0
   19.5873  -26.5474  -17.4173 O   0  0  0  0  0  0  0  0  0  0  0  0
   20.2374  -24.4909  -16.5011 C   0  0  0  0  0  0  0  0  0  0  0  0
   21.0375  -24.9570  -15.2629 C   0  0  2  0  0  0  0  0  0  0  0  0
   22.0511  -23.9180  -15.1149 N   0  0  0  0  0  0  0  0  0  0  0  0
   21.6938  -26.2434  -15.5487 C   0  0  0  0  0  0  0  0  0  0  0  0
   21.2937  -27.2945  -15.0137 O   0  0  0  0  0  0  0  0  0  0  0  0
   22.7864  -26.2872  -16.4355 O   0  0  0  0  0  0  0  0  0  0  0  0
  2  3  1  0
  2  1  1  6
  4  2  1  0
  5  4  2  0
  6  4  1  0
  7  6  1  0
  8  9  1  0
  7  8  1  1
  9 10  2  0
 11 10  1  0
 12 11  1  0
 13 12  2  0
 14 13  1  0
 15 14  2  0
 15 16  1  0
 16 17  2  0
 17 12  1  0
 17  9  1  0
 18  7  1  0
 18 19  2  0
 21 20  1  0
 22 21  2  0
 23 21  1  0
 24 23  1  6
 24 25  1  0
 25 18  1  0
 26 24  1  0
 27 26  2  0
 28 26  1  0
M  END
$$$$
