AWN.pdb
     RDKit          3D

 28 29  0  0  1  0  0  0  0  0999 V2000
   25.1619  -23.9685  -15.3763 C   0  0  0  0  0  0  0  0  0  0  0  0
   25.7589  -23.4097  -14.1007 C   0  0  2  0  0  0  0  0  0  0  0  0
   25.0653  -24.0013  -12.9827 N   0  0  0  0  0  0  0  0  0  0  0  0
   25.5696  -21.9315  -14.0774 C   0  0  0  0  0  0  0  0  0  0  0  0
   24.5650  -21.4299  -13.5499 O   0  0  0  0  0  0  0  0  0  0  0  0
   26.4943  -21.0285  -14.6376 N   0  0  0  0  0  0  0  0  0  0  0  0
   26.2788  -19.6142  -14.8476 C   0  0  1  0  0  0  0  0  0  0  0  0
   27.5079  -18.8299  -15.0538 C   0  0  0  0  0  0  0  0  0  0  0  0
   27.3383  -17.3906  -15.3211 C   0  0  0  0  0  0  0  0  0  0  0  0
   26.7821  -16.4052  -14.5052 C   0  0  0  0  0  0  0  0  0  0  0  0
   26.7653  -15.2177  -15.0921 N   0  0  0  0  0  0  0  0  0  0  0  0
   27.3147  -15.3613  -16.3356 C   0  0  0  0  0  0  0  0  0  0  0  0
   27.5443  -14.4331  -17.3590 C   0  0  0  0  0  0  0  0  0  0  0  0
   28.1342  -14.9267  -18.5011 C   0  0  0  0  0  0  0  0  0  0  0  0
   28.4954  -16.2397  -18.6759 C   0  0  0  0  0  0  0  0  0  0  0  0
   28.2595  -17.1277  -17.6571 C   0  0  0  0  0  0  0  0  0  0  0  0
   27.6688  -16.6864  -16.4877 C   0  0  0  0  0  0  0  0  0  0  0  0
   25.3068  -19.5247  -15.9538 C   0  0  0  0  0  0  0  0  0  0  0  0
   25.1557  -20.5049  -16.7694 O   0  0  0  0  0  0  0  0  0  0  0  0
   20.4427  -21.0739  -16.7750 N   0  0  0  0  0  0  0  0  0  0  0  0
   21.0894  -19.7950  -16.7816 C   0  0  0  0  0  0  0  0  0  0  0  0
   20.4988  -18.8526  -17.3653 O   0  0  0  0  0  0  0  0  0  0  0  0
   22.3849  -19.5293  -16.1505 C   0  0  0  0  0  0  0  0  0  0  0  0
   23.2414  -18.5924  -17.0333 C   0  0  2  0  0  0  0  0  0  0  0  0
   24.4579  -18.4190  -16.2467 N   0  0  0  0  0  0  0  0  0  0  0  0
   22.5660  -17.2928  -17.1825 C   0  0  0  0  0  0  0  0  0  0  0  0
   22.6292  -16.4358  -16.2811 O   0  0  0  0  0  0  0  0  0  0  0  0
   21.8398  -17.0149  -18.3561 O   0  0  0  0  0  0  0  0  0  0  0  0
  2  3  1  0
  2  1  1  6
  4  2  1  0
  5  4  2  0
  6  4  1  0
  7  6  1  0
  8  9  1  0
  7  8  1  6
  9 10  2  0
 11 10  1  0
 12 11  1  0
 13 12  2  0
 14 13  1  0
 15 14  2  0
 15 16  1  0
 16 17  2  0
 17 12  1  0
 17  9  1  0
 18  7  1  0
 18 19  2  0
 21 20  1  0
 22 21  2  0
 23 21  1  0
 24 23  1  1
 24 25  1  0
 25 18  1  0
 26 24  1  0
 27 26  2  0
 28 26  1  0
M  END
$$$$
