AWN.pdb
     RDKit          3D

 28 29  0  0  1  0  0  0  0  0999 V2000
   28.9310  -23.3484  -16.4577 C   0  0  0  0  0  0  0  0  0  0  0  0
   27.5848  -22.7308  -16.7777 C   0  0  2  0  0  0  0  0  0  0  0  0
   27.8114  -21.4105  -17.3127 N   0  0  0  0  0  0  0  0  0  0  0  0
   26.7822  -22.6290  -15.5259 C   0  0  0  0  0  0  0  0  0  0  0  0
   26.5161  -23.6414  -14.8601 O   0  0  0  0  0  0  0  0  0  0  0  0
   26.2854  -21.4087  -15.0276 N   0  0  0  0  0  0  0  0  0  0  0  0
   25.5951  -21.2233  -13.7706 C   0  0  1  0  0  0  0  0  0  0  0  0
   26.0999  -20.1085  -12.9516 C   0  0  0  0  0  0  0  0  0  0  0  0
   27.2242  -20.4072  -12.0468 C   0  0  0  0  0  0  0  0  0  0  0  0
   28.5661  -20.6291  -12.3568 C   0  0  0  0  0  0  0  0  0  0  0  0
   29.2908  -20.9044  -11.2826 N   0  0  0  0  0  0  0  0  0  0  0  0
   28.4560  -20.8776  -10.2004 C   0  0  0  0  0  0  0  0  0  0  0  0
   28.7001  -21.0887   -8.8376 C   0  0  0  0  0  0  0  0  0  0  0  0
   27.6099  -20.9758   -8.0040 C   0  0  0  0  0  0  0  0  0  0  0  0
   26.3404  -20.6757   -8.4323 C   0  0  0  0  0  0  0  0  0  0  0  0
   26.1294  -20.4734   -9.7727 C   0  0  0  0  0  0  0  0  0  0  0  0
   27.1887  -20.5750  -10.6553 C   0  0  0  0  0  0  0  0  0  0  0  0
   24.1649  -21.1242  -14.1185 C   0  0  0  0  0  0  0  0  0  0  0  0
   23.7897  -20.4559  -15.1488 O   0  0  0  0  0  0  0  0  0  0  0  0
   18.7677  -23.7001  -13.8915 N   0  0  0  0  0  0  0  0  0  0  0  0
   19.5119  -22.6030  -13.3469 C   0  0  0  0  0  0  0  0  0  0  0  0
   18.8834  -21.5428  -13.1051 O   0  0  0  0  0  0  0  0  0  0  0  0
   20.9477  -22.6506  -13.0584 C   0  0  0  0  0  0  0  0  0  0  0  0
   21.7108  -21.6063  -13.9057 C   0  0  2  0  0  0  0  0  0  0  0  0
   23.0794  -21.7181  -13.4127 N   0  0  0  0  0  0  0  0  0  0  0  0
   21.1956  -20.2577  -13.6174 C   0  0  0  0  0  0  0  0  0  0  0  0
   21.5634  -19.6401  -12.6004 O   0  0  0  0  0  0  0  0  0  0  0  0
   20.2764  -19.6589  -14.4997 O   0  0  0  0  0  0  0  0  0  0  0  0
  2  3  1  0
  2  1  1  1
  4  2  1  0
  5  4  2  0
  6  4  1  0
  7  6  1  0
  8  9  1  0
  7  8  1  6
  9 10  2  0
 11 10  1  0
 12 11  1  0
 13 12  2  0
 14 13  1  0
 15 14  2  0
 15 16  1  0
 16 17  2  0
 17 12  1  0
 17  9  1  0
 18  7  1  0
 18 19  2  0
 21 20  1  0
 22 21  2  0
 23 21  1  0
 24 23  1  1
 24 25  1  0
 25 18  1  0
 26 24  1  0
 27 26  2  0
 28 26  1  0
M  END
$$$$
