AWN.pdb
     RDKit          3D

 28 29  0  0  1  0  0  0  0  0999 V2000
   27.1149  -21.8036  -18.1113 C   0  0  0  0  0  0  0  0  0  0  0  0
   28.1186  -21.8463  -16.9770 C   0  0  2  0  0  0  0  0  0  0  0  0
   28.9539  -23.0083  -17.1590 N   0  0  0  0  0  0  0  0  0  0  0  0
   27.3899  -21.9558  -15.6815 C   0  0  0  0  0  0  0  0  0  0  0  0
   27.0059  -23.0584  -15.2621 O   0  0  0  0  0  0  0  0  0  0  0  0
   27.0962  -20.8443  -14.8675 N   0  0  0  0  0  0  0  0  0  0  0  0
   26.5138  -20.8911  -13.5448 C   0  0  1  0  0  0  0  0  0  0  0  0
   27.0797  -19.9232  -12.5903 C   0  0  0  0  0  0  0  0  0  0  0  0
   27.9061  -20.4729  -11.5009 C   0  0  0  0  0  0  0  0  0  0  0  0
   29.1758  -21.0473  -11.5654 C   0  0  0  0  0  0  0  0  0  0  0  0
   29.5991  -21.4644  -10.3816 N   0  0  0  0  0  0  0  0  0  0  0  0
   28.6215  -21.1835   -9.4684 C   0  0  0  0  0  0  0  0  0  0  0  0
   28.5544  -21.4035   -8.0868 C   0  0  0  0  0  0  0  0  0  0  0  0
   27.4015  -20.9816   -7.4632 C   0  0  0  0  0  0  0  0  0  0  0  0
   26.3528  -20.3763   -8.1103 C   0  0  0  0  0  0  0  0  0  0  0  0
   26.4449  -20.1726   -9.4639 C   0  0  0  0  0  0  0  0  0  0  0  0
   27.5802  -20.5772  -10.1411 C   0  0  0  0  0  0  0  0  0  0  0  0
   25.0587  -20.7628  -13.7513 C   0  0  0  0  0  0  0  0  0  0  0  0
   24.5905  -19.8822  -14.5600 O   0  0  0  0  0  0  0  0  0  0  0  0
   19.7356  -23.6394  -13.7968 N   0  0  0  0  0  0  0  0  0  0  0  0
   20.6665  -22.6026  -14.1320 C   0  0  0  0  0  0  0  0  0  0  0  0
   20.2116  -21.5813  -14.7041 O   0  0  0  0  0  0  0  0  0  0  0  0
   22.1021  -22.6672  -13.8454 C   0  0  0  0  0  0  0  0  0  0  0  0
   22.6312  -21.2881  -13.3884 C   0  0  2  0  0  0  0  0  0  0  0  0
   24.0439  -21.5459  -13.1301 N   0  0  0  0  0  0  0  0  0  0  0  0
   21.9693  -20.8906  -12.1349 C   0  0  0  0  0  0  0  0  0  0  0  0
   22.3080  -21.3964  -11.0484 O   0  0  0  0  0  0  0  0  0  0  0  0
   20.9416  -19.9288  -12.1635 O   0  0  0  0  0  0  0  0  0  0  0  0
  2  3  1  0
  2  1  1  6
  4  2  1  0
  5  4  2  0
  6  4  1  0
  7  6  1  0
  8  9  1  0
  7  8  1  1
  9 10  2  0
 11 10  1  0
 12 11  1  0
 13 12  2  0
 14 13  1  0
 15 14  2  0
 15 16  1  0
 16 17  2  0
 17 12  1  0
 17  9  1  0
 18  7  1  0
 18 19  2  0
 21 20  1  0
 22 21  2  0
 23 21  1  0
 24 23  1  1
 24 25  1  0
 25 18  1  0
 26 24  1  0
 27 26  2  0
 28 26  1  0
M  END
$$$$
