AWN.pdb
     RDKit          3D

 28 29  0  0  1  0  0  0  0  0999 V2000
   17.4919  -12.0059  -14.7600 C   0  0  0  0  0  0  0  0  0  0  0  0
   17.3526  -10.7409  -15.5823 C   0  0  2  0  0  0  0  0  0  0  0  0
   17.9116  -10.9898  -16.8887 N   0  0  0  0  0  0  0  0  0  0  0  0
   18.1079   -9.6400  -14.9198 C   0  0  0  0  0  0  0  0  0  0  0  0
   17.7879   -9.2437  -13.7886 O   0  0  0  0  0  0  0  0  0  0  0  0
   19.2071   -8.9927  -15.5175 N   0  0  0  0  0  0  0  0  0  0  0  0
   19.9855   -7.9250  -14.9302 C   0  0  1  0  0  0  0  0  0  0  0  0
   21.4429   -8.0757  -15.0766 C   0  0  0  0  0  0  0  0  0  0  0  0
   22.2562   -6.8602  -14.8942 C   0  0  0  0  0  0  0  0  0  0  0  0
   22.1463   -5.8677  -13.9201 C   0  0  0  0  0  0  0  0  0  0  0  0
   23.0337   -4.8987  -14.0881 N   0  0  0  0  0  0  0  0  0  0  0  0
   23.7804   -5.2060  -15.1911 C   0  0  0  0  0  0  0  0  0  0  0  0
   24.8465   -4.5353  -15.8036 C   0  0  0  0  0  0  0  0  0  0  0  0
   25.3823   -5.1424  -16.9173 C   0  0  0  0  0  0  0  0  0  0  0  0
   24.9359   -6.3328  -17.4356 C   0  0  0  0  0  0  0  0  0  0  0  0
   23.8905   -6.9690  -16.8157 C   0  0  0  0  0  0  0  0  0  0  0  0
   23.3139   -6.4037  -15.6934 C   0  0  0  0  0  0  0  0  0  0  0  0
   19.4414   -6.6800  -15.5049 C   0  0  0  0  0  0  0  0  0  0  0  0
   19.2499   -6.5756  -16.7703 O   0  0  0  0  0  0  0  0  0  0  0  0
   16.1650   -3.3701  -16.4627 N   0  0  0  0  0  0  0  0  0  0  0  0
   16.4697   -3.1913  -15.0737 C   0  0  0  0  0  0  0  0  0  0  0  0
   15.5928   -2.6502  -14.3556 O   0  0  0  0  0  0  0  0  0  0  0  0
   17.7317   -3.6022  -14.4528 C   0  0  0  0  0  0  0  0  0  0  0  0
   18.6480   -4.2987  -15.4852 C   0  0  2  0  0  0  0  0  0  0  0  0
   19.0745   -5.5062  -14.7861 N   0  0  0  0  0  0  0  0  0  0  0  0
   19.8211   -3.4531  -15.7613 C   0  0  0  0  0  0  0  0  0  0  0  0
   20.1281   -3.1530  -16.9303 O   0  0  0  0  0  0  0  0  0  0  0  0
   20.6058   -2.9787  -14.6930 O   0  0  0  0  0  0  0  0  0  0  0  0
  2  3  1  0
  2  1  1  1
  4  2  1  0
  5  4  2  0
  6  4  1  0
  7  6  1  0
  8  9  1  0
  7  8  1  6
  9 10  2  0
 11 10  1  0
 12 11  1  0
 13 12  2  0
 14 13  1  0
 15 14  2  0
 15 16  1  0
 16 17  2  0
 17 12  1  0
 17  9  1  0
 18  7  1  0
 18 19  2  0
 21 20  1  0
 22 21  2  0
 23 21  1  0
 24 23  1  1
 24 25  1  0
 25 18  1  0
 26 24  1  0
 27 26  2  0
 28 26  1  0
M  END
$$$$
