AWN.pdb
     RDKit          3D

 28 29  0  0  1  0  0  0  0  0999 V2000
   28.8464  -22.4915  -15.3354 C   0  0  0  0  0  0  0  0  0  0  0  0
   27.3812  -22.2381  -15.6270 C   0  0  2  0  0  0  0  0  0  0  0  0
   27.2576  -20.9184  -16.1962 N   0  0  0  0  0  0  0  0  0  0  0  0
   26.6094  -22.3046  -14.3537 C   0  0  0  0  0  0  0  0  0  0  0  0
   26.6034  -23.3399  -13.6701 O   0  0  0  0  0  0  0  0  0  0  0  0
   25.8550  -21.2251  -13.8539 N   0  0  0  0  0  0  0  0  0  0  0  0
   25.1914  -21.1757  -12.5702 C   0  0  1  0  0  0  0  0  0  0  0  0
   25.7295  -20.1697  -11.6392 C   0  0  0  0  0  0  0  0  0  0  0  0
   26.9499  -20.5374  -10.8995 C   0  0  0  0  0  0  0  0  0  0  0  0
   28.1437  -21.0718  -11.3845 C   0  0  0  0  0  0  0  0  0  0  0  0
   29.0173  -21.3091  -10.4174 N   0  0  0  0  0  0  0  0  0  0  0  0
   28.4388  -20.9396   -9.2353 C   0  0  0  0  0  0  0  0  0  0  0  0
   28.9188  -20.9712   -7.9200 C   0  0  0  0  0  0  0  0  0  0  0  0
   28.0572  -20.5076   -6.9511 C   0  0  0  0  0  0  0  0  0  0  0  0
   26.7948  -20.0320   -7.2064 C   0  0  0  0  0  0  0  0  0  0  0  0
   26.3498  -20.0118   -8.5040 C   0  0  0  0  0  0  0  0  0  0  0  0
   27.1734  -20.4663   -9.5171 C   0  0  0  0  0  0  0  0  0  0  0  0
   23.7567  -21.0171  -12.8752 C   0  0  0  0  0  0  0  0  0  0  0  0
   23.3749  -20.6735  -14.0520 O   0  0  0  0  0  0  0  0  0  0  0  0
   20.5027  -23.5259   -9.7500 N   0  0  0  0  0  0  0  0  0  0  0  0
   20.3431  -22.8251  -10.9899 C   0  0  0  0  0  0  0  0  0  0  0  0
   20.0678  -23.5079  -12.0075 O   0  0  0  0  0  0  0  0  0  0  0  0
   20.4797  -21.3732  -11.1332 C   0  0  0  0  0  0  0  0  0  0  0  0
   21.2918  -21.0228  -12.4015 C   0  0  2  0  0  0  0  0  0  0  0  0
   22.6730  -21.2140  -11.9720 N   0  0  0  0  0  0  0  0  0  0  0  0
   21.0804  -19.6093  -12.7542 C   0  0  0  0  0  0  0  0  0  0  0  0
   20.3332  -19.2943  -13.6995 O   0  0  0  0  0  0  0  0  0  0  0  0
   21.7300  -18.6016  -12.0162 O   0  0  0  0  0  0  0  0  0  0  0  0
  2  3  1  0
  2  1  1  1
  4  2  1  0
  5  4  2  0
  6  4  1  0
  7  6  1  0
  8  9  1  0
  7  8  1  1
  9 10  2  0
 11 10  1  0
 12 11  1  0
 13 12  2  0
 14 13  1  0
 15 14  2  0
 15 16  1  0
 16 17  2  0
 17 12  1  0
 17  9  1  0
 18  7  1  0
 18 19  2  0
 21 20  1  0
 22 21  2  0
 23 21  1  0
 24 23  1  1
 24 25  1  0
 25 18  1  0
 26 24  1  0
 27 26  2  0
 28 26  1  0
M  END
$$$$
