AWN.pdb
     RDKit          3D

 28 29  0  0  1  0  0  0  0  0999 V2000
   27.2865  -20.4446  -16.0818 C   0  0  0  0  0  0  0  0  0  0  0  0
   27.9452  -21.5407  -15.2692 C   0  0  2  0  0  0  0  0  0  0  0  0
   27.8679  -22.7680  -16.0233 N   0  0  0  0  0  0  0  0  0  0  0  0
   27.2142  -21.7022  -13.9804 C   0  0  0  0  0  0  0  0  0  0  0  0
   26.0936  -22.2337  -13.9502 O   0  0  0  0  0  0  0  0  0  0  0  0
   27.7327  -21.2739  -12.7427 N   0  0  0  0  0  0  0  0  0  0  0  0
   27.0597  -21.3580  -11.4657 C   0  0  1  0  0  0  0  0  0  0  0  0
   27.8811  -20.9567  -10.3113 C   0  0  0  0  0  0  0  0  0  0  0  0
   27.1631  -20.6561   -9.0599 C   0  0  0  0  0  0  0  0  0  0  0  0
   25.8033  -20.4139   -8.8637 C   0  0  0  0  0  0  0  0  0  0  0  0
   25.5188  -20.1438   -7.5984 N   0  0  0  0  0  0  0  0  0  0  0  0
   26.6867  -20.1951   -6.8900 C   0  0  0  0  0  0  0  0  0  0  0  0
   26.9534  -19.9990   -5.5291 C   0  0  0  0  0  0  0  0  0  0  0  0
   28.2686  -20.1362   -5.1453 C   0  0  0  0  0  0  0  0  0  0  0  0
   29.2936  -20.4461   -6.0046 C   0  0  0  0  0  0  0  0  0  0  0  0
   29.0044  -20.6334   -7.3325 C   0  0  0  0  0  0  0  0  0  0  0  0
   27.7001  -20.5072   -7.7732 C   0  0  0  0  0  0  0  0  0  0  0  0
   25.8146  -20.5830  -11.6257 C   0  0  0  0  0  0  0  0  0  0  0  0
   25.8582  -19.3260  -11.8844 O   0  0  0  0  0  0  0  0  0  0  0  0
   23.0869  -22.3934  -13.4643 N   0  0  0  0  0  0  0  0  0  0  0  0
   23.1981  -21.0727  -14.0094 C   0  0  0  0  0  0  0  0  0  0  0  0
   23.1435  -20.9575  -15.2589 O   0  0  0  0  0  0  0  0  0  0  0  0
   23.3678  -19.8639  -13.1986 C   0  0  0  0  0  0  0  0  0  0  0  0
   23.3338  -20.2071  -11.6914 C   0  0  2  0  0  0  0  0  0  0  0  0
   24.4860  -21.0870  -11.5273 N   0  0  0  0  0  0  0  0  0  0  0  0
   22.1023  -20.9499  -11.3768 C   0  0  0  0  0  0  0  0  0  0  0  0
   21.0008  -20.3699  -11.3421 O   0  0  0  0  0  0  0  0  0  0  0  0
   22.1693  -22.3308  -11.1112 O   0  0  0  0  0  0  0  0  0  0  0  0
  2  3  1  0
  2  1  1  6
  4  2  1  0
  5  4  2  0
  6  4  1  0
  7  6  1  0
  8  9  1  0
  7  8  1  1
  9 10  2  0
 11 10  1  0
 12 11  1  0
 13 12  2  0
 14 13  1  0
 15 14  2  0
 15 16  1  0
 16 17  2  0
 17 12  1  0
 17  9  1  0
 18  7  1  0
 18 19  2  0
 21 20  1  0
 22 21  2  0
 23 21  1  0
 24 23  1  6
 24 25  1  0
 25 18  1  0
 26 24  1  0
 27 26  2  0
 28 26  1  0
M  END
$$$$
