AWN.pdb
     RDKit          3D

 28 29  0  0  1  0  0  0  0  0999 V2000
   27.5423  -19.8805  -15.1191 C   0  0  0  0  0  0  0  0  0  0  0  0
   28.1213  -21.0464  -14.3437 C   0  0  2  0  0  0  0  0  0  0  0  0
   28.0225  -22.2272  -15.1665 N   0  0  0  0  0  0  0  0  0  0  0  0
   27.3331  -21.2438  -13.0942 C   0  0  0  0  0  0  0  0  0  0  0  0
   26.2507  -21.8498  -13.1173 O   0  0  0  0  0  0  0  0  0  0  0  0
   27.7530  -20.7686  -11.8364 N   0  0  0  0  0  0  0  0  0  0  0  0
   27.0386  -20.9237  -10.5888 C   0  0  1  0  0  0  0  0  0  0  0  0
   27.7851  -20.4901   -9.3960 C   0  0  0  0  0  0  0  0  0  0  0  0
   27.0541  -20.5018   -8.1164 C   0  0  0  0  0  0  0  0  0  0  0  0
   25.7383  -20.8880   -7.8599 C   0  0  0  0  0  0  0  0  0  0  0  0
   25.4084  -20.7324   -6.5864 N   0  0  0  0  0  0  0  0  0  0  0  0
   26.4996  -20.2314   -5.9330 C   0  0  0  0  0  0  0  0  0  0  0  0
   26.6984  -19.8916   -4.5889 C   0  0  0  0  0  0  0  0  0  0  0  0
   27.9480  -19.4122   -4.2654 C   0  0  0  0  0  0  0  0  0  0  0  0
   28.9714  -19.2583   -5.1675 C   0  0  0  0  0  0  0  0  0  0  0  0
   28.7497  -19.5992   -6.4778 C   0  0  0  0  0  0  0  0  0  0  0  0
   27.5127  -20.0855   -6.8585 C   0  0  0  0  0  0  0  0  0  0  0  0
   25.7501  -20.2324  -10.7852 C   0  0  0  0  0  0  0  0  0  0  0  0
   25.7199  -18.9913  -11.1131 O   0  0  0  0  0  0  0  0  0  0  0  0
   22.8081  -18.4088  -14.3559 N   0  0  0  0  0  0  0  0  0  0  0  0
   22.4493  -19.3983  -13.3832 C   0  0  0  0  0  0  0  0  0  0  0  0
   21.2289  -19.5301  -13.1171 O   0  0  0  0  0  0  0  0  0  0  0  0
   23.4161  -20.2554  -12.6920 C   0  0  0  0  0  0  0  0  0  0  0  0
   23.2707  -20.1183  -11.1588 C   0  0  2  0  0  0  0  0  0  0  0  0
   24.4533  -20.8065  -10.6524 N   0  0  0  0  0  0  0  0  0  0  0  0
   22.0617  -20.8266  -10.7073 C   0  0  0  0  0  0  0  0  0  0  0  0
   20.9756  -20.2267  -10.6001 O   0  0  0  0  0  0  0  0  0  0  0  0
   22.1329  -22.1969  -10.3923 O   0  0  0  0  0  0  0  0  0  0  0  0
  2  3  1  0
  2  1  1  6
  4  2  1  0
  5  4  2  0
  6  4  1  0
  7  6  1  0
  8  9  1  0
  7  8  1  1
  9 10  2  0
 11 10  1  0
 12 11  1  0
 13 12  2  0
 14 13  1  0
 15 14  2  0
 15 16  1  0
 16 17  2  0
 17 12  1  0
 17  9  1  0
 18  7  1  0
 18 19  2  0
 21 20  1  0
 22 21  2  0
 23 21  1  0
 24 23  1  6
 24 25  1  0
 25 18  1  0
 26 24  1  0
 27 26  2  0
 28 26  1  0
M  END
$$$$
