AWN.pdb
     RDKit          3D

 28 29  0  0  1  0  0  0  0  0999 V2000
   27.8694  -20.0511  -15.8069 C   0  0  0  0  0  0  0  0  0  0  0  0
   28.6687  -21.0101  -14.9483 C   0  0  2  0  0  0  0  0  0  0  0  0
   28.8783  -22.2216  -15.7028 N   0  0  0  0  0  0  0  0  0  0  0  0
   27.8964  -21.3215  -13.7122 C   0  0  0  0  0  0  0  0  0  0  0  0
   26.9562  -22.1305  -13.7398 O   0  0  0  0  0  0  0  0  0  0  0  0
   28.1748  -20.7342  -12.4624 N   0  0  0  0  0  0  0  0  0  0  0  0
   27.4654  -20.9883  -11.2283 C   0  0  1  0  0  0  0  0  0  0  0  0
   28.1459  -20.4999  -10.0173 C   0  0  0  0  0  0  0  0  0  0  0  0
   27.3797  -20.5535   -8.7596 C   0  0  0  0  0  0  0  0  0  0  0  0
   26.0386  -20.8824   -8.5613 C   0  0  0  0  0  0  0  0  0  0  0  0
   25.6819  -20.7909   -7.2888 N   0  0  0  0  0  0  0  0  0  0  0  0
   26.7794  -20.3938   -6.5774 C   0  0  0  0  0  0  0  0  0  0  0  0
   26.9583  -20.1526   -5.2094 C   0  0  0  0  0  0  0  0  0  0  0  0
   28.2222  -19.7645   -4.8246 C   0  0  0  0  0  0  0  0  0  0  0  0
   29.2773  -19.6096   -5.6894 C   0  0  0  0  0  0  0  0  0  0  0  0
   29.0745  -19.8529   -7.0242 C   0  0  0  0  0  0  0  0  0  0  0  0
   27.8245  -20.2448   -7.4662 C   0  0  0  0  0  0  0  0  0  0  0  0
   26.1128  -20.4353  -11.4314 C   0  0  0  0  0  0  0  0  0  0  0  0
   25.9571  -19.2310  -11.8489 O   0  0  0  0  0  0  0  0  0  0  0  0
   21.6950  -20.8218  -14.5611 N   0  0  0  0  0  0  0  0  0  0  0  0
   21.8896  -21.5025  -13.3151 C   0  0  0  0  0  0  0  0  0  0  0  0
   20.8635  -21.8852  -12.7001 O   0  0  0  0  0  0  0  0  0  0  0  0
   23.2040  -21.7751  -12.7276 C   0  0  0  0  0  0  0  0  0  0  0  0
   23.6361  -20.6205  -11.7944 C   0  0  2  0  0  0  0  0  0  0  0  0
   24.8798  -21.1142  -11.2129 N   0  0  0  0  0  0  0  0  0  0  0  0
   22.6361  -20.4394  -10.7293 C   0  0  0  0  0  0  0  0  0  0  0  0
   22.6554  -21.1550   -9.7101 O   0  0  0  0  0  0  0  0  0  0  0  0
   21.6461  -19.4475  -10.8634 O   0  0  0  0  0  0  0  0  0  0  0  0
  2  3  1  0
  2  1  1  6
  4  2  1  0
  5  4  2  0
  6  4  1  0
  7  6  1  0
  8  9  1  0
  7  8  1  1
  9 10  2  0
 11 10  1  0
 12 11  1  0
 13 12  2  0
 14 13  1  0
 15 14  2  0
 15 16  1  0
 16 17  2  0
 17 12  1  0
 17  9  1  0
 18  7  1  0
 18 19  2  0
 21 20  1  0
 22 21  2  0
 23 21  1  0
 24 23  1  6
 24 25  1  0
 25 18  1  0
 26 24  1  0
 27 26  2  0
 28 26  1  0
M  END
$$$$
