AWN.pdb
     RDKit          3D

 28 29  0  0  1  0  0  0  0  0999 V2000
   28.3125  -19.1203  -20.5512 C   0  0  0  0  0  0  0  0  0  0  0  0
   27.6250  -18.4417  -19.3839 C   0  0  2  0  0  0  0  0  0  0  0  0
   28.2619  -17.1658  -19.1667 N   0  0  0  0  0  0  0  0  0  0  0  0
   27.7777  -19.2873  -18.1661 C   0  0  0  0  0  0  0  0  0  0  0  0
   28.5932  -20.2220  -18.1423 O   0  0  0  0  0  0  0  0  0  0  0  0
   27.0267  -19.0873  -16.9913 N   0  0  0  0  0  0  0  0  0  0  0  0
   27.1707  -19.8249  -15.7559 C   0  0  1  0  0  0  0  0  0  0  0  0
   27.0423  -19.0102  -14.5360 C   0  0  0  0  0  0  0  0  0  0  0  0
   26.9616  -19.7395  -13.2579 C   0  0  0  0  0  0  0  0  0  0  0  0
   27.9505  -20.4710  -12.6000 C   0  0  0  0  0  0  0  0  0  0  0  0
   27.5062  -21.0225  -11.4804 N   0  0  0  0  0  0  0  0  0  0  0  0
   26.1903  -20.6791  -11.3422 C   0  0  0  0  0  0  0  0  0  0  0  0
   25.2536  -20.9844  -10.3467 C   0  0  0  0  0  0  0  0  0  0  0  0
   23.9932  -20.4582  -10.5214 C   0  0  0  0  0  0  0  0  0  0  0  0
   23.6261  -19.6755  -11.5880 C   0  0  0  0  0  0  0  0  0  0  0  0
   24.5636  -19.3915  -12.5485 C   0  0  0  0  0  0  0  0  0  0  0  0
   25.8453  -19.8946  -12.4238 C   0  0  0  0  0  0  0  0  0  0  0  0
   26.2075  -20.9385  -15.8484 C   0  0  0  0  0  0  0  0  0  0  0  0
   25.0476  -20.7552  -16.3679 O   0  0  0  0  0  0  0  0  0  0  0  0
   23.8758  -25.6288  -16.0694 N   0  0  0  0  0  0  0  0  0  0  0  0
   25.2946  -25.7440  -15.9027 C   0  0  0  0  0  0  0  0  0  0  0  0
   25.7917  -26.8957  -15.9668 O   0  0  0  0  0  0  0  0  0  0  0  0
   26.1863  -24.6055  -15.6664 C   0  0  0  0  0  0  0  0  0  0  0  0
   25.3792  -23.2907  -15.5634 C   0  0  2  0  0  0  0  0  0  0  0  0
   26.4177  -22.2774  -15.4100 N   0  0  0  0  0  0  0  0  0  0  0  0
   24.5379  -23.3155  -14.3556 C   0  0  0  0  0  0  0  0  0  0  0  0
   25.0433  -23.1818  -13.2253 O   0  0  0  0  0  0  0  0  0  0  0  0
   23.1467  -23.4931  -14.4782 O   0  0  0  0  0  0  0  0  0  0  0  0
  2  3  1  0
  2  1  1  6
  4  2  1  0
  5  4  2  0
  6  4  1  0
  7  6  1  0
  8  9  1  0
  7  8  1  1
  9 10  2  0
 11 10  1  0
 12 11  1  0
 13 12  2  0
 14 13  1  0
 15 14  2  0
 15 16  1  0
 16 17  2  0
 17 12  1  0
 17  9  1  0
 18  7  1  0
 18 19  2  0
 21 20  1  0
 22 21  2  0
 23 21  1  0
 24 23  1  1
 24 25  1  0
 25 18  1  0
 26 24  1  0
 27 26  2  0
 28 26  1  0
M  END
$$$$
