AWN.pdb
     RDKit          3D

 28 29  0  0  1  0  0  0  0  0999 V2000
   20.5806  -14.1928  -17.1529 C   0  0  0  0  0  0  0  0  0  0  0  0
   19.8590  -12.8972  -17.4638 C   0  0  2  0  0  0  0  0  0  0  0  0
   19.7493  -12.7762  -18.8970 N   0  0  0  0  0  0  0  0  0  0  0  0
   20.6509  -11.7541  -16.9274 C   0  0  0  0  0  0  0  0  0  0  0  0
   20.8879  -11.6623  -15.7131 O   0  0  0  0  0  0  0  0  0  0  0  0
   21.1702  -10.7286  -17.7416 N   0  0  0  0  0  0  0  0  0  0  0  0
   21.9902   -9.6242  -17.2959 C   0  0  1  0  0  0  0  0  0  0  0  0
   23.2444   -9.4486  -18.0471 C   0  0  0  0  0  0  0  0  0  0  0  0
   24.3125  -10.4316  -17.7922 C   0  0  0  0  0  0  0  0  0  0  0  0
   24.6424  -11.5778  -18.5158 C   0  0  0  0  0  0  0  0  0  0  0  0
   25.6477  -12.2449  -17.9689 N   0  0  0  0  0  0  0  0  0  0  0  0
   26.0352  -11.5662  -16.8473 C   0  0  0  0  0  0  0  0  0  0  0  0
   27.0441  -11.8249  -15.9111 C   0  0  0  0  0  0  0  0  0  0  0  0
   27.1664  -10.9126  -14.8870 C   0  0  0  0  0  0  0  0  0  0  0  0
   26.3735   -9.8005  -14.7473 C   0  0  0  0  0  0  0  0  0  0  0  0
   25.3930   -9.5708  -15.6789 C   0  0  0  0  0  0  0  0  0  0  0  0
   25.2253  -10.4552  -16.7282 C   0  0  0  0  0  0  0  0  0  0  0  0
   21.1029   -8.4456  -17.3086 C   0  0  0  0  0  0  0  0  0  0  0  0
   20.6018   -8.0192  -18.4112 O   0  0  0  0  0  0  0  0  0  0  0  0
   16.7591   -5.3590  -14.9054 N   0  0  0  0  0  0  0  0  0  0  0  0
   18.1914   -5.3097  -14.9118 C   0  0  0  0  0  0  0  0  0  0  0  0
   18.7303   -4.1772  -14.8438 O   0  0  0  0  0  0  0  0  0  0  0  0
   19.0511   -6.4938  -14.9903 C   0  0  0  0  0  0  0  0  0  0  0  0
   19.8244   -6.5205  -16.3290 C   0  0  2  0  0  0  0  0  0  0  0  0
   20.7036   -7.6751  -16.1791 N   0  0  0  0  0  0  0  0  0  0  0  0
   20.6374   -5.3002  -16.4597 C   0  0  0  0  0  0  0  0  0  0  0  0
   20.2051   -4.3112  -17.0811 O   0  0  0  0  0  0  0  0  0  0  0  0
   21.9180   -5.2496  -15.8770 O   0  0  0  0  0  0  0  0  0  0  0  0
  2  3  1  0
  2  1  1  6
  4  2  1  0
  5  4  2  0
  6  4  1  0
  7  6  1  0
  8  9  1  0
  7  8  1  6
  9 10  2  0
 11 10  1  0
 12 11  1  0
 13 12  2  0
 14 13  1  0
 15 14  2  0
 15 16  1  0
 16 17  2  0
 17 12  1  0
 17  9  1  0
 18  7  1  0
 18 19  2  0
 21 20  1  0
 22 21  2  0
 23 21  1  0
 24 23  1  1
 24 25  1  0
 25 18  1  0
 26 24  1  0
 27 26  2  0
 28 26  1  0
M  END
$$$$
