ANN.pdb
     RDKit          3D

 22 21  0  0  1  0  0  0  0  0999 V2000
   11.0266  -16.2085   15.8798 C   0  0  0  0  0  0  0  0  0  0  0  0
   10.8223  -16.8391   17.2403 C   0  0  2  0  0  0  0  0  0  0  0  0
    9.6418  -17.6686   17.2226 N   0  0  0  0  0  0  0  0  0  0  0  0
   10.6905  -15.7173   18.2180 C   0  0  0  0  0  0  0  0  0  0  0  0
   11.6375  -14.9004   18.3063 O   0  0  0  0  0  0  0  0  0  0  0  0
    7.2342  -12.2578   18.5029 N   0  0  0  0  0  0  0  0  0  0  0  0
    7.3883  -13.6376   18.8070 C   0  0  0  0  0  0  0  0  0  0  0  0
    7.0204  -14.4645   17.9330 O   0  0  0  0  0  0  0  0  0  0  0  0
    7.9498  -14.1131   20.0807 C   0  0  0  0  0  0  0  0  0  0  0  0
    9.3944  -14.4751   19.9976 C   0  0  2  0  0  0  0  0  0  0  0  0
    9.5602  -15.5374   19.0382 N   0  0  0  0  0  0  0  0  0  0  0  0
    9.8874  -15.0024   21.3134 C   0  0  0  0  0  0  0  0  0  0  0  0
    9.7399  -14.3248   22.3720 O   0  0  0  0  0  0  0  0  0  0  0  0
   11.7717  -19.8412   24.3371 N   0  0  0  0  0  0  0  0  0  0  0  0
   11.1083  -18.5985   24.3186 C   0  0  0  0  0  0  0  0  0  0  0  0
   11.0290  -17.9553   25.3908 O   0  0  0  0  0  0  0  0  0  0  0  0
   10.5223  -18.0515   23.1031 C   0  0  0  0  0  0  0  0  0  0  0  0
   11.1380  -16.7490   22.6573 C   0  0  2  0  0  0  0  0  0  0  0  0
   10.5284  -16.2564   21.4370 N   0  0  0  0  0  0  0  0  0  0  0  0
   12.6079  -16.8236   22.5436 C   0  0  0  0  0  0  0  0  0  0  0  0
   13.3263  -16.6209   23.5489 O   0  0  0  0  0  0  0  0  0  0  0  0
   13.2363  -17.1134   21.3491 O   0  0  0  0  0  0  0  0  0  0  0  0
  2  1  1  6
  2  4  1  0
  2  3  1  0
  4 11  1  0
  5  4  2  0
  7  6  1  0
  7  8  2  0
  9  7  1  0
 10  9  1  1
 10 12  1  0
 11 10  1  0
 12 19  1  0
 12 13  2  0
 15 14  1  0
 15 17  1  0
 16 15  2  0
 18 17  1  6
 18 20  1  0
 19 18  1  0
 20 22  1  0
 21 20  2  0
M  END
$$$$
