ANN.pdb
     RDKit          3D

 22 21  0  0  1  0  0  0  0  0999 V2000
    6.9967  -13.7485   19.0461 C   0  0  0  0  0  0  0  0  0  0  0  0
    8.3603  -13.0921   19.0509 C   0  0  2  0  0  0  0  0  0  0  0  0
    8.5634  -12.3773   17.8140 N   0  0  0  0  0  0  0  0  0  0  0  0
    9.3628  -14.1862   19.2237 C   0  0  0  0  0  0  0  0  0  0  0  0
    9.0752  -15.1299   19.9974 O   0  0  0  0  0  0  0  0  0  0  0  0
   10.6220  -16.1223   16.1057 N   0  0  0  0  0  0  0  0  0  0  0  0
   11.9361  -15.5916   16.2150 C   0  0  0  0  0  0  0  0  0  0  0  0
   12.6078  -15.4944   15.1556 O   0  0  0  0  0  0  0  0  0  0  0  0
   12.5171  -15.1652   17.4972 C   0  0  0  0  0  0  0  0  0  0  0  0
   11.5711  -15.2719   18.6456 C   0  0  2  0  0  0  0  0  0  0  0  0
   10.6057  -14.2054   18.5623 N   0  0  0  0  0  0  0  0  0  0  0  0
   12.2945  -15.0971   19.9489 C   0  0  0  0  0  0  0  0  0  0  0  0
   13.2416  -14.2638   20.0503 O   0  0  0  0  0  0  0  0  0  0  0  0
    9.7192  -14.6718   23.4330 N   0  0  0  0  0  0  0  0  0  0  0  0
   10.3162  -15.9410   23.2994 C   0  0  0  0  0  0  0  0  0  0  0  0
    9.5860  -16.9059   22.9751 O   0  0  0  0  0  0  0  0  0  0  0  0
   11.7386  -16.1552   23.5247 C   0  0  0  0  0  0  0  0  0  0  0  0
   12.6169  -15.6852   22.3925 C   0  0  2  0  0  0  0  0  0  0  0  0
   11.9635  -15.8378   21.1066 N   0  0  0  0  0  0  0  0  0  0  0  0
   13.9511  -16.3167   22.4070 C   0  0  0  0  0  0  0  0  0  0  0  0
   14.2931  -17.0826   21.4773 O   0  0  0  0  0  0  0  0  0  0  0  0
   14.8562  -16.0931   23.4250 O   0  0  0  0  0  0  0  0  0  0  0  0
  2  1  1  6
  2  4  1  0
  2  3  1  0
  4 11  1  0
  5  4  2  0
  7  6  1  0
  7  8  2  0
  9  7  1  0
 10  9  1  6
 10 12  1  0
 11 10  1  0
 12 19  1  0
 12 13  2  0
 15 14  1  0
 15 17  1  0
 16 15  2  0
 18 17  1  1
 18 20  1  0
 19 18  1  0
 20 22  1  0
 21 20  2  0
M  END
$$$$
