ANN.pdb
     RDKit          3D

 22 21  0  0  1  0  0  0  0  0999 V2000
    7.1959  -18.4970   17.4372 C   0  0  0  0  0  0  0  0  0  0  0  0
    7.9259  -18.4034   18.7595 C   0  0  2  0  0  0  0  0  0  0  0  0
    6.9789  -18.1890   19.8269 N   0  0  0  0  0  0  0  0  0  0  0  0
    8.8860  -17.2651   18.6404 C   0  0  0  0  0  0  0  0  0  0  0  0
    9.8632  -17.3991   17.8664 O   0  0  0  0  0  0  0  0  0  0  0  0
    6.6093  -13.0179   18.6942 N   0  0  0  0  0  0  0  0  0  0  0  0
    7.9139  -13.5022   18.4047 C   0  0  0  0  0  0  0  0  0  0  0  0
    8.1705  -13.7842   17.2057 O   0  0  0  0  0  0  0  0  0  0  0  0
    8.9440  -13.6790   19.4397 C   0  0  0  0  0  0  0  0  0  0  0  0
    9.6862  -14.9682   19.3285 C   0  0  2  0  0  0  0  0  0  0  0  0
    8.7442  -16.0584   19.3520 N   0  0  0  0  0  0  0  0  0  0  0  0
   10.5972  -15.1608   20.5054 C   0  0  0  0  0  0  0  0  0  0  0  0
   11.4906  -14.3050   20.7721 O   0  0  0  0  0  0  0  0  0  0  0  0
    8.4959  -16.2288   24.6607 N   0  0  0  0  0  0  0  0  0  0  0  0
    9.8749  -16.0857   24.4103 C   0  0  0  0  0  0  0  0  0  0  0  0
   10.4510  -15.0616   24.8449 O   0  0  0  0  0  0  0  0  0  0  0  0
   10.6353  -17.0834   23.6710 C   0  0  0  0  0  0  0  0  0  0  0  0
   11.3866  -16.5289   22.4868 C   0  0  2  0  0  0  0  0  0  0  0  0
   10.5076  -16.2838   21.3596 N   0  0  0  0  0  0  0  0  0  0  0  0
   12.5448  -17.3615   22.1069 C   0  0  0  0  0  0  0  0  0  0  0  0
   13.7042  -17.0013   22.4135 O   0  0  0  0  0  0  0  0  0  0  0  0
   12.3994  -18.5457   21.4125 O   0  0  0  0  0  0  0  0  0  0  0  0
  2  1  1  6
  2  4  1  0
  2  3  1  0
  4 11  1  0
  5  4  2  0
  7  6  1  0
  7  8  2  0
  9  7  1  0
 10  9  1  1
 10 12  1  0
 11 10  1  0
 12 19  1  0
 12 13  2  0
 15 14  1  0
 15 17  1  0
 16 15  2  0
 18 17  1  1
 18 20  1  0
 19 18  1  0
 20 22  1  0
 21 20  2  0
M  END
$$$$
