ANN.pdb
     RDKit          3D

 22 21  0  0  1  0  0  0  0  0999 V2000
   14.4199  -21.9081   16.4295 C   0  0  0  0  0  0  0  0  0  0  0  0
   13.6397  -21.0112   15.4931 C   0  0  2  0  0  0  0  0  0  0  0  0
   14.5370  -20.0929   14.8346 N   0  0  0  0  0  0  0  0  0  0  0  0
   12.6324  -20.2907   16.3285 C   0  0  0  0  0  0  0  0  0  0  0  0
   12.7953  -19.0617   16.5158 O   0  0  0  0  0  0  0  0  0  0  0  0
    7.1721  -21.1448   19.0529 N   0  0  0  0  0  0  0  0  0  0  0  0
    8.0653  -20.4304   18.2091 C   0  0  0  0  0  0  0  0  0  0  0  0
    7.8330  -19.2071   18.0289 O   0  0  0  0  0  0  0  0  0  0  0  0
    9.2218  -21.0643   17.5577 C   0  0  0  0  0  0  0  0  0  0  0  0
   10.4706  -20.2526   17.6381 C   0  0  2  0  0  0  0  0  0  0  0  0
   11.5175  -20.9240   16.9103 N   0  0  0  0  0  0  0  0  0  0  0  0
   10.9397  -20.1374   19.0590 C   0  0  0  0  0  0  0  0  0  0  0  0
   10.1560  -19.7222   19.9618 O   0  0  0  0  0  0  0  0  0  0  0  0
   12.0132  -23.9275   22.8772 N   0  0  0  0  0  0  0  0  0  0  0  0
   11.6044  -22.6711   22.3882 C   0  0  0  0  0  0  0  0  0  0  0  0
   11.1387  -21.8426   23.2045 O   0  0  0  0  0  0  0  0  0  0  0  0
   11.7086  -22.3170   20.9797 C   0  0  0  0  0  0  0  0  0  0  0  0
   12.5895  -21.1229   20.7107 C   0  0  2  0  0  0  0  0  0  0  0  0
   12.2531  -20.4790   19.4554 N   0  0  0  0  0  0  0  0  0  0  0  0
   14.0275  -21.4464   20.7918 C   0  0  0  0  0  0  0  0  0  0  0  0
   14.7111  -21.0298   21.7546 O   0  0  0  0  0  0  0  0  0  0  0  0
   14.6630  -22.2051   19.8295 O   0  0  0  0  0  0  0  0  0  0  0  0
  2  1  1  1
  2  4  1  0
  2  3  1  0
  4 11  1  0
  5  4  2  0
  7  6  1  0
  7  8  2  0
  9  7  1  0
 10  9  1  1
 10 12  1  0
 11 10  1  0
 12 19  1  0
 12 13  2  0
 15 14  1  0
 15 17  1  0
 16 15  2  0
 18 17  1  6
 18 20  1  0
 19 18  1  0
 20 22  1  0
 21 20  2  0
M  END
$$$$
