ANN.pdb
     RDKit          3D

 22 21  0  0  1  0  0  0  0  0999 V2000
    7.7868  -13.1674   16.0619 C   0  0  0  0  0  0  0  0  0  0  0  0
    8.6151  -14.2370   16.7401 C   0  0  2  0  0  0  0  0  0  0  0  0
    7.9518  -15.5136   16.6282 N   0  0  0  0  0  0  0  0  0  0  0  0
    8.7685  -13.8212   18.1668 C   0  0  0  0  0  0  0  0  0  0  0  0
    9.4545  -12.8005   18.4108 O   0  0  0  0  0  0  0  0  0  0  0  0
    6.5451  -16.6079   22.7922 N   0  0  0  0  0  0  0  0  0  0  0  0
    7.0142  -16.0407   21.5762 C   0  0  0  0  0  0  0  0  0  0  0  0
    7.4493  -16.8334   20.7013 O   0  0  0  0  0  0  0  0  0  0  0  0
    7.0064  -14.5924   21.3195 C   0  0  0  0  0  0  0  0  0  0  0  0
    8.2301  -14.1040   20.6203 C   0  0  2  0  0  0  0  0  0  0  0  0
    8.1823  -14.5178   19.2408 N   0  0  0  0  0  0  0  0  0  0  0  0
    9.4633  -14.7210   21.2125 C   0  0  0  0  0  0  0  0  0  0  0  0
    9.8422  -14.4057   22.3781 O   0  0  0  0  0  0  0  0  0  0  0  0
   13.3287  -14.3599   18.2790 N   0  0  0  0  0  0  0  0  0  0  0  0
   13.5137  -14.4592   19.6721 C   0  0  0  0  0  0  0  0  0  0  0  0
   14.6860  -14.5254   20.1090 O   0  0  0  0  0  0  0  0  0  0  0  0
   12.3936  -14.4856   20.6020 C   0  0  0  0  0  0  0  0  0  0  0  0
   11.6840  -15.8145   20.6705 C   0  0  2  0  0  0  0  0  0  0  0  0
   10.2496  -15.6664   20.5149 N   0  0  0  0  0  0  0  0  0  0  0  0
   12.0267  -16.5810   21.8846 C   0  0  0  0  0  0  0  0  0  0  0  0
   11.4808  -16.3037   22.9768 O   0  0  0  0  0  0  0  0  0  0  0  0
   12.9438  -17.6125   21.8650 O   0  0  0  0  0  0  0  0  0  0  0  0
  2  1  1  6
  2  4  1  0
  2  3  1  0
  4 11  1  0
  5  4  2  0
  7  6  1  0
  7  8  2  0
  9  7  1  0
 10  9  1  1
 10 12  1  0
 11 10  1  0
 12 19  1  0
 12 13  2  0
 15 14  1  0
 15 17  1  0
 16 15  2  0
 18 17  1  1
 18 20  1  0
 19 18  1  0
 20 22  1  0
 21 20  2  0
M  END
$$$$
