ANN.pdb
     RDKit          3D

 22 21  0  0  1  0  0  0  0  0999 V2000
    8.4974  -19.1875   16.9585 C   0  0  0  0  0  0  0  0  0  0  0  0
    8.1223  -17.9389   16.1900 C   0  0  2  0  0  0  0  0  0  0  0  0
    8.6192  -18.0288   14.8383 N   0  0  0  0  0  0  0  0  0  0  0  0
    8.7278  -16.7860   16.9221 C   0  0  0  0  0  0  0  0  0  0  0  0
    9.8604  -16.3892   16.5594 O   0  0  0  0  0  0  0  0  0  0  0  0
    8.1846  -11.7663   19.6138 N   0  0  0  0  0  0  0  0  0  0  0  0
    8.0000  -13.0804   20.1230 C   0  0  0  0  0  0  0  0  0  0  0  0
    8.2498  -13.2660   21.3421 O   0  0  0  0  0  0  0  0  0  0  0  0
    7.5384  -14.1992   19.2871 C   0  0  0  0  0  0  0  0  0  0  0  0
    8.6480  -15.0348   18.7432 C   0  0  2  0  0  0  0  0  0  0  0  0
    8.0892  -16.1302   17.9919 N   0  0  0  0  0  0  0  0  0  0  0  0
    9.4518  -15.6415   19.8559 C   0  0  0  0  0  0  0  0  0  0  0  0
    9.0798  -16.7212   20.4014 O   0  0  0  0  0  0  0  0  0  0  0  0
   13.8461  -13.7440   19.5162 N   0  0  0  0  0  0  0  0  0  0  0  0
   13.5153  -14.9480   20.1688 C   0  0  0  0  0  0  0  0  0  0  0  0
   13.8337  -16.0262   19.6159 O   0  0  0  0  0  0  0  0  0  0  0  0
   12.8240  -14.9697   21.4500 C   0  0  0  0  0  0  0  0  0  0  0  0
   11.4602  -15.6116   21.4007 C   0  0  2  0  0  0  0  0  0  0  0  0
   10.6409  -15.0519   20.3428 N   0  0  0  0  0  0  0  0  0  0  0  0
   10.7683  -15.5793   22.7042 C   0  0  0  0  0  0  0  0  0  0  0  0
    9.6194  -15.0894   22.7929 O   0  0  0  0  0  0  0  0  0  0  0  0
   11.3481  -16.0771   23.8537 O   0  0  0  0  0  0  0  0  0  0  0  0
  2  1  1  1
  2  4  1  0
  2  3  1  0
  4 11  1  0
  5  4  2  0
  7  6  1  0
  7  8  2  0
  9  7  1  0
 10  9  1  1
 10 12  1  0
 11 10  1  0
 12 19  1  0
 12 13  2  0
 15 14  1  0
 15 17  1  0
 16 15  2  0
 18 17  1  1
 18 20  1  0
 19 18  1  0
 20 22  1  0
 21 20  2  0
M  END
$$$$
