ANN.pdb
     RDKit          3D

 22 21  0  0  1  0  0  0  0  0999 V2000
    7.5886  -11.9656   26.9822 C   0  0  0  0  0  0  0  0  0  0  0  0
    6.3561  -12.1058   26.1153 C   0  0  2  0  0  0  0  0  0  0  0  0
    5.2376  -12.5327   26.9208 N   0  0  0  0  0  0  0  0  0  0  0  0
    6.6863  -13.1089   25.0586 C   0  0  0  0  0  0  0  0  0  0  0  0
    6.5733  -14.3240   25.3460 O   0  0  0  0  0  0  0  0  0  0  0  0
    8.0386  -13.3145   18.9611 N   0  0  0  0  0  0  0  0  0  0  0  0
    7.7297  -13.8120   20.2562 C   0  0  0  0  0  0  0  0  0  0  0  0
    7.5565  -15.0530   20.3702 O   0  0  0  0  0  0  0  0  0  0  0  0
    7.6093  -12.9402   21.4348 C   0  0  0  0  0  0  0  0  0  0  0  0
    7.4326  -13.6872   22.7138 C   0  0  2  0  0  0  0  0  0  0  0  0
    7.1149  -12.7544   23.7651 N   0  0  0  0  0  0  0  0  0  0  0  0
    8.7092  -14.3678   23.1132 C   0  0  0  0  0  0  0  0  0  0  0  0
    9.7086  -13.6879   23.4883 O   0  0  0  0  0  0  0  0  0  0  0  0
   11.1138  -18.7279   26.1783 N   0  0  0  0  0  0  0  0  0  0  0  0
   11.2366  -17.5761   25.3763 C   0  0  0  0  0  0  0  0  0  0  0  0
   12.3857  -17.2195   25.0270 O   0  0  0  0  0  0  0  0  0  0  0  0
   10.0792  -16.8026   24.9497 C   0  0  0  0  0  0  0  0  0  0  0  0
   10.0690  -16.4746   23.4777 C   0  0  2  0  0  0  0  0  0  0  0  0
    8.8595  -15.7733   23.0919 N   0  0  0  0  0  0  0  0  0  0  0  0
   10.3099  -17.6582   22.6291 C   0  0  0  0  0  0  0  0  0  0  0  0
   11.3977  -18.2737   22.7046 O   0  0  0  0  0  0  0  0  0  0  0  0
    9.3653  -18.1241   21.7367 O   0  0  0  0  0  0  0  0  0  0  0  0
  2  1  1  1
  2  4  1  0
  2  3  1  0
  4 11  1  0
  5  4  2  0
  7  6  1  0
  7  8  2  0
  9  7  1  0
 10  9  1  6
 10 12  1  0
 11 10  1  0
 12 19  1  0
 12 13  2  0
 15 14  1  0
 15 17  1  0
 16 15  2  0
 18 17  1  1
 18 20  1  0
 19 18  1  0
 20 22  1  0
 21 20  2  0
M  END
$$$$
