ANN.pdb
     RDKit          3D

 22 21  0  0  1  0  0  0  0  0999 V2000
    7.1972  -12.7689   19.4464 C   0  0  0  0  0  0  0  0  0  0  0  0
    8.4264  -13.3115   18.7501 C   0  0  2  0  0  0  0  0  0  0  0  0
    8.0755  -13.7761   17.4298 N   0  0  0  0  0  0  0  0  0  0  0  0
    8.9476  -14.4222   19.6025 C   0  0  0  0  0  0  0  0  0  0  0  0
    8.4779  -14.5458   20.7584 O   0  0  0  0  0  0  0  0  0  0  0  0
    9.7517  -19.6041   18.3024 N   0  0  0  0  0  0  0  0  0  0  0  0
    9.9492  -18.2011   18.1894 C   0  0  0  0  0  0  0  0  0  0  0  0
    9.2126  -17.5792   17.3810 O   0  0  0  0  0  0  0  0  0  0  0  0
   10.9636  -17.4758   18.9694 C   0  0  0  0  0  0  0  0  0  0  0  0
   10.3871  -16.4764   19.9148 C   0  0  2  0  0  0  0  0  0  0  0  0
    9.9341  -15.3290   19.1701 N   0  0  0  0  0  0  0  0  0  0  0  0
   11.4333  -15.9834   20.8712 C   0  0  0  0  0  0  0  0  0  0  0  0
   12.3854  -15.2569   20.4620 O   0  0  0  0  0  0  0  0  0  0  0  0
   11.9994  -17.9378   26.0328 N   0  0  0  0  0  0  0  0  0  0  0  0
   11.3613  -17.1776   25.0328 C   0  0  0  0  0  0  0  0  0  0  0  0
   10.3372  -17.6547   24.4915 O   0  0  0  0  0  0  0  0  0  0  0  0
   11.8548  -15.8714   24.6200 C   0  0  0  0  0  0  0  0  0  0  0  0
   12.3930  -15.8358   23.2117 C   0  0  2  0  0  0  0  0  0  0  0  0
   11.4111  -16.2976   22.2494 N   0  0  0  0  0  0  0  0  0  0  0  0
   13.6749  -16.5547   23.0738 C   0  0  0  0  0  0  0  0  0  0  0  0
   13.7274  -17.6257   22.4272 O   0  0  0  0  0  0  0  0  0  0  0  0
   14.8427  -16.0850   23.6406 O   0  0  0  0  0  0  0  0  0  0  0  0
  2  1  1  1
  2  4  1  0
  2  3  1  0
  4 11  1  0
  5  4  2  0
  7  6  1  0
  7  8  2  0
  9  7  1  0
 10  9  1  6
 10 12  1  0
 11 10  1  0
 12 19  1  0
 12 13  2  0
 15 14  1  0
 15 17  1  0
 16 15  2  0
 18 17  1  1
 18 20  1  0
 19 18  1  0
 20 22  1  0
 21 20  2  0
M  END
$$$$
