ANN.pdb
     RDKit          3D

 22 21  0  0  1  0  0  0  0  0999 V2000
    7.6129  -12.6486   19.1510 C   0  0  0  0  0  0  0  0  0  0  0  0
    8.6696  -13.4473   18.4192 C   0  0  2  0  0  0  0  0  0  0  0  0
    8.0799  -14.1128   17.2827 N   0  0  0  0  0  0  0  0  0  0  0  0
    9.2248  -14.4264   19.4015 C   0  0  0  0  0  0  0  0  0  0  0  0
    9.6471  -13.9851   20.4964 O   0  0  0  0  0  0  0  0  0  0  0  0
    7.0463  -18.2650   20.7449 N   0  0  0  0  0  0  0  0  0  0  0  0
    7.8766  -18.2603   19.5913 C   0  0  0  0  0  0  0  0  0  0  0  0
    7.3091  -18.3612   18.4729 O   0  0  0  0  0  0  0  0  0  0  0  0
    9.3410  -18.1447   19.6663 C   0  0  0  0  0  0  0  0  0  0  0  0
    9.8122  -16.7903   20.0771 C   0  0  2  0  0  0  0  0  0  0  0  0
    9.2946  -15.8110   19.1555 N   0  0  0  0  0  0  0  0  0  0  0  0
   11.3086  -16.7025   20.0033 C   0  0  0  0  0  0  0  0  0  0  0  0
   11.9465  -17.3488   19.1218 O   0  0  0  0  0  0  0  0  0  0  0  0
   14.5719  -15.2362   18.1092 N   0  0  0  0  0  0  0  0  0  0  0  0
   13.9700  -14.3966   19.0672 C   0  0  0  0  0  0  0  0  0  0  0  0
   13.2912  -13.4261   18.6587 O   0  0  0  0  0  0  0  0  0  0  0  0
   14.1148  -14.6257   20.4978 C   0  0  0  0  0  0  0  0  0  0  0  0
   13.5160  -15.9249   20.9748 C   0  0  2  0  0  0  0  0  0  0  0  0
   12.0678  -15.9105   20.8949 N   0  0  0  0  0  0  0  0  0  0  0  0
   13.9861  -16.3083   22.3205 C   0  0  0  0  0  0  0  0  0  0  0  0
   13.1703  -16.4102   23.2650 O   0  0  0  0  0  0  0  0  0  0  0  0
   15.3163  -16.5642   22.5863 O   0  0  0  0  0  0  0  0  0  0  0  0
  2  1  1  1
  2  4  1  0
  2  3  1  0
  4 11  1  0
  5  4  2  0
  7  6  1  0
  7  8  2  0
  9  7  1  0
 10  9  1  6
 10 12  1  0
 11 10  1  0
 12 19  1  0
 12 13  2  0
 15 14  1  0
 15 17  1  0
 16 15  2  0
 18 17  1  1
 18 20  1  0
 19 18  1  0
 20 22  1  0
 21 20  2  0
M  END
$$$$
