ANN.pdb
     RDKit          3D

 22 21  0  0  1  0  0  0  0  0999 V2000
    7.3470  -12.7937   19.1594 C   0  0  0  0  0  0  0  0  0  0  0  0
    8.7860  -13.0756   19.5337 C   0  0  2  0  0  0  0  0  0  0  0  0
    9.6440  -12.8257   18.4007 N   0  0  0  0  0  0  0  0  0  0  0  0
    8.8459  -14.5052   19.9630 C   0  0  0  0  0  0  0  0  0  0  0  0
    8.1465  -14.8542   20.9432 O   0  0  0  0  0  0  0  0  0  0  0  0
    9.5629  -20.2675   18.7769 N   0  0  0  0  0  0  0  0  0  0  0  0
    8.9779  -18.9740   18.8457 C   0  0  0  0  0  0  0  0  0  0  0  0
    7.7566  -18.9093   19.1409 O   0  0  0  0  0  0  0  0  0  0  0  0
    9.7395  -17.7423   18.5875 C   0  0  0  0  0  0  0  0  0  0  0  0
    9.8167  -16.8308   19.7656 C   0  0  2  0  0  0  0  0  0  0  0  0
    9.6456  -15.4706   19.3218 N   0  0  0  0  0  0  0  0  0  0  0  0
   11.1704  -16.9067   20.4092 C   0  0  0  0  0  0  0  0  0  0  0  0
   11.6603  -18.0248   20.7431 O   0  0  0  0  0  0  0  0  0  0  0  0
   13.8788  -13.5418   18.5938 N   0  0  0  0  0  0  0  0  0  0  0  0
   14.3099  -14.6303   19.3777 C   0  0  0  0  0  0  0  0  0  0  0  0
   14.8589  -15.5953   18.7972 O   0  0  0  0  0  0  0  0  0  0  0  0
   14.1365  -14.6605   20.8230 C   0  0  0  0  0  0  0  0  0  0  0  0
   13.2533  -15.7808   21.3118 C   0  0  2  0  0  0  0  0  0  0  0  0
   11.9525  -15.7584   20.6707 N   0  0  0  0  0  0  0  0  0  0  0  0
   13.1380  -15.8143   22.7831 C   0  0  0  0  0  0  0  0  0  0  0  0
   14.1686  -15.8672   23.4924 O   0  0  0  0  0  0  0  0  0  0  0  0
   11.9149  -15.7893   23.4227 O   0  0  0  0  0  0  0  0  0  0  0  0
  2  1  1  6
  2  4  1  0
  2  3  1  0
  4 11  1  0
  5  4  2  0
  7  6  1  0
  7  8  2  0
  9  7  1  0
 10  9  1  6
 10 12  1  0
 11 10  1  0
 12 19  1  0
 12 13  2  0
 15 14  1  0
 15 17  1  0
 16 15  2  0
 18 17  1  1
 18 20  1  0
 19 18  1  0
 20 22  1  0
 21 20  2  0
M  END
$$$$
