ANN.pdb
     RDKit          3D

 22 21  0  0  1  0  0  0  0  0999 V2000
    7.4996  -12.9667   19.8015 C   0  0  0  0  0  0  0  0  0  0  0  0
    7.9546  -14.1293   20.6568 C   0  0  2  0  0  0  0  0  0  0  0  0
    6.9428  -15.1581   20.6620 N   0  0  0  0  0  0  0  0  0  0  0  0
    8.1926  -13.5863   22.0280 C   0  0  0  0  0  0  0  0  0  0  0  0
    9.1977  -12.8582   22.2054 O   0  0  0  0  0  0  0  0  0  0  0  0
    7.7027  -12.3460   27.1010 N   0  0  0  0  0  0  0  0  0  0  0  0
    6.4453  -12.4521   26.4469 C   0  0  0  0  0  0  0  0  0  0  0  0
    5.4360  -12.0281   27.0671 O   0  0  0  0  0  0  0  0  0  0  0  0
    6.2948  -13.0289   25.1022 C   0  0  0  0  0  0  0  0  0  0  0  0
    7.5882  -13.4311   24.4775 C   0  0  2  0  0  0  0  0  0  0  0  0
    7.3462  -13.8530   23.1211 N   0  0  0  0  0  0  0  0  0  0  0  0
    8.1824  -14.6078   25.1949 C   0  0  0  0  0  0  0  0  0  0  0  0
    8.4742  -14.5295   26.4239 O   0  0  0  0  0  0  0  0  0  0  0  0
    6.1455  -17.3881   25.2143 N   0  0  0  0  0  0  0  0  0  0  0  0
    6.9503  -18.3659   24.5970 C   0  0  0  0  0  0  0  0  0  0  0  0
    6.3812  -19.3276   24.0306 O   0  0  0  0  0  0  0  0  0  0  0  0
    8.4042  -18.2871   24.6005 C   0  0  0  0  0  0  0  0  0  0  0  0
    8.9488  -17.0230   25.2164 C   0  0  2  0  0  0  0  0  0  0  0  0
    8.4417  -15.8388   24.5500 N   0  0  0  0  0  0  0  0  0  0  0  0
   10.4228  -17.0176   25.2959 C   0  0  0  0  0  0  0  0  0  0  0  0
   11.0876  -16.2431   24.5705 O   0  0  0  0  0  0  0  0  0  0  0  0
   11.1130  -17.8490   26.1548 O   0  0  0  0  0  0  0  0  0  0  0  0
  2  1  1  6
  2  4  1  0
  2  3  1  0
  4 11  1  0
  5  4  2  0
  7  6  1  0
  7  8  2  0
  9  7  1  0
 10  9  1  1
 10 12  1  0
 11 10  1  0
 12 19  1  0
 12 13  2  0
 15 14  1  0
 15 17  1  0
 16 15  2  0
 18 17  1  6
 18 20  1  0
 19 18  1  0
 20 22  1  0
 21 20  2  0
M  END
$$$$
