TGD.pdb
     RDKit          3D

 20 19  0  0  1  0  0  0  0  0999 V2000
    1.0823  -20.9721   19.1666 C   0  0  0  0  0  0  0  0  0  0  0  0
    1.5381  -19.8943   20.1130 C   0  0  1  0  0  0  0  0  0  0  0  0
    0.5276  -18.9712   20.3769 O   0  0  0  0  0  0  0  0  0  0  0  0
    2.0205  -20.4451   21.4342 C   0  0  2  0  0  0  0  0  0  0  0  0
    0.9040  -21.0219   22.1252 N   0  0  0  0  0  0  0  0  0  0  0  0
    2.6962  -19.3900   22.2391 C   0  0  0  0  0  0  0  0  0  0  0  0
    2.2322  -19.1331   23.3618 O   0  0  0  0  0  0  0  0  0  0  0  0
    3.8346  -18.6847   21.7661 N   0  0  0  0  0  0  0  0  0  0  0  0
    4.5660  -17.7656   22.6026 C   0  0  0  0  0  0  0  0  0  0  0  0
    5.8197  -18.3556   23.1194 C   0  0  0  0  0  0  0  0  0  0  0  0
    6.5934  -17.6306   23.7953 O   0  0  0  0  0  0  0  0  0  0  0  0
    6.2143  -19.6983   22.9034 N   0  0  0  0  0  0  0  0  0  0  0  0
    7.5119  -20.2224   23.3463 C   0  0  1  0  0  0  0  0  0  0  0  0
    7.3263  -21.2426   24.4361 C   0  0  0  0  0  0  0  0  0  0  0  0
    7.8421  -20.7055   25.7082 C   0  0  0  0  0  0  0  0  0  0  0  0
    8.8856  -20.0113   25.7422 O   0  0  0  0  0  0  0  0  0  0  0  0
    8.1284  -20.8731   22.1761 C   0  0  0  0  0  0  0  0  0  0  0  0
    7.3670  -21.4358   21.1806 O   0  0  0  0  0  0  0  0  0  0  0  0
    7.1984  -20.9454   26.9066 O   0  0  0  0  0  0  0  0  0  0  0  0
    9.3807  -20.9283   22.0625 O   0  0  0  0  0  0  0  0  0  0  0  0
  2  1  1  6
  3  2  1  0
  4  5  1  1
  4  2  1  0
  6  4  1  0
  7  6  2  0
  8  6  1  0
  9  8  1  0
  9 10  1  0
 10 11  2  0
 12 10  1  0
 12 13  1  0
 13 17  1  0
 13 14  1  1
 15 19  1  0
 15 14  1  0
 16 15  2  0
 17 18  1  0
 20 17  2  0
M  END
$$$$
