TGD.pdb
     RDKit          3D

 20 19  0  0  1  0  0  0  0  0999 V2000
    8.5112  -12.5683   19.4963 C   0  0  0  0  0  0  0  0  0  0  0  0
    7.5750  -13.1275   18.4590 C   0  0  1  0  0  0  0  0  0  0  0  0
    7.1576  -12.1528   17.5543 O   0  0  0  0  0  0  0  0  0  0  0  0
    8.1889  -14.2605   17.6707 C   0  0  2  0  0  0  0  0  0  0  0  0
    7.3264  -14.5711   16.5678 N   0  0  0  0  0  0  0  0  0  0  0  0
    8.4387  -15.4434   18.5401 C   0  0  0  0  0  0  0  0  0  0  0  0
    7.5043  -16.2431   18.7112 O   0  0  0  0  0  0  0  0  0  0  0  0
    9.6923  -15.6765   19.1655 N   0  0  0  0  0  0  0  0  0  0  0  0
    9.9373  -16.8449   19.9743 C   0  0  0  0  0  0  0  0  0  0  0  0
   11.3021  -16.8555   20.5434 C   0  0  0  0  0  0  0  0  0  0  0  0
   11.6232  -17.7887   21.3226 O   0  0  0  0  0  0  0  0  0  0  0  0
   12.2858  -15.8748   20.2678 N   0  0  0  0  0  0  0  0  0  0  0  0
   13.5984  -15.8647   20.9247 C   0  0  1  0  0  0  0  0  0  0  0  0
   14.3549  -14.6120   20.5758 C   0  0  0  0  0  0  0  0  0  0  0  0
   14.6955  -14.6242   19.1417 C   0  0  0  0  0  0  0  0  0  0  0  0
   14.4148  -15.6088   18.4180 O   0  0  0  0  0  0  0  0  0  0  0  0
   13.3463  -15.8873   22.3768 C   0  0  0  0  0  0  0  0  0  0  0  0
   12.1517  -15.4642   22.9072 O   0  0  0  0  0  0  0  0  0  0  0  0
   15.3343  -13.5560   18.5426 O   0  0  0  0  0  0  0  0  0  0  0  0
   14.2308  -16.2996   23.1719 O   0  0  0  0  0  0  0  0  0  0  0  0
  2  1  1  1
  3  2  1  0
  4  5  1  6
  4  2  1  0
  6  4  1  0
  7  6  2  0
  8  6  1  0
  9  8  1  0
  9 10  1  0
 10 11  2  0
 12 10  1  0
 12 13  1  0
 13 17  1  0
 13 14  1  1
 15 19  1  0
 15 14  1  0
 16 15  2  0
 17 18  1  0
 20 17  2  0
M  END
$$$$
