TGD.pdb
     RDKit          3D

 20 19  0  0  1  0  0  0  0  0999 V2000
    7.5534  -14.3623   20.9145 C   0  0  0  0  0  0  0  0  0  0  0  0
    7.2782  -13.9402   19.4963 C   0  0  1  0  0  0  0  0  0  0  0  0
    6.1628  -13.1089   19.4073 O   0  0  0  0  0  0  0  0  0  0  0  0
    8.4463  -13.2191   18.8661 C   0  0  2  0  0  0  0  0  0  0  0  0
    8.0284  -12.6881   17.6011 N   0  0  0  0  0  0  0  0  0  0  0  0
    9.6246  -14.1205   18.7363 C   0  0  0  0  0  0  0  0  0  0  0  0
    9.9474  -14.4897   17.5955 O   0  0  0  0  0  0  0  0  0  0  0  0
   10.3738  -14.5595   19.8600 N   0  0  0  0  0  0  0  0  0  0  0  0
   11.5535  -15.3768   19.7199 C   0  0  0  0  0  0  0  0  0  0  0  0
   12.2577  -15.5685   21.0061 C   0  0  0  0  0  0  0  0  0  0  0  0
   12.0960  -14.7149   21.9151 O   0  0  0  0  0  0  0  0  0  0  0  0
   13.1125  -16.6615   21.2889 N   0  0  0  0  0  0  0  0  0  0  0  0
   13.6928  -16.8886   22.6179 C   0  0  1  0  0  0  0  0  0  0  0  0
   14.1463  -18.3159   22.7603 C   0  0  0  0  0  0  0  0  0  0  0  0
   12.9745  -19.2101   22.7448 C   0  0  0  0  0  0  0  0  0  0  0  0
   12.2608  -19.3596   23.7647 O   0  0  0  0  0  0  0  0  0  0  0  0
   14.8619  -15.9976   22.7283 C   0  0  0  0  0  0  0  0  0  0  0  0
   15.4990  -15.7906   23.9278 O   0  0  0  0  0  0  0  0  0  0  0  0
   12.6194  -19.9146   21.6110 O   0  0  0  0  0  0  0  0  0  0  0  0
   15.3070  -15.3999   21.7140 O   0  0  0  0  0  0  0  0  0  0  0  0
  2  1  1  1
  3  2  1  0
  4  5  1  6
  4  2  1  0
  6  4  1  0
  7  6  2  0
  8  6  1  0
  9  8  1  0
  9 10  1  0
 10 11  2  0
 12 10  1  0
 12 13  1  0
 13 17  1  0
 13 14  1  6
 15 19  1  0
 15 14  1  0
 16 15  2  0
 17 18  1  0
 20 17  2  0
M  END
$$$$
