TGD.pdb
     RDKit          3D

 20 19  0  0  1  0  0  0  0  0999 V2000
    9.8110  -14.9354   17.9641 C   0  0  0  0  0  0  0  0  0  0  0  0
    8.7944  -13.8256   17.9703 C   0  0  1  0  0  0  0  0  0  0  0  0
    8.1334  -13.7178   16.7479 O   0  0  0  0  0  0  0  0  0  0  0  0
    7.7511  -13.9975   19.0490 C   0  0  2  0  0  0  0  0  0  0  0  0
    6.7051  -13.0407   18.8311 N   0  0  0  0  0  0  0  0  0  0  0  0
    8.3562  -13.8709   20.4038 C   0  0  0  0  0  0  0  0  0  0  0  0
    8.1976  -12.7989   21.0101 O   0  0  0  0  0  0  0  0  0  0  0  0
    9.0944  -14.9228   21.0084 N   0  0  0  0  0  0  0  0  0  0  0  0
    9.6375  -14.8083   22.3392 C   0  0  0  0  0  0  0  0  0  0  0  0
   10.5219  -15.9428   22.6824 C   0  0  0  0  0  0  0  0  0  0  0  0
   10.2305  -17.0868   22.2494 O   0  0  0  0  0  0  0  0  0  0  0  0
   11.6898  -15.8285   23.4750 N   0  0  0  0  0  0  0  0  0  0  0  0
   12.5257  -16.9838   23.8229 C   0  0  1  0  0  0  0  0  0  0  0  0
   13.8861  -16.5337   24.2809 C   0  0  0  0  0  0  0  0  0  0  0  0
   14.4849  -15.6548   23.2601 C   0  0  0  0  0  0  0  0  0  0  0  0
   14.4500  -15.9577   22.0440 O   0  0  0  0  0  0  0  0  0  0  0  0
   11.8486  -17.6786   24.9327 C   0  0  0  0  0  0  0  0  0  0  0  0
   10.7445  -17.1434   25.5507 O   0  0  0  0  0  0  0  0  0  0  0  0
   15.1047  -14.4688   23.6028 O   0  0  0  0  0  0  0  0  0  0  0  0
   12.2725  -18.7904   25.3432 O   0  0  0  0  0  0  0  0  0  0  0  0
  2  1  1  6
  3  2  1  0
  4  5  1  6
  4  2  1  0
  6  4  1  0
  7  6  2  0
  8  6  1  0
  9  8  1  0
  9 10  1  0
 10 11  2  0
 12 10  1  0
 12 13  1  0
 13 17  1  0
 13 14  1  1
 15 19  1  0
 15 14  1  0
 16 15  2  0
 17 18  1  0
 20 17  2  0
M  END
$$$$
