TGD.pdb
     RDKit          3D

 20 19  0  0  1  0  0  0  0  0999 V2000
   -4.4710  -19.3521   25.3380 C   0  0  0  0  0  0  0  0  0  0  0  0
   -4.1930  -19.9494   23.9848 C   0  0  1  0  0  0  0  0  0  0  0  0
   -3.1162  -19.3296   23.3530 O   0  0  0  0  0  0  0  0  0  0  0  0
   -3.9032  -21.4305   24.0502 C   0  0  2  0  0  0  0  0  0  0  0  0
   -3.5243  -21.8813   22.7426 N   0  0  0  0  0  0  0  0  0  0  0  0
   -5.0717  -22.1811   24.5876 C   0  0  0  0  0  0  0  0  0  0  0  0
   -5.9709  -22.4981   23.7920 O   0  0  0  0  0  0  0  0  0  0  0  0
   -5.1822  -22.5371   25.9580 N   0  0  0  0  0  0  0  0  0  0  0  0
   -6.3076  -23.2821   26.4656 C   0  0  0  0  0  0  0  0  0  0  0  0
   -6.1737  -23.5857   27.9067 C   0  0  0  0  0  0  0  0  0  0  0  0
   -5.1238  -23.2333   28.5022 O   0  0  0  0  0  0  0  0  0  0  0  0
   -7.1593  -24.2543   28.6729 N   0  0  0  0  0  0  0  0  0  0  0  0
   -6.9812  -24.5594   30.0976 C   0  0  1  0  0  0  0  0  0  0  0  0
   -8.2719  -25.0429   30.7004 C   0  0  0  0  0  0  0  0  0  0  0  0
   -9.2143  -23.9156   30.8189 C   0  0  0  0  0  0  0  0  0  0  0  0
   -8.8782  -22.7535   30.4894 O   0  0  0  0  0  0  0  0  0  0  0  0
   -5.9778  -25.6362   30.1787 C   0  0  0  0  0  0  0  0  0  0  0  0
   -5.1137  -25.7368   31.2421 O   0  0  0  0  0  0  0  0  0  0  0  0
  -10.4983  -24.0954   31.2954 O   0  0  0  0  0  0  0  0  0  0  0  0
   -5.8897  -26.4968   29.2645 O   0  0  0  0  0  0  0  0  0  0  0  0
  2  1  1  1
  3  2  1  0
  4  5  1  6
  4  2  1  0
  6  4  1  0
  7  6  2  0
  8  6  1  0
  9  8  1  0
  9 10  1  0
 10 11  2  0
 12 10  1  0
 12 13  1  0
 13 17  1  0
 13 14  1  6
 15 19  1  0
 15 14  1  0
 16 15  2  0
 17 18  1  0
 20 17  2  0
M  END
$$$$
