TGD.pdb
     RDKit          3D

 20 19  0  0  1  0  0  0  0  0999 V2000
    8.4156  -15.0521   18.5947 C   0  0  0  0  0  0  0  0  0  0  0  0
    8.6894  -13.9521   19.5849 C   0  0  1  0  0  0  0  0  0  0  0  0
    9.1004  -12.7771   18.9577 O   0  0  0  0  0  0  0  0  0  0  0  0
    7.4879  -13.6262   20.4404 C   0  0  2  0  0  0  0  0  0  0  0  0
    7.8406  -12.5673   21.3411 N   0  0  0  0  0  0  0  0  0  0  0  0
    6.9982  -14.8356   21.1581 C   0  0  0  0  0  0  0  0  0  0  0  0
    6.5580  -15.7747   20.4753 O   0  0  0  0  0  0  0  0  0  0  0  0
    7.0215  -14.9412   22.5742 N   0  0  0  0  0  0  0  0  0  0  0  0
    6.5290  -16.1093   23.2615 C   0  0  0  0  0  0  0  0  0  0  0  0
    7.5994  -16.8221   23.9915 C   0  0  0  0  0  0  0  0  0  0  0  0
    7.3046  -17.8682   24.6238 O   0  0  0  0  0  0  0  0  0  0  0  0
    8.9516  -16.4029   24.0279 N   0  0  0  0  0  0  0  0  0  0  0  0
    9.9943  -17.1558   24.7354 C   0  0  1  0  0  0  0  0  0  0  0  0
   11.3579  -16.7801   24.2231 C   0  0  0  0  0  0  0  0  0  0  0  0
   11.3958  -16.9385   22.7581 C   0  0  0  0  0  0  0  0  0  0  0  0
   11.6070  -18.0573   22.2331 O   0  0  0  0  0  0  0  0  0  0  0  0
    9.8943  -16.7843   26.1584 C   0  0  0  0  0  0  0  0  0  0  0  0
    9.2620  -15.6324   26.5593 O   0  0  0  0  0  0  0  0  0  0  0  0
   11.2009  -15.8650   21.9109 O   0  0  0  0  0  0  0  0  0  0  0  0
   10.3923  -17.5231   27.0475 O   0  0  0  0  0  0  0  0  0  0  0  0
  2  1  1  6
  3  2  1  0
  4  5  1  1
  4  2  1  0
  6  4  1  0
  7  6  2  0
  8  6  1  0
  9  8  1  0
  9 10  1  0
 10 11  2  0
 12 10  1  0
 12 13  1  0
 13 17  1  0
 13 14  1  6
 15 19  1  0
 15 14  1  0
 16 15  2  0
 17 18  1  0
 20 17  2  0
M  END
$$$$
