TGD.pdb
     RDKit          3D

 20 19  0  0  1  0  0  0  0  0999 V2000
    7.4428  -12.4164   19.0734 C   0  0  0  0  0  0  0  0  0  0  0  0
    7.6826  -13.4209   20.1682 C   0  0  1  0  0  0  0  0  0  0  0  0
    6.6068  -14.2943   20.3186 O   0  0  0  0  0  0  0  0  0  0  0  0
    8.9245  -14.2492   19.9370 C   0  0  2  0  0  0  0  0  0  0  0  0
    8.7855  -14.9449   18.6906 N   0  0  0  0  0  0  0  0  0  0  0  0
    9.1681  -15.1776   21.0755 C   0  0  0  0  0  0  0  0  0  0  0  0
    9.3008  -16.3852   20.8187 O   0  0  0  0  0  0  0  0  0  0  0  0
    9.2514  -14.7272   22.4198 N   0  0  0  0  0  0  0  0  0  0  0  0
    9.5445  -15.6248   23.5096 C   0  0  0  0  0  0  0  0  0  0  0  0
   10.8390  -16.3173   23.3317 C   0  0  0  0  0  0  0  0  0  0  0  0
   10.8768  -17.3500   22.6154 O   0  0  0  0  0  0  0  0  0  0  0  0
   12.0551  -15.8922   23.9196 N   0  0  0  0  0  0  0  0  0  0  0  0
   13.3017  -16.6580   23.7999 C   0  0  1  0  0  0  0  0  0  0  0  0
   14.4890  -15.7347   23.7715 C   0  0  0  0  0  0  0  0  0  0  0  0
   15.3895  -16.1224   22.6707 C   0  0  0  0  0  0  0  0  0  0  0  0
   15.1477  -17.1262   21.9594 O   0  0  0  0  0  0  0  0  0  0  0  0
   13.3877  -17.5178   24.9941 C   0  0  0  0  0  0  0  0  0  0  0  0
   12.8170  -17.1507   26.1887 O   0  0  0  0  0  0  0  0  0  0  0  0
   16.5294  -15.3977   22.3817 O   0  0  0  0  0  0  0  0  0  0  0  0
   13.9934  -18.6201   24.9447 O   0  0  0  0  0  0  0  0  0  0  0  0
  2  1  1  6
  3  2  1  0
  4  5  1  6
  4  2  1  0
  6  4  1  0
  7  6  2  0
  8  6  1  0
  9  8  1  0
  9 10  1  0
 10 11  2  0
 12 10  1  0
 12 13  1  0
 13 17  1  0
 13 14  1  1
 15 19  1  0
 15 14  1  0
 16 15  2  0
 17 18  1  0
 20 17  2  0
M  END
$$$$
