TGD.pdb
     RDKit          3D

 20 19  0  0  1  0  0  0  0  0999 V2000
    7.6882  -13.1705   17.9813 C   0  0  0  0  0  0  0  0  0  0  0  0
    8.5226  -13.7373   19.0983 C   0  0  1  0  0  0  0  0  0  0  0  0
    9.1982  -12.7410   19.8011 O   0  0  0  0  0  0  0  0  0  0  0  0
    7.7060  -14.5325   20.0895 C   0  0  2  0  0  0  0  0  0  0  0  0
    6.6893  -13.6800   20.6340 N   0  0  0  0  0  0  0  0  0  0  0  0
    8.5732  -15.1206   21.1477 C   0  0  0  0  0  0  0  0  0  0  0  0
    8.7546  -14.4572   22.1816 O   0  0  0  0  0  0  0  0  0  0  0  0
    9.1855  -16.3944   21.0084 N   0  0  0  0  0  0  0  0  0  0  0  0
    9.9540  -16.9932   22.0715 C   0  0  0  0  0  0  0  0  0  0  0  0
   11.3922  -17.0840   21.7398 C   0  0  0  0  0  0  0  0  0  0  0  0
   11.7802  -16.6657   20.6193 O   0  0  0  0  0  0  0  0  0  0  0  0
   12.3760  -17.6160   22.6085 N   0  0  0  0  0  0  0  0  0  0  0  0
   13.7879  -17.7359   22.2254 C   0  0  1  0  0  0  0  0  0  0  0  0
   14.6787  -17.2072   23.3162 C   0  0  0  0  0  0  0  0  0  0  0  0
   14.9010  -15.7638   23.1160 C   0  0  0  0  0  0  0  0  0  0  0  0
   14.3465  -15.1478   22.1752 O   0  0  0  0  0  0  0  0  0  0  0  0
   14.0560  -19.1732   22.0378 C   0  0  0  0  0  0  0  0  0  0  0  0
   13.5876  -20.1147   22.9219 O   0  0  0  0  0  0  0  0  0  0  0  0
   15.7252  -15.0376   23.9535 O   0  0  0  0  0  0  0  0  0  0  0  0
   14.7282  -19.5738   21.0519 O   0  0  0  0  0  0  0  0  0  0  0  0
  2  1  1  6
  3  2  1  0
  4  5  1  1
  4  2  1  0
  6  4  1  0
  7  6  2  0
  8  6  1  0
  9  8  1  0
  9 10  1  0
 10 11  2  0
 12 10  1  0
 12 13  1  0
 13 17  1  0
 13 14  1  1
 15 19  1  0
 15 14  1  0
 16 15  2  0
 17 18  1  0
 20 17  2  0
M  END
$$$$
