TGD.pdb
     RDKit          3D

 20 19  0  0  1  0  0  0  0  0999 V2000
   -6.2970  -19.7663   22.8486 C   0  0  0  0  0  0  0  0  0  0  0  0
   -5.1637  -20.0969   21.9150 C   0  0  1  0  0  0  0  0  0  0  0  0
   -5.2708  -19.4155   20.7038 O   0  0  0  0  0  0  0  0  0  0  0  0
   -3.8104  -19.7815   22.5073 C   0  0  2  0  0  0  0  0  0  0  0  0
   -2.8171  -19.9255   21.4828 N   0  0  0  0  0  0  0  0  0  0  0  0
   -3.5292  -20.6435   23.6887 C   0  0  0  0  0  0  0  0  0  0  0  0
   -3.1009  -21.7901   23.4791 O   0  0  0  0  0  0  0  0  0  0  0  0
   -3.7335  -20.1975   25.0215 N   0  0  0  0  0  0  0  0  0  0  0  0
   -3.4620  -21.0406   26.1594 C   0  0  0  0  0  0  0  0  0  0  0  0
   -4.6637  -21.7742   26.6118 C   0  0  0  0  0  0  0  0  0  0  0  0
   -5.7420  -21.6088   25.9866 O   0  0  0  0  0  0  0  0  0  0  0  0
   -4.6844  -22.6620   27.7149 N   0  0  0  0  0  0  0  0  0  0  0  0
   -5.8469  -23.4991   28.0347 C   0  0  1  0  0  0  0  0  0  0  0  0
   -5.4330  -24.6853   28.8622 C   0  0  0  0  0  0  0  0  0  0  0  0
   -4.6002  -25.5888   28.0479 C   0  0  0  0  0  0  0  0  0  0  0  0
   -4.9292  -25.8930   26.8769 O   0  0  0  0  0  0  0  0  0  0  0  0
   -6.7698  -22.6609   28.8211 C   0  0  0  0  0  0  0  0  0  0  0  0
   -8.0511  -23.0691   29.1028 O   0  0  0  0  0  0  0  0  0  0  0  0
   -3.4304  -26.1327   28.5416 O   0  0  0  0  0  0  0  0  0  0  0  0
   -6.3997  -21.5394   29.2566 O   0  0  0  0  0  0  0  0  0  0  0  0
  2  1  1  1
  3  2  1  0
  4  5  1  6
  4  2  1  0
  6  4  1  0
  7  6  2  0
  8  6  1  0
  9  8  1  0
  9 10  1  0
 10 11  2  0
 12 10  1  0
 12 13  1  0
 13 17  1  0
 13 14  1  1
 15 19  1  0
 15 14  1  0
 16 15  2  0
 17 18  1  0
 20 17  2  0
M  END
$$$$
