TGD.pdb
     RDKit          3D

 20 19  0  0  1  0  0  0  0  0999 V2000
    6.6786  -14.7009   21.0681 C   0  0  0  0  0  0  0  0  0  0  0  0
    6.9955  -15.7644   20.0514 C   0  0  1  0  0  0  0  0  0  0  0  0
    5.9801  -16.7148   19.9578 O   0  0  0  0  0  0  0  0  0  0  0  0
    7.2308  -15.1986   18.6707 C   0  0  2  0  0  0  0  0  0  0  0  0
    7.1554  -16.2683   17.7184 N   0  0  0  0  0  0  0  0  0  0  0  0
    8.5310  -14.4757   18.6032 C   0  0  0  0  0  0  0  0  0  0  0  0
    9.5309  -15.1166   18.2409 O   0  0  0  0  0  0  0  0  0  0  0  0
    8.6546  -13.1004   18.9350 N   0  0  0  0  0  0  0  0  0  0  0  0
    9.9194  -12.4105   18.8748 C   0  0  0  0  0  0  0  0  0  0  0  0
   10.9386  -13.0330   19.7470 C   0  0  0  0  0  0  0  0  0  0  0  0
   11.5763  -12.3013   20.5463 O   0  0  0  0  0  0  0  0  0  0  0  0
   11.2499  -14.4145   19.7447 N   0  0  0  0  0  0  0  0  0  0  0  0
   12.1188  -15.0312   20.7543 C   0  0  1  0  0  0  0  0  0  0  0  0
   11.3626  -16.0657   21.5423 C   0  0  0  0  0  0  0  0  0  0  0  0
   12.2760  -16.7290   22.4903 C   0  0  0  0  0  0  0  0  0  0  0  0
   13.4556  -17.0051   22.1673 O   0  0  0  0  0  0  0  0  0  0  0  0
   13.2173  -15.6890   20.0239 C   0  0  0  0  0  0  0  0  0  0  0  0
   13.2983  -15.6457   18.6531 O   0  0  0  0  0  0  0  0  0  0  0  0
   11.8691  -17.0705   23.7654 O   0  0  0  0  0  0  0  0  0  0  0  0
   14.1154  -16.3122   20.6477 O   0  0  0  0  0  0  0  0  0  0  0  0
  2  1  1  1
  3  2  1  0
  4  5  1  6
  4  2  1  0
  6  4  1  0
  7  6  2  0
  8  6  1  0
  9  8  1  0
  9 10  1  0
 10 11  2  0
 12 10  1  0
 12 13  1  0
 13 17  1  0
 13 14  1  6
 15 19  1  0
 15 14  1  0
 16 15  2  0
 17 18  1  0
 20 17  2  0
M  END
$$$$
