TGD.pdb
     RDKit          3D

 20 19  0  0  1  0  0  0  0  0999 V2000
    8.3674  -12.3523   19.7722 C   0  0  0  0  0  0  0  0  0  0  0  0
    7.4194  -13.4116   19.2778 C   0  0  1  0  0  0  0  0  0  0  0  0
    7.5837  -13.6635   17.9168 O   0  0  0  0  0  0  0  0  0  0  0  0
    7.5738  -14.7212   20.0145 C   0  0  2  0  0  0  0  0  0  0  0  0
    6.6711  -15.6777   19.4426 N   0  0  0  0  0  0  0  0  0  0  0  0
    7.3520  -14.5422   21.4762 C   0  0  0  0  0  0  0  0  0  0  0  0
    6.2953  -14.0002   21.8387 O   0  0  0  0  0  0  0  0  0  0  0  0
    8.2979  -14.9670   22.4466 N   0  0  0  0  0  0  0  0  0  0  0  0
    8.0976  -14.7453   23.8573 C   0  0  0  0  0  0  0  0  0  0  0  0
    9.1083  -15.4413   24.6824 C   0  0  0  0  0  0  0  0  0  0  0  0
    9.0675  -15.3009   25.9313 O   0  0  0  0  0  0  0  0  0  0  0  0
   10.1322  -16.2662   24.1566 N   0  0  0  0  0  0  0  0  0  0  0  0
   11.2448  -16.7643   24.9744 C   0  0  1  0  0  0  0  0  0  0  0  0
   11.1362  -18.2525   25.1652 C   0  0  0  0  0  0  0  0  0  0  0  0
   10.2935  -18.5394   26.3402 C   0  0  0  0  0  0  0  0  0  0  0  0
    9.7519  -17.6140   26.9899 O   0  0  0  0  0  0  0  0  0  0  0  0
   12.4835  -16.4619   24.2349 C   0  0  0  0  0  0  0  0  0  0  0  0
   13.7220  -16.6259   24.8066 O   0  0  0  0  0  0  0  0  0  0  0  0
   10.0692  -19.8333   26.7686 O   0  0  0  0  0  0  0  0  0  0  0  0
   12.4329  -16.0417   23.0495 O   0  0  0  0  0  0  0  0  0  0  0  0
  2  1  1  1
  3  2  1  0
  4  5  1  6
  4  2  1  0
  6  4  1  0
  7  6  2  0
  8  6  1  0
  9  8  1  0
  9 10  1  0
 10 11  2  0
 12 10  1  0
 12 13  1  0
 13 17  1  0
 13 14  1  6
 15 19  1  0
 15 14  1  0
 16 15  2  0
 17 18  1  0
 20 17  2  0
M  END
$$$$
