WLY.pdb
     RDKit          3D

 35 37  0  0  1  0  0  0  0  0999 V2000
    6.6674  -18.8501   25.0301 N   0  0  0  0  0  0  0  0  0  0  0  0
    6.7845  -17.4322   24.6700 C   0  0  1  0  0  0  0  0  0  0  0  0
    7.6557  -16.8250   25.7617 C   0  0  0  0  0  0  0  0  0  0  0  0
    7.2695  -15.4390   26.0682 C   0  0  0  0  0  0  0  0  0  0  0  0
    6.0137  -14.8695   26.1255 C   0  0  0  0  0  0  0  0  0  0  0  0
    6.1129  -13.5648   26.4412 N   0  0  0  0  0  0  0  0  0  0  0  0
    7.4183  -13.2398   26.5991 C   0  0  0  0  0  0  0  0  0  0  0  0
    8.0456  -12.0433   26.9224 C   0  0  0  0  0  0  0  0  0  0  0  0
    9.4231  -11.9905   27.0209 C   0  0  0  0  0  0  0  0  0  0  0  0
   10.1576  -13.1445   26.7927 C   0  0  0  0  0  0  0  0  0  0  0  0
    9.5111  -14.3254   26.4719 C   0  0  0  0  0  0  0  0  0  0  0  0
    8.1464  -14.3913   26.3710 C   0  0  0  0  0  0  0  0  0  0  0  0
    7.4922  -17.2905   23.3811 C   0  0  0  0  0  0  0  0  0  0  0  0
    8.1610  -18.2579   22.9445 O   0  0  0  0  0  0  0  0  0  0  0  0
    7.5932  -14.7710   18.6076 C   0  0  0  0  0  0  0  0  0  0  0  0
    8.5991  -14.1240   19.6245 C   0  0  1  0  0  0  0  0  0  0  0  0
    8.4300  -12.6372   19.3267 C   0  0  0  0  0  0  0  0  0  0  0  0
    8.1171  -14.5580   20.9410 C   0  0  0  0  0  0  0  0  0  0  0  0
    8.2597  -15.9582   21.4002 C   0  0  2  0  0  0  0  0  0  0  0  0
    7.4250  -16.0934   22.6445 N   0  0  0  0  0  0  0  0  0  0  0  0
    9.5645  -16.5280   21.6533 C   0  0  0  0  0  0  0  0  0  0  0  0
    9.8760  -17.6045   21.0140 O   0  0  0  0  0  0  0  0  0  0  0  0
   13.1020  -14.1383   16.9014 O   0  0  0  0  0  0  0  0  0  0  0  0
   13.0488  -14.4806   18.2349 C   0  0  0  0  0  0  0  0  0  0  0  0
   13.6534  -15.6376   18.6681 C   0  0  0  0  0  0  0  0  0  0  0  0
   13.6142  -16.0022   19.9982 C   0  0  0  0  0  0  0  0  0  0  0  0
   12.9613  -15.2093   20.9412 C   0  0  0  0  0  0  0  0  0  0  0  0
   12.9487  -15.6413   22.3460 C   0  0  0  0  0  0  0  0  0  0  0  0
   11.8571  -16.7136   22.5644 C   0  0  2  0  0  0  0  0  0  0  0  0
   10.5869  -16.0651   22.5116 N   0  0  0  0  0  0  0  0  0  0  0  0
   12.0876  -17.3549   23.8613 C   0  0  0  0  0  0  0  0  0  0  0  0
   11.2339  -17.4160   24.9316 O   0  0  0  0  0  0  0  0  0  0  0  0
   12.3678  -14.0599   20.4739 C   0  0  0  0  0  0  0  0  0  0  0  0
   12.3964  -13.6777   19.1447 C   0  0  0  0  0  0  0  0  0  0  0  0
   13.2242  -17.9369   24.0364 O   0  0  0  0  0  0  0  0  0  0  0  0
  2  1  1  1
  3  2  1  0
  4  5  2  0
  4  3  1  0
  6  5  1  0
  7 12  2  0
  7  6  1  0
  8  7  1  0
  9 10  1  0
  9  8  2  0
 10 11  2  0
 11 12  1  0
 12  4  1  0
 13  2  1  0
 14 13  2  0
 16 15  1  6
 16 18  1  0
 17 16  1  0
 19 18  1  1
 19 21  1  0
 19 20  1  0
 20 13  1  0
 21 30  1  0
 22 21  2  0
 23 24  1  0
 24 25  2  0
 24 34  1  0
 25 26  1  0
 26 27  2  0
 27 28  1  0
 29 28  1  1
 29 31  1  0
 30 29  1  0
 31 35  2  0
 31 32  1  0
 33 27  1  0
 34 33  2  0
M  END
$$$$
