WLY.pdb
     RDKit          3D

 35 37  0  0  1  0  0  0  0  0999 V2000
    6.2530  -18.5002   23.7817 N   0  0  0  0  0  0  0  0  0  0  0  0
    6.7872  -17.1338   23.8162 C   0  0  1  0  0  0  0  0  0  0  0  0
    7.4786  -17.0212   25.1686 C   0  0  0  0  0  0  0  0  0  0  0  0
    7.0783  -15.8049   25.8929 C   0  0  0  0  0  0  0  0  0  0  0  0
    6.1217  -15.6420   26.8742 C   0  0  0  0  0  0  0  0  0  0  0  0
    6.0778  -14.3552   27.2664 N   0  0  0  0  0  0  0  0  0  0  0  0
    6.9909  -13.6415   26.5654 C   0  0  0  0  0  0  0  0  0  0  0  0
    7.3381  -12.2967   26.5910 C   0  0  0  0  0  0  0  0  0  0  0  0
    8.3279  -11.8230   25.7508 C   0  0  0  0  0  0  0  0  0  0  0  0
    8.9601  -12.7088   24.8912 C   0  0  0  0  0  0  0  0  0  0  0  0
    8.5977  -14.0445   24.8830 C   0  0  0  0  0  0  0  0  0  0  0  0
    7.6183  -14.5268   25.7106 C   0  0  0  0  0  0  0  0  0  0  0  0
    7.8052  -16.9577   22.7602 C   0  0  0  0  0  0  0  0  0  0  0  0
    8.4649  -17.9543   22.3787 O   0  0  0  0  0  0  0  0  0  0  0  0
    7.9776  -12.2968   19.5788 C   0  0  0  0  0  0  0  0  0  0  0  0
    7.6869  -13.6873   20.2471 C   0  0  1  0  0  0  0  0  0  0  0  0
    6.9361  -14.4158   19.1364 C   0  0  0  0  0  0  0  0  0  0  0  0
    9.0153  -14.2254   20.5626 C   0  0  0  0  0  0  0  0  0  0  0  0
    9.1872  -15.5402   21.2212 C   0  0  2  0  0  0  0  0  0  0  0  0
    8.0409  -15.6963   22.1831 N   0  0  0  0  0  0  0  0  0  0  0  0
   10.4162  -15.8727   21.9070 C   0  0  0  0  0  0  0  0  0  0  0  0
   11.5164  -15.7546   21.2435 O   0  0  0  0  0  0  0  0  0  0  0  0
    8.0277  -14.6979   28.5200 O   0  0  0  0  0  0  0  0  0  0  0  0
    8.9440  -15.3283   27.7067 C   0  0  0  0  0  0  0  0  0  0  0  0
    9.6189  -14.6066   26.7499 C   0  0  0  0  0  0  0  0  0  0  0  0
   10.5412  -15.2148   25.9233 C   0  0  0  0  0  0  0  0  0  0  0  0
   10.8156  -16.5774   26.0337 C   0  0  0  0  0  0  0  0  0  0  0  0
   11.8072  -17.1777   25.1300 C   0  0  0  0  0  0  0  0  0  0  0  0
   11.9036  -16.3574   23.8235 C   0  0  2  0  0  0  0  0  0  0  0  0
   10.6031  -16.3095   23.2376 N   0  0  0  0  0  0  0  0  0  0  0  0
   12.8761  -17.0039   22.9387 C   0  0  0  0  0  0  0  0  0  0  0  0
   12.6551  -17.5404   21.6973 O   0  0  0  0  0  0  0  0  0  0  0  0
   10.1232  -17.2685   27.0004 C   0  0  0  0  0  0  0  0  0  0  0  0
    9.1951  -16.6764   27.8383 C   0  0  0  0  0  0  0  0  0  0  0  0
   14.0909  -17.0881   23.3609 O   0  0  0  0  0  0  0  0  0  0  0  0
  2  1  1  6
  3  2  1  0
  4  5  2  0
  4  3  1  0
  6  5  1  0
  7 12  2  0
  7  6  1  0
  8  7  1  0
  9 10  1  0
  9  8  2  0
 10 11  2  0
 11 12  1  0
 12  4  1  0
 13  2  1  0
 14 13  2  0
 16 15  1  6
 16 18  1  0
 17 16  1  0
 19 18  1  1
 19 21  1  0
 19 20  1  0
 20 13  1  0
 21 30  1  0
 22 21  2  0
 23 24  1  0
 24 25  2  0
 24 34  1  0
 25 26  1  0
 26 27  2  0
 27 28  1  0
 29 28  1  1
 29 31  1  0
 30 29  1  0
 31 35  2  0
 31 32  1  0
 33 27  1  0
 34 33  2  0
M  END
$$$$
