WLY.pdb
     RDKit          3D

 35 37  0  0  1  0  0  0  0  0999 V2000
    6.5417  -18.4491   24.3506 N   0  0  0  0  0  0  0  0  0  0  0  0
    6.9078  -17.0387   24.1759 C   0  0  1  0  0  0  0  0  0  0  0  0
    7.3206  -16.5698   25.5650 C   0  0  0  0  0  0  0  0  0  0  0  0
    6.4977  -15.4443   26.0342 C   0  0  0  0  0  0  0  0  0  0  0  0
    5.2077  -15.4440   26.5244 C   0  0  0  0  0  0  0  0  0  0  0  0
    4.8341  -14.1897   26.8389 N   0  0  0  0  0  0  0  0  0  0  0  0
    5.8520  -13.3379   26.5692 C   0  0  0  0  0  0  0  0  0  0  0  0
    5.9748  -11.9616   26.7125 C   0  0  0  0  0  0  0  0  0  0  0  0
    7.1514  -11.3322   26.3526 C   0  0  0  0  0  0  0  0  0  0  0  0
    8.1952  -12.0953   25.8511 C   0  0  0  0  0  0  0  0  0  0  0  0
    8.0502  -13.4651   25.7171 C   0  0  0  0  0  0  0  0  0  0  0  0
    6.8893  -14.1012   26.0701 C   0  0  0  0  0  0  0  0  0  0  0  0
    8.0781  -16.9229   23.2819 C   0  0  0  0  0  0  0  0  0  0  0  0
    8.6038  -17.9681   22.8291 O   0  0  0  0  0  0  0  0  0  0  0  0
    7.0926  -12.7446   19.5328 C   0  0  0  0  0  0  0  0  0  0  0  0
    8.1796  -13.8744   19.6140 C   0  0  1  0  0  0  0  0  0  0  0  0
    9.4367  -13.1291   19.1756 C   0  0  0  0  0  0  0  0  0  0  0  0
    8.1607  -14.2988   21.0187 C   0  0  0  0  0  0  0  0  0  0  0  0
    9.0047  -15.4125   21.5076 C   0  0  2  0  0  0  0  0  0  0  0  0
    8.6048  -15.6648   22.9359 N   0  0  0  0  0  0  0  0  0  0  0  0
   10.4472  -15.3384   21.4365 C   0  0  0  0  0  0  0  0  0  0  0  0
   10.9609  -14.2903   20.8868 O   0  0  0  0  0  0  0  0  0  0  0  0
   12.0941  -15.5382   29.5987 O   0  0  0  0  0  0  0  0  0  0  0  0
   11.7657  -15.5994   28.2621 C   0  0  0  0  0  0  0  0  0  0  0  0
   11.1351  -14.5333   27.6638 C   0  0  0  0  0  0  0  0  0  0  0  0
   10.7959  -14.5702   26.3269 C   0  0  0  0  0  0  0  0  0  0  0  0
   11.0820  -15.6880   25.5441 C   0  0  0  0  0  0  0  0  0  0  0  0
   10.7008  -15.6775   24.1247 C   0  0  0  0  0  0  0  0  0  0  0  0
   11.8464  -16.2521   23.2606 C   0  0  2  0  0  0  0  0  0  0  0  0
   11.4101  -16.2616   21.9018 N   0  0  0  0  0  0  0  0  0  0  0  0
   12.1606  -17.6001   23.7412 C   0  0  0  0  0  0  0  0  0  0  0  0
   11.6063  -18.7863   23.3367 O   0  0  0  0  0  0  0  0  0  0  0  0
   11.7127  -16.7354   26.1739 C   0  0  0  0  0  0  0  0  0  0  0  0
   12.0607  -16.7171   27.5127 C   0  0  0  0  0  0  0  0  0  0  0  0
   13.0643  -17.7036   24.6543 O   0  0  0  0  0  0  0  0  0  0  0  0
  2  1  1  1
  3  2  1  0
  4  5  2  0
  4  3  1  0
  6  5  1  0
  7 12  2  0
  7  6  1  0
  8  7  1  0
  9 10  1  0
  9  8  2  0
 10 11  2  0
 11 12  1  0
 12  4  1  0
 13  2  1  0
 14 13  2  0
 16 15  1  1
 16 18  1  0
 17 16  1  0
 19 18  1  1
 19 21  1  0
 19 20  1  0
 20 13  1  0
 21 30  1  0
 22 21  2  0
 23 24  1  0
 24 25  2  0
 24 34  1  0
 25 26  1  0
 26 27  2  0
 27 28  1  0
 29 28  1  1
 29 31  1  0
 30 29  1  0
 31 35  2  0
 31 32  1  0
 33 27  1  0
 34 33  2  0
M  END
$$$$
