WLY.pdb
     RDKit          3D

 35 37  0  0  1  0  0  0  0  0999 V2000
    6.2177  -16.7423   24.9039 N   0  0  0  0  0  0  0  0  0  0  0  0
    7.2915  -15.8120   24.5362 C   0  0  1  0  0  0  0  0  0  0  0  0
    8.3377  -15.9743   25.6311 C   0  0  0  0  0  0  0  0  0  0  0  0
    8.1688  -14.9844   26.7062 C   0  0  0  0  0  0  0  0  0  0  0  0
    8.7261  -14.9551   27.9683 C   0  0  0  0  0  0  0  0  0  0  0  0
    8.3016  -13.8654   28.6347 N   0  0  0  0  0  0  0  0  0  0  0  0
    7.4637  -13.1540   27.8432 C   0  0  0  0  0  0  0  0  0  0  0  0
    6.7682  -11.9700   28.0532 C   0  0  0  0  0  0  0  0  0  0  0  0
    5.9663  -11.4536   27.0530 C   0  0  0  0  0  0  0  0  0  0  0  0
    5.8718  -12.1350   25.8488 C   0  0  0  0  0  0  0  0  0  0  0  0
    6.5738  -13.3129   25.6620 C   0  0  0  0  0  0  0  0  0  0  0  0
    7.3721  -13.8355   26.6452 C   0  0  0  0  0  0  0  0  0  0  0  0
    7.8992  -16.2170   23.2521 C   0  0  0  0  0  0  0  0  0  0  0  0
    8.4794  -17.3268   23.1766 O   0  0  0  0  0  0  0  0  0  0  0  0
    8.9230  -12.7746   20.8147 C   0  0  0  0  0  0  0  0  0  0  0  0
    7.6816  -13.4800   20.1620 C   0  0  1  0  0  0  0  0  0  0  0  0
    7.3927  -12.5663   18.9748 C   0  0  0  0  0  0  0  0  0  0  0  0
    8.1643  -14.8222   19.8167 C   0  0  0  0  0  0  0  0  0  0  0  0
    8.5218  -15.8133   20.8568 C   0  0  2  0  0  0  0  0  0  0  0  0
    7.8351  -15.3795   22.1232 N   0  0  0  0  0  0  0  0  0  0  0  0
    9.9051  -16.1087   21.1575 C   0  0  0  0  0  0  0  0  0  0  0  0
   10.7786  -15.8536   20.2430 O   0  0  0  0  0  0  0  0  0  0  0  0
   14.8530  -14.8233   17.2073 O   0  0  0  0  0  0  0  0  0  0  0  0
   14.3144  -15.0085   18.4619 C   0  0  0  0  0  0  0  0  0  0  0  0
   13.3657  -14.1319   18.9346 C   0  0  0  0  0  0  0  0  0  0  0  0
   12.8113  -14.2959   20.1873 C   0  0  0  0  0  0  0  0  0  0  0  0
   13.1961  -15.3539   21.0099 C   0  0  0  0  0  0  0  0  0  0  0  0
   12.5750  -15.4852   22.3356 C   0  0  0  0  0  0  0  0  0  0  0  0
   11.8707  -16.8553   22.4611 C   0  0  2  0  0  0  0  0  0  0  0  0
   10.4650  -16.6398   22.3410 N   0  0  0  0  0  0  0  0  0  0  0  0
   12.2230  -17.4428   23.7562 C   0  0  0  0  0  0  0  0  0  0  0  0
   13.4549  -17.8710   24.1769 O   0  0  0  0  0  0  0  0  0  0  0  0
   14.1464  -16.2111   20.5062 C   0  0  0  0  0  0  0  0  0  0  0  0
   14.7136  -16.0632   19.2531 C   0  0  0  0  0  0  0  0  0  0  0  0
   11.2738  -17.5822   24.6169 O   0  0  0  0  0  0  0  0  0  0  0  0
  2  1  1  1
  3  2  1  0
  4  5  2  0
  4  3  1  0
  6  5  1  0
  7 12  2  0
  7  6  1  0
  8  7  1  0
  9 10  1  0
  9  8  2  0
 10 11  2  0
 11 12  1  0
 12  4  1  0
 13  2  1  0
 14 13  2  0
 16 15  1  1
 16 18  1  0
 17 16  1  0
 19 18  1  6
 19 21  1  0
 19 20  1  0
 20 13  1  0
 21 30  1  0
 22 21  2  0
 23 24  1  0
 24 25  2  0
 24 34  1  0
 25 26  1  0
 26 27  2  0
 27 28  1  0
 29 28  1  1
 29 31  1  0
 30 29  1  0
 31 35  2  0
 31 32  1  0
 33 27  1  0
 34 33  2  0
M  END
$$$$
