WLY.pdb
     RDKit          3D

 35 37  0  0  1  0  0  0  0  0999 V2000
    6.3645  -18.5655   24.2177 N   0  0  0  0  0  0  0  0  0  0  0  0
    6.8458  -17.1825   24.1201 C   0  0  1  0  0  0  0  0  0  0  0  0
    7.4553  -16.8863   25.4840 C   0  0  0  0  0  0  0  0  0  0  0  0
    6.9645  -15.6174   26.0435 C   0  0  0  0  0  0  0  0  0  0  0  0
    5.8011  -15.3556   26.7382 C   0  0  0  0  0  0  0  0  0  0  0  0
    5.7439  -14.0517   27.0672 N   0  0  0  0  0  0  0  0  0  0  0  0
    6.8519  -13.4239   26.6059 C   0  0  0  0  0  0  0  0  0  0  0  0
    7.2697  -12.1012   26.6807 C   0  0  0  0  0  0  0  0  0  0  0  0
    8.4713  -11.7235   26.1120 C   0  0  0  0  0  0  0  0  0  0  0  0
    9.2425  -12.6823   25.4722 C   0  0  0  0  0  0  0  0  0  0  0  0
    8.8062  -13.9942   25.4100 C   0  0  0  0  0  0  0  0  0  0  0  0
    7.6172  -14.3817   25.9695 C   0  0  0  0  0  0  0  0  0  0  0  0
    7.9145  -17.0853   23.1049 C   0  0  0  0  0  0  0  0  0  0  0  0
    8.5950  -18.1050   22.8382 O   0  0  0  0  0  0  0  0  0  0  0  0
    8.0219  -12.5789   19.9421 C   0  0  0  0  0  0  0  0  0  0  0  0
    7.7560  -14.0484   20.4266 C   0  0  1  0  0  0  0  0  0  0  0  0
    6.9660  -14.6244   19.2552 C   0  0  0  0  0  0  0  0  0  0  0  0
    9.0951  -14.6171   20.6192 C   0  0  0  0  0  0  0  0  0  0  0  0
    9.3207  -15.8098   21.4667 C   0  0  2  0  0  0  0  0  0  0  0  0
    8.1752  -15.8729   22.4400 N   0  0  0  0  0  0  0  0  0  0  0  0
   10.5580  -15.9802   22.1956 C   0  0  0  0  0  0  0  0  0  0  0  0
   11.6431  -16.0861   21.5058 O   0  0  0  0  0  0  0  0  0  0  0  0
    9.1487  -16.5925   29.7997 O   0  0  0  0  0  0  0  0  0  0  0  0
    9.8010  -16.1410   28.6732 C   0  0  0  0  0  0  0  0  0  0  0  0
   10.1606  -14.8169   28.5763 C   0  0  0  0  0  0  0  0  0  0  0  0
   10.8146  -14.3404   27.4588 C   0  0  0  0  0  0  0  0  0  0  0  0
   11.1296  -15.1863   26.3960 C   0  0  0  0  0  0  0  0  0  0  0  0
   11.8276  -14.6300   25.2282 C   0  0  0  0  0  0  0  0  0  0  0  0
   12.0394  -15.7277   24.1608 C   0  0  2  0  0  0  0  0  0  0  0  0
   10.7681  -16.0385   23.5915 N   0  0  0  0  0  0  0  0  0  0  0  0
   12.6467  -16.8941   24.8068 C   0  0  0  0  0  0  0  0  0  0  0  0
   13.8719  -16.9738   25.4156 O   0  0  0  0  0  0  0  0  0  0  0  0
   10.7556  -16.5034   26.5259 C   0  0  0  0  0  0  0  0  0  0  0  0
   10.0996  -16.9997   27.6382 C   0  0  0  0  0  0  0  0  0  0  0  0
   11.9622  -17.9861   24.8135 O   0  0  0  0  0  0  0  0  0  0  0  0
  2  1  1  1
  3  2  1  0
  4  5  2  0
  4  3  1  0
  6  5  1  0
  7 12  2  0
  7  6  1  0
  8  7  1  0
  9 10  1  0
  9  8  2  0
 10 11  2  0
 11 12  1  0
 12  4  1  0
 13  2  1  0
 14 13  2  0
 16 15  1  6
 16 18  1  0
 17 16  1  0
 19 18  1  1
 19 21  1  0
 19 20  1  0
 20 13  1  0
 21 30  1  0
 22 21  2  0
 23 24  1  0
 24 25  2  0
 24 34  1  0
 25 26  1  0
 26 27  2  0
 27 28  1  0
 29 28  1  1
 29 31  1  0
 30 29  1  0
 31 35  2  0
 31 32  1  0
 33 27  1  0
 34 33  2  0
M  END
$$$$
