WLY.pdb
     RDKit          3D

 35 37  0  0  1  0  0  0  0  0999 V2000
    6.4578  -18.0990   24.0276 N   0  0  0  0  0  0  0  0  0  0  0  0
    7.0039  -16.7707   23.7255 C   0  0  1  0  0  0  0  0  0  0  0  0
    7.8388  -16.4073   24.9464 C   0  0  0  0  0  0  0  0  0  0  0  0
    7.2310  -15.3175   25.7255 C   0  0  0  0  0  0  0  0  0  0  0  0
    6.0818  -15.3192   26.4895 C   0  0  0  0  0  0  0  0  0  0  0  0
    5.8882  -14.1037   27.0341 N   0  0  0  0  0  0  0  0  0  0  0  0
    6.8896  -13.2761   26.6509 C   0  0  0  0  0  0  0  0  0  0  0  0
    7.1519  -11.9415   26.9336 C   0  0  0  0  0  0  0  0  0  0  0  0
    8.2702  -11.3296   26.3998 C   0  0  0  0  0  0  0  0  0  0  0  0
    9.1154  -12.0679   25.5850 C   0  0  0  0  0  0  0  0  0  0  0  0
    8.8341  -13.3962   25.3171 C   0  0  0  0  0  0  0  0  0  0  0  0
    7.7290  -14.0147   25.8398 C   0  0  0  0  0  0  0  0  0  0  0  0
    7.9027  -16.8433   22.5555 C   0  0  0  0  0  0  0  0  0  0  0  0
    8.2260  -17.9689   22.1054 O   0  0  0  0  0  0  0  0  0  0  0  0
    8.2437  -12.2712   19.3635 C   0  0  0  0  0  0  0  0  0  0  0  0
    7.8524  -13.5900   20.1200 C   0  0  1  0  0  0  0  0  0  0  0  0
    6.6242  -14.0451   19.3375 C   0  0  0  0  0  0  0  0  0  0  0  0
    9.0337  -14.4506   19.9881 C   0  0  0  0  0  0  0  0  0  0  0  0
    9.0981  -15.7878   20.6203 C   0  0  2  0  0  0  0  0  0  0  0  0
    8.3957  -15.6748   21.9460 N   0  0  0  0  0  0  0  0  0  0  0  0
   10.3657  -16.4537   20.8228 C   0  0  0  0  0  0  0  0  0  0  0  0
   11.1345  -16.5910   19.7958 O   0  0  0  0  0  0  0  0  0  0  0  0
   14.9869  -13.2234   17.8146 O   0  0  0  0  0  0  0  0  0  0  0  0
   14.4112  -13.7317   18.9586 C   0  0  0  0  0  0  0  0  0  0  0  0
   13.0907  -13.4646   19.2359 C   0  0  0  0  0  0  0  0  0  0  0  0
   12.4913  -13.9620   20.3747 C   0  0  0  0  0  0  0  0  0  0  0  0
   13.2060  -14.7490   21.2770 C   0  0  0  0  0  0  0  0  0  0  0  0
   12.5216  -15.2554   22.4750 C   0  0  0  0  0  0  0  0  0  0  0  0
   12.2846  -16.7777   22.3504 C   0  0  2  0  0  0  0  0  0  0  0  0
   10.9132  -16.9831   22.0129 N   0  0  0  0  0  0  0  0  0  0  0  0
   12.6319  -17.4088   23.6262 C   0  0  0  0  0  0  0  0  0  0  0  0
   11.7973  -18.0632   24.4941 O   0  0  0  0  0  0  0  0  0  0  0  0
   14.5234  -14.9963   20.9690 C   0  0  0  0  0  0  0  0  0  0  0  0
   15.1417  -14.5066   19.8324 C   0  0  0  0  0  0  0  0  0  0  0  0
   13.8658  -17.3523   23.9942 O   0  0  0  0  0  0  0  0  0  0  0  0
  2  1  1  1
  3  2  1  0
  4  5  2  0
  4  3  1  0
  6  5  1  0
  7 12  2  0
  7  6  1  0
  8  7  1  0
  9 10  1  0
  9  8  2  0
 10 11  2  0
 11 12  1  0
 12  4  1  0
 13  2  1  0
 14 13  2  0
 16 15  1  6
 16 18  1  0
 17 16  1  0
 19 18  1  1
 19 21  1  0
 19 20  1  0
 20 13  1  0
 21 30  1  0
 22 21  2  0
 23 24  1  0
 24 25  2  0
 24 34  1  0
 25 26  1  0
 26 27  2  0
 27 28  1  0
 29 28  1  1
 29 31  1  0
 30 29  1  0
 31 35  2  0
 31 32  1  0
 33 27  1  0
 34 33  2  0
M  END
$$$$
