WLY.pdb
     RDKit          3D

 35 37  0  0  1  0  0  0  0  0999 V2000
    6.6979  -18.2318   24.6078 N   0  0  0  0  0  0  0  0  0  0  0  0
    6.9739  -16.8421   24.2252 C   0  0  1  0  0  0  0  0  0  0  0  0
    7.4925  -16.1848   25.4975 C   0  0  0  0  0  0  0  0  0  0  0  0
    6.6048  -15.1082   25.9632 C   0  0  0  0  0  0  0  0  0  0  0  0
    5.3536  -15.1893   26.5398 C   0  0  0  0  0  0  0  0  0  0  0  0
    4.8913  -13.9553   26.8140 N   0  0  0  0  0  0  0  0  0  0  0  0
    5.8107  -13.0370   26.4320 C   0  0  0  0  0  0  0  0  0  0  0  0
    5.8202  -11.6493   26.4955 C   0  0  0  0  0  0  0  0  0  0  0  0
    6.9113  -10.9440   26.0242 C   0  0  0  0  0  0  0  0  0  0  0  0
    7.9845  -11.6432   25.4925 C   0  0  0  0  0  0  0  0  0  0  0  0
    7.9530  -13.0258   25.4394 C   0  0  0  0  0  0  0  0  0  0  0  0
    6.8776  -13.7369   25.9031 C   0  0  0  0  0  0  0  0  0  0  0  0
    8.0465  -16.7963   23.2106 C   0  0  0  0  0  0  0  0  0  0  0  0
    8.9064  -17.7096   23.1923 O   0  0  0  0  0  0  0  0  0  0  0  0
    8.2306  -12.3876   19.7163 C   0  0  0  0  0  0  0  0  0  0  0  0
    7.8992  -13.6518   20.5861 C   0  0  1  0  0  0  0  0  0  0  0  0
    6.6733  -14.2101   19.8696 C   0  0  0  0  0  0  0  0  0  0  0  0
    9.1069  -14.4810   20.4998 C   0  0  0  0  0  0  0  0  0  0  0  0
    9.2664  -15.7119   21.3069 C   0  0  2  0  0  0  0  0  0  0  0  0
    8.1138  -15.7491   22.2731 N   0  0  0  0  0  0  0  0  0  0  0  0
   10.4893  -15.9704   22.0342 C   0  0  0  0  0  0  0  0  0  0  0  0
   11.5346  -16.2823   21.3453 O   0  0  0  0  0  0  0  0  0  0  0  0
   10.1227  -17.4726   29.7861 O   0  0  0  0  0  0  0  0  0  0  0  0
   10.5626  -16.8366   28.6457 C   0  0  0  0  0  0  0  0  0  0  0  0
   10.6385  -15.4636   28.6150 C   0  0  0  0  0  0  0  0  0  0  0  0
   11.0758  -14.8034   27.4851 C   0  0  0  0  0  0  0  0  0  0  0  0
   11.4530  -15.5080   26.3426 C   0  0  0  0  0  0  0  0  0  0  0  0
   11.9126  -14.7581   25.1650 C   0  0  0  0  0  0  0  0  0  0  0  0
   12.0353  -15.7014   23.9467 C   0  0  2  0  0  0  0  0  0  0  0  0
   10.7246  -15.9205   23.4264 N   0  0  0  0  0  0  0  0  0  0  0  0
   12.6626  -16.9503   24.3864 C   0  0  0  0  0  0  0  0  0  0  0  0
   13.9600  -17.1443   24.7827 O   0  0  0  0  0  0  0  0  0  0  0  0
   11.3648  -16.8790   26.4078 C   0  0  0  0  0  0  0  0  0  0  0  0
   10.9289  -17.5586   27.5311 C   0  0  0  0  0  0  0  0  0  0  0  0
   11.9216  -18.0046   24.4100 O   0  0  0  0  0  0  0  0  0  0  0  0
  2  1  1  1
  3  2  1  0
  4  5  2  0
  4  3  1  0
  6  5  1  0
  7 12  2  0
  7  6  1  0
  8  7  1  0
  9 10  1  0
  9  8  2  0
 10 11  2  0
 11 12  1  0
 12  4  1  0
 13  2  1  0
 14 13  2  0
 16 15  1  6
 16 18  1  0
 17 16  1  0
 19 18  1  1
 19 21  1  0
 19 20  1  0
 20 13  1  0
 21 30  1  0
 22 21  2  0
 23 24  1  0
 24 25  2  0
 24 34  1  0
 25 26  1  0
 26 27  2  0
 27 28  1  0
 29 28  1  1
 29 31  1  0
 30 29  1  0
 31 35  2  0
 31 32  1  0
 33 27  1  0
 34 33  2  0
M  END
$$$$
