WLY.pdb
     RDKit          3D

 35 37  0  0  1  0  0  0  0  0999 V2000
    6.4678  -18.7910   24.6593 N   0  0  0  0  0  0  0  0  0  0  0  0
    6.5931  -17.3512   24.4044 C   0  0  1  0  0  0  0  0  0  0  0  0
    7.2284  -16.7869   25.6684 C   0  0  0  0  0  0  0  0  0  0  0  0
    6.6752  -15.4709   26.0233 C   0  0  0  0  0  0  0  0  0  0  0  0
    5.3858  -15.1259   26.3743 C   0  0  0  0  0  0  0  0  0  0  0  0
    5.3126  -13.8047   26.6202 N   0  0  0  0  0  0  0  0  0  0  0  0
    6.5339  -13.2470   26.4413 C   0  0  0  0  0  0  0  0  0  0  0  0
    6.9860  -11.9395   26.5668 C   0  0  0  0  0  0  0  0  0  0  0  0
    8.3126  -11.6409   26.3199 C   0  0  0  0  0  0  0  0  0  0  0  0
    9.1732  -12.6629   25.9482 C   0  0  0  0  0  0  0  0  0  0  0  0
    8.7006  -13.9582   25.8294 C   0  0  0  0  0  0  0  0  0  0  0  0
    7.3880  -14.2676   26.0713 C   0  0  0  0  0  0  0  0  0  0  0  0
    7.5162  -17.1119   23.2762 C   0  0  0  0  0  0  0  0  0  0  0  0
    8.5783  -17.7760   23.2075 O   0  0  0  0  0  0  0  0  0  0  0  0
    7.5632  -12.9674   18.8049 C   0  0  0  0  0  0  0  0  0  0  0  0
    8.3930  -14.2252   19.2453 C   0  0  1  0  0  0  0  0  0  0  0  0
    9.7941  -13.6387   19.3904 C   0  0  0  0  0  0  0  0  0  0  0  0
    7.7624  -14.6583   20.4976 C   0  0  0  0  0  0  0  0  0  0  0  0
    8.2729  -15.8151   21.2678 C   0  0  2  0  0  0  0  0  0  0  0  0
    7.2201  -16.1559   22.2870 N   0  0  0  0  0  0  0  0  0  0  0  0
    9.5575  -15.7587   21.9295 C   0  0  0  0  0  0  0  0  0  0  0  0
   10.5836  -16.1785   21.2697 O   0  0  0  0  0  0  0  0  0  0  0  0
   10.0415  -16.9974   29.5482 O   0  0  0  0  0  0  0  0  0  0  0  0
   10.3567  -16.2926   28.4070 C   0  0  0  0  0  0  0  0  0  0  0  0
    9.3745  -16.0060   27.4877 C   0  0  0  0  0  0  0  0  0  0  0  0
    9.6647  -15.3016   26.3373 C   0  0  0  0  0  0  0  0  0  0  0  0
   10.9608  -14.8603   26.0733 C   0  0  0  0  0  0  0  0  0  0  0  0
   11.2181  -14.1131   24.8340 C   0  0  0  0  0  0  0  0  0  0  0  0
   11.2254  -15.0744   23.6237 C   0  0  2  0  0  0  0  0  0  0  0  0
    9.8721  -15.2886   23.2241 N   0  0  0  0  0  0  0  0  0  0  0  0
   11.8790  -16.3228   24.0247 C   0  0  0  0  0  0  0  0  0  0  0  0
   11.3499  -17.5869   24.0196 O   0  0  0  0  0  0  0  0  0  0  0  0
   11.9179  -15.1640   27.0132 C   0  0  0  0  0  0  0  0  0  0  0  0
   11.6463  -15.8688   28.1722 C   0  0  0  0  0  0  0  0  0  0  0  0
   13.0982  -16.2435   24.4349 O   0  0  0  0  0  0  0  0  0  0  0  0
  2  1  1  1
  3  2  1  0
  4  5  2  0
  4  3  1  0
  6  5  1  0
  7 12  2  0
  7  6  1  0
  8  7  1  0
  9 10  1  0
  9  8  2  0
 10 11  2  0
 11 12  1  0
 12  4  1  0
 13  2  1  0
 14 13  2  0
 16 15  1  1
 16 18  1  0
 17 16  1  0
 19 18  1  1
 19 21  1  0
 19 20  1  0
 20 13  1  0
 21 30  1  0
 22 21  2  0
 23 24  1  0
 24 25  2  0
 24 34  1  0
 25 26  1  0
 26 27  2  0
 27 28  1  0
 29 28  1  1
 29 31  1  0
 30 29  1  0
 31 35  2  0
 31 32  1  0
 33 27  1  0
 34 33  2  0
M  END
$$$$
