WLY.pdb
     RDKit          3D

 35 37  0  0  1  0  0  0  0  0999 V2000
    6.6180  -17.0476   25.2229 N   0  0  0  0  0  0  0  0  0  0  0  0
    7.1796  -15.9300   24.4552 C   0  0  1  0  0  0  0  0  0  0  0  0
    8.4290  -15.5200   25.2238 C   0  0  0  0  0  0  0  0  0  0  0  0
    8.1047  -14.7346   26.4247 C   0  0  0  0  0  0  0  0  0  0  0  0
    8.4200  -14.9795   27.7457 C   0  0  0  0  0  0  0  0  0  0  0  0
    7.9243  -14.0020   28.5270 N   0  0  0  0  0  0  0  0  0  0  0  0
    7.2768  -13.0965   27.7555 C   0  0  0  0  0  0  0  0  0  0  0  0
    6.6031  -11.9223   28.0675 C   0  0  0  0  0  0  0  0  0  0  0  0
    6.0214  -11.1723   27.0629 C   0  0  0  0  0  0  0  0  0  0  0  0
    6.1234  -11.6118   25.7515 C   0  0  0  0  0  0  0  0  0  0  0  0
    6.7994  -12.7848   25.4643 C   0  0  0  0  0  0  0  0  0  0  0  0
    7.3804  -13.5375   26.4506 C   0  0  0  0  0  0  0  0  0  0  0  0
    7.5920  -16.3898   23.1133 C   0  0  0  0  0  0  0  0  0  0  0  0
    7.5834  -17.6189   22.8620 O   0  0  0  0  0  0  0  0  0  0  0  0
    7.9736  -12.8138   18.7449 C   0  0  0  0  0  0  0  0  0  0  0  0
    8.4597  -13.5378   20.0503 C   0  0  1  0  0  0  0  0  0  0  0  0
    7.5668  -12.9005   21.1107 C   0  0  0  0  0  0  0  0  0  0  0  0
    8.2094  -14.9608   19.7933 C   0  0  0  0  0  0  0  0  0  0  0  0
    8.4990  -15.9987   20.8085 C   0  0  2  0  0  0  0  0  0  0  0  0
    7.9908  -15.4729   22.1233 N   0  0  0  0  0  0  0  0  0  0  0  0
    9.8427  -16.4987   20.9976 C   0  0  0  0  0  0  0  0  0  0  0  0
   10.3256  -17.2645   20.0785 O   0  0  0  0  0  0  0  0  0  0  0  0
   15.2988  -14.6676   17.1784 O   0  0  0  0  0  0  0  0  0  0  0  0
   14.7445  -14.9833   18.3996 C   0  0  0  0  0  0  0  0  0  0  0  0
   15.3088  -14.4920   19.5538 C   0  0  0  0  0  0  0  0  0  0  0  0
   14.7725  -14.7937   20.7887 C   0  0  0  0  0  0  0  0  0  0  0  0
   13.6440  -15.6046   20.9027 C   0  0  0  0  0  0  0  0  0  0  0  0
   13.1107  -15.8958   22.2410 C   0  0  0  0  0  0  0  0  0  0  0  0
   11.9854  -16.9513   22.1486 C   0  0  2  0  0  0  0  0  0  0  0  0
   10.7399  -16.2598   22.0626 N   0  0  0  0  0  0  0  0  0  0  0  0
   12.0520  -17.8078   23.3354 C   0  0  0  0  0  0  0  0  0  0  0  0
   13.0780  -18.6304   23.7208 O   0  0  0  0  0  0  0  0  0  0  0  0
   13.1055  -16.0785   19.7292 C   0  0  0  0  0  0  0  0  0  0  0  0
   13.6288  -15.7871   18.4822 C   0  0  0  0  0  0  0  0  0  0  0  0
   11.0327  -17.8009   24.1242 O   0  0  0  0  0  0  0  0  0  0  0  0
  2  1  1  1
  3  2  1  0
  4  5  2  0
  4  3  1  0
  6  5  1  0
  7 12  2  0
  7  6  1  0
  8  7  1  0
  9 10  1  0
  9  8  2  0
 10 11  2  0
 11 12  1  0
 12  4  1  0
 13  2  1  0
 14 13  2  0
 16 15  1  6
 16 18  1  0
 17 16  1  0
 19 18  1  6
 19 21  1  0
 19 20  1  0
 20 13  1  0
 21 30  1  0
 22 21  2  0
 23 24  1  0
 24 25  2  0
 24 34  1  0
 25 26  1  0
 26 27  2  0
 27 28  1  0
 29 28  1  1
 29 31  1  0
 30 29  1  0
 31 35  2  0
 31 32  1  0
 33 27  1  0
 34 33  2  0
M  END
$$$$
