WLY.pdb
     RDKit          3D

 35 37  0  0  1  0  0  0  0  0999 V2000
    8.2153  -19.1804   25.7620 N   0  0  0  0  0  0  0  0  0  0  0  0
    8.4865  -17.7610   25.5061 C   0  0  1  0  0  0  0  0  0  0  0  0
    9.9420  -17.5649   25.9093 C   0  0  0  0  0  0  0  0  0  0  0  0
   10.0683  -16.8499   27.1887 C   0  0  0  0  0  0  0  0  0  0  0  0
   10.5840  -17.2870   28.3918 C   0  0  0  0  0  0  0  0  0  0  0  0
   10.5057  -16.3065   29.3107 N   0  0  0  0  0  0  0  0  0  0  0  0
    9.9441  -15.2095   28.7488 C   0  0  0  0  0  0  0  0  0  0  0  0
    9.6457  -13.9528   29.2603 C   0  0  0  0  0  0  0  0  0  0  0  0
    9.0617  -12.9982   28.4493 C   0  0  0  0  0  0  0  0  0  0  0  0
    8.7830  -13.3179   27.1290 C   0  0  0  0  0  0  0  0  0  0  0  0
    9.0890  -14.5763   26.6411 C   0  0  0  0  0  0  0  0  0  0  0  0
    9.6679  -15.5316   27.4343 C   0  0  0  0  0  0  0  0  0  0  0  0
    8.3631  -17.4706   24.0630 C   0  0  0  0  0  0  0  0  0  0  0  0
    8.6929  -18.3529   23.2344 O   0  0  0  0  0  0  0  0  0  0  0  0
    7.2829  -12.4763   20.7912 C   0  0  0  0  0  0  0  0  0  0  0  0
    7.0487  -14.0211   20.6391 C   0  0  1  0  0  0  0  0  0  0  0  0
    8.0456  -14.3807   19.5415 C   0  0  0  0  0  0  0  0  0  0  0  0
    7.3533  -14.5689   21.9661 C   0  0  0  0  0  0  0  0  0  0  0  0
    7.9171  -15.9270   22.1378 C   0  0  2  0  0  0  0  0  0  0  0  0
    7.8843  -16.2267   23.6117 N   0  0  0  0  0  0  0  0  0  0  0  0
    9.2292  -16.2568   21.6269 C   0  0  0  0  0  0  0  0  0  0  0  0
    9.2858  -16.9324   20.5292 O   0  0  0  0  0  0  0  0  0  0  0  0
    9.7289  -13.1082   16.3503 O   0  0  0  0  0  0  0  0  0  0  0  0
   10.3676  -13.5328   17.4948 C   0  0  0  0  0  0  0  0  0  0  0  0
   10.8431  -14.8211   17.5743 C   0  0  0  0  0  0  0  0  0  0  0  0
   11.4862  -15.2701   18.7094 C   0  0  0  0  0  0  0  0  0  0  0  0
   11.6726  -14.4321   19.8080 C   0  0  0  0  0  0  0  0  0  0  0  0
   12.3646  -14.9580   20.9933 C   0  0  0  0  0  0  0  0  0  0  0  0
   11.6975  -16.2715   21.4611 C   0  0  2  0  0  0  0  0  0  0  0  0
   10.4982  -15.9322   22.1564 N   0  0  0  0  0  0  0  0  0  0  0  0
   12.6402  -16.9918   22.3208 C   0  0  0  0  0  0  0  0  0  0  0  0
   12.4533  -17.3989   23.6159 O   0  0  0  0  0  0  0  0  0  0  0  0
   11.1851  -13.1510   19.6948 C   0  0  0  0  0  0  0  0  0  0  0  0
   10.5378  -12.6827   18.5654 C   0  0  0  0  0  0  0  0  0  0  0  0
   13.7891  -17.2868   21.8168 O   0  0  0  0  0  0  0  0  0  0  0  0
  2  1  1  6
  3  2  1  0
  4  5  2  0
  4  3  1  0
  6  5  1  0
  7 12  2  0
  7  6  1  0
  8  7  1  0
  9 10  1  0
  9  8  2  0
 10 11  2  0
 11 12  1  0
 12  4  1  0
 13  2  1  0
 14 13  2  0
 16 15  1  1
 16 18  1  0
 17 16  1  0
 19 18  1  1
 19 21  1  0
 19 20  1  0
 20 13  1  0
 21 30  1  0
 22 21  2  0
 23 24  1  0
 24 25  2  0
 24 34  1  0
 25 26  1  0
 26 27  2  0
 27 28  1  0
 29 28  1  1
 29 31  1  0
 30 29  1  0
 31 35  2  0
 31 32  1  0
 33 27  1  0
 34 33  2  0
M  END
$$$$
