WLY.pdb
     RDKit          3D

 35 37  0  0  1  0  0  0  0  0999 V2000
    6.6702  -18.8154   24.9695 N   0  0  0  0  0  0  0  0  0  0  0  0
    6.7301  -17.3825   24.6581 C   0  0  1  0  0  0  0  0  0  0  0  0
    7.4443  -16.7560   25.8485 C   0  0  0  0  0  0  0  0  0  0  0  0
    6.8247  -15.4859   26.2573 C   0  0  0  0  0  0  0  0  0  0  0  0
    5.5322  -15.2317   26.6688 C   0  0  0  0  0  0  0  0  0  0  0  0
    5.3863  -13.9234   26.9491 N   0  0  0  0  0  0  0  0  0  0  0  0
    6.5614  -13.2851   26.7339 C   0  0  0  0  0  0  0  0  0  0  0  0
    6.9350  -11.9542   26.8721 C   0  0  0  0  0  0  0  0  0  0  0  0
    8.2285  -11.5662   26.5784 C   0  0  0  0  0  0  0  0  0  0  0  0
    9.1354  -12.5229   26.1474 C   0  0  0  0  0  0  0  0  0  0  0  0
    8.7407  -13.8429   26.0170 C   0  0  0  0  0  0  0  0  0  0  0  0
    7.4617  -14.2407   26.3049 C   0  0  0  0  0  0  0  0  0  0  0  0
    7.5543  -17.1568   23.4531 C   0  0  0  0  0  0  0  0  0  0  0  0
    8.3601  -18.0477   23.0914 O   0  0  0  0  0  0  0  0  0  0  0  0
    7.8508  -14.6886   18.5933 C   0  0  0  0  0  0  0  0  0  0  0  0
    8.6437  -13.9480   19.7280 C   0  0  1  0  0  0  0  0  0  0  0  0
    8.3763  -12.4843   19.3905 C   0  0  0  0  0  0  0  0  0  0  0  0
    8.0311  -14.4260   20.9730 C   0  0  0  0  0  0  0  0  0  0  0  0
    8.3960  -15.7306   21.5702 C   0  0  2  0  0  0  0  0  0  0  0  0
    7.4464  -15.9647   22.7134 N   0  0  0  0  0  0  0  0  0  0  0  0
    9.7437  -15.9877   22.0272 C   0  0  0  0  0  0  0  0  0  0  0  0
   10.5522  -16.5579   21.1992 O   0  0  0  0  0  0  0  0  0  0  0  0
    9.6637  -15.8334   29.4444 O   0  0  0  0  0  0  0  0  0  0  0  0
   10.2504  -15.5348   28.2341 C   0  0  0  0  0  0  0  0  0  0  0  0
   10.1434  -14.2644   27.7177 C   0  0  0  0  0  0  0  0  0  0  0  0
   10.7221  -13.9405   26.5078 C   0  0  0  0  0  0  0  0  0  0  0  0
   11.4315  -14.8904   25.7740 C   0  0  0  0  0  0  0  0  0  0  0  0
   12.0299  -14.4951   24.4910 C   0  0  0  0  0  0  0  0  0  0  0  0
   11.7473  -15.5702   23.4171 C   0  0  2  0  0  0  0  0  0  0  0  0
   10.3321  -15.6901   23.2767 N   0  0  0  0  0  0  0  0  0  0  0  0
   12.3606  -16.8295   23.8464 C   0  0  0  0  0  0  0  0  0  0  0  0
   13.6912  -17.0910   24.0442 O   0  0  0  0  0  0  0  0  0  0  0  0
   11.5189  -16.1500   26.3194 C   0  0  0  0  0  0  0  0  0  0  0  0
   10.9456  -16.4937   27.5306 C   0  0  0  0  0  0  0  0  0  0  0  0
   11.5705  -17.8230   24.0697 O   0  0  0  0  0  0  0  0  0  0  0  0
  2  1  1  1
  3  2  1  0
  4  5  2  0
  4  3  1  0
  6  5  1  0
  7 12  2  0
  7  6  1  0
  8  7  1  0
  9 10  1  0
  9  8  2  0
 10 11  2  0
 11 12  1  0
 12  4  1  0
 13  2  1  0
 14 13  2  0
 16 15  1  6
 16 18  1  0
 17 16  1  0
 19 18  1  1
 19 21  1  0
 19 20  1  0
 20 13  1  0
 21 30  1  0
 22 21  2  0
 23 24  1  0
 24 25  2  0
 24 34  1  0
 25 26  1  0
 26 27  2  0
 27 28  1  0
 29 28  1  1
 29 31  1  0
 30 29  1  0
 31 35  2  0
 31 32  1  0
 33 27  1  0
 34 33  2  0
M  END
$$$$
