MTI.pdb
     RDKit          3D

 24 23  0  0  1  0  0  0  0  0999 V2000
    8.0541  -12.2934   19.7789 C   0  0  0  0  0  0  0  0  0  0  0  0
    8.3814  -13.1837   18.2172 S   0  0  0  0  0  0  0  0  0  0  0  0
    8.1115  -14.9731   18.5050 C   0  0  0  0  0  0  0  0  0  0  0  0
    7.4784  -15.1376   19.8597 C   0  0  0  0  0  0  0  0  0  0  0  0
    7.2468  -16.5662   20.2253 C   0  0  2  0  0  0  0  0  0  0  0  0
    6.4150  -17.2129   19.2602 N   0  0  0  0  0  0  0  0  0  0  0  0
    6.7827  -16.7520   21.6197 C   0  0  0  0  0  0  0  0  0  0  0  0
    5.5683  -16.5698   21.8926 O   0  0  0  0  0  0  0  0  0  0  0  0
    6.2227  -19.3549   23.8252 C   0  0  0  0  0  0  0  0  0  0  0  0
    7.2131  -18.4856   24.5595 C   0  0  1  0  0  0  0  0  0  0  0  0
    8.5157  -18.9751   24.2966 O   0  0  0  0  0  0  0  0  0  0  0  0
    7.2203  -17.0455   24.0998 C   0  0  2  0  0  0  0  0  0  0  0  0
    7.6457  -17.1296   22.6803 N   0  0  0  0  0  0  0  0  0  0  0  0
    8.1450  -16.1769   24.8325 C   0  0  0  0  0  0  0  0  0  0  0  0
    9.2628  -15.8877   24.2971 O   0  0  0  0  0  0  0  0  0  0  0  0
    6.2034  -11.9671   27.3129 C   0  0  0  0  0  0  0  0  0  0  0  0
    7.2015  -12.7774   26.4866 C   0  0  0  0  0  0  0  0  0  0  0  0
    8.0756  -13.5880   27.4012 C   0  0  2  0  0  0  0  0  0  0  0  0
    8.9959  -12.6098   28.1145 C   0  0  0  0  0  0  0  0  0  0  0  0
    8.8427  -14.6619   26.7046 C   0  0  2  0  0  0  0  0  0  0  0  0
    7.8924  -15.6245   26.1031 N   0  0  0  0  0  0  0  0  0  0  0  0
    9.6555  -15.4086   27.6744 C   0  0  0  0  0  0  0  0  0  0  0  0
   10.7867  -15.0369   28.0406 O   0  0  0  0  0  0  0  0  0  0  0  0
    9.1669  -16.5804   28.2214 O   0  0  0  0  0  0  0  0  0  0  0  0
  1  2  1  0
  2  3  1  0
  4  3  1  0
  5  7  1  0
  5  4  1  0
  5  6  1  6
  7  8  2  0
 10 12  1  0
 10  9  1  6
 11 10  1  0
 12 13  1  6
 13  7  1  0
 14 12  1  0
 15 14  2  0
 16 17  1  0
 17 18  1  0
 18 20  1  0
 18 19  1  6
 20 21  1  1
 20 22  1  0
 21 14  1  0
 22 24  1  0
 23 22  2  0
M  END
$$$$
