MTI.pdb
     RDKit          3D

 24 23  0  0  1  0  0  0  0  0999 V2000
    6.8982  -11.8484   19.7992 C   0  0  0  0  0  0  0  0  0  0  0  0
    8.1702  -12.4714   18.6448 S   0  0  0  0  0  0  0  0  0  0  0  0
    8.2346  -14.2972   18.7871 C   0  0  0  0  0  0  0  0  0  0  0  0
    7.6813  -14.6802   20.1324 C   0  0  0  0  0  0  0  0  0  0  0  0
    7.6152  -16.1575   20.3364 C   0  0  2  0  0  0  0  0  0  0  0  0
    6.7954  -16.7751   19.3424 N   0  0  0  0  0  0  0  0  0  0  0  0
    7.2564  -16.5480   21.7196 C   0  0  0  0  0  0  0  0  0  0  0  0
    6.0536  -16.4876   22.0828 O   0  0  0  0  0  0  0  0  0  0  0  0
    7.8534  -19.0746   25.7720 C   0  0  0  0  0  0  0  0  0  0  0  0
    8.0512  -18.6538   24.3369 C   0  0  1  0  0  0  0  0  0  0  0  0
    7.0683  -19.2961   23.5452 O   0  0  0  0  0  0  0  0  0  0  0  0
    7.8574  -17.1731   24.1021 C   0  0  2  0  0  0  0  0  0  0  0  0
    8.2094  -16.9929   22.6715 N   0  0  0  0  0  0  0  0  0  0  0  0
    8.7093  -16.3096   24.9237 C   0  0  0  0  0  0  0  0  0  0  0  0
    9.8896  -16.0567   24.5203 O   0  0  0  0  0  0  0  0  0  0  0  0
    7.0334  -11.8055   26.9970 C   0  0  0  0  0  0  0  0  0  0  0  0
    8.0319  -12.7865   26.3837 C   0  0  0  0  0  0  0  0  0  0  0  0
    8.5647  -13.6999   27.4511 C   0  0  2  0  0  0  0  0  0  0  0  0
    9.4665  -12.8597   28.3420 C   0  0  0  0  0  0  0  0  0  0  0  0
    9.2756  -14.8985   26.9174 C   0  0  2  0  0  0  0  0  0  0  0  0
    8.3208  -15.7244   26.1444 N   0  0  0  0  0  0  0  0  0  0  0  0
    9.7629  -15.7292   28.0270 C   0  0  0  0  0  0  0  0  0  0  0  0
   10.9278  -15.6629   28.4636 O   0  0  0  0  0  0  0  0  0  0  0  0
    8.9110  -16.6339   28.6326 O   0  0  0  0  0  0  0  0  0  0  0  0
  1  2  1  0
  2  3  1  0
  4  3  1  0
  5  7  1  0
  5  4  1  0
  5  6  1  6
  7  8  2  0
 10 12  1  0
 10  9  1  1
 11 10  1  0
 12 13  1  6
 13  7  1  0
 14 12  1  0
 15 14  2  0
 16 17  1  0
 17 18  1  0
 18 20  1  0
 18 19  1  1
 20 21  1  6
 20 22  1  0
 21 14  1  0
 22 24  1  0
 23 22  2  0
M  END
$$$$
