MTI.pdb
     RDKit          3D

 24 23  0  0  1  0  0  0  0  0999 V2000
    7.4847  -12.0831   19.7865 C   0  0  0  0  0  0  0  0  0  0  0  0
    8.1868  -12.4910   18.1496 S   0  0  0  0  0  0  0  0  0  0  0  0
    8.6280  -14.2695   18.1373 C   0  0  0  0  0  0  0  0  0  0  0  0
    8.6236  -14.7612   19.5590 C   0  0  0  0  0  0  0  0  0  0  0  0
    8.9275  -16.2182   19.6728 C   0  0  2  0  0  0  0  0  0  0  0  0
    8.3556  -16.9467   18.5847 N   0  0  0  0  0  0  0  0  0  0  0  0
    8.5984  -16.7891   20.9995 C   0  0  0  0  0  0  0  0  0  0  0  0
    7.9007  -17.8339   21.0631 O   0  0  0  0  0  0  0  0  0  0  0  0
    8.4956  -18.9878   22.3005 C   0  0  0  0  0  0  0  0  0  0  0  0
    9.0987  -18.2225   23.4522 C   0  0  1  0  0  0  0  0  0  0  0  0
   10.5012  -18.1673   23.2640 O   0  0  0  0  0  0  0  0  0  0  0  0
    8.6433  -16.7834   23.5346 C   0  0  2  0  0  0  0  0  0  0  0  0
    9.0334  -16.2133   22.2208 N   0  0  0  0  0  0  0  0  0  0  0  0
    9.2713  -16.0063   24.6061 C   0  0  0  0  0  0  0  0  0  0  0  0
   10.4606  -15.5858   24.4372 O   0  0  0  0  0  0  0  0  0  0  0  0
    6.4297  -12.0522   26.2386 C   0  0  0  0  0  0  0  0  0  0  0  0
    7.5912  -12.9512   25.8164 C   0  0  0  0  0  0  0  0  0  0  0  0
    8.1721  -13.6290   27.0249 C   0  0  2  0  0  0  0  0  0  0  0  0
    8.6954  -12.5314   27.9383 C   0  0  0  0  0  0  0  0  0  0  0  0
    9.2294  -14.6314   26.7025 C   0  0  2  0  0  0  0  0  0  0  0  0
    8.6542  -15.6791   25.8291 N   0  0  0  0  0  0  0  0  0  0  0  0
    9.6826  -15.2969   27.9316 C   0  0  0  0  0  0  0  0  0  0  0  0
   10.4341  -14.7506   28.7614 O   0  0  0  0  0  0  0  0  0  0  0  0
    9.2712  -16.5880   28.2045 O   0  0  0  0  0  0  0  0  0  0  0  0
  1  2  1  0
  2  3  1  0
  4  3  1  0
  5  7  1  0
  5  4  1  0
  5  6  1  6
  7  8  2  0
 10 12  1  0
 10  9  1  6
 11 10  1  0
 12 13  1  6
 13  7  1  0
 14 12  1  0
 15 14  2  0
 16 17  1  0
 17 18  1  0
 18 20  1  0
 18 19  1  1
 20 21  1  6
 20 22  1  0
 21 14  1  0
 22 24  1  0
 23 22  2  0
M  END
$$$$
