MTI.pdb
     RDKit          3D

 24 23  0  0  1  0  0  0  0  0999 V2000
    7.3161  -12.1447   19.7102 C   0  0  0  0  0  0  0  0  0  0  0  0
    8.3462  -12.4493   18.2321 S   0  0  0  0  0  0  0  0  0  0  0  0
    8.8492  -14.2114   18.2318 C   0  0  0  0  0  0  0  0  0  0  0  0
    8.6695  -14.7482   19.6255 C   0  0  0  0  0  0  0  0  0  0  0  0
    9.0087  -16.1973   19.7402 C   0  0  2  0  0  0  0  0  0  0  0  0
    8.4603  -16.9391   18.6491 N   0  0  0  0  0  0  0  0  0  0  0  0
    8.6874  -16.7768   21.0651 C   0  0  0  0  0  0  0  0  0  0  0  0
    7.9100  -17.7635   21.1321 O   0  0  0  0  0  0  0  0  0  0  0  0
    8.7113  -19.0599   22.3617 C   0  0  0  0  0  0  0  0  0  0  0  0
    9.3212  -18.2851   23.5034 C   0  0  1  0  0  0  0  0  0  0  0  0
   10.7192  -18.2064   23.2912 O   0  0  0  0  0  0  0  0  0  0  0  0
    8.8434  -16.8538   23.5946 C   0  0  2  0  0  0  0  0  0  0  0  0
    9.2162  -16.2722   22.2809 N   0  0  0  0  0  0  0  0  0  0  0  0
    9.4653  -16.0711   24.6655 C   0  0  0  0  0  0  0  0  0  0  0  0
   10.6223  -15.5793   24.4675 O   0  0  0  0  0  0  0  0  0  0  0  0
    6.5232  -12.2775   26.4926 C   0  0  0  0  0  0  0  0  0  0  0  0
    7.6982  -13.1282   26.0117 C   0  0  0  0  0  0  0  0  0  0  0  0
    8.3358  -13.8194   27.1836 C   0  0  2  0  0  0  0  0  0  0  0  0
    8.8322  -12.7306   28.1222 C   0  0  0  0  0  0  0  0  0  0  0  0
    9.4278  -14.7630   26.8042 C   0  0  2  0  0  0  0  0  0  0  0  0
    8.8757  -15.8125   25.9181 N   0  0  0  0  0  0  0  0  0  0  0  0
    9.9458  -15.4394   28.0013 C   0  0  0  0  0  0  0  0  0  0  0  0
    9.5110  -16.5355   28.4031 O   0  0  0  0  0  0  0  0  0  0  0  0
   10.9622  -14.8552   28.7338 O   0  0  0  0  0  0  0  0  0  0  0  0
  1  2  1  0
  2  3  1  0
  4  3  1  0
  5  7  1  0
  5  4  1  0
  5  6  1  6
  7  8  2  0
 10 12  1  0
 10  9  1  6
 11 10  1  0
 12 13  1  6
 13  7  1  0
 14 12  1  0
 15 14  2  0
 16 17  1  0
 17 18  1  0
 18 20  1  0
 18 19  1  1
 20 21  1  6
 20 22  1  0
 21 14  1  0
 22 24  1  0
 23 22  2  0
M  END
$$$$
