MTI.pdb
     RDKit          3D

 24 23  0  0  1  0  0  0  0  0999 V2000
    8.3492  -11.6208   19.8843 C   0  0  0  0  0  0  0  0  0  0  0  0
    8.0549  -12.4756   18.2964 S   0  0  0  0  0  0  0  0  0  0  0  0
    8.7149  -14.1801   18.4271 C   0  0  0  0  0  0  0  0  0  0  0  0
    8.1422  -14.8084   19.6681 C   0  0  0  0  0  0  0  0  0  0  0  0
    8.6091  -16.2102   19.8803 C   0  0  2  0  0  0  0  0  0  0  0  0
    8.1250  -17.0724   18.8489 N   0  0  0  0  0  0  0  0  0  0  0  0
    8.3449  -16.7212   21.2454 C   0  0  0  0  0  0  0  0  0  0  0  0
    7.3028  -17.3924   21.4594 O   0  0  0  0  0  0  0  0  0  0  0  0
    8.7095  -19.3356   22.9218 C   0  0  0  0  0  0  0  0  0  0  0  0
    9.4391  -18.3391   23.7882 C   0  0  1  0  0  0  0  0  0  0  0  0
   10.7727  -18.2372   23.3229 O   0  0  0  0  0  0  0  0  0  0  0  0
    8.8757  -16.9383   23.7152 C   0  0  2  0  0  0  0  0  0  0  0  0
    9.2159  -16.4915   22.3413 N   0  0  0  0  0  0  0  0  0  0  0  0
    9.4468  -16.0008   24.6854 C   0  0  0  0  0  0  0  0  0  0  0  0
   10.4800  -15.3356   24.3543 O   0  0  0  0  0  0  0  0  0  0  0  0
    6.5343  -12.4343   27.0328 C   0  0  0  0  0  0  0  0  0  0  0  0
    7.7007  -13.1697   26.3739 C   0  0  0  0  0  0  0  0  0  0  0  0
    8.5127  -13.8742   27.4235 C   0  0  2  0  0  0  0  0  0  0  0  0
    9.1031  -12.7981   28.3215 C   0  0  0  0  0  0  0  0  0  0  0  0
    9.5679  -14.7705   26.8668 C   0  0  2  0  0  0  0  0  0  0  0  0
    8.9352  -15.7703   25.9771 N   0  0  0  0  0  0  0  0  0  0  0  0
   10.2207  -15.5135   27.9533 C   0  0  0  0  0  0  0  0  0  0  0  0
    9.7929  -16.6013   28.3842 O   0  0  0  0  0  0  0  0  0  0  0  0
   11.3635  -15.0054   28.5422 O   0  0  0  0  0  0  0  0  0  0  0  0
  1  2  1  0
  2  3  1  0
  4  3  1  0
  5  7  1  0
  5  4  1  0
  5  6  1  6
  7  8  2  0
 10 12  1  0
 10  9  1  6
 11 10  1  0
 12 13  1  6
 13  7  1  0
 14 12  1  0
 15 14  2  0
 16 17  1  0
 17 18  1  0
 18 20  1  0
 18 19  1  1
 20 21  1  6
 20 22  1  0
 21 14  1  0
 22 24  1  0
 23 22  2  0
M  END
$$$$
