MTI.pdb
     RDKit          3D

 24 23  0  0  1  0  0  0  0  0999 V2000
    9.3177  -12.3878   19.7030 C   0  0  0  0  0  0  0  0  0  0  0  0
    8.1182  -12.7573   18.3750 S   0  0  0  0  0  0  0  0  0  0  0  0
    7.4432  -14.4373   18.6575 C   0  0  0  0  0  0  0  0  0  0  0  0
    8.5880  -15.3466   19.0118 C   0  0  0  0  0  0  0  0  0  0  0  0
    8.1432  -16.7122   19.4186 C   0  0  2  0  0  0  0  0  0  0  0  0
    7.3768  -17.3304   18.3832 N   0  0  0  0  0  0  0  0  0  0  0  0
    7.4792  -16.7480   20.7423 C   0  0  0  0  0  0  0  0  0  0  0  0
    6.2228  -16.7624   20.7994 O   0  0  0  0  0  0  0  0  0  0  0  0
    7.0790  -18.5982   25.0382 C   0  0  0  0  0  0  0  0  0  0  0  0
    7.5191  -18.3006   23.6263 C   0  0  1  0  0  0  0  0  0  0  0  0
    6.6065  -18.9174   22.7362 O   0  0  0  0  0  0  0  0  0  0  0  0
    7.4961  -16.8301   23.2764 C   0  0  2  0  0  0  0  0  0  0  0  0
    8.1936  -16.7671   21.9677 N   0  0  0  0  0  0  0  0  0  0  0  0
    8.1865  -15.9649   24.2361 C   0  0  0  0  0  0  0  0  0  0  0  0
    9.4555  -15.8854   24.1815 O   0  0  0  0  0  0  0  0  0  0  0  0
    5.6085  -11.7022   26.5978 C   0  0  0  0  0  0  0  0  0  0  0  0
    6.6562  -12.5163   25.8393 C   0  0  0  0  0  0  0  0  0  0  0  0
    7.4370  -13.3617   26.8053 C   0  0  2  0  0  0  0  0  0  0  0  0
    8.2039  -12.4076   27.7077 C   0  0  0  0  0  0  0  0  0  0  0  0
    8.3423  -14.3479   26.1460 C   0  0  2  0  0  0  0  0  0  0  0  0
    7.5486  -15.1986   25.2308 N   0  0  0  0  0  0  0  0  0  0  0  0
    8.9358  -15.2372   27.1539 C   0  0  0  0  0  0  0  0  0  0  0  0
    8.3143  -16.1832   27.6743 O   0  0  0  0  0  0  0  0  0  0  0  0
   10.2416  -15.0379   27.5613 O   0  0  0  0  0  0  0  0  0  0  0  0
  1  2  1  0
  2  3  1  0
  4  3  1  0
  5  7  1  0
  5  4  1  0
  5  6  1  6
  7  8  2  0
 10 12  1  0
 10  9  1  1
 11 10  1  0
 12 13  1  6
 13  7  1  0
 14 12  1  0
 15 14  2  0
 16 17  1  0
 17 18  1  0
 18 20  1  0
 18 19  1  6
 20 21  1  6
 20 22  1  0
 21 14  1  0
 22 24  1  0
 23 22  2  0
M  END
$$$$
