MTI.pdb
     RDKit          3D

 24 23  0  0  1  0  0  0  0  0999 V2000
    8.3828  -11.6802   19.6145 C   0  0  0  0  0  0  0  0  0  0  0  0
    8.0874  -12.5901   18.0577 S   0  0  0  0  0  0  0  0  0  0  0  0
    8.3822  -14.3723   18.3655 C   0  0  0  0  0  0  0  0  0  0  0  0
    7.7899  -14.7188   19.7042 C   0  0  0  0  0  0  0  0  0  0  0  0
    7.8954  -16.1718   20.0297 C   0  0  2  0  0  0  0  0  0  0  0  0
    7.3486  -16.9724   18.9801 N   0  0  0  0  0  0  0  0  0  0  0  0
    7.3658  -16.5177   21.3692 C   0  0  0  0  0  0  0  0  0  0  0  0
    6.1211  -16.5602   21.5458 O   0  0  0  0  0  0  0  0  0  0  0  0
    6.8536  -19.2080   23.2946 C   0  0  0  0  0  0  0  0  0  0  0  0
    7.7087  -18.3508   24.1945 C   0  0  1  0  0  0  0  0  0  0  0  0
    9.0609  -18.7343   24.0210 O   0  0  0  0  0  0  0  0  0  0  0  0
    7.6590  -16.8770   23.8619 C   0  0  2  0  0  0  0  0  0  0  0  0
    8.1981  -16.8078   22.4808 N   0  0  0  0  0  0  0  0  0  0  0  0
    8.4660  -16.0268   24.7407 C   0  0  0  0  0  0  0  0  0  0  0  0
    9.5985  -15.6218   24.3244 O   0  0  0  0  0  0  0  0  0  0  0  0
    6.5517  -11.7270   26.9046 C   0  0  0  0  0  0  0  0  0  0  0  0
    7.5053  -12.7393   26.2711 C   0  0  0  0  0  0  0  0  0  0  0  0
    8.1392  -13.5781   27.3444 C   0  0  2  0  0  0  0  0  0  0  0  0
    8.9683  -12.6392   28.2069 C   0  0  0  0  0  0  0  0  0  0  0  0
    8.9548  -14.7118   26.8188 C   0  0  2  0  0  0  0  0  0  0  0  0
    8.0830  -15.6121   26.0309 N   0  0  0  0  0  0  0  0  0  0  0  0
    9.4940  -15.5023   27.9339 C   0  0  0  0  0  0  0  0  0  0  0  0
    8.8725  -16.4450   28.4601 O   0  0  0  0  0  0  0  0  0  0  0  0
   10.7456  -15.2081   28.4415 O   0  0  0  0  0  0  0  0  0  0  0  0
  1  2  1  0
  2  3  1  0
  4  3  1  0
  5  7  1  0
  5  4  1  0
  5  6  1  6
  7  8  2  0
 10 12  1  0
 10  9  1  6
 11 10  1  0
 12 13  1  6
 13  7  1  0
 14 12  1  0
 15 14  2  0
 16 17  1  0
 17 18  1  0
 18 20  1  0
 18 19  1  6
 20 21  1  6
 20 22  1  0
 21 14  1  0
 22 24  1  0
 23 22  2  0
M  END
$$$$
