MTI.pdb
     RDKit          3D

 24 23  0  0  1  0  0  0  0  0999 V2000
    6.8053  -11.7059   25.0036 C   0  0  0  0  0  0  0  0  0  0  0  0
    6.2005  -13.2316   25.8068 S   0  0  0  0  0  0  0  0  0  0  0  0
    6.3549  -14.6130   24.6128 C   0  0  0  0  0  0  0  0  0  0  0  0
    7.2315  -14.1545   23.4796 C   0  0  0  0  0  0  0  0  0  0  0  0
    7.4251  -15.2006   22.4324 C   0  0  2  0  0  0  0  0  0  0  0  0
    6.1687  -15.6757   21.9453 N   0  0  0  0  0  0  0  0  0  0  0  0
    8.3443  -16.2867   22.8443 C   0  0  0  0  0  0  0  0  0  0  0  0
    8.2784  -17.4008   22.2640 O   0  0  0  0  0  0  0  0  0  0  0  0
   10.0917  -17.8170   21.7512 C   0  0  0  0  0  0  0  0  0  0  0  0
   11.0005  -17.4614   22.9016 C   0  0  1  0  0  0  0  0  0  0  0  0
   11.6493  -16.2404   22.5952 O   0  0  0  0  0  0  0  0  0  0  0  0
   10.2716  -17.2180   24.2034 C   0  0  2  0  0  0  0  0  0  0  0  0
    9.3095  -16.1371   23.8731 N   0  0  0  0  0  0  0  0  0  0  0  0
   11.1285  -16.7833   25.3092 C   0  0  0  0  0  0  0  0  0  0  0  0
   11.8702  -15.7629   25.1404 O   0  0  0  0  0  0  0  0  0  0  0  0
    9.4022  -13.5080   27.4983 C   0  0  0  0  0  0  0  0  0  0  0  0
   10.5825  -14.4255   27.1810 C   0  0  0  0  0  0  0  0  0  0  0  0
   10.5381  -15.6341   28.0724 C   0  0  2  0  0  0  0  0  0  0  0  0
   10.6342  -15.1307   29.5043 C   0  0  0  0  0  0  0  0  0  0  0  0
   11.5936  -16.6445   27.7691 C   0  0  2  0  0  0  0  0  0  0  0  0
   11.1984  -17.4128   26.5671 N   0  0  0  0  0  0  0  0  0  0  0  0
   11.7035  -17.6042   28.8763 C   0  0  0  0  0  0  0  0  0  0  0  0
   10.9187  -18.5599   29.0263 O   0  0  0  0  0  0  0  0  0  0  0  0
   12.7147  -17.4638   29.8083 O   0  0  0  0  0  0  0  0  0  0  0  0
  1  2  1  0
  2  3  1  0
  4  3  1  0
  5  7  1  0
  5  4  1  0
  5  6  1  1
  7  8  2  0
 10 12  1  0
 10  9  1  6
 11 10  1  0
 12 13  1  6
 13  7  1  0
 14 12  1  0
 15 14  2  0
 16 17  1  0
 17 18  1  0
 18 20  1  0
 18 19  1  1
 20 21  1  6
 20 22  1  0
 21 14  1  0
 22 24  1  0
 23 22  2  0
M  END
$$$$
