MTI.pdb
     RDKit          3D

 24 23  0  0  1  0  0  0  0  0999 V2000
    7.9442  -11.8149   18.9728 C   0  0  0  0  0  0  0  0  0  0  0  0
    7.0855  -13.1777   18.1101 S   0  0  0  0  0  0  0  0  0  0  0  0
    7.9602  -14.7428   18.4886 C   0  0  0  0  0  0  0  0  0  0  0  0
    9.1850  -14.4094   19.2957 C   0  0  0  0  0  0  0  0  0  0  0  0
    9.6052  -15.5183   20.2025 C   0  0  2  0  0  0  0  0  0  0  0  0
    9.5243  -16.7808   19.5383 N   0  0  0  0  0  0  0  0  0  0  0  0
    8.9199  -15.5002   21.5156 C   0  0  0  0  0  0  0  0  0  0  0  0
    8.8405  -14.4185   22.1526 O   0  0  0  0  0  0  0  0  0  0  0  0
    6.1316  -18.4497   22.3375 C   0  0  0  0  0  0  0  0  0  0  0  0
    6.9709  -17.9733   23.4970 C   0  0  1  0  0  0  0  0  0  0  0  0
    8.1126  -18.8059   23.5918 O   0  0  0  0  0  0  0  0  0  0  0  0
    7.5055  -16.5694   23.3281 C   0  0  2  0  0  0  0  0  0  0  0  0
    8.3395  -16.6536   22.1032 N   0  0  0  0  0  0  0  0  0  0  0  0
    8.3278  -16.0925   24.4429 C   0  0  0  0  0  0  0  0  0  0  0  0
    9.5936  -16.0955   24.3110 O   0  0  0  0  0  0  0  0  0  0  0  0
    6.6906  -11.6855   26.6660 C   0  0  0  0  0  0  0  0  0  0  0  0
    7.6239  -12.7439   26.0791 C   0  0  0  0  0  0  0  0  0  0  0  0
    8.0248  -13.7162   27.1521 C   0  0  2  0  0  0  0  0  0  0  0  0
    8.8968  -12.9527   28.1368 C   0  0  0  0  0  0  0  0  0  0  0  0
    8.7126  -14.9347   26.6333 C   0  0  2  0  0  0  0  0  0  0  0  0
    7.8224  -15.6208   25.6699 N   0  0  0  0  0  0  0  0  0  0  0  0
    8.9639  -15.8764   27.7329 C   0  0  0  0  0  0  0  0  0  0  0  0
    8.1758  -16.7926   28.0350 O   0  0  0  0  0  0  0  0  0  0  0  0
   10.1199  -15.7634   28.4824 O   0  0  0  0  0  0  0  0  0  0  0  0
  1  2  1  0
  2  3  1  0
  4  3  1  0
  5  7  1  0
  5  4  1  0
  5  6  1  6
  7  8  2  0
 10 12  1  0
 10  9  1  6
 11 10  1  0
 12 13  1  6
 13  7  1  0
 14 12  1  0
 15 14  2  0
 16 17  1  0
 17 18  1  0
 18 20  1  0
 18 19  1  1
 20 21  1  6
 20 22  1  0
 21 14  1  0
 22 24  1  0
 23 22  2  0
M  END
$$$$
