MTI.pdb
     RDKit          3D

 24 23  0  0  1  0  0  0  0  0999 V2000
    8.8908  -11.6301   19.5964 C   0  0  0  0  0  0  0  0  0  0  0  0
    8.4458  -12.3553   17.9793 S   0  0  0  0  0  0  0  0  0  0  0  0
    8.8770  -14.1361   18.0067 C   0  0  0  0  0  0  0  0  0  0  0  0
    8.2724  -14.7436   19.2430 C   0  0  0  0  0  0  0  0  0  0  0  0
    8.6949  -16.1582   19.4637 C   0  0  2  0  0  0  0  0  0  0  0  0
    8.2689  -16.9936   18.3856 N   0  0  0  0  0  0  0  0  0  0  0  0
    8.3234  -16.6851   20.7974 C   0  0  0  0  0  0  0  0  0  0  0  0
    7.5451  -17.6702   20.8741 O   0  0  0  0  0  0  0  0  0  0  0  0
    8.2548  -18.9276   22.1164 C   0  0  0  0  0  0  0  0  0  0  0  0
    8.9198  -18.1491   23.2243 C   0  0  1  0  0  0  0  0  0  0  0  0
   10.3067  -18.0772   22.9472 O   0  0  0  0  0  0  0  0  0  0  0  0
    8.4521  -16.7154   23.3294 C   0  0  2  0  0  0  0  0  0  0  0  0
    8.8046  -16.1310   22.0114 N   0  0  0  0  0  0  0  0  0  0  0  0
    9.0978  -15.9405   24.3919 C   0  0  0  0  0  0  0  0  0  0  0  0
   10.2434  -15.4340   24.1663 O   0  0  0  0  0  0  0  0  0  0  0  0
    6.0371  -12.4501   26.8685 C   0  0  0  0  0  0  0  0  0  0  0  0
    7.1916  -13.1574   26.1597 C   0  0  0  0  0  0  0  0  0  0  0  0
    8.0425  -13.8741   27.1696 C   0  0  2  0  0  0  0  0  0  0  0  0
    8.5860  -12.8175   28.1188 C   0  0  0  0  0  0  0  0  0  0  0  0
    9.1362  -14.6894   26.5645 C   0  0  2  0  0  0  0  0  0  0  0  0
    8.5433  -15.7045   25.6648 N   0  0  0  0  0  0  0  0  0  0  0  0
    9.8611  -15.4167   27.6154 C   0  0  0  0  0  0  0  0  0  0  0  0
    9.5227  -16.5469   28.0153 O   0  0  0  0  0  0  0  0  0  0  0  0
   10.9729  -14.8440   28.2042 O   0  0  0  0  0  0  0  0  0  0  0  0
  1  2  1  0
  2  3  1  0
  4  3  1  0
  5  7  1  0
  5  4  1  0
  5  6  1  6
  7  8  2  0
 10 12  1  0
 10  9  1  6
 11 10  1  0
 12 13  1  6
 13  7  1  0
 14 12  1  0
 15 14  2  0
 16 17  1  0
 17 18  1  0
 18 20  1  0
 18 19  1  1
 20 21  1  6
 20 22  1  0
 21 14  1  0
 22 24  1  0
 23 22  2  0
M  END
$$$$
