MTI.pdb
     RDKit          3D

 24 23  0  0  1  0  0  0  0  0999 V2000
   14.9141  -21.0303   21.2893 C   0  0  0  0  0  0  0  0  0  0  0  0
   14.0551  -19.4712   21.7018 S   0  0  0  0  0  0  0  0  0  0  0  0
   12.7537  -19.1788   20.4453 C   0  0  0  0  0  0  0  0  0  0  0  0
   12.0321  -17.9097   20.8077 C   0  0  0  0  0  0  0  0  0  0  0  0
   10.8722  -17.6229   19.9128 C   0  0  2  0  0  0  0  0  0  0  0  0
   11.3077  -17.3716   18.5753 N   0  0  0  0  0  0  0  0  0  0  0  0
    9.9622  -16.5798   20.4402 C   0  0  0  0  0  0  0  0  0  0  0  0
    9.9395  -15.4487   19.8902 O   0  0  0  0  0  0  0  0  0  0  0  0
    6.3978  -16.4582   20.4697 C   0  0  0  0  0  0  0  0  0  0  0  0
    6.8267  -16.2864   21.9057 C   0  0  1  0  0  0  0  0  0  0  0  0
    6.8698  -17.5648   22.5134 O   0  0  0  0  0  0  0  0  0  0  0  0
    8.2173  -15.7149   22.0637 C   0  0  2  0  0  0  0  0  0  0  0  0
    9.1019  -16.7896   21.5484 N   0  0  0  0  0  0  0  0  0  0  0  0
    8.5924  -15.3983   23.4441 C   0  0  0  0  0  0  0  0  0  0  0  0
    9.6666  -15.8945   23.9126 O   0  0  0  0  0  0  0  0  0  0  0  0
    5.7806  -11.4783   26.0554 C   0  0  0  0  0  0  0  0  0  0  0  0
    7.0952  -12.0834   25.5642 C   0  0  0  0  0  0  0  0  0  0  0  0
    7.3986  -13.3333   26.3410 C   0  0  2  0  0  0  0  0  0  0  0  0
    7.9074  -12.8932   27.7049 C   0  0  0  0  0  0  0  0  0  0  0  0
    8.3621  -14.2463   25.6592 C   0  0  2  0  0  0  0  0  0  0  0  0
    7.8487  -14.5731   24.3098 N   0  0  0  0  0  0  0  0  0  0  0  0
    8.4644  -15.5118   26.3987 C   0  0  0  0  0  0  0  0  0  0  0  0
    9.3682  -15.7445   27.2238 O   0  0  0  0  0  0  0  0  0  0  0  0
    7.5281  -16.5069   26.1888 O   0  0  0  0  0  0  0  0  0  0  0  0
  1  2  1  0
  2  3  1  0
  4  3  1  0
  5  7  1  0
  5  4  1  0
  5  6  1  6
  7  8  2  0
 10 12  1  0
 10  9  1  6
 11 10  1  0
 12 13  1  1
 13  7  1  0
 14 12  1  0
 15 14  2  0
 16 17  1  0
 17 18  1  0
 18 20  1  0
 18 19  1  1
 20 21  1  6
 20 22  1  0
 21 14  1  0
 22 24  1  0
 23 22  2  0
M  END
$$$$
