MTI.pdb
     RDKit          3D

 24 23  0  0  1  0  0  0  0  0999 V2000
    7.9375  -11.7656   19.4994 C   0  0  0  0  0  0  0  0  0  0  0  0
    8.5245  -12.5262   17.9451 S   0  0  0  0  0  0  0  0  0  0  0  0
    9.0414  -14.2473   18.3036 C   0  0  0  0  0  0  0  0  0  0  0  0
    7.8488  -14.9904   18.8406 C   0  0  0  0  0  0  0  0  0  0  0  0
    8.2004  -16.3273   19.4040 C   0  0  2  0  0  0  0  0  0  0  0  0
    7.9464  -17.3651   18.4554 N   0  0  0  0  0  0  0  0  0  0  0  0
    7.5989  -16.5858   20.7328 C   0  0  0  0  0  0  0  0  0  0  0  0
    6.5227  -17.2330   20.8049 O   0  0  0  0  0  0  0  0  0  0  0  0
    6.6154  -18.5158   22.2593 C   0  0  0  0  0  0  0  0  0  0  0  0
    7.4452  -17.8838   23.3492 C   0  0  1  0  0  0  0  0  0  0  0  0
    8.7776  -18.3454   23.2184 O   0  0  0  0  0  0  0  0  0  0  0  0
    7.5271  -16.3770   23.2587 C   0  0  2  0  0  0  0  0  0  0  0  0
    8.1788  -16.1365   21.9470 N   0  0  0  0  0  0  0  0  0  0  0  0
    8.3193  -15.7454   24.3169 C   0  0  0  0  0  0  0  0  0  0  0  0
    9.5859  -15.7179   24.1956 O   0  0  0  0  0  0  0  0  0  0  0  0
    5.9077  -11.7783   27.4339 C   0  0  0  0  0  0  0  0  0  0  0  0
    6.5046  -13.1453   27.1015 C   0  0  0  0  0  0  0  0  0  0  0  0
    7.8786  -12.9698   26.5194 C   0  0  2  0  0  0  0  0  0  0  0  0
    7.7126  -12.1967   25.2203 C   0  0  0  0  0  0  0  0  0  0  0  0
    8.6116  -14.2526   26.3101 C   0  0  2  0  0  0  0  0  0  0  0  0
    7.7836  -15.1540   25.4774 N   0  0  0  0  0  0  0  0  0  0  0  0
    8.8206  -14.9279   27.5982 C   0  0  0  0  0  0  0  0  0  0  0  0
    8.2532  -15.9935   27.9056 O   0  0  0  0  0  0  0  0  0  0  0  0
    9.6809  -14.3777   28.5298 O   0  0  0  0  0  0  0  0  0  0  0  0
  1  2  1  0
  2  3  1  0
  4  3  1  0
  5  7  1  0
  5  4  1  0
  5  6  1  6
  7  8  2  0
 10 12  1  0
 10  9  1  6
 11 10  1  0
 12 13  1  6
 13  7  1  0
 14 12  1  0
 15 14  2  0
 16 17  1  0
 17 18  1  0
 18 20  1  0
 18 19  1  6
 20 21  1  6
 20 22  1  0
 21 14  1  0
 22 24  1  0
 23 22  2  0
M  END
$$$$
