TIP.pdb
     RDKit          3D

 23 23  0  0  1  0  0  0  0  0999 V2000
    7.6245  -17.9096   22.6253 C   0  0  0  0  0  0  0  0  0  0  0  0
    8.4067  -17.3459   21.4400 C   0  0  1  0  0  0  0  0  0  0  0  0
    8.0643  -17.9612   20.2564 O   0  0  0  0  0  0  0  0  0  0  0  0
    8.1425  -15.8552   21.4247 C   0  0  2  0  0  0  0  0  0  0  0  0
    8.5890  -15.2689   20.1759 N   0  0  0  0  0  0  0  0  0  0  0  0
    8.7569  -15.1723   22.5924 C   0  0  0  0  0  0  0  0  0  0  0  0
    9.9988  -14.9813   22.5871 O   0  0  0  0  0  0  0  0  0  0  0  0
    5.4978  -12.9859   26.7186 C   0  0  0  0  0  0  0  0  0  0  0  0
    6.3770  -13.8736   25.8657 C   0  0  0  0  0  0  0  0  0  0  0  0
    7.5968  -13.1677   25.3686 C   0  0  2  0  0  0  0  0  0  0  0  0
    7.3792  -12.0629   24.4173 C   0  0  0  0  0  0  0  0  0  0  0  0
    8.6111  -14.2264   24.9442 C   0  0  2  0  0  0  0  0  0  0  0  0
    8.0009  -14.7398   23.6874 N   0  0  0  0  0  0  0  0  0  0  0  0
    8.7617  -15.3124   25.9114 C   0  0  0  0  0  0  0  0  0  0  0  0
    8.1815  -16.4131   25.6092 O   0  0  0  0  0  0  0  0  0  0  0  0
    9.4830  -15.2494   27.1247 N   0  0  0  0  0  0  0  0  0  0  0  0
    9.3632  -14.1334   28.0886 C   0  0  0  0  0  0  0  0  0  0  0  0
   10.7598  -13.9774   28.6573 C   0  0  0  0  0  0  0  0  0  0  0  0
   11.5575  -15.1644   28.1324 C   0  0  0  0  0  0  0  0  0  0  0  0
   10.4470  -16.1136   27.7471 C   0  0  1  0  0  0  0  0  0  0  0  0
    9.8880  -16.7830   28.9616 C   0  0  0  0  0  0  0  0  0  0  0  0
    8.7979  -16.4579   29.4347 O   0  0  0  0  0  0  0  0  0  0  0  0
   10.6288  -17.7882   29.5516 O   0  0  0  0  0  0  0  0  0  0  0  0
  2  1  1  1
  2  3  1  0
  4  5  1  6
  4  6  1  0
  4  2  1  0
  6  7  2  0
  9 10  1  0
  9  8  1  0
 10 12  1  0
 10 11  1  6
 12 14  1  0
 12 13  1  6
 13  6  1  0
 14 15  2  0
 14 16  1  0
 16 20  1  0
 16 17  1  0
 17 18  1  0
 19 18  1  0
 20 19  1  0
 21 23  1  0
 20 21  1  1
 22 21  2  0
M  END
$$$$
