TIP.pdb
     RDKit          3D

 23 23  0  0  1  0  0  0  0  0999 V2000
    8.0474  -19.9496   27.6796 C   0  0  0  0  0  0  0  0  0  0  0  0
    7.9473  -18.9099   26.5644 C   0  0  1  0  0  0  0  0  0  0  0  0
    8.4540  -19.3805   25.3734 O   0  0  0  0  0  0  0  0  0  0  0  0
    6.4860  -18.5253   26.4697 C   0  0  2  0  0  0  0  0  0  0  0  0
    5.6827  -19.6621   26.0640 N   0  0  0  0  0  0  0  0  0  0  0  0
    6.2767  -17.3653   25.5653 C   0  0  0  0  0  0  0  0  0  0  0  0
    5.7339  -17.5678   24.4503 O   0  0  0  0  0  0  0  0  0  0  0  0
    6.1776  -12.4402   27.6181 C   0  0  0  0  0  0  0  0  0  0  0  0
    6.0201  -13.5940   26.6526 C   0  0  0  0  0  0  0  0  0  0  0  0
    7.2321  -13.8029   25.8037 C   0  0  2  0  0  0  0  0  0  0  0  0
    7.7834  -12.6110   25.1342 C   0  0  0  0  0  0  0  0  0  0  0  0
    6.9761  -15.0140   24.9105 C   0  0  2  0  0  0  0  0  0  0  0  0
    6.6623  -16.0666   25.9149 N   0  0  0  0  0  0  0  0  0  0  0  0
    8.1367  -15.4081   24.1135 C   0  0  0  0  0  0  0  0  0  0  0  0
    8.9948  -16.1506   24.7068 O   0  0  0  0  0  0  0  0  0  0  0  0
    8.3820  -15.0476   22.7695 N   0  0  0  0  0  0  0  0  0  0  0  0
    7.9200  -13.7774   22.1677 C   0  0  0  0  0  0  0  0  0  0  0  0
    7.5776  -14.1431   20.7369 C   0  0  0  0  0  0  0  0  0  0  0  0
    8.0677  -15.5726   20.5443 C   0  0  0  0  0  0  0  0  0  0  0  0
    9.0565  -15.6965   21.6798 C   0  0  1  0  0  0  0  0  0  0  0  0
   10.3379  -15.0085   21.3332 C   0  0  0  0  0  0  0  0  0  0  0  0
   11.0946  -15.4498   20.4668 O   0  0  0  0  0  0  0  0  0  0  0  0
   10.6616  -13.8509   22.0133 O   0  0  0  0  0  0  0  0  0  0  0  0
  2  1  1  1
  2  3  1  0
  4  5  1  6
  4  6  1  0
  4  2  1  0
  6  7  2  0
  9 10  1  0
  9  8  1  0
 10 12  1  0
 10 11  1  6
 12 14  1  0
 12 13  1  1
 13  6  1  0
 14 15  2  0
 14 16  1  0
 16 20  1  0
 16 17  1  0
 17 18  1  0
 19 18  1  0
 20 19  1  0
 21 23  1  0
 20 21  1  6
 22 21  2  0
M  END
$$$$
