TIP.pdb
     RDKit          3D

 23 23  0  0  1  0  0  0  0  0999 V2000
    6.0893  -16.9638   20.4532 C   0  0  0  0  0  0  0  0  0  0  0  0
    7.0693  -16.7205   21.6001 C   0  0  1  0  0  0  0  0  0  0  0  0
    8.1905  -17.5137   21.4976 O   0  0  0  0  0  0  0  0  0  0  0  0
    7.3923  -15.2415   21.5786 C   0  0  2  0  0  0  0  0  0  0  0  0
    8.0619  -14.8817   20.3438 N   0  0  0  0  0  0  0  0  0  0  0  0
    8.1883  -14.8318   22.7643 C   0  0  0  0  0  0  0  0  0  0  0  0
    9.4300  -14.6933   22.6311 O   0  0  0  0  0  0  0  0  0  0  0  0
    5.9549  -11.5795   26.0541 C   0  0  0  0  0  0  0  0  0  0  0  0
    6.9602  -12.4340   25.3141 C   0  0  0  0  0  0  0  0  0  0  0  0
    7.4248  -13.6034   26.1203 C   0  0  2  0  0  0  0  0  0  0  0  0
    7.8650  -13.3227   27.4988 C   0  0  0  0  0  0  0  0  0  0  0  0
    8.3928  -14.4113   25.2599 C   0  0  2  0  0  0  0  0  0  0  0  0
    7.6019  -14.5978   24.0128 N   0  0  0  0  0  0  0  0  0  0  0  0
    8.7411  -15.7099   25.8344 C   0  0  0  0  0  0  0  0  0  0  0  0
    7.7839  -16.5557   25.9231 O   0  0  0  0  0  0  0  0  0  0  0  0
   10.0213  -16.1011   26.2866 N   0  0  0  0  0  0  0  0  0  0  0  0
   11.1591  -15.1655   26.4257 C   0  0  0  0  0  0  0  0  0  0  0  0
   12.3727  -15.9924   26.0497 C   0  0  0  0  0  0  0  0  0  0  0  0
   11.8746  -17.4261   25.9182 C   0  0  0  0  0  0  0  0  0  0  0  0
   10.5825  -17.3577   26.6982 C   0  0  1  0  0  0  0  0  0  0  0  0
   10.8578  -17.3867   28.1675 C   0  0  0  0  0  0  0  0  0  0  0  0
   11.2375  -18.4128   28.7337 O   0  0  0  0  0  0  0  0  0  0  0  0
   10.6756  -16.2229   28.8884 O   0  0  0  0  0  0  0  0  0  0  0  0
  2  1  1  6
  2  3  1  0
  4  5  1  6
  4  6  1  0
  4  2  1  0
  6  7  2  0
  9 10  1  0
  9  8  1  0
 10 12  1  0
 10 11  1  1
 12 14  1  0
 12 13  1  6
 13  6  1  0
 14 15  2  0
 14 16  1  0
 16 20  1  0
 16 17  1  0
 17 18  1  0
 19 18  1  0
 20 19  1  0
 21 23  1  0
 20 21  1  1
 22 21  2  0
M  END
$$$$
