TIP.pdb
     RDKit          3D

 23 23  0  0  1  0  0  0  0  0999 V2000
    5.2944  -16.8969   20.4066 C   0  0  0  0  0  0  0  0  0  0  0  0
    6.4218  -16.6653   21.4116 C   0  0  1  0  0  0  0  0  0  0  0  0
    7.5173  -17.4578   21.1498 O   0  0  0  0  0  0  0  0  0  0  0  0
    6.7414  -15.1863   21.3608 C   0  0  2  0  0  0  0  0  0  0  0  0
    7.2340  -14.8138   20.0489 N   0  0  0  0  0  0  0  0  0  0  0  0
    7.6949  -14.7892   22.4288 C   0  0  0  0  0  0  0  0  0  0  0  0
    8.9079  -14.6590   22.1282 O   0  0  0  0  0  0  0  0  0  0  0  0
    6.0830  -11.5593   26.0588 C   0  0  0  0  0  0  0  0  0  0  0  0
    6.9249  -12.4499   25.1720 C   0  0  0  0  0  0  0  0  0  0  0  0
    7.4495  -13.6489   25.8933 C   0  0  2  0  0  0  0  0  0  0  0  0
    8.1082  -13.4047   27.1892 C   0  0  0  0  0  0  0  0  0  0  0  0
    8.2343  -14.4924   24.8921 C   0  0  2  0  0  0  0  0  0  0  0  0
    7.2859  -14.5581   23.7467 N   0  0  0  0  0  0  0  0  0  0  0  0
    8.5371  -15.8394   25.3733 C   0  0  0  0  0  0  0  0  0  0  0  0
    7.5309  -16.6163   25.5271 O   0  0  0  0  0  0  0  0  0  0  0  0
    9.8222  -16.3447   25.6725 N   0  0  0  0  0  0  0  0  0  0  0  0
   11.0452  -15.5120   25.6806 C   0  0  0  0  0  0  0  0  0  0  0  0
   12.1309  -16.4352   25.1639 C   0  0  0  0  0  0  0  0  0  0  0  0
   11.4985  -17.8192   25.0878 C   0  0  0  0  0  0  0  0  0  0  0  0
   10.3162  -17.6499   26.0129 C   0  0  1  0  0  0  0  0  0  0  0  0
   10.7561  -17.7208   27.4401 C   0  0  0  0  0  0  0  0  0  0  0  0
   11.8454  -17.2744   27.8035 O   0  0  0  0  0  0  0  0  0  0  0  0
    9.9046  -18.3051   28.3570 O   0  0  0  0  0  0  0  0  0  0  0  0
  2  1  1  6
  2  3  1  0
  4  5  1  6
  4  6  1  0
  4  2  1  0
  6  7  2  0
  9 10  1  0
  9  8  1  0
 10 12  1  0
 10 11  1  1
 12 14  1  0
 12 13  1  6
 13  6  1  0
 14 15  2  0
 14 16  1  0
 16 20  1  0
 16 17  1  0
 17 18  1  0
 19 18  1  0
 20 19  1  0
 21 23  1  0
 20 21  1  1
 22 21  2  0
M  END
$$$$
