TIP.pdb
     RDKit          3D

 23 23  0  0  1  0  0  0  0  0999 V2000
    7.3915  -20.8350   26.0560 C   0  0  0  0  0  0  0  0  0  0  0  0
    7.5051  -19.5269   25.2746 C   0  0  1  0  0  0  0  0  0  0  0  0
    7.9822  -19.7279   23.9984 O   0  0  0  0  0  0  0  0  0  0  0  0
    6.1283  -18.8974   25.2944 C   0  0  2  0  0  0  0  0  0  0  0  0
    5.1638  -19.7548   24.6332 N   0  0  0  0  0  0  0  0  0  0  0  0
    6.1345  -17.5344   24.7030 C   0  0  0  0  0  0  0  0  0  0  0  0
    5.6677  -17.3832   23.5463 O   0  0  0  0  0  0  0  0  0  0  0  0
    6.5025  -12.1019   26.9554 C   0  0  0  0  0  0  0  0  0  0  0  0
    6.2964  -13.1117   25.8481 C   0  0  0  0  0  0  0  0  0  0  0  0
    7.2780  -14.2370   25.9061 C   0  0  2  0  0  0  0  0  0  0  0  0
    8.6870  -13.8733   26.1416 C   0  0  0  0  0  0  0  0  0  0  0  0
    7.0133  -15.1523   24.7137 C   0  0  2  0  0  0  0  0  0  0  0  0
    6.6399  -16.4249   25.3894 N   0  0  0  0  0  0  0  0  0  0  0  0
    8.1848  -15.3582   23.8635 C   0  0  0  0  0  0  0  0  0  0  0  0
    9.0041  -16.2623   24.2519 O   0  0  0  0  0  0  0  0  0  0  0  0
    8.4787  -14.6587   22.6716 N   0  0  0  0  0  0  0  0  0  0  0  0
    8.0140  -13.2810   22.3978 C   0  0  0  0  0  0  0  0  0  0  0  0
    7.7411  -13.2666   20.9067 C   0  0  0  0  0  0  0  0  0  0  0  0
    8.2713  -14.5918   20.3741 C   0  0  0  0  0  0  0  0  0  0  0  0
    9.2135  -14.9953   21.4840 C   0  0  1  0  0  0  0  0  0  0  0  0
   10.4925  -14.2270   21.3877 C   0  0  0  0  0  0  0  0  0  0  0  0
   10.7382  -13.2839   22.1414 O   0  0  0  0  0  0  0  0  0  0  0  0
   11.4070  -14.6008   20.4227 O   0  0  0  0  0  0  0  0  0  0  0  0
  2  1  1  6
  2  3  1  0
  4  5  1  6
  4  6  1  0
  4  2  1  0
  6  7  2  0
  9 10  1  0
  9  8  1  0
 10 12  1  0
 10 11  1  6
 12 14  1  0
 12 13  1  1
 13  6  1  0
 14 15  2  0
 14 16  1  0
 16 20  1  0
 16 17  1  0
 17 18  1  0
 19 18  1  0
 20 19  1  0
 21 23  1  0
 20 21  1  6
 22 21  2  0
M  END
$$$$
