TIP.pdb
     RDKit          3D

 23 23  0  0  1  0  0  0  0  0999 V2000
    7.3342  -20.1523   27.5860 C   0  0  0  0  0  0  0  0  0  0  0  0
    7.4796  -19.0629   26.5245 C   0  0  1  0  0  0  0  0  0  0  0  0
    8.1542  -19.5136   25.4117 O   0  0  0  0  0  0  0  0  0  0  0  0
    6.0780  -18.5858   26.2083 C   0  0  2  0  0  0  0  0  0  0  0  0
    5.2900  -19.6580   25.6322 N   0  0  0  0  0  0  0  0  0  0  0  0
    6.0863  -17.3885   25.3285 C   0  0  0  0  0  0  0  0  0  0  0  0
    5.6989  -17.5179   24.1403 O   0  0  0  0  0  0  0  0  0  0  0  0
    6.0880  -12.5104   27.5476 C   0  0  0  0  0  0  0  0  0  0  0  0
    5.9689  -13.6376   26.5459 C   0  0  0  0  0  0  0  0  0  0  0  0
    7.2566  -13.9202   25.8423 C   0  0  2  0  0  0  0  0  0  0  0  0
    7.9831  -12.7571   25.3015 C   0  0  0  0  0  0  0  0  0  0  0  0
    7.0166  -15.0712   24.8690 C   0  0  2  0  0  0  0  0  0  0  0  0
    6.5087  -16.1333   25.7797 N   0  0  0  0  0  0  0  0  0  0  0  0
    8.2297  -15.5262   24.1915 C   0  0  0  0  0  0  0  0  0  0  0  0
    8.9841  -16.3111   24.8654 O   0  0  0  0  0  0  0  0  0  0  0  0
    8.6274  -15.1812   22.8802 N   0  0  0  0  0  0  0  0  0  0  0  0
    8.2286  -13.9236   22.2106 C   0  0  0  0  0  0  0  0  0  0  0  0
    8.0586  -14.3113   20.7550 C   0  0  0  0  0  0  0  0  0  0  0  0
    8.5793  -15.7385   20.6413 C   0  0  0  0  0  0  0  0  0  0  0  0
    9.4297  -15.8378   21.8861 C   0  0  1  0  0  0  0  0  0  0  0  0
   10.7372  -15.1421   21.6815 C   0  0  0  0  0  0  0  0  0  0  0  0
   11.5616  -15.5444   20.8591 O   0  0  0  0  0  0  0  0  0  0  0  0
   11.0069  -14.0227   22.4440 O   0  0  0  0  0  0  0  0  0  0  0  0
  2  1  1  1
  2  3  1  0
  4  5  1  6
  4  6  1  0
  4  2  1  0
  6  7  2  0
  9 10  1  0
  9  8  1  0
 10 12  1  0
 10 11  1  6
 12 14  1  0
 12 13  1  1
 13  6  1  0
 14 15  2  0
 14 16  1  0
 16 20  1  0
 16 17  1  0
 17 18  1  0
 19 18  1  0
 20 19  1  0
 21 23  1  0
 20 21  1  6
 22 21  2  0
M  END
$$$$
