TIP.pdb
     RDKit          3D

 23 23  0  0  1  0  0  0  0  0999 V2000
    7.4825  -17.4605   22.3248 C   0  0  0  0  0  0  0  0  0  0  0  0
    8.3635  -16.6900   21.3425 C   0  0  1  0  0  0  0  0  0  0  0  0
    8.1724  -17.1048   20.0432 O   0  0  0  0  0  0  0  0  0  0  0  0
    8.0449  -15.2236   21.5436 C   0  0  2  0  0  0  0  0  0  0  0  0
    8.5358  -14.4357   20.4297 N   0  0  0  0  0  0  0  0  0  0  0  0
    8.5696  -14.7157   22.8375 C   0  0  0  0  0  0  0  0  0  0  0  0
    9.7790  -14.3810   22.9014 O   0  0  0  0  0  0  0  0  0  0  0  0
    5.3779  -11.8462   25.8015 C   0  0  0  0  0  0  0  0  0  0  0  0
    6.6458  -12.4620   25.2524 C   0  0  0  0  0  0  0  0  0  0  0  0
    7.0673  -13.6805   26.0079 C   0  0  2  0  0  0  0  0  0  0  0  0
    7.1437  -13.5550   27.4747 C   0  0  0  0  0  0  0  0  0  0  0  0
    8.3028  -14.2549   25.3201 C   0  0  2  0  0  0  0  0  0  0  0  0
    7.7647  -14.6004   23.9760 N   0  0  0  0  0  0  0  0  0  0  0  0
    8.8325  -15.4509   25.9733 C   0  0  0  0  0  0  0  0  0  0  0  0
    8.4624  -16.5700   25.4732 O   0  0  0  0  0  0  0  0  0  0  0  0
    9.7040  -15.4724   27.0853 N   0  0  0  0  0  0  0  0  0  0  0  0
    9.7497  -14.4037   28.1075 C   0  0  0  0  0  0  0  0  0  0  0  0
   11.2120  -14.3208   28.4983 C   0  0  0  0  0  0  0  0  0  0  0  0
   11.8913  -15.5040   27.8204 C   0  0  0  0  0  0  0  0  0  0  0  0
   10.7060  -16.3970   27.5376 C   0  0  1  0  0  0  0  0  0  0  0  0
   10.2810  -17.1095   28.7815 C   0  0  0  0  0  0  0  0  0  0  0  0
    9.2619  -16.7877   29.3945 O   0  0  0  0  0  0  0  0  0  0  0  0
   11.0650  -18.1512   29.2368 O   0  0  0  0  0  0  0  0  0  0  0  0
  2  1  1  1
  2  3  1  0
  4  5  1  6
  4  6  1  0
  4  2  1  0
  6  7  2  0
  9 10  1  0
  9  8  1  0
 10 12  1  0
 10 11  1  1
 12 14  1  0
 12 13  1  6
 13  6  1  0
 14 15  2  0
 14 16  1  0
 16 20  1  0
 16 17  1  0
 17 18  1  0
 19 18  1  0
 20 19  1  0
 21 23  1  0
 20 21  1  1
 22 21  2  0
M  END
$$$$
