TIP.pdb
     RDKit          3D

 23 23  0  0  1  0  0  0  0  0999 V2000
    7.2107  -16.8442   20.2370 C   0  0  0  0  0  0  0  0  0  0  0  0
    7.8953  -16.4825   21.5543 C   0  0  1  0  0  0  0  0  0  0  0  0
    9.0913  -17.1465   21.7135 O   0  0  0  0  0  0  0  0  0  0  0  0
    8.0552  -14.9770   21.5525 C   0  0  2  0  0  0  0  0  0  0  0  0
    8.8778  -14.5509   20.4370 N   0  0  0  0  0  0  0  0  0  0  0  0
    8.5939  -14.4762   22.8434 C   0  0  0  0  0  0  0  0  0  0  0  0
    9.8279  -14.2564   22.9305 O   0  0  0  0  0  0  0  0  0  0  0  0
    5.5278  -11.4980   26.0785 C   0  0  0  0  0  0  0  0  0  0  0  0
    6.7515  -12.1279   25.4508 C   0  0  0  0  0  0  0  0  0  0  0  0
    7.0805  -13.4599   26.0431 C   0  0  2  0  0  0  0  0  0  0  0  0
    7.1056  -13.5408   27.5147 C   0  0  0  0  0  0  0  0  0  0  0  0
    8.3113  -14.0029   25.3219 C   0  0  2  0  0  0  0  0  0  0  0  0
    7.7756  -14.2444   23.9543 N   0  0  0  0  0  0  0  0  0  0  0  0
    8.8197  -15.2498   25.8913 C   0  0  0  0  0  0  0  0  0  0  0  0
    8.4307  -16.3254   25.3157 O   0  0  0  0  0  0  0  0  0  0  0  0
    9.6897  -15.3628   26.9988 N   0  0  0  0  0  0  0  0  0  0  0  0
    9.7772  -14.3509   28.0747 C   0  0  0  0  0  0  0  0  0  0  0  0
   11.2417  -14.3453   28.4662 C   0  0  0  0  0  0  0  0  0  0  0  0
   11.8743  -15.5175   27.7267 C   0  0  0  0  0  0  0  0  0  0  0  0
   10.6549  -16.3478   27.4007 C   0  0  1  0  0  0  0  0  0  0  0  0
   10.2026  -17.1065   28.6071 C   0  0  0  0  0  0  0  0  0  0  0  0
    9.1753  -16.8013   29.2148 O   0  0  0  0  0  0  0  0  0  0  0  0
   10.9705  -18.1723   29.0333 O   0  0  0  0  0  0  0  0  0  0  0  0
  2  1  1  6
  2  3  1  0
  4  5  1  6
  4  6  1  0
  4  2  1  0
  6  7  2  0
  9 10  1  0
  9  8  1  0
 10 12  1  0
 10 11  1  1
 12 14  1  0
 12 13  1  6
 13  6  1  0
 14 15  2  0
 14 16  1  0
 16 20  1  0
 16 17  1  0
 17 18  1  0
 19 18  1  0
 20 19  1  0
 21 23  1  0
 20 21  1  1
 22 21  2  0
M  END
$$$$
