TIP.pdb
     RDKit          3D

 23 23  0  0  1  0  0  0  0  0999 V2000
    7.8310  -17.7502   22.6235 C   0  0  0  0  0  0  0  0  0  0  0  0
    8.7334  -17.0631   21.5997 C   0  0  1  0  0  0  0  0  0  0  0  0
    8.5494  -17.5652   20.3305 O   0  0  0  0  0  0  0  0  0  0  0  0
    8.4348  -15.5818   21.6941 C   0  0  2  0  0  0  0  0  0  0  0  0
    9.0288  -14.8679   20.5806 N   0  0  0  0  0  0  0  0  0  0  0  0
    8.8695  -15.0116   22.9953 C   0  0  0  0  0  0  0  0  0  0  0  0
   10.0840  -14.7279   23.1471 O   0  0  0  0  0  0  0  0  0  0  0  0
    5.5023  -11.9319   25.6218 C   0  0  0  0  0  0  0  0  0  0  0  0
    6.7623  -12.6188   25.1434 C   0  0  0  0  0  0  0  0  0  0  0  0
    7.1332  -13.7937   25.9892 C   0  0  2  0  0  0  0  0  0  0  0  0
    7.1118  -13.5900   27.4490 C   0  0  0  0  0  0  0  0  0  0  0  0
    8.4122  -14.3988   25.4165 C   0  0  2  0  0  0  0  0  0  0  0  0
    7.9750  -14.7833   24.0467 N   0  0  0  0  0  0  0  0  0  0  0  0
    8.8787  -15.5770   26.1458 C   0  0  0  0  0  0  0  0  0  0  0  0
    8.4407  -16.7038   25.7240 O   0  0  0  0  0  0  0  0  0  0  0  0
    9.7579  -15.5744   27.2519 N   0  0  0  0  0  0  0  0  0  0  0  0
    9.8189  -14.4781   28.2436 C   0  0  0  0  0  0  0  0  0  0  0  0
   11.2846  -14.3957   28.6219 C   0  0  0  0  0  0  0  0  0  0  0  0
   11.9501  -15.6025   27.9725 C   0  0  0  0  0  0  0  0  0  0  0  0
   10.7561  -16.4938   27.7228 C   0  0  1  0  0  0  0  0  0  0  0  0
   10.3346  -17.1682   28.9890 C   0  0  0  0  0  0  0  0  0  0  0  0
    9.3286  -16.8141   29.6058 O   0  0  0  0  0  0  0  0  0  0  0  0
   11.1066  -18.2116   29.4606 O   0  0  0  0  0  0  0  0  0  0  0  0
  2  1  1  1
  2  3  1  0
  4  5  1  6
  4  6  1  0
  4  2  1  0
  6  7  2  0
  9 10  1  0
  9  8  1  0
 10 12  1  0
 10 11  1  1
 12 14  1  0
 12 13  1  6
 13  6  1  0
 14 15  2  0
 14 16  1  0
 16 20  1  0
 16 17  1  0
 17 18  1  0
 19 18  1  0
 20 19  1  0
 21 23  1  0
 20 21  1  1
 22 21  2  0
M  END
$$$$
