TIP.pdb
     RDKit          3D

 23 23  0  0  1  0  0  0  0  0999 V2000
    5.5905  -16.4554   20.2989 C   0  0  0  0  0  0  0  0  0  0  0  0
    6.6547  -16.3917   21.3935 C   0  0  1  0  0  0  0  0  0  0  0  0
    7.6680  -17.3000   21.1813 O   0  0  0  0  0  0  0  0  0  0  0  0
    7.1468  -14.9603   21.4272 C   0  0  2  0  0  0  0  0  0  0  0  0
    7.8144  -14.6191   20.1861 N   0  0  0  0  0  0  0  0  0  0  0  0
    8.0221  -14.7035   22.5999 C   0  0  0  0  0  0  0  0  0  0  0  0
    9.2663  -14.6910   22.4251 O   0  0  0  0  0  0  0  0  0  0  0  0
    6.0736  -11.5408   26.0722 C   0  0  0  0  0  0  0  0  0  0  0  0
    7.0167  -12.4098   25.2699 C   0  0  0  0  0  0  0  0  0  0  0  0
    7.5091  -13.5901   26.0429 C   0  0  2  0  0  0  0  0  0  0  0  0
    8.0923  -13.3154   27.3685 C   0  0  0  0  0  0  0  0  0  0  0  0
    8.3549  -14.4461   25.1039 C   0  0  2  0  0  0  0  0  0  0  0  0
    7.5070  -14.4775   23.8810 N   0  0  0  0  0  0  0  0  0  0  0  0
    8.5806  -15.8044   25.5954 C   0  0  0  0  0  0  0  0  0  0  0  0
    7.5498  -16.5631   25.6317 O   0  0  0  0  0  0  0  0  0  0  0  0
    9.8176  -16.3384   26.0210 N   0  0  0  0  0  0  0  0  0  0  0  0
   11.0455  -15.5282   26.1789 C   0  0  0  0  0  0  0  0  0  0  0  0
   12.1661  -16.4605   25.7631 C   0  0  0  0  0  0  0  0  0  0  0  0
   11.5240  -17.8311   25.5896 C   0  0  0  0  0  0  0  0  0  0  0  0
   10.2511  -17.6587   26.3849 C   0  0  1  0  0  0  0  0  0  0  0  0
   10.5325  -17.7652   27.8495 C   0  0  0  0  0  0  0  0  0  0  0  0
   10.5769  -16.7691   28.5731 O   0  0  0  0  0  0  0  0  0  0  0  0
   10.7447  -19.0210   28.3834 O   0  0  0  0  0  0  0  0  0  0  0  0
  2  1  1  6
  2  3  1  0
  4  5  1  6
  4  6  1  0
  4  2  1  0
  6  7  2  0
  9 10  1  0
  9  8  1  0
 10 12  1  0
 10 11  1  1
 12 14  1  0
 12 13  1  6
 13  6  1  0
 14 15  2  0
 14 16  1  0
 16 20  1  0
 16 17  1  0
 17 18  1  0
 19 18  1  0
 20 19  1  0
 21 23  1  0
 20 21  1  1
 22 21  2  0
M  END
$$$$
