TIP.pdb
     RDKit          3D

 23 23  0  0  1  0  0  0  0  0999 V2000
    6.6330  -16.6297   21.0979 C   0  0  0  0  0  0  0  0  0  0  0  0
    7.4225  -15.6694   20.2095 C   0  0  1  0  0  0  0  0  0  0  0  0
    7.0060  -15.7196   18.8977 O   0  0  0  0  0  0  0  0  0  0  0  0
    7.2657  -14.2942   20.8231 C   0  0  2  0  0  0  0  0  0  0  0  0
    7.6567  -13.2650   19.8795 N   0  0  0  0  0  0  0  0  0  0  0  0
    8.0147  -14.1694   22.1001 C   0  0  0  0  0  0  0  0  0  0  0  0
    9.2466  -13.9276   22.0486 O   0  0  0  0  0  0  0  0  0  0  0  0
    5.8861  -11.4779   25.7624 C   0  0  0  0  0  0  0  0  0  0  0  0
    6.8346  -12.3023   24.9203 C   0  0  0  0  0  0  0  0  0  0  0  0
    7.1928  -13.6026   25.5638 C   0  0  2  0  0  0  0  0  0  0  0  0
    7.5876  -13.5509   26.9831 C   0  0  0  0  0  0  0  0  0  0  0  0
    8.1481  -14.3407   24.6298 C   0  0  2  0  0  0  0  0  0  0  0  0
    7.3950  -14.3119   23.3463 N   0  0  0  0  0  0  0  0  0  0  0  0
    8.4068  -15.7225   25.0313 C   0  0  0  0  0  0  0  0  0  0  0  0
    7.3961  -16.5084   25.0094 O   0  0  0  0  0  0  0  0  0  0  0  0
    9.6550  -16.2516   25.4293 N   0  0  0  0  0  0  0  0  0  0  0  0
   10.8606  -15.4225   25.6486 C   0  0  0  0  0  0  0  0  0  0  0  0
   12.0072  -16.2964   25.1801 C   0  0  0  0  0  0  0  0  0  0  0  0
   11.4017  -17.6686   24.9125 C   0  0  0  0  0  0  0  0  0  0  0  0
   10.1207  -17.5815   25.7087 C   0  0  1  0  0  0  0  0  0  0  0  0
   10.3972  -17.7770   27.1650 C   0  0  0  0  0  0  0  0  0  0  0  0
   10.3680  -16.8365   27.9603 O   0  0  0  0  0  0  0  0  0  0  0  0
   10.6903  -19.0518   27.6080 O   0  0  0  0  0  0  0  0  0  0  0  0
  2  1  1  1
  2  3  1  0
  4  5  1  6
  4  6  1  0
  4  2  1  0
  6  7  2  0
  9 10  1  0
  9  8  1  0
 10 12  1  0
 10 11  1  1
 12 14  1  0
 12 13  1  6
 13  6  1  0
 14 15  2  0
 14 16  1  0
 16 20  1  0
 16 17  1  0
 17 18  1  0
 19 18  1  0
 20 19  1  0
 21 23  1  0
 20 21  1  1
 22 21  2  0
M  END
$$$$
