TIP.pdb
     RDKit          3D

 23 23  0  0  1  0  0  0  0  0999 V2000
    6.1690  -17.0584   21.9335 C   0  0  0  0  0  0  0  0  0  0  0  0
    7.0310  -16.4425   20.8324 C   0  0  1  0  0  0  0  0  0  0  0  0
    6.5487  -16.7341   19.5758 O   0  0  0  0  0  0  0  0  0  0  0  0
    7.0810  -14.9553   21.1116 C   0  0  2  0  0  0  0  0  0  0  0  0
    7.5333  -14.2295   19.9407 N   0  0  0  0  0  0  0  0  0  0  0  0
    7.9190  -14.6429   22.2981 C   0  0  0  0  0  0  0  0  0  0  0  0
    9.1571  -14.5041   22.1349 O   0  0  0  0  0  0  0  0  0  0  0  0
    6.0237  -11.4558   25.7496 C   0  0  0  0  0  0  0  0  0  0  0  0
    6.9272  -12.3720   24.9543 C   0  0  0  0  0  0  0  0  0  0  0  0
    7.3452  -13.5805   25.7276 C   0  0  2  0  0  0  0  0  0  0  0  0
    7.8742  -13.3470   27.0835 C   0  0  0  0  0  0  0  0  0  0  0  0
    8.2064  -14.4477   24.8133 C   0  0  2  0  0  0  0  0  0  0  0  0
    7.3755  -14.5001   23.5794 N   0  0  0  0  0  0  0  0  0  0  0  0
    8.4293  -15.7978   25.3282 C   0  0  0  0  0  0  0  0  0  0  0  0
    7.3871  -16.5344   25.4325 O   0  0  0  0  0  0  0  0  0  0  0  0
    9.6748  -16.3462   25.7084 N   0  0  0  0  0  0  0  0  0  0  0  0
   10.9193  -15.5525   25.8100 C   0  0  0  0  0  0  0  0  0  0  0  0
   12.0091  -16.5043   25.3577 C   0  0  0  0  0  0  0  0  0  0  0  0
   11.3412  -17.8668   25.2220 C   0  0  0  0  0  0  0  0  0  0  0  0
   10.1039  -17.6695   26.0662 C   0  0  1  0  0  0  0  0  0  0  0  0
   10.4424  -17.7682   27.5191 C   0  0  0  0  0  0  0  0  0  0  0  0
   10.4913  -16.7706   28.2405 O   0  0  0  0  0  0  0  0  0  0  0  0
   10.7031  -19.0184   28.0449 O   0  0  0  0  0  0  0  0  0  0  0  0
  2  1  1  1
  2  3  1  0
  4  5  1  6
  4  6  1  0
  4  2  1  0
  6  7  2  0
  9 10  1  0
  9  8  1  0
 10 12  1  0
 10 11  1  1
 12 14  1  0
 12 13  1  6
 13  6  1  0
 14 15  2  0
 14 16  1  0
 16 20  1  0
 16 17  1  0
 17 18  1  0
 19 18  1  0
 20 19  1  0
 21 23  1  0
 20 21  1  1
 22 21  2  0
M  END
$$$$
