FWR.pdb
     RDKit          3D

 37 39  0  0  1  0  0  0  0  0999 V2000
    6.1174  -16.7548   21.5175 N   0  0  0  0  0  0  0  0  0  0  0  0
    7.5268  -16.7830   21.2415 C   0  0  1  0  0  0  0  0  0  0  0  0
    7.9259  -16.0613   19.9783 C   0  0  0  0  0  0  0  0  0  0  0  0
    7.5987  -14.6169   20.0243 C   0  0  0  0  0  0  0  0  0  0  0  0
    8.5646  -13.7337   20.4104 C   0  0  0  0  0  0  0  0  0  0  0  0
    8.2628  -12.3699   20.4568 C   0  0  0  0  0  0  0  0  0  0  0  0
    6.9946  -11.9649   20.1093 C   0  0  0  0  0  0  0  0  0  0  0  0
    6.0395  -12.8746   19.7239 C   0  0  0  0  0  0  0  0  0  0  0  0
    6.3354  -14.2212   19.6774 C   0  0  0  0  0  0  0  0  0  0  0  0
    8.2657  -16.1573   22.3663 C   0  0  0  0  0  0  0  0  0  0  0  0
    8.4861  -14.9246   22.3094 O   0  0  0  0  0  0  0  0  0  0  0  0
    8.7287  -16.8778   23.4859 N   0  0  0  0  0  0  0  0  0  0  0  0
    9.5764  -16.2455   24.4409 C   0  0  1  0  0  0  0  0  0  0  0  0
    9.0238  -16.0438   25.8015 C   0  0  0  0  0  0  0  0  0  0  0  0
    7.7869  -15.2763   25.9081 C   0  0  0  0  0  0  0  0  0  0  0  0
    6.4912  -15.7111   25.8251 C   0  0  0  0  0  0  0  0  0  0  0  0
    5.6875  -14.6346   25.9790 N   0  0  0  0  0  0  0  0  0  0  0  0
    6.4099  -13.5174   26.1583 C   0  0  0  0  0  0  0  0  0  0  0  0
    6.1204  -12.1978   26.3544 C   0  0  0  0  0  0  0  0  0  0  0  0
    7.1365  -11.2841   26.5052 C   0  0  0  0  0  0  0  0  0  0  0  0
    8.4613  -11.6551   26.4655 C   0  0  0  0  0  0  0  0  0  0  0  0
    8.7544  -12.9844   26.2681 C   0  0  0  0  0  0  0  0  0  0  0  0
    7.7416  -13.9108   26.1153 C   0  0  0  0  0  0  0  0  0  0  0  0
   10.7630  -17.1706   24.6065 C   0  0  0  0  0  0  0  0  0  0  0  0
   10.5395  -18.3773   24.8900 O   0  0  0  0  0  0  0  0  0  0  0  0
   12.5002  -14.3823   19.3168 N   0  0  0  0  0  0  0  0  0  0  0  0
   13.7469  -14.9867   19.0257 C   0  0  0  0  0  0  0  0  0  0  0  0
   14.6731  -14.3331   18.4199 N   0  0  0  0  0  0  0  0  0  0  0  0
   13.9699  -16.3348   19.4065 N   0  0  0  0  0  0  0  0  0  0  0  0
   12.9641  -17.0490   20.1704 C   0  0  0  0  0  0  0  0  0  0  0  0
   13.0901  -16.7355   21.6349 C   0  0  0  0  0  0  0  0  0  0  0  0
   13.0128  -17.9161   22.5217 C   0  0  0  0  0  0  0  0  0  0  0  0
   13.1688  -17.6320   23.9788 C   0  0  2  0  0  0  0  0  0  0  0  0
   12.0909  -16.7501   24.4620 N   0  0  0  0  0  0  0  0  0  0  0  0
   14.4373  -16.9583   24.3103 C   0  0  0  0  0  0  0  0  0  0  0  0
   15.5167  -17.5456   24.1364 O   0  0  0  0  0  0  0  0  0  0  0  0
   14.4326  -15.6794   24.8125 O   0  0  0  0  0  0  0  0  0  0  0  0
  2  1  1  1
  2  3  1  0
  3  4  1  0
  4  5  2  0
  5  6  1  0
  7  6  2  0
  8  7  1  0
  9  4  1  0
  9  8  2  0
 10 11  2  0
 10  2  1  0
 12 10  1  0
 13 12  1  0
 13 14  1  1
 15 16  2  0
 15 14  1  0
 17 16  1  0
 18 23  2  0
 18 17  1  0
 19 18  1  0
 20 19  2  0
 20 21  1  0
 21 22  2  0
 22 23  1  0
 23 15  1  0
 24 25  2  0
 24 13  1  0
 27 26  1  0
 27 28  2  0
 29 30  1  0
 29 27  1  0
 31 30  1  0
 32 31  1  0
 33 34  1  0
 33 32  1  6
 34 24  1  0
 35 33  1  0
 36 35  2  0
 37 35  1  0
M  END
$$$$
