FWR.pdb
     RDKit          3D

 37 39  0  0  1  0  0  0  0  0999 V2000
    7.6482  -18.2128   20.8467 N   0  0  0  0  0  0  0  0  0  0  0  0
    7.9582  -16.8106   20.8182 C   0  0  1  0  0  0  0  0  0  0  0  0
    6.7506  -15.9074   20.8624 C   0  0  0  0  0  0  0  0  0  0  0  0
    7.0924  -14.4919   20.5882 C   0  0  0  0  0  0  0  0  0  0  0  0
    6.9847  -13.5800   21.5976 C   0  0  0  0  0  0  0  0  0  0  0  0
    7.3047  -12.2429   21.3460 C   0  0  0  0  0  0  0  0  0  0  0  0
    7.7192  -11.8928   20.0816 C   0  0  0  0  0  0  0  0  0  0  0  0
    7.8192  -12.8305   19.0821 C   0  0  0  0  0  0  0  0  0  0  0  0
    7.5039  -14.1507   19.3284 C   0  0  0  0  0  0  0  0  0  0  0  0
    8.8155  -16.4677   21.9802 C   0  0  0  0  0  0  0  0  0  0  0  0
    9.9384  -15.9598   21.7507 O   0  0  0  0  0  0  0  0  0  0  0  0
    8.4306  -16.6853   23.3187 N   0  0  0  0  0  0  0  0  0  0  0  0
    9.3082  -16.3238   24.3814 C   0  0  1  0  0  0  0  0  0  0  0  0
    8.7174  -16.2247   25.7374 C   0  0  0  0  0  0  0  0  0  0  0  0
    7.5750  -15.3308   25.8995 C   0  0  0  0  0  0  0  0  0  0  0  0
    6.2379  -15.6233   25.8629 C   0  0  0  0  0  0  0  0  0  0  0  0
    5.5609  -14.4692   26.0584 N   0  0  0  0  0  0  0  0  0  0  0  0
    6.4053  -13.4383   26.2202 C   0  0  0  0  0  0  0  0  0  0  0  0
    6.2669  -12.0981   26.4402 C   0  0  0  0  0  0  0  0  0  0  0  0
    7.3802  -11.3006   26.5602 C   0  0  0  0  0  0  0  0  0  0  0  0
    8.6550  -11.8106   26.4653 C   0  0  0  0  0  0  0  0  0  0  0  0
    8.7960  -13.1607   26.2437 C   0  0  0  0  0  0  0  0  0  0  0  0
    7.6845  -13.9713   26.1215 C   0  0  0  0  0  0  0  0  0  0  0  0
   10.3356  -17.4329   24.4552 C   0  0  0  0  0  0  0  0  0  0  0  0
    9.9268  -18.6085   24.6485 O   0  0  0  0  0  0  0  0  0  0  0  0
   16.4198  -18.8297   18.6315 N   0  0  0  0  0  0  0  0  0  0  0  0
   16.6963  -19.8384   19.5857 C   0  0  0  0  0  0  0  0  0  0  0  0
   17.4731  -20.8223   19.3016 N   0  0  0  0  0  0  0  0  0  0  0  0
   16.1011  -19.7594   20.8708 N   0  0  0  0  0  0  0  0  0  0  0  0
   15.1295  -18.7207   21.1579 C   0  0  0  0  0  0  0  0  0  0  0  0
   14.7173  -18.7661   22.6025 C   0  0  0  0  0  0  0  0  0  0  0  0
   13.6634  -17.7958   22.9683 C   0  0  0  0  0  0  0  0  0  0  0  0
   12.6680  -18.2807   23.9695 C   0  0  2  0  0  0  0  0  0  0  0  0
   11.7124  -17.2147   24.3211 N   0  0  0  0  0  0  0  0  0  0  0  0
   13.2804  -18.7242   25.2349 C   0  0  0  0  0  0  0  0  0  0  0  0
   13.6926  -19.8890   25.3509 O   0  0  0  0  0  0  0  0  0  0  0  0
   13.3982  -17.8531   26.2909 O   0  0  0  0  0  0  0  0  0  0  0  0
  2  1  1  1
  2  3  1  0
  3  4  1  0
  4  5  2  0
  5  6  1  0
  7  6  2  0
  8  7  1  0
  9  4  1  0
  9  8  2  0
 10 11  2  0
 10  2  1  0
 12 10  1  0
 13 12  1  0
 13 14  1  1
 15 16  2  0
 15 14  1  0
 17 16  1  0
 18 23  2  0
 18 17  1  0
 19 18  1  0
 20 19  2  0
 20 21  1  0
 21 22  2  0
 22 23  1  0
 23 15  1  0
 24 25  2  0
 24 13  1  0
 27 26  1  0
 27 28  2  0
 29 30  1  0
 29 27  1  0
 31 30  1  0
 32 31  1  0
 33 34  1  0
 33 32  1  6
 34 24  1  0
 35 33  1  0
 36 35  2  0
 37 35  1  0
M  END
$$$$
