FWR.pdb
     RDKit          3D

 37 39  0  0  1  0  0  0  0  0999 V2000
    6.9506  -17.3324   21.1408 N   0  0  0  0  0  0  0  0  0  0  0  0
    8.3099  -17.1402   20.7182 C   0  0  1  0  0  0  0  0  0  0  0  0
    8.4795  -16.1207   19.6192 C   0  0  0  0  0  0  0  0  0  0  0  0
    8.0330  -14.7683   20.0280 C   0  0  0  0  0  0  0  0  0  0  0  0
    7.5690  -14.5827   21.2978 C   0  0  0  0  0  0  0  0  0  0  0  0
    7.1454  -13.3099   21.6901 C   0  0  0  0  0  0  0  0  0  0  0  0
    7.2124  -12.2838   20.7759 C   0  0  0  0  0  0  0  0  0  0  0  0
    7.6838  -12.4969   19.5028 C   0  0  0  0  0  0  0  0  0  0  0  0
    8.1023  -13.7525   19.1136 C   0  0  0  0  0  0  0  0  0  0  0  0
    9.1304  -16.6944   21.8718 C   0  0  0  0  0  0  0  0  0  0  0  0
   10.2923  -16.2844   21.6414 O   0  0  0  0  0  0  0  0  0  0  0  0
    8.6691  -16.7112   23.2038 N   0  0  0  0  0  0  0  0  0  0  0  0
    9.5431  -16.3409   24.2665 C   0  0  1  0  0  0  0  0  0  0  0  0
    8.9328  -16.1503   25.6039 C   0  0  0  0  0  0  0  0  0  0  0  0
    7.7250  -15.3336   25.6716 C   0  0  0  0  0  0  0  0  0  0  0  0
    6.4146  -15.7217   25.5874 C   0  0  0  0  0  0  0  0  0  0  0  0
    5.6509  -14.6112   25.6976 N   0  0  0  0  0  0  0  0  0  0  0  0
    6.4134  -13.5168   25.8496 C   0  0  0  0  0  0  0  0  0  0  0  0
    6.1723  -12.1816   26.0002 C   0  0  0  0  0  0  0  0  0  0  0  0
    7.2208  -11.3025   26.1337 C   0  0  0  0  0  0  0  0  0  0  0  0
    8.5309  -11.7243   26.1213 C   0  0  0  0  0  0  0  0  0  0  0  0
    8.7752  -13.0694   25.9697 C   0  0  0  0  0  0  0  0  0  0  0  0
    7.7296  -13.9614   25.8347 C   0  0  0  0  0  0  0  0  0  0  0  0
   10.5153  -17.4918   24.4128 C   0  0  0  0  0  0  0  0  0  0  0  0
   10.0800  -18.5816   24.8704 O   0  0  0  0  0  0  0  0  0  0  0  0
   12.2766  -15.9771   19.4729 N   0  0  0  0  0  0  0  0  0  0  0  0
   13.2681  -15.2321   20.1557 C   0  0  0  0  0  0  0  0  0  0  0  0
   13.3840  -13.9648   19.9755 N   0  0  0  0  0  0  0  0  0  0  0  0
   14.1467  -15.9000   21.0469 N   0  0  0  0  0  0  0  0  0  0  0  0
   14.3439  -17.3330   20.9336 C   0  0  0  0  0  0  0  0  0  0  0  0
   13.3399  -18.0735   21.7716 C   0  0  0  0  0  0  0  0  0  0  0  0
   13.8376  -18.4834   23.1022 C   0  0  0  0  0  0  0  0  0  0  0  0
   12.8082  -18.5328   24.1820 C   0  0  2  0  0  0  0  0  0  0  0  0
   11.8694  -17.4022   24.0671 N   0  0  0  0  0  0  0  0  0  0  0  0
   13.3805  -18.4618   25.5387 C   0  0  0  0  0  0  0  0  0  0  0  0
   14.1346  -19.3609   25.9427 O   0  0  0  0  0  0  0  0  0  0  0  0
   13.0835  -17.4027   26.3619 O   0  0  0  0  0  0  0  0  0  0  0  0
  2  1  1  1
  2  3  1  0
  3  4  1  0
  4  5  2  0
  5  6  1  0
  7  6  2  0
  8  7  1  0
  9  4  1  0
  9  8  2  0
 10 11  2  0
 10  2  1  0
 12 10  1  0
 13 12  1  0
 13 14  1  1
 15 16  2  0
 15 14  1  0
 17 16  1  0
 18 23  2  0
 18 17  1  0
 19 18  1  0
 20 19  2  0
 20 21  1  0
 21 22  2  0
 22 23  1  0
 23 15  1  0
 24 25  2  0
 24 13  1  0
 27 26  1  0
 27 28  2  0
 29 30  1  0
 29 27  1  0
 31 30  1  0
 32 31  1  0
 33 34  1  0
 33 32  1  6
 34 24  1  0
 35 33  1  0
 36 35  2  0
 37 35  1  0
M  END
$$$$
