FWR.pdb
     RDKit          3D

 37 39  0  0  1  0  0  0  0  0999 V2000
    7.8882  -16.4101   21.5443 N   0  0  0  0  0  0  0  0  0  0  0  0
    9.0116  -15.5258   21.6835 C   0  0  1  0  0  0  0  0  0  0  0  0
    8.6794  -14.0665   21.4941 C   0  0  0  0  0  0  0  0  0  0  0  0
    7.9012  -13.8192   20.2576 C   0  0  0  0  0  0  0  0  0  0  0  0
    7.5150  -14.8844   19.4971 C   0  0  0  0  0  0  0  0  0  0  0  0
    6.7814  -14.6586   18.3292 C   0  0  0  0  0  0  0  0  0  0  0  0
    6.4733  -13.3621   17.9866 C   0  0  0  0  0  0  0  0  0  0  0  0
    6.8741  -12.3065   18.7698 C   0  0  0  0  0  0  0  0  0  0  0  0
    7.5983  -12.5273   19.9230 C   0  0  0  0  0  0  0  0  0  0  0  0
    9.5990  -15.6784   23.0378 C   0  0  0  0  0  0  0  0  0  0  0  0
   10.6341  -15.0239   23.3052 O   0  0  0  0  0  0  0  0  0  0  0  0
    9.0531  -16.5186   24.0295 N   0  0  0  0  0  0  0  0  0  0  0  0
    9.6701  -16.6043   25.3110 C   0  0  1  0  0  0  0  0  0  0  0  0
    8.7894  -16.4488   26.4933 C   0  0  0  0  0  0  0  0  0  0  0  0
    7.6879  -15.4979   26.3795 C   0  0  0  0  0  0  0  0  0  0  0  0
    6.3758  -15.7304   26.0650 C   0  0  0  0  0  0  0  0  0  0  0  0
    5.7350  -14.5397   26.0760 N   0  0  0  0  0  0  0  0  0  0  0  0
    6.5792  -13.5426   26.3849 C   0  0  0  0  0  0  0  0  0  0  0  0
    6.4685  -12.1898   26.5302 C   0  0  0  0  0  0  0  0  0  0  0  0
    7.5715  -11.4396   26.8630 C   0  0  0  0  0  0  0  0  0  0  0  0
    8.8082  -12.0107   27.0595 C   0  0  0  0  0  0  0  0  0  0  0  0
    8.9211  -13.3737   26.9135 C   0  0  0  0  0  0  0  0  0  0  0  0
    7.8198  -14.1370   26.5794 C   0  0  0  0  0  0  0  0  0  0  0  0
   10.2374  -18.0050   25.3960 C   0  0  0  0  0  0  0  0  0  0  0  0
    9.5148  -18.9087   25.8938 O   0  0  0  0  0  0  0  0  0  0  0  0
   16.2217  -19.3497   20.1081 N   0  0  0  0  0  0  0  0  0  0  0  0
   16.0158  -18.4553   21.1860 C   0  0  0  0  0  0  0  0  0  0  0  0
   16.8763  -17.5406   21.4600 N   0  0  0  0  0  0  0  0  0  0  0  0
   14.8431  -18.5778   21.9747 N   0  0  0  0  0  0  0  0  0  0  0  0
   13.8751  -19.6174   21.6789 C   0  0  0  0  0  0  0  0  0  0  0  0
   12.7464  -19.5875   22.6709 C   0  0  0  0  0  0  0  0  0  0  0  0
   13.1371  -19.9409   24.0523 C   0  0  0  0  0  0  0  0  0  0  0  0
   12.0974  -19.6915   25.0940 C   0  0  2  0  0  0  0  0  0  0  0  0
   11.5220  -18.3418   24.9515 N   0  0  0  0  0  0  0  0  0  0  0  0
   12.6168  -19.7788   26.4708 C   0  0  0  0  0  0  0  0  0  0  0  0
   12.3855  -20.7851   27.1594 O   0  0  0  0  0  0  0  0  0  0  0  0
   13.3581  -18.7495   26.9988 O   0  0  0  0  0  0  0  0  0  0  0  0
  2  1  1  1
  2  3  1  0
  3  4  1  0
  4  5  2  0
  5  6  1  0
  7  6  2  0
  8  7  1  0
  9  4  1  0
  9  8  2  0
 10 11  2  0
 10  2  1  0
 12 10  1  0
 13 12  1  0
 13 14  1  1
 15 16  2  0
 15 14  1  0
 17 16  1  0
 18 23  2  0
 18 17  1  0
 19 18  1  0
 20 19  2  0
 20 21  1  0
 21 22  2  0
 22 23  1  0
 23 15  1  0
 24 25  2  0
 24 13  1  0
 27 26  1  0
 27 28  2  0
 29 30  1  0
 29 27  1  0
 31 30  1  0
 32 31  1  0
 33 34  1  0
 33 32  1  6
 34 24  1  0
 35 33  1  0
 36 35  2  0
 37 35  1  0
M  END
$$$$
