FWR.pdb
     RDKit          3D

 37 39  0  0  1  0  0  0  0  0999 V2000
    7.7715  -16.2745   21.0837 N   0  0  0  0  0  0  0  0  0  0  0  0
    8.5957  -15.0992   21.1345 C   0  0  1  0  0  0  0  0  0  0  0  0
    7.8370  -13.8030   20.9935 C   0  0  0  0  0  0  0  0  0  0  0  0
    7.3868  -13.5593   19.6030 C   0  0  0  0  0  0  0  0  0  0  0  0
    6.6924  -12.4179   19.3249 C   0  0  0  0  0  0  0  0  0  0  0  0
    6.2640  -12.1819   18.0157 C   0  0  0  0  0  0  0  0  0  0  0  0
    6.5600  -13.1149   17.0487 C   0  0  0  0  0  0  0  0  0  0  0  0
    7.2609  -14.2566   17.3547 C   0  0  0  0  0  0  0  0  0  0  0  0
    7.6846  -14.4915   18.6463 C   0  0  0  0  0  0  0  0  0  0  0  0
    9.3188  -15.0553   22.4299 C   0  0  0  0  0  0  0  0  0  0  0  0
   10.0783  -14.0815   22.6447 O   0  0  0  0  0  0  0  0  0  0  0  0
    9.1938  -16.0493   23.4216 N   0  0  0  0  0  0  0  0  0  0  0  0
    9.9174  -15.9332   24.6436 C   0  0  1  0  0  0  0  0  0  0  0  0
    9.1583  -16.1514   25.8981 C   0  0  0  0  0  0  0  0  0  0  0  0
    7.8695  -15.4772   26.0194 C   0  0  0  0  0  0  0  0  0  0  0  0
    6.6088  -15.9940   25.8838 C   0  0  0  0  0  0  0  0  0  0  0  0
    5.7297  -14.9852   26.0789 N   0  0  0  0  0  0  0  0  0  0  0  0
    6.3695  -13.8332   26.3355 C   0  0  0  0  0  0  0  0  0  0  0  0
    5.9857  -12.5497   26.5977 C   0  0  0  0  0  0  0  0  0  0  0  0
    6.9330  -11.5788   26.8212 C   0  0  0  0  0  0  0  0  0  0  0  0
    8.2809  -11.8558   26.7905 C   0  0  0  0  0  0  0  0  0  0  0  0
    8.6690  -13.1487   26.5266 C   0  0  0  0  0  0  0  0  0  0  0  0
    7.7259  -14.1319   26.3005 C   0  0  0  0  0  0  0  0  0  0  0  0
   10.9685  -17.0214   24.5985 C   0  0  0  0  0  0  0  0  0  0  0  0
   10.5941  -18.2145   24.7495 O   0  0  0  0  0  0  0  0  0  0  0  0
   13.6248  -15.6014   18.8043 N   0  0  0  0  0  0  0  0  0  0  0  0
   14.5384  -14.8149   19.5467 C   0  0  0  0  0  0  0  0  0  0  0  0
   15.6630  -14.4532   19.0403 N   0  0  0  0  0  0  0  0  0  0  0  0
   14.2045  -14.4272   20.8697 N   0  0  0  0  0  0  0  0  0  0  0  0
   14.7097  -15.1869   21.9979 C   0  0  0  0  0  0  0  0  0  0  0  0
   13.9839  -16.4971   22.1216 C   0  0  0  0  0  0  0  0  0  0  0  0
   14.4187  -17.3317   23.2619 C   0  0  0  0  0  0  0  0  0  0  0  0
   13.3227  -17.8264   24.1463 C   0  0  2  0  0  0  0  0  0  0  0  0
   12.3309  -16.7656   24.3997 N   0  0  0  0  0  0  0  0  0  0  0  0
   13.7962  -18.2771   25.4675 C   0  0  0  0  0  0  0  0  0  0  0  0
   13.5903  -17.5789   26.4726 O   0  0  0  0  0  0  0  0  0  0  0  0
   14.4667  -19.4696   25.5940 O   0  0  0  0  0  0  0  0  0  0  0  0
  2  1  1  1
  2  3  1  0
  3  4  1  0
  4  5  2  0
  5  6  1  0
  7  6  2  0
  8  7  1  0
  9  4  1  0
  9  8  2  0
 10 11  2  0
 10  2  1  0
 12 10  1  0
 13 12  1  0
 13 14  1  1
 15 16  2  0
 15 14  1  0
 17 16  1  0
 18 23  2  0
 18 17  1  0
 19 18  1  0
 20 19  2  0
 20 21  1  0
 21 22  2  0
 22 23  1  0
 23 15  1  0
 24 25  2  0
 24 13  1  0
 27 26  1  0
 27 28  2  0
 29 30  1  0
 29 27  1  0
 31 30  1  0
 32 31  1  0
 33 34  1  0
 33 32  1  6
 34 24  1  0
 35 33  1  0
 36 35  2  0
 37 35  1  0
M  END
$$$$
