FWR.pdb
     RDKit          3D

 37 39  0  0  1  0  0  0  0  0999 V2000
    8.1952  -17.0485   19.1702 N   0  0  0  0  0  0  0  0  0  0  0  0
    9.3875  -16.3130   19.4876 C   0  0  1  0  0  0  0  0  0  0  0  0
    9.5793  -15.0598   18.6700 C   0  0  0  0  0  0  0  0  0  0  0  0
    8.6050  -14.0002   19.0216 C   0  0  0  0  0  0  0  0  0  0  0  0
    9.0696  -12.8081   19.4964 C   0  0  0  0  0  0  0  0  0  0  0  0
    8.1563  -11.8045   19.8308 C   0  0  0  0  0  0  0  0  0  0  0  0
    6.8135  -12.0565   19.6680 C   0  0  0  0  0  0  0  0  0  0  0  0
    6.3712  -13.2657   19.1879 C   0  0  0  0  0  0  0  0  0  0  0  0
    7.2710  -14.2577   18.8573 C   0  0  0  0  0  0  0  0  0  0  0  0
    9.3595  -15.9144   20.9169 C   0  0  0  0  0  0  0  0  0  0  0  0
   10.2604  -15.1464   21.3291 O   0  0  0  0  0  0  0  0  0  0  0  0
    8.3766  -16.3557   21.8258 N   0  0  0  0  0  0  0  0  0  0  0  0
    8.3800  -15.8782   23.1683 C   0  0  1  0  0  0  0  0  0  0  0  0
    7.1419  -16.0816   23.9577 C   0  0  0  0  0  0  0  0  0  0  0  0
    7.1536  -15.6171   25.3414 C   0  0  0  0  0  0  0  0  0  0  0  0
    7.4172  -16.3207   26.4860 C   0  0  0  0  0  0  0  0  0  0  0  0
    7.3017  -15.4662   27.5276 N   0  0  0  0  0  0  0  0  0  0  0  0
    6.9731  -14.2351   27.1049 C   0  0  0  0  0  0  0  0  0  0  0  0
    6.7372  -13.0342   27.7097 C   0  0  0  0  0  0  0  0  0  0  0  0
    6.4103  -11.9338   26.9531 C   0  0  0  0  0  0  0  0  0  0  0  0
    6.3096  -11.9966   25.5819 C   0  0  0  0  0  0  0  0  0  0  0  0
    6.5472  -13.2060   24.9713 C   0  0  0  0  0  0  0  0  0  0  0  0
    6.8762  -14.3178   25.7215 C   0  0  0  0  0  0  0  0  0  0  0  0
    9.4600  -16.6668   23.8774 C   0  0  0  0  0  0  0  0  0  0  0  0
    9.4163  -17.9239   23.8123 O   0  0  0  0  0  0  0  0  0  0  0  0
   13.4288  -14.8621   19.7251 N   0  0  0  0  0  0  0  0  0  0  0  0
   14.4754  -15.7730   20.0065 C   0  0  0  0  0  0  0  0  0  0  0  0
   15.5891  -15.7186   19.3672 N   0  0  0  0  0  0  0  0  0  0  0  0
   14.2849  -16.7610   21.0064 N   0  0  0  0  0  0  0  0  0  0  0  0
   14.2867  -16.3849   22.4077 C   0  0  0  0  0  0  0  0  0  0  0  0
   13.0232  -16.8430   23.0804 C   0  0  0  0  0  0  0  0  0  0  0  0
   12.9110  -16.4522   24.5019 C   0  0  0  0  0  0  0  0  0  0  0  0
   11.6287  -16.8262   25.1682 C   0  0  2  0  0  0  0  0  0  0  0  0
   10.4992  -16.0680   24.6003 N   0  0  0  0  0  0  0  0  0  0  0  0
   11.6230  -16.5574   26.6175 C   0  0  0  0  0  0  0  0  0  0  0  0
   11.1373  -15.5010   27.0516 O   0  0  0  0  0  0  0  0  0  0  0  0
   12.1540  -17.4722   27.4944 O   0  0  0  0  0  0  0  0  0  0  0  0
  2  1  1  6
  2  3  1  0
  3  4  1  0
  4  5  2  0
  5  6  1  0
  7  6  2  0
  8  7  1  0
  9  4  1  0
  9  8  2  0
 10 11  2  0
 10  2  1  0
 12 10  1  0
 13 12  1  0
 13 14  1  1
 15 16  2  0
 15 14  1  0
 17 16  1  0
 18 23  2  0
 18 17  1  0
 19 18  1  0
 20 19  2  0
 20 21  1  0
 21 22  2  0
 22 23  1  0
 23 15  1  0
 24 25  2  0
 24 13  1  0
 27 26  1  0
 27 28  2  0
 29 30  1  0
 29 27  1  0
 31 30  1  0
 32 31  1  0
 33 34  1  0
 33 32  1  6
 34 24  1  0
 35 33  1  0
 36 35  2  0
 37 35  1  0
M  END
$$$$
