FWR.pdb
     RDKit          3D

 37 39  0  0  1  0  0  0  0  0999 V2000
    9.6576  -17.5906   20.4374 N   0  0  0  0  0  0  0  0  0  0  0  0
    9.2532  -16.6918   21.4824 C   0  0  1  0  0  0  0  0  0  0  0  0
    7.8098  -16.2600   21.4050 C   0  0  0  0  0  0  0  0  0  0  0  0
    7.6666  -14.8143   21.1134 C   0  0  0  0  0  0  0  0  0  0  0  0
    6.4186  -14.3046   20.9016 C   0  0  0  0  0  0  0  0  0  0  0  0
    6.2761  -12.9420   20.6253 C   0  0  0  0  0  0  0  0  0  0  0  0
    7.4065  -12.1592   20.5767 C   0  0  0  0  0  0  0  0  0  0  0  0
    8.6523  -12.6970   20.7937 C   0  0  0  0  0  0  0  0  0  0  0  0
    8.7952  -14.0417   21.0665 C   0  0  0  0  0  0  0  0  0  0  0  0
    9.4555  -17.3409   22.8016 C   0  0  0  0  0  0  0  0  0  0  0  0
   10.2979  -18.2661   22.8768 O   0  0  0  0  0  0  0  0  0  0  0  0
    8.7502  -16.9700   23.9644 N   0  0  0  0  0  0  0  0  0  0  0  0
    9.4492  -16.7700   25.1898 C   0  0  1  0  0  0  0  0  0  0  0  0
    8.6731  -16.2142   26.3239 C   0  0  0  0  0  0  0  0  0  0  0  0
    7.6689  -15.2031   26.0083 C   0  0  0  0  0  0  0  0  0  0  0  0
    6.3876  -15.3708   25.5557 C   0  0  0  0  0  0  0  0  0  0  0  0
    5.8438  -14.1424   25.4016 N   0  0  0  0  0  0  0  0  0  0  0  0
    6.7213  -13.1831   25.7359 C   0  0  0  0  0  0  0  0  0  0  0  0
    6.6995  -11.8185   25.7668 C   0  0  0  0  0  0  0  0  0  0  0  0
    7.8116  -11.1203   26.1742 C   0  0  0  0  0  0  0  0  0  0  0  0
    8.9697  -11.7561   26.5601 C   0  0  0  0  0  0  0  0  0  0  0  0
    8.9929  -13.1310   26.5296 C   0  0  0  0  0  0  0  0  0  0  0  0
    7.8816  -13.8425   26.1220 C   0  0  0  0  0  0  0  0  0  0  0  0
    9.9009  -18.1462   25.6294 C   0  0  0  0  0  0  0  0  0  0  0  0
    9.0213  -19.0288   25.8130 O   0  0  0  0  0  0  0  0  0  0  0  0
   14.5701  -17.9841   22.0363 N   0  0  0  0  0  0  0  0  0  0  0  0
   14.1152  -19.0659   21.2444 C   0  0  0  0  0  0  0  0  0  0  0  0
   13.9577  -18.9361   19.9754 N   0  0  0  0  0  0  0  0  0  0  0  0
   13.8263  -20.3076   21.8665 N   0  0  0  0  0  0  0  0  0  0  0  0
   14.0264  -20.4676   23.2946 C   0  0  0  0  0  0  0  0  0  0  0  0
   12.8031  -20.0341   24.0525 C   0  0  0  0  0  0  0  0  0  0  0  0
   12.8680  -20.2780   25.5093 C   0  0  0  0  0  0  0  0  0  0  0  0
   11.6803  -19.8180   26.2877 C   0  0  2  0  0  0  0  0  0  0  0  0
   11.2436  -18.4823   25.8423 N   0  0  0  0  0  0  0  0  0  0  0  0
   11.9364  -19.7103   27.7354 C   0  0  0  0  0  0  0  0  0  0  0  0
   11.8734  -18.6053   28.2970 O   0  0  0  0  0  0  0  0  0  0  0  0
   12.2455  -20.8294   28.4700 O   0  0  0  0  0  0  0  0  0  0  0  0
  2  1  1  6
  2  3  1  0
  3  4  1  0
  4  5  2  0
  5  6  1  0
  7  6  2  0
  8  7  1  0
  9  4  1  0
  9  8  2  0
 10 11  2  0
 10  2  1  0
 12 10  1  0
 13 12  1  0
 13 14  1  1
 15 16  2  0
 15 14  1  0
 17 16  1  0
 18 23  2  0
 18 17  1  0
 19 18  1  0
 20 19  2  0
 20 21  1  0
 21 22  2  0
 22 23  1  0
 23 15  1  0
 24 25  2  0
 24 13  1  0
 27 26  1  0
 27 28  2  0
 29 30  1  0
 29 27  1  0
 31 30  1  0
 32 31  1  0
 33 34  1  0
 33 32  1  6
 34 24  1  0
 35 33  1  0
 36 35  2  0
 37 35  1  0
M  END
$$$$
