FWR.pdb
     RDKit          3D

 37 39  0  0  1  0  0  0  0  0999 V2000
    6.5344  -14.4510   21.2245 N   0  0  0  0  0  0  0  0  0  0  0  0
    7.8774  -14.9563   21.1591 C   0  0  1  0  0  0  0  0  0  0  0  0
    8.8186  -14.1113   20.3371 C   0  0  0  0  0  0  0  0  0  0  0  0
    8.3547  -13.9436   18.9399 C   0  0  0  0  0  0  0  0  0  0  0  0
    7.8948  -12.7228   18.5396 C   0  0  0  0  0  0  0  0  0  0  0  0
    7.4549  -12.5576   17.2233 C   0  0  0  0  0  0  0  0  0  0  0  0
    7.5020  -13.6388   16.3737 C   0  0  0  0  0  0  0  0  0  0  0  0
    7.9697  -14.8580   16.8015 C   0  0  0  0  0  0  0  0  0  0  0  0
    8.4044  -15.0232   18.1003 C   0  0  0  0  0  0  0  0  0  0  0  0
    8.4405  -15.0489   22.5291 C   0  0  0  0  0  0  0  0  0  0  0  0
    8.5581  -13.9888   23.1876 O   0  0  0  0  0  0  0  0  0  0  0  0
    8.8472  -16.2625   23.1198 N   0  0  0  0  0  0  0  0  0  0  0  0
    9.4133  -16.2654   24.4274 C   0  0  1  0  0  0  0  0  0  0  0  0
    8.4869  -16.4975   25.5610 C   0  0  0  0  0  0  0  0  0  0  0  0
    7.4201  -15.5206   25.7567 C   0  0  0  0  0  0  0  0  0  0  0  0
    6.0799  -15.6438   25.5049 C   0  0  0  0  0  0  0  0  0  0  0  0
    5.4914  -14.4731   25.8390 N   0  0  0  0  0  0  0  0  0  0  0  0
    6.3963  -13.5941   26.2977 C   0  0  0  0  0  0  0  0  0  0  0  0
    6.3525  -12.3089   26.7561 C   0  0  0  0  0  0  0  0  0  0  0  0
    7.5069  -11.6816   27.1607 C   0  0  0  0  0  0  0  0  0  0  0  0
    8.7302  -12.3111   27.1209 C   0  0  0  0  0  0  0  0  0  0  0  0
    8.7758  -13.6060   26.6594 C   0  0  0  0  0  0  0  0  0  0  0  0
    7.6223  -14.2459   26.2503 C   0  0  0  0  0  0  0  0  0  0  0  0
   10.3901  -17.4215   24.4447 C   0  0  0  0  0  0  0  0  0  0  0  0
    9.9699  -18.5477   24.8210 O   0  0  0  0  0  0  0  0  0  0  0  0
   13.1109  -13.5922   20.0667 N   0  0  0  0  0  0  0  0  0  0  0  0
   13.4165  -14.9596   19.8634 C   0  0  0  0  0  0  0  0  0  0  0  0
   13.2598  -15.5079   18.7116 N   0  0  0  0  0  0  0  0  0  0  0  0
   13.8980  -15.7319   20.9514 N   0  0  0  0  0  0  0  0  0  0  0  0
   14.0755  -17.1642   20.8022 C   0  0  0  0  0  0  0  0  0  0  0  0
   13.1150  -17.9114   21.6843 C   0  0  0  0  0  0  0  0  0  0  0  0
   13.6753  -18.3198   22.9901 C   0  0  0  0  0  0  0  0  0  0  0  0
   12.6885  -18.4201   24.1056 C   0  0  2  0  0  0  0  0  0  0  0  0
   11.7327  -17.2986   24.0659 N   0  0  0  0  0  0  0  0  0  0  0  0
   13.3112  -18.3887   25.4414 C   0  0  0  0  0  0  0  0  0  0  0  0
   14.1418  -19.2540   25.7602 O   0  0  0  0  0  0  0  0  0  0  0  0
   12.9769  -17.4039   26.3392 O   0  0  0  0  0  0  0  0  0  0  0  0
  2  1  1  1
  2  3  1  0
  3  4  1  0
  4  5  2  0
  5  6  1  0
  7  6  2  0
  8  7  1  0
  9  4  1  0
  9  8  2  0
 10 11  2  0
 10  2  1  0
 12 10  1  0
 13 12  1  0
 13 14  1  1
 15 16  2  0
 15 14  1  0
 17 16  1  0
 18 23  2  0
 18 17  1  0
 19 18  1  0
 20 19  2  0
 20 21  1  0
 21 22  2  0
 22 23  1  0
 23 15  1  0
 24 25  2  0
 24 13  1  0
 27 26  1  0
 27 28  2  0
 29 30  1  0
 29 27  1  0
 31 30  1  0
 32 31  1  0
 33 34  1  0
 33 32  1  6
 34 24  1  0
 35 33  1  0
 36 35  2  0
 37 35  1  0
M  END
$$$$
