FWR.pdb
     RDKit          3D

 37 39  0  0  1  0  0  0  0  0999 V2000
    7.4164  -16.9894   20.7707 N   0  0  0  0  0  0  0  0  0  0  0  0
    8.8101  -16.7383   20.5303 C   0  0  1  0  0  0  0  0  0  0  0  0
    9.0792  -15.6445   19.5268 C   0  0  0  0  0  0  0  0  0  0  0  0
    8.3796  -14.3826   19.8640 C   0  0  0  0  0  0  0  0  0  0  0  0
    7.0207  -14.3946   19.9885 C   0  0  0  0  0  0  0  0  0  0  0  0
    6.3542  -13.2079   20.3058 C   0  0  0  0  0  0  0  0  0  0  0  0
    7.0972  -12.0634   20.4821 C   0  0  0  0  0  0  0  0  0  0  0  0
    8.4650  -12.0777   20.3511 C   0  0  0  0  0  0  0  0  0  0  0  0
    9.1249  -13.2480   20.0380 C   0  0  0  0  0  0  0  0  0  0  0  0
    9.4716  -16.3514   21.8013 C   0  0  0  0  0  0  0  0  0  0  0  0
   10.6135  -15.8385   21.7356 O   0  0  0  0  0  0  0  0  0  0  0  0
    8.8818  -16.5329   23.0687 N   0  0  0  0  0  0  0  0  0  0  0  0
    9.5624  -16.0957   24.2418 C   0  0  1  0  0  0  0  0  0  0  0  0
    8.8147  -16.1684   25.5197 C   0  0  0  0  0  0  0  0  0  0  0  0
    7.4816  -15.5745   25.5430 C   0  0  0  0  0  0  0  0  0  0  0  0
    6.2784  -16.1409   25.2171 C   0  0  0  0  0  0  0  0  0  0  0  0
    5.3228  -15.1998   25.3896 N   0  0  0  0  0  0  0  0  0  0  0  0
    5.8578  -14.0441   25.8144 C   0  0  0  0  0  0  0  0  0  0  0  0
    5.3690  -12.8104   26.1344 C   0  0  0  0  0  0  0  0  0  0  0  0
    6.2237  -11.8162   26.5479 C   0  0  0  0  0  0  0  0  0  0  0  0
    7.5808  -12.0201   26.6540 C   0  0  0  0  0  0  0  0  0  0  0  0
    8.0746  -13.2627   26.3319 C   0  0  0  0  0  0  0  0  0  0  0  0
    7.2251  -14.2687   25.9154 C   0  0  0  0  0  0  0  0  0  0  0  0
   10.7442  -17.0286   24.3974 C   0  0  0  0  0  0  0  0  0  0  0  0
   10.5143  -18.2383   24.6624 O   0  0  0  0  0  0  0  0  0  0  0  0
   13.1586  -15.4656   18.8680 N   0  0  0  0  0  0  0  0  0  0  0  0
   14.3910  -15.2349   19.5256 C   0  0  0  0  0  0  0  0  0  0  0  0
   15.1605  -14.2693   19.1683 N   0  0  0  0  0  0  0  0  0  0  0  0
   14.7792  -16.0877   20.5905 N   0  0  0  0  0  0  0  0  0  0  0  0
   13.7802  -16.8683   21.2962 C   0  0  0  0  0  0  0  0  0  0  0  0
   14.4230  -17.7135   22.3597 C   0  0  0  0  0  0  0  0  0  0  0  0
   14.4018  -17.1155   23.7118 C   0  0  0  0  0  0  0  0  0  0  0  0
   13.2266  -17.4841   24.5551 C   0  0  2  0  0  0  0  0  0  0  0  0
   12.0745  -16.6121   24.2632 N   0  0  0  0  0  0  0  0  0  0  0  0
   13.4841  -17.3625   26.0015 C   0  0  0  0  0  0  0  0  0  0  0  0
   14.3174  -18.1020   26.5485 O   0  0  0  0  0  0  0  0  0  0  0  0
   12.8051  -16.4324   26.7509 O   0  0  0  0  0  0  0  0  0  0  0  0
  2  1  1  1
  2  3  1  0
  3  4  1  0
  4  5  2  0
  5  6  1  0
  7  6  2  0
  8  7  1  0
  9  4  1  0
  9  8  2  0
 10 11  2  0
 10  2  1  0
 12 10  1  0
 13 12  1  0
 13 14  1  1
 15 16  2  0
 15 14  1  0
 17 16  1  0
 18 23  2  0
 18 17  1  0
 19 18  1  0
 20 19  2  0
 20 21  1  0
 21 22  2  0
 22 23  1  0
 23 15  1  0
 24 25  2  0
 24 13  1  0
 27 26  1  0
 27 28  2  0
 29 30  1  0
 29 27  1  0
 31 30  1  0
 32 31  1  0
 33 34  1  0
 33 32  1  6
 34 24  1  0
 35 33  1  0
 36 35  2  0
 37 35  1  0
M  END
$$$$
