FWR.pdb
     RDKit          3D

 37 39  0  0  1  0  0  0  0  0999 V2000
    8.9009  -16.3087   21.5410 N   0  0  0  0  0  0  0  0  0  0  0  0
    9.6516  -15.1877   22.0341 C   0  0  1  0  0  0  0  0  0  0  0  0
    8.8812  -13.8910   22.0658 C   0  0  0  0  0  0  0  0  0  0  0  0
    8.1755  -13.6208   20.7912 C   0  0  0  0  0  0  0  0  0  0  0  0
    6.9851  -14.2433   20.5514 C   0  0  0  0  0  0  0  0  0  0  0  0
    6.3144  -13.9937   19.3509 C   0  0  0  0  0  0  0  0  0  0  0  0
    6.8824  -13.1238   18.4489 C   0  0  0  0  0  0  0  0  0  0  0  0
    8.0827  -12.5095   18.7143 C   0  0  0  0  0  0  0  0  0  0  0  0
    8.7464  -12.7545   19.8986 C   0  0  0  0  0  0  0  0  0  0  0  0
   10.1122  -15.4679   23.4168 C   0  0  0  0  0  0  0  0  0  0  0  0
   11.0872  -14.8126   23.8541 O   0  0  0  0  0  0  0  0  0  0  0  0
    9.5109  -16.4290   24.2545 N   0  0  0  0  0  0  0  0  0  0  0  0
    9.9552  -16.5813   25.5997 C   0  0  1  0  0  0  0  0  0  0  0  0
    8.9145  -16.5865   26.6553 C   0  0  0  0  0  0  0  0  0  0  0  0
    7.8248  -15.6251   26.5174 C   0  0  0  0  0  0  0  0  0  0  0  0
    6.5334  -15.8361   26.1145 C   0  0  0  0  0  0  0  0  0  0  0  0
    5.8968  -14.6433   26.1393 N   0  0  0  0  0  0  0  0  0  0  0  0
    6.7239  -13.6656   26.5421 C   0  0  0  0  0  0  0  0  0  0  0  0
    6.6089  -12.3198   26.7398 C   0  0  0  0  0  0  0  0  0  0  0  0
    7.6920  -11.5913   27.1712 C   0  0  0  0  0  0  0  0  0  0  0  0
    8.9129  -12.1775   27.4165 C   0  0  0  0  0  0  0  0  0  0  0  0
    9.0301  -13.5334   27.2178 C   0  0  0  0  0  0  0  0  0  0  0  0
    7.9486  -14.2750   26.7846 C   0  0  0  0  0  0  0  0  0  0  0  0
   10.6142  -17.9426   25.6584 C   0  0  0  0  0  0  0  0  0  0  0  0
   11.0102  -18.3624   26.7780 O   0  0  0  0  0  0  0  0  0  0  0  0
   15.2177  -19.6595   18.6757 N   0  0  0  0  0  0  0  0  0  0  0  0
   14.1865  -20.5790   18.9849 C   0  0  0  0  0  0  0  0  0  0  0  0
   13.6337  -21.2864   18.0652 N   0  0  0  0  0  0  0  0  0  0  0  0
   13.7582  -20.7141   20.3305 N   0  0  0  0  0  0  0  0  0  0  0  0
   14.4233  -19.9678   21.3821 C   0  0  0  0  0  0  0  0  0  0  0  0
   13.7828  -20.2437   22.7134 C   0  0  0  0  0  0  0  0  0  0  0  0
   12.5881  -19.4208   22.9994 C   0  0  0  0  0  0  0  0  0  0  0  0
   11.9854  -19.6174   24.3508 C   0  0  2  0  0  0  0  0  0  0  0  0
   10.8054  -18.7527   24.5322 N   0  0  0  0  0  0  0  0  0  0  0  0
   12.9087  -19.2977   25.4546 C   0  0  0  0  0  0  0  0  0  0  0  0
   13.2112  -18.1172   25.6894 O   0  0  0  0  0  0  0  0  0  0  0  0
   13.4387  -20.3020   26.2281 O   0  0  0  0  0  0  0  0  0  0  0  0
  2  1  1  1
  2  3  1  0
  3  4  1  0
  4  5  2  0
  5  6  1  0
  7  6  2  0
  8  7  1  0
  9  4  1  0
  9  8  2  0
 10 11  2  0
 10  2  1  0
 12 10  1  0
 13 12  1  0
 13 14  1  1
 15 16  2  0
 15 14  1  0
 17 16  1  0
 18 23  2  0
 18 17  1  0
 19 18  1  0
 20 19  2  0
 20 21  1  0
 21 22  2  0
 22 23  1  0
 23 15  1  0
 24 25  2  0
 24 13  1  0
 27 26  1  0
 27 28  2  0
 29 30  1  0
 29 27  1  0
 31 30  1  0
 32 31  1  0
 33 34  1  0
 33 32  1  6
 34 24  1  0
 35 33  1  0
 36 35  2  0
 37 35  1  0
M  END
$$$$
