FWR.pdb
     RDKit          3D

 37 39  0  0  1  0  0  0  0  0999 V2000
   10.1730  -15.1575   18.2873 N   0  0  0  0  0  0  0  0  0  0  0  0
   10.0203  -16.2893   19.1586 C   0  0  1  0  0  0  0  0  0  0  0  0
   11.2357  -17.1794   19.2379 C   0  0  0  0  0  0  0  0  0  0  0  0
   11.1984  -18.2779   18.2442 C   0  0  0  0  0  0  0  0  0  0  0  0
   10.2069  -18.2857   17.3066 C   0  0  0  0  0  0  0  0  0  0  0  0
   10.1651  -19.3193   16.3667 C   0  0  0  0  0  0  0  0  0  0  0  0
   11.1312  -20.2973   16.4214 C   0  0  0  0  0  0  0  0  0  0  0  0
   12.1193  -20.2666   17.3759 C   0  0  0  0  0  0  0  0  0  0  0  0
   12.1624  -19.2474   18.3046 C   0  0  0  0  0  0  0  0  0  0  0  0
    9.7194  -15.8201   20.5341 C   0  0  0  0  0  0  0  0  0  0  0  0
   10.6175  -15.2016   21.1523 O   0  0  0  0  0  0  0  0  0  0  0  0
    8.4818  -16.0363   21.1736 N   0  0  0  0  0  0  0  0  0  0  0  0
    8.2909  -15.6126   22.5206 C   0  0  1  0  0  0  0  0  0  0  0  0
    6.9071  -15.6576   23.0501 C   0  0  0  0  0  0  0  0  0  0  0  0
    6.7246  -15.3219   24.4589 C   0  0  0  0  0  0  0  0  0  0  0  0
    6.4411  -16.1479   25.5134 C   0  0  0  0  0  0  0  0  0  0  0  0
    6.3596  -15.3807   26.6239 N   0  0  0  0  0  0  0  0  0  0  0  0
    6.5785  -14.0887   26.3325 C   0  0  0  0  0  0  0  0  0  0  0  0
    6.6130  -12.9267   27.0481 C   0  0  0  0  0  0  0  0  0  0  0  0
    6.8739  -11.7346   26.4149 C   0  0  0  0  0  0  0  0  0  0  0  0
    7.1065  -11.6653   25.0601 C   0  0  0  0  0  0  0  0  0  0  0  0
    7.0721  -12.8353   24.3379 C   0  0  0  0  0  0  0  0  0  0  0  0
    6.8109  -14.0384   24.9637 C   0  0  0  0  0  0  0  0  0  0  0  0
    9.0923  -16.5776   23.3676 C   0  0  0  0  0  0  0  0  0  0  0  0
    8.9431  -17.8115   23.1632 O   0  0  0  0  0  0  0  0  0  0  0  0
   17.1839  -16.3117   24.4995 N   0  0  0  0  0  0  0  0  0  0  0  0
   16.3079  -16.8871   23.5478 C   0  0  0  0  0  0  0  0  0  0  0  0
   16.6620  -17.0213   22.3195 N   0  0  0  0  0  0  0  0  0  0  0  0
   15.0203  -17.3160   23.9604 N   0  0  0  0  0  0  0  0  0  0  0  0
   14.6836  -17.3477   25.3714 C   0  0  0  0  0  0  0  0  0  0  0  0
   13.2376  -17.7101   25.5627 C   0  0  0  0  0  0  0  0  0  0  0  0
   12.2874  -16.8307   24.8488 C   0  0  0  0  0  0  0  0  0  0  0  0
   10.8436  -17.1001   25.1155 C   0  0  2  0  0  0  0  0  0  0  0  0
    9.9858  -16.1658   24.3642 N   0  0  0  0  0  0  0  0  0  0  0  0
   10.4742  -16.9537   26.5350 C   0  0  0  0  0  0  0  0  0  0  0  0
    9.6734  -16.0709   26.8808 O   0  0  0  0  0  0  0  0  0  0  0  0
   11.0128  -17.7914   27.4815 O   0  0  0  0  0  0  0  0  0  0  0  0
  2  1  1  6
  2  3  1  0
  3  4  1  0
  4  5  2  0
  5  6  1  0
  7  6  2  0
  8  7  1  0
  9  4  1  0
  9  8  2  0
 10 11  2  0
 10  2  1  0
 12 10  1  0
 13 12  1  0
 13 14  1  1
 15 16  2  0
 15 14  1  0
 17 16  1  0
 18 23  2  0
 18 17  1  0
 19 18  1  0
 20 19  2  0
 20 21  1  0
 21 22  2  0
 22 23  1  0
 23 15  1  0
 24 25  2  0
 24 13  1  0
 27 26  1  0
 27 28  2  0
 29 30  1  0
 29 27  1  0
 31 30  1  0
 32 31  1  0
 33 34  1  0
 33 32  1  1
 34 24  1  0
 35 33  1  0
 36 35  2  0
 37 35  1  0
M  END
$$$$
