FWR.pdb
     RDKit          3D

 37 39  0  0  1  0  0  0  0  0999 V2000
    7.2745  -17.8394   20.9531 N   0  0  0  0  0  0  0  0  0  0  0  0
    7.8307  -16.5335   20.7327 C   0  0  1  0  0  0  0  0  0  0  0  0
    6.8031  -15.4481   20.5282 C   0  0  0  0  0  0  0  0  0  0  0  0
    7.4087  -14.1734   20.0769 C   0  0  0  0  0  0  0  0  0  0  0  0
    7.9048  -14.0915   18.8083 C   0  0  0  0  0  0  0  0  0  0  0  0
    8.4781  -12.8923   18.3761 C   0  0  0  0  0  0  0  0  0  0  0  0
    8.5217  -11.8314   19.2511 C   0  0  0  0  0  0  0  0  0  0  0  0
    8.0150  -11.9397   20.5238 C   0  0  0  0  0  0  0  0  0  0  0  0
    7.4487  -13.1223   20.9524 C   0  0  0  0  0  0  0  0  0  0  0  0
    8.6647  -16.1458   21.8975 C   0  0  0  0  0  0  0  0  0  0  0  0
    9.5545  -15.2810   21.7196 O   0  0  0  0  0  0  0  0  0  0  0  0
    8.5056  -16.7002   23.1838 N   0  0  0  0  0  0  0  0  0  0  0  0
    9.2993  -16.2266   24.2682 C   0  0  1  0  0  0  0  0  0  0  0  0
    8.6841  -16.2593   25.6165 C   0  0  0  0  0  0  0  0  0  0  0  0
    7.4394  -15.5184   25.7960 C   0  0  0  0  0  0  0  0  0  0  0  0
    6.1484  -15.9529   25.6570 C   0  0  0  0  0  0  0  0  0  0  0  0
    5.3337  -14.9062   25.9199 N   0  0  0  0  0  0  0  0  0  0  0  0
    6.0444  -13.8086   26.2239 C   0  0  0  0  0  0  0  0  0  0  0  0
    5.7413  -12.5204   26.5588 C   0  0  0  0  0  0  0  0  0  0  0  0
    6.7478  -11.6196   26.8148 C   0  0  0  0  0  0  0  0  0  0  0  0
    8.0763  -11.9728   26.7452 C   0  0  0  0  0  0  0  0  0  0  0  0
    8.3830  -13.2704   26.4079 C   0  0  0  0  0  0  0  0  0  0  0  0
    7.3800  -14.1836   26.1487 C   0  0  0  0  0  0  0  0  0  0  0  0
   10.4936  -17.1542   24.3331 C   0  0  0  0  0  0  0  0  0  0  0  0
   10.3114  -18.3277   24.7525 O   0  0  0  0  0  0  0  0  0  0  0  0
   16.5106  -15.7931   18.4717 N   0  0  0  0  0  0  0  0  0  0  0  0
   15.2158  -15.2804   18.7267 C   0  0  0  0  0  0  0  0  0  0  0  0
   14.8051  -14.2063   18.1526 N   0  0  0  0  0  0  0  0  0  0  0  0
   14.3654  -15.9637   19.6333 N   0  0  0  0  0  0  0  0  0  0  0  0
   14.7866  -16.1730   21.0059 C   0  0  0  0  0  0  0  0  0  0  0  0
   13.7037  -16.8553   21.7937 C   0  0  0  0  0  0  0  0  0  0  0  0
   14.0721  -17.1753   23.1894 C   0  0  0  0  0  0  0  0  0  0  0  0
   12.9542  -17.6640   24.0494 C   0  0  2  0  0  0  0  0  0  0  0  0
   11.7856  -16.7707   23.9525 N   0  0  0  0  0  0  0  0  0  0  0  0
   13.3052  -17.7359   25.4793 C   0  0  0  0  0  0  0  0  0  0  0  0
   12.7513  -16.9808   26.2937 O   0  0  0  0  0  0  0  0  0  0  0  0
   14.2452  -18.6368   25.9181 O   0  0  0  0  0  0  0  0  0  0  0  0
  2  1  1  1
  2  3  1  0
  3  4  1  0
  4  5  2  0
  5  6  1  0
  7  6  2  0
  8  7  1  0
  9  4  1  0
  9  8  2  0
 10 11  2  0
 10  2  1  0
 12 10  1  0
 13 12  1  0
 13 14  1  1
 15 16  2  0
 15 14  1  0
 17 16  1  0
 18 23  2  0
 18 17  1  0
 19 18  1  0
 20 19  2  0
 20 21  1  0
 21 22  2  0
 22 23  1  0
 23 15  1  0
 24 25  2  0
 24 13  1  0
 27 26  1  0
 27 28  2  0
 29 30  1  0
 29 27  1  0
 31 30  1  0
 32 31  1  0
 33 34  1  0
 33 32  1  6
 34 24  1  0
 35 33  1  0
 36 35  2  0
 37 35  1  0
M  END
$$$$
