FWR.pdb
     RDKit          3D

 37 39  0  0  1  0  0  0  0  0999 V2000
    8.1178  -16.0324   20.6340 N   0  0  0  0  0  0  0  0  0  0  0  0
    8.8539  -14.8095   20.7950 C   0  0  1  0  0  0  0  0  0  0  0  0
    8.0286  -13.5601   20.6112 C   0  0  0  0  0  0  0  0  0  0  0  0
    7.4385  -13.4661   19.2553 C   0  0  0  0  0  0  0  0  0  0  0  0
    8.2474  -13.1430   18.2048 C   0  0  0  0  0  0  0  0  0  0  0  0
    7.6974  -13.0518   16.9232 C   0  0  0  0  0  0  0  0  0  0  0  0
    6.3519  -13.2927   16.7664 C   0  0  0  0  0  0  0  0  0  0  0  0
    5.5587  -13.6164   17.8409 C   0  0  0  0  0  0  0  0  0  0  0  0
    6.0995  -13.7069   19.1067 C   0  0  0  0  0  0  0  0  0  0  0  0
    9.4431  -14.7598   22.1562 C   0  0  0  0  0  0  0  0  0  0  0  0
   10.2039  -13.8023   22.4313 O   0  0  0  0  0  0  0  0  0  0  0  0
    9.1906  -15.7311   23.1462 N   0  0  0  0  0  0  0  0  0  0  0  0
    9.8218  -15.6329   24.4199 C   0  0  1  0  0  0  0  0  0  0  0  0
    9.0332  -16.0693   25.5968 C   0  0  0  0  0  0  0  0  0  0  0  0
    7.7566  -15.3996   25.8254 C   0  0  0  0  0  0  0  0  0  0  0  0
    6.4864  -15.8778   25.6449 C   0  0  0  0  0  0  0  0  0  0  0  0
    5.6257  -14.8912   25.9832 N   0  0  0  0  0  0  0  0  0  0  0  0
    6.2866  -13.7907   26.3759 C   0  0  0  0  0  0  0  0  0  0  0  0
    5.9262  -12.5469   26.8080 C   0  0  0  0  0  0  0  0  0  0  0  0
    6.8913  -11.6258   27.1395 C   0  0  0  0  0  0  0  0  0  0  0  0
    8.2342  -11.9142   27.0511 C   0  0  0  0  0  0  0  0  0  0  0  0
    8.5987  -13.1670   26.6160 C   0  0  0  0  0  0  0  0  0  0  0  0
    7.6376  -14.1002   26.2803 C   0  0  0  0  0  0  0  0  0  0  0  0
   11.0174  -16.5587   24.3534 C   0  0  0  0  0  0  0  0  0  0  0  0
   10.8051  -17.7940   24.2295 O   0  0  0  0  0  0  0  0  0  0  0  0
   16.1299  -15.9308   17.9867 N   0  0  0  0  0  0  0  0  0  0  0  0
   16.0822  -14.6642   18.6174 C   0  0  0  0  0  0  0  0  0  0  0  0
   16.6823  -13.6485   18.1073 N   0  0  0  0  0  0  0  0  0  0  0  0
   15.3639  -14.5209   19.8322 N   0  0  0  0  0  0  0  0  0  0  0  0
   14.7615  -15.6819   20.4603 C   0  0  0  0  0  0  0  0  0  0  0  0
   15.1595  -15.7672   21.9071 C   0  0  0  0  0  0  0  0  0  0  0  0
   14.0847  -15.4136   22.8588 C   0  0  0  0  0  0  0  0  0  0  0  0
   13.4010  -16.5703   23.5091 C   0  0  2  0  0  0  0  0  0  0  0  0
   12.3418  -16.1093   24.4248 N   0  0  0  0  0  0  0  0  0  0  0  0
   14.3087  -17.4095   24.3121 C   0  0  0  0  0  0  0  0  0  0  0  0
   13.8574  -18.3624   24.9668 O   0  0  0  0  0  0  0  0  0  0  0  0
   15.6561  -17.1427   24.3407 O   0  0  0  0  0  0  0  0  0  0  0  0
  2  1  1  1
  2  3  1  0
  3  4  1  0
  4  5  2  0
  5  6  1  0
  7  6  2  0
  8  7  1  0
  9  4  1  0
  9  8  2  0
 10 11  2  0
 10  2  1  0
 12 10  1  0
 13 12  1  0
 13 14  1  1
 15 16  2  0
 15 14  1  0
 17 16  1  0
 18 23  2  0
 18 17  1  0
 19 18  1  0
 20 19  2  0
 20 21  1  0
 21 22  2  0
 22 23  1  0
 23 15  1  0
 24 25  2  0
 24 13  1  0
 27 26  1  0
 27 28  2  0
 29 30  1  0
 29 27  1  0
 31 30  1  0
 32 31  1  0
 33 34  1  0
 33 32  1  1
 34 24  1  0
 35 33  1  0
 36 35  2  0
 37 35  1  0
M  END
$$$$
