FWR.pdb
     RDKit          3D

 37 39  0  0  1  0  0  0  0  0999 V2000
    7.3339  -18.1006   20.5523 N   0  0  0  0  0  0  0  0  0  0  0  0
    7.7608  -16.7408   20.3738 C   0  0  1  0  0  0  0  0  0  0  0  0
    6.6466  -15.7793   20.0423 C   0  0  0  0  0  0  0  0  0  0  0  0
    7.1331  -14.3924   19.8547 C   0  0  0  0  0  0  0  0  0  0  0  0
    7.7403  -14.0597   18.6788 C   0  0  0  0  0  0  0  0  0  0  0  0
    8.2024  -12.7534   18.4953 C   0  0  0  0  0  0  0  0  0  0  0  0
    8.0270  -11.8448   19.5136 C   0  0  0  0  0  0  0  0  0  0  0  0
    7.4123  -12.2052   20.6885 C   0  0  0  0  0  0  0  0  0  0  0  0
    6.9555  -13.4939   20.8717 C   0  0  0  0  0  0  0  0  0  0  0  0
    8.4131  -16.2578   21.6163 C   0  0  0  0  0  0  0  0  0  0  0  0
    9.0996  -15.2111   21.5495 O   0  0  0  0  0  0  0  0  0  0  0  0
    8.2993  -16.9157   22.8578 N   0  0  0  0  0  0  0  0  0  0  0  0
    8.9784  -16.4045   24.0014 C   0  0  1  0  0  0  0  0  0  0  0  0
    8.2739  -16.5030   25.3020 C   0  0  0  0  0  0  0  0  0  0  0  0
    7.8288  -15.2537   25.9116 C   0  0  0  0  0  0  0  0  0  0  0  0
    6.6219  -14.6178   25.7942 C   0  0  0  0  0  0  0  0  0  0  0  0
    6.6796  -13.4897   26.5375 N   0  0  0  0  0  0  0  0  0  0  0  0
    7.8765  -13.3674   27.1331 C   0  0  0  0  0  0  0  0  0  0  0  0
    8.4557  -12.4527   27.9646 C   0  0  0  0  0  0  0  0  0  0  0  0
    9.7455  -12.6387   28.4026 C   0  0  0  0  0  0  0  0  0  0  0  0
   10.4910  -13.7333   28.0280 C   0  0  0  0  0  0  0  0  0  0  0  0
    9.9086  -14.6558   27.1903 C   0  0  0  0  0  0  0  0  0  0  0  0
    8.6136  -14.4789   26.7442 C   0  0  0  0  0  0  0  0  0  0  0  0
   10.2292  -17.2453   24.1409 C   0  0  0  0  0  0  0  0  0  0  0  0
   10.0941  -18.4753   24.3760 O   0  0  0  0  0  0  0  0  0  0  0  0
   15.9913  -14.5476   19.8657 N   0  0  0  0  0  0  0  0  0  0  0  0
   14.6710  -14.3162   19.4101 C   0  0  0  0  0  0  0  0  0  0  0  0
   14.4432  -13.9607   18.1961 N   0  0  0  0  0  0  0  0  0  0  0  0
   13.5880  -14.4763   20.3121 N   0  0  0  0  0  0  0  0  0  0  0  0
   13.8407  -14.8574   21.6891 C   0  0  0  0  0  0  0  0  0  0  0  0
   13.5746  -16.3229   21.8901 C   0  0  0  0  0  0  0  0  0  0  0  0
   13.8433  -16.8109   23.2597 C   0  0  0  0  0  0  0  0  0  0  0  0
   12.7260  -17.5660   23.8996 C   0  0  2  0  0  0  0  0  0  0  0  0
   11.5231  -16.7228   24.0233 N   0  0  0  0  0  0  0  0  0  0  0  0
   13.0436  -18.0392   25.2591 C   0  0  0  0  0  0  0  0  0  0  0  0
   12.5826  -17.4460   26.2470 O   0  0  0  0  0  0  0  0  0  0  0  0
   13.8498  -19.1369   25.4405 O   0  0  0  0  0  0  0  0  0  0  0  0
  2  1  1  1
  2  3  1  0
  3  4  1  0
  4  5  2  0
  5  6  1  0
  7  6  2  0
  8  7  1  0
  9  4  1  0
  9  8  2  0
 10 11  2  0
 10  2  1  0
 12 10  1  0
 13 12  1  0
 13 14  1  1
 15 16  2  0
 15 14  1  0
 17 16  1  0
 18 23  2  0
 18 17  1  0
 19 18  1  0
 20 19  2  0
 20 21  1  0
 21 22  2  0
 22 23  1  0
 23 15  1  0
 24 25  2  0
 24 13  1  0
 27 26  1  0
 27 28  2  0
 29 30  1  0
 29 27  1  0
 31 30  1  0
 32 31  1  0
 33 34  1  0
 33 32  1  1
 34 24  1  0
 35 33  1  0
 36 35  2  0
 37 35  1  0
M  END
$$$$
