FWR.pdb
     RDKit          3D

 37 39  0  0  1  0  0  0  0  0999 V2000
    4.8399  -20.0615   23.1520 N   0  0  0  0  0  0  0  0  0  0  0  0
    5.8142  -19.6444   24.1215 C   0  0  1  0  0  0  0  0  0  0  0  0
    6.7921  -20.7214   24.5211 C   0  0  0  0  0  0  0  0  0  0  0  0
    6.4501  -21.3416   25.8226 C   0  0  0  0  0  0  0  0  0  0  0  0
    5.7437  -22.5091   25.8316 C   0  0  0  0  0  0  0  0  0  0  0  0
    5.4170  -23.0993   27.0557 C   0  0  0  0  0  0  0  0  0  0  0  0
    5.8222  -22.4777   28.2143 C   0  0  0  0  0  0  0  0  0  0  0  0
    6.5329  -21.3021   28.1781 C   0  0  0  0  0  0  0  0  0  0  0  0
    6.8564  -20.7179   26.9710 C   0  0  0  0  0  0  0  0  0  0  0  0
    6.5986  -18.5070   23.5797 C   0  0  0  0  0  0  0  0  0  0  0  0
    6.2829  -18.0617   22.4513 O   0  0  0  0  0  0  0  0  0  0  0  0
    7.6740  -17.9093   24.2678 N   0  0  0  0  0  0  0  0  0  0  0  0
    8.2116  -16.6704   23.8135 C   0  0  1  0  0  0  0  0  0  0  0  0
    8.5456  -15.6624   24.8479 C   0  0  0  0  0  0  0  0  0  0  0  0
    7.4291  -15.0377   25.5504 C   0  0  0  0  0  0  0  0  0  0  0  0
    6.4187  -15.6270   26.2622 C   0  0  0  0  0  0  0  0  0  0  0  0
    5.6156  -14.6423   26.7248 N   0  0  0  0  0  0  0  0  0  0  0  0
    6.0641  -13.4365   26.3413 C   0  0  0  0  0  0  0  0  0  0  0  0
    5.6520  -12.1476   26.5214 C   0  0  0  0  0  0  0  0  0  0  0  0
    6.3685  -11.1115   25.9709 C   0  0  0  0  0  0  0  0  0  0  0  0
    7.5083  -11.3270   25.2302 C   0  0  0  0  0  0  0  0  0  0  0  0
    7.9247  -12.6252   25.0481 C   0  0  0  0  0  0  0  0  0  0  0  0
    7.2126  -13.6737   25.5965 C   0  0  0  0  0  0  0  0  0  0  0  0
    9.5188  -17.0190   23.1348 C   0  0  0  0  0  0  0  0  0  0  0  0
   10.2572  -17.8831   23.6775 O   0  0  0  0  0  0  0  0  0  0  0  0
    7.2649  -14.2245   18.9571 N   0  0  0  0  0  0  0  0  0  0  0  0
    8.4513  -13.5116   18.6596 C   0  0  0  0  0  0  0  0  0  0  0  0
    8.4100  -12.2751   18.3113 N   0  0  0  0  0  0  0  0  0  0  0  0
    9.7007  -14.1780   18.7443 N   0  0  0  0  0  0  0  0  0  0  0  0
    9.9188  -15.4076   18.0055 C   0  0  0  0  0  0  0  0  0  0  0  0
   10.3702  -16.5058   18.9268 C   0  0  0  0  0  0  0  0  0  0  0  0
   11.3369  -16.0780   19.9605 C   0  0  0  0  0  0  0  0  0  0  0  0
   11.2154  -16.7733   21.2758 C   0  0  2  0  0  0  0  0  0  0  0  0
    9.9449  -16.4280   21.9388 N   0  0  0  0  0  0  0  0  0  0  0  0
   12.2881  -16.4219   22.2238 C   0  0  0  0  0  0  0  0  0  0  0  0
   13.4011  -16.9632   22.1311 O   0  0  0  0  0  0  0  0  0  0  0  0
   12.0631  -15.4956   23.2132 O   0  0  0  0  0  0  0  0  0  0  0  0
  2  1  1  6
  2  3  1  0
  3  4  1  0
  4  5  2  0
  5  6  1  0
  7  6  2  0
  8  7  1  0
  9  4  1  0
  9  8  2  0
 10 11  2  0
 10  2  1  0
 12 10  1  0
 13 12  1  0
 13 14  1  1
 15 16  2  0
 15 14  1  0
 17 16  1  0
 18 23  2  0
 18 17  1  0
 19 18  1  0
 20 19  2  0
 20 21  1  0
 21 22  2  0
 22 23  1  0
 23 15  1  0
 24 25  2  0
 24 13  1  0
 27 26  1  0
 27 28  2  0
 29 30  1  0
 29 27  1  0
 31 30  1  0
 32 31  1  0
 33 34  1  0
 33 32  1  6
 34 24  1  0
 35 33  1  0
 36 35  2  0
 37 35  1  0
M  END
$$$$
