DHC.pdb
     RDKit          3D

 25 25  0  0  1  0  0  0  0  0999 V2000
   16.3556  -11.7870  -17.3209 N   0  0  0  0  0  0  0  0  0  0  0  0
   16.9260  -11.1902  -16.1538 C   0  0  1  0  0  0  0  0  0  0  0  0
   18.1523  -11.9093  -15.6669 C   0  0  0  0  0  0  0  0  0  0  0  0
   17.7415  -13.2544  -15.1952 C   0  0  0  0  0  0  0  0  0  0  0  0
   16.7209  -13.4150  -14.4635 O   0  0  0  0  0  0  0  0  0  0  0  0
   17.2751   -9.7490  -16.4195 C   0  0  0  0  0  0  0  0  0  0  0  0
   16.7964   -9.1168  -17.3735 O   0  0  0  0  0  0  0  0  0  0  0  0
   18.4624  -14.3873  -15.5398 O   0  0  0  0  0  0  0  0  0  0  0  0
   18.1804   -9.0760  -15.5598 N   0  0  0  0  0  0  0  0  0  0  0  0
   18.4234   -7.6536  -15.6473 C   0  0  1  0  0  0  0  0  0  0  0  0
   17.1523   -6.9189  -15.2824 C   0  0  0  0  0  0  0  0  0  0  0  0
   16.2113   -6.8568  -16.4341 C   0  0  0  0  0  0  0  0  0  0  0  0
   16.5385   -6.3078  -17.6498 C   0  0  0  0  0  0  0  0  0  0  0  0
   15.4840   -6.4033  -18.4725 N   0  0  0  0  0  0  0  0  0  0  0  0
   14.4961   -7.0060  -17.7900 C   0  0  0  0  0  0  0  0  0  0  0  0
   14.9447   -7.2851  -16.5343 N   0  0  0  0  0  0  0  0  0  0  0  0
   19.4333   -7.2779  -14.5943 C   0  0  0  0  0  0  0  0  0  0  0  0
   19.5174   -7.9616  -13.5291 O   0  0  0  0  0  0  0  0  0  0  0  0
   20.3011   -6.1807  -14.7481 N   0  0  0  0  0  0  0  0  0  0  0  0
   21.5393   -6.1577  -14.0129 C   0  0  1  0  0  0  0  0  0  0  0  0
   22.5387   -7.1574  -14.5559 C   0  0  0  0  0  0  0  0  0  0  0  0
   22.2655   -8.8136  -13.8813 S   0  0  0  0  0  0  0  0  0  0  0  0
   22.0805   -4.7832  -14.0095 C   0  0  0  0  0  0  0  0  0  0  0  0
   22.8236   -4.2727  -12.9613 O   0  0  0  0  0  0  0  0  0  0  0  0
   21.8554   -4.0492  -15.0003 O   0  0  0  0  0  0  0  0  0  0  0  0
  2  1  1  6
  3  2  1  0
  3  4  1  0
  4  8  1  0
  5  4  2  0
  6  7  2  0
  6  2  1  0
  9  6  1  0
 10 11  1  1
 10  9  1  0
 11 12  1  0
 12 16  1  0
 12 13  2  0
 13 14  1  0
 15 14  1  0
 16 15  2  0
 17 10  1  0
 18 17  2  0
 19 17  1  0
 20 19  1  0
 20 21  1  6
 21 22  1  0
 23 24  1  0
 23 20  1  0
 25 23  2  0
M  END
$$$$
