DHC.pdb
     RDKit          3D

 25 25  0  0  1  0  0  0  0  0999 V2000
   27.6660  -21.4800  -18.1978 N   0  0  0  0  0  0  0  0  0  0  0  0
   28.1378  -20.6666  -17.1210 C   0  0  1  0  0  0  0  0  0  0  0  0
   27.8578  -19.2043  -17.3242 C   0  0  0  0  0  0  0  0  0  0  0  0
   28.8456  -18.6763  -18.2969 C   0  0  0  0  0  0  0  0  0  0  0  0
   28.7920  -18.9808  -19.5246 O   0  0  0  0  0  0  0  0  0  0  0  0
   27.5195  -21.1087  -15.8204 C   0  0  0  0  0  0  0  0  0  0  0  0
   28.0176  -22.0042  -15.1211 O   0  0  0  0  0  0  0  0  0  0  0  0
   29.8659  -17.8281  -17.8954 O   0  0  0  0  0  0  0  0  0  0  0  0
   26.3272  -20.4910  -15.3641 N   0  0  0  0  0  0  0  0  0  0  0  0
   25.7585  -20.7653  -14.0636 C   0  0  1  0  0  0  0  0  0  0  0  0
   26.6823  -20.2115  -13.0013 C   0  0  0  0  0  0  0  0  0  0  0  0
   26.0909  -20.3484  -11.6421 C   0  0  0  0  0  0  0  0  0  0  0  0
   25.8996  -21.5570  -11.0185 C   0  0  0  0  0  0  0  0  0  0  0  0
   25.3518  -21.3468   -9.8129 N   0  0  0  0  0  0  0  0  0  0  0  0
   25.1956  -20.0202   -9.6691 C   0  0  0  0  0  0  0  0  0  0  0  0
   25.6511  -19.4056  -10.7963 N   0  0  0  0  0  0  0  0  0  0  0  0
   24.4717  -19.9923  -13.9344 C   0  0  0  0  0  0  0  0  0  0  0  0
   24.3597  -18.8574  -14.4900 O   0  0  0  0  0  0  0  0  0  0  0  0
   23.3714  -20.4874  -13.2101 N   0  0  0  0  0  0  0  0  0  0  0  0
   22.0448  -20.3101  -13.7420 C   0  0  1  0  0  0  0  0  0  0  0  0
   21.8897  -20.9556  -15.1030 C   0  0  0  0  0  0  0  0  0  0  0  0
   20.2003  -20.8001  -15.7311 S   0  0  0  0  0  0  0  0  0  0  0  0
   21.0564  -20.8241  -12.7720 C   0  0  0  0  0  0  0  0  0  0  0  0
   19.8908  -20.1488  -12.4603 O   0  0  0  0  0  0  0  0  0  0  0  0
   21.2855  -21.9197  -12.2080 O   0  0  0  0  0  0  0  0  0  0  0  0
  2  1  1  6
  3  2  1  0
  3  4  1  0
  4  8  1  0
  5  4  2  0
  6  7  2  0
  6  2  1  0
  9  6  1  0
 10 11  1  1
 10  9  1  0
 11 12  1  0
 12 16  1  0
 12 13  2  0
 13 14  1  0
 15 14  1  0
 16 15  2  0
 17 10  1  0
 18 17  2  0
 19 17  1  0
 20 19  1  0
 20 21  1  6
 21 22  1  0
 23 24  1  0
 23 20  1  0
 25 23  2  0
M  END
$$$$
