DHC.pdb
     RDKit          3D

 25 25  0  0  1  0  0  0  0  0999 V2000
   21.8401  -12.7103  -16.6661 N   0  0  0  0  0  0  0  0  0  0  0  0
   22.1801  -11.9483  -17.8268 C   0  0  1  0  0  0  0  0  0  0  0  0
   21.9955  -12.7143  -19.1063 C   0  0  0  0  0  0  0  0  0  0  0  0
   22.9288  -13.8672  -19.0926 C   0  0  0  0  0  0  0  0  0  0  0  0
   22.9629  -14.6784  -18.1212 O   0  0  0  0  0  0  0  0  0  0  0  0
   21.3569  -10.6880  -17.8860 C   0  0  0  0  0  0  0  0  0  0  0  0
   21.4798   -9.8593  -18.8011 O   0  0  0  0  0  0  0  0  0  0  0  0
   23.7999  -14.0985  -20.1459 O   0  0  0  0  0  0  0  0  0  0  0  0
   20.4041  -10.4234  -16.8695 N   0  0  0  0  0  0  0  0  0  0  0  0
   19.6459   -9.1936  -16.8161 C   0  0  1  0  0  0  0  0  0  0  0  0
   18.2333   -9.5110  -16.3772 C   0  0  0  0  0  0  0  0  0  0  0  0
   17.3918   -8.2842  -16.3267 C   0  0  0  0  0  0  0  0  0  0  0  0
   16.9554   -7.6195  -17.4465 C   0  0  0  0  0  0  0  0  0  0  0  0
   16.2234   -6.5607  -17.0709 N   0  0  0  0  0  0  0  0  0  0  0  0
   16.1931   -6.5502  -15.7278 C   0  0  0  0  0  0  0  0  0  0  0  0
   16.9131   -7.6122  -15.2698 N   0  0  0  0  0  0  0  0  0  0  0  0
   20.2279   -8.3225  -15.7334 C   0  0  0  0  0  0  0  0  0  0  0  0
   20.8477   -8.8534  -14.7622 O   0  0  0  0  0  0  0  0  0  0  0  0
   20.1094   -6.9204  -15.7572 N   0  0  0  0  0  0  0  0  0  0  0  0
   20.8201   -6.1400  -14.7774 C   0  0  1  0  0  0  0  0  0  0  0  0
   22.3178   -6.3432  -14.8700 C   0  0  0  0  0  0  0  0  0  0  0  0
   23.2204   -5.1612  -13.8400 S   0  0  0  0  0  0  0  0  0  0  0  0
   20.4465   -4.7180  -14.9205 C   0  0  0  0  0  0  0  0  0  0  0  0
   20.5681   -4.0273  -16.1120 O   0  0  0  0  0  0  0  0  0  0  0  0
   20.0004   -4.1128  -13.9176 O   0  0  0  0  0  0  0  0  0  0  0  0
  2  1  1  1
  3  2  1  0
  3  4  1  0
  4  8  1  0
  5  4  2  0
  6  7  2  0
  6  2  1  0
  9  6  1  0
 10 11  1  1
 10  9  1  0
 11 12  1  0
 12 16  1  0
 12 13  2  0
 13 14  1  0
 15 14  1  0
 16 15  2  0
 17 10  1  0
 18 17  2  0
 19 17  1  0
 20 19  1  0
 20 21  1  6
 21 22  1  0
 23 24  1  0
 23 20  1  0
 25 23  2  0
M  END
$$$$
