DHC.pdb
     RDKit          3D

 25 25  0  0  1  0  0  0  0  0999 V2000
   16.9634  -11.0927  -17.9397 N   0  0  0  0  0  0  0  0  0  0  0  0
   17.3148  -10.3532  -16.7679 C   0  0  1  0  0  0  0  0  0  0  0  0
   18.0381  -11.1833  -15.7452 C   0  0  0  0  0  0  0  0  0  0  0  0
   17.0244  -11.8846  -14.9198 C   0  0  0  0  0  0  0  0  0  0  0  0
   15.8008  -11.5626  -14.9611 O   0  0  0  0  0  0  0  0  0  0  0  0
   18.1709   -9.1685  -17.1329 C   0  0  0  0  0  0  0  0  0  0  0  0
   19.0791   -9.2422  -17.9747 O   0  0  0  0  0  0  0  0  0  0  0  0
   17.3816  -12.9208  -14.0710 O   0  0  0  0  0  0  0  0  0  0  0  0
   17.9450   -7.9183  -16.5026 N   0  0  0  0  0  0  0  0  0  0  0  0
   18.7521   -6.7513  -16.7794 C   0  0  1  0  0  0  0  0  0  0  0  0
   17.8529   -5.6470  -17.2897 C   0  0  0  0  0  0  0  0  0  0  0  0
   17.3651   -5.9362  -18.6660 C   0  0  0  0  0  0  0  0  0  0  0  0
   16.0342   -6.0101  -18.9969 C   0  0  0  0  0  0  0  0  0  0  0  0
   15.9218   -6.2837  -20.3047 N   0  0  0  0  0  0  0  0  0  0  0  0
   17.1659   -6.3830  -20.8021 C   0  0  0  0  0  0  0  0  0  0  0  0
   18.0546   -6.1688  -19.7920 N   0  0  0  0  0  0  0  0  0  0  0  0
   19.3242   -6.2493  -15.4792 C   0  0  0  0  0  0  0  0  0  0  0  0
   18.5682   -6.1093  -14.4702 O   0  0  0  0  0  0  0  0  0  0  0  0
   20.6861   -5.9243  -15.3374 N   0  0  0  0  0  0  0  0  0  0  0  0
   21.1775   -5.5099  -14.0486 C   0  0  1  0  0  0  0  0  0  0  0  0
   22.0474   -6.5703  -13.4068 C   0  0  0  0  0  0  0  0  0  0  0  0
   23.3618   -7.1241  -14.5196 S   0  0  0  0  0  0  0  0  0  0  0  0
   21.8890   -4.2227  -14.1874 C   0  0  0  0  0  0  0  0  0  0  0  0
   22.1589   -3.6440  -15.4137 O   0  0  0  0  0  0  0  0  0  0  0  0
   22.2633   -3.6309  -13.1479 O   0  0  0  0  0  0  0  0  0  0  0  0
  2  1  1  6
  3  2  1  0
  3  4  1  0
  4  8  1  0
  5  4  2  0
  6  7  2  0
  6  2  1  0
  9  6  1  0
 10 11  1  1
 10  9  1  0
 11 12  1  0
 12 16  1  0
 12 13  2  0
 13 14  1  0
 15 14  1  0
 16 15  2  0
 17 10  1  0
 18 17  2  0
 19 17  1  0
 20 19  1  0
 20 21  1  6
 21 22  1  0
 23 24  1  0
 23 20  1  0
 25 23  2  0
M  END
$$$$
