DHC.pdb
     RDKit          3D

 25 25  0  0  1  0  0  0  0  0999 V2000
   24.3589  -10.4528  -22.6307 N   0  0  0  0  0  0  0  0  0  0  0  0
   23.6730  -11.5666  -22.0542 C   0  0  1  0  0  0  0  0  0  0  0  0
   24.3282  -12.8831  -22.3634 C   0  0  0  0  0  0  0  0  0  0  0  0
   24.1070  -13.1824  -23.7994 C   0  0  0  0  0  0  0  0  0  0  0  0
   23.3273  -12.4808  -24.5083 O   0  0  0  0  0  0  0  0  0  0  0  0
   23.5758  -11.4058  -20.5595 C   0  0  0  0  0  0  0  0  0  0  0  0
   23.0367  -12.2569  -19.8357 O   0  0  0  0  0  0  0  0  0  0  0  0
   24.7480  -14.2443  -24.4186 O   0  0  0  0  0  0  0  0  0  0  0  0
   24.1136  -10.2481  -19.9415 N   0  0  0  0  0  0  0  0  0  0  0  0
   24.1095  -10.0593  -18.5082 C   0  0  1  0  0  0  0  0  0  0  0  0
   25.3776   -9.3378  -18.1084 C   0  0  0  0  0  0  0  0  0  0  0  0
   26.2182  -10.1748  -17.2091 C   0  0  0  0  0  0  0  0  0  0  0  0
   25.8363  -11.4121  -16.7515 C   0  0  0  0  0  0  0  0  0  0  0  0
   26.8041  -11.9076  -15.9668 N   0  0  0  0  0  0  0  0  0  0  0  0
   27.7914  -10.9975  -15.9244 C   0  0  0  0  0  0  0  0  0  0  0  0
   27.4299   -9.9301  -16.6899 N   0  0  0  0  0  0  0  0  0  0  0  0
   22.9776   -9.1302  -18.1540 C   0  0  0  0  0  0  0  0  0  0  0  0
   22.6499   -8.2021  -18.9542 O   0  0  0  0  0  0  0  0  0  0  0  0
   22.2578   -9.2533  -16.9510 N   0  0  0  0  0  0  0  0  0  0  0  0
   21.1950   -8.3223  -16.6715 C   0  0  1  0  0  0  0  0  0  0  0  0
   20.2719   -8.8274  -15.5826 C   0  0  0  0  0  0  0  0  0  0  0  0
   19.1004   -7.5550  -15.0521 S   0  0  0  0  0  0  0  0  0  0  0  0
   21.7742   -7.0053  -16.3365 C   0  0  0  0  0  0  0  0  0  0  0  0
   22.8319   -6.8529  -15.4592 O   0  0  0  0  0  0  0  0  0  0  0  0
   21.2848   -5.9830  -16.8715 O   0  0  0  0  0  0  0  0  0  0  0  0
  2  1  1  1
  3  2  1  0
  3  4  1  0
  4  8  1  0
  5  4  2  0
  6  7  2  0
  6  2  1  0
  9  6  1  0
 10 11  1  6
 10  9  1  0
 11 12  1  0
 12 16  1  0
 12 13  2  0
 13 14  1  0
 15 14  1  0
 16 15  2  0
 17 10  1  0
 18 17  2  0
 19 17  1  0
 20 19  1  0
 20 21  1  1
 21 22  1  0
 23 24  1  0
 23 20  1  0
 25 23  2  0
M  END
$$$$
