DHC.pdb
     RDKit          3D

 25 25  0  0  1  0  0  0  0  0999 V2000
   25.7341  -20.2392  -17.1074 N   0  0  0  0  0  0  0  0  0  0  0  0
   26.5877  -20.2319  -15.9607 C   0  0  1  0  0  0  0  0  0  0  0  0
   27.7455  -19.2837  -16.0973 C   0  0  0  0  0  0  0  0  0  0  0  0
   28.6317  -19.7899  -17.1738 C   0  0  0  0  0  0  0  0  0  0  0  0
   28.9566  -19.0636  -18.1586 O   0  0  0  0  0  0  0  0  0  0  0  0
   25.8032  -19.8739  -14.7255 C   0  0  0  0  0  0  0  0  0  0  0  0
   25.3235  -18.7432  -14.5505 O   0  0  0  0  0  0  0  0  0  0  0  0
   29.1376  -21.0801  -17.1402 O   0  0  0  0  0  0  0  0  0  0  0  0
   25.5959  -20.8502  -13.7180 N   0  0  0  0  0  0  0  0  0  0  0  0
   24.7799  -20.6013  -12.5508 C   0  0  1  0  0  0  0  0  0  0  0  0
   23.6445  -21.6008  -12.5282 C   0  0  0  0  0  0  0  0  0  0  0  0
   22.5644  -21.2174  -13.4780 C   0  0  0  0  0  0  0  0  0  0  0  0
   22.3560  -21.8468  -14.6807 C   0  0  0  0  0  0  0  0  0  0  0  0
   21.3147  -21.2736  -15.3013 N   0  0  0  0  0  0  0  0  0  0  0  0
   20.8643  -20.2904  -14.5041 C   0  0  0  0  0  0  0  0  0  0  0  0
   21.6346  -20.2562  -13.3810 N   0  0  0  0  0  0  0  0  0  0  0  0
   25.6054  -20.8874  -11.3234 C   0  0  0  0  0  0  0  0  0  0  0  0
   26.2935  -21.9512  -11.2604 O   0  0  0  0  0  0  0  0  0  0  0  0
   25.6440  -20.0069  -10.2263 N   0  0  0  0  0  0  0  0  0  0  0  0
   26.2060  -20.4627   -8.9810 C   0  0  1  0  0  0  0  0  0  0  0  0
   26.9677  -19.3650   -8.2683 C   0  0  0  0  0  0  0  0  0  0  0  0
   27.3901  -19.8330   -6.5727 S   0  0  0  0  0  0  0  0  0  0  0  0
   25.1323  -21.0261   -8.1373 C   0  0  0  0  0  0  0  0  0  0  0  0
   25.3721  -21.9483   -7.1354 O   0  0  0  0  0  0  0  0  0  0  0  0
   23.9535  -20.6511   -8.3395 O   0  0  0  0  0  0  0  0  0  0  0  0
  2  1  1  6
  3  2  1  0
  3  4  1  0
  4  8  1  0
  5  4  2  0
  6  7  2  0
  6  2  1  0
  9  6  1  0
 10 11  1  6
 10  9  1  0
 11 12  1  0
 12 16  1  0
 12 13  2  0
 13 14  1  0
 15 14  1  0
 16 15  2  0
 17 10  1  0
 18 17  2  0
 19 17  1  0
 20 19  1  0
 20 21  1  1
 21 22  1  0
 23 24  1  0
 23 20  1  0
 25 23  2  0
M  END
$$$$
