DHC.pdb
     RDKit          3D

 25 25  0  0  1  0  0  0  0  0999 V2000
   14.9862  -12.2381  -10.2629 N   0  0  0  0  0  0  0  0  0  0  0  0
   14.6790  -10.8852  -10.6079 C   0  0  1  0  0  0  0  0  0  0  0  0
   13.4496  -10.3680   -9.9156 C   0  0  0  0  0  0  0  0  0  0  0  0
   12.2862  -11.1552  -10.3922 C   0  0  0  0  0  0  0  0  0  0  0  0
   12.2860  -11.7120  -11.5292 O   0  0  0  0  0  0  0  0  0  0  0  0
   15.8415   -9.9843  -10.2820 C   0  0  0  0  0  0  0  0  0  0  0  0
   16.3004   -9.8846   -9.1337 O   0  0  0  0  0  0  0  0  0  0  0  0
   11.1539  -11.3100   -9.6075 O   0  0  0  0  0  0  0  0  0  0  0  0
   16.4445   -9.2164  -11.3107 N   0  0  0  0  0  0  0  0  0  0  0  0
   17.5243   -8.2892  -11.0570 C   0  0  1  0  0  0  0  0  0  0  0  0
   18.4188   -8.2380  -12.2759 C   0  0  0  0  0  0  0  0  0  0  0  0
   19.5161   -7.2470  -12.1031 C   0  0  0  0  0  0  0  0  0  0  0  0
   19.7256   -6.1933  -12.9588 C   0  0  0  0  0  0  0  0  0  0  0  0
   20.7840   -5.4877  -12.5349 N   0  0  0  0  0  0  0  0  0  0  0  0
   21.2441   -6.0839  -11.4223 C   0  0  0  0  0  0  0  0  0  0  0  0
   20.4626   -7.1677  -11.1568 N   0  0  0  0  0  0  0  0  0  0  0  0
   16.9413   -6.9072  -10.9153 C   0  0  0  0  0  0  0  0  0  0  0  0
   16.1344   -6.4706  -11.7913 O   0  0  0  0  0  0  0  0  0  0  0  0
   17.2615   -6.0680   -9.8319 N   0  0  0  0  0  0  0  0  0  0  0  0
   16.6413   -4.7712   -9.7424 C   0  0  1  0  0  0  0  0  0  0  0  0
   16.0893   -4.5022   -8.3581 C   0  0  0  0  0  0  0  0  0  0  0  0
   14.8368   -5.7194   -7.8868 S   0  0  0  0  0  0  0  0  0  0  0  0
   17.6089   -3.7366  -10.1610 C   0  0  0  0  0  0  0  0  0  0  0  0
   17.2830   -2.3955  -10.2446 O   0  0  0  0  0  0  0  0  0  0  0  0
   18.7752   -4.0911  -10.4526 O   0  0  0  0  0  0  0  0  0  0  0  0
  2  1  1  1
  3  2  1  0
  3  4  1  0
  4  8  1  0
  5  4  2  0
  6  7  2  0
  6  2  1  0
  9  6  1  0
 10 11  1  6
 10  9  1  0
 11 12  1  0
 12 16  1  0
 12 13  2  0
 13 14  1  0
 15 14  1  0
 16 15  2  0
 17 10  1  0
 18 17  2  0
 19 17  1  0
 20 19  1  0
 20 21  1  1
 21 22  1  0
 23 24  1  0
 23 20  1  0
 25 23  2  0
M  END
$$$$
