DHC.pdb
     RDKit          3D

 25 25  0  0  1  0  0  0  0  0999 V2000
   19.1106  -14.7723  -18.7933 N   0  0  0  0  0  0  0  0  0  0  0  0
   18.7980  -13.3896  -18.6091 C   0  0  1  0  0  0  0  0  0  0  0  0
   17.7205  -13.1630  -17.5865 C   0  0  0  0  0  0  0  0  0  0  0  0
   16.4775  -13.8082  -18.0753 C   0  0  0  0  0  0  0  0  0  0  0  0
   16.3203  -14.0990  -19.2975 O   0  0  0  0  0  0  0  0  0  0  0  0
   20.0296  -12.6234  -18.2025 C   0  0  0  0  0  0  0  0  0  0  0  0
   21.1735  -13.0084  -18.4892 O   0  0  0  0  0  0  0  0  0  0  0  0
   15.4401  -14.1170  -17.2091 O   0  0  0  0  0  0  0  0  0  0  0  0
   19.8958  -11.4185  -17.4665 N   0  0  0  0  0  0  0  0  0  0  0  0
   21.0201  -10.5589  -17.1720 C   0  0  1  0  0  0  0  0  0  0  0  0
   21.6467  -10.1129  -18.4747 C   0  0  0  0  0  0  0  0  0  0  0  0
   22.8822   -9.3168  -18.2387 C   0  0  0  0  0  0  0  0  0  0  0  0
   23.5676   -9.3189  -17.0485 C   0  0  0  0  0  0  0  0  0  0  0  0
   24.6292   -8.5064  -17.1523 N   0  0  0  0  0  0  0  0  0  0  0  0
   24.6211   -7.9923  -18.3935 C   0  0  0  0  0  0  0  0  0  0  0  0
   23.5446   -8.4920  -19.0623 N   0  0  0  0  0  0  0  0  0  0  0  0
   20.5019   -9.3065  -16.5139 C   0  0  0  0  0  0  0  0  0  0  0  0
   19.5901   -8.6289  -17.0784 O   0  0  0  0  0  0  0  0  0  0  0  0
   20.9972   -8.8514  -15.2778 N   0  0  0  0  0  0  0  0  0  0  0  0
   20.3868   -7.7039  -14.6575 C   0  0  1  0  0  0  0  0  0  0  0  0
   20.3266   -7.8401  -13.1505 C   0  0  0  0  0  0  0  0  0  0  0  0
   19.3704   -9.2904  -12.6455 S   0  0  0  0  0  0  0  0  0  0  0  0
   21.1072   -6.4828  -15.0725 C   0  0  0  0  0  0  0  0  0  0  0  0
   22.2483   -6.5143  -15.8526 O   0  0  0  0  0  0  0  0  0  0  0  0
   20.6637   -5.3710  -14.7006 O   0  0  0  0  0  0  0  0  0  0  0  0
  2  1  1  1
  3  2  1  0
  3  4  1  0
  4  8  1  0
  5  4  2  0
  6  7  2  0
  6  2  1  0
  9  6  1  0
 10 11  1  6
 10  9  1  0
 11 12  1  0
 12 16  1  0
 12 13  2  0
 13 14  1  0
 15 14  1  0
 16 15  2  0
 17 10  1  0
 18 17  2  0
 19 17  1  0
 20 19  1  0
 20 21  1  1
 21 22  1  0
 23 24  1  0
 23 20  1  0
 25 23  2  0
M  END
$$$$
