DHC.pdb
     RDKit          3D

 25 25  0  0  1  0  0  0  0  0999 V2000
   43.7841  -13.2207  -12.9060 N   0  0  0  0  0  0  0  0  0  0  0  0
   43.5650  -13.1333  -11.4960 C   0  0  1  0  0  0  0  0  0  0  0  0
   44.7776  -13.5046  -10.6899 C   0  0  0  0  0  0  0  0  0  0  0  0
   45.0954  -14.9275  -10.9632 C   0  0  0  0  0  0  0  0  0  0  0  0
   44.1865  -15.8060  -11.0336 O   0  0  0  0  0  0  0  0  0  0  0  0
   43.1319  -11.7408  -11.1183 C   0  0  0  0  0  0  0  0  0  0  0  0
   43.6657  -10.7286  -11.5972 O   0  0  0  0  0  0  0  0  0  0  0  0
   46.4029  -15.3478  -11.1521 O   0  0  0  0  0  0  0  0  0  0  0  0
   42.0793  -11.5620  -10.1847 N   0  0  0  0  0  0  0  0  0  0  0  0
   41.6186  -10.2547   -9.7740 C   0  0  1  0  0  0  0  0  0  0  0  0
   40.1110  -10.2856   -9.6521 C   0  0  0  0  0  0  0  0  0  0  0  0
   39.5728   -8.9626   -9.2330 C   0  0  0  0  0  0  0  0  0  0  0  0
   40.3519   -7.8412   -9.0854 C   0  0  0  0  0  0  0  0  0  0  0  0
   39.5774   -6.8165   -8.7006 N   0  0  0  0  0  0  0  0  0  0  0  0
   38.3196   -7.2785   -8.6038 C   0  0  0  0  0  0  0  0  0  0  0  0
   38.3173   -8.6007   -8.9319 N   0  0  0  0  0  0  0  0  0  0  0  0
   42.1387   -9.9811   -8.3867 C   0  0  0  0  0  0  0  0  0  0  0  0
   41.5582  -10.4957   -7.3831 O   0  0  0  0  0  0  0  0  0  0  0  0
   43.2612   -9.1641   -8.1566 N   0  0  0  0  0  0  0  0  0  0  0  0
   43.7217   -8.9698   -6.8059 C   0  0  1  0  0  0  0  0  0  0  0  0
   45.0307   -9.6855   -6.5457 C   0  0  0  0  0  0  0  0  0  0  0  0
   44.9897  -11.3950   -7.1360 S   0  0  0  0  0  0  0  0  0  0  0  0
   43.8194   -7.5226   -6.5261 C   0  0  0  0  0  0  0  0  0  0  0  0
   43.6060   -6.5564   -7.4917 O   0  0  0  0  0  0  0  0  0  0  0  0
   44.1081   -7.1563   -5.3627 O   0  0  0  0  0  0  0  0  0  0  0  0
  2  1  1  6
  3  2  1  0
  3  4  1  0
  4  8  1  0
  5  4  2  0
  6  7  2  0
  6  2  1  0
  9  6  1  0
 10 11  1  1
 10  9  1  0
 11 12  1  0
 12 16  1  0
 12 13  2  0
 13 14  1  0
 15 14  1  0
 16 15  2  0
 17 10  1  0
 18 17  2  0
 19 17  1  0
 20 19  1  0
 20 21  1  6
 21 22  1  0
 23 24  1  0
 23 20  1  0
 25 23  2  0
M  END
$$$$
