DHC.pdb
     RDKit          3D

 25 25  0  0  1  0  0  0  0  0999 V2000
   15.0867  -10.1319   -9.9767 N   0  0  0  0  0  0  0  0  0  0  0  0
   15.3147   -8.9397  -10.7319 C   0  0  1  0  0  0  0  0  0  0  0  0
   15.1561   -7.6885   -9.9149 C   0  0  0  0  0  0  0  0  0  0  0  0
   13.7389   -7.5933   -9.4874 C   0  0  0  0  0  0  0  0  0  0  0  0
   12.7899   -7.8694  -10.2787 O   0  0  0  0  0  0  0  0  0  0  0  0
   16.6938   -8.9588  -11.3378 C   0  0  0  0  0  0  0  0  0  0  0  0
   17.7095   -9.1923  -10.6648 O   0  0  0  0  0  0  0  0  0  0  0  0
   13.4014   -7.1973   -8.2025 O   0  0  0  0  0  0  0  0  0  0  0  0
   16.8555   -8.7034  -12.7234 N   0  0  0  0  0  0  0  0  0  0  0  0
   18.1188   -8.8793  -13.4039 C   0  0  1  0  0  0  0  0  0  0  0  0
   17.8522   -9.3987  -14.7995 C   0  0  0  0  0  0  0  0  0  0  0  0
   17.4727  -10.8380  -14.7800 C   0  0  0  0  0  0  0  0  0  0  0  0
   18.3663  -11.8589  -14.9936 C   0  0  0  0  0  0  0  0  0  0  0  0
   17.7206  -13.0312  -14.9120 N   0  0  0  0  0  0  0  0  0  0  0  0
   16.4309  -12.7615  -14.6495 C   0  0  0  0  0  0  0  0  0  0  0  0
   16.2788  -11.4101  -14.5683 N   0  0  0  0  0  0  0  0  0  0  0  0
   18.7554   -7.5255  -13.5826 C   0  0  0  0  0  0  0  0  0  0  0  0
   18.0259   -6.4899  -13.6502 O   0  0  0  0  0  0  0  0  0  0  0  0
   20.1498   -7.3617  -13.6790 N   0  0  0  0  0  0  0  0  0  0  0  0
   20.6865   -6.0463  -13.9157 C   0  0  1  0  0  0  0  0  0  0  0  0
   21.1006   -5.3640  -12.6288 C   0  0  0  0  0  0  0  0  0  0  0  0
   22.0625   -3.8645  -12.9436 S   0  0  0  0  0  0  0  0  0  0  0  0
   21.8058   -6.1403  -14.8750 C   0  0  0  0  0  0  0  0  0  0  0  0
   22.4017   -7.3404  -15.2164 O   0  0  0  0  0  0  0  0  0  0  0  0
   22.2328   -5.0860  -15.4014 O   0  0  0  0  0  0  0  0  0  0  0  0
  2  1  1  1
  3  2  1  0
  3  4  1  0
  4  8  1  0
  5  4  2  0
  6  7  2  0
  6  2  1  0
  9  6  1  0
 10 11  1  6
 10  9  1  0
 11 12  1  0
 12 16  1  0
 12 13  2  0
 13 14  1  0
 15 14  1  0
 16 15  2  0
 17 10  1  0
 18 17  2  0
 19 17  1  0
 20 19  1  0
 20 21  1  1
 21 22  1  0
 23 24  1  0
 23 20  1  0
 25 23  2  0
M  END
$$$$
