DHC.pdb
     RDKit          3D

 25 25  0  0  1  0  0  0  0  0999 V2000
   21.9870  -12.0177  -18.2954 N   0  0  0  0  0  0  0  0  0  0  0  0
   21.3077  -11.7262  -17.0719 C   0  0  1  0  0  0  0  0  0  0  0  0
   21.5053  -12.7853  -16.0244 C   0  0  0  0  0  0  0  0  0  0  0  0
   20.8801  -14.0389  -16.5122 C   0  0  0  0  0  0  0  0  0  0  0  0
   19.7795  -14.0286  -17.1379 O   0  0  0  0  0  0  0  0  0  0  0  0
   21.7647  -10.4003  -16.5217 C   0  0  0  0  0  0  0  0  0  0  0  0
   21.3687   -9.9646  -15.4298 O   0  0  0  0  0  0  0  0  0  0  0  0
   21.4800  -15.2705  -16.2999 O   0  0  0  0  0  0  0  0  0  0  0  0
   22.6788   -9.6097  -17.2639 N   0  0  0  0  0  0  0  0  0  0  0  0
   23.1769   -8.3405  -16.7833 C   0  0  1  0  0  0  0  0  0  0  0  0
   24.6023   -8.1652  -17.2588 C   0  0  0  0  0  0  0  0  0  0  0  0
   25.5317   -9.0768  -16.5370 C   0  0  0  0  0  0  0  0  0  0  0  0
   25.1457   -9.8751  -15.4880 C   0  0  0  0  0  0  0  0  0  0  0  0
   26.2052  -10.5738  -15.0554 N   0  0  0  0  0  0  0  0  0  0  0  0
   27.2543  -10.2255  -15.8191 C   0  0  0  0  0  0  0  0  0  0  0  0
   26.8388   -9.3033  -16.7316 N   0  0  0  0  0  0  0  0  0  0  0  0
   22.3852   -7.2395  -17.4396 C   0  0  0  0  0  0  0  0  0  0  0  0
   22.2120   -7.2504  -18.6962 O   0  0  0  0  0  0  0  0  0  0  0  0
   21.8210   -6.1822  -16.7018 N   0  0  0  0  0  0  0  0  0  0  0  0
   21.0569   -5.1751  -17.3919 C   0  0  1  0  0  0  0  0  0  0  0  0
   19.6144   -5.5932  -17.5860 C   0  0  0  0  0  0  0  0  0  0  0  0
   18.5673   -4.1941  -18.0538 S   0  0  0  0  0  0  0  0  0  0  0  0
   21.1668   -3.8941  -16.6646 C   0  0  0  0  0  0  0  0  0  0  0  0
   20.9892   -2.6671  -17.2765 O   0  0  0  0  0  0  0  0  0  0  0  0
   21.4326   -3.9223  -15.4401 O   0  0  0  0  0  0  0  0  0  0  0  0
  2  1  1  6
  3  2  1  0
  3  4  1  0
  4  8  1  0
  5  4  2  0
  6  7  2  0
  6  2  1  0
  9  6  1  0
 10 11  1  6
 10  9  1  0
 11 12  1  0
 12 16  1  0
 12 13  2  0
 13 14  1  0
 15 14  1  0
 16 15  2  0
 17 10  1  0
 18 17  2  0
 19 17  1  0
 20 19  1  0
 20 21  1  1
 21 22  1  0
 23 24  1  0
 23 20  1  0
 25 23  2  0
M  END
$$$$
