DHC.pdb
     RDKit          3D

 25 25  0  0  1  0  0  0  0  0999 V2000
   22.6074  -14.5976  -17.4003 N   0  0  0  0  0  0  0  0  0  0  0  0
   22.0972  -13.3181  -17.7825 C   0  0  1  0  0  0  0  0  0  0  0  0
   20.5986  -13.2927  -17.8910 C   0  0  0  0  0  0  0  0  0  0  0  0
   20.2083  -14.0942  -19.0767 C   0  0  0  0  0  0  0  0  0  0  0  0
   19.6462  -15.2222  -18.9560 O   0  0  0  0  0  0  0  0  0  0  0  0
   22.5361  -12.2640  -16.7998 C   0  0  0  0  0  0  0  0  0  0  0  0
   22.9001  -12.5437  -15.6474 O   0  0  0  0  0  0  0  0  0  0  0  0
   20.4458  -13.6358  -20.3632 O   0  0  0  0  0  0  0  0  0  0  0  0
   22.5396  -10.9000  -17.1883 N   0  0  0  0  0  0  0  0  0  0  0  0
   22.9814   -9.8422  -16.3074 C   0  0  1  0  0  0  0  0  0  0  0  0
   24.2926   -9.2932  -16.8249 C   0  0  0  0  0  0  0  0  0  0  0  0
   25.4227  -10.2153  -16.5275 C   0  0  0  0  0  0  0  0  0  0  0  0
   26.1254  -10.1948  -15.3476 C   0  0  0  0  0  0  0  0  0  0  0  0
   27.0746  -11.1411  -15.3857 N   0  0  0  0  0  0  0  0  0  0  0  0
   26.9785  -11.7579  -16.5754 C   0  0  0  0  0  0  0  0  0  0  0  0
   25.9607  -11.1871  -17.2784 N   0  0  0  0  0  0  0  0  0  0  0  0
   21.9954   -8.7065  -16.3960 C   0  0  0  0  0  0  0  0  0  0  0  0
   21.5293   -8.3629  -17.5247 O   0  0  0  0  0  0  0  0  0  0  0  0
   21.5640   -8.0002  -15.2578 N   0  0  0  0  0  0  0  0  0  0  0  0
   20.4902   -7.0493  -15.3879 C   0  0  1  0  0  0  0  0  0  0  0  0
   19.6966   -6.9126  -14.1055 C   0  0  0  0  0  0  0  0  0  0  0  0
   19.1512   -8.5197  -13.4792 S   0  0  0  0  0  0  0  0  0  0  0  0
   21.0369   -5.7533  -15.8390 C   0  0  0  0  0  0  0  0  0  0  0  0
   22.3886   -5.5365  -16.0326 O   0  0  0  0  0  0  0  0  0  0  0  0
   20.2398   -4.8104  -16.0552 O   0  0  0  0  0  0  0  0  0  0  0  0
  2  1  1  1
  3  2  1  0
  3  4  1  0
  4  8  1  0
  5  4  2  0
  6  7  2  0
  6  2  1  0
  9  6  1  0
 10 11  1  6
 10  9  1  0
 11 12  1  0
 12 16  1  0
 12 13  2  0
 13 14  1  0
 15 14  1  0
 16 15  2  0
 17 10  1  0
 18 17  2  0
 19 17  1  0
 20 19  1  0
 20 21  1  1
 21 22  1  0
 23 24  1  0
 23 20  1  0
 25 23  2  0
M  END
$$$$
