IKV.pdb
     RDKit          3D

 25 24  0  0  1  0  0  0  0  0999 V2000
   19.0752  -17.7267  -18.3114 C   0  0  0  0  0  0  0  0  0  0  0  0
   20.1284  -17.3788  -17.3145 C   0  0  0  0  0  0  0  0  0  0  0  0
   21.0229  -18.5346  -16.9237 C   0  0  2  0  0  0  0  0  0  0  0  0
   20.1227  -19.6398  -16.4237 C   0  0  0  0  0  0  0  0  0  0  0  0
   22.0377  -18.0939  -15.9238 C   0  0  2  0  0  0  0  0  0  0  0  0
   22.8023  -16.9998  -16.4814 N   0  0  0  0  0  0  0  0  0  0  0  0
   22.9464  -19.1358  -15.4611 C   0  0  0  0  0  0  0  0  0  0  0  0
   22.6253  -20.0809  -14.6921 O   0  0  0  0  0  0  0  0  0  0  0  0
   24.3003  -19.1263  -15.8806 N   0  0  0  0  0  0  0  0  0  0  0  0
   25.2740  -20.1659  -15.4473 C   0  0  1  0  0  0  0  0  0  0  0  0
   26.3493  -20.3110  -16.4568 C   0  0  0  0  0  0  0  0  0  0  0  0
   27.3515  -21.3480  -16.0323 C   0  0  0  0  0  0  0  0  0  0  0  0
   28.4817  -21.4617  -17.0577 C   0  0  0  0  0  0  0  0  0  0  0  0
   27.9660  -22.3859  -18.1645 C   0  0  0  0  0  0  0  0  0  0  0  0
   28.9742  -22.5904  -19.1717 N   0  0  0  0  0  0  0  0  0  0  0  0
   25.7709  -19.7957  -14.0998 C   0  0  0  0  0  0  0  0  0  0  0  0
   26.2219  -18.6791  -13.7638 O   0  0  0  0  0  0  0  0  0  0  0  0
   24.0220  -20.9117  -10.6824 C   0  0  0  0  0  0  0  0  0  0  0  0
   25.5019  -21.1598  -10.6127 C   0  0  2  0  0  0  0  0  0  0  0  0
   26.0588  -20.8971   -9.2506 C   0  0  0  0  0  0  0  0  0  0  0  0
   26.2684  -20.4333  -11.6978 C   0  0  2  0  0  0  0  0  0  0  0  0
   25.7693  -20.7537  -13.0178 N   0  0  0  0  0  0  0  0  0  0  0  0
   27.6699  -20.8795  -11.6124 C   0  0  0  0  0  0  0  0  0  0  0  0
   28.0392  -21.8782  -12.2616 O   0  0  0  0  0  0  0  0  0  0  0  0
   28.5733  -20.2057  -10.8245 O   0  0  0  0  0  0  0  0  0  0  0  0
  2  1  1  0
  3  2  1  0
  3  4  1  1
  5  3  1  0
  5  6  1  6
  7  5  1  0
  7  8  2  0
  9  7  1  0
 10  9  1  0
 10 11  1  6
 12 11  1  0
 13 12  1  0
 13 14  1  0
 15 14  1  0
 16 22  1  0
 16 10  1  0
 17 16  2  0
 19 18  1  1
 19 21  1  0
 20 19  1  0
 21 23  1  0
 21 22  1  6
 23 25  1  0
 24 23  2  0
M  END
$$$$
