IKV.pdb
     RDKit          3D

 25 24  0  0  1  0  0  0  0  0999 V2000
   28.7809  -17.0287  -17.5563 C   0  0  0  0  0  0  0  0  0  0  0  0
   27.5877  -17.9232  -17.5415 C   0  0  0  0  0  0  0  0  0  0  0  0
   26.9080  -18.0336  -16.1945 C   0  0  2  0  0  0  0  0  0  0  0  0
   27.9685  -18.4358  -15.1967 C   0  0  0  0  0  0  0  0  0  0  0  0
   25.7631  -18.9866  -16.2645 C   0  0  2  0  0  0  0  0  0  0  0  0
   24.8741  -18.5755  -17.3290 N   0  0  0  0  0  0  0  0  0  0  0  0
   25.0046  -19.1374  -15.0286 C   0  0  0  0  0  0  0  0  0  0  0  0
   24.3456  -18.2187  -14.4724 O   0  0  0  0  0  0  0  0  0  0  0  0
   24.9769  -20.3913  -14.3682 N   0  0  0  0  0  0  0  0  0  0  0  0
   24.2373  -20.6020  -13.0934 C   0  0  1  0  0  0  0  0  0  0  0  0
   23.0848  -21.5068  -13.3150 C   0  0  0  0  0  0  0  0  0  0  0  0
   22.0231  -20.8359  -14.1412 C   0  0  0  0  0  0  0  0  0  0  0  0
   20.8956  -20.3086  -13.2510 C   0  0  0  0  0  0  0  0  0  0  0  0
   19.8328  -19.7402  -14.1956 C   0  0  0  0  0  0  0  0  0  0  0  0
   18.7052  -19.2381  -13.4545 N   0  0  0  0  0  0  0  0  0  0  0  0
   25.1997  -21.1033  -12.0822 C   0  0  0  0  0  0  0  0  0  0  0  0
   25.9045  -22.1309  -12.1844 O   0  0  0  0  0  0  0  0  0  0  0  0
   26.3987  -18.7238   -8.6004 C   0  0  0  0  0  0  0  0  0  0  0  0
   27.1354  -19.9017   -9.1718 C   0  0  2  0  0  0  0  0  0  0  0  0
   28.2094  -19.4914  -10.1272 C   0  0  0  0  0  0  0  0  0  0  0  0
   26.2068  -20.9420   -9.7620 C   0  0  2  0  0  0  0  0  0  0  0  0
   25.4026  -20.4000  -10.8362 N   0  0  0  0  0  0  0  0  0  0  0  0
   25.3035  -21.3795   -8.6835 C   0  0  0  0  0  0  0  0  0  0  0  0
   24.1254  -20.9711   -8.6629 O   0  0  0  0  0  0  0  0  0  0  0  0
   25.7470  -22.2329   -7.7007 O   0  0  0  0  0  0  0  0  0  0  0  0
  2  1  1  0
  3  2  1  0
  3  4  1  1
  5  3  1  0
  5  6  1  6
  7  5  1  0
  7  8  2  0
  9  7  1  0
 10  9  1  0
 10 11  1  6
 12 11  1  0
 13 12  1  0
 13 14  1  0
 15 14  1  0
 16 22  1  0
 16 10  1  0
 17 16  2  0
 19 18  1  6
 19 21  1  0
 20 19  1  0
 21 23  1  0
 21 22  1  6
 23 25  1  0
 24 23  2  0
M  END
$$$$
