IKV.pdb
     RDKit          3D

 25 24  0  0  1  0  0  0  0  0999 V2000
   26.7918  -19.5590   -7.5289 C   0  0  0  0  0  0  0  0  0  0  0  0
   26.9789  -20.5775   -8.6021 C   0  0  0  0  0  0  0  0  0  0  0  0
   26.0830  -20.3861   -9.8060 C   0  0  2  0  0  0  0  0  0  0  0  0
   24.6586  -20.5282   -9.3232 C   0  0  0  0  0  0  0  0  0  0  0  0
   26.4458  -21.3499  -10.8847 C   0  0  2  0  0  0  0  0  0  0  0  0
   27.8613  -21.2353  -11.1604 N   0  0  0  0  0  0  0  0  0  0  0  0
   25.6954  -21.2036  -12.1259 C   0  0  0  0  0  0  0  0  0  0  0  0
   25.8850  -20.2953  -12.9784 O   0  0  0  0  0  0  0  0  0  0  0  0
   24.6671  -22.1273  -12.4398 N   0  0  0  0  0  0  0  0  0  0  0  0
   23.9443  -22.1002  -13.7411 C   0  0  1  0  0  0  0  0  0  0  0  0
   23.8669  -23.4660  -14.3111 C   0  0  0  0  0  0  0  0  0  0  0  0
   25.2020  -23.9042  -14.8452 C   0  0  0  0  0  0  0  0  0  0  0  0
   25.5554  -23.1346  -16.1198 C   0  0  0  0  0  0  0  0  0  0  0  0
   26.8780  -23.7203  -16.6223 C   0  0  0  0  0  0  0  0  0  0  0  0
   27.9868  -23.2098  -15.8590 N   0  0  0  0  0  0  0  0  0  0  0  0
   22.6183  -21.4747  -13.5163 C   0  0  0  0  0  0  0  0  0  0  0  0
   21.9343  -21.5568  -12.4730 O   0  0  0  0  0  0  0  0  0  0  0  0
   20.6777  -19.0770  -16.6712 C   0  0  0  0  0  0  0  0  0  0  0  0
   20.5857  -18.7766  -15.2022 C   0  0  2  0  0  0  0  0  0  0  0  0
   21.5259  -17.6924  -14.7838 C   0  0  0  0  0  0  0  0  0  0  0  0
   20.7174  -20.0161  -14.3424 C   0  0  2  0  0  0  0  0  0  0  0  0
   21.9864  -20.6813  -14.5456 N   0  0  0  0  0  0  0  0  0  0  0  0
   19.6418  -20.9393  -14.7441 C   0  0  0  0  0  0  0  0  0  0  0  0
   19.8790  -21.8364  -15.5772 O   0  0  0  0  0  0  0  0  0  0  0  0
   18.3805  -20.8210  -14.2094 O   0  0  0  0  0  0  0  0  0  0  0  0
  2  1  1  0
  3  2  1  0
  3  4  1  1
  5  3  1  0
  5  6  1  6
  7  5  1  0
  7  8  2  0
  9  7  1  0
 10  9  1  0
 10 11  1  1
 12 11  1  0
 13 12  1  0
 13 14  1  0
 15 14  1  0
 16 22  1  0
 16 10  1  0
 17 16  2  0
 19 18  1  6
 19 21  1  0
 20 19  1  0
 21 23  1  0
 21 22  1  6
 23 25  1  0
 24 23  2  0
M  END
$$$$
