IKV.pdb
     RDKit          3D

 25 24  0  0  1  0  0  0  0  0999 V2000
   26.9548  -13.3925  -16.9193 C   0  0  0  0  0  0  0  0  0  0  0  0
   26.1265  -14.5459  -17.3750 C   0  0  0  0  0  0  0  0  0  0  0  0
   25.5780  -15.4010  -16.2539 C   0  0  2  0  0  0  0  0  0  0  0  0
   26.7646  -15.9665  -15.5093 C   0  0  0  0  0  0  0  0  0  0  0  0
   24.6609  -16.4451  -16.7950 C   0  0  2  0  0  0  0  0  0  0  0  0
   23.5781  -15.7979  -17.5030 N   0  0  0  0  0  0  0  0  0  0  0  0
   24.1135  -17.3641  -15.8046 C   0  0  0  0  0  0  0  0  0  0  0  0
   23.2307  -17.0655  -14.9565 O   0  0  0  0  0  0  0  0  0  0  0  0
   24.5779  -18.7023  -15.7535 N   0  0  0  0  0  0  0  0  0  0  0  0
   24.0975  -19.6720  -14.7310 C   0  0  1  0  0  0  0  0  0  0  0  0
   23.6081  -20.9069  -15.3882 C   0  0  0  0  0  0  0  0  0  0  0  0
   23.1145  -21.8992  -14.3726 C   0  0  0  0  0  0  0  0  0  0  0  0
   21.5932  -21.8168  -14.2288 C   0  0  0  0  0  0  0  0  0  0  0  0
   21.2002  -22.8850  -13.2043 C   0  0  0  0  0  0  0  0  0  0  0  0
   19.8010  -22.7913  -12.8782 N   0  0  0  0  0  0  0  0  0  0  0  0
   25.2014  -19.9089  -13.7691 C   0  0  0  0  0  0  0  0  0  0  0  0
   26.4151  -20.0061  -14.0527 O   0  0  0  0  0  0  0  0  0  0  0  0
   26.6229  -20.3578   -8.9801 C   0  0  0  0  0  0  0  0  0  0  0  0
   25.5045  -20.2318   -9.9749 C   0  0  2  0  0  0  0  0  0  0  0  0
   24.3490  -21.1217   -9.6469 C   0  0  0  0  0  0  0  0  0  0  0  0
   25.9724  -20.3997  -11.4052 C   0  0  2  0  0  0  0  0  0  0  0  0
   24.9376  -20.0528  -12.3556 N   0  0  0  0  0  0  0  0  0  0  0  0
   26.3096  -21.8223  -11.5875 C   0  0  0  0  0  0  0  0  0  0  0  0
   25.4841  -22.5872  -12.1247 O   0  0  0  0  0  0  0  0  0  0  0  0
   27.5246  -22.3135  -11.1712 O   0  0  0  0  0  0  0  0  0  0  0  0
  2  1  1  0
  3  2  1  0
  3  4  1  6
  5  3  1  0
  5  6  1  1
  7  5  1  0
  7  8  2  0
  9  7  1  0
 10  9  1  0
 10 11  1  6
 12 11  1  0
 13 12  1  0
 13 14  1  0
 15 14  1  0
 16 22  1  0
 16 10  1  0
 17 16  2  0
 19 18  1  1
 19 21  1  0
 20 19  1  0
 21 23  1  0
 21 22  1  6
 23 25  1  0
 24 23  2  0
M  END
$$$$
