IKV.pdb
     RDKit          3D

 25 24  0  0  1  0  0  0  0  0999 V2000
   22.1949  -16.0240  -21.7079 C   0  0  0  0  0  0  0  0  0  0  0  0
   22.3573  -15.4634  -20.3355 C   0  0  0  0  0  0  0  0  0  0  0  0
   21.5599  -14.2036  -20.0784 C   0  0  2  0  0  0  0  0  0  0  0  0
   21.9469  -13.2103  -21.1487 C   0  0  0  0  0  0  0  0  0  0  0  0
   21.7985  -13.7093  -18.6918 C   0  0  2  0  0  0  0  0  0  0  0  0
   21.5741  -14.7939  -17.7613 N   0  0  0  0  0  0  0  0  0  0  0  0
   20.9975  -12.5568  -18.2974 C   0  0  0  0  0  0  0  0  0  0  0  0
   20.9229  -11.4775  -18.9434 O   0  0  0  0  0  0  0  0  0  0  0  0
   20.2295  -12.6075  -17.1071 N   0  0  0  0  0  0  0  0  0  0  0  0
   19.4570  -11.4362  -16.6091 C   0  0  1  0  0  0  0  0  0  0  0  0
   18.4766  -11.8687  -15.5854 C   0  0  0  0  0  0  0  0  0  0  0  0
   17.3352  -12.6183  -16.2141 C   0  0  0  0  0  0  0  0  0  0  0  0
   16.4073  -13.1928  -15.1413 C   0  0  0  0  0  0  0  0  0  0  0  0
   15.2725  -13.8990  -15.8885 C   0  0  0  0  0  0  0  0  0  0  0  0
   14.4347  -14.6302  -14.9740 N   0  0  0  0  0  0  0  0  0  0  0  0
   20.4238  -10.4255  -16.1155 C   0  0  0  0  0  0  0  0  0  0  0  0
   21.4581  -10.6596  -15.4532 O   0  0  0  0  0  0  0  0  0  0  0  0
   21.9563   -7.5076  -18.2316 C   0  0  0  0  0  0  0  0  0  0  0  0
   21.4032   -6.9424  -16.9544 C   0  0  2  0  0  0  0  0  0  0  0  0
   22.2294   -5.8133  -16.4278 C   0  0  0  0  0  0  0  0  0  0  0  0
   21.1472   -8.0054  -15.9069 C   0  0  2  0  0  0  0  0  0  0  0  0
   20.2280   -9.0183  -16.3796 N   0  0  0  0  0  0  0  0  0  0  0  0
   20.5377   -7.3333  -14.7461 C   0  0  0  0  0  0  0  0  0  0  0  0
   21.2399   -6.6045  -14.0175 O   0  0  0  0  0  0  0  0  0  0  0  0
   19.2035   -7.5022  -14.4593 O   0  0  0  0  0  0  0  0  0  0  0  0
  2  1  1  0
  3  2  1  0
  3  4  1  6
  5  3  1  0
  5  6  1  1
  7  5  1  0
  7  8  2  0
  9  7  1  0
 10  9  1  0
 10 11  1  1
 12 11  1  0
 13 12  1  0
 13 14  1  0
 15 14  1  0
 16 22  1  0
 16 10  1  0
 17 16  2  0
 19 18  1  6
 19 21  1  0
 20 19  1  0
 21 23  1  0
 21 22  1  6
 23 25  1  0
 24 23  2  0
M  END
$$$$
