IKV.pdb
     RDKit          3D

 25 24  0  0  1  0  0  0  0  0999 V2000
   16.3366  -15.6649  -18.9457 C   0  0  0  0  0  0  0  0  0  0  0  0
   16.8668  -15.0353  -17.7020 C   0  0  0  0  0  0  0  0  0  0  0  0
   17.0678  -13.5389  -17.7977 C   0  0  2  0  0  0  0  0  0  0  0  0
   18.0162  -13.2937  -18.9476 C   0  0  0  0  0  0  0  0  0  0  0  0
   17.5537  -12.9938  -16.4974 C   0  0  2  0  0  0  0  0  0  0  0  0
   16.5821  -13.2955  -15.4690 N   0  0  0  0  0  0  0  0  0  0  0  0
   17.8396  -11.5642  -16.4918 C   0  0  0  0  0  0  0  0  0  0  0  0
   18.6535  -10.9903  -17.2637 O   0  0  0  0  0  0  0  0  0  0  0  0
   17.1775  -10.7176  -15.5677 N   0  0  0  0  0  0  0  0  0  0  0  0
   17.4322   -9.2519  -15.5089 C   0  0  1  0  0  0  0  0  0  0  0  0
   16.2171   -8.5404  -15.0467 C   0  0  0  0  0  0  0  0  0  0  0  0
   15.2059   -8.4249  -16.1530 C   0  0  0  0  0  0  0  0  0  0  0  0
   13.9247   -7.7567  -15.6491 C   0  0  0  0  0  0  0  0  0  0  0  0
   12.9662   -7.7109  -16.8425 C   0  0  0  0  0  0  0  0  0  0  0  0
   11.6462   -7.3172  -16.4240 N   0  0  0  0  0  0  0  0  0  0  0  0
   18.6167   -9.0265  -14.6451 C   0  0  0  0  0  0  0  0  0  0  0  0
   18.7252   -9.3595  -13.4449 O   0  0  0  0  0  0  0  0  0  0  0  0
   22.5504   -8.6821  -16.2017 C   0  0  0  0  0  0  0  0  0  0  0  0
   22.1500   -8.9499  -14.7789 C   0  0  2  0  0  0  0  0  0  0  0  0
   21.9548  -10.4070  -14.5080 C   0  0  0  0  0  0  0  0  0  0  0  0
   20.9631   -8.1188  -14.3391 C   0  0  2  0  0  0  0  0  0  0  0  0
   19.7965   -8.3683  -15.1581 N   0  0  0  0  0  0  0  0  0  0  0  0
   21.3428   -6.7037  -14.4940 C   0  0  0  0  0  0  0  0  0  0  0  0
   22.2122   -6.2136  -13.7462 O   0  0  0  0  0  0  0  0  0  0  0  0
   20.7481   -5.9195  -15.4543 O   0  0  0  0  0  0  0  0  0  0  0  0
  2  1  1  0
  3  2  1  0
  3  4  1  6
  5  3  1  0
  5  6  1  1
  7  5  1  0
  7  8  2  0
  9  7  1  0
 10  9  1  0
 10 11  1  1
 12 11  1  0
 13 12  1  0
 13 14  1  0
 15 14  1  0
 16 22  1  0
 16 10  1  0
 17 16  2  0
 19 18  1  6
 19 21  1  0
 20 19  1  0
 21 23  1  0
 21 22  1  6
 23 25  1  0
 24 23  2  0
M  END
$$$$
