IKV.pdb
     RDKit          3D

 25 24  0  0  1  0  0  0  0  0999 V2000
   26.2990  -12.4466  -18.1478 C   0  0  0  0  0  0  0  0  0  0  0  0
   26.9870  -13.5374  -17.3989 C   0  0  0  0  0  0  0  0  0  0  0  0
   26.3502  -14.9005  -17.5580 C   0  0  2  0  0  0  0  0  0  0  0  0
   25.8043  -14.9711  -18.9647 C   0  0  0  0  0  0  0  0  0  0  0  0
   25.3165  -15.1193  -16.5056 C   0  0  2  0  0  0  0  0  0  0  0  0
   25.9469  -15.0471  -15.2056 N   0  0  0  0  0  0  0  0  0  0  0  0
   24.5726  -16.3682  -16.6164 C   0  0  0  0  0  0  0  0  0  0  0  0
   23.7290  -16.6256  -17.5163 O   0  0  0  0  0  0  0  0  0  0  0  0
   24.7800  -17.3979  -15.6647 N   0  0  0  0  0  0  0  0  0  0  0  0
   24.0085  -18.6710  -15.6902 C   0  0  1  0  0  0  0  0  0  0  0  0
   24.8151  -19.7689  -15.1069 C   0  0  0  0  0  0  0  0  0  0  0  0
   24.0546  -21.0655  -15.1248 C   0  0  0  0  0  0  0  0  0  0  0  0
   24.8696  -22.1814  -14.4673 C   0  0  0  0  0  0  0  0  0  0  0  0
   23.9881  -23.4332  -14.4997 C   0  0  0  0  0  0  0  0  0  0  0  0
   24.6686  -24.5539  -13.9049 N   0  0  0  0  0  0  0  0  0  0  0  0
   22.7221  -18.4419  -14.9883 C   0  0  0  0  0  0  0  0  0  0  0  0
   22.5875  -18.1008  -13.7931 O   0  0  0  0  0  0  0  0  0  0  0  0
   18.8144  -19.0699  -17.0099 C   0  0  0  0  0  0  0  0  0  0  0  0
   19.1087  -17.9921  -16.0057 C   0  0  2  0  0  0  0  0  0  0  0  0
   19.3864  -16.6733  -16.6523 C   0  0  0  0  0  0  0  0  0  0  0  0
   20.1884  -18.3892  -15.0212 C   0  0  2  0  0  0  0  0  0  0  0  0
   21.4611  -18.6064  -15.6748 N   0  0  0  0  0  0  0  0  0  0  0  0
   19.7652  -19.6565  -14.4003 C   0  0  0  0  0  0  0  0  0  0  0  0
   20.2382  -20.7335  -14.8143 O   0  0  0  0  0  0  0  0  0  0  0  0
   18.8546  -19.6625  -13.3700 O   0  0  0  0  0  0  0  0  0  0  0  0
  2  1  1  0
  3  2  1  0
  3  4  1  6
  5  3  1  0
  5  6  1  1
  7  5  1  0
  7  8  2  0
  9  7  1  0
 10  9  1  0
 10 11  1  1
 12 11  1  0
 13 12  1  0
 13 14  1  0
 15 14  1  0
 16 22  1  0
 16 10  1  0
 17 16  2  0
 19 18  1  6
 19 21  1  0
 20 19  1  0
 21 23  1  0
 21 22  1  6
 23 25  1  0
 24 23  2  0
M  END
$$$$
