IKV.pdb
     RDKit          3D

 25 24  0  0  1  0  0  0  0  0999 V2000
   27.5268  -19.5995  -17.8501 C   0  0  0  0  0  0  0  0  0  0  0  0
   28.1497  -19.8126  -16.5119 C   0  0  0  0  0  0  0  0  0  0  0  0
   27.3618  -19.2322  -15.3581 C   0  0  2  0  0  0  0  0  0  0  0  0
   27.8738  -17.8284  -15.1359 C   0  0  0  0  0  0  0  0  0  0  0  0
   27.4775  -20.1063  -14.1554 C   0  0  2  0  0  0  0  0  0  0  0  0
   27.0930  -21.4537  -14.5152 N   0  0  0  0  0  0  0  0  0  0  0  0
   26.7057  -19.6735  -12.9969 C   0  0  0  0  0  0  0  0  0  0  0  0
   26.7470  -18.5181  -12.4958 O   0  0  0  0  0  0  0  0  0  0  0  0
   25.8309  -20.5845  -12.3535 N   0  0  0  0  0  0  0  0  0  0  0  0
   25.0387  -20.2103  -11.1498 C   0  0  1  0  0  0  0  0  0  0  0  0
   23.6211  -20.6037  -11.3286 C   0  0  0  0  0  0  0  0  0  0  0  0
   23.1200  -20.2116  -12.6907 C   0  0  0  0  0  0  0  0  0  0  0  0
   21.6390  -20.5640  -12.8458 C   0  0  0  0  0  0  0  0  0  0  0  0
   21.5764  -22.0821  -13.0365 C   0  0  0  0  0  0  0  0  0  0  0  0
   20.2124  -22.5274  -13.1546 N   0  0  0  0  0  0  0  0  0  0  0  0
   25.6821  -20.8308   -9.9661 C   0  0  0  0  0  0  0  0  0  0  0  0
   26.0419  -22.0240   -9.8662 O   0  0  0  0  0  0  0  0  0  0  0  0
   28.0996  -18.7254   -7.3624 C   0  0  0  0  0  0  0  0  0  0  0  0
   27.1088  -19.6082   -6.6585 C   0  0  2  0  0  0  0  0  0  0  0  0
   27.6693  -20.2085   -5.4095 C   0  0  0  0  0  0  0  0  0  0  0  0
   26.4991  -20.6489   -7.5739 C   0  0  2  0  0  0  0  0  0  0  0  0
   25.9541  -20.0567   -8.7766 N   0  0  0  0  0  0  0  0  0  0  0  0
   25.3975  -21.2873   -6.8326 C   0  0  0  0  0  0  0  0  0  0  0  0
   25.6326  -21.8539   -5.7468 O   0  0  0  0  0  0  0  0  0  0  0  0
   24.1144  -21.2642   -7.3264 O   0  0  0  0  0  0  0  0  0  0  0  0
  2  1  1  0
  3  2  1  0
  3  4  1  1
  5  3  1  0
  5  6  1  6
  7  5  1  0
  7  8  2  0
  9  7  1  0
 10  9  1  0
 10 11  1  6
 12 11  1  0
 13 12  1  0
 13 14  1  0
 15 14  1  0
 16 22  1  0
 16 10  1  0
 17 16  2  0
 19 18  1  6
 19 21  1  0
 20 19  1  0
 21 23  1  0
 21 22  1  6
 23 25  1  0
 24 23  2  0
M  END
$$$$
