IKV.pdb
     RDKit          3D

 25 24  0  0  1  0  0  0  0  0999 V2000
   26.9908  -32.1311   -9.7735 C   0  0  0  0  0  0  0  0  0  0  0  0
   25.8187  -32.9489  -10.1996 C   0  0  0  0  0  0  0  0  0  0  0  0
   24.6262  -32.8593   -9.2730 C   0  0  2  0  0  0  0  0  0  0  0  0
   25.1073  -33.2507   -7.8955 C   0  0  0  0  0  0  0  0  0  0  0  0
   23.5086  -33.7080   -9.7776 C   0  0  2  0  0  0  0  0  0  0  0  0
   23.0334  -33.1628  -11.0304 N   0  0  0  0  0  0  0  0  0  0  0  0
   22.3869  -33.8671   -8.8601 C   0  0  0  0  0  0  0  0  0  0  0  0
   21.3877  -33.1013   -8.8058 O   0  0  0  0  0  0  0  0  0  0  0  0
   22.3754  -34.9479   -7.9431 N   0  0  0  0  0  0  0  0  0  0  0  0
   21.2565  -35.1658   -6.9854 C   0  0  1  0  0  0  0  0  0  0  0  0
   20.8188  -36.5812   -7.0247 C   0  0  0  0  0  0  0  0  0  0  0  0
   19.4796  -36.7504   -6.3631 C   0  0  0  0  0  0  0  0  0  0  0  0
   18.3464  -36.5030   -7.3614 C   0  0  0  0  0  0  0  0  0  0  0  0
   17.0414  -36.7562   -6.6011 C   0  0  0  0  0  0  0  0  0  0  0  0
   15.9028  -36.5678   -7.4617 N   0  0  0  0  0  0  0  0  0  0  0  0
   21.7074  -34.7210   -5.6443 C   0  0  0  0  0  0  0  0  0  0  0  0
   22.8846  -34.7326   -5.2233 O   0  0  0  0  0  0  0  0  0  0  0  0
   20.4875  -32.4860   -1.3113 C   0  0  0  0  0  0  0  0  0  0  0  0
   20.0508  -33.0590   -2.6295 C   0  0  2  0  0  0  0  0  0  0  0  0
   18.8224  -33.9016   -2.5040 C   0  0  0  0  0  0  0  0  0  0  0  0
   21.1696  -33.7770   -3.3545 C   0  0  2  0  0  0  0  0  0  0  0  0
   20.7648  -34.2139   -4.6734 N   0  0  0  0  0  0  0  0  0  0  0  0
   21.5095  -34.9682   -2.5569 C   0  0  0  0  0  0  0  0  0  0  0  0
   20.9617  -36.0586   -2.8138 O   0  0  0  0  0  0  0  0  0  0  0  0
   22.4241  -34.8887   -1.5331 O   0  0  0  0  0  0  0  0  0  0  0  0
  2  1  1  0
  3  2  1  0
  3  4  1  1
  5  3  1  0
  5  6  1  6
  7  5  1  0
  7  8  2  0
  9  7  1  0
 10  9  1  0
 10 11  1  1
 12 11  1  0
 13 12  1  0
 13 14  1  0
 15 14  1  0
 16 22  1  0
 16 10  1  0
 17 16  2  0
 19 18  1  1
 19 21  1  0
 20 19  1  0
 21 23  1  0
 21 22  1  6
 23 25  1  0
 24 23  2  0
M  END
$$$$
