IKV.pdb
     RDKit          3D

 25 24  0  0  1  0  0  0  0  0999 V2000
   23.2631  -21.2243   -6.7713 C   0  0  0  0  0  0  0  0  0  0  0  0
   24.5579  -21.1473   -7.5072 C   0  0  0  0  0  0  0  0  0  0  0  0
   24.4355  -20.6630   -8.9353 C   0  0  2  0  0  0  0  0  0  0  0  0
   23.3691  -21.5042   -9.5965 C   0  0  0  0  0  0  0  0  0  0  0  0
   25.7571  -20.7273   -9.6230 C   0  0  2  0  0  0  0  0  0  0  0  0
   26.6948  -19.8802   -8.9188 N   0  0  0  0  0  0  0  0  0  0  0  0
   25.7404  -20.3650  -11.0350 C   0  0  0  0  0  0  0  0  0  0  0  0
   25.7080  -19.1845  -11.4745 O   0  0  0  0  0  0  0  0  0  0  0  0
   25.7608  -21.3814  -12.0228 N   0  0  0  0  0  0  0  0  0  0  0  0
   25.7619  -21.0740  -13.4795 C   0  0  1  0  0  0  0  0  0  0  0  0
   26.7962  -21.8795  -14.1708 C   0  0  0  0  0  0  0  0  0  0  0  0
   26.8695  -21.5258  -15.6300 C   0  0  0  0  0  0  0  0  0  0  0  0
   27.9917  -22.3038  -16.3209 C   0  0  0  0  0  0  0  0  0  0  0  0
   28.0507  -21.7850  -17.7604 C   0  0  0  0  0  0  0  0  0  0  0  0
   29.1777  -22.3443  -18.4603 N   0  0  0  0  0  0  0  0  0  0  0  0
   24.3902  -21.2993  -13.9969 C   0  0  0  0  0  0  0  0  0  0  0  0
   23.6366  -22.2493  -13.6923 O   0  0  0  0  0  0  0  0  0  0  0  0
   21.6288  -18.5128  -14.0941 C   0  0  0  0  0  0  0  0  0  0  0  0
   21.7171  -19.1750  -15.4396 C   0  0  2  0  0  0  0  0  0  0  0  0
   20.3890  -19.2582  -16.1204 C   0  0  0  0  0  0  0  0  0  0  0  0
   22.4218  -20.5142  -15.3871 C   0  0  2  0  0  0  0  0  0  0  0  0
   23.7933  -20.3852  -14.9437 N   0  0  0  0  0  0  0  0  0  0  0  0
   22.4277  -21.0557  -16.7573 C   0  0  0  0  0  0  0  0  0  0  0  0
   21.7176  -22.0431  -17.0326 O   0  0  0  0  0  0  0  0  0  0  0  0
   23.2082  -20.4830  -17.7339 O   0  0  0  0  0  0  0  0  0  0  0  0
  2  1  1  0
  3  2  1  0
  3  4  1  6
  5  3  1  0
  5  6  1  1
  7  5  1  0
  7  8  2  0
  9  7  1  0
 10  9  1  0
 10 11  1  6
 12 11  1  0
 13 12  1  0
 13 14  1  0
 15 14  1  0
 16 22  1  0
 16 10  1  0
 17 16  2  0
 19 18  1  1
 19 21  1  0
 20 19  1  0
 21 23  1  0
 21 22  1  6
 23 25  1  0
 24 23  2  0
M  END
$$$$
