IKV.pdb
     RDKit          3D

 25 24  0  0  1  0  0  0  0  0999 V2000
   29.3930  -19.6625  -16.0475 C   0  0  0  0  0  0  0  0  0  0  0  0
   28.1428  -20.2744  -15.5120 C   0  0  0  0  0  0  0  0  0  0  0  0
   27.7115  -19.7345  -14.1661 C   0  0  2  0  0  0  0  0  0  0  0  0
   28.8594  -19.9621  -13.2109 C   0  0  0  0  0  0  0  0  0  0  0  0
   26.4375  -20.3759  -13.7309 C   0  0  2  0  0  0  0  0  0  0  0  0
   25.4547  -20.2297  -14.7823 N   0  0  0  0  0  0  0  0  0  0  0  0
   25.8867  -19.8746  -12.4776 C   0  0  0  0  0  0  0  0  0  0  0  0
   25.6127  -18.6671  -12.2442 O   0  0  0  0  0  0  0  0  0  0  0  0
   25.6236  -20.7744  -11.4144 N   0  0  0  0  0  0  0  0  0  0  0  0
   25.0706  -20.3217  -10.1084 C   0  0  1  0  0  0  0  0  0  0  0  0
   23.6958  -20.8445   -9.9270 C   0  0  0  0  0  0  0  0  0  0  0  0
   22.7936  -20.3875  -11.0393 C   0  0  0  0  0  0  0  0  0  0  0  0
   21.3945  -20.9878  -10.8840 C   0  0  0  0  0  0  0  0  0  0  0  0
   20.5602  -20.4381  -12.0445 C   0  0  0  0  0  0  0  0  0  0  0  0
   19.2211  -20.9656  -12.0071 N   0  0  0  0  0  0  0  0  0  0  0  0
   26.0111  -20.7422   -9.0414 C   0  0  0  0  0  0  0  0  0  0  0  0
   26.6347  -21.8249   -8.9961 O   0  0  0  0  0  0  0  0  0  0  0  0
   28.4699  -18.1892   -6.9320 C   0  0  0  0  0  0  0  0  0  0  0  0
   27.6898  -19.1206   -6.0486 C   0  0  2  0  0  0  0  0  0  0  0  0
   28.4640  -19.5401   -4.8407 C   0  0  0  0  0  0  0  0  0  0  0  0
   27.1179  -20.3015   -6.8044 C   0  0  2  0  0  0  0  0  0  0  0  0
   26.2894  -19.8818   -7.9142 N   0  0  0  0  0  0  0  0  0  0  0  0
   26.2768  -21.0560   -5.8588 C   0  0  0  0  0  0  0  0  0  0  0  0
   25.0356  -21.0182   -5.9727 O   0  0  0  0  0  0  0  0  0  0  0  0
   26.8473  -21.8005   -4.8533 O   0  0  0  0  0  0  0  0  0  0  0  0
  2  1  1  0
  3  2  1  0
  3  4  1  1
  5  3  1  0
  5  6  1  6
  7  5  1  0
  7  8  2  0
  9  7  1  0
 10  9  1  0
 10 11  1  1
 12 11  1  0
 13 12  1  0
 13 14  1  0
 15 14  1  0
 16 22  1  0
 16 10  1  0
 17 16  2  0
 19 18  1  6
 19 21  1  0
 20 19  1  0
 21 23  1  0
 21 22  1  6
 23 25  1  0
 24 23  2  0
M  END
$$$$
