IKV.pdb
     RDKit          3D

 25 24  0  0  1  0  0  0  0  0999 V2000
   18.8552  -16.3531  -16.9620 C   0  0  0  0  0  0  0  0  0  0  0  0
   17.7413  -15.5944  -16.3234 C   0  0  0  0  0  0  0  0  0  0  0  0
   17.8620  -14.0911  -16.4431 C   0  0  2  0  0  0  0  0  0  0  0  0
   19.1854  -13.7042  -15.8259 C   0  0  0  0  0  0  0  0  0  0  0  0
   16.6899  -13.4216  -15.8090 C   0  0  2  0  0  0  0  0  0  0  0  0
   15.4754  -13.9531  -16.3879 N   0  0  0  0  0  0  0  0  0  0  0  0
   16.6787  -11.9670  -15.9059 C   0  0  0  0  0  0  0  0  0  0  0  0
   16.5614  -11.3185  -16.9798 O   0  0  0  0  0  0  0  0  0  0  0  0
   16.8061  -11.1824  -14.7324 N   0  0  0  0  0  0  0  0  0  0  0  0
   16.7966   -9.6940  -14.7665 C   0  0  1  0  0  0  0  0  0  0  0  0
   15.6920   -9.1708  -13.9283 C   0  0  0  0  0  0  0  0  0  0  0  0
   14.3620   -9.3785  -14.5974 C   0  0  0  0  0  0  0  0  0  0  0  0
   13.2437   -8.6990  -13.8039 C   0  0  0  0  0  0  0  0  0  0  0  0
   11.9677   -8.8617  -14.6346 C   0  0  0  0  0  0  0  0  0  0  0  0
   10.8232   -8.3623  -13.9180 N   0  0  0  0  0  0  0  0  0  0  0  0
   18.1370   -9.2170  -14.3473 C   0  0  0  0  0  0  0  0  0  0  0  0
   18.7366   -9.5383  -13.2983 O   0  0  0  0  0  0  0  0  0  0  0  0
   21.3697   -9.5546  -16.0651 C   0  0  0  0  0  0  0  0  0  0  0  0
   21.2554   -8.0846  -15.7778 C   0  0  2  0  0  0  0  0  0  0  0  0
   22.5700   -7.4724  -15.4152 C   0  0  0  0  0  0  0  0  0  0  0  0
   20.1748   -7.7691  -14.7651 C   0  0  2  0  0  0  0  0  0  0  0  0
   18.8879   -8.2944  -15.1679 N   0  0  0  0  0  0  0  0  0  0  0  0
   20.0706   -6.3017  -14.6844 C   0  0  0  0  0  0  0  0  0  0  0  0
   19.1262   -5.7189  -15.2533 O   0  0  0  0  0  0  0  0  0  0  0  0
   21.0038   -5.5699  -13.9884 O   0  0  0  0  0  0  0  0  0  0  0  0
  2  1  1  0
  3  2  1  0
  3  4  1  1
  5  3  1  0
  5  6  1  6
  7  5  1  0
  7  8  2  0
  9  7  1  0
 10  9  1  0
 10 11  1  1
 12 11  1  0
 13 12  1  0
 13 14  1  0
 15 14  1  0
 16 22  1  0
 16 10  1  0
 17 16  2  0
 19 18  1  1
 19 21  1  0
 20 19  1  0
 21 23  1  0
 21 22  1  6
 23 25  1  0
 24 23  2  0
M  END
$$$$
