IKV.pdb
     RDKit          3D

 25 24  0  0  1  0  0  0  0  0999 V2000
   22.1372  -25.9847  -17.4716 C   0  0  0  0  0  0  0  0  0  0  0  0
   22.1363  -26.3334  -16.0216 C   0  0  0  0  0  0  0  0  0  0  0  0
   21.1666  -25.5260  -15.1869 C   0  0  2  0  0  0  0  0  0  0  0  0
   21.5063  -24.0697  -15.4011 C   0  0  0  0  0  0  0  0  0  0  0  0
   21.2301  -25.9492  -13.7584 C   0  0  2  0  0  0  0  0  0  0  0  0
   21.0495  -27.3826  -13.6846 N   0  0  0  0  0  0  0  0  0  0  0  0
   20.2754  -25.2928  -12.8735 C   0  0  0  0  0  0  0  0  0  0  0  0
   20.1727  -24.0458  -12.7242 O   0  0  0  0  0  0  0  0  0  0  0  0
   19.3764  -26.0735  -12.1045 N   0  0  0  0  0  0  0  0  0  0  0  0
   18.3802  -25.4615  -11.1828 C   0  0  1  0  0  0  0  0  0  0  0  0
   17.0170  -25.5802  -11.7520 C   0  0  0  0  0  0  0  0  0  0  0  0
   16.3327  -24.2425  -11.7970 C   0  0  0  0  0  0  0  0  0  0  0  0
   15.4827  -24.0257  -10.5431 C   0  0  0  0  0  0  0  0  0  0  0  0
   14.7286  -22.7103  -10.7576 C   0  0  0  0  0  0  0  0  0  0  0  0
   13.9585  -22.3657   -9.5910 N   0  0  0  0  0  0  0  0  0  0  0  0
   18.5273  -26.1060   -9.8550 C   0  0  0  0  0  0  0  0  0  0  0  0
   18.9428  -27.2660   -9.6431 O   0  0  0  0  0  0  0  0  0  0  0  0
   18.2665  -25.6190   -4.8589 C   0  0  0  0  0  0  0  0  0  0  0  0
   18.1262  -25.0037   -6.2220 C   0  0  2  0  0  0  0  0  0  0  0  0
   16.8926  -24.1684   -6.3444 C   0  0  0  0  0  0  0  0  0  0  0  0
   18.2458  -26.0204   -7.3377 C   0  0  2  0  0  0  0  0  0  0  0  0
   18.1809  -25.3992   -8.6431 N   0  0  0  0  0  0  0  0  0  0  0  0
   17.1051  -26.9438   -7.2077 C   0  0  0  0  0  0  0  0  0  0  0  0
   16.0853  -26.7648   -7.9028 O   0  0  0  0  0  0  0  0  0  0  0  0
   17.1547  -27.9997   -6.3282 O   0  0  0  0  0  0  0  0  0  0  0  0
  2  1  1  0
  3  2  1  0
  3  4  1  1
  5  3  1  0
  5  6  1  6
  7  5  1  0
  7  8  2  0
  9  7  1  0
 10  9  1  0
 10 11  1  6
 12 11  1  0
 13 12  1  0
 13 14  1  0
 15 14  1  0
 16 22  1  0
 16 10  1  0
 17 16  2  0
 19 18  1  1
 19 21  1  0
 20 19  1  0
 21 23  1  0
 21 22  1  6
 23 25  1  0
 24 23  2  0
M  END
$$$$
