IKV.pdb
     RDKit          3D

 25 24  0  0  1  0  0  0  0  0999 V2000
   29.0892  -19.2344   -3.0355 C   0  0  0  0  0  0  0  0  0  0  0  0
   29.4004  -19.0464   -4.4819 C   0  0  0  0  0  0  0  0  0  0  0  0
   28.6532  -19.9817   -5.4070 C   0  0  2  0  0  0  0  0  0  0  0  0
   29.6327  -21.0452   -5.8445 C   0  0  0  0  0  0  0  0  0  0  0  0
   28.0512  -19.2228   -6.5408 C   0  0  2  0  0  0  0  0  0  0  0  0
   27.2004  -18.1805   -6.0094 N   0  0  0  0  0  0  0  0  0  0  0  0
   27.2968  -20.0269   -7.4947 C   0  0  0  0  0  0  0  0  0  0  0  0
   27.7932  -20.9147   -8.2384 O   0  0  0  0  0  0  0  0  0  0  0  0
   25.8996  -19.8311   -7.6306 N   0  0  0  0  0  0  0  0  0  0  0  0
   25.0784  -20.6092   -8.5984 C   0  0  1  0  0  0  0  0  0  0  0  0
   23.6676  -20.6590   -8.1473 C   0  0  0  0  0  0  0  0  0  0  0  0
   22.8129  -21.4093   -9.1302 C   0  0  0  0  0  0  0  0  0  0  0  0
   21.3508  -21.4221   -8.6785 C   0  0  0  0  0  0  0  0  0  0  0  0
   20.5851  -22.2365   -9.7251 C   0  0  0  0  0  0  0  0  0  0  0  0
   19.1924  -22.3395   -9.3750 N   0  0  0  0  0  0  0  0  0  0  0  0
   25.2514  -20.0009   -9.9400 C   0  0  0  0  0  0  0  0  0  0  0  0
   25.1338  -18.7875  -10.2176 O   0  0  0  0  0  0  0  0  0  0  0  0
   27.0545  -22.3138  -13.1763 C   0  0  0  0  0  0  0  0  0  0  0  0
   27.1378  -20.8257  -12.9886 C   0  0  2  0  0  0  0  0  0  0  0  0
   28.3684  -20.4144  -12.2464 C   0  0  0  0  0  0  0  0  0  0  0  0
   25.8786  -20.2412  -12.3839 C   0  0  2  0  0  0  0  0  0  0  0  0
   25.5870  -20.8134  -11.0871 N   0  0  0  0  0  0  0  0  0  0  0  0
   24.7674  -20.5685  -13.2942 C   0  0  0  0  0  0  0  0  0  0  0  0
   24.6973  -20.0096  -14.4068 O   0  0  0  0  0  0  0  0  0  0  0  0
   23.8081  -21.4835  -12.9287 O   0  0  0  0  0  0  0  0  0  0  0  0
  2  1  1  0
  3  2  1  0
  3  4  1  6
  5  3  1  0
  5  6  1  1
  7  5  1  0
  7  8  2  0
  9  7  1  0
 10  9  1  0
 10 11  1  1
 12 11  1  0
 13 12  1  0
 13 14  1  0
 15 14  1  0
 16 22  1  0
 16 10  1  0
 17 16  2  0
 19 18  1  1
 19 21  1  0
 20 19  1  0
 21 23  1  0
 21 22  1  1
 23 25  1  0
 24 23  2  0
M  END
$$$$
