IKV.pdb
     RDKit          3D

 25 24  0  0  1  0  0  0  0  0999 V2000
   18.7789  -17.0186  -16.8943 C   0  0  0  0  0  0  0  0  0  0  0  0
   17.7472  -15.9754  -16.6268 C   0  0  0  0  0  0  0  0  0  0  0  0
   18.2259  -14.5562  -16.8402 C   0  0  2  0  0  0  0  0  0  0  0  0
   19.4379  -14.3622  -15.9597 C   0  0  0  0  0  0  0  0  0  0  0  0
   17.1263  -13.5877  -16.5631 C   0  0  2  0  0  0  0  0  0  0  0  0
   15.9640  -13.9620  -17.3386 N   0  0  0  0  0  0  0  0  0  0  0  0
   17.4516  -12.1897  -16.8185 C   0  0  0  0  0  0  0  0  0  0  0  0
   17.7951  -11.7239  -17.9377 O   0  0  0  0  0  0  0  0  0  0  0  0
   17.3910  -11.2482  -15.7606 N   0  0  0  0  0  0  0  0  0  0  0  0
   17.8018   -9.8280  -15.9360 C   0  0  1  0  0  0  0  0  0  0  0  0
   16.6178   -8.9402  -15.8564 C   0  0  0  0  0  0  0  0  0  0  0  0
   15.7989   -9.0187  -17.1146 C   0  0  0  0  0  0  0  0  0  0  0  0
   15.6227   -7.6307  -17.7344 C   0  0  0  0  0  0  0  0  0  0  0  0
   14.6766   -7.8091  -18.9252 C   0  0  0  0  0  0  0  0  0  0  0  0
   14.4244   -6.5478  -19.5720 N   0  0  0  0  0  0  0  0  0  0  0  0
   18.8417   -9.5229  -14.9234 C   0  0  0  0  0  0  0  0  0  0  0  0
   18.7513   -9.7253  -13.6930 O   0  0  0  0  0  0  0  0  0  0  0  0
   22.8846   -9.0550  -16.1559 C   0  0  0  0  0  0  0  0  0  0  0  0
   22.4524   -9.3905  -14.7569 C   0  0  2  0  0  0  0  0  0  0  0  0
   22.3958  -10.8650  -14.5177 C   0  0  0  0  0  0  0  0  0  0  0  0
   21.1689   -8.6932  -14.3582 C   0  0  2  0  0  0  0  0  0  0  0  0
   20.1051   -8.9364  -15.3087 N   0  0  0  0  0  0  0  0  0  0  0  0
   21.4489   -7.2468  -14.3377 C   0  0  0  0  0  0  0  0  0  0  0  0
   20.9824   -6.5162  -15.2341 O   0  0  0  0  0  0  0  0  0  0  0  0
   22.2189   -6.6961  -13.3404 O   0  0  0  0  0  0  0  0  0  0  0  0
  2  1  1  0
  3  2  1  0
  3  4  1  1
  5  3  1  0
  5  6  1  6
  7  5  1  0
  7  8  2  0
  9  7  1  0
 10  9  1  0
 10 11  1  1
 12 11  1  0
 13 12  1  0
 13 14  1  0
 15 14  1  0
 16 22  1  0
 16 10  1  0
 17 16  2  0
 19 18  1  6
 19 21  1  0
 20 19  1  0
 21 23  1  0
 21 22  1  6
 23 25  1  0
 24 23  2  0
M  END
$$$$
