IKV.pdb
     RDKit          3D

 25 24  0  0  1  0  0  0  0  0999 V2000
   22.4175   -8.9680  -13.9383 C   0  0  0  0  0  0  0  0  0  0  0  0
   21.2279   -9.8193  -13.6478 C   0  0  0  0  0  0  0  0  0  0  0  0
   20.0778   -9.0823  -12.9975 C   0  0  2  0  0  0  0  0  0  0  0  0
   20.5906   -8.5325  -11.6872 C   0  0  0  0  0  0  0  0  0  0  0  0
   18.8998   -9.9840  -12.8455 C   0  0  2  0  0  0  0  0  0  0  0  0
   18.6404  -10.6352  -14.1109 N   0  0  0  0  0  0  0  0  0  0  0  0
   17.6812   -9.3387  -12.3721 C   0  0  0  0  0  0  0  0  0  0  0  0
   16.9920   -8.5236  -13.0417 O   0  0  0  0  0  0  0  0  0  0  0  0
   17.1975   -9.6176  -11.0693 N   0  0  0  0  0  0  0  0  0  0  0  0
   15.9034   -9.0773  -10.5693 C   0  0  1  0  0  0  0  0  0  0  0  0
   15.1237  -10.1497   -9.9073 C   0  0  0  0  0  0  0  0  0  0  0  0
   14.3916  -10.9873  -10.9185 C   0  0  0  0  0  0  0  0  0  0  0  0
   13.6324  -12.1253  -10.2325 C   0  0  0  0  0  0  0  0  0  0  0  0
   12.9142  -12.8942  -11.3451 C   0  0  0  0  0  0  0  0  0  0  0  0
   12.1951  -14.0196  -10.8075 N   0  0  0  0  0  0  0  0  0  0  0  0
   16.1991   -7.9251   -9.6834 C   0  0  0  0  0  0  0  0  0  0  0  0
   17.0641   -7.8946   -8.7813 O   0  0  0  0  0  0  0  0  0  0  0  0
   17.1301   -4.4401  -10.7388 C   0  0  0  0  0  0  0  0  0  0  0  0
   15.9858   -4.2875   -9.7776 C   0  0  2  0  0  0  0  0  0  0  0  0
   16.1223   -3.0707   -8.9201 C   0  0  0  0  0  0  0  0  0  0  0  0
   15.7345   -5.5396   -8.9642 C   0  0  2  0  0  0  0  0  0  0  0  0
   15.4666   -6.6855   -9.8065 N   0  0  0  0  0  0  0  0  0  0  0  0
   14.5433   -5.2868   -8.1349 C   0  0  0  0  0  0  0  0  0  0  0  0
   14.6333   -4.5434   -7.1377 O   0  0  0  0  0  0  0  0  0  0  0  0
   13.3348   -5.8622   -8.4500 O   0  0  0  0  0  0  0  0  0  0  0  0
  2  1  1  0
  3  2  1  0
  3  4  1  1
  5  3  1  0
  5  6  1  6
  7  5  1  0
  7  8  2  0
  9  7  1  0
 10  9  1  0
 10 11  1  1
 12 11  1  0
 13 12  1  0
 13 14  1  0
 15 14  1  0
 16 22  1  0
 16 10  1  0
 17 16  2  0
 19 18  1  1
 19 21  1  0
 20 19  1  0
 21 23  1  0
 21 22  1  6
 23 25  1  0
 24 23  2  0
M  END
$$$$
