PRI.pdb
     RDKit          3D

 27 27  0  0  1  0  0  0  0  0999 V2000
   20.4479  -10.6121  -17.6602 N   0  0  0  0  0  0  0  0  0  0  0  0
   20.5789  -12.0184  -17.9922 C   0  0  0  0  0  0  0  0  0  0  0  0
   20.3995  -12.7595  -16.6896 C   0  0  0  0  0  0  0  0  0  0  0  0
   19.8052  -11.7330  -15.7600 C   0  0  0  0  0  0  0  0  0  0  0  0
   19.3787  -10.6054  -16.7088 C   0  0  1  0  0  0  0  0  0  0  0  0
   19.3357   -9.3668  -15.8941 C   0  0  0  0  0  0  0  0  0  0  0  0
   20.4704   -8.8291  -15.6579 O   0  0  0  0  0  0  0  0  0  0  0  0
   13.7205   -2.6484  -14.0807 N   0  0  0  0  0  0  0  0  0  0  0  0
   14.8470   -2.5838  -13.2188 C   0  0  0  0  0  0  0  0  0  0  0  0
   14.9982   -1.5410  -12.4560 N   0  0  0  0  0  0  0  0  0  0  0  0
   15.8229   -3.5987  -13.1426 N   0  0  0  0  0  0  0  0  0  0  0  0
   15.7279   -4.8016  -13.9218 C   0  0  0  0  0  0  0  0  0  0  0  0
   17.0579   -5.5496  -13.7575 C   0  0  0  0  0  0  0  0  0  0  0  0
   16.9752   -6.7694  -14.6166 C   0  0  0  0  0  0  0  0  0  0  0  0
   18.2172   -7.6130  -14.5921 C   0  0  2  0  0  0  0  0  0  0  0  0
   18.1451   -8.7843  -15.3920 N   0  0  0  0  0  0  0  0  0  0  0  0
   18.4508   -8.0290  -13.1640 C   0  0  0  0  0  0  0  0  0  0  0  0
   17.7396   -8.9020  -12.6094 O   0  0  0  0  0  0  0  0  0  0  0  0
   15.7770   -1.4022  -11.8068 C   0  0  0  0  0  0  0  0  0  0  0  0
   22.9644   -9.7076   -9.7750 C   0  0  0  0  0  0  0  0  0  0  0  0
   21.6237   -9.0693   -9.7751 C   0  0  2  0  0  0  0  0  0  0  0  0
   21.1096   -8.5596  -11.0663 C   0  0  0  0  0  0  0  0  0  0  0  0
   22.1806   -7.9009  -11.9229 C   0  0  2  0  0  0  0  0  0  0  0  0
   19.8024   -7.8510  -11.0704 N   0  0  0  0  0  0  0  0  0  0  0  0
   19.4907   -7.4169  -12.4531 C   0  0  0  0  0  0  0  0  0  0  0  0
   19.6864   -6.6643  -10.2185 O   0  0  0  0  0  0  0  0  0  0  0  0
   19.3995   -6.6512   -8.8665 O   0  0  0  0  0  0  0  0  0  0  0  0
  1  2  1  0
  3  2  1  0
  4  5  1  0
  4  3  1  0
  5  1  1  0
  5  6  1  1
  7  6  2  0
  9 11  1  0
  9  8  1  0
 10  9  2  0
 12 11  1  0
 13 14  1  0
 13 12  1  0
 15 14  1  1
 15 16  1  0
 16  6  1  0
 17 24  1  0
 17 15  1  0
 18 17  2  0
 20 19  1  0
 20 21  1  0
 21 22  1  6
 23 21  1  0
 23 25  1  0
 23 24  1  1
 25 26  1  0
 27 25  2  0
M  END
$$$$
