PRI.pdb
     RDKit          3D

 27 27  0  0  1  0  0  0  0  0999 V2000
   26.0776  -20.8604  -17.4656 N   0  0  0  0  0  0  0  0  0  0  0  0
   25.6266  -19.9309  -18.4843 C   0  0  0  0  0  0  0  0  0  0  0  0
   25.2709  -18.6635  -17.7458 C   0  0  0  0  0  0  0  0  0  0  0  0
   25.9005  -18.8387  -16.3878 C   0  0  0  0  0  0  0  0  0  0  0  0
   26.8468  -20.0290  -16.5906 C   0  0  1  0  0  0  0  0  0  0  0  0
   27.0537  -20.6321  -15.2515 C   0  0  0  0  0  0  0  0  0  0  0  0
   26.2088  -21.5320  -14.9217 O   0  0  0  0  0  0  0  0  0  0  0  0
   32.6351  -22.7272   -8.8261 N   0  0  0  0  0  0  0  0  0  0  0  0
   32.5796  -22.7820  -10.2438 C   0  0  0  0  0  0  0  0  0  0  0  0
   33.2887  -23.6760  -10.8685 N   0  0  0  0  0  0  0  0  0  0  0  0
   31.7897  -21.9111  -11.0221 N   0  0  0  0  0  0  0  0  0  0  0  0
   30.8985  -20.9571  -10.4232 C   0  0  0  0  0  0  0  0  0  0  0  0
   29.4982  -21.2348  -10.9868 C   0  0  0  0  0  0  0  0  0  0  0  0
   29.4723  -20.6745  -12.3718 C   0  0  0  0  0  0  0  0  0  0  0  0
   28.1505  -20.8356  -13.0658 C   0  0  2  0  0  0  0  0  0  0  0  0
   28.0994  -20.2682  -14.3667 N   0  0  0  0  0  0  0  0  0  0  0  0
   27.1093  -20.1597  -12.2136 C   0  0  0  0  0  0  0  0  0  0  0  0
   27.0229  -18.9091  -12.1504 O   0  0  0  0  0  0  0  0  0  0  0  0
   33.3114  -23.7958  -11.8845 C   0  0  0  0  0  0  0  0  0  0  0  0
   22.2213  -21.1821  -13.0746 C   0  0  0  0  0  0  0  0  0  0  0  0
   23.5524  -20.7213  -12.6052 C   0  0  2  0  0  0  0  0  0  0  0  0
   23.8331  -20.8084  -11.1543 C   0  0  0  0  0  0  0  0  0  0  0  0
   22.6579  -20.3822  -10.2872 C   0  0  2  0  0  0  0  0  0  0  0  0
   25.1559  -20.3360  -10.6661 N   0  0  0  0  0  0  0  0  0  0  0  0
   26.2247  -20.9612  -11.4811 C   0  0  0  0  0  0  0  0  0  0  0  0
   25.4820  -20.6052   -9.2630 O   0  0  0  0  0  0  0  0  0  0  0  0
   25.3531  -19.7217   -8.2079 O   0  0  0  0  0  0  0  0  0  0  0  0
  1  2  1  0
  3  2  1  0
  4  5  1  0
  4  3  1  0
  5  1  1  0
  5  6  1  1
  7  6  2  0
  9 11  1  0
  9  8  1  0
 10  9  2  0
 12 11  1  0
 13 14  1  0
 13 12  1  0
 15 14  1  1
 15 16  1  0
 16  6  1  0
 17 24  1  0
 17 15  1  0
 18 17  2  0
 20 19  1  0
 20 21  1  0
 21 22  1  1
 23 21  1  0
 23 25  1  0
 23 24  1  6
 25 26  1  0
 27 25  2  0
M  END
$$$$
