PRI.pdb
     RDKit          3D

 27 27  0  0  1  0  0  0  0  0999 V2000
   28.3166  -20.7024  -15.9575 N   0  0  0  0  0  0  0  0  0  0  0  0
   28.8077  -20.3166  -17.2670 C   0  0  0  0  0  0  0  0  0  0  0  0
   28.2815  -18.9214  -17.5009 C   0  0  0  0  0  0  0  0  0  0  0  0
   27.8307  -18.4637  -16.1377 C   0  0  0  0  0  0  0  0  0  0  0  0
   28.4569  -19.4994  -15.1950 C   0  0  1  0  0  0  0  0  0  0  0  0
   27.6327  -19.4954  -13.9619 C   0  0  0  0  0  0  0  0  0  0  0  0
   27.7196  -18.4377  -13.2506 O   0  0  0  0  0  0  0  0  0  0  0  0
   20.1814  -19.5044  -14.1025 N   0  0  0  0  0  0  0  0  0  0  0  0
   20.0422  -19.8450  -12.7311 C   0  0  0  0  0  0  0  0  0  0  0  0
   19.0743  -19.3122  -12.0442 N   0  0  0  0  0  0  0  0  0  0  0  0
   20.9047  -20.7388  -12.0638 N   0  0  0  0  0  0  0  0  0  0  0  0
   22.0435  -21.3224  -12.7160 C   0  0  0  0  0  0  0  0  0  0  0  0
   23.2914  -20.6461  -12.1321 C   0  0  0  0  0  0  0  0  0  0  0  0
   24.3987  -20.8662  -13.1111 C   0  0  0  0  0  0  0  0  0  0  0  0
   25.7231  -20.3209  -12.6603 C   0  0  2  0  0  0  0  0  0  0  0  0
   26.7938  -20.5652  -13.5608 N   0  0  0  0  0  0  0  0  0  0  0  0
   26.0539  -20.9728  -11.3440 C   0  0  0  0  0  0  0  0  0  0  0  0
   26.3539  -22.1894  -11.2705 O   0  0  0  0  0  0  0  0  0  0  0  0
   18.9040  -19.4818  -11.0495 C   0  0  0  0  0  0  0  0  0  0  0  0
   28.6657  -19.5439   -6.0584 C   0  0  0  0  0  0  0  0  0  0  0  0
   27.7702  -20.4439   -6.8284 C   0  0  2  0  0  0  0  0  0  0  0  0
   27.1850  -19.9167   -8.0818 C   0  0  0  0  0  0  0  0  0  0  0  0
   26.6994  -18.4799   -7.9618 C   0  0  2  0  0  0  0  0  0  0  0  0
   26.2819  -20.8039   -8.8618 N   0  0  0  0  0  0  0  0  0  0  0  0
   26.0212  -20.1877  -10.1847 C   0  0  0  0  0  0  0  0  0  0  0  0
   24.9753  -21.1074   -8.2719 O   0  0  0  0  0  0  0  0  0  0  0  0
   23.7561  -20.5948   -8.6736 O   0  0  0  0  0  0  0  0  0  0  0  0
  1  2  1  0
  3  2  1  0
  4  5  1  0
  4  3  1  0
  5  1  1  0
  5  6  1  1
  7  6  2  0
  9 11  1  0
  9  8  1  0
 10  9  2  0
 12 11  1  0
 13 14  1  0
 13 12  1  0
 15 14  1  6
 15 16  1  0
 16  6  1  0
 17 24  1  0
 17 15  1  0
 18 17  2  0
 20 19  1  0
 20 21  1  0
 21 22  1  6
 23 21  1  0
 23 25  1  0
 23 24  1  1
 25 26  1  0
 27 25  2  0
M  END
$$$$
