PRI.pdb
     RDKit          3D

 27 27  0  0  1  0  0  0  0  0999 V2000
   16.6090  -26.0001   -6.2612 N   0  0  0  0  0  0  0  0  0  0  0  0
   16.3462  -26.3615   -4.8809 C   0  0  0  0  0  0  0  0  0  0  0  0
   17.7028  -26.5644   -4.2511 C   0  0  0  0  0  0  0  0  0  0  0  0
   18.6616  -25.9374   -5.2301 C   0  0  0  0  0  0  0  0  0  0  0  0
   17.7412  -25.1309   -6.1553 C   0  0  1  0  0  0  0  0  0  0  0  0
   18.4711  -24.9714   -7.4365 C   0  0  0  0  0  0  0  0  0  0  0  0
   19.5322  -24.2623   -7.3756 O   0  0  0  0  0  0  0  0  0  0  0  0
   20.0200  -30.0477  -14.4025 N   0  0  0  0  0  0  0  0  0  0  0  0
   20.9939  -29.4466  -13.5621 C   0  0  0  0  0  0  0  0  0  0  0  0
   22.1768  -29.9823  -13.4846 N   0  0  0  0  0  0  0  0  0  0  0  0
   20.7478  -28.2878  -12.7975 N   0  0  0  0  0  0  0  0  0  0  0  0
   19.4956  -27.5873  -12.8644 C   0  0  0  0  0  0  0  0  0  0  0  0
   19.6439  -26.3192  -12.0127 C   0  0  0  0  0  0  0  0  0  0  0  0
   18.8088  -26.5211  -10.7901 C   0  0  0  0  0  0  0  0  0  0  0  0
   18.8568  -25.3702   -9.8269 C   0  0  2  0  0  0  0  0  0  0  0  0
   18.0591  -25.5457   -8.6651 N   0  0  0  0  0  0  0  0  0  0  0  0
   18.3647  -24.1498  -10.5588 C   0  0  0  0  0  0  0  0  0  0  0  0
   17.1445  -23.8593  -10.6053 O   0  0  0  0  0  0  0  0  0  0  0  0
   22.9310  -29.6439  -12.8815 C   0  0  0  0  0  0  0  0  0  0  0  0
   20.2903  -18.4830  -11.0607 C   0  0  0  0  0  0  0  0  0  0  0  0
   19.4454  -19.5581  -11.6396 C   0  0  2  0  0  0  0  0  0  0  0  0
   19.7208  -20.9485  -11.2125 C   0  0  0  0  0  0  0  0  0  0  0  0
   21.2055  -21.2724  -11.1383 C   0  0  2  0  0  0  0  0  0  0  0  0
   18.8857  -22.0369  -11.7859 N   0  0  0  0  0  0  0  0  0  0  0  0
   19.3049  -23.3310  -11.1967 C   0  0  0  0  0  0  0  0  0  0  0  0
   18.9191  -22.2046  -13.2414 O   0  0  0  0  0  0  0  0  0  0  0  0
   19.5638  -23.2111  -13.9355 O   0  0  0  0  0  0  0  0  0  0  0  0
  1  2  1  0
  3  2  1  0
  4  5  1  0
  4  3  1  0
  5  1  1  0
  5  6  1  6
  7  6  2  0
  9 11  1  0
  9  8  1  0
 10  9  2  0
 12 11  1  0
 13 14  1  0
 13 12  1  0
 15 14  1  6
 15 16  1  0
 16  6  1  0
 17 24  1  0
 17 15  1  0
 18 17  2  0
 20 19  1  0
 20 21  1  0
 21 22  1  1
 23 21  1  0
 23 25  1  0
 23 24  1  6
 25 26  1  0
 27 25  2  0
M  END
$$$$
