PRI.pdb
     RDKit          3D

 27 27  0  0  1  0  0  0  0  0999 V2000
   26.6384  -17.9811  -17.2853 N   0  0  0  0  0  0  0  0  0  0  0  0
   26.5537  -17.7828  -18.7201 C   0  0  0  0  0  0  0  0  0  0  0  0
   26.6265  -19.1643  -19.3239 C   0  0  0  0  0  0  0  0  0  0  0  0
   26.3729  -20.0889  -18.1612 C   0  0  0  0  0  0  0  0  0  0  0  0
   25.8365  -19.1478  -17.0749 C   0  0  1  0  0  0  0  0  0  0  0  0
   26.1073  -19.8105  -15.7759 C   0  0  0  0  0  0  0  0  0  0  0  0
   25.1761  -20.5733  -15.3476 O   0  0  0  0  0  0  0  0  0  0  0  0
   33.3467  -21.7220  -10.7553 N   0  0  0  0  0  0  0  0  0  0  0  0
   32.1677  -22.2518  -10.1676 C   0  0  0  0  0  0  0  0  0  0  0  0
   32.2685  -22.9622   -9.0825 N   0  0  0  0  0  0  0  0  0  0  0  0
   30.8782  -22.0488  -10.7006 N   0  0  0  0  0  0  0  0  0  0  0  0
   30.6521  -21.1956  -11.8337 C   0  0  0  0  0  0  0  0  0  0  0  0
   29.1557  -21.2757  -12.1652 C   0  0  0  0  0  0  0  0  0  0  0  0
   28.9380  -20.4348  -13.3811 C   0  0  0  0  0  0  0  0  0  0  0  0
   27.5152  -20.4199  -13.8606 C   0  0  2  0  0  0  0  0  0  0  0  0
   27.2989  -19.6401  -15.0276 N   0  0  0  0  0  0  0  0  0  0  0  0
   26.6716  -19.8530  -12.7497 C   0  0  0  0  0  0  0  0  0  0  0  0
   26.7515  -18.6461  -12.4146 O   0  0  0  0  0  0  0  0  0  0  0  0
   31.4908  -23.4520   -8.6326 C   0  0  0  0  0  0  0  0  0  0  0  0
   21.0675  -19.7810  -10.9067 C   0  0  0  0  0  0  0  0  0  0  0  0
   22.4874  -19.7061  -10.4790 C   0  0  2  0  0  0  0  0  0  0  0  0
   23.5066  -20.2723  -11.3911 C   0  0  0  0  0  0  0  0  0  0  0  0
   23.1030  -21.6127  -11.9871 C   0  0  2  0  0  0  0  0  0  0  0  0
   24.9347  -20.1889  -10.9855 N   0  0  0  0  0  0  0  0  0  0  0  0
   25.7821  -20.7073  -12.0859 C   0  0  0  0  0  0  0  0  0  0  0  0
   25.3255  -20.9142   -9.7736 O   0  0  0  0  0  0  0  0  0  0  0  0
   26.1300  -22.0365   -9.7140 O   0  0  0  0  0  0  0  0  0  0  0  0
  1  2  1  0
  3  2  1  0
  4  5  1  0
  4  3  1  0
  5  1  1  0
  5  6  1  1
  7  6  2  0
  9 11  1  0
  9  8  1  0
 10  9  2  0
 12 11  1  0
 13 14  1  0
 13 12  1  0
 15 14  1  1
 15 16  1  0
 16  6  1  0
 17 24  1  0
 17 15  1  0
 18 17  2  0
 20 19  1  0
 20 21  1  0
 21 22  1  6
 23 21  1  0
 23 25  1  0
 23 24  1  1
 25 26  1  0
 27 25  2  0
M  END
$$$$
