PRI.pdb
     RDKit          3D

 27 27  0  0  1  0  0  0  0  0999 V2000
   22.6199  -19.2218  -13.9954 N   0  0  0  0  0  0  0  0  0  0  0  0
   21.4771  -19.2181  -14.8892 C   0  0  0  0  0  0  0  0  0  0  0  0
   20.9140  -20.6173  -14.8309 C   0  0  0  0  0  0  0  0  0  0  0  0
   21.5604  -21.2247  -13.6126 C   0  0  0  0  0  0  0  0  0  0  0  0
   22.1620  -20.0109  -12.8926 C   0  0  1  0  0  0  0  0  0  0  0  0
   23.2686  -20.5290  -12.0519 C   0  0  0  0  0  0  0  0  0  0  0  0
   22.9067  -21.1608  -11.0020 O   0  0  0  0  0  0  0  0  0  0  0  0
   26.3989  -20.5672  -16.1133 N   0  0  0  0  0  0  0  0  0  0  0  0
   27.3054  -21.6006  -16.4689 C   0  0  0  0  0  0  0  0  0  0  0  0
   27.3733  -21.9798  -17.7114 N   0  0  0  0  0  0  0  0  0  0  0  0
   28.1462  -22.2468  -15.5396 N   0  0  0  0  0  0  0  0  0  0  0  0
   28.2568  -21.8000  -14.1790 C   0  0  0  0  0  0  0  0  0  0  0  0
   26.8295  -21.5680  -13.6647 C   0  0  0  0  0  0  0  0  0  0  0  0
   26.9459  -21.2032  -12.2203 C   0  0  0  0  0  0  0  0  0  0  0  0
   25.6239  -20.9908  -11.5407 C   0  0  2  0  0  0  0  0  0  0  0  0
   24.6435  -20.3598  -12.3516 N   0  0  0  0  0  0  0  0  0  0  0  0
   25.8714  -20.1226  -10.3358 C   0  0  0  0  0  0  0  0  0  0  0  0
   25.6615  -18.8853  -10.3633 O   0  0  0  0  0  0  0  0  0  0  0  0
   27.9000  -22.7913  -18.0448 C   0  0  0  0  0  0  0  0  0  0  0  0
   26.3329  -20.4947   -4.2227 C   0  0  0  0  0  0  0  0  0  0  0  0
   26.5499  -19.7619   -5.4958 C   0  0  2  0  0  0  0  0  0  0  0  0
   26.3145  -20.4995   -6.7575 C   0  0  0  0  0  0  0  0  0  0  0  0
   26.5804  -21.9929   -6.6403 C   0  0  2  0  0  0  0  0  0  0  0  0
   26.7953  -19.8907   -8.0261 N   0  0  0  0  0  0  0  0  0  0  0  0
   26.3470  -20.7268   -9.1652 C   0  0  0  0  0  0  0  0  0  0  0  0
   28.2428  -19.7165   -8.1735 O   0  0  0  0  0  0  0  0  0  0  0  0
   29.0065  -18.7050   -7.6222 O   0  0  0  0  0  0  0  0  0  0  0  0
  1  2  1  0
  3  2  1  0
  4  5  1  0
  4  3  1  0
  5  1  1  0
  5  6  1  1
  7  6  2  0
  9 11  1  0
  9  8  1  0
 10  9  2  0
 12 11  1  0
 13 14  1  0
 13 12  1  0
 15 14  1  6
 15 16  1  0
 16  6  1  0
 17 24  1  0
 17 15  1  0
 18 17  2  0
 20 19  1  0
 20 21  1  0
 21 22  1  6
 23 21  1  0
 23 25  1  0
 23 24  1  6
 25 26  1  0
 27 25  2  0
M  END
$$$$
