PRI.pdb
     RDKit          3D

 27 27  0  0  1  0  0  0  0  0999 V2000
   27.5669  -19.0324  -17.1743 N   0  0  0  0  0  0  0  0  0  0  0  0
   27.4701  -19.0510  -18.6218 C   0  0  0  0  0  0  0  0  0  0  0  0
   27.3901  -20.5093  -19.0027 C   0  0  0  0  0  0  0  0  0  0  0  0
   27.0713  -21.2118  -17.7081 C   0  0  0  0  0  0  0  0  0  0  0  0
   26.6568  -20.0638  -16.7787 C   0  0  1  0  0  0  0  0  0  0  0  0
   26.8890  -20.5417  -15.3940 C   0  0  0  0  0  0  0  0  0  0  0  0
   26.0167  -21.3605  -14.9456 O   0  0  0  0  0  0  0  0  0  0  0  0
   32.2583  -22.8734   -9.7038 N   0  0  0  0  0  0  0  0  0  0  0  0
   32.7795  -22.9546  -11.0221 C   0  0  0  0  0  0  0  0  0  0  0  0
   33.4294  -24.0236  -11.3785 N   0  0  0  0  0  0  0  0  0  0  0  0
   32.6304  -21.9290  -11.9782 N   0  0  0  0  0  0  0  0  0  0  0  0
   31.6263  -20.9104  -11.8468 C   0  0  0  0  0  0  0  0  0  0  0  0
   30.3636  -21.4311  -12.5467 C   0  0  0  0  0  0  0  0  0  0  0  0
   29.3907  -20.2974  -12.5798 C   0  0  0  0  0  0  0  0  0  0  0  0
   28.0934  -20.6320  -13.2578 C   0  0  2  0  0  0  0  0  0  0  0  0
   27.9857  -20.1461  -14.5879 N   0  0  0  0  0  0  0  0  0  0  0  0
   26.9871  -20.0207  -12.4397 C   0  0  0  0  0  0  0  0  0  0  0  0
   26.8309  -18.7771  -12.3712 O   0  0  0  0  0  0  0  0  0  0  0  0
   33.8631  -24.1633  -12.2947 C   0  0  0  0  0  0  0  0  0  0  0  0
   21.1978  -20.4644  -11.4935 C   0  0  0  0  0  0  0  0  0  0  0  0
   22.5051  -20.0723  -10.9086 C   0  0  2  0  0  0  0  0  0  0  0  0
   23.7241  -20.6731  -11.4957 C   0  0  0  0  0  0  0  0  0  0  0  0
   23.5694  -22.1509  -11.8225 C   0  0  2  0  0  0  0  0  0  0  0  0
   25.0392  -20.3126  -10.9028 N   0  0  0  0  0  0  0  0  0  0  0  0
   26.1213  -20.8751  -11.7455 C   0  0  0  0  0  0  0  0  0  0  0  0
   25.2956  -20.7603   -9.5312 O   0  0  0  0  0  0  0  0  0  0  0  0
   24.8415  -20.1563   -8.3739 O   0  0  0  0  0  0  0  0  0  0  0  0
  1  2  1  0
  3  2  1  0
  4  5  1  0
  4  3  1  0
  5  1  1  0
  5  6  1  1
  7  6  2  0
  9 11  1  0
  9  8  1  0
 10  9  2  0
 12 11  1  0
 13 14  1  0
 13 12  1  0
 15 14  1  1
 15 16  1  0
 16  6  1  0
 17 24  1  0
 17 15  1  0
 18 17  2  0
 20 19  1  0
 20 21  1  0
 21 22  1  6
 23 21  1  0
 23 25  1  0
 23 24  1  1
 25 26  1  0
 27 25  2  0
M  END
$$$$
