PRI.pdb
     RDKit          3D

 27 27  0  0  1  0  0  0  0  0999 V2000
   16.8354  -24.5579   -7.6587 N   0  0  0  0  0  0  0  0  0  0  0  0
   18.0283  -24.2548   -8.4268 C   0  0  0  0  0  0  0  0  0  0  0  0
   19.0945  -23.9341   -7.4076 C   0  0  0  0  0  0  0  0  0  0  0  0
   18.5268  -24.4424   -6.1075 C   0  0  0  0  0  0  0  0  0  0  0  0
   17.3471  -25.3143   -6.5566 C   0  0  1  0  0  0  0  0  0  0  0  0
   16.4093  -25.3731   -5.4090 C   0  0  0  0  0  0  0  0  0  0  0  0
   15.5835  -24.4015   -5.3286 O   0  0  0  0  0  0  0  0  0  0  0  0
   14.0345  -32.3676   -4.2447 N   0  0  0  0  0  0  0  0  0  0  0  0
   15.1734  -31.7693   -3.6439 C   0  0  0  0  0  0  0  0  0  0  0  0
   16.3257  -32.3644   -3.7455 N   0  0  0  0  0  0  0  0  0  0  0  0
   15.1249  -30.5517   -2.9346 N   0  0  0  0  0  0  0  0  0  0  0  0
   13.9054  -29.8068   -2.7899 C   0  0  0  0  0  0  0  0  0  0  0  0
   14.0994  -28.4782   -3.5335 C   0  0  0  0  0  0  0  0  0  0  0  0
   15.1388  -27.7116   -2.7818 C   0  0  0  0  0  0  0  0  0  0  0  0
   15.4544  -26.3714   -3.3809 C   0  0  2  0  0  0  0  0  0  0  0  0
   16.3932  -26.4126   -4.4456 N   0  0  0  0  0  0  0  0  0  0  0  0
   16.0209  -25.5099   -2.2836 C   0  0  0  0  0  0  0  0  0  0  0  0
   17.2527  -25.4761   -2.0448 O   0  0  0  0  0  0  0  0  0  0  0  0
   17.2083  -31.9898   -3.3881 C   0  0  0  0  0  0  0  0  0  0  0  0
   14.1465  -20.6202    1.0415 C   0  0  0  0  0  0  0  0  0  0  0  0
   15.0664  -21.7711    0.8575 C   0  0  2  0  0  0  0  0  0  0  0  0
   14.7679  -22.7155   -0.2427 C   0  0  0  0  0  0  0  0  0  0  0  0
   13.2839  -23.0156   -0.3923 C   0  0  2  0  0  0  0  0  0  0  0  0
   15.6509  -23.9003   -0.4091 N   0  0  0  0  0  0  0  0  0  0  0  0
   15.1377  -24.7347   -1.5218 C   0  0  0  0  0  0  0  0  0  0  0  0
   15.8012  -24.7858    0.7488 O   0  0  0  0  0  0  0  0  0  0  0  0
   15.3074  -26.0714    0.8665 O   0  0  0  0  0  0  0  0  0  0  0  0
  1  2  1  0
  3  2  1  0
  4  5  1  0
  4  3  1  0
  5  1  1  0
  5  6  1  1
  7  6  2  0
  9 11  1  0
  9  8  1  0
 10  9  2  0
 12 11  1  0
 13 14  1  0
 13 12  1  0
 15 14  1  1
 15 16  1  0
 16  6  1  0
 17 24  1  0
 17 15  1  0
 18 17  2  0
 20 19  1  0
 20 21  1  0
 21 22  1  6
 23 21  1  0
 23 25  1  0
 23 24  1  1
 25 26  1  0
 27 25  2  0
M  END
$$$$
