PRI.pdb
     RDKit          3D

 27 27  0  0  1  0  0  0  0  0999 V2000
   54.7266   39.1937  -13.1969 N   0  0  0  0  0  0  0  0  0  0  0  0
   53.4886   38.4447  -13.0909 C   0  0  0  0  0  0  0  0  0  0  0  0
   52.4644   39.4275  -12.5779 C   0  0  0  0  0  0  0  0  0  0  0  0
   53.1107   40.7736  -12.7809 C   0  0  0  0  0  0  0  0  0  0  0  0
   54.2933   40.4592  -13.7062 C   0  0  1  0  0  0  0  0  0  0  0  0
   55.2877   41.5395  -13.4964 C   0  0  0  0  0  0  0  0  0  0  0  0
   54.8032   42.6639  -13.1313 O   0  0  0  0  0  0  0  0  0  0  0  0
   53.2972   46.3199  -11.8706 N   0  0  0  0  0  0  0  0  0  0  0  0
   53.8830   45.6380  -12.9697 C   0  0  0  0  0  0  0  0  0  0  0  0
   53.7212   44.3512  -13.0722 N   0  0  0  0  0  0  0  0  0  0  0  0
   54.6394   46.2850  -13.9684 N   0  0  0  0  0  0  0  0  0  0  0  0
   55.5873   45.5745  -14.7808 C   0  0  0  0  0  0  0  0  0  0  0  0
   55.5726   44.1125  -14.3139 C   0  0  0  0  0  0  0  0  0  0  0  0
   56.6630   43.4118  -15.0577 C   0  0  0  0  0  0  0  0  0  0  0  0
   57.4501   42.4502  -14.2148 C   0  0  2  0  0  0  0  0  0  0  0  0
   56.6848   41.3822  -13.6758 N   0  0  0  0  0  0  0  0  0  0  0  0
   58.0412   43.2326  -13.0722 C   0  0  0  0  0  0  0  0  0  0  0  0
   58.2324   42.7094  -11.9473 O   0  0  0  0  0  0  0  0  0  0  0  0
   54.4421   43.6968  -13.3872 C   0  0  0  0  0  0  0  0  0  0  0  0
   58.5566   46.2852   -8.9815 C   0  0  0  0  0  0  0  0  0  0  0  0
   58.2586   45.5029  -10.2078 C   0  0  2  0  0  0  0  0  0  0  0  0
   58.3413   46.2095  -11.5061 C   0  0  0  0  0  0  0  0  0  0  0  0
   58.2571   47.7228  -11.3742 C   0  0  2  0  0  0  0  0  0  0  0  0
   57.5821   45.6530  -12.6572 N   0  0  0  0  0  0  0  0  0  0  0  0
   58.3797   44.5743  -13.2878 C   0  0  0  0  0  0  0  0  0  0  0  0
   57.2145   46.5866  -13.7253 O   0  0  0  0  0  0  0  0  0  0  0  0
   57.2125   47.9663  -13.6427 O   0  0  0  0  0  0  0  0  0  0  0  0
  1  2  1  0
  3  2  1  0
  4  5  1  0
  4  3  1  0
  5  1  1  0
  5  6  1  1
  7  6  2  0
  9 11  1  0
  9  8  1  0
 10  9  2  0
 12 11  1  0
 13 14  1  0
 13 12  1  0
 15 14  1  1
 15 16  1  0
 16  6  1  0
 17 24  1  0
 17 15  1  0
 18 17  2  0
 20 19  1  0
 20 21  1  0
 21 22  1  6
 23 21  1  0
 23 25  1  0
 23 24  1  6
 25 26  1  0
 27 25  2  0
M  END
$$$$
