PRI.pdb
     RDKit          3D

 27 27  0  0  1  0  0  0  0  0999 V2000
   16.7393  -24.6502   -7.3368 N   0  0  0  0  0  0  0  0  0  0  0  0
   17.9653  -24.7825   -8.1010 C   0  0  0  0  0  0  0  0  0  0  0  0
   19.0841  -24.6376   -7.0982 C   0  0  0  0  0  0  0  0  0  0  0  0
   18.4062  -24.8037   -5.7626 C   0  0  0  0  0  0  0  0  0  0  0  0
   17.0307  -25.3715   -6.1354 C   0  0  1  0  0  0  0  0  0  0  0  0
   16.1189  -25.0275   -5.0173 C   0  0  0  0  0  0  0  0  0  0  0  0
   15.5163  -23.9065   -5.1295 O   0  0  0  0  0  0  0  0  0  0  0  0
    9.3505  -28.7934   -2.6956 N   0  0  0  0  0  0  0  0  0  0  0  0
    9.9529  -27.8399   -3.5582 C   0  0  0  0  0  0  0  0  0  0  0  0
    9.5256  -27.7389   -4.7828 N   0  0  0  0  0  0  0  0  0  0  0  0
   11.0011  -26.9863   -3.1574 N   0  0  0  0  0  0  0  0  0  0  0  0
   11.6304  -27.1106   -1.8722 C   0  0  0  0  0  0  0  0  0  0  0  0
   12.7414  -26.0534   -1.8117 C   0  0  0  0  0  0  0  0  0  0  0  0
   13.7635  -26.4436   -2.8296 C   0  0  0  0  0  0  0  0  0  0  0  0
   14.9165  -25.4867   -2.9280 C   0  0  2  0  0  0  0  0  0  0  0  0
   15.9000  -25.8518   -3.8852 N   0  0  0  0  0  0  0  0  0  0  0  0
   15.5720  -25.4309   -1.5737 C   0  0  0  0  0  0  0  0  0  0  0  0
   16.4647  -26.2486   -1.2418 O   0  0  0  0  0  0  0  0  0  0  0  0
    9.8770  -27.0658   -5.4687 C   0  0  0  0  0  0  0  0  0  0  0  0
   15.6083  -20.4839    1.1640 C   0  0  0  0  0  0  0  0  0  0  0  0
   15.9776  -21.7982    0.5801 C   0  0  2  0  0  0  0  0  0  0  0  0
   15.4688  -23.0132    1.2556 C   0  0  0  0  0  0  0  0  0  0  0  0
   15.5995  -22.9592    2.7704 C   0  0  2  0  0  0  0  0  0  0  0  0
   15.7967  -24.3360    0.6606 N   0  0  0  0  0  0  0  0  0  0  0  0
   15.1638  -24.4364   -0.6761 C   0  0  0  0  0  0  0  0  0  0  0  0
   15.3857  -25.5242    1.4133 O   0  0  0  0  0  0  0  0  0  0  0  0
   16.2163  -26.3768    2.1159 O   0  0  0  0  0  0  0  0  0  0  0  0
  1  2  1  0
  3  2  1  0
  4  5  1  0
  4  3  1  0
  5  1  1  0
  5  6  1  1
  7  6  2  0
  9 11  1  0
  9  8  1  0
 10  9  2  0
 12 11  1  0
 13 14  1  0
 13 12  1  0
 15 14  1  1
 15 16  1  0
 16  6  1  0
 17 24  1  0
 17 15  1  0
 18 17  2  0
 20 19  1  0
 20 21  1  0
 21 22  1  6
 23 21  1  0
 23 25  1  0
 23 24  1  1
 25 26  1  0
 27 25  2  0
M  END
$$$$
