PRI.pdb
     RDKit          3D

 27 27  0  0  1  0  0  0  0  0999 V2000
   17.8467  -14.7391  -15.3050 N   0  0  0  0  0  0  0  0  0  0  0  0
   17.6219  -16.1230  -15.6779 C   0  0  0  0  0  0  0  0  0  0  0  0
   17.6278  -16.1409  -17.1871 C   0  0  0  0  0  0  0  0  0  0  0  0
   18.2302  -14.8135  -17.5694 C   0  0  0  0  0  0  0  0  0  0  0  0
   18.8301  -14.3077  -16.2512 C   0  0  1  0  0  0  0  0  0  0  0  0
   18.9131  -12.8314  -16.3684 C   0  0  0  0  0  0  0  0  0  0  0  0
   19.8303  -12.3961  -17.1440 O   0  0  0  0  0  0  0  0  0  0  0  0
   11.7842   -8.3648  -15.8088 N   0  0  0  0  0  0  0  0  0  0  0  0
   12.0022   -9.7118  -16.2015 C   0  0  0  0  0  0  0  0  0  0  0  0
   10.9801  -10.4452  -16.5330 N   0  0  0  0  0  0  0  0  0  0  0  0
   13.2796  -10.3065  -16.2526 N   0  0  0  0  0  0  0  0  0  0  0  0
   14.4630   -9.5954  -15.8563 C   0  0  0  0  0  0  0  0  0  0  0  0
   15.6568  -10.5189  -16.1351 C   0  0  0  0  0  0  0  0  0  0  0  0
   16.8843   -9.7723  -15.7244 C   0  0  0  0  0  0  0  0  0  0  0  0
   18.1589  -10.5354  -15.9428 C   0  0  2  0  0  0  0  0  0  0  0  0
   18.0579  -11.9288  -15.6880 N   0  0  0  0  0  0  0  0  0  0  0  0
   19.1939   -9.9583  -15.0139 C   0  0  0  0  0  0  0  0  0  0  0  0
   19.1158  -10.1068  -13.7699 O   0  0  0  0  0  0  0  0  0  0  0  0
   11.0348  -11.4277  -16.8137 C   0  0  0  0  0  0  0  0  0  0  0  0
   24.0291  -11.3776  -15.1237 C   0  0  0  0  0  0  0  0  0  0  0  0
   22.7191  -10.7520  -14.8118 C   0  0  2  0  0  0  0  0  0  0  0  0
   22.6063   -9.2850  -14.9749 C   0  0  0  0  0  0  0  0  0  0  0  0
   23.8053   -8.5246  -14.4284 C   0  0  2  0  0  0  0  0  0  0  0  0
   21.2947   -8.6461  -14.6877 N   0  0  0  0  0  0  0  0  0  0  0  0
   20.2620   -9.2421  -15.5685 C   0  0  0  0  0  0  0  0  0  0  0  0
   21.2104   -7.1933  -14.8605 O   0  0  0  0  0  0  0  0  0  0  0  0
   20.5965   -6.5267  -15.9041 O   0  0  0  0  0  0  0  0  0  0  0  0
  1  2  1  0
  3  2  1  0
  4  5  1  0
  4  3  1  0
  5  1  1  0
  5  6  1  6
  7  6  2  0
  9 11  1  0
  9  8  1  0
 10  9  2  0
 12 11  1  0
 13 14  1  0
 13 12  1  0
 15 14  1  1
 15 16  1  0
 16  6  1  0
 17 24  1  0
 17 15  1  0
 18 17  2  0
 20 19  1  0
 20 21  1  0
 21 22  1  6
 23 21  1  0
 23 25  1  0
 23 24  1  1
 25 26  1  0
 27 25  2  0
M  END
$$$$
