LQL.pdb
     RDKit          3D

 26 25  0  0  1  0  0  0  0  0999 V2000
    9.6140  -13.7171   19.6264 C   0  0  0  0  0  0  0  0  0  0  0  0
    8.2407  -13.5569   19.0003 C   0  0  2  0  0  0  0  0  0  0  0  0
    7.9017  -12.0930   18.8789 C   0  0  0  0  0  0  0  0  0  0  0  0
    7.1827  -14.3101   19.7976 C   0  0  0  0  0  0  0  0  0  0  0  0
    7.7432  -15.6881   20.0775 C   0  0  2  0  0  0  0  0  0  0  0  0
    7.3258  -16.5576   19.0014 N   0  0  0  0  0  0  0  0  0  0  0  0
    7.2849  -16.2362   21.3604 C   0  0  0  0  0  0  0  0  0  0  0  0
    6.0732  -16.4706   21.6243 O   0  0  0  0  0  0  0  0  0  0  0  0
    6.2908  -19.9274   24.1089 N   0  0  0  0  0  0  0  0  0  0  0  0
    7.0046  -19.6718   25.2928 C   0  0  0  0  0  0  0  0  0  0  0  0
    6.4894  -20.1393   26.3654 O   0  0  0  0  0  0  0  0  0  0  0  0
    8.2896  -18.9018   25.3150 C   0  0  0  0  0  0  0  0  0  0  0  0
    8.5361  -18.4033   23.9147 C   0  0  0  0  0  0  0  0  0  0  0  0
    7.9250  -17.0550   23.6644 C   0  0  2  0  0  0  0  0  0  0  0  0
    8.2434  -16.5223   22.3660 N   0  0  0  0  0  0  0  0  0  0  0  0
    8.4957  -16.1287   24.7068 C   0  0  0  0  0  0  0  0  0  0  0  0
    9.7312  -15.8755   24.7164 O   0  0  0  0  0  0  0  0  0  0  0  0
    5.9594  -11.6775   27.1431 C   0  0  0  0  0  0  0  0  0  0  0  0
    7.2874  -12.3769   27.0181 C   0  0  2  0  0  0  0  0  0  0  0  0
    7.9601  -12.0293   25.7550 C   0  0  0  0  0  0  0  0  0  0  0  0
    7.2773  -13.8225   27.3585 C   0  0  0  0  0  0  0  0  0  0  0  0
    8.3029  -14.6994   26.7674 C   0  0  2  0  0  0  0  0  0  0  0  0
    7.6884  -15.5241   25.6883 N   0  0  0  0  0  0  0  0  0  0  0  0
    9.1118  -15.5441   27.6393 C   0  0  0  0  0  0  0  0  0  0  0  0
    8.9632  -16.7445   27.8661 O   0  0  0  0  0  0  0  0  0  0  0  0
   10.1968  -14.9186   28.3075 O   0  0  0  0  0  0  0  0  0  0  0  0
  2  1  1  1
  2  3  1  0
  2  4  1  0
  5  4  1  0
  5  7  1  0
  5  6  1  6
  7 15  1  0
  7  8  2  0
 10  9  1  0
 10 12  1  0
 11 10  2  0
 13 12  1  0
 14 13  1  6
 14 16  1  0
 15 14  1  0
 16 23  1  0
 16 17  2  0
 19 18  1  6
 19 20  1  0
 22 21  1  1
 21 19  1  0
 22 24  1  0
 23 22  1  0
 24 26  1  0
 25 24  2  0
M  END
$$$$
