LQL.pdb
     RDKit          3D

 26 25  0  0  1  0  0  0  0  0999 V2000
    9.3630  -12.6067   19.5354 C   0  0  0  0  0  0  0  0  0  0  0  0
    8.4162  -13.5015   18.7566 C   0  0  2  0  0  0  0  0  0  0  0  0
    7.7780  -12.7193   17.6370 C   0  0  0  0  0  0  0  0  0  0  0  0
    7.3676  -14.1204   19.6729 C   0  0  0  0  0  0  0  0  0  0  0  0
    8.1134  -14.7528   20.8284 C   0  0  2  0  0  0  0  0  0  0  0  0
    8.8733  -15.8642   20.3035 N   0  0  0  0  0  0  0  0  0  0  0  0
    7.2165  -15.2263   21.8902 C   0  0  0  0  0  0  0  0  0  0  0  0
    6.3335  -14.5035   22.4295 O   0  0  0  0  0  0  0  0  0  0  0  0
    5.5637  -20.8954   24.4528 N   0  0  0  0  0  0  0  0  0  0  0  0
    6.9362  -20.6800   24.2375 C   0  0  0  0  0  0  0  0  0  0  0  0
    7.7175  -21.5974   24.6648 O   0  0  0  0  0  0  0  0  0  0  0  0
    7.4678  -19.4582   23.5523 C   0  0  0  0  0  0  0  0  0  0  0  0
    6.2811  -18.6459   23.1028 C   0  0  0  0  0  0  0  0  0  0  0  0
    6.4721  -17.1728   23.3206 C   0  0  2  0  0  0  0  0  0  0  0  0
    7.3370  -16.5647   22.3444 N   0  0  0  0  0  0  0  0  0  0  0  0
    7.1121  -17.0223   24.6763 C   0  0  0  0  0  0  0  0  0  0  0  0
    6.5585  -17.5219   25.6935 O   0  0  0  0  0  0  0  0  0  0  0  0
    6.1075  -12.4380   26.9140 C   0  0  0  0  0  0  0  0  0  0  0  0
    7.3153  -13.3349   26.9816 C   0  0  2  0  0  0  0  0  0  0  0  0
    8.5465  -12.5607   27.2130 C   0  0  0  0  0  0  0  0  0  0  0  0
    7.4008  -14.3650   25.9150 C   0  0  0  0  0  0  0  0  0  0  0  0
    8.4844  -15.3612   25.9737 C   0  0  2  0  0  0  0  0  0  0  0  0
    8.3261  -16.3332   24.8547 N   0  0  0  0  0  0  0  0  0  0  0  0
    8.7338  -16.0753   27.2212 C   0  0  0  0  0  0  0  0  0  0  0  0
    8.1414  -17.0662   27.6474 O   0  0  0  0  0  0  0  0  0  0  0  0
    9.7771  -15.5773   28.0448 O   0  0  0  0  0  0  0  0  0  0  0  0
  2  1  1  1
  2  3  1  0
  2  4  1  0
  5  4  1  0
  5  7  1  0
  5  6  1  6
  7 15  1  0
  7  8  2  0
 10  9  1  0
 10 12  1  0
 11 10  2  0
 13 12  1  0
 14 13  1  6
 14 16  1  0
 15 14  1  0
 16 23  1  0
 16 17  2  0
 19 18  1  6
 19 20  1  0
 22 21  1  1
 21 19  1  0
 22 24  1  0
 23 22  1  0
 24 26  1  0
 25 24  2  0
M  END
$$$$
