LQL.pdb
     RDKit          3D

 26 25  0  0  1  0  0  0  0  0999 V2000
    9.8819  -13.4089   19.0930 C   0  0  0  0  0  0  0  0  0  0  0  0
    8.4863  -13.4305   18.4968 C   0  0  2  0  0  0  0  0  0  0  0  0
    7.9360  -12.0285   18.4325 C   0  0  0  0  0  0  0  0  0  0  0  0
    7.5668  -14.3550   19.2853 C   0  0  0  0  0  0  0  0  0  0  0  0
    8.3297  -15.6425   19.5128 C   0  0  2  0  0  0  0  0  0  0  0  0
    7.7538  -16.6507   18.6526 N   0  0  0  0  0  0  0  0  0  0  0  0
    8.2742  -16.0948   20.9086 C   0  0  0  0  0  0  0  0  0  0  0  0
    7.2037  -16.1747   21.5725 O   0  0  0  0  0  0  0  0  0  0  0  0
   12.8850  -19.7687   23.5880 N   0  0  0  0  0  0  0  0  0  0  0  0
   11.6794  -19.7543   24.3109 C   0  0  0  0  0  0  0  0  0  0  0  0
   11.3474  -20.8592   24.8619 O   0  0  0  0  0  0  0  0  0  0  0  0
   10.8245  -18.5304   24.4383 C   0  0  0  0  0  0  0  0  0  0  0  0
   10.7936  -17.8644   23.0872 C   0  0  0  0  0  0  0  0  0  0  0  0
    9.5479  -17.0552   22.8693 C   0  0  2  0  0  0  0  0  0  0  0  0
    9.4793  -16.4650   21.5586 N   0  0  0  0  0  0  0  0  0  0  0  0
    9.5790  -15.9436   23.8859 C   0  0  0  0  0  0  0  0  0  0  0  0
   10.3504  -14.9595   23.7203 O   0  0  0  0  0  0  0  0  0  0  0  0
    8.0030  -12.8555   28.1570 C   0  0  0  0  0  0  0  0  0  0  0  0
    7.3638  -12.8920   26.7938 C   0  0  2  0  0  0  0  0  0  0  0  0
    6.0092  -12.3150   26.8207 C   0  0  0  0  0  0  0  0  0  0  0  0
    7.4938  -14.1805   26.0668 C   0  0  0  0  0  0  0  0  0  0  0  0
    8.8125  -14.8346   26.0093 C   0  0  2  0  0  0  0  0  0  0  0  0
    8.7656  -15.9611   25.0342 N   0  0  0  0  0  0  0  0  0  0  0  0
    9.4484  -15.2740   27.2465 C   0  0  0  0  0  0  0  0  0  0  0  0
   10.1530  -14.6070   28.0035 O   0  0  0  0  0  0  0  0  0  0  0  0
    9.2362  -16.6243   27.6292 O   0  0  0  0  0  0  0  0  0  0  0  0
  2  1  1  1
  2  3  1  0
  2  4  1  0
  5  4  1  0
  5  7  1  0
  5  6  1  6
  7 15  1  0
  7  8  2  0
 10  9  1  0
 10 12  1  0
 11 10  2  0
 13 12  1  0
 14 13  1  6
 14 16  1  0
 15 14  1  0
 16 23  1  0
 16 17  2  0
 19 18  1  1
 19 20  1  0
 22 21  1  1
 21 19  1  0
 22 24  1  0
 23 22  1  0
 24 26  1  0
 25 24  2  0
M  END
$$$$
