LQL.pdb
     RDKit          3D

 26 25  0  0  1  0  0  0  0  0999 V2000
   10.0312  -13.2874   18.8779 C   0  0  0  0  0  0  0  0  0  0  0  0
    8.6110  -13.3703   18.3490 C   0  0  2  0  0  0  0  0  0  0  0  0
    8.0350  -11.9839   18.2109 C   0  0  0  0  0  0  0  0  0  0  0  0
    7.7431  -14.2484   19.2422 C   0  0  0  0  0  0  0  0  0  0  0  0
    8.4767  -15.5614   19.4123 C   0  0  2  0  0  0  0  0  0  0  0  0
    7.9612  -16.4824   18.4253 N   0  0  0  0  0  0  0  0  0  0  0  0
    8.3109  -16.1333   20.7545 C   0  0  0  0  0  0  0  0  0  0  0  0
    7.1863  -16.3602   21.2805 O   0  0  0  0  0  0  0  0  0  0  0  0
   10.5940  -20.6291   23.1124 N   0  0  0  0  0  0  0  0  0  0  0  0
   10.6214  -19.9746   24.3562 C   0  0  0  0  0  0  0  0  0  0  0  0
   10.6220  -20.7338   25.3849 O   0  0  0  0  0  0  0  0  0  0  0  0
   10.6483  -18.4823   24.4872 C   0  0  0  0  0  0  0  0  0  0  0  0
   10.6481  -17.9113   23.0929 C   0  0  0  0  0  0  0  0  0  0  0  0
    9.4416  -17.0619   22.8156 C   0  0  2  0  0  0  0  0  0  0  0  0
    9.4668  -16.4527   21.5121 N   0  0  0  0  0  0  0  0  0  0  0  0
    9.4465  -15.9651   23.8487 C   0  0  0  0  0  0  0  0  0  0  0  0
   10.3944  -15.1336   23.8806 O   0  0  0  0  0  0  0  0  0  0  0  0
    5.7087  -12.4207   27.1122 C   0  0  0  0  0  0  0  0  0  0  0  0
    7.1044  -12.9581   26.9354 C   0  0  2  0  0  0  0  0  0  0  0  0
    8.0903  -11.8688   26.8353 C   0  0  0  0  0  0  0  0  0  0  0  0
    7.2445  -14.0398   25.9273 C   0  0  0  0  0  0  0  0  0  0  0  0
    8.5062  -14.7979   25.8684 C   0  0  2  0  0  0  0  0  0  0  0  0
    8.4153  -15.8300   24.7968 N   0  0  0  0  0  0  0  0  0  0  0  0
    9.0414  -15.3931   27.0881 C   0  0  0  0  0  0  0  0  0  0  0  0
    8.7294  -16.4705   27.5942 O   0  0  0  0  0  0  0  0  0  0  0  0
   10.0365  -14.6517   27.7773 O   0  0  0  0  0  0  0  0  0  0  0  0
  2  1  1  1
  2  3  1  0
  2  4  1  0
  5  4  1  0
  5  7  1  0
  5  6  1  6
  7 15  1  0
  7  8  2  0
 10  9  1  0
 10 12  1  0
 11 10  2  0
 13 12  1  0
 14 13  1  1
 14 16  1  0
 15 14  1  0
 16 23  1  0
 16 17  2  0
 19 18  1  6
 19 20  1  0
 22 21  1  1
 21 19  1  0
 22 24  1  0
 23 22  1  0
 24 26  1  0
 25 24  2  0
M  END
$$$$
