LQL.pdb
     RDKit          3D

 26 25  0  0  1  0  0  0  0  0999 V2000
    9.1171  -12.3974   18.6638 C   0  0  0  0  0  0  0  0  0  0  0  0
    7.9674  -13.2514   18.1615 C   0  0  2  0  0  0  0  0  0  0  0  0
    6.8644  -12.3672   17.6377 C   0  0  0  0  0  0  0  0  0  0  0  0
    7.4613  -14.1873   19.2524 C   0  0  0  0  0  0  0  0  0  0  0  0
    8.6802  -14.8300   19.8790 C   0  0  2  0  0  0  0  0  0  0  0  0
    9.2559  -15.7240   18.9004 N   0  0  0  0  0  0  0  0  0  0  0  0
    8.3611  -15.5771   21.1021 C   0  0  0  0  0  0  0  0  0  0  0  0
    7.2964  -15.4137   21.7599 O   0  0  0  0  0  0  0  0  0  0  0  0
    8.2385  -20.4052   23.3550 N   0  0  0  0  0  0  0  0  0  0  0  0
    8.9421  -20.4757   22.1400 C   0  0  0  0  0  0  0  0  0  0  0  0
    8.6360  -21.4537   21.3754 O   0  0  0  0  0  0  0  0  0  0  0  0
    9.9880  -19.4767   21.7491 C   0  0  0  0  0  0  0  0  0  0  0  0
   10.0845  -18.4704   22.8663 C   0  0  0  0  0  0  0  0  0  0  0  0
    9.0759  -17.3657   22.7388 C   0  0  2  0  0  0  0  0  0  0  0  0
    9.2890  -16.5366   21.5821 N   0  0  0  0  0  0  0  0  0  0  0  0
    9.2266  -16.5076   23.9681 C   0  0  0  0  0  0  0  0  0  0  0  0
   10.3065  -15.8903   24.1773 O   0  0  0  0  0  0  0  0  0  0  0  0
    5.9280  -12.5864   27.1361 C   0  0  0  0  0  0  0  0  0  0  0  0
    7.2036  -13.3844   27.0717 C   0  0  2  0  0  0  0  0  0  0  0  0
    8.3869  -12.5081   27.0992 C   0  0  0  0  0  0  0  0  0  0  0  0
    7.2289  -14.4581   26.0458 C   0  0  0  0  0  0  0  0  0  0  0  0
    8.3376  -15.4279   26.0586 C   0  0  2  0  0  0  0  0  0  0  0  0
    8.1900  -16.3656   24.9093 N   0  0  0  0  0  0  0  0  0  0  0  0
    8.6198  -16.1768   27.2783 C   0  0  0  0  0  0  0  0  0  0  0  0
    8.1151  -17.2403   27.6370 O   0  0  0  0  0  0  0  0  0  0  0  0
    9.5857  -15.6231   28.1589 O   0  0  0  0  0  0  0  0  0  0  0  0
  2  1  1  1
  2  3  1  0
  2  4  1  0
  5  4  1  0
  5  7  1  0
  5  6  1  6
  7 15  1  0
  7  8  2  0
 10  9  1  0
 10 12  1  0
 11 10  2  0
 13 12  1  0
 14 13  1  1
 14 16  1  0
 15 14  1  0
 16 23  1  0
 16 17  2  0
 19 18  1  6
 19 20  1  0
 22 21  1  1
 21 19  1  0
 22 24  1  0
 23 22  1  0
 24 26  1  0
 25 24  2  0
M  END
$$$$
