LQL.pdb
     RDKit          3D

 26 25  0  0  1  0  0  0  0  0999 V2000
    9.6954  -13.0325   19.1588 C   0  0  0  0  0  0  0  0  0  0  0  0
    8.2627  -13.2212   18.6948 C   0  0  2  0  0  0  0  0  0  0  0  0
    7.5115  -11.9195   18.8124 C   0  0  0  0  0  0  0  0  0  0  0  0
    7.5750  -14.3345   19.4756 C   0  0  0  0  0  0  0  0  0  0  0  0
    8.5615  -15.4789   19.5686 C   0  0  2  0  0  0  0  0  0  0  0  0
    8.1803  -16.4669   18.5854 N   0  0  0  0  0  0  0  0  0  0  0  0
    8.5907  -16.0949   20.9011 C   0  0  0  0  0  0  0  0  0  0  0  0
    7.5669  -16.5555   21.4777 O   0  0  0  0  0  0  0  0  0  0  0  0
   13.3322  -20.3559   22.6887 N   0  0  0  0  0  0  0  0  0  0  0  0
   12.9486  -19.1286   22.1203 C   0  0  0  0  0  0  0  0  0  0  0  0
   13.9000  -18.3998   21.6750 O   0  0  0  0  0  0  0  0  0  0  0  0
   11.5198  -18.6862   22.0335 C   0  0  0  0  0  0  0  0  0  0  0  0
   11.3561  -17.5176   22.9704 C   0  0  0  0  0  0  0  0  0  0  0  0
   10.0122  -16.8600   22.8460 C   0  0  2  0  0  0  0  0  0  0  0  0
    9.8279  -16.1840   21.5891 N   0  0  0  0  0  0  0  0  0  0  0  0
    9.9359  -15.8354   23.9480 C   0  0  0  0  0  0  0  0  0  0  0  0
   10.4054  -14.6788   23.7669 O   0  0  0  0  0  0  0  0  0  0  0  0
    8.2293  -13.0860   28.0904 C   0  0  0  0  0  0  0  0  0  0  0  0
    7.6530  -13.0592   26.6993 C   0  0  2  0  0  0  0  0  0  0  0  0
    6.2267  -12.6928   26.7163 C   0  0  0  0  0  0  0  0  0  0  0  0
    8.0023  -14.2233   25.8456 C   0  0  0  0  0  0  0  0  0  0  0  0
    9.1673  -15.0479   26.2098 C   0  0  2  0  0  0  0  0  0  0  0  0
    9.3502  -16.1241   25.1947 N   0  0  0  0  0  0  0  0  0  0  0  0
    9.2543  -15.6111   27.5527 C   0  0  0  0  0  0  0  0  0  0  0  0
    8.6464  -16.5847   27.9967 O   0  0  0  0  0  0  0  0  0  0  0  0
   10.1385  -14.9689   28.4587 O   0  0  0  0  0  0  0  0  0  0  0  0
  2  1  1  1
  2  3  1  0
  2  4  1  0
  5  4  1  0
  5  7  1  0
  5  6  1  6
  7 15  1  0
  7  8  2  0
 10  9  1  0
 10 12  1  0
 11 10  2  0
 13 12  1  0
 14 13  1  6
 14 16  1  0
 15 14  1  0
 16 23  1  0
 16 17  2  0
 19 18  1  1
 19 20  1  0
 22 21  1  6
 21 19  1  0
 22 24  1  0
 23 22  1  0
 24 26  1  0
 25 24  2  0
M  END
$$$$
