LQL.pdb
     RDKit          3D

 26 25  0  0  1  0  0  0  0  0999 V2000
    9.7312  -13.0450   19.5107 C   0  0  0  0  0  0  0  0  0  0  0  0
    8.2778  -13.0770   19.0746 C   0  0  2  0  0  0  0  0  0  0  0  0
    7.6915  -11.6901   19.1468 C   0  0  0  0  0  0  0  0  0  0  0  0
    7.4754  -14.0660   19.9112 C   0  0  0  0  0  0  0  0  0  0  0  0
    8.2978  -15.3338   20.0001 C   0  0  2  0  0  0  0  0  0  0  0  0
    7.8683  -16.2102   18.9345 N   0  0  0  0  0  0  0  0  0  0  0  0
    8.1479  -16.0169   21.2912 C   0  0  0  0  0  0  0  0  0  0  0  0
    7.0396  -16.4191   21.7415 O   0  0  0  0  0  0  0  0  0  0  0  0
   12.3127  -19.8696   23.6326 N   0  0  0  0  0  0  0  0  0  0  0  0
   11.4257  -19.7483   24.7165 C   0  0  0  0  0  0  0  0  0  0  0  0
   11.6189  -20.5578   25.6871 O   0  0  0  0  0  0  0  0  0  0  0  0
   10.3181  -18.7399   24.7494 C   0  0  0  0  0  0  0  0  0  0  0  0
   10.3980  -17.9465   23.4710 C   0  0  0  0  0  0  0  0  0  0  0  0
    9.2953  -16.9352   23.3477 C   0  0  2  0  0  0  0  0  0  0  0  0
    9.3009  -16.2439   22.0855 N   0  0  0  0  0  0  0  0  0  0  0  0
    9.5216  -15.9230   24.4405 C   0  0  0  0  0  0  0  0  0  0  0  0
   10.6224  -15.3117   24.5153 O   0  0  0  0  0  0  0  0  0  0  0  0
    8.2004  -11.8579   25.6711 C   0  0  0  0  0  0  0  0  0  0  0  0
    7.2037  -12.9378   26.0008 C   0  0  2  0  0  0  0  0  0  0  0  0
    5.8783  -12.3710   26.3018 C   0  0  0  0  0  0  0  0  0  0  0  0
    7.6836  -13.9758   26.9485 C   0  0  0  0  0  0  0  0  0  0  0  0
    8.8604  -14.7830   26.5828 C   0  0  2  0  0  0  0  0  0  0  0  0
    8.5341  -15.6278   25.3988 N   0  0  0  0  0  0  0  0  0  0  0  0
    9.5201  -15.5904   27.6032 C   0  0  0  0  0  0  0  0  0  0  0  0
    9.4935  -16.8151   27.7212 O   0  0  0  0  0  0  0  0  0  0  0  0
   10.2821  -14.8923   28.5763 O   0  0  0  0  0  0  0  0  0  0  0  0
  2  1  1  1
  2  3  1  0
  2  4  1  0
  5  4  1  0
  5  7  1  0
  5  6  1  6
  7 15  1  0
  7  8  2  0
 10  9  1  0
 10 12  1  0
 11 10  2  0
 13 12  1  0
 14 13  1  6
 14 16  1  0
 15 14  1  0
 16 23  1  0
 16 17  2  0
 19 18  1  1
 19 20  1  0
 22 21  1  1
 21 19  1  0
 22 24  1  0
 23 22  1  0
 24 26  1  0
 25 24  2  0
M  END
$$$$
