LQL.pdb
     RDKit          3D

 26 25  0  0  1  0  0  0  0  0999 V2000
    9.6820  -13.0957   19.4391 C   0  0  0  0  0  0  0  0  0  0  0  0
    8.3009  -13.2178   18.8218 C   0  0  2  0  0  0  0  0  0  0  0  0
    7.6084  -11.8790   18.8490 C   0  0  0  0  0  0  0  0  0  0  0  0
    7.4763  -14.2866   19.5287 C   0  0  0  0  0  0  0  0  0  0  0  0
    8.4435  -15.3608   19.9781 C   0  0  2  0  0  0  0  0  0  0  0  0
    8.3117  -16.4769   19.0696 N   0  0  0  0  0  0  0  0  0  0  0  0
    8.1913  -15.8113   21.3526 C   0  0  0  0  0  0  0  0  0  0  0  0
    7.0349  -15.9446   21.8404 O   0  0  0  0  0  0  0  0  0  0  0  0
   12.0149  -19.9594   23.7688 N   0  0  0  0  0  0  0  0  0  0  0  0
   11.0835  -19.8134   24.8116 C   0  0  0  0  0  0  0  0  0  0  0  0
   11.1723  -20.6655   25.7607 O   0  0  0  0  0  0  0  0  0  0  0  0
   10.0453  -18.7332   24.8267 C   0  0  0  0  0  0  0  0  0  0  0  0
   10.1898  -17.9566   23.5437 C   0  0  0  0  0  0  0  0  0  0  0  0
    9.2002  -16.8331   23.4327 C   0  0  2  0  0  0  0  0  0  0  0  0
    9.2959  -16.1164   22.1885 N   0  0  0  0  0  0  0  0  0  0  0  0
    9.5149  -15.8763   24.5533 C   0  0  0  0  0  0  0  0  0  0  0  0
   10.5854  -15.2097   24.5309 O   0  0  0  0  0  0  0  0  0  0  0  0
    8.5016  -11.8971   26.0447 C   0  0  0  0  0  0  0  0  0  0  0  0
    7.4740  -12.9475   26.3747 C   0  0  2  0  0  0  0  0  0  0  0  0
    6.1859  -12.3393   26.7484 C   0  0  0  0  0  0  0  0  0  0  0  0
    7.9460  -14.0390   27.2646 C   0  0  0  0  0  0  0  0  0  0  0  0
    9.0687  -14.8830   26.8206 C   0  0  2  0  0  0  0  0  0  0  0  0
    8.6446  -15.6943   25.6442 N   0  0  0  0  0  0  0  0  0  0  0  0
    9.7531  -15.7321   27.7895 C   0  0  0  0  0  0  0  0  0  0  0  0
    9.7066  -16.9589   27.8738 O   0  0  0  0  0  0  0  0  0  0  0  0
   10.5682  -15.0771   28.7495 O   0  0  0  0  0  0  0  0  0  0  0  0
  2  1  1  1
  2  3  1  0
  2  4  1  0
  5  4  1  0
  5  7  1  0
  5  6  1  6
  7 15  1  0
  7  8  2  0
 10  9  1  0
 10 12  1  0
 11 10  2  0
 13 12  1  0
 14 13  1  6
 14 16  1  0
 15 14  1  0
 16 23  1  0
 16 17  2  0
 19 18  1  1
 19 20  1  0
 22 21  1  1
 21 19  1  0
 22 24  1  0
 23 22  1  0
 24 26  1  0
 25 24  2  0
M  END
$$$$
