LQL.pdb
     RDKit          3D

 26 25  0  0  1  0  0  0  0  0999 V2000
    9.1558  -13.6268   19.0688 C   0  0  0  0  0  0  0  0  0  0  0  0
    7.7324  -13.1772   19.3437 C   0  0  2  0  0  0  0  0  0  0  0  0
    7.7103  -11.6978   19.6327 C   0  0  0  0  0  0  0  0  0  0  0  0
    7.1146  -13.9775   20.4838 C   0  0  0  0  0  0  0  0  0  0  0  0
    7.5848  -15.4071   20.3213 C   0  0  2  0  0  0  0  0  0  0  0  0
    6.5289  -16.1437   19.6652 N   0  0  0  0  0  0  0  0  0  0  0  0
    7.9091  -16.0460   21.6030 C   0  0  0  0  0  0  0  0  0  0  0  0
    7.0363  -16.4708   22.4096 O   0  0  0  0  0  0  0  0  0  0  0  0
   13.3818  -19.1056   22.8108 N   0  0  0  0  0  0  0  0  0  0  0  0
   12.4617  -19.1279   21.7481 C   0  0  0  0  0  0  0  0  0  0  0  0
   12.8938  -19.6151   20.6479 O   0  0  0  0  0  0  0  0  0  0  0  0
   11.0592  -18.6172   21.8786 C   0  0  0  0  0  0  0  0  0  0  0  0
   11.0681  -17.5549   22.9470 C   0  0  0  0  0  0  0  0  0  0  0  0
    9.7248  -16.9110   23.1340 C   0  0  2  0  0  0  0  0  0  0  0  0
    9.2711  -16.2007   21.9675 N   0  0  0  0  0  0  0  0  0  0  0  0
    9.8803  -15.9202   24.2584 C   0  0  0  0  0  0  0  0  0  0  0  0
   10.0570  -14.6981   24.0016 O   0  0  0  0  0  0  0  0  0  0  0  0
    8.4691  -12.6621   26.8616 C   0  0  0  0  0  0  0  0  0  0  0  0
    7.6223  -13.5303   25.9686 C   0  0  2  0  0  0  0  0  0  0  0  0
    6.2083  -13.1204   26.0059 C   0  0  0  0  0  0  0  0  0  0  0  0
    7.8663  -14.9905   26.0873 C   0  0  0  0  0  0  0  0  0  0  0  0
    9.1581  -15.4543   26.6222 C   0  0  2  0  0  0  0  0  0  0  0  0
    9.8352  -16.3130   25.6091 N   0  0  0  0  0  0  0  0  0  0  0  0
    9.2015  -16.0997   27.9298 C   0  0  0  0  0  0  0  0  0  0  0  0
    9.5292  -15.5946   29.0031 O   0  0  0  0  0  0  0  0  0  0  0  0
    8.8247  -17.4674   27.9800 O   0  0  0  0  0  0  0  0  0  0  0  0
  2  1  1  1
  2  3  1  0
  2  4  1  0
  5  4  1  0
  5  7  1  0
  5  6  1  1
  7 15  1  0
  7  8  2  0
 10  9  1  0
 10 12  1  0
 11 10  2  0
 13 12  1  0
 14 13  1  6
 14 16  1  0
 15 14  1  0
 16 23  1  0
 16 17  2  0
 19 18  1  1
 19 20  1  0
 22 21  1  6
 21 19  1  0
 22 24  1  0
 23 22  1  0
 24 26  1  0
 25 24  2  0
M  END
$$$$
