LQL.pdb
     RDKit          3D

 26 25  0  0  1  0  0  0  0  0999 V2000
    9.5272  -13.5569   19.1722 C   0  0  0  0  0  0  0  0  0  0  0  0
    8.0232  -13.4690   19.3563 C   0  0  2  0  0  0  0  0  0  0  0  0
    7.5907  -12.0248   19.3485 C   0  0  0  0  0  0  0  0  0  0  0  0
    7.5843  -14.1757   20.6330 C   0  0  0  0  0  0  0  0  0  0  0  0
    8.1022  -15.5956   20.5484 C   0  0  2  0  0  0  0  0  0  0  0  0
    7.1386  -16.3695   19.7996 N   0  0  0  0  0  0  0  0  0  0  0  0
    8.3045  -16.2045   21.8691 C   0  0  0  0  0  0  0  0  0  0  0  0
    7.3578  -16.5431   22.6320 O   0  0  0  0  0  0  0  0  0  0  0  0
   12.7596  -19.8940   23.1625 N   0  0  0  0  0  0  0  0  0  0  0  0
   12.4096  -19.6013   24.4922 C   0  0  0  0  0  0  0  0  0  0  0  0
   12.7843  -20.4549   25.3673 O   0  0  0  0  0  0  0  0  0  0  0  0
   11.6459  -18.3714   24.8781 C   0  0  0  0  0  0  0  0  0  0  0  0
   11.3534  -17.6111   23.6107 C   0  0  0  0  0  0  0  0  0  0  0  0
    9.9611  -17.0501   23.5807 C   0  0  2  0  0  0  0  0  0  0  0  0
    9.6285  -16.4301   22.3253 N   0  0  0  0  0  0  0  0  0  0  0  0
    9.9032  -15.9969   24.6566 C   0  0  0  0  0  0  0  0  0  0  0  0
   10.7414  -15.0544   24.6618 O   0  0  0  0  0  0  0  0  0  0  0  0
    8.3972  -11.9944   26.2037 C   0  0  0  0  0  0  0  0  0  0  0  0
    7.3719  -13.0707   25.9619 C   0  0  2  0  0  0  0  0  0  0  0  0
    6.0044  -12.5252   25.9896 C   0  0  0  0  0  0  0  0  0  0  0  0
    7.5744  -14.3241   26.7326 C   0  0  0  0  0  0  0  0  0  0  0  0
    8.9027  -14.9608   26.7186 C   0  0  2  0  0  0  0  0  0  0  0  0
    8.9320  -16.0245   25.6747 N   0  0  0  0  0  0  0  0  0  0  0  0
    9.4656  -15.4706   27.9641 C   0  0  0  0  0  0  0  0  0  0  0  0
    9.8293  -14.8192   28.9428 O   0  0  0  0  0  0  0  0  0  0  0  0
    9.6153  -16.8783   28.0685 O   0  0  0  0  0  0  0  0  0  0  0  0
  2  1  1  1
  2  3  1  0
  2  4  1  0
  5  4  1  0
  5  7  1  0
  5  6  1  6
  7 15  1  0
  7  8  2  0
 10  9  1  0
 10 12  1  0
 11 10  2  0
 13 12  1  0
 14 13  1  6
 14 16  1  0
 15 14  1  0
 16 23  1  0
 16 17  2  0
 19 18  1  1
 19 20  1  0
 22 21  1  1
 21 19  1  0
 22 24  1  0
 23 22  1  0
 24 26  1  0
 25 24  2  0
M  END
$$$$
