LQL.pdb
     RDKit          3D

 26 25  0  0  1  0  0  0  0  0999 V2000
   10.1085  -13.0568   19.0123 C   0  0  0  0  0  0  0  0  0  0  0  0
    8.6760  -13.2534   18.5509 C   0  0  2  0  0  0  0  0  0  0  0  0
    7.9870  -11.9172   18.4387 C   0  0  0  0  0  0  0  0  0  0  0  0
    7.9226  -14.1927   19.4847 C   0  0  0  0  0  0  0  0  0  0  0  0
    8.7625  -15.4450   19.6183 C   0  0  2  0  0  0  0  0  0  0  0  0
    8.3652  -16.3531   18.5668 N   0  0  0  0  0  0  0  0  0  0  0  0
    8.6003  -16.0994   20.9226 C   0  0  0  0  0  0  0  0  0  0  0  0
    7.4771  -16.3601   21.4359 O   0  0  0  0  0  0  0  0  0  0  0  0
   13.0411  -19.2246   25.9232 N   0  0  0  0  0  0  0  0  0  0  0  0
   12.2683  -19.2701   24.7497 C   0  0  0  0  0  0  0  0  0  0  0  0
   12.7316  -19.9977   23.8060 O   0  0  0  0  0  0  0  0  0  0  0  0
   10.9805  -18.5199   24.5970 C   0  0  0  0  0  0  0  0  0  0  0  0
   10.9896  -17.8905   23.2281 C   0  0  0  0  0  0  0  0  0  0  0  0
    9.7360  -17.1168   22.9386 C   0  0  2  0  0  0  0  0  0  0  0  0
    9.7582  -16.4639   21.6564 N   0  0  0  0  0  0  0  0  0  0  0  0
    9.6333  -16.0576   24.0053 C   0  0  0  0  0  0  0  0  0  0  0  0
   10.4219  -15.0733   23.9940 O   0  0  0  0  0  0  0  0  0  0  0  0
    6.0297  -12.3968   26.8892 C   0  0  0  0  0  0  0  0  0  0  0  0
    7.3347  -13.1414   26.9928 C   0  0  2  0  0  0  0  0  0  0  0  0
    8.4694  -12.2161   27.1508 C   0  0  0  0  0  0  0  0  0  0  0  0
    7.5285  -14.2235   25.9940 C   0  0  0  0  0  0  0  0  0  0  0  0
    8.6824  -15.1274   26.1399 C   0  0  2  0  0  0  0  0  0  0  0  0
    8.6740  -16.1255   25.0327 N   0  0  0  0  0  0  0  0  0  0  0  0
    8.9081  -15.8005   27.4144 C   0  0  0  0  0  0  0  0  0  0  0  0
    8.1753  -16.6195   27.9681 O   0  0  0  0  0  0  0  0  0  0  0  0
   10.1077  -15.4802   28.1023 O   0  0  0  0  0  0  0  0  0  0  0  0
  2  1  1  1
  2  3  1  0
  2  4  1  0
  5  4  1  0
  5  7  1  0
  5  6  1  6
  7 15  1  0
  7  8  2  0
 10  9  1  0
 10 12  1  0
 11 10  2  0
 13 12  1  0
 14 13  1  1
 14 16  1  0
 15 14  1  0
 16 23  1  0
 16 17  2  0
 19 18  1  6
 19 20  1  0
 22 21  1  1
 21 19  1  0
 22 24  1  0
 23 22  1  0
 24 26  1  0
 25 24  2  0
M  END
$$$$
