LQL.pdb
     RDKit          3D

 26 25  0  0  1  0  0  0  0  0999 V2000
    6.8893  -12.7353   18.7089 C   0  0  0  0  0  0  0  0  0  0  0  0
    7.8268  -13.6129   19.5178 C   0  0  2  0  0  0  0  0  0  0  0  0
    9.2474  -13.1388   19.3452 C   0  0  0  0  0  0  0  0  0  0  0  0
    7.6771  -15.0790   19.1305 C   0  0  0  0  0  0  0  0  0  0  0  0
    8.5350  -15.8758   20.0900 C   0  0  2  0  0  0  0  0  0  0  0  0
    8.8327  -17.1430   19.4626 N   0  0  0  0  0  0  0  0  0  0  0  0
    7.8751  -16.1077   21.3811 C   0  0  0  0  0  0  0  0  0  0  0  0
    7.1053  -15.2714   21.9296 O   0  0  0  0  0  0  0  0  0  0  0  0
    4.6806  -20.3666   23.3190 N   0  0  0  0  0  0  0  0  0  0  0  0
    5.9899  -20.5069   23.8115 C   0  0  0  0  0  0  0  0  0  0  0  0
    6.0926  -20.9963   24.9882 O   0  0  0  0  0  0  0  0  0  0  0  0
    7.2003  -20.1129   23.0212 C   0  0  0  0  0  0  0  0  0  0  0  0
    7.9184  -19.0458   23.8058 C   0  0  0  0  0  0  0  0  0  0  0  0
    7.5657  -17.6585   23.3529 C   0  0  2  0  0  0  0  0  0  0  0  0
    8.1056  -17.3318   22.0596 N   0  0  0  0  0  0  0  0  0  0  0  0
    8.1628  -16.7155   24.3650 C   0  0  0  0  0  0  0  0  0  0  0  0
    9.3657  -16.3523   24.2552 O   0  0  0  0  0  0  0  0  0  0  0  0
    8.4214  -12.2697   27.2940 C   0  0  0  0  0  0  0  0  0  0  0  0
    7.1781  -12.7314   26.5805 C   0  0  2  0  0  0  0  0  0  0  0  0
    6.0333  -11.8528   26.8741 C   0  0  0  0  0  0  0  0  0  0  0  0
    6.9021  -14.1883   26.6654 C   0  0  0  0  0  0  0  0  0  0  0  0
    7.9731  -15.1365   26.3136 C   0  0  2  0  0  0  0  0  0  0  0  0
    7.4165  -16.2150   25.4481 N   0  0  0  0  0  0  0  0  0  0  0  0
    8.7890  -15.7203   27.3727 C   0  0  0  0  0  0  0  0  0  0  0  0
    9.6300  -15.1522   28.0687 O   0  0  0  0  0  0  0  0  0  0  0  0
    8.5985  -17.1018   27.6380 O   0  0  0  0  0  0  0  0  0  0  0  0
  2  1  1  6
  2  3  1  0
  2  4  1  0
  5  4  1  0
  5  7  1  0
  5  6  1  6
  7 15  1  0
  7  8  2  0
 10  9  1  0
 10 12  1  0
 11 10  2  0
 13 12  1  0
 14 13  1  1
 14 16  1  0
 15 14  1  0
 16 23  1  0
 16 17  2  0
 19 18  1  1
 19 20  1  0
 22 21  1  1
 21 19  1  0
 22 24  1  0
 23 22  1  0
 24 26  1  0
 25 24  2  0
M  END
$$$$
