LQL.pdb
     RDKit          3D

 26 25  0  0  1  0  0  0  0  0999 V2000
    9.7486  -13.6425   18.8001 C   0  0  0  0  0  0  0  0  0  0  0  0
    8.2610  -13.5567   18.5116 C   0  0  2  0  0  0  0  0  0  0  0  0
    7.8425  -12.1121   18.4091 C   0  0  0  0  0  0  0  0  0  0  0  0
    7.4530  -14.2977   19.5700 C   0  0  0  0  0  0  0  0  0  0  0  0
    8.0605  -15.6782   19.6987 C   0  0  2  0  0  0  0  0  0  0  0  0
    7.3261  -16.5633   18.8238 N   0  0  0  0  0  0  0  0  0  0  0  0
    8.0128  -16.1922   21.0733 C   0  0  0  0  0  0  0  0  0  0  0  0
    6.9404  -16.3578   21.7179 O   0  0  0  0  0  0  0  0  0  0  0  0
   10.9428  -20.5792   23.3210 N   0  0  0  0  0  0  0  0  0  0  0  0
   10.8001  -19.9285   24.5590 C   0  0  0  0  0  0  0  0  0  0  0  0
   10.8306  -20.6825   25.5910 O   0  0  0  0  0  0  0  0  0  0  0  0
   10.6226  -18.4457   24.6802 C   0  0  0  0  0  0  0  0  0  0  0  0
   10.5447  -17.8891   23.2823 C   0  0  0  0  0  0  0  0  0  0  0  0
    9.3171  -17.0541   23.0595 C   0  0  2  0  0  0  0  0  0  0  0  0
    9.2284  -16.5246   21.7243 N   0  0  0  0  0  0  0  0  0  0  0  0
    9.4089  -15.8972   24.0203 C   0  0  0  0  0  0  0  0  0  0  0  0
   10.3584  -15.0724   23.9248 O   0  0  0  0  0  0  0  0  0  0  0  0
    5.7409  -12.2911   27.3415 C   0  0  0  0  0  0  0  0  0  0  0  0
    7.1492  -12.7585   27.0837 C   0  0  2  0  0  0  0  0  0  0  0  0
    8.0560  -11.6232   26.8443 C   0  0  0  0  0  0  0  0  0  0  0  0
    7.2773  -13.8893   26.1293 C   0  0  0  0  0  0  0  0  0  0  0  0
    8.5874  -14.5450   25.9756 C   0  0  2  0  0  0  0  0  0  0  0  0
    8.4586  -15.6975   25.0390 N   0  0  0  0  0  0  0  0  0  0  0  0
    9.3288  -14.9510   27.1646 C   0  0  0  0  0  0  0  0  0  0  0  0
   10.0922  -14.2629   27.8416 O   0  0  0  0  0  0  0  0  0  0  0  0
    9.1569  -16.2917   27.5979 O   0  0  0  0  0  0  0  0  0  0  0  0
  2  1  1  1
  2  3  1  0
  2  4  1  0
  5  4  1  0
  5  7  1  0
  5  6  1  6
  7 15  1  0
  7  8  2  0
 10  9  1  0
 10 12  1  0
 11 10  2  0
 13 12  1  0
 14 13  1  6
 14 16  1  0
 15 14  1  0
 16 23  1  0
 16 17  2  0
 19 18  1  6
 19 20  1  0
 22 21  1  1
 21 19  1  0
 22 24  1  0
 23 22  1  0
 24 26  1  0
 25 24  2  0
M  END
$$$$
