YIS.pdb
     RDKit          3D

 27 27  0  0  1  0  0  0  0  0999 V2000
   23.7763  -10.6285  -14.5179 O   0  0  0  0  0  0  0  0  0  0  0  0
   22.6938   -9.8832  -14.0516 C   0  0  0  0  0  0  0  0  0  0  0  0
   22.3462   -9.8669  -12.7183 C   0  0  0  0  0  0  0  0  0  0  0  0
   21.2821   -9.1355  -12.2541 C   0  0  0  0  0  0  0  0  0  0  0  0
   20.5049   -8.3775  -13.1026 C   0  0  0  0  0  0  0  0  0  0  0  0
   19.3546   -7.5796  -12.6390 C   0  0  0  0  0  0  0  0  0  0  0  0
   18.1654   -8.4852  -12.2894 C   0  0  2  0  0  0  0  0  0  0  0  0
   17.8390   -9.2330  -13.4607 N   0  0  0  0  0  0  0  0  0  0  0  0
   17.0343   -7.6613  -11.7817 C   0  0  0  0  0  0  0  0  0  0  0  0
   16.3298   -7.0727  -12.6355 O   0  0  0  0  0  0  0  0  0  0  0  0
   20.8445   -8.3854  -14.4477 C   0  0  0  0  0  0  0  0  0  0  0  0
   21.9160   -9.1242  -14.9035 C   0  0  0  0  0  0  0  0  0  0  0  0
   13.4458   -9.6179   -8.4649 C   0  0  0  0  0  0  0  0  0  0  0  0
   14.1989   -8.8309   -9.5014 C   0  0  0  0  0  0  0  0  0  0  0  0
   14.7425   -7.5387   -9.0167 C   0  0  2  0  0  0  0  0  0  0  0  0
   13.5839   -6.7852   -8.3804 C   0  0  0  0  0  0  0  0  0  0  0  0
   15.6030   -6.7593   -9.9120 C   0  0  2  0  0  0  0  0  0  0  0  0
   16.7344   -7.5224  -10.4122 N   0  0  0  0  0  0  0  0  0  0  0  0
   15.9419   -5.3761   -9.5282 C   0  0  0  0  0  0  0  0  0  0  0  0
   16.8094   -5.1854   -8.6567 O   0  0  0  0  0  0  0  0  0  0  0  0
   15.7208   -0.5964  -10.5120 O   0  0  0  0  0  0  0  0  0  0  0  0
   15.4423   -1.9141  -10.8556 C   0  0  0  0  0  0  0  0  0  0  0  0
   15.7610   -2.8800   -9.7560 C   0  0  2  0  0  0  0  0  0  0  0  0
   15.3230   -4.2423  -10.1017 N   0  0  0  0  0  0  0  0  0  0  0  0
   15.1579   -2.4697   -8.4529 C   0  0  0  0  0  0  0  0  0  0  0  0
   14.0236   -2.9125   -8.1403 O   0  0  0  0  0  0  0  0  0  0  0  0
   15.7916   -1.6230   -7.5728 O   0  0  0  0  0  0  0  0  0  0  0  0
  2  3  2  0
  2  1  1  0
  4  3  1  0
  5  4  2  0
  6  5  1  0
  7  9  1  0
  7  6  1  0
  7  8  1  6
  9 18  1  0
 10  9  2  0
 11  5  1  0
 11 12  2  0
 12  2  1  0
 13 14  1  0
 15 17  1  0
 15 14  1  0
 15 16  1  6
 17 18  1  1
 19 20  2  0
 19 17  1  0
 22 21  1  0
 23 24  1  0
 23 22  1  6
 24 19  1  0
 25 23  1  0
 26 25  2  0
 27 25  1  0
M  END
$$$$
