YIS.pdb
     RDKit          3D

 27 27  0  0  1  0  0  0  0  0999 V2000
   17.6987  -15.8317  -15.9525 O   0  0  0  0  0  0  0  0  0  0  0  0
   18.0486  -14.4818  -15.9559 C   0  0  0  0  0  0  0  0  0  0  0  0
   17.5520  -13.6023  -15.0185 C   0  0  0  0  0  0  0  0  0  0  0  0
   17.8929  -12.2733  -15.0172 C   0  0  0  0  0  0  0  0  0  0  0  0
   18.7530  -11.7500  -15.9580 C   0  0  0  0  0  0  0  0  0  0  0  0
   19.1412  -10.3275  -15.9869 C   0  0  0  0  0  0  0  0  0  0  0  0
   18.0730   -9.4828  -16.6955 C   0  0  2  0  0  0  0  0  0  0  0  0
   18.0009   -9.9324  -18.0483 N   0  0  0  0  0  0  0  0  0  0  0  0
   18.4071   -8.0374  -16.5716 C   0  0  0  0  0  0  0  0  0  0  0  0
   19.2766   -7.5844  -17.3530 O   0  0  0  0  0  0  0  0  0  0  0  0
   19.2601  -12.6251  -16.9076 C   0  0  0  0  0  0  0  0  0  0  0  0
   18.9107  -13.9591  -16.8996 C   0  0  0  0  0  0  0  0  0  0  0  0
   14.6879   -5.9597  -16.5795 C   0  0  0  0  0  0  0  0  0  0  0  0
   15.8958   -5.0901  -16.7927 C   0  0  0  0  0  0  0  0  0  0  0  0
   16.7839   -4.9714  -15.6105 C   0  0  2  0  0  0  0  0  0  0  0  0
   16.9176   -3.4862  -15.3083 C   0  0  0  0  0  0  0  0  0  0  0  0
   18.0274   -5.7477  -15.5862 C   0  0  2  0  0  0  0  0  0  0  0  0
   17.7975   -7.1821  -15.6326 N   0  0  0  0  0  0  0  0  0  0  0  0
   19.0853   -5.3454  -14.6404 C   0  0  0  0  0  0  0  0  0  0  0  0
   18.9035   -5.5157  -13.4212 O   0  0  0  0  0  0  0  0  0  0  0  0
   22.5798   -6.4530  -14.4785 O   0  0  0  0  0  0  0  0  0  0  0  0
   22.6582   -5.0662  -14.4290 C   0  0  0  0  0  0  0  0  0  0  0  0
   21.3530   -4.4239  -14.0720 C   0  0  2  0  0  0  0  0  0  0  0  0
   20.3073   -4.7657  -15.0502 N   0  0  0  0  0  0  0  0  0  0  0  0
   21.4692   -2.9398  -13.9528 C   0  0  0  0  0  0  0  0  0  0  0  0
   22.1593   -2.4557  -13.0202 O   0  0  0  0  0  0  0  0  0  0  0  0
   20.8509   -2.0721  -14.8234 O   0  0  0  0  0  0  0  0  0  0  0  0
  2  3  2  0
  2  1  1  0
  4  3  1  0
  5  4  2  0
  6  5  1  0
  7  9  1  0
  7  6  1  0
  7  8  1  6
  9 18  1  0
 10  9  2  0
 11  5  1  0
 11 12  2  0
 12  2  1  0
 13 14  1  0
 15 17  1  0
 15 14  1  0
 15 16  1  6
 17 18  1  1
 19 20  2  0
 19 17  1  0
 22 21  1  0
 23 24  1  0
 23 22  1  6
 24 19  1  0
 25 23  1  0
 26 25  2  0
 27 25  1  0
M  END
$$$$
