YIS.pdb
     RDKit          3D

 27 27  0  0  1  0  0  0  0  0999 V2000
   22.1236  -18.0599  -15.5095 O   0  0  0  0  0  0  0  0  0  0  0  0
   21.3126  -19.0124  -14.8934 C   0  0  0  0  0  0  0  0  0  0  0  0
   20.4512  -19.8078  -15.6174 C   0  0  0  0  0  0  0  0  0  0  0  0
   19.6510  -20.7464  -15.0164 C   0  0  0  0  0  0  0  0  0  0  0  0
   19.6696  -20.9410  -13.6524 C   0  0  0  0  0  0  0  0  0  0  0  0
   18.8240  -21.9400  -12.9728 C   0  0  0  0  0  0  0  0  0  0  0  0
   19.6596  -23.1429  -12.5132 C   0  0  2  0  0  0  0  0  0  0  0  0
   20.1870  -23.7686  -13.6828 N   0  0  0  0  0  0  0  0  0  0  0  0
   18.8227  -24.0529  -11.6842 C   0  0  0  0  0  0  0  0  0  0  0  0
   18.2540  -25.0010  -12.2755 O   0  0  0  0  0  0  0  0  0  0  0  0
   20.5328  -20.1464  -12.9119 C   0  0  0  0  0  0  0  0  0  0  0  0
   21.3326  -19.2060  -13.5263 C   0  0  0  0  0  0  0  0  0  0  0  0
   18.3112  -27.1661   -6.8563 C   0  0  0  0  0  0  0  0  0  0  0  0
   17.7885  -25.7799   -7.1126 C   0  0  0  0  0  0  0  0  0  0  0  0
   18.5375  -25.0217   -8.1443 C   0  0  2  0  0  0  0  0  0  0  0  0
   19.0658  -23.7646   -7.4692 C   0  0  0  0  0  0  0  0  0  0  0  0
   17.9229  -24.8347   -9.4622 C   0  0  2  0  0  0  0  0  0  0  0  0
   18.6508  -23.8919  -10.2951 N   0  0  0  0  0  0  0  0  0  0  0  0
   16.4574  -24.6851   -9.5361 C   0  0  0  0  0  0  0  0  0  0  0  0
   15.9668  -23.5419   -9.5672 O   0  0  0  0  0  0  0  0  0  0  0  0
   12.0304  -26.7318  -10.0190 O   0  0  0  0  0  0  0  0  0  0  0  0
   13.3994  -26.8888   -9.8374 C   0  0  0  0  0  0  0  0  0  0  0  0
   14.1142  -25.5848   -9.6587 C   0  0  2  0  0  0  0  0  0  0  0  0
   15.5700  -25.7846   -9.5694 N   0  0  0  0  0  0  0  0  0  0  0  0
   13.6314  -24.8370   -8.4596 C   0  0  0  0  0  0  0  0  0  0  0  0
   14.0653  -25.1599   -7.3247 O   0  0  0  0  0  0  0  0  0  0  0  0
   12.7267  -23.8035   -8.5409 O   0  0  0  0  0  0  0  0  0  0  0  0
  2  3  2  0
  2  1  1  0
  4  3  1  0
  5  4  2  0
  6  5  1  0
  7  9  1  0
  7  6  1  0
  7  8  1  6
  9 18  1  0
 10  9  2  0
 11  5  1  0
 11 12  2  0
 12  2  1  0
 13 14  1  0
 15 17  1  0
 15 14  1  0
 15 16  1  1
 17 18  1  1
 19 20  2  0
 19 17  1  0
 22 21  1  0
 23 24  1  0
 23 22  1  1
 24 19  1  0
 25 23  1  0
 26 25  2  0
 27 25  1  0
M  END
$$$$
