YIS.pdb
     RDKit          3D

 27 27  0  0  1  0  0  0  0  0999 V2000
   19.6187  -23.2840   -7.1254 O   0  0  0  0  0  0  0  0  0  0  0  0
   20.4496  -22.5163   -7.9408 C   0  0  0  0  0  0  0  0  0  0  0  0
   21.3355  -21.6011   -7.4151 C   0  0  0  0  0  0  0  0  0  0  0  0
   22.1553  -20.8431   -8.2127 C   0  0  0  0  0  0  0  0  0  0  0  0
   22.1329  -20.9605   -9.5854 C   0  0  0  0  0  0  0  0  0  0  0  0
   22.9992  -20.1627  -10.4731 C   0  0  0  0  0  0  0  0  0  0  0  0
   24.2079  -20.9847  -10.9419 C   0  0  2  0  0  0  0  0  0  0  0  0
   25.0868  -21.1267   -9.8261 N   0  0  0  0  0  0  0  0  0  0  0  0
   24.8450  -20.3240  -12.1138 C   0  0  0  0  0  0  0  0  0  0  0  0
   25.3904  -19.2127  -11.9148 O   0  0  0  0  0  0  0  0  0  0  0  0
   21.2452  -21.8786  -10.1273 C   0  0  0  0  0  0  0  0  0  0  0  0
   20.4258  -22.6353   -9.3163 C   0  0  0  0  0  0  0  0  0  0  0  0
   28.5601  -22.3864  -15.4877 C   0  0  0  0  0  0  0  0  0  0  0  0
   27.1165  -22.0725  -15.2084 C   0  0  0  0  0  0  0  0  0  0  0  0
   26.8657  -20.6805  -14.7611 C   0  0  2  0  0  0  0  0  0  0  0  0
   27.8299  -20.4061  -13.6165 C   0  0  0  0  0  0  0  0  0  0  0  0
   25.4801  -20.2492  -14.5530 C   0  0  2  0  0  0  0  0  0  0  0  0
   24.8573  -20.8873  -13.4051 N   0  0  0  0  0  0  0  0  0  0  0  0
   24.5952  -20.1457  -15.7284 C   0  0  0  0  0  0  0  0  0  0  0  0
   23.7131  -21.0067  -15.8993 O   0  0  0  0  0  0  0  0  0  0  0  0
   24.5579  -16.7889  -18.2564 O   0  0  0  0  0  0  0  0  0  0  0  0
   23.4236  -17.5784  -18.1083 C   0  0  0  0  0  0  0  0  0  0  0  0
   23.7481  -19.0085  -17.8031 C   0  0  2  0  0  0  0  0  0  0  0  0
   24.7001  -19.1105  -16.6848 N   0  0  0  0  0  0  0  0  0  0  0  0
   24.2866  -19.7308  -18.9940 C   0  0  0  0  0  0  0  0  0  0  0  0
   25.5043  -20.0425  -19.0183 O   0  0  0  0  0  0  0  0  0  0  0  0
   23.5052  -20.0732  -20.0735 O   0  0  0  0  0  0  0  0  0  0  0  0
  2  3  2  0
  2  1  1  0
  4  3  1  0
  5  4  2  0
  6  5  1  0
  7  9  1  0
  7  6  1  0
  7  8  1  1
  9 18  1  0
 10  9  2  0
 11  5  1  0
 11 12  2  0
 12  2  1  0
 13 14  1  0
 15 17  1  0
 15 14  1  0
 15 16  1  1
 17 18  1  1
 19 20  2  0
 19 17  1  0
 22 21  1  0
 23 24  1  0
 23 22  1  6
 24 19  1  0
 25 23  1  0
 26 25  2  0
 27 25  1  0
M  END
$$$$
