YIS.pdb
     RDKit          3D

 27 27  0  0  1  0  0  0  0  0999 V2000
   28.0425  -12.5181  -22.7650 O   0  0  0  0  0  0  0  0  0  0  0  0
   27.0881  -11.7852  -22.0602 C   0  0  0  0  0  0  0  0  0  0  0  0
   25.8811  -11.4353  -22.6254 C   0  0  0  0  0  0  0  0  0  0  0  0
   24.9385  -10.7143  -21.9365 C   0  0  0  0  0  0  0  0  0  0  0  0
   25.1537  -10.3027  -20.6393 C   0  0  0  0  0  0  0  0  0  0  0  0
   24.1638   -9.5270  -19.8690 C   0  0  0  0  0  0  0  0  0  0  0  0
   23.2096  -10.4588  -19.1088 C   0  0  2  0  0  0  0  0  0  0  0  0
   22.4902  -11.2184  -20.0799 N   0  0  0  0  0  0  0  0  0  0  0  0
   22.3281   -9.6595  -18.2144 C   0  0  0  0  0  0  0  0  0  0  0  0
   21.3021   -9.1546  -18.7283 O   0  0  0  0  0  0  0  0  0  0  0  0
   26.3653  -10.6487  -20.0587 C   0  0  0  0  0  0  0  0  0  0  0  0
   27.3055  -11.3736  -20.7602 C   0  0  0  0  0  0  0  0  0  0  0  0
   19.4795  -11.4322  -14.5082 C   0  0  0  0  0  0  0  0  0  0  0  0
   20.1253  -10.5734  -15.5598 C   0  0  0  0  0  0  0  0  0  0  0  0
   20.9868   -9.4907  -15.0251 C   0  0  2  0  0  0  0  0  0  0  0  0
   20.1566   -8.7348  -13.9982 C   0  0  0  0  0  0  0  0  0  0  0  0
   21.7470   -8.6672  -15.9703 C   0  0  2  0  0  0  0  0  0  0  0  0
   22.5978   -9.4549  -16.8468 N   0  0  0  0  0  0  0  0  0  0  0  0
   22.3872   -7.4366  -15.4690 C   0  0  0  0  0  0  0  0  0  0  0  0
   23.5148   -7.5104  -14.9481 O   0  0  0  0  0  0  0  0  0  0  0  0
   23.2063   -2.7764  -15.8873 O   0  0  0  0  0  0  0  0  0  0  0  0
   22.6140   -3.9756  -16.2654 C   0  0  0  0  0  0  0  0  0  0  0  0
   22.5002   -4.9489  -15.1325 C   0  0  2  0  0  0  0  0  0  0  0  0
   21.7784   -6.1635  -15.5459 N   0  0  0  0  0  0  0  0  0  0  0  0
   21.8367   -4.3476  -13.9374 C   0  0  0  0  0  0  0  0  0  0  0  0
   20.5936   -4.4766  -13.8014 O   0  0  0  0  0  0  0  0  0  0  0  0
   22.5288   -3.6541  -12.9715 O   0  0  0  0  0  0  0  0  0  0  0  0
  2  3  2  0
  2  1  1  0
  4  3  1  0
  5  4  2  0
  6  5  1  0
  7  9  1  0
  7  6  1  0
  7  8  1  6
  9 18  1  0
 10  9  2  0
 11  5  1  0
 11 12  2  0
 12  2  1  0
 13 14  1  0
 15 17  1  0
 15 14  1  0
 15 16  1  6
 17 18  1  1
 19 20  2  0
 19 17  1  0
 22 21  1  0
 23 24  1  0
 23 22  1  6
 24 19  1  0
 25 23  1  0
 26 25  2  0
 27 25  1  0
M  END
$$$$
