YIS.pdb
     RDKit          3D

 27 27  0  0  1  0  0  0  0  0999 V2000
   21.8360  -18.2481  -14.1973 O   0  0  0  0  0  0  0  0  0  0  0  0
   22.1742  -16.9172  -14.4400 C   0  0  0  0  0  0  0  0  0  0  0  0
   23.4747  -16.4716  -14.3460 C   0  0  0  0  0  0  0  0  0  0  0  0
   23.8131  -15.1633  -14.5837 C   0  0  0  0  0  0  0  0  0  0  0  0
   22.8642  -14.2260  -14.9298 C   0  0  0  0  0  0  0  0  0  0  0  0
   23.1915  -12.8122  -15.1922 C   0  0  0  0  0  0  0  0  0  0  0  0
   23.0395  -12.4829  -16.6839 C   0  0  2  0  0  0  0  0  0  0  0  0
   24.0591  -13.1948  -17.3847 N   0  0  0  0  0  0  0  0  0  0  0  0
   23.1043  -11.0094  -16.8856 C   0  0  0  0  0  0  0  0  0  0  0  0
   24.2403  -10.5066  -17.0539 O   0  0  0  0  0  0  0  0  0  0  0  0
   21.5509  -14.6620  -15.0277 C   0  0  0  0  0  0  0  0  0  0  0  0
   21.2219  -15.9793  -14.7867 C   0  0  0  0  0  0  0  0  0  0  0  0
   19.5489   -7.9492  -19.9917 C   0  0  0  0  0  0  0  0  0  0  0  0
   20.0231   -8.5110  -18.6801 C   0  0  0  0  0  0  0  0  0  0  0  0
   21.4800   -8.3676  -18.4411 C   0  0  2  0  0  0  0  0  0  0  0  0
   22.1849   -8.9642  -19.6503 C   0  0  0  0  0  0  0  0  0  0  0  0
   22.0169   -8.7476  -17.1308 C   0  0  2  0  0  0  0  0  0  0  0  0
   21.9649  -10.1807  -16.8942 N   0  0  0  0  0  0  0  0  0  0  0  0
   21.6390   -7.9373  -15.9578 C   0  0  0  0  0  0  0  0  0  0  0  0
   20.7986   -8.3865  -15.1575 O   0  0  0  0  0  0  0  0  0  0  0  0
   22.3397   -3.9602  -13.1803 O   0  0  0  0  0  0  0  0  0  0  0  0
   22.6292   -4.6657  -14.3424 C   0  0  0  0  0  0  0  0  0  0  0  0
   21.7942   -5.8998  -14.4951 C   0  0  2  0  0  0  0  0  0  0  0  0
   22.1840   -6.6603  -15.6938 N   0  0  0  0  0  0  0  0  0  0  0  0
   20.3342   -5.5899  -14.5447 C   0  0  0  0  0  0  0  0  0  0  0  0
   19.8379   -5.1644  -15.6185 O   0  0  0  0  0  0  0  0  0  0  0  0
   19.5017   -5.7500  -13.4610 O   0  0  0  0  0  0  0  0  0  0  0  0
  2  3  2  0
  2  1  1  0
  4  3  1  0
  5  4  2  0
  6  5  1  0
  7  9  1  0
  7  6  1  0
  7  8  1  6
  9 18  1  0
 10  9  2  0
 11  5  1  0
 11 12  2  0
 12  2  1  0
 13 14  1  0
 15 17  1  0
 15 14  1  0
 15 16  1  6
 17 18  1  1
 19 20  2  0
 19 17  1  0
 22 21  1  0
 23 24  1  0
 23 22  1  6
 24 19  1  0
 25 23  1  0
 26 25  2  0
 27 25  1  0
M  END
$$$$
