YIS.pdb
     RDKit          3D

 27 27  0  0  1  0  0  0  0  0999 V2000
   28.3221  -19.5801   -4.4874 O   0  0  0  0  0  0  0  0  0  0  0  0
   28.0184  -19.5700   -5.8484 C   0  0  0  0  0  0  0  0  0  0  0  0
   28.9525  -19.2127   -6.7964 C   0  0  0  0  0  0  0  0  0  0  0  0
   28.6591  -19.2010   -8.1367 C   0  0  0  0  0  0  0  0  0  0  0  0
   27.4097  -19.5478   -8.6031 C   0  0  0  0  0  0  0  0  0  0  0  0
   27.0593  -19.5466  -10.0356 C   0  0  0  0  0  0  0  0  0  0  0  0
   26.9496  -20.9801  -10.5735 C   0  0  2  0  0  0  0  0  0  0  0  0
   28.2693  -21.5222  -10.6174 N   0  0  0  0  0  0  0  0  0  0  0  0
   26.2710  -20.9726  -11.8984 C   0  0  0  0  0  0  0  0  0  0  0  0
   26.9587  -20.6298  -12.8891 O   0  0  0  0  0  0  0  0  0  0  0  0
   26.4601  -19.9095   -7.6586 C   0  0  0  0  0  0  0  0  0  0  0  0
   26.7658  -19.9178   -6.3139 C   0  0  0  0  0  0  0  0  0  0  0  0
   25.4888  -24.7203  -14.8349 C   0  0  0  0  0  0  0  0  0  0  0  0
   25.5831  -23.3515  -14.2199 C   0  0  0  0  0  0  0  0  0  0  0  0
   24.2752  -22.6935  -13.9816 C   0  0  2  0  0  0  0  0  0  0  0  0
   23.4643  -22.8513  -15.2593 C   0  0  0  0  0  0  0  0  0  0  0  0
   24.2611  -21.3608  -13.3708 C   0  0  2  0  0  0  0  0  0  0  0  0
   24.9190  -21.3274  -12.0752 N   0  0  0  0  0  0  0  0  0  0  0  0
   23.0107  -20.5802  -13.4229 C   0  0  0  0  0  0  0  0  0  0  0  0
   22.1266  -20.7967  -12.5745 O   0  0  0  0  0  0  0  0  0  0  0  0
   22.0217  -18.0124  -16.6117 O   0  0  0  0  0  0  0  0  0  0  0  0
   21.5651  -17.6705  -15.3442 C   0  0  0  0  0  0  0  0  0  0  0  0
   21.4892  -18.8456  -14.4185 C   0  0  2  0  0  0  0  0  0  0  0  0
   22.7589  -19.5905  -14.3999 N   0  0  0  0  0  0  0  0  0  0  0  0
   20.3669  -19.7667  -14.7678 C   0  0  0  0  0  0  0  0  0  0  0  0
   20.5954  -20.7474  -15.5204 O   0  0  0  0  0  0  0  0  0  0  0  0
   19.0851  -19.5896  -14.3002 O   0  0  0  0  0  0  0  0  0  0  0  0
  2  3  2  0
  2  1  1  0
  4  3  1  0
  5  4  2  0
  6  5  1  0
  7  9  1  0
  7  6  1  0
  7  8  1  6
  9 18  1  0
 10  9  2  0
 11  5  1  0
 11 12  2  0
 12  2  1  0
 13 14  1  0
 15 17  1  0
 15 14  1  0
 15 16  1  6
 17 18  1  1
 19 20  2  0
 19 17  1  0
 22 21  1  0
 23 24  1  0
 23 22  1  6
 24 19  1  0
 25 23  1  0
 26 25  2  0
 27 25  1  0
M  END
$$$$
