YIS.pdb
     RDKit          3D

 27 27  0  0  1  0  0  0  0  0999 V2000
   24.1197  -15.0339  -20.2126 O   0  0  0  0  0  0  0  0  0  0  0  0
   23.5684  -15.9724  -19.3409 C   0  0  0  0  0  0  0  0  0  0  0  0
   23.4551  -15.7270  -17.9896 C   0  0  0  0  0  0  0  0  0  0  0  0
   22.9136  -16.6468  -17.1274 C   0  0  0  0  0  0  0  0  0  0  0  0
   22.4542  -17.8672  -17.5725 C   0  0  0  0  0  0  0  0  0  0  0  0
   21.8667  -18.8793  -16.6749 C   0  0  0  0  0  0  0  0  0  0  0  0
   22.9588  -19.5948  -15.8676 C   0  0  2  0  0  0  0  0  0  0  0  0
   23.7754  -20.3106  -16.7941 N   0  0  0  0  0  0  0  0  0  0  0  0
   22.3349  -20.4672  -14.8352 C   0  0  0  0  0  0  0  0  0  0  0  0
   22.1568  -21.6707  -15.1380 O   0  0  0  0  0  0  0  0  0  0  0  0
   22.5626  -18.1266  -18.9310 C   0  0  0  0  0  0  0  0  0  0  0  0
   23.1085  -17.1950  -19.7887 C   0  0  0  0  0  0  0  0  0  0  0  0
   22.2979  -21.6077   -8.9129 C   0  0  0  0  0  0  0  0  0  0  0  0
   21.4643  -21.6411  -10.1637 C   0  0  0  0  0  0  0  0  0  0  0  0
   21.9554  -20.7621  -11.2530 C   0  0  2  0  0  0  0  0  0  0  0  0
   22.1024  -19.3683  -10.6608 C   0  0  0  0  0  0  0  0  0  0  0  0
   21.3040  -20.8389  -12.5643 C   0  0  2  0  0  0  0  0  0  0  0  0
   21.9472  -20.0017  -13.5632 N   0  0  0  0  0  0  0  0  0  0  0  0
   19.8305  -20.8019  -12.6171 C   0  0  0  0  0  0  0  0  0  0  0  0
   19.2603  -19.7195  -12.8441 O   0  0  0  0  0  0  0  0  0  0  0  0
   15.6790  -20.6327  -11.5562 O   0  0  0  0  0  0  0  0  0  0  0  0
   17.0599  -20.7859  -11.5153 C   0  0  0  0  0  0  0  0  0  0  0  0
   17.5532  -21.8506  -12.4464 C   0  0  2  0  0  0  0  0  0  0  0  0
   19.0221  -21.9437  -12.4166 N   0  0  0  0  0  0  0  0  0  0  0  0
   17.0879  -21.6328  -13.8486 C   0  0  0  0  0  0  0  0  0  0  0  0
   16.0503  -22.2218  -14.2447 O   0  0  0  0  0  0  0  0  0  0  0  0
   17.7479  -20.8110  -14.7330 O   0  0  0  0  0  0  0  0  0  0  0  0
  2  3  2  0
  2  1  1  0
  4  3  1  0
  5  4  2  0
  6  5  1  0
  7  9  1  0
  7  6  1  0
  7  8  1  6
  9 18  1  0
 10  9  2  0
 11  5  1  0
 11 12  2  0
 12  2  1  0
 13 14  1  0
 15 17  1  0
 15 14  1  0
 15 16  1  1
 17 18  1  6
 19 20  2  0
 19 17  1  0
 22 21  1  0
 23 24  1  0
 23 22  1  1
 24 19  1  0
 25 23  1  0
 26 25  2  0
 27 25  1  0
M  END
$$$$
