YIS.pdb
     RDKit          3D

 27 27  0  0  1  0  0  0  0  0999 V2000
   20.8941  -15.5999  -17.7666 O   0  0  0  0  0  0  0  0  0  0  0  0
   20.7800  -16.6261  -16.8293 C   0  0  0  0  0  0  0  0  0  0  0  0
   20.2904  -16.3981  -15.5615 C   0  0  0  0  0  0  0  0  0  0  0  0
   20.1761  -17.4040  -14.6354 C   0  0  0  0  0  0  0  0  0  0  0  0
   20.5471  -18.6982  -14.9290 C   0  0  0  0  0  0  0  0  0  0  0  0
   20.4381  -19.8037  -13.9590 C   0  0  0  0  0  0  0  0  0  0  0  0
   21.7803  -20.0489  -13.2554 C   0  0  2  0  0  0  0  0  0  0  0  0
   22.7067  -20.4946  -14.2457 N   0  0  0  0  0  0  0  0  0  0  0  0
   21.5971  -21.0183  -12.1406 C   0  0  0  0  0  0  0  0  0  0  0  0
   21.5007  -22.2297  -12.4488 O   0  0  0  0  0  0  0  0  0  0  0  0
   21.0417  -18.9409  -16.2023 C   0  0  0  0  0  0  0  0  0  0  0  0
   21.1523  -17.9224  -17.1253 C   0  0  0  0  0  0  0  0  0  0  0  0
   24.5526  -20.6247   -7.6217 C   0  0  0  0  0  0  0  0  0  0  0  0
   23.7619  -21.1025   -8.8080 C   0  0  0  0  0  0  0  0  0  0  0  0
   22.3053  -21.2367   -8.5618 C   0  0  2  0  0  0  0  0  0  0  0  0
   22.1474  -22.0875   -7.3103 C   0  0  0  0  0  0  0  0  0  0  0  0
   21.4320  -21.5804   -9.6881 C   0  0  2  0  0  0  0  0  0  0  0  0
   21.5301  -20.6340  -10.7869 N   0  0  0  0  0  0  0  0  0  0  0  0
   20.0521  -22.0129   -9.3973 C   0  0  0  0  0  0  0  0  0  0  0  0
   19.1615  -21.1524   -9.2754 O   0  0  0  0  0  0  0  0  0  0  0  0
   16.7087  -25.5521   -9.1335 O   0  0  0  0  0  0  0  0  0  0  0  0
   17.9958  -25.1323   -9.4481 C   0  0  0  0  0  0  0  0  0  0  0  0
   18.2934  -23.7513   -8.9502 C   0  0  2  0  0  0  0  0  0  0  0  0
   19.6844  -23.3688   -9.2437 N   0  0  0  0  0  0  0  0  0  0  0  0
   18.0273  -23.6099   -7.4876 C   0  0  0  0  0  0  0  0  0  0  0  0
   18.9696  -23.7948   -6.6762 O   0  0  0  0  0  0  0  0  0  0  0  0
   16.7890  -23.2841   -6.9841 O   0  0  0  0  0  0  0  0  0  0  0  0
  2  3  2  0
  2  1  1  0
  4  3  1  0
  5  4  2  0
  6  5  1  0
  7  9  1  0
  7  6  1  0
  7  8  1  6
  9 18  1  0
 10  9  2  0
 11  5  1  0
 11 12  2  0
 12  2  1  0
 13 14  1  0
 15 17  1  0
 15 14  1  0
 15 16  1  1
 17 18  1  6
 19 20  2  0
 19 17  1  0
 22 21  1  0
 23 24  1  0
 23 22  1  1
 24 19  1  0
 25 23  1  0
 26 25  2  0
 27 25  1  0
M  END
$$$$
