YIS.pdb
     RDKit          3D

 27 27  0  0  1  0  0  0  0  0999 V2000
   25.4919  -21.0978  -23.9419 O   0  0  0  0  0  0  0  0  0  0  0  0
   25.0183  -21.0222  -22.6324 C   0  0  0  0  0  0  0  0  0  0  0  0
   23.9565  -20.2127  -22.2917 C   0  0  0  0  0  0  0  0  0  0  0  0
   23.4865  -20.1346  -21.0050 C   0  0  0  0  0  0  0  0  0  0  0  0
   24.0561  -20.8654  -19.9851 C   0  0  0  0  0  0  0  0  0  0  0  0
   23.5773  -20.8062  -18.5914 C   0  0  0  0  0  0  0  0  0  0  0  0
   23.8210  -19.4161  -17.9875 C   0  0  2  0  0  0  0  0  0  0  0  0
   25.2335  -19.2282  -17.9038 N   0  0  0  0  0  0  0  0  0  0  0  0
   23.1330  -19.3087  -16.6717 C   0  0  0  0  0  0  0  0  0  0  0  0
   23.7783  -19.6714  -15.6599 O   0  0  0  0  0  0  0  0  0  0  0  0
   25.1261  -21.6844  -20.3151 C   0  0  0  0  0  0  0  0  0  0  0  0
   25.5904  -21.7553  -21.6116 C   0  0  0  0  0  0  0  0  0  0  0  0
   19.9696  -15.3610  -13.5316 C   0  0  0  0  0  0  0  0  0  0  0  0
   20.1852  -16.8367  -13.7229 C   0  0  0  0  0  0  0  0  0  0  0  0
   20.9047  -17.1961  -14.9692 C   0  0  2  0  0  0  0  0  0  0  0  0
   20.2443  -16.4185  -16.0980 C   0  0  0  0  0  0  0  0  0  0  0  0
   21.1800  -18.6109  -15.2375 C   0  0  2  0  0  0  0  0  0  0  0  0
   21.8171  -18.8269  -16.5258 N   0  0  0  0  0  0  0  0  0  0  0  0
   20.1338  -19.6004  -14.9182 C   0  0  0  0  0  0  0  0  0  0  0  0
   19.3169  -19.9228  -15.7998 O   0  0  0  0  0  0  0  0  0  0  0  0
   18.4140  -23.0518  -11.9152 O   0  0  0  0  0  0  0  0  0  0  0  0
   19.3666  -22.0832  -12.2091 C   0  0  0  0  0  0  0  0  0  0  0  0
   19.0018  -21.2539  -13.4019 C   0  0  2  0  0  0  0  0  0  0  0  0
   20.0058  -20.2057  -13.6475 N   0  0  0  0  0  0  0  0  0  0  0  0
   17.6485  -20.6372  -13.2670 C   0  0  0  0  0  0  0  0  0  0  0  0
   17.5406  -19.5249  -12.6912 O   0  0  0  0  0  0  0  0  0  0  0  0
   16.5063  -21.2351  -13.7476 O   0  0  0  0  0  0  0  0  0  0  0  0
  2  3  2  0
  2  1  1  0
  4  3  1  0
  5  4  2  0
  6  5  1  0
  7  9  1  0
  7  6  1  0
  7  8  1  1
  9 18  1  0
 10  9  2  0
 11  5  1  0
 11 12  2  0
 12  2  1  0
 13 14  1  0
 15 17  1  0
 15 14  1  0
 15 16  1  6
 17 18  1  6
 19 20  2  0
 19 17  1  0
 22 21  1  0
 23 24  1  0
 23 22  1  1
 24 19  1  0
 25 23  1  0
 26 25  2  0
 27 25  1  0
M  END
$$$$
