YIS.pdb
     RDKit          3D

 27 27  0  0  1  0  0  0  0  0999 V2000
   20.7988  -22.9250   -6.7866 O   0  0  0  0  0  0  0  0  0  0  0  0
   21.7198  -22.2073   -7.5489 C   0  0  0  0  0  0  0  0  0  0  0  0
   21.5184  -21.9664   -8.8906 C   0  0  0  0  0  0  0  0  0  0  0  0
   22.4213  -21.2608   -9.6454 C   0  0  0  0  0  0  0  0  0  0  0  0
   23.5797  -20.7559   -9.0960 C   0  0  0  0  0  0  0  0  0  0  0  0
   24.5718  -19.9935   -9.8765 C   0  0  0  0  0  0  0  0  0  0  0  0
   25.3227  -20.9105  -10.8521 C   0  0  2  0  0  0  0  0  0  0  0  0
   26.2034  -21.7263  -10.0798 N   0  0  0  0  0  0  0  0  0  0  0  0
   26.0252  -20.0911  -11.8773 C   0  0  0  0  0  0  0  0  0  0  0  0
   27.0660  -19.4937  -11.5143 O   0  0  0  0  0  0  0  0  0  0  0  0
   23.7943  -20.9916   -7.7458 C   0  0  0  0  0  0  0  0  0  0  0  0
   22.8802  -21.7020   -6.9966 C   0  0  0  0  0  0  0  0  0  0  0  0
   26.5395  -20.9682  -17.4085 C   0  0  0  0  0  0  0  0  0  0  0  0
   26.3783  -21.2182  -15.9347 C   0  0  0  0  0  0  0  0  0  0  0  0
   27.1132  -20.2665  -15.0660 C   0  0  2  0  0  0  0  0  0  0  0  0
   28.1699  -21.0730  -14.3257 C   0  0  0  0  0  0  0  0  0  0  0  0
   26.3433  -19.3175  -14.2560 C   0  0  2  0  0  0  0  0  0  0  0  0
   25.5749  -19.9656  -13.2063 N   0  0  0  0  0  0  0  0  0  0  0  0
   25.6131  -18.2385  -14.9475 C   0  0  0  0  0  0  0  0  0  0  0  0
   24.3965  -18.3769  -15.1690 O   0  0  0  0  0  0  0  0  0  0  0  0
   27.5127  -14.7556  -16.2956 O   0  0  0  0  0  0  0  0  0  0  0  0
   26.1447  -14.6904  -16.0587 C   0  0  0  0  0  0  0  0  0  0  0  0
   25.4778  -16.0293  -16.1375 C   0  0  2  0  0  0  0  0  0  0  0  0
   26.2305  -17.0433  -15.3809 N   0  0  0  0  0  0  0  0  0  0  0  0
   25.2921  -16.4843  -17.5477 C   0  0  0  0  0  0  0  0  0  0  0  0
   24.5292  -15.8307  -18.3034 O   0  0  0  0  0  0  0  0  0  0  0  0
   25.9226  -17.5943  -18.0612 O   0  0  0  0  0  0  0  0  0  0  0  0
  2  3  2  0
  2  1  1  0
  4  3  1  0
  5  4  2  0
  6  5  1  0
  7  9  1  0
  7  6  1  0
  7  8  1  1
  9 18  1  0
 10  9  2  0
 11  5  1  0
 11 12  2  0
 12  2  1  0
 13 14  1  0
 15 17  1  0
 15 14  1  0
 15 16  1  1
 17 18  1  6
 19 20  2  0
 19 17  1  0
 22 21  1  0
 23 24  1  0
 23 22  1  6
 24 19  1  0
 25 23  1  0
 26 25  2  0
 27 25  1  0
M  END
$$$$
