YIS.pdb
     RDKit          3D

 27 27  0  0  1  0  0  0  0  0999 V2000
   17.0039  -32.2423   -5.4518 O   0  0  0  0  0  0  0  0  0  0  0  0
   17.1252  -31.1459   -4.5988 C   0  0  0  0  0  0  0  0  0  0  0  0
   18.3559  -30.6462   -4.2318 C   0  0  0  0  0  0  0  0  0  0  0  0
   18.4810  -29.5677   -3.3929 C   0  0  0  0  0  0  0  0  0  0  0  0
   17.3766  -28.9279   -2.8736 C   0  0  0  0  0  0  0  0  0  0  0  0
   17.4734  -27.7667   -1.9696 C   0  0  0  0  0  0  0  0  0  0  0  0
   16.9292  -26.5002   -2.6452 C   0  0  2  0  0  0  0  0  0  0  0  0
   17.7952  -26.1929   -3.7375 N   0  0  0  0  0  0  0  0  0  0  0  0
   16.8250  -25.4000   -1.6479 C   0  0  0  0  0  0  0  0  0  0  0  0
   17.8946  -24.8540   -1.2877 O   0  0  0  0  0  0  0  0  0  0  0  0
   16.1315  -29.4213   -3.2355 C   0  0  0  0  0  0  0  0  0  0  0  0
   16.0173  -30.5059   -4.0793 C   0  0  0  0  0  0  0  0  0  0  0  0
   13.0248  -21.5650   -2.0218 C   0  0  0  0  0  0  0  0  0  0  0  0
   14.2760  -22.3643   -1.7844 C   0  0  0  0  0  0  0  0  0  0  0  0
   14.3687  -22.9745   -0.4356 C   0  0  2  0  0  0  0  0  0  0  0  0
   14.1356  -21.8565    0.5698 C   0  0  0  0  0  0  0  0  0  0  0  0
   15.4892  -23.8752   -0.1483 C   0  0  2  0  0  0  0  0  0  0  0  0
   15.6000  -24.9613   -1.1079 N   0  0  0  0  0  0  0  0  0  0  0  0
   15.7122  -24.2915    1.2490 C   0  0  0  0  0  0  0  0  0  0  0  0
   15.1090  -25.2878    1.6870 O   0  0  0  0  0  0  0  0  0  0  0  0
   18.1975  -23.8479    5.4396 O   0  0  0  0  0  0  0  0  0  0  0  0
   17.9463  -23.3892    4.1518 C   0  0  0  0  0  0  0  0  0  0  0  0
   16.7629  -24.0550    3.5195 C   0  0  2  0  0  0  0  0  0  0  0  0
   16.5817  -23.6077    2.1287 N   0  0  0  0  0  0  0  0  0  0  0  0
   15.5066  -23.8248    4.2932 C   0  0  0  0  0  0  0  0  0  0  0  0
   14.9095  -22.7251    4.1722 O   0  0  0  0  0  0  0  0  0  0  0  0
   14.9690  -24.7681    5.1384 O   0  0  0  0  0  0  0  0  0  0  0  0
  2  3  2  0
  2  1  1  0
  4  3  1  0
  5  4  2  0
  6  5  1  0
  7  9  1  0
  7  6  1  0
  7  8  1  6
  9 18  1  0
 10  9  2  0
 11  5  1  0
 11 12  2  0
 12  2  1  0
 13 14  1  0
 15 17  1  0
 15 14  1  0
 15 16  1  1
 17 18  1  6
 19 20  2  0
 19 17  1  0
 22 21  1  0
 23 24  1  0
 23 22  1  1
 24 19  1  0
 25 23  1  0
 26 25  2  0
 27 25  1  0
M  END
$$$$
