WLE.pdb
     RDKit          3D

 32 33  0  0  1  0  0  0  0  0999 V2000
   25.2952  -21.7486   -9.7547 N   0  0  0  0  0  0  0  0  0  0  0  0
   25.7690  -20.3841   -9.6941 C   0  0  1  0  0  0  0  0  0  0  0  0
   27.0980  -20.2546   -9.0235 C   0  0  0  0  0  0  0  0  0  0  0  0
   26.9142  -20.4201   -7.5507 C   0  0  0  0  0  0  0  0  0  0  0  0
   25.9478  -21.1522   -6.9065 C   0  0  0  0  0  0  0  0  0  0  0  0
   26.1461  -21.0278   -5.5684 N   0  0  0  0  0  0  0  0  0  0  0  0
   27.1982  -20.2486   -5.3043 C   0  0  0  0  0  0  0  0  0  0  0  0
   27.8049  -19.8133   -4.1314 C   0  0  0  0  0  0  0  0  0  0  0  0
   28.8986  -18.9941   -4.1584 C   0  0  0  0  0  0  0  0  0  0  0  0
   29.3561  -18.6312   -5.4124 C   0  0  0  0  0  0  0  0  0  0  0  0
   28.7997  -19.0286   -6.5924 C   0  0  0  0  0  0  0  0  0  0  0  0
   27.6930  -19.8576   -6.5564 C   0  0  0  0  0  0  0  0  0  0  0  0
   25.8076  -19.7133  -11.0116 C   0  0  0  0  0  0  0  0  0  0  0  0
   25.8409  -18.4594  -11.0254 O   0  0  0  0  0  0  0  0  0  0  0  0
   28.9976  -21.2821  -14.1741 C   0  0  0  0  0  0  0  0  0  0  0  0
   28.2353  -19.9203  -14.1254 C   0  0  1  0  0  0  0  0  0  0  0  0
   28.9354  -19.0756  -15.1413 C   0  0  0  0  0  0  0  0  0  0  0  0
   26.8192  -20.2674  -14.4140 C   0  0  0  0  0  0  0  0  0  0  0  0
   25.7714  -19.8014  -13.4789 C   0  0  2  0  0  0  0  0  0  0  0  0
   25.8076  -20.4438  -12.2033 N   0  0  0  0  0  0  0  0  0  0  0  0
   24.4160  -19.9400  -14.1205 C   0  0  0  0  0  0  0  0  0  0  0  0
   24.2219  -19.4588  -15.2698 O   0  0  0  0  0  0  0  0  0  0  0  0
   23.3399  -20.5923  -13.4861 N   0  0  0  0  0  0  0  0  0  0  0  0
   22.0447  -20.7210  -14.1184 C   0  0  1  0  0  0  0  0  0  0  0  0
   21.6604  -22.1268  -14.4454 C   0  0  0  0  0  0  0  0  0  0  0  0
   22.7713  -23.1090  -14.1675 C   0  0  0  0  0  0  0  0  0  0  0  0
   22.3251  -24.4610  -14.5684 C   0  0  0  0  0  0  0  0  0  0  0  0
   21.1681  -24.6233  -15.0917 O   0  0  0  0  0  0  0  0  0  0  0  0
   20.9940  -20.0354  -13.2966 C   0  0  0  0  0  0  0  0  0  0  0  0
   19.6838  -19.8643  -13.6941 O   0  0  0  0  0  0  0  0  0  0  0  0
   23.0820  -25.6186  -14.4233 O   0  0  0  0  0  0  0  0  0  0  0  0
   21.3143  -19.5821  -12.1666 O   0  0  0  0  0  0  0  0  0  0  0  0
  2  1  1  6
  3  4  1  0
  3  2  1  0
  4  5  2  0
  6  5  1  0
  7  6  1  0
  8  7  2  0
  9  8  1  0
 10  9  2  0
 10 11  1  0
 11 12  2  0
 12  7  1  0
 12  4  1  0
 13  2  1  0
 13 14  2  0
 16 15  1  6
 16 18  1  0
 17 16  1  0
 19 18  1  6
 19 20  1  0
 19 21  1  0
 20 13  1  0
 21 23  1  0
 21 22  2  0
 23 24  1  0
 24 25  1  1
 24 29  1  0
 26 25  1  0
 27 26  1  0
 28 27  2  0
 29 32  2  0
 29 30  1  0
 31 27  1  0
M  END
$$$$
