WLE.pdb
     RDKit          3D

 32 33  0  0  1  0  0  0  0  0999 V2000
   25.6319  -19.7636  -12.6505 N   0  0  0  0  0  0  0  0  0  0  0  0
   24.9766  -20.0997  -11.4064 C   0  0  1  0  0  0  0  0  0  0  0  0
   23.8626  -21.0808  -11.5772 C   0  0  0  0  0  0  0  0  0  0  0  0
   22.8417  -20.4970  -12.4978 C   0  0  0  0  0  0  0  0  0  0  0  0
   22.6981  -20.7320  -13.8429 C   0  0  0  0  0  0  0  0  0  0  0  0
   21.6466  -19.9972  -14.2896 N   0  0  0  0  0  0  0  0  0  0  0  0
   21.0928  -19.2912  -13.3003 C   0  0  0  0  0  0  0  0  0  0  0  0
   20.0244  -18.4042  -13.2301 C   0  0  0  0  0  0  0  0  0  0  0  0
   19.6718  -17.8078  -12.0520 C   0  0  0  0  0  0  0  0  0  0  0  0
   20.4374  -18.1401  -10.9488 C   0  0  0  0  0  0  0  0  0  0  0  0
   21.4939  -19.0024  -10.9619 C   0  0  0  0  0  0  0  0  0  0  0  0
   21.8444  -19.6017  -12.1582 C   0  0  0  0  0  0  0  0  0  0  0  0
   25.9059  -20.5775  -10.3598 C   0  0  0  0  0  0  0  0  0  0  0  0
   26.1539  -21.8065  -10.3188 O   0  0  0  0  0  0  0  0  0  0  0  0
   29.5965  -20.3208   -6.4671 C   0  0  0  0  0  0  0  0  0  0  0  0
   28.3467  -19.4466   -6.1327 C   0  0  1  0  0  0  0  0  0  0  0  0
   28.9003  -18.3144   -5.3280 C   0  0  0  0  0  0  0  0  0  0  0  0
   27.7628  -19.0977   -7.4542 C   0  0  0  0  0  0  0  0  0  0  0  0
   27.0861  -20.1593   -8.2317 C   0  0  2  0  0  0  0  0  0  0  0  0
   26.4912  -19.6970   -9.4456 N   0  0  0  0  0  0  0  0  0  0  0  0
   26.0767  -20.8632   -7.3637 C   0  0  0  0  0  0  0  0  0  0  0  0
   24.9684  -20.3099   -7.1279 O   0  0  0  0  0  0  0  0  0  0  0  0
   26.3176  -22.1302   -6.7955 N   0  0  0  0  0  0  0  0  0  0  0  0
   25.3238  -22.8083   -5.9915 C   0  0  1  0  0  0  0  0  0  0  0  0
   25.5964  -24.2614   -5.7790 C   0  0  0  0  0  0  0  0  0  0  0  0
   24.5418  -24.9291   -4.9316 C   0  0  0  0  0  0  0  0  0  0  0  0
   24.9415  -26.3325   -4.6895 C   0  0  0  0  0  0  0  0  0  0  0  0
   26.0502  -26.7709   -5.1555 O   0  0  0  0  0  0  0  0  0  0  0  0
   25.1236  -22.0856   -4.6927 C   0  0  0  0  0  0  0  0  0  0  0  0
   23.9215  -22.0142   -4.0190 O   0  0  0  0  0  0  0  0  0  0  0  0
   24.1902  -27.2553   -3.9697 O   0  0  0  0  0  0  0  0  0  0  0  0
   26.1092  -21.5020   -4.1703 O   0  0  0  0  0  0  0  0  0  0  0  0
  2  1  1  6
  3  4  1  0
  3  2  1  0
  4  5  2  0
  6  5  1  0
  7  6  1  0
  8  7  2  0
  9  8  1  0
 10  9  2  0
 10 11  1  0
 11 12  2  0
 12  7  1  0
 12  4  1  0
 13  2  1  0
 13 14  2  0
 16 15  1  6
 16 18  1  0
 17 16  1  0
 19 18  1  1
 19 20  1  0
 19 21  1  0
 20 13  1  0
 21 23  1  0
 21 22  2  0
 23 24  1  0
 24 25  1  1
 24 29  1  0
 26 25  1  0
 27 26  1  0
 28 27  2  0
 29 32  2  0
 29 30  1  0
 31 27  1  0
M  END
$$$$
