WLE.pdb
     RDKit          3D

 32 33  0  0  1  0  0  0  0  0999 V2000
   28.0323  -22.0365  -13.5903 N   0  0  0  0  0  0  0  0  0  0  0  0
   26.8348  -21.7982  -12.8162 C   0  0  1  0  0  0  0  0  0  0  0  0
   26.8401  -20.4757  -12.1206 C   0  0  0  0  0  0  0  0  0  0  0  0
   27.8823  -20.4967  -11.0510 C   0  0  0  0  0  0  0  0  0  0  0  0
   29.2367  -20.6575  -11.2074 C   0  0  0  0  0  0  0  0  0  0  0  0
   29.8114  -20.6159   -9.9772 N   0  0  0  0  0  0  0  0  0  0  0  0
   28.8971  -20.4347   -9.0206 C   0  0  0  0  0  0  0  0  0  0  0  0
   28.9594  -20.3269   -7.6358 C   0  0  0  0  0  0  0  0  0  0  0  0
   27.8320  -20.1431   -6.8855 C   0  0  0  0  0  0  0  0  0  0  0  0
   26.6406  -20.0722   -7.5850 C   0  0  0  0  0  0  0  0  0  0  0  0
   26.5230  -20.1716   -8.9400 C   0  0  0  0  0  0  0  0  0  0  0  0
   27.6688  -20.3577   -9.6922 C   0  0  0  0  0  0  0  0  0  0  0  0
   25.5876  -21.9459  -13.5973 C   0  0  0  0  0  0  0  0  0  0  0  0
   25.3849  -21.1313  -14.5295 O   0  0  0  0  0  0  0  0  0  0  0  0
   25.2948  -24.6741  -16.1540 C   0  0  0  0  0  0  0  0  0  0  0  0
   23.7927  -25.0580  -15.9684 C   0  0  1  0  0  0  0  0  0  0  0  0
   23.7498  -26.5192  -16.2825 C   0  0  0  0  0  0  0  0  0  0  0  0
   23.4720  -24.6706  -14.5698 C   0  0  0  0  0  0  0  0  0  0  0  0
   23.5725  -23.2442  -14.1895 C   0  0  2  0  0  0  0  0  0  0  0  0
   24.6631  -22.9549  -13.3130 N   0  0  0  0  0  0  0  0  0  0  0  0
   22.2653  -22.7781  -13.6050 C   0  0  0  0  0  0  0  0  0  0  0  0
   22.0397  -22.9482  -12.3761 O   0  0  0  0  0  0  0  0  0  0  0  0
   21.2688  -22.1514  -14.3799 N   0  0  0  0  0  0  0  0  0  0  0  0
   20.0319  -21.6789  -13.7964 C   0  0  1  0  0  0  0  0  0  0  0  0
   19.4355  -20.5019  -14.4964 C   0  0  0  0  0  0  0  0  0  0  0  0
   18.1284  -20.0657  -13.8820 C   0  0  0  0  0  0  0  0  0  0  0  0
   17.5944  -18.9238  -14.6558 C   0  0  0  0  0  0  0  0  0  0  0  0
   18.1362  -18.5963  -15.7683 O   0  0  0  0  0  0  0  0  0  0  0  0
   19.0507  -22.8065  -13.6726 C   0  0  0  0  0  0  0  0  0  0  0  0
   18.1303  -22.9287  -12.6519 O   0  0  0  0  0  0  0  0  0  0  0  0
   16.5107  -18.1435  -14.2672 O   0  0  0  0  0  0  0  0  0  0  0  0
   19.0552  -23.7076  -14.5517 O   0  0  0  0  0  0  0  0  0  0  0  0
  2  1  1  6
  3  4  1  0
  3  2  1  0
  4  5  2  0
  6  5  1  0
  7  6  1  0
  8  7  2  0
  9  8  1  0
 10  9  2  0
 10 11  1  0
 11 12  2  0
 12  7  1  0
 12  4  1  0
 13  2  1  0
 13 14  2  0
 16 15  1  1
 16 18  1  0
 17 16  1  0
 19 18  1  1
 19 20  1  0
 19 21  1  0
 20 13  1  0
 21 23  1  0
 21 22  2  0
 23 24  1  0
 24 25  1  6
 24 29  1  0
 26 25  1  0
 27 26  1  0
 28 27  2  0
 29 32  2  0
 29 30  1  0
 31 27  1  0
M  END
$$$$
