WLE.pdb
     RDKit          3D

 32 33  0  0  1  0  0  0  0  0999 V2000
   25.5738  -22.1590  -19.1884 N   0  0  0  0  0  0  0  0  0  0  0  0
   24.5608  -21.1292  -19.2461 C   0  0  1  0  0  0  0  0  0  0  0  0
   23.3388  -21.5506  -19.9956 C   0  0  0  0  0  0  0  0  0  0  0  0
   23.6863  -21.7022  -21.4402 C   0  0  0  0  0  0  0  0  0  0  0  0
   23.8846  -22.8704  -22.1336 C   0  0  0  0  0  0  0  0  0  0  0  0
   24.1832  -22.5520  -23.4199 N   0  0  0  0  0  0  0  0  0  0  0  0
   24.1896  -21.2291  -23.6033 C   0  0  0  0  0  0  0  0  0  0  0  0
   24.4317  -20.4092  -24.6998 C   0  0  0  0  0  0  0  0  0  0  0  0
   24.3718  -19.0477  -24.5966 C   0  0  0  0  0  0  0  0  0  0  0  0
   24.0586  -18.5457  -23.3462 C   0  0  0  0  0  0  0  0  0  0  0  0
   23.8124  -19.3032  -22.2392 C   0  0  0  0  0  0  0  0  0  0  0  0
   23.8752  -20.6803  -22.3521 C   0  0  0  0  0  0  0  0  0  0  0  0
   24.1753  -20.6049  -17.9180 C   0  0  0  0  0  0  0  0  0  0  0  0
   23.9080  -21.4379  -17.0189 O   0  0  0  0  0  0  0  0  0  0  0  0
   25.8823  -15.6213  -15.8398 C   0  0  0  0  0  0  0  0  0  0  0  0
   25.7016  -17.1489  -16.1081 C   0  0  1  0  0  0  0  0  0  0  0  0
   26.4737  -17.8045  -15.0082 C   0  0  0  0  0  0  0  0  0  0  0  0
   24.2309  -17.3634  -16.1051 C   0  0  0  0  0  0  0  0  0  0  0  0
   23.7127  -18.7192  -16.3927 C   0  0  2  0  0  0  0  0  0  0  0  0
   24.1094  -19.2318  -17.6659 N   0  0  0  0  0  0  0  0  0  0  0  0
   22.2145  -18.7360  -16.2413 C   0  0  0  0  0  0  0  0  0  0  0  0
   21.4901  -18.3482  -17.1978 O   0  0  0  0  0  0  0  0  0  0  0  0
   21.5764  -19.1719  -15.0628 N   0  0  0  0  0  0  0  0  0  0  0  0
   20.1417  -19.3455  -14.9903 C   0  0  1  0  0  0  0  0  0  0  0  0
   19.7117  -20.6987  -14.5269 C   0  0  0  0  0  0  0  0  0  0  0  0
   18.2145  -20.8781  -14.5779 C   0  0  0  0  0  0  0  0  0  0  0  0
   17.8908  -22.2852  -14.2569 C   0  0  0  0  0  0  0  0  0  0  0  0
   18.8216  -23.0918  -13.9083 O   0  0  0  0  0  0  0  0  0  0  0  0
   19.5265  -18.2549  -14.1647 C   0  0  0  0  0  0  0  0  0  0  0  0
   18.2238  -17.8195  -14.2966 O   0  0  0  0  0  0  0  0  0  0  0  0
   16.6127  -22.8319  -14.3003 O   0  0  0  0  0  0  0  0  0  0  0  0
   20.2336  -17.6913  -13.2888 O   0  0  0  0  0  0  0  0  0  0  0  0
  2  1  1  1
  3  4  1  0
  3  2  1  0
  4  5  2  0
  6  5  1  0
  7  6  1  0
  8  7  2  0
  9  8  1  0
 10  9  2  0
 10 11  1  0
 11 12  2  0
 12  7  1  0
 12  4  1  0
 13  2  1  0
 13 14  2  0
 16 15  1  1
 16 18  1  0
 17 16  1  0
 19 18  1  6
 19 20  1  0
 19 21  1  0
 20 13  1  0
 21 23  1  0
 21 22  2  0
 23 24  1  0
 24 25  1  1
 24 29  1  0
 26 25  1  0
 27 26  1  0
 28 27  2  0
 29 32  2  0
 29 30  1  0
 31 27  1  0
M  END
$$$$
