WLE.pdb
     RDKit          3D

 32 33  0  0  1  0  0  0  0  0999 V2000
   24.9487  -19.4219   -9.4693 N   0  0  0  0  0  0  0  0  0  0  0  0
   26.1331  -20.1418   -9.8801 C   0  0  1  0  0  0  0  0  0  0  0  0
   26.5123  -21.2346   -8.9340 C   0  0  0  0  0  0  0  0  0  0  0  0
   26.6442  -20.6610   -7.5614 C   0  0  0  0  0  0  0  0  0  0  0  0
   25.6347  -20.2432   -6.7300 C   0  0  0  0  0  0  0  0  0  0  0  0
   26.1964  -19.7893   -5.5794 N   0  0  0  0  0  0  0  0  0  0  0  0
   27.5277  -19.8901   -5.6167 C   0  0  0  0  0  0  0  0  0  0  0  0
   28.5438  -19.5713   -4.7229 C   0  0  0  0  0  0  0  0  0  0  0  0
   29.8574  -19.7844   -5.0343 C   0  0  0  0  0  0  0  0  0  0  0  0
   30.1062  -20.3308   -6.2805 C   0  0  0  0  0  0  0  0  0  0  0  0
   29.1492  -20.6616   -7.1940 C   0  0  0  0  0  0  0  0  0  0  0  0
   27.8221  -20.4427   -6.8712 C   0  0  0  0  0  0  0  0  0  0  0  0
   26.0502  -20.6793  -11.2554 C   0  0  0  0  0  0  0  0  0  0  0  0
   24.9542  -21.1650  -11.6252 O   0  0  0  0  0  0  0  0  0  0  0  0
   27.0305  -17.7998  -15.5073 C   0  0  0  0  0  0  0  0  0  0  0  0
   28.0809  -18.9494  -15.3922 C   0  0  1  0  0  0  0  0  0  0  0  0
   29.3462  -18.3376  -15.9023 C   0  0  0  0  0  0  0  0  0  0  0  0
   28.0632  -19.3375  -13.9575 C   0  0  0  0  0  0  0  0  0  0  0  0
   27.0182  -20.2753  -13.4906 C   0  0  2  0  0  0  0  0  0  0  0  0
   27.1493  -20.6504  -12.1183 N   0  0  0  0  0  0  0  0  0  0  0  0
   26.9818  -21.4859  -14.3855 C   0  0  0  0  0  0  0  0  0  0  0  0
   27.5302  -21.4353  -15.5199 O   0  0  0  0  0  0  0  0  0  0  0  0
   26.3542  -22.6897  -14.0073 N   0  0  0  0  0  0  0  0  0  0  0  0
   25.2500  -23.2448  -14.7599 C   0  0  1  0  0  0  0  0  0  0  0  0
   23.9454  -23.2310  -14.0325 C   0  0  0  0  0  0  0  0  0  0  0  0
   22.8434  -23.9073  -14.8100 C   0  0  0  0  0  0  0  0  0  0  0  0
   21.5834  -23.8021  -14.0424 C   0  0  0  0  0  0  0  0  0  0  0  0
   21.0798  -22.6516  -13.7948 O   0  0  0  0  0  0  0  0  0  0  0  0
   25.1455  -22.5778  -16.0992 C   0  0  0  0  0  0  0  0  0  0  0  0
   25.1901  -23.2447  -17.3064 O   0  0  0  0  0  0  0  0  0  0  0  0
   20.8670  -24.8863  -13.5469 O   0  0  0  0  0  0  0  0  0  0  0  0
   25.0065  -21.3273  -16.1397 O   0  0  0  0  0  0  0  0  0  0  0  0
  2  1  1  1
  3  4  1  0
  3  2  1  0
  4  5  2  0
  6  5  1  0
  7  6  1  0
  8  7  2  0
  9  8  1  0
 10  9  2  0
 10 11  1  0
 11 12  2  0
 12  7  1  0
 12  4  1  0
 13  2  1  0
 13 14  2  0
 16 15  1  1
 16 18  1  0
 17 16  1  0
 19 18  1  6
 19 20  1  0
 19 21  1  0
 20 13  1  0
 21 23  1  0
 21 22  2  0
 23 24  1  0
 24 25  1  1
 24 29  1  0
 26 25  1  0
 27 26  1  0
 28 27  2  0
 29 32  2  0
 29 30  1  0
 31 27  1  0
M  END
$$$$
