WLE.pdb
     RDKit          3D

 32 33  0  0  1  0  0  0  0  0999 V2000
   21.9658  -14.1414  -17.1468 N   0  0  0  0  0  0  0  0  0  0  0  0
   22.0791  -12.7930  -17.6559 C   0  0  1  0  0  0  0  0  0  0  0  0
   20.7910  -12.2595  -18.1935 C   0  0  0  0  0  0  0  0  0  0  0  0
   20.3587  -13.1089  -19.3433 C   0  0  0  0  0  0  0  0  0  0  0  0
   19.3464  -14.0363  -19.3626 C   0  0  0  0  0  0  0  0  0  0  0  0
   19.2956  -14.5794  -20.6067 N   0  0  0  0  0  0  0  0  0  0  0  0
   20.2271  -14.0514  -21.4050 C   0  0  0  0  0  0  0  0  0  0  0  0
   20.5884  -14.2569  -22.7318 C   0  0  0  0  0  0  0  0  0  0  0  0
   21.6134  -13.5586  -23.3059 C   0  0  0  0  0  0  0  0  0  0  0  0
   22.2591  -12.6460  -22.4911 C   0  0  0  0  0  0  0  0  0  0  0  0
   21.9460  -12.4053  -21.1858 C   0  0  0  0  0  0  0  0  0  0  0  0
   20.9074  -13.1164  -20.6122 C   0  0  0  0  0  0  0  0  0  0  0  0
   22.6452  -11.8383  -16.6784 C   0  0  0  0  0  0  0  0  0  0  0  0
   22.1951  -11.8685  -15.5079 O   0  0  0  0  0  0  0  0  0  0  0  0
   27.8698  -10.1659  -16.2306 C   0  0  0  0  0  0  0  0  0  0  0  0
   26.4491  -10.7561  -15.9632 C   0  0  1  0  0  0  0  0  0  0  0  0
   26.5318  -11.2828  -14.5662 C   0  0  0  0  0  0  0  0  0  0  0  0
   25.5175   -9.6204  -16.1896 C   0  0  0  0  0  0  0  0  0  0  0  0
   24.0615   -9.8828  -16.1622 C   0  0  2  0  0  0  0  0  0  0  0  0
   23.6465  -10.9320  -17.0385 N   0  0  0  0  0  0  0  0  0  0  0  0
   23.3078   -8.6093  -16.4415 C   0  0  0  0  0  0  0  0  0  0  0  0
   22.9673   -8.3370  -17.6247 O   0  0  0  0  0  0  0  0  0  0  0  0
   22.9604   -7.6956  -15.4263 N   0  0  0  0  0  0  0  0  0  0  0  0
   21.9036   -6.7231  -15.6027 C   0  0  1  0  0  0  0  0  0  0  0  0
   20.6005   -7.3081  -16.0395 C   0  0  0  0  0  0  0  0  0  0  0  0
   19.5045   -6.2751  -16.1286 C   0  0  0  0  0  0  0  0  0  0  0  0
   18.2845   -6.9180  -16.6635 C   0  0  0  0  0  0  0  0  0  0  0  0
   17.1746   -6.2803  -16.6659 O   0  0  0  0  0  0  0  0  0  0  0  0
   21.7507   -5.8903  -14.3648 C   0  0  0  0  0  0  0  0  0  0  0  0
   21.3799   -4.5612  -14.3618 O   0  0  0  0  0  0  0  0  0  0  0  0
   18.2342   -8.2055  -17.1870 O   0  0  0  0  0  0  0  0  0  0  0  0
   21.9710   -6.4267  -13.2474 O   0  0  0  0  0  0  0  0  0  0  0  0
  2  1  1  1
  3  4  1  0
  3  2  1  0
  4  5  2  0
  6  5  1  0
  7  6  1  0
  8  7  2  0
  9  8  1  0
 10  9  2  0
 10 11  1  0
 11 12  2  0
 12  7  1  0
 12  4  1  0
 13  2  1  0
 13 14  2  0
 16 15  1  1
 16 18  1  0
 17 16  1  0
 19 18  1  6
 19 20  1  0
 19 21  1  0
 20 13  1  0
 21 23  1  0
 21 22  2  0
 23 24  1  0
 24 25  1  1
 24 29  1  0
 26 25  1  0
 27 26  1  0
 28 27  2  0
 29 32  2  0
 29 30  1  0
 31 27  1  0
M  END
$$$$
