WLE.pdb
     RDKit          3D

 32 33  0  0  1  0  0  0  0  0999 V2000
   23.3031  -19.7332  -11.0054 N   0  0  0  0  0  0  0  0  0  0  0  0
   24.6674  -20.0729  -11.3420 C   0  0  1  0  0  0  0  0  0  0  0  0
   25.1360  -21.3323  -10.6884 C   0  0  0  0  0  0  0  0  0  0  0  0
   25.1456  -21.1338   -9.2082 C   0  0  0  0  0  0  0  0  0  0  0  0
   24.1311  -21.4016   -8.3228 C   0  0  0  0  0  0  0  0  0  0  0  0
   24.5607  -21.0725   -7.0769 N   0  0  0  0  0  0  0  0  0  0  0  0
   25.8103  -20.6015   -7.1031 C   0  0  0  0  0  0  0  0  0  0  0  0
   26.6856  -20.1361   -6.1282 C   0  0  0  0  0  0  0  0  0  0  0  0
   27.9401  -19.6991   -6.4493 C   0  0  0  0  0  0  0  0  0  0  0  0
   28.2774  -19.7496   -7.7899 C   0  0  0  0  0  0  0  0  0  0  0  0
   27.4590  -20.1960   -8.7853 C   0  0  0  0  0  0  0  0  0  0  0  0
   26.1908  -20.6365   -8.4521 C   0  0  0  0  0  0  0  0  0  0  0  0
   24.9161  -20.1443  -12.7982 C   0  0  0  0  0  0  0  0  0  0  0  0
   23.9322  -20.0056  -13.5640 O   0  0  0  0  0  0  0  0  0  0  0  0
   29.1711  -21.3200  -13.8777 C   0  0  0  0  0  0  0  0  0  0  0  0
   28.9684  -19.9401  -13.1756 C   0  0  1  0  0  0  0  0  0  0  0  0
   30.3594  -19.4526  -12.9246 C   0  0  0  0  0  0  0  0  0  0  0  0
   28.1492  -19.1462  -14.1284 C   0  0  0  0  0  0  0  0  0  0  0  0
   26.7399  -19.5395  -14.3488 C   0  0  2  0  0  0  0  0  0  0  0  0
   26.1989  -20.3581  -13.3103 N   0  0  0  0  0  0  0  0  0  0  0  0
   26.5989  -20.2018  -15.6939 C   0  0  0  0  0  0  0  0  0  0  0  0
   26.9917  -19.5958  -16.7277 O   0  0  0  0  0  0  0  0  0  0  0  0
   26.0406  -21.4861  -15.8520 N   0  0  0  0  0  0  0  0  0  0  0  0
   24.9064  -21.7246  -16.7183 C   0  0  1  0  0  0  0  0  0  0  0  0
   23.6033  -21.2480  -16.1654 C   0  0  0  0  0  0  0  0  0  0  0  0
   22.4444  -21.5369  -17.0871 C   0  0  0  0  0  0  0  0  0  0  0  0
   21.8876  -22.8658  -16.7524 C   0  0  0  0  0  0  0  0  0  0  0  0
   21.5512  -23.1326  -15.5465 O   0  0  0  0  0  0  0  0  0  0  0  0
   25.1679  -21.1636  -18.0844 C   0  0  0  0  0  0  0  0  0  0  0  0
   25.4861  -21.9248  -19.1905 O   0  0  0  0  0  0  0  0  0  0  0  0
   21.6871  -23.8924  -17.6689 O   0  0  0  0  0  0  0  0  0  0  0  0
   25.0944  -19.9175  -18.2477 O   0  0  0  0  0  0  0  0  0  0  0  0
  2  1  1  6
  3  4  1  0
  3  2  1  0
  4  5  2  0
  6  5  1  0
  7  6  1  0
  8  7  2  0
  9  8  1  0
 10  9  2  0
 10 11  1  0
 11 12  2  0
 12  7  1  0
 12  4  1  0
 13  2  1  0
 13 14  2  0
 16 15  1  6
 16 18  1  0
 17 16  1  0
 19 18  1  1
 19 20  1  0
 19 21  1  0
 20 13  1  0
 21 23  1  0
 21 22  2  0
 23 24  1  0
 24 25  1  1
 24 29  1  0
 26 25  1  0
 27 26  1  0
 28 27  2  0
 29 32  2  0
 29 30  1  0
 31 27  1  0
M  END
$$$$
