WLE.pdb
     RDKit          3D

 32 33  0  0  1  0  0  0  0  0999 V2000
   28.1830  -19.4457   -9.3008 N   0  0  0  0  0  0  0  0  0  0  0  0
   27.0982  -20.4011   -9.2797 C   0  0  1  0  0  0  0  0  0  0  0  0
   26.2477  -20.2951   -8.0557 C   0  0  0  0  0  0  0  0  0  0  0  0
   27.0416  -19.6447   -6.9707 C   0  0  0  0  0  0  0  0  0  0  0  0
   27.3129  -18.3072   -6.8211 C   0  0  0  0  0  0  0  0  0  0  0  0
   28.0673  -18.1523   -5.7021 N   0  0  0  0  0  0  0  0  0  0  0  0
   28.3033  -19.3259   -5.1098 C   0  0  0  0  0  0  0  0  0  0  0  0
   29.0043  -19.7072   -3.9712 C   0  0  0  0  0  0  0  0  0  0  0  0
   29.0862  -21.0178   -3.5923 C   0  0  0  0  0  0  0  0  0  0  0  0
   28.4346  -21.9279   -4.4052 C   0  0  0  0  0  0  0  0  0  0  0  0
   27.7341  -21.6087   -5.5309 C   0  0  0  0  0  0  0  0  0  0  0  0
   27.6561  -20.2800   -5.9076 C   0  0  0  0  0  0  0  0  0  0  0  0
   26.2443  -20.3518  -10.4862 C   0  0  0  0  0  0  0  0  0  0  0  0
   25.4120  -19.4171  -10.5722 O   0  0  0  0  0  0  0  0  0  0  0  0
   28.3839  -21.9737  -15.4538 C   0  0  0  0  0  0  0  0  0  0  0  0
   27.8524  -21.0925  -14.2795 C   0  0  1  0  0  0  0  0  0  0  0  0
   27.7847  -19.7162  -14.8601 C   0  0  0  0  0  0  0  0  0  0  0  0
   26.5585  -21.7140  -13.8940 C   0  0  0  0  0  0  0  0  0  0  0  0
   25.7815  -21.1054  -12.7915 C   0  0  2  0  0  0  0  0  0  0  0  0
   26.3551  -21.3087  -11.4989 N   0  0  0  0  0  0  0  0  0  0  0  0
   24.3581  -21.5948  -12.8392 C   0  0  0  0  0  0  0  0  0  0  0  0
   24.0979  -22.7798  -12.4952 O   0  0  0  0  0  0  0  0  0  0  0  0
   23.2887  -20.7772  -13.2563 N   0  0  0  0  0  0  0  0  0  0  0  0
   21.9176  -21.2385  -13.2262 C   0  0  1  0  0  0  0  0  0  0  0  0
   20.9042  -20.1423  -13.1762 C   0  0  0  0  0  0  0  0  0  0  0  0
   19.4890  -20.6604  -13.2464 C   0  0  0  0  0  0  0  0  0  0  0  0
   18.5589  -19.5102  -13.2509 C   0  0  0  0  0  0  0  0  0  0  0  0
   18.9429  -18.3759  -12.7988 O   0  0  0  0  0  0  0  0  0  0  0  0
   21.6603  -22.1805  -14.3645 C   0  0  0  0  0  0  0  0  0  0  0  0
   20.8205  -23.2733  -14.2958 O   0  0  0  0  0  0  0  0  0  0  0  0
   17.2516  -19.5527  -13.7234 O   0  0  0  0  0  0  0  0  0  0  0  0
   22.2414  -21.9719  -15.4616 O   0  0  0  0  0  0  0  0  0  0  0  0
  2  1  1  6
  3  4  1  0
  3  2  1  0
  4  5  2  0
  6  5  1  0
  7  6  1  0
  8  7  2  0
  9  8  1  0
 10  9  2  0
 10 11  1  0
 11 12  2  0
 12  7  1  0
 12  4  1  0
 13  2  1  0
 13 14  2  0
 16 15  1  6
 16 18  1  0
 17 16  1  0
 19 18  1  6
 19 20  1  0
 19 21  1  0
 20 13  1  0
 21 23  1  0
 21 22  2  0
 23 24  1  0
 24 25  1  6
 24 29  1  0
 26 25  1  0
 27 26  1  0
 28 27  2  0
 29 32  2  0
 29 30  1  0
 31 27  1  0
M  END
$$$$
