WLE.pdb
     RDKit          3D

 32 33  0  0  1  0  0  0  0  0999 V2000
   23.8893  -19.9480  -10.0708 N   0  0  0  0  0  0  0  0  0  0  0  0
   25.1827  -20.2053  -10.6634 C   0  0  1  0  0  0  0  0  0  0  0  0
   25.9653  -21.2475   -9.9325 C   0  0  0  0  0  0  0  0  0  0  0  0
   26.4324  -20.6783   -8.6332 C   0  0  0  0  0  0  0  0  0  0  0  0
   25.6720  -20.0659   -7.6679 C   0  0  0  0  0  0  0  0  0  0  0  0
   26.4959  -19.6973   -6.6527 N   0  0  0  0  0  0  0  0  0  0  0  0
   27.7617  -20.0397   -6.9065 C   0  0  0  0  0  0  0  0  0  0  0  0
   28.9577  -19.8921   -6.2129 C   0  0  0  0  0  0  0  0  0  0  0  0
   30.1390  -20.3474   -6.7278 C   0  0  0  0  0  0  0  0  0  0  0  0
   30.0676  -20.9566   -7.9677 C   0  0  0  0  0  0  0  0  0  0  0  0
   28.9234  -21.1271   -8.6899 C   0  0  0  0  0  0  0  0  0  0  0  0
   27.7320  -20.6634   -8.1618 C   0  0  0  0  0  0  0  0  0  0  0  0
   25.1162  -20.5479  -12.1006 C   0  0  0  0  0  0  0  0  0  0  0  0
   24.0303  -20.3491  -12.6965 O   0  0  0  0  0  0  0  0  0  0  0  0
   29.9406  -20.0799  -15.0398 C   0  0  0  0  0  0  0  0  0  0  0  0
   28.5152  -19.7313  -14.5063 C   0  0  1  0  0  0  0  0  0  0  0  0
   28.1005  -18.5498  -15.3235 C   0  0  0  0  0  0  0  0  0  0  0  0
   27.7252  -20.9764  -14.6923 C   0  0  0  0  0  0  0  0  0  0  0  0
   26.3300  -21.0097  -14.2006 C   0  0  2  0  0  0  0  0  0  0  0  0
   26.2198  -21.0745  -12.7776 N   0  0  0  0  0  0  0  0  0  0  0  0
   25.5840  -22.1412  -14.8570 C   0  0  0  0  0  0  0  0  0  0  0  0
   25.7300  -22.3458  -16.0928 O   0  0  0  0  0  0  0  0  0  0  0  0
   24.7184  -22.9939  -14.1431 N   0  0  0  0  0  0  0  0  0  0  0  0
   23.9522  -24.0299  -14.8014 C   0  0  1  0  0  0  0  0  0  0  0  0
   23.4318  -25.0847  -13.8808 C   0  0  0  0  0  0  0  0  0  0  0  0
   22.7195  -26.1929  -14.6160 C   0  0  0  0  0  0  0  0  0  0  0  0
   22.0684  -27.0803  -13.6278 C   0  0  0  0  0  0  0  0  0  0  0  0
   20.8319  -26.9177  -13.3396 O   0  0  0  0  0  0  0  0  0  0  0  0
   22.8561  -23.4225  -15.6254 C   0  0  0  0  0  0  0  0  0  0  0  0
   22.5090  -23.8456  -16.8922 O   0  0  0  0  0  0  0  0  0  0  0  0
   22.7057  -28.1192  -12.9578 O   0  0  0  0  0  0  0  0  0  0  0  0
   22.2002  -22.4631  -15.1415 O   0  0  0  0  0  0  0  0  0  0  0  0
  2  1  1  1
  3  4  1  0
  3  2  1  0
  4  5  2  0
  6  5  1  0
  7  6  1  0
  8  7  2  0
  9  8  1  0
 10  9  2  0
 10 11  1  0
 11 12  2  0
 12  7  1  0
 12  4  1  0
 13  2  1  0
 13 14  2  0
 16 15  1  6
 16 18  1  0
 17 16  1  0
 19 18  1  1
 19 20  1  0
 19 21  1  0
 20 13  1  0
 21 23  1  0
 21 22  2  0
 23 24  1  0
 24 25  1  1
 24 29  1  0
 26 25  1  0
 27 26  1  0
 28 27  2  0
 29 32  2  0
 29 30  1  0
 31 27  1  0
M  END
$$$$
