WLE.pdb
     RDKit          3D

 32 33  0  0  1  0  0  0  0  0999 V2000
   26.7843  -21.2567  -12.5514 N   0  0  0  0  0  0  0  0  0  0  0  0
   25.9716  -20.5341  -11.5988 C   0  0  1  0  0  0  0  0  0  0  0  0
   24.5306  -20.4686  -11.9888 C   0  0  0  0  0  0  0  0  0  0  0  0
   24.4062  -19.6730  -13.2466 C   0  0  0  0  0  0  0  0  0  0  0  0
   25.3669  -18.8916  -13.8392 C   0  0  0  0  0  0  0  0  0  0  0  0
   24.8332  -18.3466  -14.9632 N   0  0  0  0  0  0  0  0  0  0  0  0
   23.5668  -18.7343  -15.1362 C   0  0  0  0  0  0  0  0  0  0  0  0
   22.5999  -18.4669  -16.0988 C   0  0  0  0  0  0  0  0  0  0  0  0
   21.3494  -19.0131  -16.0214 C   0  0  0  0  0  0  0  0  0  0  0  0
   21.1122  -19.8385  -14.9370 C   0  0  0  0  0  0  0  0  0  0  0  0
   22.0229  -20.1340  -13.9658 C   0  0  0  0  0  0  0  0  0  0  0  0
   23.2862  -19.5770  -14.0514 C   0  0  0  0  0  0  0  0  0  0  0  0
   26.0912  -21.0423  -10.2150 C   0  0  0  0  0  0  0  0  0  0  0  0
   25.9085  -22.2692  -10.0279 O   0  0  0  0  0  0  0  0  0  0  0  0
   28.7895  -18.5518   -5.8475 C   0  0  0  0  0  0  0  0  0  0  0  0
   28.4035  -19.6896   -6.8447 C   0  0  1  0  0  0  0  0  0  0  0  0
   29.1202  -20.8919   -6.3189 C   0  0  0  0  0  0  0  0  0  0  0  0
   26.9183  -19.7357   -6.8117 C   0  0  0  0  0  0  0  0  0  0  0  0
   26.2148  -20.5944   -7.7901 C   0  0  2  0  0  0  0  0  0  0  0  0
   26.3971  -20.1920   -9.1487 N   0  0  0  0  0  0  0  0  0  0  0  0
   24.7530  -20.6779   -7.4379 C   0  0  0  0  0  0  0  0  0  0  0  0
   23.9651  -19.7808   -7.8435 O   0  0  0  0  0  0  0  0  0  0  0  0
   24.2181  -21.7281   -6.6651 N   0  0  0  0  0  0  0  0  0  0  0  0
   22.8165  -21.7770   -6.3088 C   0  0  1  0  0  0  0  0  0  0  0  0
   22.1024  -22.9934   -6.8002 C   0  0  0  0  0  0  0  0  0  0  0  0
   20.6559  -23.0263   -6.3726 C   0  0  0  0  0  0  0  0  0  0  0  0
   20.0115  -24.2215   -6.9591 C   0  0  0  0  0  0  0  0  0  0  0  0
   18.7744  -24.4579   -6.7302 O   0  0  0  0  0  0  0  0  0  0  0  0
   22.6489  -21.5949   -4.8296 C   0  0  0  0  0  0  0  0  0  0  0  0
   23.6657  -21.7376   -3.9077 O   0  0  0  0  0  0  0  0  0  0  0  0
   20.6557  -25.1483   -7.7717 O   0  0  0  0  0  0  0  0  0  0  0  0
   21.5109  -21.2904   -4.3856 O   0  0  0  0  0  0  0  0  0  0  0  0
  2  1  1  6
  3  4  1  0
  3  2  1  0
  4  5  2  0
  6  5  1  0
  7  6  1  0
  8  7  2  0
  9  8  1  0
 10  9  2  0
 10 11  1  0
 11 12  2  0
 12  7  1  0
 12  4  1  0
 13  2  1  0
 13 14  2  0
 16 15  1  1
 16 18  1  0
 17 16  1  0
 19 18  1  1
 19 20  1  0
 19 21  1  0
 20 13  1  0
 21 23  1  0
 21 22  2  0
 23 24  1  0
 24 25  1  1
 24 29  1  0
 26 25  1  0
 27 26  1  0
 28 27  2  0
 29 32  2  0
 29 30  1  0
 31 27  1  0
M  END
$$$$
