MVA.pdb
     RDKit          3D

 21 20  0  0  1  0  0  0  0  0999 V2000
    7.0972  -11.5732   27.2160 C   0  0  0  0  0  0  0  0  0  0  0  0
    5.4828  -12.0840   26.6532 S   0  0  0  0  0  0  0  0  0  0  0  0
    5.4414  -13.5951   25.7026 C   0  0  0  0  0  0  0  0  0  0  0  0
    6.7240  -14.3598   25.6834 C   0  0  0  0  0  0  0  0  0  0  0  0
    6.6466  -15.5403   24.7822 C   0  0  2  0  0  0  0  0  0  0  0  0
    5.6748  -16.4849   25.2896 N   0  0  0  0  0  0  0  0  0  0  0  0
    7.9679  -16.2721   24.7369 C   0  0  0  0  0  0  0  0  0  0  0  0
    8.0777  -17.3747   25.3038 O   0  0  0  0  0  0  0  0  0  0  0  0
   12.5051  -16.1683   22.7147 C   0  0  0  0  0  0  0  0  0  0  0  0
   11.0827  -15.6780   22.7841 C   0  0  1  0  0  0  0  0  0  0  0  0
   10.3502  -15.8104   21.4901 C   0  0  0  0  0  0  0  0  0  0  0  0
   10.3552  -16.3508   23.9381 C   0  0  2  0  0  0  0  0  0  0  0  0
    9.0592  -15.6879   24.0485 N   0  0  0  0  0  0  0  0  0  0  0  0
   11.1004  -16.2249   25.2005 C   0  0  0  0  0  0  0  0  0  0  0  0
   12.1998  -16.8200   25.3255 O   0  0  0  0  0  0  0  0  0  0  0  0
   10.8032  -14.0784   28.2408 C   0  0  0  0  0  0  0  0  0  0  0  0
   11.3624  -15.3225   27.5528 C   0  0  2  0  0  0  0  0  0  0  0  0
   10.6390  -15.4547   26.3057 N   0  0  0  0  0  0  0  0  0  0  0  0
   11.2521  -16.5175   28.3925 C   0  0  0  0  0  0  0  0  0  0  0  0
   10.4875  -17.6042   28.0449 O   0  0  0  0  0  0  0  0  0  0  0  0
   11.8829  -16.5605   29.4845 O   0  0  0  0  0  0  0  0  0  0  0  0
  2  1  1  0
  3  4  1  0
  3  2  1  0
  5  7  1  0
  5  4  1  0
  5  6  1  1
  7  8  2  0
 10  9  1  6
 10 11  1  0
 12 10  1  0
 12 13  1  1
 13  7  1  0
 14 12  1  0
 15 14  2  0
 17 16  1  1
 17 18  1  0
 18 14  1  0
 19 17  1  0
 19 20  1  0
 21 19  2  0
M  END
$$$$
