MVA.pdb
     RDKit          3D

 21 20  0  0  1  0  0  0  0  0999 V2000
    7.9194  -11.0367   26.9757 C   0  0  0  0  0  0  0  0  0  0  0  0
    6.6041  -11.9452   27.7685 S   0  0  0  0  0  0  0  0  0  0  0  0
    5.8430  -13.2206   26.7770 C   0  0  0  0  0  0  0  0  0  0  0  0
    6.7908  -14.0116   25.9367 C   0  0  0  0  0  0  0  0  0  0  0  0
    6.0778  -15.0089   25.0947 C   0  0  2  0  0  0  0  0  0  0  0  0
    5.5037  -16.0403   25.9318 N   0  0  0  0  0  0  0  0  0  0  0  0
    7.0356  -15.7064   24.1568 C   0  0  0  0  0  0  0  0  0  0  0  0
    7.4273  -16.8570   24.4247 O   0  0  0  0  0  0  0  0  0  0  0  0
    6.8883  -14.7179   20.2410 C   0  0  0  0  0  0  0  0  0  0  0  0
    8.2990  -14.7954   20.7628 C   0  0  1  0  0  0  0  0  0  0  0  0
    8.9216  -13.4560   20.9790 C   0  0  0  0  0  0  0  0  0  0  0  0
    8.3472  -15.6692   22.0069 C   0  0  2  0  0  0  0  0  0  0  0  0
    7.4706  -15.0357   22.9876 N   0  0  0  0  0  0  0  0  0  0  0  0
    9.7130  -15.7811   22.5426 C   0  0  0  0  0  0  0  0  0  0  0  0
   10.1994  -14.8190   23.1877 O   0  0  0  0  0  0  0  0  0  0  0  0
   12.2278  -18.5451   22.7993 C   0  0  0  0  0  0  0  0  0  0  0  0
   11.8674  -17.0640   22.9014 C   0  0  2  0  0  0  0  0  0  0  0  0
   10.5273  -16.9363   22.3687 N   0  0  0  0  0  0  0  0  0  0  0  0
   12.8305  -16.2095   22.2032 C   0  0  0  0  0  0  0  0  0  0  0  0
   13.9509  -15.6985   22.8114 O   0  0  0  0  0  0  0  0  0  0  0  0
   12.6314  -15.9245   20.9902 O   0  0  0  0  0  0  0  0  0  0  0  0
  2  1  1  0
  3  4  1  0
  3  2  1  0
  5  7  1  0
  5  4  1  0
  5  6  1  1
  7  8  2  0
 10  9  1  1
 10 11  1  0
 12 10  1  0
 12 13  1  1
 13  7  1  0
 14 12  1  0
 15 14  2  0
 17 16  1  6
 17 18  1  0
 18 14  1  0
 19 17  1  0
 19 20  1  0
 21 19  2  0
M  END
$$$$
