MVA.pdb
     RDKit          3D

 21 20  0  0  1  0  0  0  0  0999 V2000
    8.3057  -11.9202   27.8379 C   0  0  0  0  0  0  0  0  0  0  0  0
    6.5399  -11.8809   27.5847 S   0  0  0  0  0  0  0  0  0  0  0  0
    5.8428  -13.3239   26.7968 C   0  0  0  0  0  0  0  0  0  0  0  0
    6.8073  -14.1218   25.9823 C   0  0  0  0  0  0  0  0  0  0  0  0
    6.1296  -15.2292   25.2570 C   0  0  2  0  0  0  0  0  0  0  0  0
    5.6474  -16.2144   26.2010 N   0  0  0  0  0  0  0  0  0  0  0  0
    7.0971  -15.9499   24.3470 C   0  0  0  0  0  0  0  0  0  0  0  0
    7.4467  -17.1124   24.6214 O   0  0  0  0  0  0  0  0  0  0  0  0
    9.2888  -15.7310   19.9050 C   0  0  0  0  0  0  0  0  0  0  0  0
    8.3692  -15.1479   20.9454 C   0  0  1  0  0  0  0  0  0  0  0  0
    6.9603  -15.0054   20.4730 C   0  0  0  0  0  0  0  0  0  0  0  0
    8.4738  -15.9429   22.2379 C   0  0  2  0  0  0  0  0  0  0  0  0
    7.5891  -15.2868   23.1962 N   0  0  0  0  0  0  0  0  0  0  0  0
    9.8520  -15.9688   22.7527 C   0  0  0  0  0  0  0  0  0  0  0  0
   10.3959  -14.8918   23.1030 O   0  0  0  0  0  0  0  0  0  0  0  0
   12.1692  -18.6102   23.9557 C   0  0  0  0  0  0  0  0  0  0  0  0
   11.9685  -17.2043   23.3930 C   0  0  2  0  0  0  0  0  0  0  0  0
   10.6158  -17.1639   22.8786 N   0  0  0  0  0  0  0  0  0  0  0  0
   12.9647  -16.8675   22.3734 C   0  0  0  0  0  0  0  0  0  0  0  0
   14.1955  -16.3408   22.6800 O   0  0  0  0  0  0  0  0  0  0  0  0
   12.6901  -17.0661   21.1580 O   0  0  0  0  0  0  0  0  0  0  0  0
  2  1  1  0
  3  4  1  0
  3  2  1  0
  5  7  1  0
  5  4  1  0
  5  6  1  1
  7  8  2  0
 10  9  1  6
 10 11  1  0
 12 10  1  0
 12 13  1  1
 13  7  1  0
 14 12  1  0
 15 14  2  0
 17 16  1  6
 17 18  1  0
 18 14  1  0
 19 17  1  0
 19 20  1  0
 21 19  2  0
M  END
$$$$
