MVA.pdb
     RDKit          3D

 21 20  0  0  1  0  0  0  0  0999 V2000
    4.5646  -19.1283   22.4812 C   0  0  0  0  0  0  0  0  0  0  0  0
    4.9804  -18.5649   20.8400 S   0  0  0  0  0  0  0  0  0  0  0  0
    5.6167  -16.8996   20.7359 C   0  0  0  0  0  0  0  0  0  0  0  0
    6.5785  -16.5266   21.8157 C   0  0  0  0  0  0  0  0  0  0  0  0
    6.9411  -15.0856   21.7551 C   0  0  2  0  0  0  0  0  0  0  0  0
    7.7165  -14.8220   20.5620 N   0  0  0  0  0  0  0  0  0  0  0  0
    7.8162  -14.6997   22.9251 C   0  0  0  0  0  0  0  0  0  0  0  0
    9.0529  -14.6812   22.7858 O   0  0  0  0  0  0  0  0  0  0  0  0
    7.7210  -13.0556   27.6055 C   0  0  0  0  0  0  0  0  0  0  0  0
    7.1141  -13.1861   26.2332 C   0  0  1  0  0  0  0  0  0  0  0  0
    6.8018  -11.8710   25.5997 C   0  0  0  0  0  0  0  0  0  0  0  0
    7.9942  -14.0625   25.3553 C   0  0  2  0  0  0  0  0  0  0  0  0
    7.2108  -14.3654   24.1612 N   0  0  0  0  0  0  0  0  0  0  0  0
    8.3809  -15.3066   26.0393 C   0  0  0  0  0  0  0  0  0  0  0  0
    7.4850  -16.0530   26.5071 O   0  0  0  0  0  0  0  0  0  0  0  0
   11.4077  -17.4079   26.0985 C   0  0  0  0  0  0  0  0  0  0  0  0
   10.1249  -16.9756   26.8065 C   0  0  2  0  0  0  0  0  0  0  0  0
    9.7339  -15.7189   26.2035 N   0  0  0  0  0  0  0  0  0  0  0  0
   10.3007  -16.8692   28.2567 C   0  0  0  0  0  0  0  0  0  0  0  0
   10.4499  -17.9648   29.0714 O   0  0  0  0  0  0  0  0  0  0  0  0
   10.3174  -15.7260   28.7906 O   0  0  0  0  0  0  0  0  0  0  0  0
  2  1  1  0
  3  4  1  0
  3  2  1  0
  5  7  1  0
  5  4  1  0
  5  6  1  6
  7  8  2  0
 10  9  1  1
 10 11  1  0
 12 10  1  0
 12 13  1  6
 13  7  1  0
 14 12  1  0
 15 14  2  0
 17 16  1  6
 17 18  1  0
 18 14  1  0
 19 17  1  0
 19 20  1  0
 21 19  2  0
M  END
$$$$
