MVA.pdb
     RDKit          3D

 21 20  0  0  1  0  0  0  0  0999 V2000
    7.7057  -10.8621   26.9069 C   0  0  0  0  0  0  0  0  0  0  0  0
    6.4787  -11.8526   27.7419 S   0  0  0  0  0  0  0  0  0  0  0  0
    5.8160  -13.2152   26.7969 C   0  0  0  0  0  0  0  0  0  0  0  0
    6.8411  -14.0873   26.1497 C   0  0  0  0  0  0  0  0  0  0  0  0
    6.2138  -15.1431   25.3109 C   0  0  2  0  0  0  0  0  0  0  0  0
    5.5995  -16.1442   26.1562 N   0  0  0  0  0  0  0  0  0  0  0  0
    7.2534  -15.8641   24.4844 C   0  0  0  0  0  0  0  0  0  0  0  0
    7.6806  -16.9694   24.8650 O   0  0  0  0  0  0  0  0  0  0  0  0
    9.5946  -15.8452   20.1138 C   0  0  0  0  0  0  0  0  0  0  0  0
    8.6110  -15.2307   21.0747 C   0  0  1  0  0  0  0  0  0  0  0  0
    7.2145  -15.1991   20.5482 C   0  0  0  0  0  0  0  0  0  0  0  0
    8.7088  -15.9153   22.4294 C   0  0  2  0  0  0  0  0  0  0  0  0
    7.7231  -15.2667   23.2891 N   0  0  0  0  0  0  0  0  0  0  0  0
   10.0544  -15.7859   23.0105 C   0  0  0  0  0  0  0  0  0  0  0  0
   10.4902  -14.6435   23.2993 O   0  0  0  0  0  0  0  0  0  0  0  0
   12.6169  -18.1314   24.3692 C   0  0  0  0  0  0  0  0  0  0  0  0
   12.2635  -16.7801   23.7503 C   0  0  2  0  0  0  0  0  0  0  0  0
   10.9037  -16.8995   23.2681 N   0  0  0  0  0  0  0  0  0  0  0  0
   13.1998  -16.3925   22.6928 C   0  0  0  0  0  0  0  0  0  0  0  0
   14.3251  -15.6424   22.9324 O   0  0  0  0  0  0  0  0  0  0  0  0
   12.9720  -16.7587   21.5070 O   0  0  0  0  0  0  0  0  0  0  0  0
  2  1  1  0
  3  4  1  0
  3  2  1  0
  5  7  1  0
  5  4  1  0
  5  6  1  1
  7  8  2  0
 10  9  1  6
 10 11  1  0
 12 10  1  0
 12 13  1  1
 13  7  1  0
 14 12  1  0
 15 14  2  0
 17 16  1  6
 17 18  1  0
 18 14  1  0
 19 17  1  0
 19 20  1  0
 21 19  2  0
M  END
$$$$
