MVA.pdb
     RDKit          3D

 21 20  0  0  1  0  0  0  0  0999 V2000
    7.1313  -11.0744   26.2517 C   0  0  0  0  0  0  0  0  0  0  0  0
    6.7315  -12.2377   27.5442 S   0  0  0  0  0  0  0  0  0  0  0  0
    6.2079  -13.8530   26.9911 C   0  0  0  0  0  0  0  0  0  0  0  0
    7.0709  -14.4658   25.9376 C   0  0  0  0  0  0  0  0  0  0  0  0
    6.2650  -15.1967   24.9237 C   0  0  2  0  0  0  0  0  0  0  0  0
    5.7309  -16.4116   25.5007 N   0  0  0  0  0  0  0  0  0  0  0  0
    7.1245  -15.6225   23.7560 C   0  0  0  0  0  0  0  0  0  0  0  0
    7.5419  -16.7935   23.6969 O   0  0  0  0  0  0  0  0  0  0  0  0
    9.0389  -14.0753   19.4319 C   0  0  0  0  0  0  0  0  0  0  0  0
    8.2353  -13.8027   20.6762 C   0  0  1  0  0  0  0  0  0  0  0  0
    6.8528  -13.3176   20.3901 C   0  0  0  0  0  0  0  0  0  0  0  0
    8.2495  -15.0233   21.5837 C   0  0  2  0  0  0  0  0  0  0  0  0
    7.4396  -14.6783   22.7483 N   0  0  0  0  0  0  0  0  0  0  0  0
    9.6154  -15.3775   22.0005 C   0  0  0  0  0  0  0  0  0  0  0  0
   10.2661  -14.5747   22.7150 O   0  0  0  0  0  0  0  0  0  0  0  0
   11.6325  -18.5066   21.9733 C   0  0  0  0  0  0  0  0  0  0  0  0
   11.5718  -16.9842   22.0852 C   0  0  2  0  0  0  0  0  0  0  0  0
   10.2513  -16.5980   21.6346 N   0  0  0  0  0  0  0  0  0  0  0  0
   12.6368  -16.3292   21.3223 C   0  0  0  0  0  0  0  0  0  0  0  0
   13.8391  -15.9689   21.8800 O   0  0  0  0  0  0  0  0  0  0  0  0
   12.4517  -16.0807   20.0991 O   0  0  0  0  0  0  0  0  0  0  0  0
  2  1  1  0
  3  4  1  0
  3  2  1  0
  5  7  1  0
  5  4  1  0
  5  6  1  1
  7  8  2  0
 10  9  1  6
 10 11  1  0
 12 10  1  0
 12 13  1  1
 13  7  1  0
 14 12  1  0
 15 14  2  0
 17 16  1  6
 17 18  1  0
 18 14  1  0
 19 17  1  0
 19 20  1  0
 21 19  2  0
M  END
$$$$
