MVA.pdb
     RDKit          3D

 21 20  0  0  1  0  0  0  0  0999 V2000
    7.9583  -11.0929   26.9623 C   0  0  0  0  0  0  0  0  0  0  0  0
    6.6452  -12.0141   27.7440 S   0  0  0  0  0  0  0  0  0  0  0  0
    5.9228  -13.3142   26.7557 C   0  0  0  0  0  0  0  0  0  0  0  0
    6.8835  -14.0362   25.8692 C   0  0  0  0  0  0  0  0  0  0  0  0
    6.1890  -15.0038   24.9788 C   0  0  2  0  0  0  0  0  0  0  0  0
    5.6300  -16.0832   25.7642 N   0  0  0  0  0  0  0  0  0  0  0  0
    7.1602  -15.6403   24.0117 C   0  0  0  0  0  0  0  0  0  0  0  0
    7.7026  -16.7203   24.3091 O   0  0  0  0  0  0  0  0  0  0  0  0
    6.8642  -14.6934   20.0553 C   0  0  0  0  0  0  0  0  0  0  0  0
    8.2778  -14.6618   20.5741 C   0  0  1  0  0  0  0  0  0  0  0  0
    8.7965  -13.2783   20.7867 C   0  0  0  0  0  0  0  0  0  0  0  0
    8.3953  -15.5270   21.8196 C   0  0  2  0  0  0  0  0  0  0  0  0
    7.4356  -14.9938   22.7819 N   0  0  0  0  0  0  0  0  0  0  0  0
    9.7542  -15.4910   22.3829 C   0  0  0  0  0  0  0  0  0  0  0  0
   10.1434  -14.4560   22.9792 O   0  0  0  0  0  0  0  0  0  0  0  0
   12.2996  -17.9533   23.3444 C   0  0  0  0  0  0  0  0  0  0  0  0
   12.0147  -16.5482   22.8170 C   0  0  2  0  0  0  0  0  0  0  0  0
   10.6670  -16.5798   22.2891 N   0  0  0  0  0  0  0  0  0  0  0  0
   12.9968  -16.1212   21.8177 C   0  0  0  0  0  0  0  0  0  0  0  0
   12.6937  -15.9886   20.4847 O   0  0  0  0  0  0  0  0  0  0  0  0
   14.1750  -15.8614   22.1872 O   0  0  0  0  0  0  0  0  0  0  0  0
  2  1  1  0
  3  4  1  0
  3  2  1  0
  5  7  1  0
  5  4  1  0
  5  6  1  1
  7  8  2  0
 10  9  1  1
 10 11  1  0
 12 10  1  0
 12 13  1  1
 13  7  1  0
 14 12  1  0
 15 14  2  0
 17 16  1  6
 17 18  1  0
 18 14  1  0
 19 17  1  0
 19 20  1  0
 21 19  2  0
M  END
$$$$
