MVA.pdb
     RDKit          3D

 21 20  0  0  1  0  0  0  0  0999 V2000
    5.5527  -11.3323   26.9398 C   0  0  0  0  0  0  0  0  0  0  0  0
    7.3287  -11.5018   26.9689 S   0  0  0  0  0  0  0  0  0  0  0  0
    7.9456  -13.1701   26.8103 C   0  0  0  0  0  0  0  0  0  0  0  0
    7.0794  -14.0861   26.0098 C   0  0  0  0  0  0  0  0  0  0  0  0
    7.8479  -15.2416   25.4751 C   0  0  2  0  0  0  0  0  0  0  0  0
    9.2586  -14.9211   25.4391 N   0  0  0  0  0  0  0  0  0  0  0  0
    7.4442  -15.5455   24.0510 C   0  0  0  0  0  0  0  0  0  0  0  0
    6.3092  -16.0008   23.8194 O   0  0  0  0  0  0  0  0  0  0  0  0
    6.9255  -13.4041   21.3555 C   0  0  0  0  0  0  0  0  0  0  0  0
    8.0675  -14.2628   20.8792 C   0  0  1  0  0  0  0  0  0  0  0  0
    9.3919  -13.5787   20.9589 C   0  0  0  0  0  0  0  0  0  0  0  0
    8.0551  -15.5977   21.6081 C   0  0  2  0  0  0  0  0  0  0  0  0
    8.3676  -15.3060   23.0040 N   0  0  0  0  0  0  0  0  0  0  0  0
    9.0441  -16.5334   21.0501 C   0  0  0  0  0  0  0  0  0  0  0  0
    8.9161  -16.9249   19.8632 O   0  0  0  0  0  0  0  0  0  0  0  0
   12.2838  -17.2674   20.7524 C   0  0  0  0  0  0  0  0  0  0  0  0
   11.0741  -18.0290   21.2912 C   0  0  2  0  0  0  0  0  0  0  0  0
   10.1554  -17.0277   21.7906 N   0  0  0  0  0  0  0  0  0  0  0  0
   11.4460  -19.0073   22.3159 C   0  0  0  0  0  0  0  0  0  0  0  0
   12.3136  -20.0444   22.0755 O   0  0  0  0  0  0  0  0  0  0  0  0
   10.9536  -18.9014   23.4729 O   0  0  0  0  0  0  0  0  0  0  0  0
  2  1  1  0
  3  4  1  0
  3  2  1  0
  5  7  1  0
  5  4  1  0
  5  6  1  6
  7  8  2  0
 10  9  1  1
 10 11  1  0
 12 10  1  0
 12 13  1  1
 13  7  1  0
 14 12  1  0
 15 14  2  0
 17 16  1  1
 17 18  1  0
 18 14  1  0
 19 17  1  0
 19 20  1  0
 21 19  2  0
M  END
$$$$
