MVA.pdb
     RDKit          3D

 21 20  0  0  1  0  0  0  0  0999 V2000
    7.6179  -11.2158   26.8453 C   0  0  0  0  0  0  0  0  0  0  0  0
    6.1196  -12.1734   26.9933 S   0  0  0  0  0  0  0  0  0  0  0  0
    6.3440  -13.8937   27.4164 C   0  0  0  0  0  0  0  0  0  0  0  0
    7.2299  -14.6579   26.4882 C   0  0  0  0  0  0  0  0  0  0  0  0
    6.4444  -15.5041   25.5509 C   0  0  2  0  0  0  0  0  0  0  0  0
    5.8886  -16.6378   26.2581 N   0  0  0  0  0  0  0  0  0  0  0  0
    7.3295  -16.0721   24.4658 C   0  0  0  0  0  0  0  0  0  0  0  0
    7.7543  -17.2375   24.5684 O   0  0  0  0  0  0  0  0  0  0  0  0
    9.1140  -15.1890   19.9145 C   0  0  0  0  0  0  0  0  0  0  0  0
    8.2928  -14.7653   21.1039 C   0  0  1  0  0  0  0  0  0  0  0  0
    6.8594  -14.5144   20.7708 C   0  0  0  0  0  0  0  0  0  0  0  0
    8.4622  -15.7655   22.2372 C   0  0  2  0  0  0  0  0  0  0  0  0
    7.6599  -15.2652   23.3496 N   0  0  0  0  0  0  0  0  0  0  0  0
    9.8703  -15.8962   22.6437 C   0  0  0  0  0  0  0  0  0  0  0  0
   10.4653  -14.8988   23.1229 O   0  0  0  0  0  0  0  0  0  0  0  0
   12.1596  -18.7384   23.2981 C   0  0  0  0  0  0  0  0  0  0  0  0
   11.9817  -17.2606   22.9544 C   0  0  2  0  0  0  0  0  0  0  0  0
   10.6082  -17.1082   22.5231 N   0  0  0  0  0  0  0  0  0  0  0  0
   12.9390  -16.8074   21.9428 C   0  0  0  0  0  0  0  0  0  0  0  0
   14.1717  -16.2923   22.2616 O   0  0  0  0  0  0  0  0  0  0  0  0
   12.6275  -16.8894   20.7228 O   0  0  0  0  0  0  0  0  0  0  0  0
  2  1  1  0
  3  4  1  0
  3  2  1  0
  5  7  1  0
  5  4  1  0
  5  6  1  1
  7  8  2  0
 10  9  1  6
 10 11  1  0
 12 10  1  0
 12 13  1  1
 13  7  1  0
 14 12  1  0
 15 14  2  0
 17 16  1  6
 17 18  1  0
 18 14  1  0
 19 17  1  0
 19 20  1  0
 21 19  2  0
M  END
$$$$
