MVA.pdb
     RDKit          3D

 21 20  0  0  1  0  0  0  0  0999 V2000
   10.6261  -13.5273   29.0773 C   0  0  0  0  0  0  0  0  0  0  0  0
   10.5389  -15.0520   30.0001 S   0  0  0  0  0  0  0  0  0  0  0  0
    9.4095  -16.2771   29.3578 C   0  0  0  0  0  0  0  0  0  0  0  0
    9.3009  -16.3112   27.8688 C   0  0  0  0  0  0  0  0  0  0  0  0
    8.1316  -17.1136   27.4212 C   0  0  2  0  0  0  0  0  0  0  0  0
    8.2878  -18.4895   27.8416 N   0  0  0  0  0  0  0  0  0  0  0  0
    8.0390  -17.1375   25.9132 C   0  0  0  0  0  0  0  0  0  0  0  0
    7.9412  -18.2285   25.3221 O   0  0  0  0  0  0  0  0  0  0  0  0
    7.9187  -14.2893   21.8451 C   0  0  0  0  0  0  0  0  0  0  0  0
    7.7516  -14.4624   23.3319 C   0  0  1  0  0  0  0  0  0  0  0  0
    6.3845  -14.1090   23.8161 C   0  0  0  0  0  0  0  0  0  0  0  0
    8.1723  -15.8648   23.7438 C   0  0  2  0  0  0  0  0  0  0  0  0
    8.0653  -15.9147   25.1989 N   0  0  0  0  0  0  0  0  0  0  0  0
    9.5500  -16.1667   23.3243 C   0  0  0  0  0  0  0  0  0  0  0  0
   10.4965  -15.4859   23.7923 O   0  0  0  0  0  0  0  0  0  0  0  0
   11.2455  -19.0168   21.6965 C   0  0  0  0  0  0  0  0  0  0  0  0
   11.2279  -17.5181   21.9923 C   0  0  2  0  0  0  0  0  0  0  0  0
    9.8761  -17.2029   22.4037 N   0  0  0  0  0  0  0  0  0  0  0  0
   11.6630  -16.7208   20.8433 C   0  0  0  0  0  0  0  0  0  0  0  0
   12.9768  -16.3858   20.6238 O   0  0  0  0  0  0  0  0  0  0  0  0
   10.8015  -16.3197   20.0132 O   0  0  0  0  0  0  0  0  0  0  0  0
  2  1  1  0
  3  4  1  0
  3  2  1  0
  5  7  1  0
  5  4  1  0
  5  6  1  6
  7  8  2  0
 10  9  1  6
 10 11  1  0
 12 10  1  0
 12 13  1  1
 13  7  1  0
 14 12  1  0
 15 14  2  0
 17 16  1  6
 17 18  1  0
 18 14  1  0
 19 17  1  0
 19 20  1  0
 21 19  2  0
M  END
$$$$
