MVA.pdb
     RDKit          3D

 21 20  0  0  1  0  0  0  0  0999 V2000
    7.6979  -19.7680   21.6441 C   0  0  0  0  0  0  0  0  0  0  0  0
    6.8391  -18.9282   20.3247 S   0  0  0  0  0  0  0  0  0  0  0  0
    6.6900  -17.1581   20.5073 C   0  0  0  0  0  0  0  0  0  0  0  0
    7.5547  -16.5616   21.5687 C   0  0  0  0  0  0  0  0  0  0  0  0
    7.3589  -15.0912   21.6752 C   0  0  2  0  0  0  0  0  0  0  0  0
    7.9062  -14.4351   20.5072 N   0  0  0  0  0  0  0  0  0  0  0  0
    8.1039  -14.5324   22.8652 C   0  0  0  0  0  0  0  0  0  0  0  0
    9.3022  -14.2179   22.7459 O   0  0  0  0  0  0  0  0  0  0  0  0
    7.6526  -12.6740   27.4080 C   0  0  0  0  0  0  0  0  0  0  0  0
    7.0642  -13.1259   26.0973 C   0  0  1  0  0  0  0  0  0  0  0  0
    6.4659  -12.0113   25.3047 C   0  0  0  0  0  0  0  0  0  0  0  0
    8.0967  -13.9153   25.3071 C   0  0  2  0  0  0  0  0  0  0  0  0
    7.4226  -14.3768   24.0972 N   0  0  0  0  0  0  0  0  0  0  0  0
    8.6098  -15.0622   26.0727 C   0  0  0  0  0  0  0  0  0  0  0  0
    7.7965  -15.8806   26.5699 O   0  0  0  0  0  0  0  0  0  0  0  0
   11.9773  -16.5757   26.6322 C   0  0  0  0  0  0  0  0  0  0  0  0
   10.5147  -16.4196   27.0448 C   0  0  2  0  0  0  0  0  0  0  0  0
    9.9974  -15.3009   26.2852 N   0  0  0  0  0  0  0  0  0  0  0  0
   10.3629  -16.2324   28.4895 C   0  0  0  0  0  0  0  0  0  0  0  0
   10.4455  -17.2684   29.3875 O   0  0  0  0  0  0  0  0  0  0  0  0
   10.1468  -15.0733   28.9387 O   0  0  0  0  0  0  0  0  0  0  0  0
  2  1  1  0
  3  4  1  0
  3  2  1  0
  5  7  1  0
  5  4  1  0
  5  6  1  6
  7  8  2  0
 10  9  1  1
 10 11  1  0
 12 10  1  0
 12 13  1  6
 13  7  1  0
 14 12  1  0
 15 14  2  0
 17 16  1  1
 17 18  1  0
 18 14  1  0
 19 17  1  0
 19 20  1  0
 21 19  2  0
M  END
$$$$
