MVA.pdb
     RDKit          3D

 21 20  0  0  1  0  0  0  0  0999 V2000
    8.2348  -11.8337   27.7672 C   0  0  0  0  0  0  0  0  0  0  0  0
    6.4531  -11.9048   27.7007 S   0  0  0  0  0  0  0  0  0  0  0  0
    5.7705  -13.3044   26.8267 C   0  0  0  0  0  0  0  0  0  0  0  0
    6.7537  -14.0713   26.0047 C   0  0  0  0  0  0  0  0  0  0  0  0
    6.1043  -15.1939   25.2769 C   0  0  2  0  0  0  0  0  0  0  0  0
    5.6626  -16.2012   26.2172 N   0  0  0  0  0  0  0  0  0  0  0  0
    7.0852  -15.8763   24.3519 C   0  0  0  0  0  0  0  0  0  0  0  0
    7.5047  -17.0136   24.6343 O   0  0  0  0  0  0  0  0  0  0  0  0
    9.1505  -15.6413   19.8570 C   0  0  0  0  0  0  0  0  0  0  0  0
    8.3045  -15.0182   20.9361 C   0  0  1  0  0  0  0  0  0  0  0  0
    6.8834  -14.8149   20.5267 C   0  0  0  0  0  0  0  0  0  0  0  0
    8.4322  -15.8163   22.2245 C   0  0  2  0  0  0  0  0  0  0  0  0
    7.5097  -15.2070   23.1780 N   0  0  0  0  0  0  0  0  0  0  0  0
    9.8051  -15.7837   22.7529 C   0  0  0  0  0  0  0  0  0  0  0  0
   10.2929  -14.6874   23.1251 O   0  0  0  0  0  0  0  0  0  0  0  0
   12.2390  -18.3765   23.8696 C   0  0  0  0  0  0  0  0  0  0  0  0
   11.9502  -16.9361   23.4503 C   0  0  2  0  0  0  0  0  0  0  0  0
   10.6248  -16.9424   22.8680 N   0  0  0  0  0  0  0  0  0  0  0  0
   12.9626  -16.4127   22.5304 C   0  0  0  0  0  0  0  0  0  0  0  0
   14.0886  -15.7532   22.9589 O   0  0  0  0  0  0  0  0  0  0  0  0
   12.8029  -16.5692   21.2885 O   0  0  0  0  0  0  0  0  0  0  0  0
  2  1  1  0
  3  4  1  0
  3  2  1  0
  5  7  1  0
  5  4  1  0
  5  6  1  1
  7  8  2  0
 10  9  1  6
 10 11  1  0
 12 10  1  0
 12 13  1  1
 13  7  1  0
 14 12  1  0
 15 14  2  0
 17 16  1  6
 17 18  1  0
 18 14  1  0
 19 17  1  0
 19 20  1  0
 21 19  2  0
M  END
$$$$
