MVA.pdb
     RDKit          3D

 21 20  0  0  1  0  0  0  0  0999 V2000
    6.1833  -20.2941   27.7329 C   0  0  0  0  0  0  0  0  0  0  0  0
    6.7865  -20.7566   26.1185 S   0  0  0  0  0  0  0  0  0  0  0  0
    6.5462  -19.5435   24.8303 C   0  0  0  0  0  0  0  0  0  0  0  0
    5.4542  -18.5588   25.0912 C   0  0  0  0  0  0  0  0  0  0  0  0
    5.3942  -17.5123   24.0363 C   0  0  2  0  0  0  0  0  0  0  0  0
    5.5331  -18.1202   22.7304 N   0  0  0  0  0  0  0  0  0  0  0  0
    6.5411  -16.5385   24.1764 C   0  0  0  0  0  0  0  0  0  0  0  0
    7.4880  -16.5864   23.3700 O   0  0  0  0  0  0  0  0  0  0  0  0
    8.3189  -12.8341   26.9789 C   0  0  0  0  0  0  0  0  0  0  0  0
    7.1656  -13.6676   26.4854 C   0  0  1  0  0  0  0  0  0  0  0  0
    6.0671  -12.8555   25.8835 C   0  0  0  0  0  0  0  0  0  0  0  0
    7.6708  -14.7528   25.5470 C   0  0  2  0  0  0  0  0  0  0  0  0
    6.5169  -15.5873   25.2256 N   0  0  0  0  0  0  0  0  0  0  0  0
    8.7280  -15.5645   26.1703 C   0  0  0  0  0  0  0  0  0  0  0  0
    8.4528  -16.2584   27.1807 O   0  0  0  0  0  0  0  0  0  0  0  0
   12.2116  -16.4824   25.1383 C   0  0  0  0  0  0  0  0  0  0  0  0
   11.0511  -16.5733   26.1276 C   0  0  2  0  0  0  0  0  0  0  0  0
   10.0661  -15.6088   25.6853 N   0  0  0  0  0  0  0  0  0  0  0  0
   11.4801  -16.3412   27.5086 C   0  0  0  0  0  0  0  0  0  0  0  0
   12.1048  -17.3018   28.2659 O   0  0  0  0  0  0  0  0  0  0  0  0
   11.2715  -15.2134   28.0347 O   0  0  0  0  0  0  0  0  0  0  0  0
  2  1  1  0
  3  4  1  0
  3  2  1  0
  5  7  1  0
  5  4  1  0
  5  6  1  6
  7  8  2  0
 10  9  1  6
 10 11  1  0
 12 10  1  0
 12 13  1  1
 13  7  1  0
 14 12  1  0
 15 14  2  0
 17 16  1  6
 17 18  1  0
 18 14  1  0
 19 17  1  0
 19 20  1  0
 21 19  2  0
M  END
$$$$
