FFG.pdb
     RDKit          3D

 27 28  0  0  1  0  0  0  0  0999 V2000
   17.9726   -9.1744  -13.1625 N   0  0  0  0  0  0  0  0  0  0  0  0
   18.4162   -8.4524  -11.9933 C   0  0  1  0  0  0  0  0  0  0  0  0
   19.5532   -7.5537  -12.3538 C   0  0  0  0  0  0  0  0  0  0  0  0
   20.7518   -8.4056  -12.6151 C   0  0  0  0  0  0  0  0  0  0  0  0
   21.3762   -9.0635  -11.5769 C   0  0  0  0  0  0  0  0  0  0  0  0
   22.4821   -9.8556  -11.7857 C   0  0  0  0  0  0  0  0  0  0  0  0
   22.9977  -10.0124  -13.0501 C   0  0  0  0  0  0  0  0  0  0  0  0
   22.3564   -9.3447  -14.0730 C   0  0  0  0  0  0  0  0  0  0  0  0
   21.2481   -8.5457  -13.8919 C   0  0  0  0  0  0  0  0  0  0  0  0
   17.3206   -7.6456  -11.3943 C   0  0  0  0  0  0  0  0  0  0  0  0
   16.4044   -7.1795  -12.1345 O   0  0  0  0  0  0  0  0  0  0  0  0
   17.2291   -7.3558  -10.0216 N   0  0  0  0  0  0  0  0  0  0  0  0
   16.1300   -6.5575   -9.4824 C   0  0  1  0  0  0  0  0  0  0  0  0
   15.6534   -7.3592   -8.2769 C   0  0  0  0  0  0  0  0  0  0  0  0
   14.3469   -7.9772   -8.4149 C   0  0  0  0  0  0  0  0  0  0  0  0
   13.1921   -7.2826   -8.0420 C   0  0  0  0  0  0  0  0  0  0  0  0
   11.9470   -7.8306   -8.1569 C   0  0  0  0  0  0  0  0  0  0  0  0
   11.8280   -9.1034   -8.6543 C   0  0  0  0  0  0  0  0  0  0  0  0
   12.9549   -9.8119   -9.0304 C   0  0  0  0  0  0  0  0  0  0  0  0
   14.2092   -9.2659   -8.9171 C   0  0  0  0  0  0  0  0  0  0  0  0
   16.5443   -5.2360   -9.0552 C   0  0  0  0  0  0  0  0  0  0  0  0
   17.5181   -5.0922   -8.2855 O   0  0  0  0  0  0  0  0  0  0  0  0
   15.8546   -4.0896   -9.5067 N   0  0  0  0  0  0  0  0  0  0  0  0
   16.2038   -2.7972   -8.9882 C   0  0  0  0  0  0  0  0  0  0  0  0
   15.3005   -1.7799   -9.5642 C   0  0  0  0  0  0  0  0  0  0  0  0
   15.6948   -0.9975  -10.4736 O   0  0  0  0  0  0  0  0  0  0  0  0
   14.0035   -1.6866   -9.0961 O   0  0  0  0  0  0  0  0  0  0  0  0
  2  1  1  6
  3  2  1  0
  4  3  1  0
  5  4  2  0
  6  5  1  0
  7  6  2  0
  7  8  1  0
  8  9  2  0
  9  4  1  0
 10 11  2  0
 10  2  1  0
 12 10  1  0
 13 12  1  0
 13 14  1  1
 15 14  1  0
 15 16  2  0
 17 16  1  0
 18 17  2  0
 19 20  2  0
 19 18  1  0
 20 15  1  0
 21 13  1  0
 22 21  2  0
 23 21  1  0
 24 23  1  0
 25 24  1  0
 25 27  1  0
 26 25  2  0
M  END
$$$$
