FFG.pdb
     RDKit          3D

 27 28  0  0  1  0  0  0  0  0999 V2000
   23.8294  -27.1294  -15.0872 N   0  0  0  0  0  0  0  0  0  0  0  0
   23.3526  -25.7786  -14.9050 C   0  0  1  0  0  0  0  0  0  0  0  0
   23.4919  -25.0154  -16.1811 C   0  0  0  0  0  0  0  0  0  0  0  0
   24.9165  -24.5858  -16.3103 C   0  0  0  0  0  0  0  0  0  0  0  0
   25.8612  -25.4546  -16.8138 C   0  0  0  0  0  0  0  0  0  0  0  0
   27.1812  -25.0882  -16.9452 C   0  0  0  0  0  0  0  0  0  0  0  0
   27.5955  -23.8316  -16.5733 C   0  0  0  0  0  0  0  0  0  0  0  0
   26.6329  -22.9797  -16.0724 C   0  0  0  0  0  0  0  0  0  0  0  0
   25.3051  -23.3206  -15.9301 C   0  0  0  0  0  0  0  0  0  0  0  0
   21.9327  -25.7491  -14.4653 C   0  0  0  0  0  0  0  0  0  0  0  0
   21.1689  -26.7226  -14.7368 O   0  0  0  0  0  0  0  0  0  0  0  0
   21.3627  -24.6832  -13.7475 N   0  0  0  0  0  0  0  0  0  0  0  0
   19.9996  -24.7578  -13.2255 C   0  0  1  0  0  0  0  0  0  0  0  0
   20.1702  -24.5411  -11.7265 C   0  0  0  0  0  0  0  0  0  0  0  0
   18.9614  -24.6780  -10.9342 C   0  0  0  0  0  0  0  0  0  0  0  0
   18.4603  -25.9450  -10.6202 C   0  0  0  0  0  0  0  0  0  0  0  0
   17.3269  -26.1134   -9.8780 C   0  0  0  0  0  0  0  0  0  0  0  0
   16.6603  -25.0025   -9.4273 C   0  0  0  0  0  0  0  0  0  0  0  0
   17.1353  -23.7377   -9.7241 C   0  0  0  0  0  0  0  0  0  0  0  0
   18.2744  -23.5624  -10.4699 C   0  0  0  0  0  0  0  0  0  0  0  0
   19.1267  -23.7365  -13.7688 C   0  0  0  0  0  0  0  0  0  0  0  0
   19.5117  -22.5509  -13.8564 O   0  0  0  0  0  0  0  0  0  0  0  0
   17.8274  -24.0677  -14.2115 N   0  0  0  0  0  0  0  0  0  0  0  0
   16.9722  -23.0438  -14.7418 C   0  0  0  0  0  0  0  0  0  0  0  0
   16.0147  -22.6196  -13.6997 C   0  0  0  0  0  0  0  0  0  0  0  0
   16.3123  -22.6864  -12.4744 O   0  0  0  0  0  0  0  0  0  0  0  0
   14.7736  -22.1430  -14.0775 O   0  0  0  0  0  0  0  0  0  0  0  0
  2  1  1  6
  3  2  1  0
  4  3  1  0
  5  4  2  0
  6  5  1  0
  7  6  2  0
  7  8  1  0
  8  9  2  0
  9  4  1  0
 10 11  2  0
 10  2  1  0
 12 10  1  0
 13 12  1  0
 13 14  1  1
 15 14  1  0
 15 16  2  0
 17 16  1  0
 18 17  2  0
 19 20  2  0
 19 18  1  0
 20 15  1  0
 21 13  1  0
 22 21  2  0
 23 21  1  0
 24 23  1  0
 25 24  1  0
 25 27  1  0
 26 25  2  0
M  END
$$$$
