FFG.pdb
     RDKit          3D

 27 28  0  0  1  0  0  0  0  0999 V2000
   27.6791  -19.8987  -16.8744 N   0  0  0  0  0  0  0  0  0  0  0  0
   26.5447  -19.3047  -16.2071 C   0  0  1  0  0  0  0  0  0  0  0  0
   25.4191  -19.1359  -17.1740 C   0  0  0  0  0  0  0  0  0  0  0  0
   25.8238  -18.1098  -18.1810 C   0  0  0  0  0  0  0  0  0  0  0  0
   26.2661  -18.4969  -19.4281 C   0  0  0  0  0  0  0  0  0  0  0  0
   26.6458  -17.5755  -20.3772 C   0  0  0  0  0  0  0  0  0  0  0  0
   26.5927  -16.2299  -20.1019 C   0  0  0  0  0  0  0  0  0  0  0  0
   26.1470  -15.8664  -18.8479 C   0  0  0  0  0  0  0  0  0  0  0  0
   25.7610  -16.7677  -17.8793 C   0  0  0  0  0  0  0  0  0  0  0  0
   26.0874  -20.1284  -15.0570 C   0  0  0  0  0  0  0  0  0  0  0  0
   26.0327  -21.3891  -15.1675 O   0  0  0  0  0  0  0  0  0  0  0  0
   25.7001  -19.5878  -13.8184 N   0  0  0  0  0  0  0  0  0  0  0  0
   25.2066  -20.4374  -12.7364 C   0  0  1  0  0  0  0  0  0  0  0  0
   26.0411  -20.0169  -11.5322 C   0  0  0  0  0  0  0  0  0  0  0  0
   27.4524  -20.3498  -11.6036 C   0  0  0  0  0  0  0  0  0  0  0  0
   28.2812  -19.7234  -12.5396 C   0  0  0  0  0  0  0  0  0  0  0  0
   29.6123  -20.0103  -12.6366 C   0  0  0  0  0  0  0  0  0  0  0  0
   30.1514  -20.9432  -11.7876 C   0  0  0  0  0  0  0  0  0  0  0  0
   29.3531  -21.5771  -10.8527 C   0  0  0  0  0  0  0  0  0  0  0  0
   28.0140  -21.2926  -10.7507 C   0  0  0  0  0  0  0  0  0  0  0  0
   23.8007  -20.2327  -12.4498 C   0  0  0  0  0  0  0  0  0  0  0  0
   23.2259  -19.1808  -12.8025 O   0  0  0  0  0  0  0  0  0  0  0  0
   23.0579  -21.2227  -11.7700 N   0  0  0  0  0  0  0  0  0  0  0  0
   22.5470  -22.3528  -12.4931 C   0  0  0  0  0  0  0  0  0  0  0  0
   21.2928  -21.9702  -13.1737 C   0  0  0  0  0  0  0  0  0  0  0  0
   20.4893  -22.8458  -13.6008 O   0  0  0  0  0  0  0  0  0  0  0  0
   20.9988  -20.6305  -13.3438 O   0  0  0  0  0  0  0  0  0  0  0  0
  2  1  1  6
  3  2  1  0
  4  3  1  0
  5  4  2  0
  6  5  1  0
  7  6  2  0
  7  8  1  0
  8  9  2  0
  9  4  1  0
 10 11  2  0
 10  2  1  0
 12 10  1  0
 13 12  1  0
 13 14  1  1
 15 14  1  0
 15 16  2  0
 17 16  1  0
 18 17  2  0
 19 20  2  0
 19 18  1  0
 20 15  1  0
 21 13  1  0
 22 21  2  0
 23 21  1  0
 24 23  1  0
 25 24  1  0
 25 27  1  0
 26 25  2  0
M  END
$$$$
