FFG.pdb
     RDKit          3D

 27 28  0  0  1  0  0  0  0  0999 V2000
   28.0629  -22.0581  -16.7844 N   0  0  0  0  0  0  0  0  0  0  0  0
   27.0264  -21.1842  -16.2874 C   0  0  1  0  0  0  0  0  0  0  0  0
   25.9974  -20.9644  -17.3473 C   0  0  0  0  0  0  0  0  0  0  0  0
   26.4323  -19.8040  -18.1811 C   0  0  0  0  0  0  0  0  0  0  0  0
   27.2106  -20.0062  -19.3010 C   0  0  0  0  0  0  0  0  0  0  0  0
   27.6269  -18.9578  -20.0893 C   0  0  0  0  0  0  0  0  0  0  0  0
   27.2726  -17.6673  -19.7758 C   0  0  0  0  0  0  0  0  0  0  0  0
   26.4937  -17.4894  -18.6511 C   0  0  0  0  0  0  0  0  0  0  0  0
   26.0633  -18.5208  -17.8445 C   0  0  0  0  0  0  0  0  0  0  0  0
   26.3726  -21.7387  -15.0728 C   0  0  0  0  0  0  0  0  0  0  0  0
   26.3047  -22.9932  -14.9110 O   0  0  0  0  0  0  0  0  0  0  0  0
   25.8076  -20.9423  -14.0614 N   0  0  0  0  0  0  0  0  0  0  0  0
   25.3150  -21.5273  -12.8159 C   0  0  1  0  0  0  0  0  0  0  0  0
   25.9056  -20.6320  -11.7330 C   0  0  0  0  0  0  0  0  0  0  0  0
   27.3272  -20.7994  -11.4910 C   0  0  0  0  0  0  0  0  0  0  0  0
   28.2629  -20.3446  -12.4253 C   0  0  0  0  0  0  0  0  0  0  0  0
   29.6072  -20.4845  -12.2327 C   0  0  0  0  0  0  0  0  0  0  0  0
   30.0514  -21.0908  -11.0853 C   0  0  0  0  0  0  0  0  0  0  0  0
   29.1463  -21.5494  -10.1452 C   0  0  0  0  0  0  0  0  0  0  0  0
   27.7936  -21.4116  -10.3335 C   0  0  0  0  0  0  0  0  0  0  0  0
   23.8689  -21.5204  -12.7182 C   0  0  0  0  0  0  0  0  0  0  0  0
   23.2972  -21.9808  -11.7071 O   0  0  0  0  0  0  0  0  0  0  0  0
   23.0840  -20.9886  -13.7647 N   0  0  0  0  0  0  0  0  0  0  0  0
   21.6557  -21.1276  -13.7260 C   0  0  0  0  0  0  0  0  0  0  0  0
   21.0935  -20.1302  -12.7921 C   0  0  0  0  0  0  0  0  0  0  0  0
   21.8391  -19.3098  -12.1876 O   0  0  0  0  0  0  0  0  0  0  0  0
   19.7282  -20.0993  -12.5797 O   0  0  0  0  0  0  0  0  0  0  0  0
  2  1  1  6
  3  2  1  0
  4  3  1  0
  5  4  2  0
  6  5  1  0
  7  6  2  0
  7  8  1  0
  8  9  2  0
  9  4  1  0
 10 11  2  0
 10  2  1  0
 12 10  1  0
 13 12  1  0
 13 14  1  1
 15 14  1  0
 15 16  2  0
 17 16  1  0
 18 17  2  0
 19 20  2  0
 19 18  1  0
 20 15  1  0
 21 13  1  0
 22 21  2  0
 23 21  1  0
 24 23  1  0
 25 24  1  0
 25 27  1  0
 26 25  2  0
M  END
$$$$
