FFG.pdb
     RDKit          3D

 27 28  0  0  1  0  0  0  0  0999 V2000
   28.7594  -20.7174  -13.7017 N   0  0  0  0  0  0  0  0  0  0  0  0
   27.6127  -19.9477  -13.2801 C   0  0  1  0  0  0  0  0  0  0  0  0
   26.7378  -19.6568  -14.4551 C   0  0  0  0  0  0  0  0  0  0  0  0
   27.2525  -18.4230  -15.1212 C   0  0  0  0  0  0  0  0  0  0  0  0
   27.0366  -17.1854  -14.5534 C   0  0  0  0  0  0  0  0  0  0  0  0
   27.4983  -16.0307  -15.1427 C   0  0  0  0  0  0  0  0  0  0  0  0
   28.1947  -16.0833  -16.3265 C   0  0  0  0  0  0  0  0  0  0  0  0
   28.3986  -17.3323  -16.8758 C   0  0  0  0  0  0  0  0  0  0  0  0
   27.9474  -18.5039  -16.3072 C   0  0  0  0  0  0  0  0  0  0  0  0
   26.8224  -20.6589  -12.2409 C   0  0  0  0  0  0  0  0  0  0  0  0
   26.7976  -21.9253  -12.2254 O   0  0  0  0  0  0  0  0  0  0  0  0
   26.0786  -20.0026  -11.2448 N   0  0  0  0  0  0  0  0  0  0  0  0
   25.3250  -20.7491  -10.2393 C   0  0  1  0  0  0  0  0  0  0  0  0
   25.5343  -19.9503   -8.9583 C   0  0  0  0  0  0  0  0  0  0  0  0
   26.8396  -20.0936   -8.3391 C   0  0  0  0  0  0  0  0  0  0  0  0
   27.2580  -19.1950   -7.3529 C   0  0  0  0  0  0  0  0  0  0  0  0
   28.4778  -19.2975   -6.7485 C   0  0  0  0  0  0  0  0  0  0  0  0
   29.3178  -20.3155   -7.1225 C   0  0  0  0  0  0  0  0  0  0  0  0
   28.9276  -21.2177   -8.0957 C   0  0  0  0  0  0  0  0  0  0  0  0
   27.7024  -21.1194   -8.7068 C   0  0  0  0  0  0  0  0  0  0  0  0
   23.9088  -20.8311  -10.5361 C   0  0  0  0  0  0  0  0  0  0  0  0
   23.1310  -21.4338   -9.7660 O   0  0  0  0  0  0  0  0  0  0  0  0
   23.3859  -20.2265  -11.7002 N   0  0  0  0  0  0  0  0  0  0  0  0
   22.7496  -21.0367  -12.6999 C   0  0  0  0  0  0  0  0  0  0  0  0
   21.2867  -21.0051  -12.4953 C   0  0  0  0  0  0  0  0  0  0  0  0
   20.7920  -20.7359  -11.3651 O   0  0  0  0  0  0  0  0  0  0  0  0
   20.4502  -21.2758  -13.5616 O   0  0  0  0  0  0  0  0  0  0  0  0
  2  1  1  6
  3  2  1  0
  4  3  1  0
  5  4  2  0
  6  5  1  0
  7  6  2  0
  7  8  1  0
  8  9  2  0
  9  4  1  0
 10 11  2  0
 10  2  1  0
 12 10  1  0
 13 12  1  0
 13 14  1  1
 15 14  1  0
 15 16  2  0
 17 16  1  0
 18 17  2  0
 19 20  2  0
 19 18  1  0
 20 15  1  0
 21 13  1  0
 22 21  2  0
 23 21  1  0
 24 23  1  0
 25 24  1  0
 25 27  1  0
 26 25  2  0
M  END
$$$$
