FFG.pdb
     RDKit          3D

 27 28  0  0  1  0  0  0  0  0999 V2000
   22.9834  -10.4857  -16.8100 N   0  0  0  0  0  0  0  0  0  0  0  0
   21.7460   -9.8158  -17.1339 C   0  0  1  0  0  0  0  0  0  0  0  0
   20.6007  -10.7606  -16.9721 C   0  0  0  0  0  0  0  0  0  0  0  0
   20.2801  -11.3335  -18.3136 C   0  0  0  0  0  0  0  0  0  0  0  0
   20.1940  -12.6990  -18.4832 C   0  0  0  0  0  0  0  0  0  0  0  0
   19.9002  -13.2571  -19.7064 C   0  0  0  0  0  0  0  0  0  0  0  0
   19.6827  -12.4571  -20.8027 C   0  0  0  0  0  0  0  0  0  0  0  0
   19.7741  -11.0942  -20.6089 C   0  0  0  0  0  0  0  0  0  0  0  0
   20.0666  -10.5093  -19.3958 C   0  0  0  0  0  0  0  0  0  0  0  0
   21.5245   -8.6211  -16.2772 C   0  0  0  0  0  0  0  0  0  0  0  0
   21.7843   -8.6772  -15.0387 O   0  0  0  0  0  0  0  0  0  0  0  0
   21.0318   -7.3969  -16.7620 N   0  0  0  0  0  0  0  0  0  0  0  0
   20.9132   -6.2258  -15.8957 C   0  0  1  0  0  0  0  0  0  0  0  0
   21.8821   -5.2201  -16.5062 C   0  0  0  0  0  0  0  0  0  0  0  0
   21.8563   -3.8925  -15.9192 C   0  0  0  0  0  0  0  0  0  0  0  0
   22.3875   -3.6713  -14.6449 C   0  0  0  0  0  0  0  0  0  0  0  0
   22.3810   -2.4375  -14.0603 C   0  0  0  0  0  0  0  0  0  0  0  0
   21.8353   -1.3831  -14.7473 C   0  0  0  0  0  0  0  0  0  0  0  0
   21.3032   -1.5754  -16.0096 C   0  0  0  0  0  0  0  0  0  0  0  0
   21.3071   -2.8136  -16.6022 C   0  0  0  0  0  0  0  0  0  0  0  0
   19.5767   -5.6654  -15.8782 C   0  0  0  0  0  0  0  0  0  0  0  0
   18.9349   -5.5172  -16.9400 O   0  0  0  0  0  0  0  0  0  0  0  0
   18.9780   -5.2817  -14.6583 N   0  0  0  0  0  0  0  0  0  0  0  0
   17.7044   -4.6192  -14.6665 C   0  0  0  0  0  0  0  0  0  0  0  0
   16.6294   -5.6267  -14.5566 C   0  0  0  0  0  0  0  0  0  0  0  0
   15.4166   -5.2817  -14.4899 O   0  0  0  0  0  0  0  0  0  0  0  0
   16.9621   -6.9678  -14.5263 O   0  0  0  0  0  0  0  0  0  0  0  0
  2  1  1  1
  3  2  1  0
  4  3  1  0
  5  4  2  0
  6  5  1  0
  7  6  2  0
  7  8  1  0
  8  9  2  0
  9  4  1  0
 10 11  2  0
 10  2  1  0
 12 10  1  0
 13 12  1  0
 13 14  1  6
 15 14  1  0
 15 16  2  0
 17 16  1  0
 18 17  2  0
 19 20  2  0
 19 18  1  0
 20 15  1  0
 21 13  1  0
 22 21  2  0
 23 21  1  0
 24 23  1  0
 25 24  1  0
 25 27  1  0
 26 25  2  0
M  END
$$$$
