FFG.pdb
     RDKit          3D

 27 28  0  0  1  0  0  0  0  0999 V2000
   27.6942    1.7786   -9.3352 N   0  0  0  0  0  0  0  0  0  0  0  0
   27.2590    2.8609   -8.4841 C   0  0  1  0  0  0  0  0  0  0  0  0
   26.1694    3.6288   -9.1577 C   0  0  0  0  0  0  0  0  0  0  0  0
   26.8014    4.5925  -10.1077 C   0  0  0  0  0  0  0  0  0  0  0  0
   26.9811    4.2475  -11.4304 C   0  0  0  0  0  0  0  0  0  0  0  0
   27.5599    5.1134  -12.3298 C   0  0  0  0  0  0  0  0  0  0  0  0
   27.9783    6.3591  -11.9268 C   0  0  0  0  0  0  0  0  0  0  0  0
   27.7883    6.6822  -10.5990 C   0  0  0  0  0  0  0  0  0  0  0  0
   27.2118    5.8346   -9.6777 C   0  0  0  0  0  0  0  0  0  0  0  0
   26.7737    2.3674   -7.1683 C   0  0  0  0  0  0  0  0  0  0  0  0
   26.1726    1.2547   -7.0957 O   0  0  0  0  0  0  0  0  0  0  0  0
   26.9412    3.0720   -5.9634 N   0  0  0  0  0  0  0  0  0  0  0  0
   26.5482    2.4929   -4.6803 C   0  0  1  0  0  0  0  0  0  0  0  0
   27.7716    2.7011   -3.7955 C   0  0  0  0  0  0  0  0  0  0  0  0
   28.8500    1.7480   -3.9866 C   0  0  0  0  0  0  0  0  0  0  0  0
   29.8618    2.0009   -4.9179 C   0  0  0  0  0  0  0  0  0  0  0  0
   30.8914    1.1287   -5.1254 C   0  0  0  0  0  0  0  0  0  0  0  0
   30.9321   -0.0320   -4.3955 C   0  0  0  0  0  0  0  0  0  0  0  0
   29.9434   -0.3058   -3.4678 C   0  0  0  0  0  0  0  0  0  0  0  0
   28.9058    0.5674   -3.2550 C   0  0  0  0  0  0  0  0  0  0  0  0
   25.4011    3.1512   -4.0877 C   0  0  0  0  0  0  0  0  0  0  0  0
   25.3319    4.3983   -4.0505 O   0  0  0  0  0  0  0  0  0  0  0  0
   24.3412    2.3913   -3.5463 N   0  0  0  0  0  0  0  0  0  0  0  0
   23.2094    3.0578   -2.9669 C   0  0  0  0  0  0  0  0  0  0  0  0
   22.3216    3.5390   -4.0453 C   0  0  0  0  0  0  0  0  0  0  0  0
   21.8866    4.7244   -4.0518 O   0  0  0  0  0  0  0  0  0  0  0  0
   21.9637    2.6732   -5.0614 O   0  0  0  0  0  0  0  0  0  0  0  0
  2  1  1  6
  3  2  1  0
  4  3  1  0
  5  4  2  0
  6  5  1  0
  7  6  2  0
  7  8  1  0
  8  9  2  0
  9  4  1  0
 10 11  2  0
 10  2  1  0
 12 10  1  0
 13 12  1  0
 13 14  1  1
 15 14  1  0
 15 16  2  0
 17 16  1  0
 18 17  2  0
 19 20  2  0
 19 18  1  0
 20 15  1  0
 21 13  1  0
 22 21  2  0
 23 21  1  0
 24 23  1  0
 25 24  1  0
 25 27  1  0
 26 25  2  0
M  END
$$$$
