FFG.pdb
     RDKit          3D

 27 28  0  0  1  0  0  0  0  0999 V2000
   21.8614  -19.3409  -12.0375 N   0  0  0  0  0  0  0  0  0  0  0  0
   22.5892  -20.5878  -12.0085 C   0  0  1  0  0  0  0  0  0  0  0  0
   22.3448  -21.3468  -13.2713 C   0  0  0  0  0  0  0  0  0  0  0  0
   20.9178  -21.7877  -13.2776 C   0  0  0  0  0  0  0  0  0  0  0  0
   19.9878  -21.1202  -14.0460 C   0  0  0  0  0  0  0  0  0  0  0  0
   18.6660  -21.5024  -14.0730 C   0  0  0  0  0  0  0  0  0  0  0  0
   18.2350  -22.5722  -13.3254 C   0  0  0  0  0  0  0  0  0  0  0  0
   19.1832  -23.2246  -12.5646 C   0  0  0  0  0  0  0  0  0  0  0  0
   20.5124  -22.8630  -12.5191 C   0  0  0  0  0  0  0  0  0  0  0  0
   24.0500  -20.3703  -11.8388 C   0  0  0  0  0  0  0  0  0  0  0  0
   24.6186  -19.4126  -12.4423 O   0  0  0  0  0  0  0  0  0  0  0  0
   24.8680  -21.1787  -11.0303 N   0  0  0  0  0  0  0  0  0  0  0  0
   26.3176  -20.9970  -10.9890 C   0  0  1  0  0  0  0  0  0  0  0  0
   26.7236  -21.6015   -9.6501 C   0  0  0  0  0  0  0  0  0  0  0  0
   26.8573  -20.6588   -8.5541 C   0  0  0  0  0  0  0  0  0  0  0  0
   25.9874  -19.5693   -8.4472 C   0  0  0  0  0  0  0  0  0  0  0  0
   26.0822  -18.6623   -7.4313 C   0  0  0  0  0  0  0  0  0  0  0  0
   27.0630  -18.8274   -6.4866 C   0  0  0  0  0  0  0  0  0  0  0  0
   27.9362  -19.8970   -6.5696 C   0  0  0  0  0  0  0  0  0  0  0  0
   27.8456  -20.8120   -7.5889 C   0  0  0  0  0  0  0  0  0  0  0  0
   27.0069  -21.6845  -12.0627 C   0  0  0  0  0  0  0  0  0  0  0  0
   27.8972  -22.5247  -11.8122 O   0  0  0  0  0  0  0  0  0  0  0  0
   26.6789  -21.4170  -13.4099 N   0  0  0  0  0  0  0  0  0  0  0  0
   27.7206  -21.1183  -14.3514 C   0  0  0  0  0  0  0  0  0  0  0  0
   27.1412  -21.0258  -15.7073 C   0  0  0  0  0  0  0  0  0  0  0  0
   27.5249  -21.7927  -16.6342 O   0  0  0  0  0  0  0  0  0  0  0  0
   26.1636  -20.0822  -15.9604 O   0  0  0  0  0  0  0  0  0  0  0  0
  2  1  1  6
  3  2  1  0
  4  3  1  0
  5  4  2  0
  6  5  1  0
  7  6  2  0
  7  8  1  0
  8  9  2  0
  9  4  1  0
 10 11  2  0
 10  2  1  0
 12 10  1  0
 13 12  1  0
 13 14  1  1
 15 14  1  0
 15 16  2  0
 17 16  1  0
 18 17  2  0
 19 20  2  0
 19 18  1  0
 20 15  1  0
 21 13  1  0
 22 21  2  0
 23 21  1  0
 24 23  1  0
 25 24  1  0
 25 27  1  0
 26 25  2  0
M  END
$$$$
