FFG.pdb
     RDKit          3D

 27 28  0  0  1  0  0  0  0  0999 V2000
   18.9137  -11.7877  -19.2858 N   0  0  0  0  0  0  0  0  0  0  0  0
   19.4306  -10.5539  -19.8295 C   0  0  1  0  0  0  0  0  0  0  0  0
   18.5426  -10.0737  -20.9301 C   0  0  0  0  0  0  0  0  0  0  0  0
   18.6715  -11.0226  -22.0763 C   0  0  0  0  0  0  0  0  0  0  0  0
   17.7614  -12.0457  -22.2369 C   0  0  0  0  0  0  0  0  0  0  0  0
   17.8532  -12.9356  -23.2825 C   0  0  0  0  0  0  0  0  0  0  0  0
   18.8671  -12.8252  -24.2040 C   0  0  0  0  0  0  0  0  0  0  0  0
   19.7656  -11.7941  -24.0230 C   0  0  0  0  0  0  0  0  0  0  0  0
   19.6970  -10.8895  -22.9855 C   0  0  0  0  0  0  0  0  0  0  0  0
   19.5431   -9.4971  -18.7900 C   0  0  0  0  0  0  0  0  0  0  0  0
   18.6409   -9.3822  -17.9083 O   0  0  0  0  0  0  0  0  0  0  0  0
   20.6142   -8.5895  -18.7163 N   0  0  0  0  0  0  0  0  0  0  0  0
   20.6197   -7.4931  -17.7498 C   0  0  1  0  0  0  0  0  0  0  0  0
   21.8819   -7.7348  -16.9304 C   0  0  0  0  0  0  0  0  0  0  0  0
   22.1738   -6.7313  -15.9226 C   0  0  0  0  0  0  0  0  0  0  0  0
   23.1675   -5.7730  -16.1445 C   0  0  0  0  0  0  0  0  0  0  0  0
   23.4702   -4.8145  -15.2208 C   0  0  0  0  0  0  0  0  0  0  0  0
   22.7758   -4.7931  -14.0380 C   0  0  0  0  0  0  0  0  0  0  0  0
   21.7879   -5.7300  -13.7939 C   0  0  0  0  0  0  0  0  0  0  0  0
   21.4793   -6.6961  -14.7191 C   0  0  0  0  0  0  0  0  0  0  0  0
   20.6868   -6.1866  -18.3735 C   0  0  0  0  0  0  0  0  0  0  0  0
   21.5283   -5.9501  -19.2664 O   0  0  0  0  0  0  0  0  0  0  0  0
   19.7979   -5.1612  -17.9830 N   0  0  0  0  0  0  0  0  0  0  0  0
   19.9188   -3.8537  -18.5632 C   0  0  0  0  0  0  0  0  0  0  0  0
   20.6855   -2.9829  -17.6486 C   0  0  0  0  0  0  0  0  0  0  0  0
   21.0212   -3.3804  -16.4980 O   0  0  0  0  0  0  0  0  0  0  0  0
   21.0384   -1.7127  -18.0637 O   0  0  0  0  0  0  0  0  0  0  0  0
  2  1  1  1
  3  2  1  0
  4  3  1  0
  5  4  2  0
  6  5  1  0
  7  6  2  0
  7  8  1  0
  8  9  2  0
  9  4  1  0
 10 11  2  0
 10  2  1  0
 12 10  1  0
 13 12  1  0
 13 14  1  1
 15 14  1  0
 15 16  2  0
 17 16  1  0
 18 17  2  0
 19 20  2  0
 19 18  1  0
 20 15  1  0
 21 13  1  0
 22 21  2  0
 23 21  1  0
 24 23  1  0
 25 24  1  0
 25 27  1  0
 26 25  2  0
M  END
$$$$
