KCE.pdb
     RDKit          3D

 25 24  0  0  1  0  0  0  0  0999 V2000
    7.7182  -14.6344   20.2661 N   0  0  0  0  0  0  0  0  0  0  0  0
    7.1117  -15.0441   21.4509 C   0  0  1  0  0  0  0  0  0  0  0  0
    6.8472  -16.4810   21.6007 C   0  0  0  0  0  0  0  0  0  0  0  0
    7.8591  -17.4778   21.7990 C   0  0  0  0  0  0  0  0  0  0  0  0
    7.8621  -18.9006   21.8974 C   0  0  0  0  0  0  0  0  0  0  0  0
    8.9724  -19.8199   22.1031 C   0  0  0  0  0  0  0  0  0  0  0  0
    8.6512  -21.1895   22.3000 N   0  0  0  0  0  0  0  0  0  0  0  0
    7.7665  -14.4633   22.6784 C   0  0  0  0  0  0  0  0  0  0  0  0
    9.0106  -14.3023   22.6683 O   0  0  0  0  0  0  0  0  0  0  0  0
    7.0828  -14.0859   23.8420 N   0  0  0  0  0  0  0  0  0  0  0  0
    7.6704  -13.5331   25.0161 C   0  0  1  0  0  0  0  0  0  0  0  0
    6.7651  -12.6496   25.8158 C   0  0  0  0  0  0  0  0  0  0  0  0
    7.4832  -12.0819   27.3502 S   0  0  0  0  0  0  0  0  0  0  0  0
    8.2779  -14.6164   25.8229 C   0  0  0  0  0  0  0  0  0  0  0  0
    7.5912  -15.6053   26.1933 O   0  0  0  0  0  0  0  0  0  0  0  0
    9.6481  -14.6150   26.2261 N   0  0  0  0  0  0  0  0  0  0  0  0
   10.2398  -15.6436   27.0244 C   0  0  1  0  0  0  0  0  0  0  0  0
   11.6924  -15.8617   26.5895 C   0  0  0  0  0  0  0  0  0  0  0  0
   11.7515  -16.6379   25.2928 C   0  0  0  0  0  0  0  0  0  0  0  0
   13.1899  -16.7643   24.9327 C   0  0  0  0  0  0  0  0  0  0  0  0
   14.1206  -16.3003   25.6410 O   0  0  0  0  0  0  0  0  0  0  0  0
   10.1674  -15.3548   28.4782 C   0  0  0  0  0  0  0  0  0  0  0  0
    9.7287  -14.2370   28.8419 O   0  0  0  0  0  0  0  0  0  0  0  0
   13.5886  -17.4229   23.7570 O   0  0  0  0  0  0  0  0  0  0  0  0
   10.5546  -16.2431   29.4648 O   0  0  0  0  0  0  0  0  0  0  0  0
  2  8  1  0
  2  1  1  6
  3  2  1  0
  4  3  1  0
  5  4  1  0
  6  5  1  0
  6  7  1  0
  8  9  2  0
 10 11  1  0
 10  8  1  0
 12 13  1  0
 11 12  1  1
 14 15  2  0
 14 11  1  0
 16 14  1  0
 17 16  1  0
 17 22  1  0
 17 18  1  6
 19 20  1  0
 19 18  1  0
 20 21  2  0
 22 25  1  0
 23 22  2  0
 24 20  1  0
M  END
$$$$
