KCE.pdb
     RDKit          3D

 25 24  0  0  1  0  0  0  0  0999 V2000
    6.8938  -17.3700   20.2193 N   0  0  0  0  0  0  0  0  0  0  0  0
    8.2171  -17.1117   19.8708 C   0  0  1  0  0  0  0  0  0  0  0  0
    8.4479  -16.4449   18.5827 C   0  0  0  0  0  0  0  0  0  0  0  0
    8.0617  -15.0963   18.2845 C   0  0  0  0  0  0  0  0  0  0  0  0
    8.0687  -14.2853   17.1113 C   0  0  0  0  0  0  0  0  0  0  0  0
    7.6491  -12.9030   16.9293 C   0  0  0  0  0  0  0  0  0  0  0  0
    7.7939  -12.3480   15.6298 N   0  0  0  0  0  0  0  0  0  0  0  0
    9.0040  -16.4686   20.9843 C   0  0  0  0  0  0  0  0  0  0  0  0
   10.2225  -16.2386   20.7948 O   0  0  0  0  0  0  0  0  0  0  0  0
    8.4709  -16.1045   22.2281 N   0  0  0  0  0  0  0  0  0  0  0  0
    9.1848  -15.4917   23.2979 C   0  0  1  0  0  0  0  0  0  0  0  0
    8.3249  -14.8493   24.3407 C   0  0  0  0  0  0  0  0  0  0  0  0
    7.2160  -15.9853   25.1605 S   0  0  0  0  0  0  0  0  0  0  0  0
   10.1527  -16.4585   23.8651 C   0  0  0  0  0  0  0  0  0  0  0  0
    9.8931  -17.6908   23.8877 O   0  0  0  0  0  0  0  0  0  0  0  0
   11.4143  -16.0708   24.4113 N   0  0  0  0  0  0  0  0  0  0  0  0
   12.4257  -17.0015   24.8068 C   0  0  1  0  0  0  0  0  0  0  0  0
   13.7937  -16.5131   24.3201 C   0  0  0  0  0  0  0  0  0  0  0  0
   14.8901  -17.4468   24.7823 C   0  0  0  0  0  0  0  0  0  0  0  0
   16.1726  -16.8886   24.2740 C   0  0  0  0  0  0  0  0  0  0  0  0
   16.2762  -15.7324   23.7885 O   0  0  0  0  0  0  0  0  0  0  0  0
   12.4464  -17.2385   26.2715 C   0  0  0  0  0  0  0  0  0  0  0  0
   11.8423  -16.4275   27.0143 O   0  0  0  0  0  0  0  0  0  0  0  0
   17.3580  -17.6425   24.3120 O   0  0  0  0  0  0  0  0  0  0  0  0
   13.0922  -18.3018   26.8753 O   0  0  0  0  0  0  0  0  0  0  0  0
  2  8  1  0
  2  1  1  1
  3  2  1  0
  4  3  1  0
  5  4  1  0
  6  5  1  0
  6  7  1  0
  8  9  2  0
 10 11  1  0
 10  8  1  0
 12 13  1  0
 11 12  1  1
 14 15  2  0
 14 11  1  0
 16 14  1  0
 17 16  1  0
 17 22  1  0
 17 18  1  1
 19 20  1  0
 19 18  1  0
 20 21  2  0
 22 25  1  0
 23 22  2  0
 24 20  1  0
M  END
$$$$
