KCE.pdb
     RDKit          3D

 25 24  0  0  1  0  0  0  0  0999 V2000
    8.4104  -14.6807   20.3866 N   0  0  0  0  0  0  0  0  0  0  0  0
    7.6919  -15.1774   21.4712 C   0  0  1  0  0  0  0  0  0  0  0  0
    7.5431  -16.6359   21.5589 C   0  0  0  0  0  0  0  0  0  0  0  0
    7.4827  -17.5166   20.4286 C   0  0  0  0  0  0  0  0  0  0  0  0
    8.4259  -18.3385   19.7438 C   0  0  0  0  0  0  0  0  0  0  0  0
    8.2376  -19.2255   18.6046 C   0  0  0  0  0  0  0  0  0  0  0  0
    9.3967  -19.8501   18.0716 N   0  0  0  0  0  0  0  0  0  0  0  0
    8.1213  -14.5773   22.7858 C   0  0  0  0  0  0  0  0  0  0  0  0
    9.3489  -14.4352   23.0014 O   0  0  0  0  0  0  0  0  0  0  0  0
    7.2430  -14.1620   23.7957 N   0  0  0  0  0  0  0  0  0  0  0  0
    7.6161  -13.6059   25.0531 C   0  0  1  0  0  0  0  0  0  0  0  0
    6.5742  -12.7428   25.6926 C   0  0  0  0  0  0  0  0  0  0  0  0
    6.9344  -12.3158   27.3898 S   0  0  0  0  0  0  0  0  0  0  0  0
    8.0996  -14.6831   25.9471 C   0  0  0  0  0  0  0  0  0  0  0  0
    7.3521  -15.6498   26.2525 O   0  0  0  0  0  0  0  0  0  0  0  0
    9.4123  -14.7001   26.5100 N   0  0  0  0  0  0  0  0  0  0  0  0
    9.8413  -15.6488   27.4904 C   0  0  1  0  0  0  0  0  0  0  0  0
   11.0351  -16.4430   26.9508 C   0  0  0  0  0  0  0  0  0  0  0  0
   11.5812  -15.8003   25.6954 C   0  0  0  0  0  0  0  0  0  0  0  0
   12.7345  -16.6309   25.2541 C   0  0  0  0  0  0  0  0  0  0  0  0
   13.1006  -17.6749   25.8534 O   0  0  0  0  0  0  0  0  0  0  0  0
   10.1783  -15.0180   28.7906 C   0  0  0  0  0  0  0  0  0  0  0  0
   10.0914  -13.7700   28.8870 O   0  0  0  0  0  0  0  0  0  0  0  0
   13.4884  -16.2824   24.1205 O   0  0  0  0  0  0  0  0  0  0  0  0
   10.5847  -15.7203   29.9104 O   0  0  0  0  0  0  0  0  0  0  0  0
  2  8  1  0
  2  1  1  6
  3  2  1  0
  4  3  1  0
  5  4  1  0
  6  5  1  0
  6  7  1  0
  8  9  2  0
 10 11  1  0
 10  8  1  0
 12 13  1  0
 11 12  1  1
 14 15  2  0
 14 11  1  0
 16 14  1  0
 17 16  1  0
 17 22  1  0
 17 18  1  6
 19 20  1  0
 19 18  1  0
 20 21  2  0
 22 25  1  0
 23 22  2  0
 24 20  1  0
M  END
$$$$
