KCE.pdb
     RDKit          3D

 25 24  0  0  1  0  0  0  0  0999 V2000
    8.5186  -14.5179   20.3306 N   0  0  0  0  0  0  0  0  0  0  0  0
    7.7556  -15.0379   21.3732 C   0  0  1  0  0  0  0  0  0  0  0  0
    7.4795  -16.4801   21.3405 C   0  0  0  0  0  0  0  0  0  0  0  0
    7.5319  -17.2916   20.1592 C   0  0  0  0  0  0  0  0  0  0  0  0
    7.2666  -18.6627   19.8696 C   0  0  0  0  0  0  0  0  0  0  0  0
    7.3131  -19.3747   18.6004 C   0  0  0  0  0  0  0  0  0  0  0  0
    6.9424  -20.7459   18.6132 N   0  0  0  0  0  0  0  0  0  0  0  0
    8.2312  -14.5885   22.7312 C   0  0  0  0  0  0  0  0  0  0  0  0
    9.4554  -14.6757   22.9910 O   0  0  0  0  0  0  0  0  0  0  0  0
    7.3999  -14.0752   23.7359 N   0  0  0  0  0  0  0  0  0  0  0  0
    7.8120  -13.6715   25.0385 C   0  0  1  0  0  0  0  0  0  0  0  0
    6.8185  -12.8340   25.7807 C   0  0  0  0  0  0  0  0  0  0  0  0
    7.2447  -12.5588   27.4939 S   0  0  0  0  0  0  0  0  0  0  0  0
    8.2545  -14.8573   25.8075 C   0  0  0  0  0  0  0  0  0  0  0  0
    7.4624  -15.8104   26.0328 O   0  0  0  0  0  0  0  0  0  0  0  0
    9.5751  -14.9987   26.3331 N   0  0  0  0  0  0  0  0  0  0  0  0
   10.0063  -16.1274   27.0983 C   0  0  1  0  0  0  0  0  0  0  0  0
   11.1390  -16.8478   26.3602 C   0  0  0  0  0  0  0  0  0  0  0  0
   12.3762  -15.9798   26.3022 C   0  0  0  0  0  0  0  0  0  0  0  0
   13.0342  -16.2559   24.9962 C   0  0  0  0  0  0  0  0  0  0  0  0
   12.6256  -17.1320   24.1908 O   0  0  0  0  0  0  0  0  0  0  0  0
   10.4284  -15.7613   28.4730 C   0  0  0  0  0  0  0  0  0  0  0  0
   10.7910  -16.6787   29.2485 O   0  0  0  0  0  0  0  0  0  0  0  0
   14.1700  -15.5354   24.5890 O   0  0  0  0  0  0  0  0  0  0  0  0
   10.4485  -14.4666   28.9585 O   0  0  0  0  0  0  0  0  0  0  0  0
  2  8  1  0
  2  1  1  6
  3  2  1  0
  4  3  1  0
  5  4  1  0
  6  5  1  0
  6  7  1  0
  8  9  2  0
 10 11  1  0
 10  8  1  0
 12 13  1  0
 11 12  1  1
 14 15  2  0
 14 11  1  0
 16 14  1  0
 17 16  1  0
 17 22  1  0
 17 18  1  6
 19 20  1  0
 19 18  1  0
 20 21  2  0
 22 25  1  0
 23 22  2  0
 24 20  1  0
M  END
$$$$
