KCE.pdb
     RDKit          3D

 25 24  0  0  1  0  0  0  0  0999 V2000
    7.7336  -12.9648   17.8519 N   0  0  0  0  0  0  0  0  0  0  0  0
    7.7974  -14.1520   18.5771 C   0  0  1  0  0  0  0  0  0  0  0  0
    8.1781  -15.3631   17.8386 C   0  0  0  0  0  0  0  0  0  0  0  0
    7.6332  -15.7461   16.5684 C   0  0  0  0  0  0  0  0  0  0  0  0
    7.7879  -16.8724   15.7073 C   0  0  0  0  0  0  0  0  0  0  0  0
    7.2300  -17.1206   14.3855 C   0  0  0  0  0  0  0  0  0  0  0  0
    7.6313  -18.3134   13.7267 N   0  0  0  0  0  0  0  0  0  0  0  0
    8.5695  -14.0142   19.8645 C   0  0  0  0  0  0  0  0  0  0  0  0
    9.7098  -13.4933   19.8207 O   0  0  0  0  0  0  0  0  0  0  0  0
    8.1042  -14.4285   21.1198 N   0  0  0  0  0  0  0  0  0  0  0  0
    8.7925  -14.2809   22.3583 C   0  0  1  0  0  0  0  0  0  0  0  0
    7.9146  -13.9885   23.5344 C   0  0  0  0  0  0  0  0  0  0  0  0
    6.4850  -15.0543   23.6492 S   0  0  0  0  0  0  0  0  0  0  0  0
    9.6766  -15.4490   22.5757 C   0  0  0  0  0  0  0  0  0  0  0  0
    9.3614  -16.5856   22.1337 O   0  0  0  0  0  0  0  0  0  0  0  0
   10.9150  -15.3699   23.2830 N   0  0  0  0  0  0  0  0  0  0  0  0
   11.7797  -16.4894   23.4934 C   0  0  1  0  0  0  0  0  0  0  0  0
   13.2384  -16.0520   23.3271 C   0  0  0  0  0  0  0  0  0  0  0  0
   14.1782  -17.1963   23.6353 C   0  0  0  0  0  0  0  0  0  0  0  0
   15.5598  -16.6891   23.4147 C   0  0  0  0  0  0  0  0  0  0  0  0
   15.9832  -16.3099   22.2922 O   0  0  0  0  0  0  0  0  0  0  0  0
   11.5747  -17.1325   24.8150 C   0  0  0  0  0  0  0  0  0  0  0  0
   10.9218  -16.5082   25.6858 O   0  0  0  0  0  0  0  0  0  0  0  0
   16.4805  -16.6069   24.4732 O   0  0  0  0  0  0  0  0  0  0  0  0
   12.0594  -18.3831   25.1517 O   0  0  0  0  0  0  0  0  0  0  0  0
  2  8  1  0
  2  1  1  6
  3  2  1  0
  4  3  1  0
  5  4  1  0
  6  5  1  0
  6  7  1  0
  8  9  2  0
 10 11  1  0
 10  8  1  0
 12 13  1  0
 11 12  1  1
 14 15  2  0
 14 11  1  0
 16 14  1  0
 17 16  1  0
 17 22  1  0
 17 18  1  1
 19 20  1  0
 19 18  1  0
 20 21  2  0
 22 25  1  0
 23 22  2  0
 24 20  1  0
M  END
$$$$
