KCE.pdb
     RDKit          3D

 25 24  0  0  1  0  0  0  0  0999 V2000
    9.7653  -17.4542   18.6935 N   0  0  0  0  0  0  0  0  0  0  0  0
    9.0438  -17.6720   19.8646 C   0  0  1  0  0  0  0  0  0  0  0  0
    8.3227  -18.9469   19.9743 C   0  0  0  0  0  0  0  0  0  0  0  0
    8.3354  -19.9769   18.9764 C   0  0  0  0  0  0  0  0  0  0  0  0
    7.7240  -21.2590   18.8481 C   0  0  0  0  0  0  0  0  0  0  0  0
    7.8002  -22.2252   17.7615 C   0  0  0  0  0  0  0  0  0  0  0  0
    7.1817  -23.4865   17.9718 N   0  0  0  0  0  0  0  0  0  0  0  0
    9.8371  -17.3674   21.1097 C   0  0  0  0  0  0  0  0  0  0  0  0
   11.0882  -17.4351   21.0485 O   0  0  0  0  0  0  0  0  0  0  0  0
    9.2762  -17.0104   22.3433 N   0  0  0  0  0  0  0  0  0  0  0  0
    9.9915  -16.5529   23.4872 C   0  0  1  0  0  0  0  0  0  0  0  0
    9.4805  -15.2770   24.0791 C   0  0  0  0  0  0  0  0  0  0  0  0
    7.8089  -15.3891   24.7001 S   0  0  0  0  0  0  0  0  0  0  0  0
   10.0921  -17.6482   24.4789 C   0  0  0  0  0  0  0  0  0  0  0  0
    9.1079  -18.3997   24.7098 O   0  0  0  0  0  0  0  0  0  0  0  0
   11.2806  -17.9211   25.2227 N   0  0  0  0  0  0  0  0  0  0  0  0
   11.3854  -18.9673   26.1922 C   0  0  1  0  0  0  0  0  0  0  0  0
   12.8108  -19.5288   26.1920 C   0  0  0  0  0  0  0  0  0  0  0  0
   13.1316  -20.1726   24.8616 C   0  0  0  0  0  0  0  0  0  0  0  0
   14.5136  -20.7141   24.9682 C   0  0  0  0  0  0  0  0  0  0  0  0
   14.8580  -21.5570   25.8367 O   0  0  0  0  0  0  0  0  0  0  0  0
   10.9974  -18.5275   27.5553 C   0  0  0  0  0  0  0  0  0  0  0  0
   10.8156  -17.3024   27.7563 O   0  0  0  0  0  0  0  0  0  0  0  0
   15.5252  -20.3014   24.0843 O   0  0  0  0  0  0  0  0  0  0  0  0
   10.8220  -19.3854   28.6257 O   0  0  0  0  0  0  0  0  0  0  0  0
  2  8  1  0
  2  1  1  6
  3  2  1  0
  4  3  1  0
  5  4  1  0
  6  5  1  0
  6  7  1  0
  8  9  2  0
 10 11  1  0
 10  8  1  0
 12 13  1  0
 11 12  1  1
 14 15  2  0
 14 11  1  0
 16 14  1  0
 17 16  1  0
 17 22  1  0
 17 18  1  1
 19 20  1  0
 19 18  1  0
 20 21  2  0
 22 25  1  0
 23 22  2  0
 24 20  1  0
M  END
$$$$
