KCE.pdb
     RDKit          3D

 25 24  0  0  1  0  0  0  0  0999 V2000
    7.9173  -16.1997   22.2267 N   0  0  0  0  0  0  0  0  0  0  0  0
    9.2507  -16.5809   22.3543 C   0  0  1  0  0  0  0  0  0  0  0  0
   10.1408  -16.2755   21.2267 C   0  0  0  0  0  0  0  0  0  0  0  0
   10.1211  -16.9599   19.9665 C   0  0  0  0  0  0  0  0  0  0  0  0
   11.1032  -17.6046   19.1578 C   0  0  0  0  0  0  0  0  0  0  0  0
   11.0069  -18.1063   17.7943 C   0  0  0  0  0  0  0  0  0  0  0  0
   12.1774  -18.6820   17.2319 N   0  0  0  0  0  0  0  0  0  0  0  0
    9.8558  -16.1722   23.6731 C   0  0  0  0  0  0  0  0  0  0  0  0
   11.0739  -16.4028   23.8649 O   0  0  0  0  0  0  0  0  0  0  0  0
    9.1525  -15.5476   24.7119 N   0  0  0  0  0  0  0  0  0  0  0  0
    9.6931  -15.1513   25.9690 C   0  0  1  0  0  0  0  0  0  0  0  0
    8.9858  -14.0070   26.6247 C   0  0  0  0  0  0  0  0  0  0  0  0
    9.6709  -13.5495   28.2102 S   0  0  0  0  0  0  0  0  0  0  0  0
    9.8146  -16.3348   26.8510 C   0  0  0  0  0  0  0  0  0  0  0  0
    8.7893  -16.9486   27.2490 O   0  0  0  0  0  0  0  0  0  0  0  0
   11.0697  -16.8486   27.2994 N   0  0  0  0  0  0  0  0  0  0  0  0
   11.1969  -17.9113   28.2481 C   0  0  1  0  0  0  0  0  0  0  0  0
   12.4327  -18.7534   27.9155 C   0  0  0  0  0  0  0  0  0  0  0  0
   12.3398  -19.3076   26.5114 C   0  0  0  0  0  0  0  0  0  0  0  0
   13.5836  -20.0899   26.2749 C   0  0  0  0  0  0  0  0  0  0  0  0
   14.2960  -19.9565   25.2464 O   0  0  0  0  0  0  0  0  0  0  0  0
   11.2573  -17.4257   29.6491 C   0  0  0  0  0  0  0  0  0  0  0  0
   11.3073  -18.2746   30.5717 O   0  0  0  0  0  0  0  0  0  0  0  0
   14.0338  -21.0375   27.2099 O   0  0  0  0  0  0  0  0  0  0  0  0
   11.2620  -16.0898   30.0066 O   0  0  0  0  0  0  0  0  0  0  0  0
  2  8  1  0
  2  1  1  6
  3  2  1  0
  4  3  1  0
  5  4  1  0
  6  5  1  0
  6  7  1  0
  8  9  2  0
 10 11  1  0
 10  8  1  0
 12 13  1  0
 11 12  1  1
 14 15  2  0
 14 11  1  0
 16 14  1  0
 17 16  1  0
 17 22  1  0
 17 18  1  6
 19 20  1  0
 19 18  1  0
 20 21  2  0
 22 25  1  0
 23 22  2  0
 24 20  1  0
M  END
$$$$
