KCE.pdb
     RDKit          3D

 25 24  0  0  1  0  0  0  0  0999 V2000
    9.0478  -17.7874   17.6471 N   0  0  0  0  0  0  0  0  0  0  0  0
    8.9098  -18.1050   18.9959 C   0  0  1  0  0  0  0  0  0  0  0  0
    9.0693  -19.5172   19.3666 C   0  0  0  0  0  0  0  0  0  0  0  0
    8.4222  -20.6107   18.7015 C   0  0  0  0  0  0  0  0  0  0  0  0
    7.4062  -20.7221   17.7067 C   0  0  0  0  0  0  0  0  0  0  0  0
    6.8882  -21.9023   17.0294 C   0  0  0  0  0  0  0  0  0  0  0  0
    5.8700  -21.6981   16.0602 N   0  0  0  0  0  0  0  0  0  0  0  0
    9.7032  -17.1951   19.8988 C   0  0  0  0  0  0  0  0  0  0  0  0
   10.8713  -16.8906   19.5576 O   0  0  0  0  0  0  0  0  0  0  0  0
    9.2290  -16.6582   21.1032 N   0  0  0  0  0  0  0  0  0  0  0  0
    9.9405  -15.7724   21.9626 C   0  0  1  0  0  0  0  0  0  0  0  0
    9.0815  -14.9701   22.8888 C   0  0  0  0  0  0  0  0  0  0  0  0
    8.1029  -15.9633   24.0061 S   0  0  0  0  0  0  0  0  0  0  0  0
   11.0081  -16.5180   22.6680 C   0  0  0  0  0  0  0  0  0  0  0  0
   10.8858  -17.7496   22.9022 O   0  0  0  0  0  0  0  0  0  0  0  0
   12.2184  -15.9085   23.1198 N   0  0  0  0  0  0  0  0  0  0  0  0
   13.3108  -16.6395   23.6834 C   0  0  1  0  0  0  0  0  0  0  0  0
   14.6072  -15.8413   23.5127 C   0  0  0  0  0  0  0  0  0  0  0  0
   15.7879  -16.6177   24.0516 C   0  0  0  0  0  0  0  0  0  0  0  0
   17.0121  -15.9771   23.4988 C   0  0  0  0  0  0  0  0  0  0  0  0
   17.0109  -14.8402   22.9597 O   0  0  0  0  0  0  0  0  0  0  0  0
   13.0944  -16.9856   25.1101 C   0  0  0  0  0  0  0  0  0  0  0  0
   13.8670  -17.8173   25.6446 O   0  0  0  0  0  0  0  0  0  0  0  0
   18.2580  -16.6250   23.5529 O   0  0  0  0  0  0  0  0  0  0  0  0
   12.0902  -16.4478   25.8942 O   0  0  0  0  0  0  0  0  0  0  0  0
  2  8  1  0
  2  1  1  6
  3  2  1  0
  4  3  1  0
  5  4  1  0
  6  5  1  0
  6  7  1  0
  8  9  2  0
 10 11  1  0
 10  8  1  0
 12 13  1  0
 11 12  1  1
 14 15  2  0
 14 11  1  0
 16 14  1  0
 17 16  1  0
 17 22  1  0
 17 18  1  1
 19 20  1  0
 19 18  1  0
 20 21  2  0
 22 25  1  0
 23 22  2  0
 24 20  1  0
M  END
$$$$
