KCE.pdb
     RDKit          3D

 25 24  0  0  1  0  0  0  0  0999 V2000
    7.8353  -16.4934   20.3982 N   0  0  0  0  0  0  0  0  0  0  0  0
    9.1811  -16.2789   20.6848 C   0  0  1  0  0  0  0  0  0  0  0  0
   10.0418  -15.8673   19.5681 C   0  0  0  0  0  0  0  0  0  0  0  0
   10.0532  -16.4918   18.2771 C   0  0  0  0  0  0  0  0  0  0  0  0
    9.2735  -17.5045   17.6439 C   0  0  0  0  0  0  0  0  0  0  0  0
    9.2784  -17.9581   16.2604 C   0  0  0  0  0  0  0  0  0  0  0  0
    8.2760  -18.8903   15.8810 N   0  0  0  0  0  0  0  0  0  0  0  0
    9.3930  -15.4172   21.9034 C   0  0  0  0  0  0  0  0  0  0  0  0
   10.5589  -15.0356   22.1660 O   0  0  0  0  0  0  0  0  0  0  0  0
    8.3749  -15.0060   22.7742 N   0  0  0  0  0  0  0  0  0  0  0  0
    8.5553  -14.5018   24.0943 C   0  0  1  0  0  0  0  0  0  0  0  0
    7.3680  -13.7902   24.6630 C   0  0  0  0  0  0  0  0  0  0  0  0
    7.5253  -13.3999   26.3995 S   0  0  0  0  0  0  0  0  0  0  0  0
    9.0538  -15.5841   24.9738 C   0  0  0  0  0  0  0  0  0  0  0  0
    8.3588  -16.6132   25.1848 O   0  0  0  0  0  0  0  0  0  0  0  0
   10.3235  -15.5373   25.6264 N   0  0  0  0  0  0  0  0  0  0  0  0
   10.8180  -16.5790   26.4724 C   0  0  1  0  0  0  0  0  0  0  0  0
   12.1383  -17.1157   25.9105 C   0  0  0  0  0  0  0  0  0  0  0  0
   13.0920  -15.9809   25.6098 C   0  0  0  0  0  0  0  0  0  0  0  0
   14.2397  -16.5693   24.8674 C   0  0  0  0  0  0  0  0  0  0  0  0
   14.9226  -17.5313   25.3049 O   0  0  0  0  0  0  0  0  0  0  0  0
   10.9886  -16.1425   27.8804 C   0  0  0  0  0  0  0  0  0  0  0  0
   11.4314  -16.9718   28.7112 O   0  0  0  0  0  0  0  0  0  0  0  0
   14.6261  -16.0681   23.6126 O   0  0  0  0  0  0  0  0  0  0  0  0
   10.6892  -14.8729   28.3396 O   0  0  0  0  0  0  0  0  0  0  0  0
  2  8  1  0
  2  1  1  6
  3  2  1  0
  4  3  1  0
  5  4  1  0
  6  5  1  0
  6  7  1  0
  8  9  2  0
 10 11  1  0
 10  8  1  0
 12 13  1  0
 11 12  1  1
 14 15  2  0
 14 11  1  0
 16 14  1  0
 17 16  1  0
 17 22  1  0
 17 18  1  6
 19 20  1  0
 19 18  1  0
 20 21  2  0
 22 25  1  0
 23 22  2  0
 24 20  1  0
M  END
$$$$
