KCE.pdb
     RDKit          3D

 25 24  0  0  1  0  0  0  0  0999 V2000
    6.4835  -15.6308   21.0325 N   0  0  0  0  0  0  0  0  0  0  0  0
    7.8054  -15.1925   21.0276 C   0  0  1  0  0  0  0  0  0  0  0  0
    8.2305  -14.3736   19.8849 C   0  0  0  0  0  0  0  0  0  0  0  0
    7.8901  -14.6451   18.5184 C   0  0  0  0  0  0  0  0  0  0  0  0
    7.6662  -13.8432   17.3604 C   0  0  0  0  0  0  0  0  0  0  0  0
    8.2636  -13.9294   16.0354 C   0  0  0  0  0  0  0  0  0  0  0  0
    7.8141  -12.9990   15.0606 N   0  0  0  0  0  0  0  0  0  0  0  0
    8.2289  -14.5857   22.3410 C   0  0  0  0  0  0  0  0  0  0  0  0
    9.3930  -14.1280   22.4361 O   0  0  0  0  0  0  0  0  0  0  0  0
    7.4114  -14.4935   23.4754 N   0  0  0  0  0  0  0  0  0  0  0  0
    7.8280  -14.0911   24.7770 C   0  0  1  0  0  0  0  0  0  0  0  0
    6.7839  -13.3799   25.5792 C   0  0  0  0  0  0  0  0  0  0  0  0
    7.2803  -13.0299   27.2596 S   0  0  0  0  0  0  0  0  0  0  0  0
    8.4121  -15.2501   25.4903 C   0  0  0  0  0  0  0  0  0  0  0  0
    7.7303  -16.2889   25.6967 O   0  0  0  0  0  0  0  0  0  0  0  0
    9.7535  -15.2698   25.9808 N   0  0  0  0  0  0  0  0  0  0  0  0
   10.3093  -16.3585   26.7232 C   0  0  1  0  0  0  0  0  0  0  0  0
   11.4010  -17.0428   25.8944 C   0  0  0  0  0  0  0  0  0  0  0  0
   12.4408  -16.0395   25.4475 C   0  0  0  0  0  0  0  0  0  0  0  0
   13.4030  -16.7743   24.5821 C   0  0  0  0  0  0  0  0  0  0  0  0
   13.2875  -17.9967   24.3072 O   0  0  0  0  0  0  0  0  0  0  0  0
   10.8410  -15.9403   28.0439 C   0  0  0  0  0  0  0  0  0  0  0  0
   11.3158  -16.8214   28.8006 O   0  0  0  0  0  0  0  0  0  0  0  0
   14.5132  -16.1244   24.0165 O   0  0  0  0  0  0  0  0  0  0  0  0
   10.8474  -14.6342   28.4983 O   0  0  0  0  0  0  0  0  0  0  0  0
  2  8  1  0
  2  1  1  1
  3  2  1  0
  4  3  1  0
  5  4  1  0
  6  5  1  0
  6  7  1  0
  8  9  2  0
 10 11  1  0
 10  8  1  0
 12 13  1  0
 11 12  1  1
 14 15  2  0
 14 11  1  0
 16 14  1  0
 17 16  1  0
 17 22  1  0
 17 18  1  6
 19 20  1  0
 19 18  1  0
 20 21  2  0
 22 25  1  0
 23 22  2  0
 24 20  1  0
M  END
$$$$
