KCE.pdb
     RDKit          3D

 25 24  0  0  1  0  0  0  0  0999 V2000
    5.7401  -14.5563   21.4160 N   0  0  0  0  0  0  0  0  0  0  0  0
    7.0458  -14.9715   21.6650 C   0  0  1  0  0  0  0  0  0  0  0  0
    7.9979  -14.8770   20.5507 C   0  0  0  0  0  0  0  0  0  0  0  0
    7.6560  -14.4589   19.2221 C   0  0  0  0  0  0  0  0  0  0  0  0
    8.3018  -13.6811   18.2161 C   0  0  0  0  0  0  0  0  0  0  0  0
    7.8758  -13.3712   16.8587 C   0  0  0  0  0  0  0  0  0  0  0  0
    8.7999  -12.6775   16.0324 N   0  0  0  0  0  0  0  0  0  0  0  0
    7.6133  -14.3968   22.9379 C   0  0  0  0  0  0  0  0  0  0  0  0
    8.0533  -13.2222   22.9151 O   0  0  0  0  0  0  0  0  0  0  0  0
    7.6871  -15.0831   24.1574 N   0  0  0  0  0  0  0  0  0  0  0  0
    8.4228  -14.6723   25.3061 C   0  0  1  0  0  0  0  0  0  0  0  0
    7.7828  -13.5806   26.1050 C   0  0  0  0  0  0  0  0  0  0  0  0
    6.0047  -13.5155   25.9418 S   0  0  0  0  0  0  0  0  0  0  0  0
    8.7673  -15.8582   26.1237 C   0  0  0  0  0  0  0  0  0  0  0  0
    8.4345  -17.0147   25.7519 O   0  0  0  0  0  0  0  0  0  0  0  0
    9.4818  -15.7748   27.3577 N   0  0  0  0  0  0  0  0  0  0  0  0
   10.3538  -16.8012   27.8387 C   0  0  1  0  0  0  0  0  0  0  0  0
   11.3563  -17.1801   26.7441 C   0  0  0  0  0  0  0  0  0  0  0  0
   10.9622  -18.4836   26.0861 C   0  0  0  0  0  0  0  0  0  0  0  0
   12.0376  -19.4643   26.3965 C   0  0  0  0  0  0  0  0  0  0  0  0
   12.5873  -20.1833   25.5224 O   0  0  0  0  0  0  0  0  0  0  0  0
   11.0616  -16.4156   29.0846 C   0  0  0  0  0  0  0  0  0  0  0  0
   11.3000  -15.1996   29.2818 O   0  0  0  0  0  0  0  0  0  0  0  0
   12.5028  -19.6396   27.7109 O   0  0  0  0  0  0  0  0  0  0  0  0
   11.4786  -17.3148   30.0490 O   0  0  0  0  0  0  0  0  0  0  0  0
  2  8  1  0
  2  1  1  6
  3  2  1  0
  4  3  1  0
  5  4  1  0
  6  5  1  0
  6  7  1  0
  8  9  2  0
 10 11  1  0
 10  8  1  0
 12 13  1  0
 11 12  1  1
 14 15  2  0
 14 11  1  0
 16 14  1  0
 17 16  1  0
 17 22  1  0
 17 18  1  6
 19 20  1  0
 19 18  1  0
 20 21  2  0
 22 25  1  0
 23 22  2  0
 24 20  1  0
M  END
$$$$
