KCE.pdb
     RDKit          3D

 25 24  0  0  1  0  0  0  0  0999 V2000
    6.6085  -17.4883   18.8367 N   0  0  0  0  0  0  0  0  0  0  0  0
    7.9776  -17.7063   18.9691 C   0  0  1  0  0  0  0  0  0  0  0  0
    8.7624  -17.7802   17.7299 C   0  0  0  0  0  0  0  0  0  0  0  0
    9.5375  -18.9168   17.3247 C   0  0  0  0  0  0  0  0  0  0  0  0
    9.2872  -20.3167   17.2167 C   0  0  0  0  0  0  0  0  0  0  0  0
   10.1160  -21.3725   16.6525 C   0  0  0  0  0  0  0  0  0  0  0  0
    9.6533  -22.7074   16.7997 N   0  0  0  0  0  0  0  0  0  0  0  0
    8.6217  -16.8008   19.9878 C   0  0  0  0  0  0  0  0  0  0  0  0
    9.7985  -16.4177   19.7826 O   0  0  0  0  0  0  0  0  0  0  0  0
    7.9982  -16.3501   21.1591 N   0  0  0  0  0  0  0  0  0  0  0  0
    8.5792  -15.4985   22.1423 C   0  0  1  0  0  0  0  0  0  0  0  0
    7.5956  -14.7683   23.0018 C   0  0  0  0  0  0  0  0  0  0  0  0
    8.3399  -13.9166   24.3850 S   0  0  0  0  0  0  0  0  0  0  0  0
    9.5778  -16.2589   22.9283 C   0  0  0  0  0  0  0  0  0  0  0  0
    9.2779  -17.3644   23.4522 O   0  0  0  0  0  0  0  0  0  0  0  0
   10.9149  -15.8036   23.1411 N   0  0  0  0  0  0  0  0  0  0  0  0
   11.9157  -16.5725   23.8137 C   0  0  1  0  0  0  0  0  0  0  0  0
   13.3040  -16.0224   23.4719 C   0  0  0  0  0  0  0  0  0  0  0  0
   14.3864  -16.9404   23.9945 C   0  0  0  0  0  0  0  0  0  0  0  0
   15.6890  -16.3284   23.6158 C   0  0  0  0  0  0  0  0  0  0  0  0
   15.7930  -15.1659   23.1457 O   0  0  0  0  0  0  0  0  0  0  0  0
   11.7171  -16.6126   25.2837 C   0  0  0  0  0  0  0  0  0  0  0  0
   12.3979  -17.4257   25.9544 O   0  0  0  0  0  0  0  0  0  0  0  0
   16.8944  -17.0346   23.7679 O   0  0  0  0  0  0  0  0  0  0  0  0
   10.8249  -15.8070   25.9673 O   0  0  0  0  0  0  0  0  0  0  0  0
  2  8  1  0
  2  1  1  6
  3  2  1  0
  4  3  1  0
  5  4  1  0
  6  5  1  0
  6  7  1  0
  8  9  2  0
 10 11  1  0
 10  8  1  0
 12 13  1  0
 11 12  1  1
 14 15  2  0
 14 11  1  0
 16 14  1  0
 17 16  1  0
 17 22  1  0
 17 18  1  1
 19 20  1  0
 19 18  1  0
 20 21  2  0
 22 25  1  0
 23 22  2  0
 24 20  1  0
M  END
$$$$
