KCE.pdb
     RDKit          3D

 25 24  0  0  1  0  0  0  0  0999 V2000
    7.4529  -15.5110   18.9899 N   0  0  0  0  0  0  0  0  0  0  0  0
    8.5338  -14.6369   18.9063 C   0  0  1  0  0  0  0  0  0  0  0  0
    8.2913  -13.3386   18.2639 C   0  0  0  0  0  0  0  0  0  0  0  0
    7.7948  -13.1720   16.9287 C   0  0  0  0  0  0  0  0  0  0  0  0
    8.0740  -13.7811   15.6697 C   0  0  0  0  0  0  0  0  0  0  0  0
    7.4693  -13.5490   14.3657 C   0  0  0  0  0  0  0  0  0  0  0  0
    7.9426  -14.3371   13.2828 N   0  0  0  0  0  0  0  0  0  0  0  0
    9.2719  -14.4873   20.2122 C   0  0  0  0  0  0  0  0  0  0  0  0
   10.3522  -13.8497   20.2145 O   0  0  0  0  0  0  0  0  0  0  0  0
    8.8373  -15.0124   21.4366 N   0  0  0  0  0  0  0  0  0  0  0  0
    9.5862  -15.0412   22.6482 C   0  0  1  0  0  0  0  0  0  0  0  0
    8.7862  -15.3518   23.8743 C   0  0  0  0  0  0  0  0  0  0  0  0
    7.4648  -14.1903   24.1861 S   0  0  0  0  0  0  0  0  0  0  0  0
   10.7585  -15.9312   22.4846 C   0  0  0  0  0  0  0  0  0  0  0  0
   10.6923  -16.9548   21.7536 O   0  0  0  0  0  0  0  0  0  0  0  0
   12.0123  -15.6969   23.1275 N   0  0  0  0  0  0  0  0  0  0  0  0
   13.1787  -16.4934   22.9027 C   0  0  1  0  0  0  0  0  0  0  0  0
   13.7538  -16.1848   21.5167 C   0  0  0  0  0  0  0  0  0  0  0  0
   13.9048  -14.6928   21.3206 C   0  0  0  0  0  0  0  0  0  0  0  0
   14.5559  -14.4969   19.9969 C   0  0  0  0  0  0  0  0  0  0  0  0
   15.6054  -15.0981   19.6499 O   0  0  0  0  0  0  0  0  0  0  0  0
   14.2124  -16.3060   23.9508 C   0  0  0  0  0  0  0  0  0  0  0  0
   15.2575  -16.9973   23.8864 O   0  0  0  0  0  0  0  0  0  0  0  0
   14.0186  -13.6109   19.0477 O   0  0  0  0  0  0  0  0  0  0  0  0
   14.0983  -15.4133   25.0008 O   0  0  0  0  0  0  0  0  0  0  0  0
  2  8  1  0
  2  1  1  1
  3  2  1  0
  4  3  1  0
  5  4  1  0
  6  5  1  0
  6  7  1  0
  8  9  2  0
 10 11  1  0
 10  8  1  0
 12 13  1  0
 11 12  1  1
 14 15  2  0
 14 11  1  0
 16 14  1  0
 17 16  1  0
 17 22  1  0
 17 18  1  6
 19 20  1  0
 19 18  1  0
 20 21  2  0
 22 25  1  0
 23 22  2  0
 24 20  1  0
M  END
$$$$
