KCE.pdb
     RDKit          3D

 25 24  0  0  1  0  0  0  0  0999 V2000
    6.6299  -15.5402   21.0810 N   0  0  0  0  0  0  0  0  0  0  0  0
    7.7306  -14.6913   20.9969 C   0  0  1  0  0  0  0  0  0  0  0  0
    7.6364  -13.5715   20.0512 C   0  0  0  0  0  0  0  0  0  0  0  0
    7.1539  -13.6822   18.7052 C   0  0  0  0  0  0  0  0  0  0  0  0
    7.7668  -13.7166   17.4178 C   0  0  0  0  0  0  0  0  0  0  0  0
    7.1606  -13.6902   16.0942 C   0  0  0  0  0  0  0  0  0  0  0  0
    8.0397  -13.7169   14.9787 N   0  0  0  0  0  0  0  0  0  0  0  0
    8.2340  -14.2452   22.3461 C   0  0  0  0  0  0  0  0  0  0  0  0
    9.3767  -13.7321   22.4140 O   0  0  0  0  0  0  0  0  0  0  0  0
    7.5138  -14.3618   23.5425 N   0  0  0  0  0  0  0  0  0  0  0  0
    7.9624  -13.9567   24.8326 C   0  0  1  0  0  0  0  0  0  0  0  0
    6.8973  -13.3937   25.7203 C   0  0  0  0  0  0  0  0  0  0  0  0
    7.4424  -13.0850   27.3937 S   0  0  0  0  0  0  0  0  0  0  0  0
    8.7139  -15.0646   25.4659 C   0  0  0  0  0  0  0  0  0  0  0  0
    8.1342  -16.1373   25.7819 O   0  0  0  0  0  0  0  0  0  0  0  0
   10.1111  -14.9955   25.7547 N   0  0  0  0  0  0  0  0  0  0  0  0
   10.8655  -16.0893   26.2835 C   0  0  1  0  0  0  0  0  0  0  0  0
   12.2472  -16.1291   25.6229 C   0  0  0  0  0  0  0  0  0  0  0  0
   13.0914  -17.2354   26.2152 C   0  0  0  0  0  0  0  0  0  0  0  0
   14.4156  -17.1747   25.5389 C   0  0  0  0  0  0  0  0  0  0  0  0
   14.9405  -16.1002   25.1477 O   0  0  0  0  0  0  0  0  0  0  0  0
   10.9942  -16.0367   27.7609 C   0  0  0  0  0  0  0  0  0  0  0  0
   10.7574  -14.9495   28.3407 O   0  0  0  0  0  0  0  0  0  0  0  0
   15.1619  -18.3409   25.2983 O   0  0  0  0  0  0  0  0  0  0  0  0
   11.3606  -17.1149   28.5456 O   0  0  0  0  0  0  0  0  0  0  0  0
  2  8  1  0
  2  1  1  1
  3  2  1  0
  4  3  1  0
  5  4  1  0
  6  5  1  0
  6  7  1  0
  8  9  2  0
 10 11  1  0
 10  8  1  0
 12 13  1  0
 11 12  1  1
 14 15  2  0
 14 11  1  0
 16 14  1  0
 17 16  1  0
 17 22  1  0
 17 18  1  6
 19 20  1  0
 19 18  1  0
 20 21  2  0
 22 25  1  0
 23 22  2  0
 24 20  1  0
M  END
$$$$
