KCE.pdb
     RDKit          3D

 25 24  0  0  1  0  0  0  0  0999 V2000
    7.9703  -14.7922   20.3009 N   0  0  0  0  0  0  0  0  0  0  0  0
    7.5519  -15.4461   21.4571 C   0  0  1  0  0  0  0  0  0  0  0  0
    7.6881  -16.9083   21.4807 C   0  0  0  0  0  0  0  0  0  0  0  0
    6.9655  -17.8063   20.6274 C   0  0  0  0  0  0  0  0  0  0  0  0
    6.8520  -19.2245   20.5273 C   0  0  0  0  0  0  0  0  0  0  0  0
    6.0681  -20.0358   19.6068 C   0  0  0  0  0  0  0  0  0  0  0  0
    6.1847  -21.4464   19.7264 N   0  0  0  0  0  0  0  0  0  0  0  0
    8.0851  -14.8127   22.7169 C   0  0  0  0  0  0  0  0  0  0  0  0
    9.3231  -14.6356   22.8150 O   0  0  0  0  0  0  0  0  0  0  0  0
    7.2934  -14.4026   23.7981 N   0  0  0  0  0  0  0  0  0  0  0  0
    7.7601  -13.7628   24.9823 C   0  0  1  0  0  0  0  0  0  0  0  0
    6.7230  -12.9793   25.7239 C   0  0  0  0  0  0  0  0  0  0  0  0
    7.2806  -12.3610   27.3048 S   0  0  0  0  0  0  0  0  0  0  0  0
    8.4561  -14.7514   25.8377 C   0  0  0  0  0  0  0  0  0  0  0  0
    7.8849  -15.8201   26.1813 O   0  0  0  0  0  0  0  0  0  0  0  0
    9.7879  -14.5663   26.3196 N   0  0  0  0  0  0  0  0  0  0  0  0
   10.4599  -15.5007   27.1685 C   0  0  1  0  0  0  0  0  0  0  0  0
   11.9276  -15.6179   26.7455 C   0  0  0  0  0  0  0  0  0  0  0  0
   12.1271  -16.8052   25.8302 C   0  0  0  0  0  0  0  0  0  0  0  0
   13.2434  -16.4560   24.9101 C   0  0  0  0  0  0  0  0  0  0  0  0
   13.9134  -15.3958   25.0114 O   0  0  0  0  0  0  0  0  0  0  0  0
   10.3572  -15.1470   28.6060 C   0  0  0  0  0  0  0  0  0  0  0  0
   10.9095  -15.8989   29.4450 O   0  0  0  0  0  0  0  0  0  0  0  0
   13.6127  -17.3125   23.8589 O   0  0  0  0  0  0  0  0  0  0  0  0
    9.6882  -14.0353   29.0845 O   0  0  0  0  0  0  0  0  0  0  0  0
  2  8  1  0
  2  1  1  6
  3  2  1  0
  4  3  1  0
  5  4  1  0
  6  5  1  0
  6  7  1  0
  8  9  2  0
 10 11  1  0
 10  8  1  0
 12 13  1  0
 11 12  1  1
 14 15  2  0
 14 11  1  0
 16 14  1  0
 17 16  1  0
 17 22  1  0
 17 18  1  6
 19 20  1  0
 19 18  1  0
 20 21  2  0
 22 25  1  0
 23 22  2  0
 24 20  1  0
M  END
$$$$
