KCE.pdb
     RDKit          3D

 25 24  0  0  1  0  0  0  0  0999 V2000
    8.5897  -15.7343   20.6612 N   0  0  0  0  0  0  0  0  0  0  0  0
    7.8520  -15.9487   21.8228 C   0  0  1  0  0  0  0  0  0  0  0  0
    7.7068  -17.3397   22.2714 C   0  0  0  0  0  0  0  0  0  0  0  0
    7.7902  -18.4844   21.4114 C   0  0  0  0  0  0  0  0  0  0  0  0
    8.8298  -19.3863   21.0371 C   0  0  0  0  0  0  0  0  0  0  0  0
    8.7716  -20.5918   20.2227 C   0  0  0  0  0  0  0  0  0  0  0  0
    8.8240  -21.8370   20.9043 N   0  0  0  0  0  0  0  0  0  0  0  0
    8.2536  -15.0343   22.9519 C   0  0  0  0  0  0  0  0  0  0  0  0
    9.4629  -14.9949   23.2833 O   0  0  0  0  0  0  0  0  0  0  0  0
    7.3684  -14.2163   23.6668 N   0  0  0  0  0  0  0  0  0  0  0  0
    7.6403  -13.5730   24.9085 C   0  0  1  0  0  0  0  0  0  0  0  0
    6.5662  -12.6460   25.3846 C   0  0  0  0  0  0  0  0  0  0  0  0
    6.8660  -11.9705   27.0113 S   0  0  0  0  0  0  0  0  0  0  0  0
    8.0154  -14.5876   25.9200 C   0  0  0  0  0  0  0  0  0  0  0  0
    7.5044  -15.7387   25.8971 O   0  0  0  0  0  0  0  0  0  0  0  0
    8.9578  -14.3379   26.9640 N   0  0  0  0  0  0  0  0  0  0  0  0
    9.5770  -15.3706   27.7357 C   0  0  1  0  0  0  0  0  0  0  0  0
   10.4231  -16.2608   26.8199 C   0  0  0  0  0  0  0  0  0  0  0  0
   11.0770  -17.3722   27.6101 C   0  0  0  0  0  0  0  0  0  0  0  0
   11.8406  -18.1997   26.6370 C   0  0  0  0  0  0  0  0  0  0  0  0
   12.5734  -19.1638   26.9787 O   0  0  0  0  0  0  0  0  0  0  0  0
   10.3980  -14.8392   28.8517 C   0  0  0  0  0  0  0  0  0  0  0  0
   11.0106  -15.6558   29.5813 O   0  0  0  0  0  0  0  0  0  0  0  0
   11.7794  -17.9393   25.2575 O   0  0  0  0  0  0  0  0  0  0  0  0
   10.5331  -13.4939   29.1420 O   0  0  0  0  0  0  0  0  0  0  0  0
  2  8  1  0
  2  1  1  6
  3  2  1  0
  4  3  1  0
  5  4  1  0
  6  5  1  0
  6  7  1  0
  8  9  2  0
 10 11  1  0
 10  8  1  0
 12 13  1  0
 11 12  1  1
 14 15  2  0
 14 11  1  0
 16 14  1  0
 17 16  1  0
 17 22  1  0
 17 18  1  6
 19 20  1  0
 19 18  1  0
 20 21  2  0
 22 25  1  0
 23 22  2  0
 24 20  1  0
M  END
$$$$
