KCE.pdb
     RDKit          3D

 25 24  0  0  1  0  0  0  0  0999 V2000
    8.5842  -15.4756   19.9417 N   0  0  0  0  0  0  0  0  0  0  0  0
    8.0590  -16.0142   21.1136 C   0  0  1  0  0  0  0  0  0  0  0  0
    8.0870  -17.4768   21.2446 C   0  0  0  0  0  0  0  0  0  0  0  0
    7.2592  -18.3765   20.4948 C   0  0  0  0  0  0  0  0  0  0  0  0
    5.9981  -19.0040   20.7183 C   0  0  0  0  0  0  0  0  0  0  0  0
    5.2372  -19.9020   19.8613 C   0  0  0  0  0  0  0  0  0  0  0  0
    4.0013  -20.3869   20.3664 N   0  0  0  0  0  0  0  0  0  0  0  0
    8.5696  -15.3299   22.3560 C   0  0  0  0  0  0  0  0  0  0  0  0
    9.8050  -15.1421   22.4659 O   0  0  0  0  0  0  0  0  0  0  0  0
    7.7594  -14.8831   23.4086 N   0  0  0  0  0  0  0  0  0  0  0  0
    8.2098  -14.2368   24.5956 C   0  0  1  0  0  0  0  0  0  0  0  0
    7.1859  -13.3805   25.2722 C   0  0  0  0  0  0  0  0  0  0  0  0
    7.7382  -12.6860   26.8231 S   0  0  0  0  0  0  0  0  0  0  0  0
    8.8157  -15.2369   25.5044 C   0  0  0  0  0  0  0  0  0  0  0  0
    8.1094  -16.1332   26.0377 O   0  0  0  0  0  0  0  0  0  0  0  0
   10.2063  -15.2541   25.8306 N   0  0  0  0  0  0  0  0  0  0  0  0
   10.7986  -16.2012   26.7237 C   0  0  1  0  0  0  0  0  0  0  0  0
   12.3171  -16.2192   26.5222 C   0  0  0  0  0  0  0  0  0  0  0  0
   12.6620  -16.5409   25.0852 C   0  0  0  0  0  0  0  0  0  0  0  0
   14.1421  -16.4421   24.9660 C   0  0  0  0  0  0  0  0  0  0  0  0
   14.8661  -17.3921   24.5701 O   0  0  0  0  0  0  0  0  0  0  0  0
   10.4633  -15.9372   28.1450 C   0  0  0  0  0  0  0  0  0  0  0  0
   10.9104  -16.7203   29.0174 O   0  0  0  0  0  0  0  0  0  0  0  0
   14.8194  -15.2562   25.2970 O   0  0  0  0  0  0  0  0  0  0  0  0
    9.6850  -14.8775   28.5735 O   0  0  0  0  0  0  0  0  0  0  0  0
  2  8  1  0
  2  1  1  6
  3  2  1  0
  4  3  1  0
  5  4  1  0
  6  5  1  0
  6  7  1  0
  8  9  2  0
 10 11  1  0
 10  8  1  0
 12 13  1  0
 11 12  1  1
 14 15  2  0
 14 11  1  0
 16 14  1  0
 17 16  1  0
 17 22  1  0
 17 18  1  1
 19 20  1  0
 19 18  1  0
 20 21  2  0
 22 25  1  0
 23 22  2  0
 24 20  1  0
M  END
$$$$
