KCE.pdb
     RDKit          3D

 25 24  0  0  1  0  0  0  0  0999 V2000
    6.6963  -15.5409   20.0799 N   0  0  0  0  0  0  0  0  0  0  0  0
    7.8211  -14.7204   20.0482 C   0  0  1  0  0  0  0  0  0  0  0  0
    7.7076  -13.4647   19.2948 C   0  0  0  0  0  0  0  0  0  0  0  0
    7.6244  -13.3785   17.8656 C   0  0  0  0  0  0  0  0  0  0  0  0
    7.9153  -14.2651   16.7870 C   0  0  0  0  0  0  0  0  0  0  0  0
    7.8505  -14.0399   15.3499 C   0  0  0  0  0  0  0  0  0  0  0  0
    8.2300  -15.1188   14.5076 N   0  0  0  0  0  0  0  0  0  0  0  0
    8.4302  -14.5042   21.4101 C   0  0  0  0  0  0  0  0  0  0  0  0
    9.4888  -13.8356   21.4882 O   0  0  0  0  0  0  0  0  0  0  0  0
    7.8973  -14.9992   22.6079 N   0  0  0  0  0  0  0  0  0  0  0  0
    8.5403  -14.9855   23.8791 C   0  0  1  0  0  0  0  0  0  0  0  0
    7.6122  -14.9812   25.0530 C   0  0  0  0  0  0  0  0  0  0  0  0
    6.3361  -16.2290   24.9673 S   0  0  0  0  0  0  0  0  0  0  0  0
    9.5406  -16.0759   23.9397 C   0  0  0  0  0  0  0  0  0  0  0  0
    9.3806  -17.1336   23.2747 O   0  0  0  0  0  0  0  0  0  0  0  0
   10.7248  -16.0057   24.7354 N   0  0  0  0  0  0  0  0  0  0  0  0
   11.7458  -17.0071   24.7259 C   0  0  1  0  0  0  0  0  0  0  0  0
   13.0100  -16.4475   24.0659 C   0  0  0  0  0  0  0  0  0  0  0  0
   14.1193  -17.4755   24.0781 C   0  0  0  0  0  0  0  0  0  0  0  0
   15.2741  -16.8702   23.3606 C   0  0  0  0  0  0  0  0  0  0  0  0
   16.1306  -16.1416   23.9252 O   0  0  0  0  0  0  0  0  0  0  0  0
   12.0512  -17.5282   26.0814 C   0  0  0  0  0  0  0  0  0  0  0  0
   11.7031  -16.8446   27.0743 O   0  0  0  0  0  0  0  0  0  0  0  0
   15.4693  -17.0875   21.9860 O   0  0  0  0  0  0  0  0  0  0  0  0
   12.6985  -18.7261   26.3233 O   0  0  0  0  0  0  0  0  0  0  0  0
  2  8  1  0
  2  1  1  1
  3  2  1  0
  4  3  1  0
  5  4  1  0
  6  5  1  0
  6  7  1  0
  8  9  2  0
 10 11  1  0
 10  8  1  0
 12 13  1  0
 11 12  1  1
 14 15  2  0
 14 11  1  0
 16 14  1  0
 17 16  1  0
 17 22  1  0
 17 18  1  1
 19 20  1  0
 19 18  1  0
 20 21  2  0
 22 25  1  0
 23 22  2  0
 24 20  1  0
M  END
$$$$
