HGR.pdb
     RDKit          3D

 26 26  0  0  1  0  0  0  0  0999 V2000
    8.5262  -16.3295   20.9249 N   0  0  0  0  0  0  0  0  0  0  0  0
    7.9109  -15.2469   21.6249 C   0  0  1  0  0  0  0  0  0  0  0  0
    6.8720  -14.5144   20.8663 C   0  0  0  0  0  0  0  0  0  0  0  0
    7.2643  -13.9795   19.5796 C   0  0  0  0  0  0  0  0  0  0  0  0
    7.9342  -12.8091   19.3219 C   0  0  0  0  0  0  0  0  0  0  0  0
    8.1041  -12.6793   17.9961 N   0  0  0  0  0  0  0  0  0  0  0  0
    7.5360  -13.7760   17.4273 C   0  0  0  0  0  0  0  0  0  0  0  0
    7.0270  -14.5632   18.3938 N   0  0  0  0  0  0  0  0  0  0  0  0
    7.2662  -15.8112   22.8585 C   0  0  0  0  0  0  0  0  0  0  0  0
    6.1446  -16.3797   22.8096 O   0  0  0  0  0  0  0  0  0  0  0  0
    7.8883  -15.7308   24.1333 N   0  0  0  0  0  0  0  0  0  0  0  0
    7.3075  -16.4220   25.2688 C   0  0  0  0  0  0  0  0  0  0  0  0
    7.9427  -16.0058   26.5438 C   0  0  0  0  0  0  0  0  0  0  0  0
    7.5400  -16.5033   27.6275 O   0  0  0  0  0  0  0  0  0  0  0  0
   12.0822  -19.5612   31.8470 N   0  0  0  0  0  0  0  0  0  0  0  0
   12.0466  -18.1925   32.2822 C   0  0  0  0  0  0  0  0  0  0  0  0
   12.2402  -17.8570   33.4943 N   0  0  0  0  0  0  0  0  0  0  0  0
   11.7842  -17.1985   31.3065 N   0  0  0  0  0  0  0  0  0  0  0  0
   11.2276  -17.5348   29.9969 C   0  0  0  0  0  0  0  0  0  0  0  0
   11.0093  -16.2993   29.1666 C   0  0  0  0  0  0  0  0  0  0  0  0
   10.4397  -16.6301   27.8151 C   0  0  0  0  0  0  0  0  0  0  0  0
   10.3535  -15.3869   26.9359 C   0  0  2  0  0  0  0  0  0  0  0  0
    8.9948  -15.0638   26.6093 N   0  0  0  0  0  0  0  0  0  0  0  0
   11.1223  -15.5781   25.6743 C   0  0  0  0  0  0  0  0  0  0  0  0
   10.5627  -16.1137   24.5219 O   0  0  0  0  0  0  0  0  0  0  0  0
   12.3397  -15.2481   25.6184 O   0  0  0  0  0  0  0  0  0  0  0  0
  2  1  1  6
  3  2  1  0
  4  8  1  0
  4  3  1  0
  5  4  2  0
  6  5  1  0
  6  7  1  0
  7  8  2  0
  9  2  1  0
 10  9  2  0
 11  9  1  0
 12 11  1  0
 13 23  1  0
 13 12  1  0
 14 13  2  0
 16 15  1  0
 17 16  2  0
 18 16  1  0
 19 18  1  0
 20 19  1  0
 21 20  1  0
 22 21  1  1
 22 23  1  0
 24 25  1  0
 24 22  1  0
 26 24  2  0
M  END
$$$$
