HGR.pdb
     RDKit          3D

 26 26  0  0  1  0  0  0  0  0999 V2000
    6.9177  -18.0909   12.2975 N   0  0  0  0  0  0  0  0  0  0  0  0
    6.6738  -17.8041   13.6754 C   0  0  1  0  0  0  0  0  0  0  0  0
    5.2481  -17.7896   14.0740 C   0  0  0  0  0  0  0  0  0  0  0  0
    4.3915  -16.8478   13.3848 C   0  0  0  0  0  0  0  0  0  0  0  0
    3.1973  -17.0985   12.7555 C   0  0  0  0  0  0  0  0  0  0  0  0
    2.7200  -15.9540   12.2401 N   0  0  0  0  0  0  0  0  0  0  0  0
    3.6235  -14.9868   12.5515 C   0  0  0  0  0  0  0  0  0  0  0  0
    4.6376  -15.5350   13.2473 N   0  0  0  0  0  0  0  0  0  0  0  0
    7.3670  -18.8592   14.4890 C   0  0  0  0  0  0  0  0  0  0  0  0
    6.9291  -20.0378   14.5425 O   0  0  0  0  0  0  0  0  0  0  0  0
    8.5442  -18.5790   15.2334 N   0  0  0  0  0  0  0  0  0  0  0  0
    9.2264  -19.6461   15.9408 C   0  0  0  0  0  0  0  0  0  0  0  0
    8.9918  -19.5677   17.4040 C   0  0  0  0  0  0  0  0  0  0  0  0
    7.9267  -19.0529   17.8337 O   0  0  0  0  0  0  0  0  0  0  0  0
    3.8691  -23.3285   19.7424 N   0  0  0  0  0  0  0  0  0  0  0  0
    4.7833  -23.8132   20.7391 C   0  0  0  0  0  0  0  0  0  0  0  0
    4.3886  -24.3550   21.8207 N   0  0  0  0  0  0  0  0  0  0  0  0
    6.1703  -23.6709   20.4845 N   0  0  0  0  0  0  0  0  0  0  0  0
    6.9245  -22.5127   20.9615 C   0  0  0  0  0  0  0  0  0  0  0  0
    8.3860  -22.6423   20.6286 C   0  0  0  0  0  0  0  0  0  0  0  0
    8.7263  -21.9519   19.3371 C   0  0  0  0  0  0  0  0  0  0  0  0
    9.5516  -20.6940   19.5874 C   0  0  2  0  0  0  0  0  0  0  0  0
    9.9162  -20.0483   18.3596 N   0  0  0  0  0  0  0  0  0  0  0  0
   10.7895  -21.0177   20.3502 C   0  0  0  0  0  0  0  0  0  0  0  0
   11.2417  -20.2528   21.4171 O   0  0  0  0  0  0  0  0  0  0  0  0
   11.4807  -22.0268   20.0369 O   0  0  0  0  0  0  0  0  0  0  0  0
  2  1  1  6
  3  2  1  0
  4  8  1  0
  4  3  1  0
  5  4  2  0
  6  5  1  0
  6  7  1  0
  7  8  2  0
  9  2  1  0
 10  9  2  0
 11  9  1  0
 12 11  1  0
 13 23  1  0
 13 12  1  0
 14 13  2  0
 16 15  1  0
 17 16  2  0
 18 16  1  0
 19 18  1  0
 20 19  1  0
 21 20  1  0
 22 21  1  6
 22 23  1  0
 24 25  1  0
 24 22  1  0
 26 24  2  0
M  END
$$$$
