HGR.pdb
     RDKit          3D

 26 26  0  0  1  0  0  0  0  0999 V2000
   11.7206  -16.0775   16.7156 N   0  0  0  0  0  0  0  0  0  0  0  0
   10.3919  -16.4373   17.0969 C   0  0  1  0  0  0  0  0  0  0  0  0
    9.6688  -17.2953   16.1312 C   0  0  0  0  0  0  0  0  0  0  0  0
    9.4480  -16.7431   14.8114 C   0  0  0  0  0  0  0  0  0  0  0  0
    8.2788  -16.2474   14.2897 C   0  0  0  0  0  0  0  0  0  0  0  0
    8.4971  -15.8310   13.0318 N   0  0  0  0  0  0  0  0  0  0  0  0
    9.8101  -16.0698   12.7710 C   0  0  0  0  0  0  0  0  0  0  0  0
   10.3837  -16.6241   13.8557 N   0  0  0  0  0  0  0  0  0  0  0  0
   10.4784  -17.1827   18.3979 C   0  0  0  0  0  0  0  0  0  0  0  0
    9.4445  -17.5824   18.9936 O   0  0  0  0  0  0  0  0  0  0  0  0
   11.7250  -17.4709   19.0154 N   0  0  0  0  0  0  0  0  0  0  0  0
   11.7615  -18.1852   20.2775 C   0  0  0  0  0  0  0  0  0  0  0  0
   11.6782  -17.2568   21.4323 C   0  0  0  0  0  0  0  0  0  0  0  0
   12.6446  -16.4898   21.6811 O   0  0  0  0  0  0  0  0  0  0  0  0
    8.3370  -11.9563   21.1817 N   0  0  0  0  0  0  0  0  0  0  0  0
    7.5666  -12.8034   20.3139 C   0  0  0  0  0  0  0  0  0  0  0  0
    7.4589  -12.5828   19.0653 N   0  0  0  0  0  0  0  0  0  0  0  0
    6.9124  -13.9189   20.8941 N   0  0  0  0  0  0  0  0  0  0  0  0
    7.3000  -14.4419   22.2032 C   0  0  0  0  0  0  0  0  0  0  0  0
    8.6802  -15.0393   22.1621 C   0  0  0  0  0  0  0  0  0  0  0  0
    9.0594  -15.6565   23.4795 C   0  0  0  0  0  0  0  0  0  0  0  0
   10.4399  -16.3006   23.4074 C   0  0  2  0  0  0  0  0  0  0  0  0
   10.5522  -17.1853   22.2841 N   0  0  0  0  0  0  0  0  0  0  0  0
   10.7334  -17.0614   24.6541 C   0  0  0  0  0  0  0  0  0  0  0  0
   11.3156  -16.4823   25.7737 O   0  0  0  0  0  0  0  0  0  0  0  0
   10.4517  -18.2899   24.7272 O   0  0  0  0  0  0  0  0  0  0  0  0
  2  1  1  6
  3  2  1  0
  4  8  1  0
  4  3  1  0
  5  4  2  0
  6  5  1  0
  6  7  1  0
  7  8  2  0
  9  2  1  0
 10  9  2  0
 11  9  1  0
 12 11  1  0
 13 23  1  0
 13 12  1  0
 14 13  2  0
 16 15  1  0
 17 16  2  0
 18 16  1  0
 19 18  1  0
 20 19  1  0
 21 20  1  0
 22 21  1  1
 22 23  1  0
 24 25  1  0
 24 22  1  0
 26 24  2  0
M  END
$$$$
