HGR.pdb
     RDKit          3D

 26 26  0  0  1  0  0  0  0  0999 V2000
    7.5333  -16.6345   19.0490 N   0  0  0  0  0  0  0  0  0  0  0  0
    8.4277  -15.5209   19.0644 C   0  0  1  0  0  0  0  0  0  0  0  0
    8.2462  -14.5506   17.9612 C   0  0  0  0  0  0  0  0  0  0  0  0
    8.4189  -15.0577   16.6163 C   0  0  0  0  0  0  0  0  0  0  0  0
    8.8943  -16.2875   16.2334 C   0  0  0  0  0  0  0  0  0  0  0  0
    8.8976  -16.3628   14.8927 N   0  0  0  0  0  0  0  0  0  0  0  0
    8.4212  -15.1722   14.4404 C   0  0  0  0  0  0  0  0  0  0  0  0
    8.1317  -14.3824   15.4917 N   0  0  0  0  0  0  0  0  0  0  0  0
    8.2192  -14.7883   20.3588 C   0  0  0  0  0  0  0  0  0  0  0  0
    9.0194  -13.8961   20.7425 O   0  0  0  0  0  0  0  0  0  0  0  0
    7.1144  -15.0657   21.2078 N   0  0  0  0  0  0  0  0  0  0  0  0
    6.9814  -14.3725   22.4752 C   0  0  0  0  0  0  0  0  0  0  0  0
    7.2609  -15.2729   23.6213 C   0  0  0  0  0  0  0  0  0  0  0  0
    6.3841  -16.0976   23.9890 O   0  0  0  0  0  0  0  0  0  0  0  0
    6.1212  -21.4166   21.6423 N   0  0  0  0  0  0  0  0  0  0  0  0
    7.2896  -20.5935   21.7888 C   0  0  0  0  0  0  0  0  0  0  0  0
    7.6502  -19.7570   20.9004 N   0  0  0  0  0  0  0  0  0  0  0  0
    8.0513  -20.7376   22.9753 N   0  0  0  0  0  0  0  0  0  0  0  0
    9.0926  -19.7788   23.3415 C   0  0  0  0  0  0  0  0  0  0  0  0
    8.5028  -18.4309   23.6559 C   0  0  0  0  0  0  0  0  0  0  0  0
    9.5661  -17.4221   23.9906 C   0  0  0  0  0  0  0  0  0  0  0  0
    9.0522  -16.3943   24.9933 C   0  0  2  0  0  0  0  0  0  0  0  0
    8.4804  -15.2548   24.3360 N   0  0  0  0  0  0  0  0  0  0  0  0
   10.1505  -15.9357   25.8892 C   0  0  0  0  0  0  0  0  0  0  0  0
   10.2845  -16.3664   27.2024 O   0  0  0  0  0  0  0  0  0  0  0  0
   11.0143  -15.1185   25.4648 O   0  0  0  0  0  0  0  0  0  0  0  0
  2  1  1  6
  3  2  1  0
  4  8  1  0
  4  3  1  0
  5  4  2  0
  6  5  1  0
  6  7  1  0
  7  8  2  0
  9  2  1  0
 10  9  2  0
 11  9  1  0
 12 11  1  0
 13 23  1  0
 13 12  1  0
 14 13  2  0
 16 15  1  0
 17 16  2  0
 18 16  1  0
 19 18  1  0
 20 19  1  0
 21 20  1  0
 22 21  1  6
 22 23  1  0
 24 25  1  0
 24 22  1  0
 26 24  2  0
M  END
$$$$
