HGR.pdb
     RDKit          3D

 26 26  0  0  1  0  0  0  0  0999 V2000
    8.4613  -15.0781   20.0659 N   0  0  0  0  0  0  0  0  0  0  0  0
    8.2299  -16.2880   19.3427 C   0  0  1  0  0  0  0  0  0  0  0  0
    8.8142  -16.3319   17.9832 C   0  0  0  0  0  0  0  0  0  0  0  0
    8.6016  -15.1690   17.1478 C   0  0  0  0  0  0  0  0  0  0  0  0
    8.7288  -13.8468   17.4950 C   0  0  0  0  0  0  0  0  0  0  0  0
    8.4423  -13.0802   16.4303 N   0  0  0  0  0  0  0  0  0  0  0  0
    8.1354  -13.9319   15.4157 C   0  0  0  0  0  0  0  0  0  0  0  0
    8.2336  -15.2002   15.8567 N   0  0  0  0  0  0  0  0  0  0  0  0
    8.8289  -17.4136   20.1363 C   0  0  0  0  0  0  0  0  0  0  0  0
    8.8941  -18.5809   19.6707 O   0  0  0  0  0  0  0  0  0  0  0  0
    9.3482  -17.2158   21.4438 N   0  0  0  0  0  0  0  0  0  0  0  0
    9.8341  -18.3476   22.2102 C   0  0  0  0  0  0  0  0  0  0  0  0
   10.3266  -17.9303   23.5465 C   0  0  0  0  0  0  0  0  0  0  0  0
   11.4160  -17.3067   23.6380 O   0  0  0  0  0  0  0  0  0  0  0  0
    5.9547  -11.0664   27.1880 N   0  0  0  0  0  0  0  0  0  0  0  0
    6.3976  -11.9941   26.1845 C   0  0  0  0  0  0  0  0  0  0  0  0
    6.5036  -11.6727   24.9578 N   0  0  0  0  0  0  0  0  0  0  0  0
    6.7221  -13.3093   26.6016 N   0  0  0  0  0  0  0  0  0  0  0  0
    7.1160  -14.3436   25.6462 C   0  0  0  0  0  0  0  0  0  0  0  0
    7.3326  -15.6638   26.3344 C   0  0  0  0  0  0  0  0  0  0  0  0
    7.7704  -16.7299   25.3688 C   0  0  0  0  0  0  0  0  0  0  0  0
    9.1902  -17.1967   25.6724 C   0  0  2  0  0  0  0  0  0  0  0  0
    9.6264  -18.1999   24.7447 N   0  0  0  0  0  0  0  0  0  0  0  0
    9.2819  -17.7434   27.0551 C   0  0  0  0  0  0  0  0  0  0  0  0
    9.5203  -16.9482   28.1681 O   0  0  0  0  0  0  0  0  0  0  0  0
    9.1410  -18.9817   27.2570 O   0  0  0  0  0  0  0  0  0  0  0  0
  2  1  1  1
  3  2  1  0
  4  8  1  0
  4  3  1  0
  5  4  2  0
  6  5  1  0
  6  7  1  0
  7  8  2  0
  9  2  1  0
 10  9  2  0
 11  9  1  0
 12 11  1  0
 13 23  1  0
 13 12  1  0
 14 13  2  0
 16 15  1  0
 17 16  2  0
 18 16  1  0
 19 18  1  0
 20 19  1  0
 21 20  1  0
 22 21  1  6
 22 23  1  0
 24 25  1  0
 24 22  1  0
 26 24  2  0
M  END
$$$$
