HGR.pdb
     RDKit          3D

 26 26  0  0  1  0  0  0  0  0999 V2000
    9.6505  -17.5519   17.6206 N   0  0  0  0  0  0  0  0  0  0  0  0
    9.1568  -18.4141   18.6470 C   0  0  1  0  0  0  0  0  0  0  0  0
   10.1954  -19.0850   19.4611 C   0  0  0  0  0  0  0  0  0  0  0  0
   11.2489  -19.7641   18.7369 C   0  0  0  0  0  0  0  0  0  0  0  0
   12.3564  -19.2106   18.1435 C   0  0  0  0  0  0  0  0  0  0  0  0
   13.0866  -20.1837   17.5750 N   0  0  0  0  0  0  0  0  0  0  0  0
   12.4283  -21.3486   17.8170 C   0  0  0  0  0  0  0  0  0  0  0  0
   11.3121  -21.0883   18.5235 N   0  0  0  0  0  0  0  0  0  0  0  0
    8.3141  -17.5835   19.5720 C   0  0  0  0  0  0  0  0  0  0  0  0
    7.5865  -18.1155   20.4502 O   0  0  0  0  0  0  0  0  0  0  0  0
    8.2980  -16.1646   19.5006 N   0  0  0  0  0  0  0  0  0  0  0  0
    7.4716  -15.4015   20.4167 C   0  0  0  0  0  0  0  0  0  0  0  0
    7.9302  -15.5527   21.8200 C   0  0  0  0  0  0  0  0  0  0  0  0
    7.3318  -16.3540   22.5841 O   0  0  0  0  0  0  0  0  0  0  0  0
    5.1111  -11.6993   27.6591 N   0  0  0  0  0  0  0  0  0  0  0  0
    5.7163  -10.8564   26.6656 C   0  0  0  0  0  0  0  0  0  0  0  0
    5.3248   -9.6646   26.4520 N   0  0  0  0  0  0  0  0  0  0  0  0
    6.7868  -11.3955   25.9090 N   0  0  0  0  0  0  0  0  0  0  0  0
    7.0049  -12.8374   25.8051 C   0  0  0  0  0  0  0  0  0  0  0  0
    8.1584  -13.1472   24.8901 C   0  0  0  0  0  0  0  0  0  0  0  0
    8.3333  -14.6278   24.6961 C   0  0  0  0  0  0  0  0  0  0  0  0
    9.4646  -14.9238   23.7171 C   0  0  2  0  0  0  0  0  0  0  0  0
    9.0226  -14.8328   22.3556 N   0  0  0  0  0  0  0  0  0  0  0  0
   10.0257  -16.2834   23.9540 C   0  0  0  0  0  0  0  0  0  0  0  0
    9.9458  -17.3074   23.0197 O   0  0  0  0  0  0  0  0  0  0  0  0
   10.6060  -16.5478   25.0436 O   0  0  0  0  0  0  0  0  0  0  0  0
  2  1  1  6
  3  2  1  0
  4  8  1  0
  4  3  1  0
  5  4  2  0
  6  5  1  0
  6  7  1  0
  7  8  2  0
  9  2  1  0
 10  9  2  0
 11  9  1  0
 12 11  1  0
 13 23  1  0
 13 12  1  0
 14 13  2  0
 16 15  1  0
 17 16  2  0
 18 16  1  0
 19 18  1  0
 20 19  1  0
 21 20  1  0
 22 21  1  1
 22 23  1  0
 24 25  1  0
 24 22  1  0
 26 24  2  0
M  END
$$$$
