HGR.pdb
     RDKit          3D

 26 26  0  0  1  0  0  0  0  0999 V2000
   10.0625  -16.5347   18.7551 N   0  0  0  0  0  0  0  0  0  0  0  0
   10.7792  -15.3929   19.2276 C   0  0  1  0  0  0  0  0  0  0  0  0
    9.9504  -14.3518   19.8763 C   0  0  0  0  0  0  0  0  0  0  0  0
    8.8568  -13.8135   19.0955 C   0  0  0  0  0  0  0  0  0  0  0  0
    8.5333  -14.0950   17.7912 C   0  0  0  0  0  0  0  0  0  0  0  0
    7.4479  -13.3859   17.4416 N   0  0  0  0  0  0  0  0  0  0  0  0
    7.0953  -12.6595   18.5356 C   0  0  0  0  0  0  0  0  0  0  0  0
    7.9546  -12.9228   19.5382 N   0  0  0  0  0  0  0  0  0  0  0  0
   11.7850  -15.8723   20.2348 C   0  0  0  0  0  0  0  0  0  0  0  0
   12.6085  -15.0822   20.7650 O   0  0  0  0  0  0  0  0  0  0  0  0
   11.8547  -17.2337   20.6352 N   0  0  0  0  0  0  0  0  0  0  0  0
   12.8120  -17.6448   21.6447 C   0  0  0  0  0  0  0  0  0  0  0  0
   12.3067  -17.3813   23.0149 C   0  0  0  0  0  0  0  0  0  0  0  0
   12.5979  -16.2975   23.5846 O   0  0  0  0  0  0  0  0  0  0  0  0
    4.5706  -19.7047   23.5575 N   0  0  0  0  0  0  0  0  0  0  0  0
    5.4374  -20.8496   23.6006 C   0  0  0  0  0  0  0  0  0  0  0  0
    5.0187  -22.0307   23.3794 N   0  0  0  0  0  0  0  0  0  0  0  0
    6.8045  -20.6289   23.9026 N   0  0  0  0  0  0  0  0  0  0  0  0
    7.3069  -19.3054   24.2684 C   0  0  0  0  0  0  0  0  0  0  0  0
    8.7861  -19.3428   24.5408 C   0  0  0  0  0  0  0  0  0  0  0  0
    9.3352  -17.9719   24.8230 C   0  0  0  0  0  0  0  0  0  0  0  0
   10.8523  -18.0082   24.9747 C   0  0  2  0  0  0  0  0  0  0  0  0
   11.5012  -18.2979   23.7288 N   0  0  0  0  0  0  0  0  0  0  0  0
   11.2580  -19.0293   25.9807 C   0  0  0  0  0  0  0  0  0  0  0  0
   11.0413  -18.8755   27.3435 O   0  0  0  0  0  0  0  0  0  0  0  0
   11.8268  -20.0933   25.6090 O   0  0  0  0  0  0  0  0  0  0  0  0
  2  1  1  1
  3  2  1  0
  4  8  1  0
  4  3  1  0
  5  4  2  0
  6  5  1  0
  6  7  1  0
  7  8  2  0
  9  2  1  0
 10  9  2  0
 11  9  1  0
 12 11  1  0
 13 23  1  0
 13 12  1  0
 14 13  2  0
 16 15  1  0
 17 16  2  0
 18 16  1  0
 19 18  1  0
 20 19  1  0
 21 20  1  0
 22 21  1  6
 22 23  1  0
 24 25  1  0
 24 22  1  0
 26 24  2  0
M  END
$$$$
