HGR.pdb
     RDKit          3D

 26 26  0  0  1  0  0  0  0  0999 V2000
    9.6888  -13.2869   16.8634 N   0  0  0  0  0  0  0  0  0  0  0  0
    9.2125  -14.6203   17.0520 C   0  0  1  0  0  0  0  0  0  0  0  0
   10.2521  -15.6204   17.3847 C   0  0  0  0  0  0  0  0  0  0  0  0
   11.4142  -15.6595   16.5224 C   0  0  0  0  0  0  0  0  0  0  0  0
   12.6398  -15.0775   16.7323 C   0  0  0  0  0  0  0  0  0  0  0  0
   13.4437  -15.3516   15.6922 N   0  0  0  0  0  0  0  0  0  0  0  0
   12.7126  -16.1085   14.8311 C   0  0  0  0  0  0  0  0  0  0  0  0
   11.4798  -16.2929   15.3402 N   0  0  0  0  0  0  0  0  0  0  0  0
    8.2228  -14.5940   18.1814 C   0  0  0  0  0  0  0  0  0  0  0  0
    7.5002  -15.5907   18.4422 O   0  0  0  0  0  0  0  0  0  0  0  0
    8.0557  -13.4487   19.0053 N   0  0  0  0  0  0  0  0  0  0  0  0
    7.0321  -13.4377   20.0332 C   0  0  0  0  0  0  0  0  0  0  0  0
    7.3737  -14.3496   21.1530 C   0  0  0  0  0  0  0  0  0  0  0  0
    6.5328  -14.5487   22.0680 O   0  0  0  0  0  0  0  0  0  0  0  0
   13.6798  -19.8950   22.8315 N   0  0  0  0  0  0  0  0  0  0  0  0
   12.6336  -20.5779   23.5410 C   0  0  0  0  0  0  0  0  0  0  0  0
   12.8729  -21.4716   24.4145 N   0  0  0  0  0  0  0  0  0  0  0  0
   11.2946  -20.2250   23.2385 N   0  0  0  0  0  0  0  0  0  0  0  0
   10.9732  -19.2479   22.1995 C   0  0  0  0  0  0  0  0  0  0  0  0
   10.1080  -18.1432   22.7423 C   0  0  0  0  0  0  0  0  0  0  0  0
    9.7096  -17.1691   21.6686 C   0  0  0  0  0  0  0  0  0  0  0  0
    8.9345  -15.9932   22.2537 C   0  0  2  0  0  0  0  0  0  0  0  0
    8.6149  -15.0193   21.2503 N   0  0  0  0  0  0  0  0  0  0  0  0
    9.7149  -15.3333   23.3376 C   0  0  0  0  0  0  0  0  0  0  0  0
    9.7808  -15.8311   24.6321 O   0  0  0  0  0  0  0  0  0  0  0  0
   10.3561  -14.2720   23.1001 O   0  0  0  0  0  0  0  0  0  0  0  0
  2  1  1  1
  3  2  1  0
  4  8  1  0
  4  3  1  0
  5  4  2  0
  6  5  1  0
  6  7  1  0
  7  8  2  0
  9  2  1  0
 10  9  2  0
 11  9  1  0
 12 11  1  0
 13 23  1  0
 13 12  1  0
 14 13  2  0
 16 15  1  0
 17 16  2  0
 18 16  1  0
 19 18  1  0
 20 19  1  0
 21 20  1  0
 22 21  1  6
 22 23  1  0
 24 25  1  0
 24 22  1  0
 26 24  2  0
M  END
$$$$
