HGR.pdb
     RDKit          3D

 26 26  0  0  1  0  0  0  0  0999 V2000
   11.2354  -14.2636   19.4325 N   0  0  0  0  0  0  0  0  0  0  0  0
   10.1345  -14.4520   20.3230 C   0  0  1  0  0  0  0  0  0  0  0  0
    8.8575  -14.8297   19.6763 C   0  0  0  0  0  0  0  0  0  0  0  0
    8.3688  -13.9453   18.6398 C   0  0  0  0  0  0  0  0  0  0  0  0
    7.7580  -12.7251   18.7914 C   0  0  0  0  0  0  0  0  0  0  0  0
    7.4577  -12.2272   17.5809 N   0  0  0  0  0  0  0  0  0  0  0  0
    7.8847  -13.1441   16.6722 C   0  0  0  0  0  0  0  0  0  0  0  0
    8.4378  -14.1865   17.3206 N   0  0  0  0  0  0  0  0  0  0  0  0
   10.5062  -15.5483   21.2799 C   0  0  0  0  0  0  0  0  0  0  0  0
   11.5072  -16.2833   21.0767 O   0  0  0  0  0  0  0  0  0  0  0  0
    9.7497  -15.8069   22.4543 N   0  0  0  0  0  0  0  0  0  0  0  0
   10.1809  -16.8341   23.3835 C   0  0  0  0  0  0  0  0  0  0  0  0
    9.3613  -16.8295   24.6206 C   0  0  0  0  0  0  0  0  0  0  0  0
    8.6144  -15.8463   24.8649 O   0  0  0  0  0  0  0  0  0  0  0  0
    4.8928  -23.1761   25.7576 N   0  0  0  0  0  0  0  0  0  0  0  0
    5.8396  -22.8975   26.8017 C   0  0  0  0  0  0  0  0  0  0  0  0
    5.9336  -23.6171   27.8469 N   0  0  0  0  0  0  0  0  0  0  0  0
    6.6886  -21.7744   26.6375 N   0  0  0  0  0  0  0  0  0  0  0  0
    6.5425  -20.8591   25.5068 C   0  0  0  0  0  0  0  0  0  0  0  0
    7.6084  -19.7976   25.5266 C   0  0  0  0  0  0  0  0  0  0  0  0
    7.5256  -18.9482   26.7644 C   0  0  0  0  0  0  0  0  0  0  0  0
    8.6289  -17.8954   26.7831 C   0  0  2  0  0  0  0  0  0  0  0  0
    9.3734  -17.8884   25.5571 N   0  0  0  0  0  0  0  0  0  0  0  0
    9.5656  -18.1323   27.9169 C   0  0  0  0  0  0  0  0  0  0  0  0
    9.1774  -18.0519   29.2476 O   0  0  0  0  0  0  0  0  0  0  0  0
   10.7736  -18.4212   27.6905 O   0  0  0  0  0  0  0  0  0  0  0  0
  2  1  1  6
  3  2  1  0
  4  8  1  0
  4  3  1  0
  5  4  2  0
  6  5  1  0
  6  7  1  0
  7  8  2  0
  9  2  1  0
 10  9  2  0
 11  9  1  0
 12 11  1  0
 13 23  1  0
 13 12  1  0
 14 13  2  0
 16 15  1  0
 17 16  2  0
 18 16  1  0
 19 18  1  0
 20 19  1  0
 21 20  1  0
 22 21  1  6
 22 23  1  0
 24 25  1  0
 24 22  1  0
 26 24  2  0
M  END
$$$$
