HGR.pdb
     RDKit          3D

 26 26  0  0  1  0  0  0  0  0999 V2000
    9.0217  -15.7884   21.6305 N   0  0  0  0  0  0  0  0  0  0  0  0
    7.9072  -14.9243   21.8575 C   0  0  1  0  0  0  0  0  0  0  0  0
    7.0418  -14.6882   20.6799 C   0  0  0  0  0  0  0  0  0  0  0  0
    7.6723  -14.0939   19.5202 C   0  0  0  0  0  0  0  0  0  0  0  0
    8.6447  -13.1251   19.4929 C   0  0  0  0  0  0  0  0  0  0  0  0
    8.9589  -12.8495   18.2167 N   0  0  0  0  0  0  0  0  0  0  0  0
    8.1767  -13.6523   17.4470 C   0  0  0  0  0  0  0  0  0  0  0  0
    7.3965  -14.4067   18.2438 N   0  0  0  0  0  0  0  0  0  0  0  0
    7.0612  -15.5461   22.9315 C   0  0  0  0  0  0  0  0  0  0  0  0
    5.8755  -15.1736   23.1289 O   0  0  0  0  0  0  0  0  0  0  0  0
    7.5562  -16.5794   23.7716 N   0  0  0  0  0  0  0  0  0  0  0  0
    6.6888  -17.1855   24.7639 C   0  0  0  0  0  0  0  0  0  0  0  0
    7.3762  -18.2795   25.4940 C   0  0  0  0  0  0  0  0  0  0  0  0
    6.7368  -18.9558   26.3413 O   0  0  0  0  0  0  0  0  0  0  0  0
   11.2189  -24.1750   24.1583 N   0  0  0  0  0  0  0  0  0  0  0  0
   12.2392  -23.4876   23.4162 C   0  0  0  0  0  0  0  0  0  0  0  0
   13.3210  -24.0540   23.0586 N   0  0  0  0  0  0  0  0  0  0  0  0
   12.0081  -22.1295   23.0827 N   0  0  0  0  0  0  0  0  0  0  0  0
   12.1473  -21.0609   24.0709 C   0  0  0  0  0  0  0  0  0  0  0  0
   10.8288  -20.7535   24.7271 C   0  0  0  0  0  0  0  0  0  0  0  0
   10.9388  -19.5995   25.6845 C   0  0  0  0  0  0  0  0  0  0  0  0
    9.5763  -19.2355   26.2650 C   0  0  2  0  0  0  0  0  0  0  0  0
    8.7350  -18.6098   25.2862 N   0  0  0  0  0  0  0  0  0  0  0  0
    9.7266  -18.3198   27.4305 C   0  0  0  0  0  0  0  0  0  0  0  0
    9.8547  -18.7734   28.7365 O   0  0  0  0  0  0  0  0  0  0  0  0
    9.7418  -17.0696   27.2556 O   0  0  0  0  0  0  0  0  0  0  0  0
  2  1  1  6
  3  2  1  0
  4  8  1  0
  4  3  1  0
  5  4  2  0
  6  5  1  0
  6  7  1  0
  7  8  2  0
  9  2  1  0
 10  9  2  0
 11  9  1  0
 12 11  1  0
 13 23  1  0
 13 12  1  0
 14 13  2  0
 16 15  1  0
 17 16  2  0
 18 16  1  0
 19 18  1  0
 20 19  1  0
 21 20  1  0
 22 21  1  6
 22 23  1  0
 24 25  1  0
 24 22  1  0
 26 24  2  0
M  END
$$$$
