HGR.pdb
     RDKit          3D

 26 26  0  0  1  0  0  0  0  0999 V2000
   10.1899  -14.8994   16.5501 N   0  0  0  0  0  0  0  0  0  0  0  0
    8.8676  -14.8345   17.0866 C   0  0  1  0  0  0  0  0  0  0  0  0
    7.7893  -15.2421   16.1578 C   0  0  0  0  0  0  0  0  0  0  0  0
    7.7244  -14.5425   14.8921 C   0  0  0  0  0  0  0  0  0  0  0  0
    7.4475  -13.2154   14.6755 C   0  0  0  0  0  0  0  0  0  0  0  0
    7.4852  -12.9650   13.3567 N   0  0  0  0  0  0  0  0  0  0  0  0
    7.7874  -14.1442   12.7508 C   0  0  0  0  0  0  0  0  0  0  0  0
    7.9318  -15.0999   13.6882 N   0  0  0  0  0  0  0  0  0  0  0  0
    8.8154  -15.7464   18.2788 C   0  0  0  0  0  0  0  0  0  0  0  0
    9.4940  -16.8052   18.3235 O   0  0  0  0  0  0  0  0  0  0  0  0
    8.0019  -15.4590   19.4075 N   0  0  0  0  0  0  0  0  0  0  0  0
    8.0502  -16.3194   20.5745 C   0  0  0  0  0  0  0  0  0  0  0  0
    9.0981  -15.8834   21.5306 C   0  0  0  0  0  0  0  0  0  0  0  0
   10.0804  -15.2174   21.1115 O   0  0  0  0  0  0  0  0  0  0  0  0
   11.8244  -14.7221   30.9363 N   0  0  0  0  0  0  0  0  0  0  0  0
   10.9095  -15.4158   30.0728 C   0  0  0  0  0  0  0  0  0  0  0  0
    9.9427  -16.1110   30.5211 N   0  0  0  0  0  0  0  0  0  0  0  0
   11.1128  -15.3057   28.6744 N   0  0  0  0  0  0  0  0  0  0  0  0
   10.1053  -15.7526   27.7136 C   0  0  0  0  0  0  0  0  0  0  0  0
   10.5171  -15.4257   26.3040 C   0  0  0  0  0  0  0  0  0  0  0  0
    9.5005  -15.8996   25.3028 C   0  0  0  0  0  0  0  0  0  0  0  0
   10.0016  -15.7029   23.8759 C   0  0  2  0  0  0  0  0  0  0  0  0
    9.0527  -16.1804   22.9120 N   0  0  0  0  0  0  0  0  0  0  0  0
   11.2976  -16.4079   23.6695 C   0  0  0  0  0  0  0  0  0  0  0  0
   12.5256  -15.8381   23.9781 O   0  0  0  0  0  0  0  0  0  0  0  0
   11.3136  -17.5774   23.1940 O   0  0  0  0  0  0  0  0  0  0  0  0
  2  1  1  6
  3  2  1  0
  4  8  1  0
  4  3  1  0
  5  4  2  0
  6  5  1  0
  6  7  1  0
  7  8  2  0
  9  2  1  0
 10  9  2  0
 11  9  1  0
 12 11  1  0
 13 23  1  0
 13 12  1  0
 14 13  2  0
 16 15  1  0
 17 16  2  0
 18 16  1  0
 19 18  1  0
 20 19  1  0
 21 20  1  0
 22 21  1  1
 22 23  1  0
 24 25  1  0
 24 22  1  0
 26 24  2  0
M  END
$$$$
