DPW.pdb
     RDKit          3D

 30 32  0  0  1  0  0  0  0  0999 V2000
   29.1754  -22.6999  -17.8406 N   0  0  0  0  0  0  0  0  0  0  0  0
   28.2669  -21.6942  -17.3783 C   0  0  1  0  0  0  0  0  0  0  0  0
   26.8658  -22.0889  -17.7738 C   0  0  0  0  0  0  0  0  0  0  0  0
   26.7263  -21.9712  -19.2338 C   0  0  0  0  0  0  0  0  0  0  0  0
   26.3937  -22.9546  -19.9271 O   0  0  0  0  0  0  0  0  0  0  0  0
   28.3666  -21.4522  -15.9179 C   0  0  0  0  0  0  0  0  0  0  0  0
   28.9345  -22.3944  -15.2680 O   0  0  0  0  0  0  0  0  0  0  0  0
   26.9644  -20.7633  -19.8487 O   0  0  0  0  0  0  0  0  0  0  0  0
   27.8949  -20.3039  -15.2461 N   0  0  0  0  0  0  0  0  0  0  0  0
   27.1522  -19.1755  -15.7435 C   0  0  0  0  0  0  0  0  0  0  0  0
   27.3650  -18.0354  -14.7443 C   0  0  0  0  0  0  0  0  0  0  0  0
   28.5116  -18.5839  -13.8816 C   0  0  0  0  0  0  0  0  0  0  0  0
   28.0884  -20.0380  -13.8382 C   0  0  1  0  0  0  0  0  0  0  0  0
   26.7950  -20.1283  -13.0897 C   0  0  0  0  0  0  0  0  0  0  0  0
   25.6854  -19.8509  -13.6375 O   0  0  0  0  0  0  0  0  0  0  0  0
   26.8070  -20.5357  -11.7290 N   0  0  0  0  0  0  0  0  0  0  0  0
   25.7637  -21.4093  -11.1820 C   0  0  1  0  0  0  0  0  0  0  0  0
   26.3208  -21.8775   -9.8306 C   0  0  0  0  0  0  0  0  0  0  0  0
   26.4581  -20.7583   -8.8847 C   0  0  0  0  0  0  0  0  0  0  0  0
   25.6212  -19.6735   -8.7268 C   0  0  0  0  0  0  0  0  0  0  0  0
   26.1193  -18.8912   -7.7527 N   0  0  0  0  0  0  0  0  0  0  0  0
   27.2562  -19.4307   -7.2686 C   0  0  0  0  0  0  0  0  0  0  0  0
   28.1460  -19.0692   -6.3037 C   0  0  0  0  0  0  0  0  0  0  0  0
   29.2481  -19.8421   -6.0213 C   0  0  0  0  0  0  0  0  0  0  0  0
   29.4986  -21.0164   -6.7039 C   0  0  0  0  0  0  0  0  0  0  0  0
   28.5892  -21.3765   -7.6832 C   0  0  0  0  0  0  0  0  0  0  0  0
   27.4753  -20.6103   -7.9798 C   0  0  0  0  0  0  0  0  0  0  0  0
   24.5428  -20.6120  -10.9027 C   0  0  0  0  0  0  0  0  0  0  0  0
   24.5152  -19.3694  -10.9002 O   0  0  0  0  0  0  0  0  0  0  0  0
   23.3626  -21.2809  -10.6278 O   0  0  0  0  0  0  0  0  0  0  0  0
  2  1  1  1
  2  6  1  0
  3  2  1  0
  4  8  1  0
  4  3  1  0
  5  4  2  0
  6  7  2  0
  9  6  1  0
  9 13  1  0
 10  9  1  0
 11 10  1  0
 11 12  1  0
 12 13  1  0
 13 14  1  1
 14 15  2  0
 16 14  1  0
 17 16  1  0
 17 28  1  0
 17 18  1  1
 19 18  1  0
 20 19  2  0
 21 22  1  0
 21 20  1  0
 22 27  2  0
 23 24  2  0
 23 22  1  0
 24 25  1  0
 25 26  2  0
 27 26  1  0
 27 19  1  0
 28 29  2  0
 28 30  1  0
M  END
$$$$
