DPW.pdb
     RDKit          3D

 30 32  0  0  1  0  0  0  0  0999 V2000
   24.8496  -17.4133  -18.5742 N   0  0  0  0  0  0  0  0  0  0  0  0
   25.3693  -17.6858  -17.2680 C   0  0  1  0  0  0  0  0  0  0  0  0
   24.3274  -17.3091  -16.2443 C   0  0  0  0  0  0  0  0  0  0  0  0
   23.9765  -15.8903  -16.4139 C   0  0  0  0  0  0  0  0  0  0  0  0
   24.7755  -15.0916  -16.9451 O   0  0  0  0  0  0  0  0  0  0  0  0
   25.8042  -19.0944  -17.1010 C   0  0  0  0  0  0  0  0  0  0  0  0
   25.4143  -19.8773  -18.0326 O   0  0  0  0  0  0  0  0  0  0  0  0
   22.7525  -15.4321  -15.9832 O   0  0  0  0  0  0  0  0  0  0  0  0
   26.5803  -19.5883  -16.0304 N   0  0  0  0  0  0  0  0  0  0  0  0
   27.0077  -18.9426  -14.8169 C   0  0  0  0  0  0  0  0  0  0  0  0
   28.2103  -19.7352  -14.2982 C   0  0  0  0  0  0  0  0  0  0  0  0
   28.5377  -20.6323  -15.5016 C   0  0  0  0  0  0  0  0  0  0  0  0
   27.1232  -20.9264  -15.9578 C   0  0  1  0  0  0  0  0  0  0  0  0
   26.4429  -21.7270  -14.8914 C   0  0  0  0  0  0  0  0  0  0  0  0
   26.7609  -22.9317  -14.6552 O   0  0  0  0  0  0  0  0  0  0  0  0
   25.4130  -21.1243  -14.1210 N   0  0  0  0  0  0  0  0  0  0  0  0
   24.4428  -21.9319  -13.3743 C   0  0  1  0  0  0  0  0  0  0  0  0
   25.2635  -22.5820  -12.2518 C   0  0  0  0  0  0  0  0  0  0  0  0
   25.8559  -21.5721  -11.3599 C   0  0  0  0  0  0  0  0  0  0  0  0
   25.2053  -20.7234  -10.4889 C   0  0  0  0  0  0  0  0  0  0  0  0
   26.1261  -19.9634   -9.8695 N   0  0  0  0  0  0  0  0  0  0  0  0
   27.3588  -20.2887  -10.3085 C   0  0  0  0  0  0  0  0  0  0  0  0
   28.6162  -19.8490  -10.0277 C   0  0  0  0  0  0  0  0  0  0  0  0
   29.7177  -20.3857  -10.6523 C   0  0  0  0  0  0  0  0  0  0  0  0
   29.5950  -21.3925  -11.5899 C   0  0  0  0  0  0  0  0  0  0  0  0
   28.3133  -21.8337  -11.8695 C   0  0  0  0  0  0  0  0  0  0  0  0
   27.1944  -21.3044  -11.2501 C   0  0  0  0  0  0  0  0  0  0  0  0
   23.4443  -21.0414  -12.7307 C   0  0  0  0  0  0  0  0  0  0  0  0
   23.5493  -19.8036  -12.6876 O   0  0  0  0  0  0  0  0  0  0  0  0
   22.3291  -21.6119  -12.1420 O   0  0  0  0  0  0  0  0  0  0  0  0
  2  1  1  6
  2  6  1  0
  3  2  1  0
  4  8  1  0
  4  3  1  0
  5  4  2  0
  6  7  2  0
  9  6  1  0
  9 13  1  0
 10  9  1  0
 11 10  1  0
 11 12  1  0
 12 13  1  0
 13 14  1  1
 14 15  2  0
 16 14  1  0
 17 16  1  0
 17 28  1  0
 17 18  1  1
 19 18  1  0
 20 19  2  0
 21 22  1  0
 21 20  1  0
 22 27  2  0
 23 24  2  0
 23 22  1  0
 24 25  1  0
 25 26  2  0
 27 26  1  0
 27 19  1  0
 28 29  2  0
 28 30  1  0
M  END
$$$$
