DPW.pdb
     RDKit          3D

 30 32  0  0  1  0  0  0  0  0999 V2000
   23.8487  -19.5569  -15.7127 N   0  0  0  0  0  0  0  0  0  0  0  0
   25.0072  -19.1071  -15.0013 C   0  0  1  0  0  0  0  0  0  0  0  0
   24.6508  -17.8560  -14.2376 C   0  0  0  0  0  0  0  0  0  0  0  0
   24.0199  -16.8947  -15.1557 C   0  0  0  0  0  0  0  0  0  0  0  0
   24.5996  -16.5303  -16.1996 O   0  0  0  0  0  0  0  0  0  0  0  0
   25.5730  -20.1437  -14.1033 C   0  0  0  0  0  0  0  0  0  0  0  0
   24.7968  -21.1371  -13.8950 O   0  0  0  0  0  0  0  0  0  0  0  0
   22.7743  -16.3873  -14.8649 O   0  0  0  0  0  0  0  0  0  0  0  0
   26.8486  -20.0947  -13.5007 N   0  0  0  0  0  0  0  0  0  0  0  0
   27.8175  -19.0309  -13.4611 C   0  0  0  0  0  0  0  0  0  0  0  0
   29.1684  -19.6793  -13.1480 C   0  0  0  0  0  0  0  0  0  0  0  0
   28.8530  -21.1705  -13.3401 C   0  0  0  0  0  0  0  0  0  0  0  0
   27.4517  -21.1828  -12.7641 C   0  0  1  0  0  0  0  0  0  0  0  0
   27.5413  -20.8615  -11.3047 C   0  0  0  0  0  0  0  0  0  0  0  0
   28.2039  -19.8677  -10.8789 O   0  0  0  0  0  0  0  0  0  0  0  0
   26.8667  -21.6899  -10.3686 N   0  0  0  0  0  0  0  0  0  0  0  0
   26.6074  -21.2413   -8.9965 C   0  0  1  0  0  0  0  0  0  0  0  0
   27.5629  -20.0579   -8.7897 C   0  0  0  0  0  0  0  0  0  0  0  0
   27.6234  -19.6519   -7.3763 C   0  0  0  0  0  0  0  0  0  0  0  0
   26.8700  -18.6896   -6.7372 C   0  0  0  0  0  0  0  0  0  0  0  0
   27.2492  -18.6407   -5.4476 N   0  0  0  0  0  0  0  0  0  0  0  0
   28.2274  -19.5413   -5.2235 C   0  0  0  0  0  0  0  0  0  0  0  0
   28.9550  -19.9049   -4.1318 C   0  0  0  0  0  0  0  0  0  0  0  0
   29.9153  -20.8866   -4.2069 C   0  0  0  0  0  0  0  0  0  0  0  0
   30.1819  -21.5445   -5.3917 C   0  0  0  0  0  0  0  0  0  0  0  0
   29.4379  -21.1689   -6.4966 C   0  0  0  0  0  0  0  0  0  0  0  0
   28.4680  -20.1831   -6.4383 C   0  0  0  0  0  0  0  0  0  0  0  0
   25.2237  -20.7123   -8.8989 C   0  0  0  0  0  0  0  0  0  0  0  0
   24.6041  -20.2184   -9.8565 O   0  0  0  0  0  0  0  0  0  0  0  0
   24.5776  -20.7673   -7.6760 O   0  0  0  0  0  0  0  0  0  0  0  0
  2  1  1  1
  2  6  1  0
  3  2  1  0
  4  8  1  0
  4  3  1  0
  5  4  2  0
  6  7  2  0
  9  6  1  0
  9 13  1  0
 10  9  1  0
 11 10  1  0
 11 12  1  0
 12 13  1  0
 13 14  1  1
 14 15  2  0
 16 14  1  0
 17 16  1  0
 17 28  1  0
 17 18  1  6
 19 18  1  0
 20 19  2  0
 21 22  1  0
 21 20  1  0
 22 27  2  0
 23 24  2  0
 23 22  1  0
 24 25  1  0
 25 26  2  0
 27 26  1  0
 27 19  1  0
 28 29  2  0
 28 30  1  0
M  END
$$$$
