DPW.pdb
     RDKit          3D

 30 32  0  0  1  0  0  0  0  0999 V2000
   16.8238   -2.7769  -11.8977 N   0  0  0  0  0  0  0  0  0  0  0  0
   17.6230   -3.8529  -11.3938 C   0  0  1  0  0  0  0  0  0  0  0  0
   16.9410   -4.4357  -10.1811 C   0  0  0  0  0  0  0  0  0  0  0  0
   17.8240   -5.4408   -9.5686 C   0  0  0  0  0  0  0  0  0  0  0  0
   18.8736   -5.8041  -10.1385 O   0  0  0  0  0  0  0  0  0  0  0  0
   17.8958   -4.8967  -12.4123 C   0  0  0  0  0  0  0  0  0  0  0  0
   16.9725   -5.0314  -13.2852 O   0  0  0  0  0  0  0  0  0  0  0  0
   17.4934   -5.9910   -8.3513 O   0  0  0  0  0  0  0  0  0  0  0  0
   19.0532   -5.7030  -12.4659 N   0  0  0  0  0  0  0  0  0  0  0  0
   20.1501   -5.8172  -11.5407 C   0  0  0  0  0  0  0  0  0  0  0  0
   21.3237   -6.4124  -12.3231 C   0  0  0  0  0  0  0  0  0  0  0  0
   20.8258   -6.2974  -13.7718 C   0  0  0  0  0  0  0  0  0  0  0  0
   19.3649   -6.6229  -13.5369 C   0  0  1  0  0  0  0  0  0  0  0  0
   19.2690   -8.0430  -13.0729 C   0  0  0  0  0  0  0  0  0  0  0  0
   20.1162   -8.5428  -12.2725 O   0  0  0  0  0  0  0  0  0  0  0  0
   18.2015   -8.8555  -13.5395 N   0  0  0  0  0  0  0  0  0  0  0  0
   17.3555   -9.6148  -12.6128 C   0  0  1  0  0  0  0  0  0  0  0  0
   16.7535   -8.5538  -11.6811 C   0  0  0  0  0  0  0  0  0  0  0  0
   15.8116   -9.1494  -10.7198 C   0  0  0  0  0  0  0  0  0  0  0  0
   15.5949  -10.4868  -10.4620 C   0  0  0  0  0  0  0  0  0  0  0  0
   14.6480  -10.5882   -9.5122 N   0  0  0  0  0  0  0  0  0  0  0  0
   14.2385   -9.3583   -9.1408 C   0  0  0  0  0  0  0  0  0  0  0  0
   13.3276   -8.8884   -8.2449 C   0  0  0  0  0  0  0  0  0  0  0  0
   13.1190   -7.5392   -8.0779 C   0  0  0  0  0  0  0  0  0  0  0  0
   13.8240   -6.6050   -8.8113 C   0  0  0  0  0  0  0  0  0  0  0  0
   14.7480   -7.0912   -9.7199 C   0  0  0  0  0  0  0  0  0  0  0  0
   14.9701   -8.4454   -9.9002 C   0  0  0  0  0  0  0  0  0  0  0  0
   16.2315  -10.2345  -13.3588 C   0  0  0  0  0  0  0  0  0  0  0  0
   15.9790  -11.4515  -13.3415 O   0  0  0  0  0  0  0  0  0  0  0  0
   15.4118   -9.4196  -14.1203 O   0  0  0  0  0  0  0  0  0  0  0  0
  2  1  1  6
  2  6  1  0
  3  2  1  0
  4  8  1  0
  4  3  1  0
  5  4  2  0
  6  7  2  0
  9  6  1  0
  9 13  1  0
 10  9  1  0
 11 10  1  0
 11 12  1  0
 12 13  1  0
 13 14  1  1
 14 15  2  0
 16 14  1  0
 17 16  1  0
 17 28  1  0
 17 18  1  1
 19 18  1  0
 20 19  2  0
 21 22  1  0
 21 20  1  0
 22 27  2  0
 23 24  2  0
 23 22  1  0
 24 25  1  0
 25 26  2  0
 27 26  1  0
 27 19  1  0
 28 29  2  0
 28 30  1  0
M  END
$$$$
