DPW.pdb
     RDKit          3D

 30 32  0  0  1  0  0  0  0  0999 V2000
   26.4393  -22.6322  -17.3353 N   0  0  0  0  0  0  0  0  0  0  0  0
   26.2465  -21.3907  -16.6482 C   0  0  1  0  0  0  0  0  0  0  0  0
   24.7689  -21.0916  -16.5946 C   0  0  0  0  0  0  0  0  0  0  0  0
   24.2749  -20.8585  -17.9608 C   0  0  0  0  0  0  0  0  0  0  0  0
   23.3037  -21.5019  -18.4095 O   0  0  0  0  0  0  0  0  0  0  0  0
   26.8478  -21.3808  -15.2920 C   0  0  0  0  0  0  0  0  0  0  0  0
   27.3019  -22.5131  -14.9117 O   0  0  0  0  0  0  0  0  0  0  0  0
   24.8877  -19.9200  -18.7591 O   0  0  0  0  0  0  0  0  0  0  0  0
   26.9398  -20.2537  -14.4472 N   0  0  0  0  0  0  0  0  0  0  0  0
   26.3945  -18.9303  -14.6007 C   0  0  0  0  0  0  0  0  0  0  0  0
   27.2136  -18.0102  -13.6919 C   0  0  0  0  0  0  0  0  0  0  0  0
   28.3968  -18.9144  -13.3141 C   0  0  0  0  0  0  0  0  0  0  0  0
   27.6496  -20.2263  -13.1880 C   0  0  1  0  0  0  0  0  0  0  0  0
   26.6998  -20.1166  -12.0361 C   0  0  0  0  0  0  0  0  0  0  0  0
   25.5670  -19.5592  -12.1550 O   0  0  0  0  0  0  0  0  0  0  0  0
   27.0740  -20.6506  -10.7741 N   0  0  0  0  0  0  0  0  0  0  0  0
   26.1329  -21.4299   -9.9629 C   0  0  1  0  0  0  0  0  0  0  0  0
   26.8461  -21.6174   -8.6167 C   0  0  0  0  0  0  0  0  0  0  0  0
   27.0610  -20.3312   -7.9343 C   0  0  0  0  0  0  0  0  0  0  0  0
   26.5168  -19.1033   -8.2477 C   0  0  0  0  0  0  0  0  0  0  0  0
   26.9792  -18.1969   -7.3681 N   0  0  0  0  0  0  0  0  0  0  0  0
   27.8091  -18.7941   -6.4890 C   0  0  0  0  0  0  0  0  0  0  0  0
   28.5347  -18.3629   -5.4208 C   0  0  0  0  0  0  0  0  0  0  0  0
   29.3149  -19.2282   -4.6900 C   0  0  0  0  0  0  0  0  0  0  0  0
   29.3953  -20.5698   -5.0085 C   0  0  0  0  0  0  0  0  0  0  0  0
   28.6547  -20.9998   -6.0957 C   0  0  0  0  0  0  0  0  0  0  0  0
   27.8646  -20.1423   -6.8417 C   0  0  0  0  0  0  0  0  0  0  0  0
   24.9120  -20.6251   -9.7061 C   0  0  0  0  0  0  0  0  0  0  0  0
   23.8517  -21.1005   -9.2648 O   0  0  0  0  0  0  0  0  0  0  0  0
   24.9457  -19.2668   -9.9699 O   0  0  0  0  0  0  0  0  0  0  0  0
  2  1  1  1
  2  6  1  0
  3  2  1  0
  4  8  1  0
  4  3  1  0
  5  4  2  0
  6  7  2  0
  9  6  1  0
  9 13  1  0
 10  9  1  0
 11 10  1  0
 11 12  1  0
 12 13  1  0
 13 14  1  1
 14 15  2  0
 16 14  1  0
 17 16  1  0
 17 28  1  0
 17 18  1  1
 19 18  1  0
 20 19  2  0
 21 22  1  0
 21 20  1  0
 22 27  2  0
 23 24  2  0
 23 22  1  0
 24 25  1  0
 25 26  2  0
 27 26  1  0
 27 19  1  0
 28 29  2  0
 28 30  1  0
M  END
$$$$
