DPW.pdb
     RDKit          3D

 30 32  0  0  1  0  0  0  0  0999 V2000
   25.4125  -19.6569  -19.9496 N   0  0  0  0  0  0  0  0  0  0  0  0
   25.4841  -19.3470  -18.5534 C   0  0  1  0  0  0  0  0  0  0  0  0
   24.1500  -18.8004  -18.1098 C   0  0  0  0  0  0  0  0  0  0  0  0
   23.8875  -17.5376  -18.8179 C   0  0  0  0  0  0  0  0  0  0  0  0
   24.7915  -16.9621  -19.4583 O   0  0  0  0  0  0  0  0  0  0  0  0
   25.8939  -20.5069  -17.7239 C   0  0  0  0  0  0  0  0  0  0  0  0
   25.8245  -21.6321  -18.3255 O   0  0  0  0  0  0  0  0  0  0  0  0
   22.6306  -16.9789  -18.7772 O   0  0  0  0  0  0  0  0  0  0  0  0
   26.3308  -20.4389  -16.3834 N   0  0  0  0  0  0  0  0  0  0  0  0
   26.5239  -19.2992  -15.5255 C   0  0  0  0  0  0  0  0  0  0  0  0
   27.4711  -19.7461  -14.4090 C   0  0  0  0  0  0  0  0  0  0  0  0
   27.9755  -21.0942  -14.9460 C   0  0  0  0  0  0  0  0  0  0  0  0
   26.6880  -21.5842  -15.5765 C   0  0  1  0  0  0  0  0  0  0  0  0
   25.6871  -21.8087  -14.4861 C   0  0  0  0  0  0  0  0  0  0  0  0
   26.0416  -22.0891  -13.3012 O   0  0  0  0  0  0  0  0  0  0  0  0
   24.3019  -21.7053  -14.7829 N   0  0  0  0  0  0  0  0  0  0  0  0
   23.2838  -21.8095  -13.7323 C   0  0  1  0  0  0  0  0  0  0  0  0
   23.4771  -20.5475  -12.8801 C   0  0  0  0  0  0  0  0  0  0  0  0
   23.4511  -19.3286  -13.7046 C   0  0  0  0  0  0  0  0  0  0  0  0
   22.4024  -18.8299  -14.4485 C   0  0  0  0  0  0  0  0  0  0  0  0
   22.8084  -17.6964  -15.0480 N   0  0  0  0  0  0  0  0  0  0  0  0
   24.0903  -17.4383  -14.7192 C   0  0  0  0  0  0  0  0  0  0  0  0
   24.9738  -16.4514  -15.0339 C   0  0  0  0  0  0  0  0  0  0  0  0
   26.2546  -16.4516  -14.5327 C   0  0  0  0  0  0  0  0  0  0  0  0
   26.6983  -17.4518  -13.6899 C   0  0  0  0  0  0  0  0  0  0  0  0
   25.7939  -18.4511  -13.3750 C   0  0  0  0  0  0  0  0  0  0  0  0
   24.5016  -18.4659  -13.8707 C   0  0  0  0  0  0  0  0  0  0  0  0
   21.9315  -21.7279  -14.3397 C   0  0  0  0  0  0  0  0  0  0  0  0
   20.8761  -21.7964  -13.6868 O   0  0  0  0  0  0  0  0  0  0  0  0
   21.8290  -21.5664  -15.7105 O   0  0  0  0  0  0  0  0  0  0  0  0
  2  1  1  6
  2  6  1  0
  3  2  1  0
  4  8  1  0
  4  3  1  0
  5  4  2  0
  6  7  2  0
  9  6  1  0
  9 13  1  0
 10  9  1  0
 11 10  1  0
 11 12  1  0
 12 13  1  0
 13 14  1  1
 14 15  2  0
 16 14  1  0
 17 16  1  0
 17 28  1  0
 17 18  1  1
 19 18  1  0
 20 19  2  0
 21 22  1  0
 21 20  1  0
 22 27  2  0
 23 24  2  0
 23 22  1  0
 24 25  1  0
 25 26  2  0
 27 26  1  0
 27 19  1  0
 28 29  2  0
 28 30  1  0
M  END
$$$$
