DPW.pdb
     RDKit          3D

 30 32  0  0  1  0  0  0  0  0999 V2000
   21.2660  -13.6015  -17.7973 N   0  0  0  0  0  0  0  0  0  0  0  0
   22.0702  -12.4439  -17.5452 C   0  0  1  0  0  0  0  0  0  0  0  0
   22.4407  -11.8150  -18.8653 C   0  0  0  0  0  0  0  0  0  0  0  0
   23.2260  -12.7776  -19.6537 C   0  0  0  0  0  0  0  0  0  0  0  0
   23.1546  -12.7947  -20.9000 O   0  0  0  0  0  0  0  0  0  0  0  0
   21.4087  -11.4643  -16.6485 C   0  0  0  0  0  0  0  0  0  0  0  0
   20.1361  -11.4292  -16.7584 O   0  0  0  0  0  0  0  0  0  0  0  0
   24.0520  -13.6733  -19.0142 O   0  0  0  0  0  0  0  0  0  0  0  0
   22.0707  -10.6174  -15.7336 N   0  0  0  0  0  0  0  0  0  0  0  0
   23.4671  -10.5236  -15.3969 C   0  0  0  0  0  0  0  0  0  0  0  0
   23.5435   -9.8417  -14.0284 C   0  0  0  0  0  0  0  0  0  0  0  0
   22.0766   -9.8837  -13.5744 C   0  0  0  0  0  0  0  0  0  0  0  0
   21.4164   -9.6230  -14.9129 C   0  0  1  0  0  0  0  0  0  0  0  0
   21.7777   -8.2385  -15.3529 C   0  0  0  0  0  0  0  0  0  0  0  0
   22.8813   -7.9856  -15.9240 O   0  0  0  0  0  0  0  0  0  0  0  0
   20.8618   -7.1767  -15.1264 N   0  0  0  0  0  0  0  0  0  0  0  0
   21.0513   -5.8580  -15.7397 C   0  0  1  0  0  0  0  0  0  0  0  0
   20.9228   -6.1111  -17.2482 C   0  0  0  0  0  0  0  0  0  0  0  0
   19.5467   -6.4776  -17.6200 C   0  0  0  0  0  0  0  0  0  0  0  0
   18.4568   -6.6346  -16.7897 C   0  0  0  0  0  0  0  0  0  0  0  0
   17.3949   -6.9737  -17.5423 N   0  0  0  0  0  0  0  0  0  0  0  0
   17.7566   -7.0434  -18.8394 C   0  0  0  0  0  0  0  0  0  0  0  0
   17.1010   -7.3354  -19.9963 C   0  0  0  0  0  0  0  0  0  0  0  0
   17.7510   -7.3273  -21.2083 C   0  0  0  0  0  0  0  0  0  0  0  0
   19.0949   -7.0228  -21.3031 C   0  0  0  0  0  0  0  0  0  0  0  0
   19.7538   -6.7272  -20.1225 C   0  0  0  0  0  0  0  0  0  0  0  0
   19.1148   -6.7309  -18.8947 C   0  0  0  0  0  0  0  0  0  0  0  0
   19.9352   -4.9612  -15.3469 C   0  0  0  0  0  0  0  0  0  0  0  0
   18.9106   -5.3502  -14.7606 O   0  0  0  0  0  0  0  0  0  0  0  0
   20.0310   -3.6133  -15.6462 O   0  0  0  0  0  0  0  0  0  0  0  0
  2  1  1  6
  2  6  1  0
  3  2  1  0
  4  8  1  0
  4  3  1  0
  5  4  2  0
  6  7  2  0
  9  6  1  0
  9 13  1  0
 10  9  1  0
 11 10  1  0
 11 12  1  0
 12 13  1  0
 13 14  1  6
 14 15  2  0
 16 14  1  0
 17 16  1  0
 17 28  1  0
 17 18  1  6
 19 18  1  0
 20 19  2  0
 21 22  1  0
 21 20  1  0
 22 27  2  0
 23 24  2  0
 23 22  1  0
 24 25  1  0
 25 26  2  0
 27 26  1  0
 27 19  1  0
 28 29  2  0
 28 30  1  0
M  END
$$$$
