DPW.pdb
     RDKit          3D

 30 32  0  0  1  0  0  0  0  0999 V2000
   26.0732  -17.4328  -15.7650 N   0  0  0  0  0  0  0  0  0  0  0  0
   26.5071  -18.7213  -15.3156 C   0  0  1  0  0  0  0  0  0  0  0  0
   28.0106  -18.7103  -15.1932 C   0  0  0  0  0  0  0  0  0  0  0  0
   28.5992  -18.4376  -16.5138 C   0  0  0  0  0  0  0  0  0  0  0  0
   28.6390  -19.3231  -17.3929 O   0  0  0  0  0  0  0  0  0  0  0  0
   25.8660  -19.1362  -14.0436 C   0  0  0  0  0  0  0  0  0  0  0  0
   25.4355  -18.1657  -13.3326 O   0  0  0  0  0  0  0  0  0  0  0  0
   29.1143  -17.1916  -16.7892 O   0  0  0  0  0  0  0  0  0  0  0  0
   25.7148  -20.4682  -13.6014 N   0  0  0  0  0  0  0  0  0  0  0  0
   26.2275  -21.6947  -14.1536 C   0  0  0  0  0  0  0  0  0  0  0  0
   25.3535  -22.8236  -13.6012 C   0  0  0  0  0  0  0  0  0  0  0  0
   24.1844  -22.0419  -12.9831 C   0  0  0  0  0  0  0  0  0  0  0  0
   24.9637  -20.8654  -12.4316 C   0  0  1  0  0  0  0  0  0  0  0  0
   25.8718  -21.3680  -11.3528 C   0  0  0  0  0  0  0  0  0  0  0  0
   26.9099  -22.0471  -11.6161 O   0  0  0  0  0  0  0  0  0  0  0  0
   25.5657  -21.0782   -9.9964 N   0  0  0  0  0  0  0  0  0  0  0  0
   26.3966  -21.5843   -8.8989 C   0  0  1  0  0  0  0  0  0  0  0  0
   27.6512  -20.7002   -8.9244 C   0  0  0  0  0  0  0  0  0  0  0  0
   27.6835  -19.7733   -7.7816 C   0  0  0  0  0  0  0  0  0  0  0  0
   27.1224  -18.5166   -7.6925 C   0  0  0  0  0  0  0  0  0  0  0  0
   27.3911  -18.0172   -6.4729 N   0  0  0  0  0  0  0  0  0  0  0  0
   28.1106  -18.9084   -5.7615 C   0  0  0  0  0  0  0  0  0  0  0  0
   28.6380  -18.9213   -4.5065 C   0  0  0  0  0  0  0  0  0  0  0  0
   29.3469  -20.0035   -4.0396 C   0  0  0  0  0  0  0  0  0  0  0  0
   29.5535  -21.1218   -4.8234 C   0  0  0  0  0  0  0  0  0  0  0  0
   29.0142  -21.1006   -6.0978 C   0  0  0  0  0  0  0  0  0  0  0  0
   28.2984  -20.0198   -6.5831 C   0  0  0  0  0  0  0  0  0  0  0  0
   25.7128  -21.3411   -7.6038 C   0  0  0  0  0  0  0  0  0  0  0  0
   24.7985  -20.5131   -7.4505 O   0  0  0  0  0  0  0  0  0  0  0  0
   26.1084  -22.0727   -6.4975 O   0  0  0  0  0  0  0  0  0  0  0  0
  2  1  1  1
  2  6  1  0
  3  2  1  0
  4  8  1  0
  4  3  1  0
  5  4  2  0
  6  7  2  0
  9  6  1  0
  9 13  1  0
 10  9  1  0
 11 10  1  0
 11 12  1  0
 12 13  1  0
 13 14  1  1
 14 15  2  0
 16 14  1  0
 17 16  1  0
 17 28  1  0
 17 18  1  1
 19 18  1  0
 20 19  2  0
 21 22  1  0
 21 20  1  0
 22 27  2  0
 23 24  2  0
 23 22  1  0
 24 25  1  0
 25 26  2  0
 27 26  1  0
 27 19  1  0
 28 29  2  0
 28 30  1  0
M  END
$$$$
