DPW.pdb
     RDKit          3D

 30 32  0  0  1  0  0  0  0  0999 V2000
   27.7740  -22.3321  -17.7832 N   0  0  0  0  0  0  0  0  0  0  0  0
   27.0672  -21.3774  -16.9835 C   0  0  1  0  0  0  0  0  0  0  0  0
   25.5873  -21.5482  -17.2208 C   0  0  0  0  0  0  0  0  0  0  0  0
   24.8665  -20.4304  -16.5918 C   0  0  0  0  0  0  0  0  0  0  0  0
   24.3532  -20.5544  -15.4606 O   0  0  0  0  0  0  0  0  0  0  0  0
   27.3963  -21.4754  -15.5401 C   0  0  0  0  0  0  0  0  0  0  0  0
   27.6473  -22.6624  -15.1392 O   0  0  0  0  0  0  0  0  0  0  0  0
   24.7537  -19.2297  -17.2546 O   0  0  0  0  0  0  0  0  0  0  0  0
   27.4440  -20.3911  -14.6376 N   0  0  0  0  0  0  0  0  0  0  0  0
   27.0444  -19.0191  -14.8113 C   0  0  0  0  0  0  0  0  0  0  0  0
   27.7791  -18.2093  -13.7398 C   0  0  0  0  0  0  0  0  0  0  0  0
   28.8043  -19.2299  -13.2228 C   0  0  0  0  0  0  0  0  0  0  0  0
   27.9386  -20.4719  -13.2815 C   0  0  1  0  0  0  0  0  0  0  0  0
   26.8263  -20.3160  -12.2918 C   0  0  0  0  0  0  0  0  0  0  0  0
   25.7221  -19.7780  -12.6070 O   0  0  0  0  0  0  0  0  0  0  0  0
   27.0090  -20.7824  -10.9626 N   0  0  0  0  0  0  0  0  0  0  0  0
   25.9268  -21.4467  -10.2286 C   0  0  1  0  0  0  0  0  0  0  0  0
   26.5195  -21.7339   -8.8421 C   0  0  0  0  0  0  0  0  0  0  0  0
   26.8974  -20.4926   -8.1474 C   0  0  0  0  0  0  0  0  0  0  0  0
   26.3977  -19.2228   -8.3472 C   0  0  0  0  0  0  0  0  0  0  0  0
   27.0210  -18.3833   -7.5012 N   0  0  0  0  0  0  0  0  0  0  0  0
   27.9131  -19.0648   -6.7543 C   0  0  0  0  0  0  0  0  0  0  0  0
   28.7901  -18.7226   -5.7709 C   0  0  0  0  0  0  0  0  0  0  0  0
   29.5979  -19.6623   -5.1741 C   0  0  0  0  0  0  0  0  0  0  0  0
   29.5535  -20.9915   -5.5468 C   0  0  0  0  0  0  0  0  0  0  0  0
   28.6593  -21.3309   -6.5472 C   0  0  0  0  0  0  0  0  0  0  0  0
   27.8395  -20.3977   -7.1581 C   0  0  0  0  0  0  0  0  0  0  0  0
   24.7998  -20.4992  -10.0382 C   0  0  0  0  0  0  0  0  0  0  0  0
   24.8679  -19.2848  -10.2941 O   0  0  0  0  0  0  0  0  0  0  0  0
   23.6003  -20.9856   -9.5479 O   0  0  0  0  0  0  0  0  0  0  0  0
  2  1  1  6
  2  6  1  0
  3  2  1  0
  4  8  1  0
  4  3  1  0
  5  4  2  0
  6  7  2  0
  9  6  1  0
  9 13  1  0
 10  9  1  0
 11 10  1  0
 11 12  1  0
 12 13  1  0
 13 14  1  1
 14 15  2  0
 16 14  1  0
 17 16  1  0
 17 28  1  0
 17 18  1  1
 19 18  1  0
 20 19  2  0
 21 22  1  0
 21 20  1  0
 22 27  2  0
 23 24  2  0
 23 22  1  0
 24 25  1  0
 25 26  2  0
 27 26  1  0
 27 19  1  0
 28 29  2  0
 28 30  1  0
M  END
$$$$
