DPW.pdb
     RDKit          3D

 30 32  0  0  1  0  0  0  0  0999 V2000
   29.6241  -23.1839  -17.9960 N   0  0  0  0  0  0  0  0  0  0  0  0
   28.6273  -22.1675  -17.8414 C   0  0  1  0  0  0  0  0  0  0  0  0
   27.3371  -22.6584  -18.4497 C   0  0  0  0  0  0  0  0  0  0  0  0
   27.4536  -22.6273  -19.9161 C   0  0  0  0  0  0  0  0  0  0  0  0
   27.6909  -21.5594  -20.5176 O   0  0  0  0  0  0  0  0  0  0  0  0
   28.4349  -21.7565  -16.4289 C   0  0  0  0  0  0  0  0  0  0  0  0
   28.9139  -22.5769  -15.5743 O   0  0  0  0  0  0  0  0  0  0  0  0
   27.3001  -23.7878  -20.6394 O   0  0  0  0  0  0  0  0  0  0  0  0
   27.7882  -20.5765  -16.0022 N   0  0  0  0  0  0  0  0  0  0  0  0
   27.0033  -19.6261  -16.7457 C   0  0  0  0  0  0  0  0  0  0  0  0
   26.9990  -18.3291  -15.9324 C   0  0  0  0  0  0  0  0  0  0  0  0
   28.0901  -18.6098  -14.8880 C   0  0  0  0  0  0  0  0  0  0  0  0
   27.8009  -20.0771  -14.6455 C   0  0  1  0  0  0  0  0  0  0  0  0
   26.4473  -20.1911  -14.0164 C   0  0  0  0  0  0  0  0  0  0  0  0
   25.3885  -19.9056  -14.6531 O   0  0  0  0  0  0  0  0  0  0  0  0
   26.3422  -20.6310  -12.6699 N   0  0  0  0  0  0  0  0  0  0  0  0
   25.2005  -21.4298  -12.2122 C   0  0  1  0  0  0  0  0  0  0  0  0
   25.7356  -22.2130  -11.0055 C   0  0  0  0  0  0  0  0  0  0  0  0
   26.2062  -21.3121   -9.9410 C   0  0  0  0  0  0  0  0  0  0  0  0
   25.4678  -20.4070   -9.2078 C   0  0  0  0  0  0  0  0  0  0  0  0
   26.2913  -19.7902   -8.3414 N   0  0  0  0  0  0  0  0  0  0  0  0
   27.5454  -20.2640   -8.4853 C   0  0  0  0  0  0  0  0  0  0  0  0
   28.7376  -20.0005   -7.8831 C   0  0  0  0  0  0  0  0  0  0  0  0
   29.8861  -20.6619   -8.2506 C   0  0  0  0  0  0  0  0  0  0  0  0
   29.8787  -21.6204   -9.2451 C   0  0  0  0  0  0  0  0  0  0  0  0
   28.6627  -21.8821   -9.8521 C   0  0  0  0  0  0  0  0  0  0  0  0
   27.4978  -21.2257   -9.4944 C   0  0  0  0  0  0  0  0  0  0  0  0
   24.1308  -20.5292  -11.7134 C   0  0  0  0  0  0  0  0  0  0  0  0
   24.3084  -19.3286  -11.4451 O   0  0  0  0  0  0  0  0  0  0  0  0
   22.8595  -21.0459  -11.5332 O   0  0  0  0  0  0  0  0  0  0  0  0
  2  1  1  1
  2  6  1  0
  3  2  1  0
  4  8  1  0
  4  3  1  0
  5  4  2  0
  6  7  2  0
  9  6  1  0
  9 13  1  0
 10  9  1  0
 11 10  1  0
 11 12  1  0
 12 13  1  0
 13 14  1  6
 14 15  2  0
 16 14  1  0
 17 16  1  0
 17 28  1  0
 17 18  1  1
 19 18  1  0
 20 19  2  0
 21 22  1  0
 21 20  1  0
 22 27  2  0
 23 24  2  0
 23 22  1  0
 24 25  1  0
 25 26  2  0
 27 26  1  0
 27 19  1  0
 28 29  2  0
 28 30  1  0
M  END
$$$$
