DPW.pdb
     RDKit          3D

 30 32  0  0  1  0  0  0  0  0999 V2000
   28.8162  -19.6110  -17.5942 N   0  0  0  0  0  0  0  0  0  0  0  0
   28.0939  -20.5688  -16.8124 C   0  0  1  0  0  0  0  0  0  0  0  0
   28.9626  -21.7861  -16.6147 C   0  0  0  0  0  0  0  0  0  0  0  0
   29.2604  -22.3833  -17.9260 C   0  0  0  0  0  0  0  0  0  0  0  0
   28.3592  -22.5505  -18.7736 O   0  0  0  0  0  0  0  0  0  0  0  0
   27.6283  -20.0224  -15.5140 C   0  0  0  0  0  0  0  0  0  0  0  0
   28.4722  -19.2579  -14.9342 O   0  0  0  0  0  0  0  0  0  0  0  0
   30.5478  -22.7645  -18.2276 O   0  0  0  0  0  0  0  0  0  0  0  0
   26.3761  -20.2865  -14.9184 N   0  0  0  0  0  0  0  0  0  0  0  0
   25.3197  -21.1734  -15.3301 C   0  0  0  0  0  0  0  0  0  0  0  0
   24.0431  -20.6849  -14.6406 C   0  0  0  0  0  0  0  0  0  0  0  0
   24.4810  -19.3134  -14.1045 C   0  0  0  0  0  0  0  0  0  0  0  0
   25.8979  -19.6681  -13.7021 C   0  0  1  0  0  0  0  0  0  0  0  0
   25.8337  -20.6597  -12.5824 C   0  0  0  0  0  0  0  0  0  0  0  0
   25.3531  -21.8218  -12.7460 O   0  0  0  0  0  0  0  0  0  0  0  0
   26.3235  -20.2926  -11.3007 N   0  0  0  0  0  0  0  0  0  0  0  0
   26.3035  -21.2327  -10.1752 C   0  0  1  0  0  0  0  0  0  0  0  0
   27.5116  -20.8335   -9.3165 C   0  0  0  0  0  0  0  0  0  0  0  0
   27.1051  -20.4523   -7.9543 C   0  0  0  0  0  0  0  0  0  0  0  0
   25.8300  -20.4082   -7.4306 C   0  0  0  0  0  0  0  0  0  0  0  0
   25.9108  -20.0061   -6.1497 N   0  0  0  0  0  0  0  0  0  0  0  0
   27.1993  -19.7857   -5.8193 C   0  0  0  0  0  0  0  0  0  0  0  0
   27.8355  -19.3781   -4.6868 C   0  0  0  0  0  0  0  0  0  0  0  0
   29.2033  -19.2395   -4.6454 C   0  0  0  0  0  0  0  0  0  0  0  0
   29.9884  -19.5076   -5.7496 C   0  0  0  0  0  0  0  0  0  0  0  0
   29.3338  -19.9213   -6.8967 C   0  0  0  0  0  0  0  0  0  0  0  0
   27.9584  -20.0659   -6.9553 C   0  0  0  0  0  0  0  0  0  0  0  0
   25.0864  -21.0034   -9.3565 C   0  0  0  0  0  0  0  0  0  0  0  0
   24.3540  -20.0059   -9.4727 O   0  0  0  0  0  0  0  0  0  0  0  0
   24.7385  -21.9481   -8.4067 O   0  0  0  0  0  0  0  0  0  0  0  0
  2  1  1  1
  2  6  1  0
  3  2  1  0
  4  8  1  0
  4  3  1  0
  5  4  2  0
  6  7  2  0
  9  6  1  0
  9 13  1  0
 10  9  1  0
 11 10  1  0
 11 12  1  0
 12 13  1  0
 13 14  1  1
 14 15  2  0
 16 14  1  0
 17 16  1  0
 17 28  1  0
 17 18  1  1
 19 18  1  0
 20 19  2  0
 21 22  1  0
 21 20  1  0
 22 27  2  0
 23 24  2  0
 23 22  1  0
 24 25  1  0
 25 26  2  0
 27 26  1  0
 27 19  1  0
 28 29  2  0
 28 30  1  0
M  END
$$$$
