EWH.pdb
     RDKit          3D

 34 36  0  0  1  0  0  0  0  0999 V2000
    8.9866  -16.7107   18.7225 N   0  0  0  0  0  0  0  0  0  0  0  0
   10.2050  -16.9906   19.5138 C   0  0  1  0  0  0  0  0  0  0  0  0
   11.3690  -16.4192   18.6859 C   0  0  0  0  0  0  0  0  0  0  0  0
   12.2894  -17.6094   18.3841 C   0  0  0  0  0  0  0  0  0  0  0  0
   13.4299  -17.1340   17.6050 C   0  0  0  0  0  0  0  0  0  0  0  0
   13.5606  -15.9301   17.3215 O   0  0  0  0  0  0  0  0  0  0  0  0
   10.0584  -16.3023   20.7926 C   0  0  0  0  0  0  0  0  0  0  0  0
   10.7478  -15.2519   21.0315 O   0  0  0  0  0  0  0  0  0  0  0  0
   14.3806  -18.0366   17.1766 O   0  0  0  0  0  0  0  0  0  0  0  0
    9.2018  -16.6796   21.8439 N   0  0  0  0  0  0  0  0  0  0  0  0
    9.1114  -15.9750   23.1274 C   0  0  1  0  0  0  0  0  0  0  0  0
    7.7026  -15.5553   23.2327 C   0  0  0  0  0  0  0  0  0  0  0  0
    7.1635  -15.1979   24.5267 C   0  0  0  0  0  0  0  0  0  0  0  0
    6.5731  -15.9020   25.5322 C   0  0  0  0  0  0  0  0  0  0  0  0
    6.2531  -15.0854   26.5549 N   0  0  0  0  0  0  0  0  0  0  0  0
    6.6281  -13.8556   26.2282 C   0  0  0  0  0  0  0  0  0  0  0  0
    6.5505  -12.6359   26.8997 C   0  0  0  0  0  0  0  0  0  0  0  0
    7.0230  -11.4633   26.3511 C   0  0  0  0  0  0  0  0  0  0  0  0
    7.6021  -11.4785   25.0817 C   0  0  0  0  0  0  0  0  0  0  0  0
    7.6693  -12.6812   24.4411 C   0  0  0  0  0  0  0  0  0  0  0  0
    7.1908  -13.8735   24.9947 C   0  0  0  0  0  0  0  0  0  0  0  0
    9.6071  -16.8840   24.1832 C   0  0  0  0  0  0  0  0  0  0  0  0
    9.2526  -18.1008   24.1440 O   0  0  0  0  0  0  0  0  0  0  0  0
   10.4528  -16.4269   25.2138 N   0  0  0  0  0  0  0  0  0  0  0  0
   10.9398  -17.2831   26.3012 C   0  0  1  0  0  0  0  0  0  0  0  0
   12.4207  -17.2700   26.3718 C   0  0  0  0  0  0  0  0  0  0  0  0
   13.1292  -17.9671   25.3001 C   0  0  0  0  0  0  0  0  0  0  0  0
   12.5781  -18.9458   24.4918 C   0  0  0  0  0  0  0  0  0  0  0  0
   13.5155  -19.3739   23.6324 N   0  0  0  0  0  0  0  0  0  0  0  0
   14.6473  -18.6725   23.8939 C   0  0  0  0  0  0  0  0  0  0  0  0
   14.3855  -17.8336   24.9020 N   0  0  0  0  0  0  0  0  0  0  0  0
   10.2255  -16.8918   27.5256 C   0  0  0  0  0  0  0  0  0  0  0  0
   10.2515  -17.6621   28.6937 O   0  0  0  0  0  0  0  0  0  0  0  0
    9.5605  -15.8405   27.5748 O   0  0  0  0  0  0  0  0  0  0  0  0
  2  1  1  6
  2  3  1  0
  3  4  1  0
  5  4  1  0
  5  9  1  0
  6  5  2  0
  7  2  1  0
  8  7  2  0
 10  7  1  0
 11 12  1  1
 11 10  1  0
 12 13  1  0
 13 14  2  0
 13 21  1  0
 14 15  1  0
 15 16  1  0
 16 17  2  0
 18 17  1  0
 19 18  2  0
 20 21  2  0
 20 19  1  0
 21 16  1  0
 22 23  2  0
 22 11  1  0
 24 22  1  0
 25 32  1  0
 25 24  1  0
 25 26  1  1
 27 28  2  0
 27 26  1  0
 29 28  1  0
 30 31  2  0
 30 29  1  0
 31 27  1  0
 32 33  1  0
 34 32  2  0
M  END
$$$$
