EWH.pdb
     RDKit          3D

 34 36  0  0  1  0  0  0  0  0999 V2000
   10.5794  -16.2161   20.3333 N   0  0  0  0  0  0  0  0  0  0  0  0
   10.2802  -17.4249   21.1322 C   0  0  1  0  0  0  0  0  0  0  0  0
   11.5139  -18.3310   20.9783 C   0  0  0  0  0  0  0  0  0  0  0  0
   11.2117  -19.2475   19.7852 C   0  0  0  0  0  0  0  0  0  0  0  0
   12.3050  -20.2056   19.6415 C   0  0  0  0  0  0  0  0  0  0  0  0
   12.1698  -21.3943   19.9813 O   0  0  0  0  0  0  0  0  0  0  0  0
   10.0909  -16.9948   22.5142 C   0  0  0  0  0  0  0  0  0  0  0  0
   10.9934  -16.2963   23.0915 O   0  0  0  0  0  0  0  0  0  0  0  0
   13.5095  -19.7848   19.1181 O   0  0  0  0  0  0  0  0  0  0  0  0
    8.9732  -17.2727   23.3233 N   0  0  0  0  0  0  0  0  0  0  0  0
    8.8115  -16.7920   24.6998 C   0  0  1  0  0  0  0  0  0  0  0  0
    7.4491  -16.2323   24.7500 C   0  0  0  0  0  0  0  0  0  0  0  0
    7.2096  -14.9008   24.2375 C   0  0  0  0  0  0  0  0  0  0  0  0
    7.0452  -14.3841   22.9881 C   0  0  0  0  0  0  0  0  0  0  0  0
    6.8337  -13.0550   23.0515 N   0  0  0  0  0  0  0  0  0  0  0  0
    6.8583  -12.6981   24.3290 C   0  0  0  0  0  0  0  0  0  0  0  0
    6.6936  -11.4701   24.9689 C   0  0  0  0  0  0  0  0  0  0  0  0
    6.7556  -11.3412   26.3395 C   0  0  0  0  0  0  0  0  0  0  0  0
    6.9900  -12.4672   27.1295 C   0  0  0  0  0  0  0  0  0  0  0  0
    7.1480  -13.6593   26.4852 C   0  0  0  0  0  0  0  0  0  0  0  0
    7.0857  -13.7941   25.0942 C   0  0  0  0  0  0  0  0  0  0  0  0
    9.0926  -17.9203   25.6134 C   0  0  0  0  0  0  0  0  0  0  0  0
    8.7199  -19.0817   25.2667 O   0  0  0  0  0  0  0  0  0  0  0  0
    9.7567  -17.7282   26.8415 N   0  0  0  0  0  0  0  0  0  0  0  0
   10.7071  -18.6920   27.4075 C   0  0  1  0  0  0  0  0  0  0  0  0
   11.7782  -19.0221   26.4369 C   0  0  0  0  0  0  0  0  0  0  0  0
   12.7818  -19.9883   26.8795 C   0  0  0  0  0  0  0  0  0  0  0  0
   12.7885  -20.6147   28.1134 C   0  0  0  0  0  0  0  0  0  0  0  0
   13.8593  -21.4206   28.1824 N   0  0  0  0  0  0  0  0  0  0  0  0
   14.5221  -21.3056   27.0039 C   0  0  0  0  0  0  0  0  0  0  0  0
   13.8511  -20.4372   26.2396 N   0  0  0  0  0  0  0  0  0  0  0  0
   11.1464  -18.1672   28.7091 C   0  0  0  0  0  0  0  0  0  0  0  0
   10.6996  -16.9430   29.2193 O   0  0  0  0  0  0  0  0  0  0  0  0
   11.9440  -18.8023   29.4234 O   0  0  0  0  0  0  0  0  0  0  0  0
  2  1  1  6
  2  3  1  0
  3  4  1  0
  5  4  1  0
  5  9  1  0
  6  5  2  0
  7  2  1  0
  8  7  2  0
 10  7  1  0
 11 12  1  6
 11 10  1  0
 12 13  1  0
 13 14  2  0
 13 21  1  0
 14 15  1  0
 15 16  1  0
 16 17  2  0
 18 17  1  0
 19 18  2  0
 20 21  2  0
 20 19  1  0
 21 16  1  0
 22 23  2  0
 22 11  1  0
 24 22  1  0
 25 32  1  0
 25 24  1  0
 25 26  1  6
 27 28  2  0
 27 26  1  0
 29 28  1  0
 30 31  2  0
 30 29  1  0
 31 27  1  0
 32 33  1  0
 34 32  2  0
M  END
$$$$
