EWH.pdb
     RDKit          3D

 34 36  0  0  1  0  0  0  0  0999 V2000
   10.8230  -14.9940   18.5646 N   0  0  0  0  0  0  0  0  0  0  0  0
   10.3795  -16.1943   19.3072 C   0  0  1  0  0  0  0  0  0  0  0  0
   11.5233  -17.2121   19.1576 C   0  0  0  0  0  0  0  0  0  0  0  0
   12.0726  -17.0161   17.7382 C   0  0  0  0  0  0  0  0  0  0  0  0
   11.2842  -17.8276   16.8144 C   0  0  0  0  0  0  0  0  0  0  0  0
   10.3602  -18.5539   17.2211 O   0  0  0  0  0  0  0  0  0  0  0  0
   10.1851  -15.7959   20.6980 C   0  0  0  0  0  0  0  0  0  0  0  0
   11.1967  -15.4920   21.4192 O   0  0  0  0  0  0  0  0  0  0  0  0
   11.5686  -17.7870   15.4655 O   0  0  0  0  0  0  0  0  0  0  0  0
    8.9512  -15.7013   21.3687 N   0  0  0  0  0  0  0  0  0  0  0  0
    8.8118  -15.4665   22.8100 C   0  0  1  0  0  0  0  0  0  0  0  0
    7.4374  -14.9632   22.9824 C   0  0  0  0  0  0  0  0  0  0  0  0
    6.9337  -14.7177   24.3161 C   0  0  0  0  0  0  0  0  0  0  0  0
    6.3131  -15.4914   25.2496 C   0  0  0  0  0  0  0  0  0  0  0  0
    6.0524  -14.7734   26.3595 N   0  0  0  0  0  0  0  0  0  0  0  0
    6.4962  -13.5390   26.1609 C   0  0  0  0  0  0  0  0  0  0  0  0
    6.4978  -12.3969   26.9609 C   0  0  0  0  0  0  0  0  0  0  0  0
    7.0332  -11.2010   26.5339 C   0  0  0  0  0  0  0  0  0  0  0  0
    7.5973  -11.1119   25.2608 C   0  0  0  0  0  0  0  0  0  0  0  0
    7.5866  -12.2399   24.4934 C   0  0  0  0  0  0  0  0  0  0  0  0
    7.0441  -13.4555   24.9234 C   0  0  0  0  0  0  0  0  0  0  0  0
    9.1438  -16.7250   23.5119 C   0  0  0  0  0  0  0  0  0  0  0  0
    9.0291  -17.8162   22.8761 O   0  0  0  0  0  0  0  0  0  0  0  0
    9.5783  -16.7303   24.8525 N   0  0  0  0  0  0  0  0  0  0  0  0
   10.6184  -17.6303   25.3631 C   0  0  1  0  0  0  0  0  0  0  0  0
   11.9035  -17.4218   24.6537 C   0  0  0  0  0  0  0  0  0  0  0  0
   13.0335  -18.2330   25.1028 C   0  0  0  0  0  0  0  0  0  0  0  0
   12.9838  -19.1632   26.1262 C   0  0  0  0  0  0  0  0  0  0  0  0
   14.2021  -19.7052   26.2761 N   0  0  0  0  0  0  0  0  0  0  0  0
   15.0134  -19.1245   25.3564 C   0  0  0  0  0  0  0  0  0  0  0  0
   14.2834  -18.2429   24.6647 N   0  0  0  0  0  0  0  0  0  0  0  0
   10.6504  -17.4839   26.8260 C   0  0  0  0  0  0  0  0  0  0  0  0
   10.4747  -16.2515   27.4655 O   0  0  0  0  0  0  0  0  0  0  0  0
   10.8348  -18.4668   27.5674 O   0  0  0  0  0  0  0  0  0  0  0  0
  2  1  1  6
  2  3  1  0
  3  4  1  0
  5  4  1  0
  5  9  1  0
  6  5  2  0
  7  2  1  0
  8  7  2  0
 10  7  1  0
 11 12  1  6
 11 10  1  0
 12 13  1  0
 13 14  2  0
 13 21  1  0
 14 15  1  0
 15 16  1  0
 16 17  2  0
 18 17  1  0
 19 18  2  0
 20 21  2  0
 20 19  1  0
 21 16  1  0
 22 23  2  0
 22 11  1  0
 24 22  1  0
 25 32  1  0
 25 24  1  0
 25 26  1  6
 27 28  2  0
 27 26  1  0
 29 28  1  0
 30 31  2  0
 30 29  1  0
 31 27  1  0
 32 33  1  0
 34 32  2  0
M  END
$$$$
