EWH.pdb
     RDKit          3D

 34 36  0  0  1  0  0  0  0  0999 V2000
    9.4836  -18.1350   19.8869 N   0  0  0  0  0  0  0  0  0  0  0  0
   10.2623  -18.3651   21.1237 C   0  0  1  0  0  0  0  0  0  0  0  0
   11.6741  -18.7521   20.6506 C   0  0  0  0  0  0  0  0  0  0  0  0
   11.4987  -20.0275   19.8155 C   0  0  0  0  0  0  0  0  0  0  0  0
   12.8196  -20.5443   19.4662 C   0  0  0  0  0  0  0  0  0  0  0  0
   13.1736  -20.6608   18.2796 O   0  0  0  0  0  0  0  0  0  0  0  0
   10.2647  -17.1126   21.8733 C   0  0  0  0  0  0  0  0  0  0  0  0
   10.9747  -16.1298   21.4661 O   0  0  0  0  0  0  0  0  0  0  0  0
   13.6914  -20.9087   20.4708 O   0  0  0  0  0  0  0  0  0  0  0  0
    9.5381  -16.8489   23.0496 N   0  0  0  0  0  0  0  0  0  0  0  0
    9.5503  -15.5633   23.7559 C   0  0  1  0  0  0  0  0  0  0  0  0
    8.1367  -15.1520   23.8223 C   0  0  0  0  0  0  0  0  0  0  0  0
    7.3786  -15.0172   22.5975 C   0  0  0  0  0  0  0  0  0  0  0  0
    6.3722  -15.7344   22.0248 C   0  0  0  0  0  0  0  0  0  0  0  0
    5.9965  -15.1722   20.8595 N   0  0  0  0  0  0  0  0  0  0  0  0
    6.7467  -14.0956   20.6649 C   0  0  0  0  0  0  0  0  0  0  0  0
    6.7870  -13.1454   19.6450 C   0  0  0  0  0  0  0  0  0  0  0  0
    7.6678  -12.0857   19.6619 C   0  0  0  0  0  0  0  0  0  0  0  0
    8.5564  -11.9427   20.7282 C   0  0  0  0  0  0  0  0  0  0  0  0
    8.5014  -12.8819   21.7162 C   0  0  0  0  0  0  0  0  0  0  0  0
    7.6088  -13.9589   21.7025 C   0  0  0  0  0  0  0  0  0  0  0  0
   10.2392  -15.7595   25.0496 C   0  0  0  0  0  0  0  0  0  0  0  0
   10.3991  -14.7531   25.8043 O   0  0  0  0  0  0  0  0  0  0  0  0
   10.7122  -17.0254   25.4498 N   0  0  0  0  0  0  0  0  0  0  0  0
   11.2962  -17.2916   26.7691 C   0  0  1  0  0  0  0  0  0  0  0  0
   10.3430  -16.9582   27.8547 C   0  0  0  0  0  0  0  0  0  0  0  0
    9.9965  -15.5461   28.0051 C   0  0  0  0  0  0  0  0  0  0  0  0
   10.9106  -14.5102   28.0855 C   0  0  0  0  0  0  0  0  0  0  0  0
   10.2426  -13.3560   28.2347 N   0  0  0  0  0  0  0  0  0  0  0  0
    8.9200  -13.6589   28.2475 C   0  0  0  0  0  0  0  0  0  0  0  0
    8.8017  -14.9837   28.1076 N   0  0  0  0  0  0  0  0  0  0  0  0
   11.8114  -18.6689   26.7545 C   0  0  0  0  0  0  0  0  0  0  0  0
   11.7245  -19.4956   25.6287 O   0  0  0  0  0  0  0  0  0  0  0  0
   12.3578  -19.1624   27.7584 O   0  0  0  0  0  0  0  0  0  0  0  0
  2  1  1  6
  2  3  1  0
  3  4  1  0
  5  4  1  0
  5  9  1  0
  6  5  2  0
  7  2  1  0
  8  7  2  0
 10  7  1  0
 11 12  1  1
 11 10  1  0
 12 13  1  0
 13 14  2  0
 13 21  1  0
 14 15  1  0
 15 16  1  0
 16 17  2  0
 18 17  1  0
 19 18  2  0
 20 21  2  0
 20 19  1  0
 21 16  1  0
 22 23  2  0
 22 11  1  0
 24 22  1  0
 25 32  1  0
 25 24  1  0
 25 26  1  1
 27 28  2  0
 27 26  1  0
 29 28  1  0
 30 31  2  0
 30 29  1  0
 31 27  1  0
 32 33  1  0
 34 32  2  0
M  END
$$$$
