EWH.pdb
     RDKit          3D

 34 36  0  0  1  0  0  0  0  0999 V2000
    9.6527  -18.5489   21.1419 N   0  0  0  0  0  0  0  0  0  0  0  0
   10.6889  -17.4962   21.0597 C   0  0  1  0  0  0  0  0  0  0  0  0
   10.3024  -16.6377   19.8430 C   0  0  0  0  0  0  0  0  0  0  0  0
   10.4206  -17.5637   18.6251 C   0  0  0  0  0  0  0  0  0  0  0  0
   10.0328  -16.8182   17.4302 C   0  0  0  0  0  0  0  0  0  0  0  0
   10.5758  -15.7378   17.1396 O   0  0  0  0  0  0  0  0  0  0  0  0
   10.6313  -16.7337   22.3031 C   0  0  0  0  0  0  0  0  0  0  0  0
   11.3864  -15.7131   22.4581 O   0  0  0  0  0  0  0  0  0  0  0  0
    9.0470  -17.3222   16.6080 O   0  0  0  0  0  0  0  0  0  0  0  0
    9.7976  -17.0051   23.4042 N   0  0  0  0  0  0  0  0  0  0  0  0
    9.7497  -16.1902   24.6231 C   0  0  1  0  0  0  0  0  0  0  0  0
    8.4723  -16.5437   25.2673 C   0  0  0  0  0  0  0  0  0  0  0  0
    7.3952  -15.5781   25.2850 C   0  0  0  0  0  0  0  0  0  0  0  0
    6.0370  -15.6763   25.2609 C   0  0  0  0  0  0  0  0  0  0  0  0
    5.4748  -14.4528   25.3069 N   0  0  0  0  0  0  0  0  0  0  0  0
    6.4513  -13.5565   25.3608 C   0  0  0  0  0  0  0  0  0  0  0  0
    6.4509  -12.1637   25.4291 C   0  0  0  0  0  0  0  0  0  0  0  0
    7.6162  -11.4300   25.4840 C   0  0  0  0  0  0  0  0  0  0  0  0
    8.8473  -12.0866   25.4721 C   0  0  0  0  0  0  0  0  0  0  0  0
    8.8270  -13.4491   25.4053 C   0  0  0  0  0  0  0  0  0  0  0  0
    7.6463  -14.1972   25.3495 C   0  0  0  0  0  0  0  0  0  0  0  0
   10.9765  -16.4621   25.4026 C   0  0  0  0  0  0  0  0  0  0  0  0
   11.9803  -15.7076   25.2264 O   0  0  0  0  0  0  0  0  0  0  0  0
   11.0460  -17.5277   26.3223 N   0  0  0  0  0  0  0  0  0  0  0  0
   12.1931  -17.7604   27.2069 C   0  0  1  0  0  0  0  0  0  0  0  0
   11.7936  -17.6902   28.6330 C   0  0  0  0  0  0  0  0  0  0  0  0
   11.0310  -16.5106   29.0375 C   0  0  0  0  0  0  0  0  0  0  0  0
   11.4120  -15.2014   28.8010 C   0  0  0  0  0  0  0  0  0  0  0  0
   10.4861  -14.3818   29.3220 N   0  0  0  0  0  0  0  0  0  0  0  0
    9.5291  -15.1646   29.8811 C   0  0  0  0  0  0  0  0  0  0  0  0
    9.8833  -16.4407   29.6948 N   0  0  0  0  0  0  0  0  0  0  0  0
   12.8406  -19.0072   26.7723 C   0  0  0  0  0  0  0  0  0  0  0  0
   12.2930  -19.8395   25.7894 O   0  0  0  0  0  0  0  0  0  0  0  0
   13.9215  -19.3774   27.2666 O   0  0  0  0  0  0  0  0  0  0  0  0
  2  1  1  1
  2  3  1  0
  3  4  1  0
  5  4  1  0
  5  9  1  0
  6  5  2  0
  7  2  1  0
  8  7  2  0
 10  7  1  0
 11 12  1  1
 11 10  1  0
 12 13  1  0
 13 14  2  0
 13 21  1  0
 14 15  1  0
 15 16  1  0
 16 17  2  0
 18 17  1  0
 19 18  2  0
 20 21  2  0
 20 19  1  0
 21 16  1  0
 22 23  2  0
 22 11  1  0
 24 22  1  0
 25 32  1  0
 25 24  1  0
 25 26  1  1
 27 28  2  0
 27 26  1  0
 29 28  1  0
 30 31  2  0
 30 29  1  0
 31 27  1  0
 32 33  1  0
 34 32  2  0
M  END
$$$$
