EWH.pdb
     RDKit          3D

 34 36  0  0  1  0  0  0  0  0999 V2000
    9.4709  -17.7836   21.1506 N   0  0  0  0  0  0  0  0  0  0  0  0
    9.4490  -16.3158   21.3346 C   0  0  1  0  0  0  0  0  0  0  0  0
    8.1392  -15.8424   20.6810 C   0  0  0  0  0  0  0  0  0  0  0  0
    8.4866  -15.5507   19.2151 C   0  0  0  0  0  0  0  0  0  0  0  0
    8.4571  -16.8055   18.4679 C   0  0  0  0  0  0  0  0  0  0  0  0
    8.0372  -17.8552   18.9862 O   0  0  0  0  0  0  0  0  0  0  0  0
    9.4630  -16.0591   22.7715 C   0  0  0  0  0  0  0  0  0  0  0  0
    9.9031  -14.9425   23.2132 O   0  0  0  0  0  0  0  0  0  0  0  0
    8.9021  -16.8269   17.1627 O   0  0  0  0  0  0  0  0  0  0  0  0
    9.0243  -16.9424   23.7758 N   0  0  0  0  0  0  0  0  0  0  0  0
    9.1597  -16.6884   25.2142 C   0  0  1  0  0  0  0  0  0  0  0  0
    7.7883  -16.4244   25.6849 C   0  0  0  0  0  0  0  0  0  0  0  0
    7.1442  -15.1784   25.3310 C   0  0  0  0  0  0  0  0  0  0  0  0
    6.2378  -14.8194   24.3798 C   0  0  0  0  0  0  0  0  0  0  0  0
    5.9446  -13.5081   24.4787 N   0  0  0  0  0  0  0  0  0  0  0  0
    6.6497  -13.0068   25.4843 C   0  0  0  0  0  0  0  0  0  0  0  0
    6.7348  -11.7268   26.0312 C   0  0  0  0  0  0  0  0  0  0  0  0
    7.5504  -11.4384   27.1039 C   0  0  0  0  0  0  0  0  0  0  0  0
    8.3241  -12.4494   27.6751 C   0  0  0  0  0  0  0  0  0  0  0  0
    8.2269  -13.6947   27.1265 C   0  0  0  0  0  0  0  0  0  0  0  0
    7.4002  -13.9913   26.0376 C   0  0  0  0  0  0  0  0  0  0  0  0
    9.8507  -17.8473   25.8195 C   0  0  0  0  0  0  0  0  0  0  0  0
    9.2644  -18.9715   25.8051 O   0  0  0  0  0  0  0  0  0  0  0  0
   11.1283  -17.7238   26.4015 N   0  0  0  0  0  0  0  0  0  0  0  0
   11.8248  -18.8297   27.0681 C   0  0  1  0  0  0  0  0  0  0  0  0
   13.2552  -18.8740   26.6805 C   0  0  0  0  0  0  0  0  0  0  0  0
   13.5444  -18.7889   25.2502 C   0  0  0  0  0  0  0  0  0  0  0  0
   12.9372  -19.5566   24.2720 C   0  0  0  0  0  0  0  0  0  0  0  0
   13.4554  -19.2249   23.0796 N   0  0  0  0  0  0  0  0  0  0  0  0
   14.3799  -18.2567   23.3013 C   0  0  0  0  0  0  0  0  0  0  0  0
   14.4121  -18.0146   24.6162 N   0  0  0  0  0  0  0  0  0  0  0  0
   11.5427  -18.7259   28.5076 C   0  0  0  0  0  0  0  0  0  0  0  0
   10.7857  -17.6841   29.0555 O   0  0  0  0  0  0  0  0  0  0  0  0
   11.9700  -19.5762   29.3103 O   0  0  0  0  0  0  0  0  0  0  0  0
  2  1  1  1
  2  3  1  0
  3  4  1  0
  5  4  1  0
  5  9  1  0
  6  5  2  0
  7  2  1  0
  8  7  2  0
 10  7  1  0
 11 12  1  1
 11 10  1  0
 12 13  1  0
 13 14  2  0
 13 21  1  0
 14 15  1  0
 15 16  1  0
 16 17  2  0
 18 17  1  0
 19 18  2  0
 20 21  2  0
 20 19  1  0
 21 16  1  0
 22 23  2  0
 22 11  1  0
 24 22  1  0
 25 32  1  0
 25 24  1  0
 25 26  1  1
 27 28  2  0
 27 26  1  0
 29 28  1  0
 30 31  2  0
 30 29  1  0
 31 27  1  0
 32 33  1  0
 34 32  2  0
M  END
$$$$
