EWH.pdb
     RDKit          3D

 34 36  0  0  1  0  0  0  0  0999 V2000
    7.7329  -15.0072   18.1149 N   0  0  0  0  0  0  0  0  0  0  0  0
    7.5392  -16.0004   19.1942 C   0  0  1  0  0  0  0  0  0  0  0  0
    8.2001  -17.2922   18.6830 C   0  0  0  0  0  0  0  0  0  0  0  0
    9.7029  -16.9907   18.6098 C   0  0  0  0  0  0  0  0  0  0  0  0
   10.4028  -18.1987   18.1802 C   0  0  0  0  0  0  0  0  0  0  0  0
   10.1275  -19.3105   18.6648 O   0  0  0  0  0  0  0  0  0  0  0  0
    8.2072  -15.4825   20.3843 C   0  0  0  0  0  0  0  0  0  0  0  0
    8.7162  -14.3093   20.3675 O   0  0  0  0  0  0  0  0  0  0  0  0
   11.3866  -18.1053   17.2182 O   0  0  0  0  0  0  0  0  0  0  0  0
    8.3611  -16.1588   21.6091 N   0  0  0  0  0  0  0  0  0  0  0  0
    8.8411  -15.5294   22.8442 C   0  0  1  0  0  0  0  0  0  0  0  0
    7.9026  -14.4215   23.0964 C   0  0  0  0  0  0  0  0  0  0  0  0
    7.2277  -14.3400   24.3734 C   0  0  0  0  0  0  0  0  0  0  0  0
    6.5394  -15.2330   25.1377 C   0  0  0  0  0  0  0  0  0  0  0  0
    6.1078  -14.6486   26.2723 N   0  0  0  0  0  0  0  0  0  0  0  0
    6.5068  -13.3835   26.2573 C   0  0  0  0  0  0  0  0  0  0  0  0
    6.3506  -12.3341   27.1623 C   0  0  0  0  0  0  0  0  0  0  0  0
    6.8703  -11.0792   26.9297 C   0  0  0  0  0  0  0  0  0  0  0  0
    7.5800  -10.8323   25.7540 C   0  0  0  0  0  0  0  0  0  0  0  0
    7.7225  -11.8714   24.8815 C   0  0  0  0  0  0  0  0  0  0  0  0
    7.1964  -13.1466   25.1142 C   0  0  0  0  0  0  0  0  0  0  0  0
    8.9208  -16.5739   23.8879 C   0  0  0  0  0  0  0  0  0  0  0  0
    8.1612  -16.4733   24.8983 O   0  0  0  0  0  0  0  0  0  0  0  0
    9.8120  -17.6603   23.7789 N   0  0  0  0  0  0  0  0  0  0  0  0
   11.2518  -17.5060   23.5430 C   0  0  1  0  0  0  0  0  0  0  0  0
   11.5136  -16.6050   22.3949 C   0  0  0  0  0  0  0  0  0  0  0  0
   12.9169  -16.3598   22.0674 C   0  0  0  0  0  0  0  0  0  0  0  0
   13.9941  -16.9471   22.7073 C   0  0  0  0  0  0  0  0  0  0  0  0
   15.1274  -16.4813   22.1602 N   0  0  0  0  0  0  0  0  0  0  0  0
   14.7703  -15.6093   21.1838 C   0  0  0  0  0  0  0  0  0  0  0  0
   13.4344  -15.5560   21.1506 N   0  0  0  0  0  0  0  0  0  0  0  0
   11.8712  -17.1283   24.8221 C   0  0  0  0  0  0  0  0  0  0  0  0
   13.2287  -17.3338   25.0933 O   0  0  0  0  0  0  0  0  0  0  0  0
   11.2032  -16.5988   25.7294 O   0  0  0  0  0  0  0  0  0  0  0  0
  2  1  1  6
  2  3  1  0
  3  4  1  0
  5  4  1  0
  5  9  1  0
  6  5  2  0
  7  2  1  0
  8  7  2  0
 10  7  1  0
 11 12  1  1
 11 10  1  0
 12 13  1  0
 13 14  2  0
 13 21  1  0
 14 15  1  0
 15 16  1  0
 16 17  2  0
 18 17  1  0
 19 18  2  0
 20 21  2  0
 20 19  1  0
 21 16  1  0
 22 23  2  0
 22 11  1  0
 24 22  1  0
 25 32  1  0
 25 24  1  0
 25 26  1  6
 27 28  2  0
 27 26  1  0
 29 28  1  0
 30 31  2  0
 30 29  1  0
 31 27  1  0
 32 33  1  0
 34 32  2  0
M  END
$$$$
