EWH.pdb
     RDKit          3D

 34 36  0  0  1  0  0  0  0  0999 V2000
    9.4833  -18.7127   20.2821 N   0  0  0  0  0  0  0  0  0  0  0  0
   10.5851  -17.7392   20.1173 C   0  0  1  0  0  0  0  0  0  0  0  0
   10.5637  -17.3471   18.6298 C   0  0  0  0  0  0  0  0  0  0  0  0
   10.4899  -18.6677   17.8517 C   0  0  0  0  0  0  0  0  0  0  0  0
   10.5964  -18.3770   16.4242 C   0  0  0  0  0  0  0  0  0  0  0  0
   11.3559  -17.4873   16.0019 O   0  0  0  0  0  0  0  0  0  0  0  0
   10.2912  -16.6016   20.9834 C   0  0  0  0  0  0  0  0  0  0  0  0
   11.0643  -15.5828   20.9786 O   0  0  0  0  0  0  0  0  0  0  0  0
    9.8415  -19.1033   15.5272 O   0  0  0  0  0  0  0  0  0  0  0  0
    9.1995  -16.4911   21.8652 N   0  0  0  0  0  0  0  0  0  0  0  0
    8.8517  -15.2689   22.5981 C   0  0  1  0  0  0  0  0  0  0  0  0
    7.4366  -15.4394   22.9727 C   0  0  0  0  0  0  0  0  0  0  0  0
    6.9979  -15.0359   24.2908 C   0  0  0  0  0  0  0  0  0  0  0  0
    6.5689  -15.7121   25.3926 C   0  0  0  0  0  0  0  0  0  0  0  0
    6.2828  -14.8538   26.3909 N   0  0  0  0  0  0  0  0  0  0  0  0
    6.5203  -13.6243   25.9531 C   0  0  0  0  0  0  0  0  0  0  0  0
    6.4069  -12.3707   26.5531 C   0  0  0  0  0  0  0  0  0  0  0  0
    6.7244  -11.2060   25.8884 C   0  0  0  0  0  0  0  0  0  0  0  0
    7.1765  -11.2644   24.5696 C   0  0  0  0  0  0  0  0  0  0  0  0
    7.2812  -12.4997   24.0002 C   0  0  0  0  0  0  0  0  0  0  0  0
    6.9599  -13.6841   24.6718 C   0  0  0  0  0  0  0  0  0  0  0  0
    9.8125  -15.1152   23.7116 C   0  0  0  0  0  0  0  0  0  0  0  0
    9.8744  -13.9946   24.3018 O   0  0  0  0  0  0  0  0  0  0  0  0
   10.6456  -16.1762   24.1199 N   0  0  0  0  0  0  0  0  0  0  0  0
   11.1389  -16.3363   25.4923 C   0  0  1  0  0  0  0  0  0  0  0  0
   10.0175  -16.4422   26.4564 C   0  0  0  0  0  0  0  0  0  0  0  0
   10.3071  -16.0558   27.8360 C   0  0  0  0  0  0  0  0  0  0  0  0
   11.5418  -15.6356   28.2985 C   0  0  0  0  0  0  0  0  0  0  0  0
   11.4462  -15.3798   29.6123 N   0  0  0  0  0  0  0  0  0  0  0  0
   10.1641  -15.6345   29.9764 C   0  0  0  0  0  0  0  0  0  0  0  0
    9.5018  -16.0396   28.8875 N   0  0  0  0  0  0  0  0  0  0  0  0
   12.1024  -17.4472   25.4888 C   0  0  0  0  0  0  0  0  0  0  0  0
   11.7095  -18.7871   25.3945 O   0  0  0  0  0  0  0  0  0  0  0  0
   13.3270  -17.2375   25.5677 O   0  0  0  0  0  0  0  0  0  0  0  0
  2  1  1  6
  2  3  1  0
  3  4  1  0
  5  4  1  0
  5  9  1  0
  6  5  2  0
  7  2  1  0
  8  7  2  0
 10  7  1  0
 11 12  1  1
 11 10  1  0
 12 13  1  0
 13 14  2  0
 13 21  1  0
 14 15  1  0
 15 16  1  0
 16 17  2  0
 18 17  1  0
 19 18  2  0
 20 21  2  0
 20 19  1  0
 21 16  1  0
 22 23  2  0
 22 11  1  0
 24 22  1  0
 25 32  1  0
 25 24  1  0
 25 26  1  1
 27 28  2  0
 27 26  1  0
 29 28  1  0
 30 31  2  0
 30 29  1  0
 31 27  1  0
 32 33  1  0
 34 32  2  0
M  END
$$$$
