EWH.pdb
     RDKit          3D

 34 36  0  0  1  0  0  0  0  0999 V2000
    9.4004  -18.6218   22.0094 N   0  0  0  0  0  0  0  0  0  0  0  0
   10.3852  -17.5178   21.9970 C   0  0  1  0  0  0  0  0  0  0  0  0
    9.9794  -16.6227   20.8134 C   0  0  0  0  0  0  0  0  0  0  0  0
    9.7284  -17.5755   19.6371 C   0  0  0  0  0  0  0  0  0  0  0  0
    9.4936  -16.7822   18.4333 C   0  0  0  0  0  0  0  0  0  0  0  0
    9.6071  -15.5437   18.4446 O   0  0  0  0  0  0  0  0  0  0  0  0
   10.2676  -16.8182   23.2727 C   0  0  0  0  0  0  0  0  0  0  0  0
   11.0006  -15.7967   23.5071 O   0  0  0  0  0  0  0  0  0  0  0  0
    9.1403  -17.4180   17.2616 O   0  0  0  0  0  0  0  0  0  0  0  0
    9.3958  -17.1544   24.3254 N   0  0  0  0  0  0  0  0  0  0  0  0
    9.2869  -16.4002   25.5789 C   0  0  1  0  0  0  0  0  0  0  0  0
    7.8768  -15.9773   25.6474 C   0  0  0  0  0  0  0  0  0  0  0  0
    7.4319  -14.8580   24.8461 C   0  0  0  0  0  0  0  0  0  0  0  0
    7.1906  -14.6836   23.5170 C   0  0  0  0  0  0  0  0  0  0  0  0
    6.7727  -13.4258   23.2747 N   0  0  0  0  0  0  0  0  0  0  0  0
    6.7384  -12.7770   24.4313 C   0  0  0  0  0  0  0  0  0  0  0  0
    6.3815  -11.4725   24.7711 C   0  0  0  0  0  0  0  0  0  0  0  0
    6.4199  -11.0145   26.0702 C   0  0  0  0  0  0  0  0  0  0  0  0
    6.8270  -11.8716   27.0933 C   0  0  0  0  0  0  0  0  0  0  0  0
    7.1716  -13.1438   26.7410 C   0  0  0  0  0  0  0  0  0  0  0  0
    7.1339  -13.6123   25.4234 C   0  0  0  0  0  0  0  0  0  0  0  0
    9.7673  -17.2670   26.6765 C   0  0  0  0  0  0  0  0  0  0  0  0
    9.6363  -16.8554   27.8687 O   0  0  0  0  0  0  0  0  0  0  0  0
   10.3577  -18.5212   26.4225 N   0  0  0  0  0  0  0  0  0  0  0  0
   10.7971  -19.4384   27.4800 C   0  0  1  0  0  0  0  0  0  0  0  0
   10.1592  -20.7690   27.3351 C   0  0  0  0  0  0  0  0  0  0  0  0
    8.6979  -20.7897   27.3027 C   0  0  0  0  0  0  0  0  0  0  0  0
    7.8852  -19.6896   27.5129 C   0  0  0  0  0  0  0  0  0  0  0  0
    6.6035  -20.0771   27.4254 N   0  0  0  0  0  0  0  0  0  0  0  0
    6.6058  -21.4082   27.1616 C   0  0  0  0  0  0  0  0  0  0  0  0
    7.8797  -21.8099   27.0933 N   0  0  0  0  0  0  0  0  0  0  0  0
   12.2674  -19.4193   27.4988 C   0  0  0  0  0  0  0  0  0  0  0  0
   13.0197  -20.1281   28.4423 O   0  0  0  0  0  0  0  0  0  0  0  0
   12.9135  -18.7638   26.6605 O   0  0  0  0  0  0  0  0  0  0  0  0
  2  1  1  1
  2  3  1  0
  3  4  1  0
  5  4  1  0
  5  9  1  0
  6  5  2  0
  7  2  1  0
  8  7  2  0
 10  7  1  0
 11 12  1  1
 11 10  1  0
 12 13  1  0
 13 14  2  0
 13 21  1  0
 14 15  1  0
 15 16  1  0
 16 17  2  0
 18 17  1  0
 19 18  2  0
 20 21  2  0
 20 19  1  0
 21 16  1  0
 22 23  2  0
 22 11  1  0
 24 22  1  0
 25 32  1  0
 25 24  1  0
 25 26  1  6
 27 28  2  0
 27 26  1  0
 29 28  1  0
 30 31  2  0
 30 29  1  0
 31 27  1  0
 32 33  1  0
 34 32  2  0
M  END
$$$$
