EWH.pdb
     RDKit          3D

 34 36  0  0  1  0  0  0  0  0999 V2000
    9.9609  -15.7784   20.0922 N   0  0  0  0  0  0  0  0  0  0  0  0
   10.3148  -16.9456   20.9296 C   0  0  1  0  0  0  0  0  0  0  0  0
   11.7428  -17.3322   20.5075 C   0  0  0  0  0  0  0  0  0  0  0  0
   11.6130  -17.9372   19.1032 C   0  0  0  0  0  0  0  0  0  0  0  0
   12.9216  -18.4325   18.6836 C   0  0  0  0  0  0  0  0  0  0  0  0
   13.1716  -19.6505   18.6557 O   0  0  0  0  0  0  0  0  0  0  0  0
   10.2584  -16.5125   22.3224 C   0  0  0  0  0  0  0  0  0  0  0  0
   10.9675  -15.5207   22.7086 O   0  0  0  0  0  0  0  0  0  0  0  0
   13.8980  -17.5331   18.3101 O   0  0  0  0  0  0  0  0  0  0  0  0
    9.4728  -17.0884   23.3385 N   0  0  0  0  0  0  0  0  0  0  0  0
    9.4484  -16.6190   24.7281 C   0  0  1  0  0  0  0  0  0  0  0  0
    8.0319  -16.3210   25.0045 C   0  0  0  0  0  0  0  0  0  0  0  0
    7.4429  -15.1136   24.4677 C   0  0  0  0  0  0  0  0  0  0  0  0
    6.9429  -14.7664   23.2493 C   0  0  0  0  0  0  0  0  0  0  0  0
    6.4925  -13.4968   23.2687 N   0  0  0  0  0  0  0  0  0  0  0  0
    6.6929  -13.0110   24.4868 C   0  0  0  0  0  0  0  0  0  0  0  0
    6.4183  -11.7724   25.0656 C   0  0  0  0  0  0  0  0  0  0  0  0
    6.7172  -11.4934   26.3816 C   0  0  0  0  0  0  0  0  0  0  0  0
    7.3147  -12.4719   27.1769 C   0  0  0  0  0  0  0  0  0  0  0  0
    7.5749  -13.6771   26.5929 C   0  0  0  0  0  0  0  0  0  0  0  0
    7.2730  -13.9640   25.2574 C   0  0  0  0  0  0  0  0  0  0  0  0
   10.0784  -17.6573   25.5719 C   0  0  0  0  0  0  0  0  0  0  0  0
    9.7931  -18.8716   25.3441 O   0  0  0  0  0  0  0  0  0  0  0  0
   10.9752  -17.3239   26.6067 N   0  0  0  0  0  0  0  0  0  0  0  0
   11.5640  -18.3120   27.5175 C   0  0  1  0  0  0  0  0  0  0  0  0
   13.0298  -18.1241   27.6377 C   0  0  0  0  0  0  0  0  0  0  0  0
   13.8242  -18.4284   26.4491 C   0  0  0  0  0  0  0  0  0  0  0  0
   13.3547  -19.0973   25.3323 C   0  0  0  0  0  0  0  0  0  0  0  0
   14.3560  -19.2139   24.4467 N   0  0  0  0  0  0  0  0  0  0  0  0
   15.4470  -18.6240   24.9973 C   0  0  0  0  0  0  0  0  0  0  0  0
   15.0976  -18.1604   26.2022 N   0  0  0  0  0  0  0  0  0  0  0  0
   10.7966  -18.2697   28.7713 C   0  0  0  0  0  0  0  0  0  0  0  0
   11.0574  -19.1282   29.8453 O   0  0  0  0  0  0  0  0  0  0  0  0
    9.8709  -17.4531   28.9322 O   0  0  0  0  0  0  0  0  0  0  0  0
  2  1  1  6
  2  3  1  0
  3  4  1  0
  5  4  1  0
  5  9  1  0
  6  5  2  0
  7  2  1  0
  8  7  2  0
 10  7  1  0
 11 12  1  1
 11 10  1  0
 12 13  1  0
 13 14  2  0
 13 21  1  0
 14 15  1  0
 15 16  1  0
 16 17  2  0
 18 17  1  0
 19 18  2  0
 20 21  2  0
 20 19  1  0
 21 16  1  0
 22 23  2  0
 22 11  1  0
 24 22  1  0
 25 32  1  0
 25 24  1  0
 25 26  1  1
 27 28  2  0
 27 26  1  0
 29 28  1  0
 30 31  2  0
 30 29  1  0
 31 27  1  0
 32 33  1  0
 34 32  2  0
M  END
$$$$
