EWH.pdb
     RDKit          3D

 34 36  0  0  1  0  0  0  0  0999 V2000
    8.0450  -15.8026   19.9400 N   0  0  0  0  0  0  0  0  0  0  0  0
    8.6913  -16.7792   20.8441 C   0  0  1  0  0  0  0  0  0  0  0  0
    9.8428  -17.3908   20.0275 C   0  0  0  0  0  0  0  0  0  0  0  0
    9.1797  -18.1059   18.8428 C   0  0  0  0  0  0  0  0  0  0  0  0
   10.2229  -18.6996   18.0103 C   0  0  0  0  0  0  0  0  0  0  0  0
   10.1650  -18.6477   16.7690 O   0  0  0  0  0  0  0  0  0  0  0  0
    9.1805  -16.0387   22.0030 C   0  0  0  0  0  0  0  0  0  0  0  0
    9.5984  -14.8385   21.8601 O   0  0  0  0  0  0  0  0  0  0  0  0
   11.2928  -19.3285   18.6116 O   0  0  0  0  0  0  0  0  0  0  0  0
    9.2463  -16.5172   23.3252 N   0  0  0  0  0  0  0  0  0  0  0  0
    9.7488  -15.7362   24.4608 C   0  0  1  0  0  0  0  0  0  0  0  0
    8.7243  -15.8869   25.5094 C   0  0  0  0  0  0  0  0  0  0  0  0
    7.4191  -15.2933   25.3168 C   0  0  0  0  0  0  0  0  0  0  0  0
    6.1960  -15.7881   24.9786 C   0  0  0  0  0  0  0  0  0  0  0  0
    5.2813  -14.7997   24.9413 N   0  0  0  0  0  0  0  0  0  0  0  0
    5.8938  -13.6646   25.2515 C   0  0  0  0  0  0  0  0  0  0  0  0
    5.4419  -12.3507   25.3710 C   0  0  0  0  0  0  0  0  0  0  0  0
    6.2802  -11.3138   25.7192 C   0  0  0  0  0  0  0  0  0  0  0  0
    7.6299  -11.5690   25.9644 C   0  0  0  0  0  0  0  0  0  0  0  0
    8.0527  -12.8604   25.8429 C   0  0  0  0  0  0  0  0  0  0  0  0
    7.2048  -13.9155   25.4897 C   0  0  0  0  0  0  0  0  0  0  0  0
   11.1036  -16.2290   24.7899 C   0  0  0  0  0  0  0  0  0  0  0  0
   12.0783  -15.8214   24.0886 O   0  0  0  0  0  0  0  0  0  0  0  0
   11.3244  -17.1284   25.8523 N   0  0  0  0  0  0  0  0  0  0  0  0
   12.6172  -17.2805   26.5290 C   0  0  1  0  0  0  0  0  0  0  0  0
   12.4467  -17.3586   27.9998 C   0  0  0  0  0  0  0  0  0  0  0  0
   11.4433  -16.4722   28.5863 C   0  0  0  0  0  0  0  0  0  0  0  0
   11.5998  -15.1094   28.7688 C   0  0  0  0  0  0  0  0  0  0  0  0
   10.4908  -14.6211   29.3452 N   0  0  0  0  0  0  0  0  0  0  0  0
    9.6415  -15.6642   29.5244 C   0  0  0  0  0  0  0  0  0  0  0  0
   10.2410  -16.7652   29.0586 N   0  0  0  0  0  0  0  0  0  0  0  0
   13.3190  -18.4059   25.8937 C   0  0  0  0  0  0  0  0  0  0  0  0
   14.6216  -18.7783   26.2446 O   0  0  0  0  0  0  0  0  0  0  0  0
   12.7729  -19.0863   25.0057 O   0  0  0  0  0  0  0  0  0  0  0  0
  2  1  1  6
  2  3  1  0
  3  4  1  0
  5  4  1  0
  5  9  1  0
  6  5  2  0
  7  2  1  0
  8  7  2  0
 10  7  1  0
 11 12  1  1
 11 10  1  0
 12 13  1  0
 13 14  2  0
 13 21  1  0
 14 15  1  0
 15 16  1  0
 16 17  2  0
 18 17  1  0
 19 18  2  0
 20 21  2  0
 20 19  1  0
 21 16  1  0
 22 23  2  0
 22 11  1  0
 24 22  1  0
 25 32  1  0
 25 24  1  0
 25 26  1  1
 27 28  2  0
 27 26  1  0
 29 28  1  0
 30 31  2  0
 30 29  1  0
 31 27  1  0
 32 33  1  0
 34 32  2  0
M  END
$$$$
