PYC.pdb
     RDKit          3D

 26 27  0  0  1  0  0  0  0  0999 V2000
   23.1557  -11.1662  -19.2451 N   0  0  0  0  0  0  0  0  0  0  0  0
   23.3875  -12.4045  -19.9726 C   0  0  0  0  0  0  0  0  0  0  0  0
   23.3422  -13.5201  -18.9764 C   0  0  0  0  0  0  0  0  0  0  0  0
   23.0606  -12.8034  -17.6486 C   0  0  0  0  0  0  0  0  0  0  0  0
   22.3183  -11.5882  -18.1654 C   0  0  1  0  0  0  0  0  0  0  0  0
   22.1424  -10.5508  -17.1227 C   0  0  0  0  0  0  0  0  0  0  0  0
   21.6172  -10.8078  -16.0166 O   0  0  0  0  0  0  0  0  0  0  0  0
   27.8712  -11.2874  -15.3655 O   0  0  0  0  0  0  0  0  0  0  0  0
   26.8677  -10.3318  -15.5814 C   0  0  0  0  0  0  0  0  0  0  0  0
   26.8962   -9.5551  -16.7209 C   0  0  0  0  0  0  0  0  0  0  0  0
   25.9037   -8.6119  -16.9318 C   0  0  0  0  0  0  0  0  0  0  0  0
   24.8880   -8.4245  -16.0389 C   0  0  0  0  0  0  0  0  0  0  0  0
   23.8099   -7.4076  -16.2570 C   0  0  0  0  0  0  0  0  0  0  0  0
   22.5071   -8.1079  -16.5151 C   0  0  2  0  0  0  0  0  0  0  0  0
   22.5828   -9.2296  -17.3890 N   0  0  0  0  0  0  0  0  0  0  0  0
   21.4096   -7.1662  -16.9167 C   0  0  0  0  0  0  0  0  0  0  0  0
   21.3178   -6.6366  -18.0438 O   0  0  0  0  0  0  0  0  0  0  0  0
   24.8823   -9.2158  -14.9047 C   0  0  0  0  0  0  0  0  0  0  0  0
   25.8523  -10.1578  -14.6699 C   0  0  0  0  0  0  0  0  0  0  0  0
   20.3767   -6.8232  -15.9778 N   0  0  0  0  0  0  0  0  0  0  0  0
   19.2774   -5.9472  -16.3096 C   0  0  1  0  0  0  0  0  0  0  0  0
   18.1895   -6.1286  -15.2640 C   0  0  0  0  0  0  0  0  0  0  0  0
   16.8307   -4.9866  -15.6362 S   0  0  0  0  0  0  0  0  0  0  0  0
   19.6823   -4.5226  -16.2639 C   0  0  0  0  0  0  0  0  0  0  0  0
   20.3537   -4.0702  -15.1376 O   0  0  0  0  0  0  0  0  0  0  0  0
   19.4484   -3.7130  -17.1881 O   0  0  0  0  0  0  0  0  0  0  0  0
  1  2  1  0
  3  2  1  0
  4  5  1  0
  4  3  1  0
  5  1  1  0
  5  6  1  1
  7  6  2  0
  8  9  1  0
  9 19  2  0
 10  9  1  0
 10 11  2  0
 11 12  1  0
 12 18  2  0
 12 13  1  0
 14 13  1  6
 14 16  1  0
 14 15  1  0
 15  6  1  0
 16 17  2  0
 19 18  1  0
 20 21  1  0
 20 16  1  0
 21 22  1  1
 23 22  1  0
 24 25  1  0
 24 21  1  0
 26 24  2  0
M  END
$$$$
