PYC.pdb
     RDKit          3D

 26 27  0  0  1  0  0  0  0  0999 V2000
   29.4138  -34.0493  -17.6046 N   0  0  0  0  0  0  0  0  0  0  0  0
   30.7044  -34.3094  -16.9855 C   0  0  0  0  0  0  0  0  0  0  0  0
   30.8983  -33.2827  -15.9145 C   0  0  0  0  0  0  0  0  0  0  0  0
   29.6149  -32.4438  -15.9860 C   0  0  0  0  0  0  0  0  0  0  0  0
   28.6580  -33.4846  -16.5300 C   0  0  1  0  0  0  0  0  0  0  0  0
   27.3724  -32.8928  -16.9677 C   0  0  0  0  0  0  0  0  0  0  0  0
   27.0942  -32.7378  -18.1776 O   0  0  0  0  0  0  0  0  0  0  0  0
   19.1081  -30.0793  -16.7464 O   0  0  0  0  0  0  0  0  0  0  0  0
   20.3640  -30.5465  -16.3325 C   0  0  0  0  0  0  0  0  0  0  0  0
   21.1901  -29.7253  -15.5937 C   0  0  0  0  0  0  0  0  0  0  0  0
   22.4302  -30.1891  -15.1861 C   0  0  0  0  0  0  0  0  0  0  0  0
   22.8653  -31.4458  -15.4953 C   0  0  0  0  0  0  0  0  0  0  0  0
   24.2042  -31.9574  -15.0597 C   0  0  0  0  0  0  0  0  0  0  0  0
   25.1678  -31.8766  -16.2083 C   0  0  2  0  0  0  0  0  0  0  0  0
   26.4325  -32.4918  -15.9849 N   0  0  0  0  0  0  0  0  0  0  0  0
   25.3171  -30.4833  -16.7460 C   0  0  0  0  0  0  0  0  0  0  0  0
   25.9871  -29.5865  -16.1928 O   0  0  0  0  0  0  0  0  0  0  0  0
   22.0184  -32.2491  -16.2368 C   0  0  0  0  0  0  0  0  0  0  0  0
   20.7847  -31.8160  -16.6540 C   0  0  0  0  0  0  0  0  0  0  0  0
   24.6657  -30.1121  -17.9723 N   0  0  0  0  0  0  0  0  0  0  0  0
   24.7651  -28.7882  -18.5412 C   0  0  1  0  0  0  0  0  0  0  0  0
   25.3243  -28.9137  -19.9487 C   0  0  0  0  0  0  0  0  0  0  0  0
   27.1350  -28.9500  -19.8525 S   0  0  0  0  0  0  0  0  0  0  0  0
   23.4353  -28.1462  -18.6641 C   0  0  0  0  0  0  0  0  0  0  0  0
   23.3767  -26.8582  -19.1755 O   0  0  0  0  0  0  0  0  0  0  0  0
   22.3688  -28.7080  -18.3302 O   0  0  0  0  0  0  0  0  0  0  0  0
  1  2  1  0
  3  2  1  0
  4  5  1  0
  4  3  1  0
  5  1  1  0
  5  6  1  6
  7  6  2  0
  8  9  1  0
  9 19  2  0
 10  9  1  0
 10 11  2  0
 11 12  1  0
 12 18  2  0
 12 13  1  0
 14 13  1  1
 14 16  1  0
 14 15  1  0
 15  6  1  0
 16 17  2  0
 19 18  1  0
 20 21  1  0
 20 16  1  0
 21 22  1  6
 23 22  1  0
 24 25  1  0
 24 21  1  0
 26 24  2  0
M  END
$$$$
