PYC.pdb
     RDKit          3D

 26 27  0  0  1  0  0  0  0  0999 V2000
   27.8006  -21.1671  -15.2665 N   0  0  0  0  0  0  0  0  0  0  0  0
   28.3504  -21.0235  -16.6058 C   0  0  0  0  0  0  0  0  0  0  0  0
   28.2325  -19.5800  -16.9820 C   0  0  0  0  0  0  0  0  0  0  0  0
   27.5839  -18.9399  -15.7468 C   0  0  0  0  0  0  0  0  0  0  0  0
   28.0739  -19.8935  -14.6765 C   0  0  1  0  0  0  0  0  0  0  0  0
   27.3833  -19.6892  -13.3819 C   0  0  0  0  0  0  0  0  0  0  0  0
   27.3686  -18.5771  -12.8090 O   0  0  0  0  0  0  0  0  0  0  0  0
   21.3169  -19.1621  -15.7090 O   0  0  0  0  0  0  0  0  0  0  0  0
   22.1307  -19.7478  -14.7285 C   0  0  0  0  0  0  0  0  0  0  0  0
   22.2049  -19.1813  -13.4730 C   0  0  0  0  0  0  0  0  0  0  0  0
   23.0095  -19.7618  -12.5062 C   0  0  0  0  0  0  0  0  0  0  0  0
   23.7388  -20.8881  -12.7587 C   0  0  0  0  0  0  0  0  0  0  0  0
   24.6120  -21.5239  -11.7208 C   0  0  0  0  0  0  0  0  0  0  0  0
   25.8998  -20.7594  -11.6145 C   0  0  2  0  0  0  0  0  0  0  0  0
   26.7210  -20.7875  -12.7775 N   0  0  0  0  0  0  0  0  0  0  0  0
   26.6791  -21.1008  -10.3780 C   0  0  0  0  0  0  0  0  0  0  0  0
   27.3685  -22.1336  -10.2468 O   0  0  0  0  0  0  0  0  0  0  0  0
   23.6469  -21.4363  -14.0250 C   0  0  0  0  0  0  0  0  0  0  0  0
   22.8581  -20.8827  -15.0021 C   0  0  0  0  0  0  0  0  0  0  0  0
   26.6607  -20.2124   -9.2482 N   0  0  0  0  0  0  0  0  0  0  0  0
   26.4743  -20.6747   -7.8926 C   0  0  1  0  0  0  0  0  0  0  0  0
   27.0362  -19.6248   -6.9483 C   0  0  0  0  0  0  0  0  0  0  0  0
   28.7749  -19.3327   -7.3738 S   0  0  0  0  0  0  0  0  0  0  0  0
   25.0382  -20.8252   -7.5603 C   0  0  0  0  0  0  0  0  0  0  0  0
   24.7065  -21.3752   -6.3309 O   0  0  0  0  0  0  0  0  0  0  0  0
   24.1158  -20.4816   -8.3321 O   0  0  0  0  0  0  0  0  0  0  0  0
  1  2  1  0
  3  2  1  0
  4  5  1  0
  4  3  1  0
  5  1  1  0
  5  6  1  1
  7  6  2  0
  8  9  1  0
  9 19  2  0
 10  9  1  0
 10 11  2  0
 11 12  1  0
 12 18  2  0
 12 13  1  0
 14 13  1  6
 14 16  1  0
 14 15  1  0
 15  6  1  0
 16 17  2  0
 19 18  1  0
 20 21  1  0
 20 16  1  0
 21 22  1  1
 23 22  1  0
 24 25  1  0
 24 21  1  0
 26 24  2  0
M  END
$$$$
