PYC.pdb
     RDKit          3D

 26 27  0  0  1  0  0  0  0  0999 V2000
   22.1938  -10.3032  -15.8918 N   0  0  0  0  0  0  0  0  0  0  0  0
   22.9994  -11.4250  -16.3491 C   0  0  0  0  0  0  0  0  0  0  0  0
   24.2705  -11.4100  -15.5598 C   0  0  0  0  0  0  0  0  0  0  0  0
   24.1001  -10.2011  -14.6295 C   0  0  0  0  0  0  0  0  0  0  0  0
   22.5892  -10.1694  -14.5241 C   0  0  1  0  0  0  0  0  0  0  0  0
   22.0952   -8.9238  -13.8925 C   0  0  0  0  0  0  0  0  0  0  0  0
   22.5142   -8.5362  -12.7792 O   0  0  0  0  0  0  0  0  0  0  0  0
   25.7096   -4.5053  -16.9199 O   0  0  0  0  0  0  0  0  0  0  0  0
   24.4157   -4.8392  -16.4944 C   0  0  0  0  0  0  0  0  0  0  0  0
   23.8920   -4.2445  -15.3653 C   0  0  0  0  0  0  0  0  0  0  0  0
   22.6135   -4.5760  -14.9470 C   0  0  0  0  0  0  0  0  0  0  0  0
   21.8476   -5.4815  -15.6234 C   0  0  0  0  0  0  0  0  0  0  0  0
   20.4642   -5.8473  -15.1800 C   0  0  0  0  0  0  0  0  0  0  0  0
   20.5422   -6.9242  -14.1367 C   0  0  2  0  0  0  0  0  0  0  0  0
   21.1196   -8.1510  -14.5717 N   0  0  0  0  0  0  0  0  0  0  0  0
   19.2364   -7.1465  -13.4308 C   0  0  0  0  0  0  0  0  0  0  0  0
   18.2510   -7.7173  -13.9429 O   0  0  0  0  0  0  0  0  0  0  0  0
   22.3958   -6.0633  -16.7519 C   0  0  0  0  0  0  0  0  0  0  0  0
   23.6593   -5.7540  -17.1893 C   0  0  0  0  0  0  0  0  0  0  0  0
   19.0632   -6.6907  -12.0787 N   0  0  0  0  0  0  0  0  0  0  0  0
   17.8294   -6.8618  -11.3476 C   0  0  1  0  0  0  0  0  0  0  0  0
   18.1041   -6.5929   -9.8772 C   0  0  0  0  0  0  0  0  0  0  0  0
   16.5937   -6.9341   -8.9329 S   0  0  0  0  0  0  0  0  0  0  0  0
   16.8011   -5.8851  -11.7769 C   0  0  0  0  0  0  0  0  0  0  0  0
   17.2076   -4.5884  -12.0549 O   0  0  0  0  0  0  0  0  0  0  0  0
   15.5902   -6.1734  -11.8999 O   0  0  0  0  0  0  0  0  0  0  0  0
  1  2  1  0
  3  2  1  0
  4  5  1  0
  4  3  1  0
  5  1  1  0
  5  6  1  6
  7  6  2  0
  8  9  1  0
  9 19  2  0
 10  9  1  0
 10 11  2  0
 11 12  1  0
 12 18  2  0
 12 13  1  0
 14 13  1  6
 14 16  1  0
 14 15  1  0
 15  6  1  0
 16 17  2  0
 19 18  1  0
 20 21  1  0
 20 16  1  0
 21 22  1  1
 23 22  1  0
 24 25  1  0
 24 21  1  0
 26 24  2  0
M  END
$$$$
