PYC.pdb
     RDKit          3D

 26 27  0  0  1  0  0  0  0  0999 V2000
   23.0635  -11.0727  -19.3147 N   0  0  0  0  0  0  0  0  0  0  0  0
   23.1666  -12.3723  -19.9605 C   0  0  0  0  0  0  0  0  0  0  0  0
   23.0369  -13.4112  -18.8915 C   0  0  0  0  0  0  0  0  0  0  0  0
   22.8471  -12.5858  -17.6113 C   0  0  0  0  0  0  0  0  0  0  0  0
   22.2107  -11.3431  -18.1991 C   0  0  1  0  0  0  0  0  0  0  0  0
   22.1505  -10.2278  -17.2260 C   0  0  0  0  0  0  0  0  0  0  0  0
   21.5817  -10.3473  -16.1181 O   0  0  0  0  0  0  0  0  0  0  0  0
   27.9234  -11.4033  -15.4550 O   0  0  0  0  0  0  0  0  0  0  0  0
   27.0102  -10.3774  -15.7386 C   0  0  0  0  0  0  0  0  0  0  0  0
   25.9752  -10.1214  -14.8634 C   0  0  0  0  0  0  0  0  0  0  0  0
   25.0744   -9.1075  -15.1459 C   0  0  0  0  0  0  0  0  0  0  0  0
   25.1794   -8.3457  -16.2741 C   0  0  0  0  0  0  0  0  0  0  0  0
   24.2111   -7.2470  -16.5892 C   0  0  0  0  0  0  0  0  0  0  0  0
   22.8346   -7.8248  -16.7494 C   0  0  2  0  0  0  0  0  0  0  0  0
   22.7557   -8.9907  -17.5630 N   0  0  0  0  0  0  0  0  0  0  0  0
   21.8158   -6.7986  -17.1520 C   0  0  0  0  0  0  0  0  0  0  0  0
   21.7473   -6.2875  -18.2892 O   0  0  0  0  0  0  0  0  0  0  0  0
   26.2258   -8.6225  -17.1349 C   0  0  0  0  0  0  0  0  0  0  0  0
   27.1327   -9.6206  -16.8806 C   0  0  0  0  0  0  0  0  0  0  0  0
   20.8371   -6.3456  -16.2018 N   0  0  0  0  0  0  0  0  0  0  0  0
   19.7926   -5.4078  -16.5416 C   0  0  1  0  0  0  0  0  0  0  0  0
   18.4981   -5.8821  -15.9020 C   0  0  0  0  0  0  0  0  0  0  0  0
   17.2053   -4.6527  -16.2282 S   0  0  0  0  0  0  0  0  0  0  0  0
   20.0715   -4.0590  -15.9951 C   0  0  0  0  0  0  0  0  0  0  0  0
   19.8562   -2.9635  -16.8182 O   0  0  0  0  0  0  0  0  0  0  0  0
   20.4897   -3.8628  -14.8327 O   0  0  0  0  0  0  0  0  0  0  0  0
  1  2  1  0
  3  2  1  0
  4  5  1  0
  4  3  1  0
  5  1  1  0
  5  6  1  1
  7  6  2  0
  8  9  1  0
  9 19  2  0
 10  9  1  0
 10 11  2  0
 11 12  1  0
 12 18  2  0
 12 13  1  0
 14 13  1  6
 14 16  1  0
 14 15  1  0
 15  6  1  0
 16 17  2  0
 19 18  1  0
 20 21  1  0
 20 16  1  0
 21 22  1  1
 23 22  1  0
 24 25  1  0
 24 21  1  0
 26 24  2  0
M  END
$$$$
