PYC.pdb
     RDKit          3D

 26 27  0  0  1  0  0  0  0  0999 V2000
   23.7030  -11.5357  -15.3454 N   0  0  0  0  0  0  0  0  0  0  0  0
   24.4047  -12.7881  -15.5819 C   0  0  0  0  0  0  0  0  0  0  0  0
   24.0801  -13.2227  -16.9764 C   0  0  0  0  0  0  0  0  0  0  0  0
   23.1541  -12.1121  -17.4912 C   0  0  0  0  0  0  0  0  0  0  0  0
   23.6506  -10.9538  -16.6506 C   0  0  1  0  0  0  0  0  0  0  0  0
   22.7548   -9.7766  -16.7296 C   0  0  0  0  0  0  0  0  0  0  0  0
   22.6162   -9.1213  -17.7864 O   0  0  0  0  0  0  0  0  0  0  0  0
   17.1918  -12.0915  -18.9271 O   0  0  0  0  0  0  0  0  0  0  0  0
   17.8080  -11.2904  -17.9547 C   0  0  0  0  0  0  0  0  0  0  0  0
   18.4455  -11.8823  -16.8843 C   0  0  0  0  0  0  0  0  0  0  0  0
   19.0534  -11.0888  -15.9251 C   0  0  0  0  0  0  0  0  0  0  0  0
   19.0417   -9.7259  -16.0062 C   0  0  0  0  0  0  0  0  0  0  0  0
   19.6957   -8.8585  -14.9748 C   0  0  0  0  0  0  0  0  0  0  0  0
   21.0241   -8.3847  -15.4899 C   0  0  2  0  0  0  0  0  0  0  0  0
   22.0353   -9.3838  -15.5728 N   0  0  0  0  0  0  0  0  0  0  0  0
   21.5171   -7.1552  -14.7842 C   0  0  0  0  0  0  0  0  0  0  0  0
   21.9822   -7.1511  -13.6254 O   0  0  0  0  0  0  0  0  0  0  0  0
   18.3960   -9.1575  -17.0890 C   0  0  0  0  0  0  0  0  0  0  0  0
   17.7854   -9.9188  -18.0540 C   0  0  0  0  0  0  0  0  0  0  0  0
   21.4706   -5.8794  -15.4447 N   0  0  0  0  0  0  0  0  0  0  0  0
   21.8837   -4.6520  -14.8054 C   0  0  1  0  0  0  0  0  0  0  0  0
   22.7294   -3.8615  -15.7901 C   0  0  0  0  0  0  0  0  0  0  0  0
   23.1918   -2.2847  -15.0226 S   0  0  0  0  0  0  0  0  0  0  0  0
   20.7221   -3.8002  -14.4580 C   0  0  0  0  0  0  0  0  0  0  0  0
   20.7445   -3.1283  -13.2447 O   0  0  0  0  0  0  0  0  0  0  0  0
   19.7275   -3.6593  -15.2032 O   0  0  0  0  0  0  0  0  0  0  0  0
  1  2  1  0
  3  2  1  0
  4  5  1  0
  4  3  1  0
  5  1  1  0
  5  6  1  1
  7  6  2  0
  8  9  1  0
  9 19  2  0
 10  9  1  0
 10 11  2  0
 11 12  1  0
 12 18  2  0
 12 13  1  0
 14 13  1  1
 14 16  1  0
 14 15  1  0
 15  6  1  0
 16 17  2  0
 19 18  1  0
 20 21  1  0
 20 16  1  0
 21 22  1  6
 23 22  1  0
 24 25  1  0
 24 21  1  0
 26 24  2  0
M  END
$$$$
