PYC.pdb
     RDKit          3D

 26 27  0  0  1  0  0  0  0  0999 V2000
   28.1684  -20.9064  -17.3912 N   0  0  0  0  0  0  0  0  0  0  0  0
   29.2117  -21.0112  -18.3998 C   0  0  0  0  0  0  0  0  0  0  0  0
   30.1045  -22.1432  -17.9994 C   0  0  0  0  0  0  0  0  0  0  0  0
   29.4699  -22.6575  -16.6999 C   0  0  0  0  0  0  0  0  0  0  0  0
   28.0291  -22.2568  -16.9419 C   0  0  1  0  0  0  0  0  0  0  0  0
   27.1974  -22.3839  -15.7227 C   0  0  0  0  0  0  0  0  0  0  0  0
   26.8889  -23.4989  -15.2463 O   0  0  0  0  0  0  0  0  0  0  0  0
   23.1105  -20.9339   -8.2388 O   0  0  0  0  0  0  0  0  0  0  0  0
   23.9004  -20.7461   -9.3823 C   0  0  0  0  0  0  0  0  0  0  0  0
   23.4181  -19.9902  -10.4304 C   0  0  0  0  0  0  0  0  0  0  0  0
   24.2004  -19.8062  -11.5589 C   0  0  0  0  0  0  0  0  0  0  0  0
   25.4460  -20.3545  -11.6679 C   0  0  0  0  0  0  0  0  0  0  0  0
   26.3002  -20.1620  -12.8833 C   0  0  0  0  0  0  0  0  0  0  0  0
   25.8734  -21.1264  -13.9520 C   0  0  2  0  0  0  0  0  0  0  0  0
   26.7394  -21.2063  -15.0795 N   0  0  0  0  0  0  0  0  0  0  0  0
   24.4423  -20.9417  -14.3649 C   0  0  0  0  0  0  0  0  0  0  0  0
   24.0246  -19.9721  -15.0316 O   0  0  0  0  0  0  0  0  0  0  0  0
   25.9062  -21.1078  -10.6033 C   0  0  0  0  0  0  0  0  0  0  0  0
   25.1531  -21.3068   -9.4733 C   0  0  0  0  0  0  0  0  0  0  0  0
   23.4546  -21.9173  -13.9923 N   0  0  0  0  0  0  0  0  0  0  0  0
   22.0581  -21.7878  -14.3371 C   0  0  1  0  0  0  0  0  0  0  0  0
   21.4457  -23.1780  -14.3804 C   0  0  0  0  0  0  0  0  0  0  0  0
   19.6848  -23.0240  -14.7861 S   0  0  0  0  0  0  0  0  0  0  0  0
   21.3116  -21.0225  -13.3111 C   0  0  0  0  0  0  0  0  0  0  0  0
   21.5945  -21.2717  -11.9763 O   0  0  0  0  0  0  0  0  0  0  0  0
   20.4431  -20.1670  -13.5905 O   0  0  0  0  0  0  0  0  0  0  0  0
  1  2  1  0
  3  2  1  0
  4  5  1  0
  4  3  1  0
  5  1  1  0
  5  6  1  1
  7  6  2  0
  8  9  1  0
  9 19  2  0
 10  9  1  0
 10 11  2  0
 11 12  1  0
 12 18  2  0
 12 13  1  0
 14 13  1  1
 14 16  1  0
 14 15  1  0
 15  6  1  0
 16 17  2  0
 19 18  1  0
 20 21  1  0
 20 16  1  0
 21 22  1  1
 23 22  1  0
 24 25  1  0
 24 21  1  0
 26 24  2  0
M  END
$$$$
