PYC.pdb
     RDKit          3D

 26 27  0  0  1  0  0  0  0  0999 V2000
   23.5765  -12.4848  -17.3645 N   0  0  0  0  0  0  0  0  0  0  0  0
   24.7321  -13.3293  -17.1035 C   0  0  0  0  0  0  0  0  0  0  0  0
   25.5962  -12.6075  -16.1180 C   0  0  0  0  0  0  0  0  0  0  0  0
   24.8257  -11.3071  -15.8511 C   0  0  0  0  0  0  0  0  0  0  0  0
   23.4147  -11.7833  -16.1290 C   0  0  1  0  0  0  0  0  0  0  0  0
   22.4496  -10.6628  -16.2156 C   0  0  0  0  0  0  0  0  0  0  0  0
   22.1989  -10.0886  -17.2985 O   0  0  0  0  0  0  0  0  0  0  0  0
   16.4830  -12.9630  -17.5717 O   0  0  0  0  0  0  0  0  0  0  0  0
   17.2401  -12.1181  -16.7472 C   0  0  0  0  0  0  0  0  0  0  0  0
   18.1074  -12.6619  -15.8226 C   0  0  0  0  0  0  0  0  0  0  0  0
   18.8542  -11.8251  -15.0094 C   0  0  0  0  0  0  0  0  0  0  0  0
   18.7583  -10.4658  -15.0946 C   0  0  0  0  0  0  0  0  0  0  0  0
   19.5610   -9.5519  -14.2203 C   0  0  0  0  0  0  0  0  0  0  0  0
   20.8363   -9.1824  -14.9212 C   0  0  2  0  0  0  0  0  0  0  0  0
   21.7928  -10.2311  -15.0355 N   0  0  0  0  0  0  0  0  0  0  0  0
   21.4544   -7.9258  -14.3810 C   0  0  0  0  0  0  0  0  0  0  0  0
   22.1319   -7.8721  -13.3335 O   0  0  0  0  0  0  0  0  0  0  0  0
   17.8818   -9.9461  -16.0295 C   0  0  0  0  0  0  0  0  0  0  0  0
   17.1296  -10.7509  -16.8481 C   0  0  0  0  0  0  0  0  0  0  0  0
   21.2824   -6.6817  -15.0800 N   0  0  0  0  0  0  0  0  0  0  0  0
   21.8815   -5.4451  -14.6350 C   0  0  1  0  0  0  0  0  0  0  0  0
   22.6849   -4.8622  -15.7859 C   0  0  0  0  0  0  0  0  0  0  0  0
   23.3203   -3.2387  -15.2862 S   0  0  0  0  0  0  0  0  0  0  0  0
   20.8542   -4.4392  -14.2769 C   0  0  0  0  0  0  0  0  0  0  0  0
   19.6508   -4.4606  -14.9663 O   0  0  0  0  0  0  0  0  0  0  0  0
   21.0202   -3.5762  -13.3868 O   0  0  0  0  0  0  0  0  0  0  0  0
  1  2  1  0
  3  2  1  0
  4  5  1  0
  4  3  1  0
  5  1  1  0
  5  6  1  6
  7  6  2  0
  8  9  1  0
  9 19  2  0
 10  9  1  0
 10 11  2  0
 11 12  1  0
 12 18  2  0
 12 13  1  0
 14 13  1  1
 14 16  1  0
 14 15  1  0
 15  6  1  0
 16 17  2  0
 19 18  1  0
 20 21  1  0
 20 16  1  0
 21 22  1  6
 23 22  1  0
 24 25  1  0
 24 21  1  0
 26 24  2  0
M  END
$$$$
