PYC.pdb
     RDKit          3D

 26 27  0  0  1  0  0  0  0  0999 V2000
   26.1503  -10.7610  -15.5708 N   0  0  0  0  0  0  0  0  0  0  0  0
   27.2462  -11.7136  -15.6614 C   0  0  0  0  0  0  0  0  0  0  0  0
   27.6696  -11.7686  -17.0955 C   0  0  0  0  0  0  0  0  0  0  0  0
   26.7299  -10.7697  -17.7848 C   0  0  0  0  0  0  0  0  0  0  0  0
   26.4473   -9.8394  -16.6231 C   0  0  1  0  0  0  0  0  0  0  0  0
   25.3364   -8.9024  -16.9099 C   0  0  0  0  0  0  0  0  0  0  0  0
   25.3534   -8.1411  -17.9025 O   0  0  0  0  0  0  0  0  0  0  0  0
   21.2784  -13.0561  -19.9123 O   0  0  0  0  0  0  0  0  0  0  0  0
   21.3945  -12.0501  -18.9421 C   0  0  0  0  0  0  0  0  0  0  0  0
   21.8802  -12.3608  -17.6891 C   0  0  0  0  0  0  0  0  0  0  0  0
   21.9939  -11.3653  -16.7324 C   0  0  0  0  0  0  0  0  0  0  0  0
   21.6370  -10.0734  -16.9928 C   0  0  0  0  0  0  0  0  0  0  0  0
   21.7558   -8.9892  -15.9659 C   0  0  0  0  0  0  0  0  0  0  0  0
   22.9930   -8.1815  -16.2327 C   0  0  2  0  0  0  0  0  0  0  0  0
   24.2232   -8.8700  -16.0323 N   0  0  0  0  0  0  0  0  0  0  0  0
   22.9822   -6.8525  -15.5352 C   0  0  0  0  0  0  0  0  0  0  0  0
   23.2301   -6.6959  -14.3215 O   0  0  0  0  0  0  0  0  0  0  0  0
   21.1530   -9.7882  -18.2565 C   0  0  0  0  0  0  0  0  0  0  0  0
   21.0297  -10.7541  -19.2235 C   0  0  0  0  0  0  0  0  0  0  0  0
   22.6725   -5.6569  -16.2705 N   0  0  0  0  0  0  0  0  0  0  0  0
   22.6399   -4.3489  -15.6589 C   0  0  1  0  0  0  0  0  0  0  0  0
   22.5326   -3.3085  -16.7614 C   0  0  0  0  0  0  0  0  0  0  0  0
   22.5641   -1.6591  -16.0079 S   0  0  0  0  0  0  0  0  0  0  0  0
   21.4486   -4.1809  -14.7938 C   0  0  0  0  0  0  0  0  0  0  0  0
   21.6237   -3.5983  -13.5472 O   0  0  0  0  0  0  0  0  0  0  0  0
   20.2988   -4.5377  -15.1328 O   0  0  0  0  0  0  0  0  0  0  0  0
  1  2  1  0
  3  2  1  0
  4  5  1  0
  4  3  1  0
  5  1  1  0
  5  6  1  6
  7  6  2  0
  8  9  1  0
  9 19  2  0
 10  9  1  0
 10 11  2  0
 11 12  1  0
 12 18  2  0
 12 13  1  0
 14 13  1  1
 14 16  1  0
 14 15  1  0
 15  6  1  0
 16 17  2  0
 19 18  1  0
 20 21  1  0
 20 16  1  0
 21 22  1  6
 23 22  1  0
 24 25  1  0
 24 21  1  0
 26 24  2  0
M  END
$$$$
