PYC.pdb
     RDKit          3D

 26 27  0  0  1  0  0  0  0  0999 V2000
   27.4124  -20.6903  -15.8233 N   0  0  0  0  0  0  0  0  0  0  0  0
   28.0166  -20.4013  -17.1147 C   0  0  0  0  0  0  0  0  0  0  0  0
   28.0726  -18.9127  -17.2558 C   0  0  0  0  0  0  0  0  0  0  0  0
   27.4612  -18.4053  -15.9425 C   0  0  0  0  0  0  0  0  0  0  0  0
   27.8077  -19.5661  -15.0329 C   0  0  1  0  0  0  0  0  0  0  0  0
   27.1039  -19.4906  -13.7315 C   0  0  0  0  0  0  0  0  0  0  0  0
   27.1785  -18.4802  -12.9974 O   0  0  0  0  0  0  0  0  0  0  0  0
   20.9277  -18.5041  -16.1737 O   0  0  0  0  0  0  0  0  0  0  0  0
   21.7214  -19.2183  -15.2644 C   0  0  0  0  0  0  0  0  0  0  0  0
   21.6285  -18.9471  -13.9151 C   0  0  0  0  0  0  0  0  0  0  0  0
   22.4136  -19.6540  -13.0189 C   0  0  0  0  0  0  0  0  0  0  0  0
   23.2851  -20.6202  -13.4325 C   0  0  0  0  0  0  0  0  0  0  0  0
   24.1386  -21.3905  -12.4722 C   0  0  0  0  0  0  0  0  0  0  0  0
   25.4106  -20.6348  -12.2171 C   0  0  2  0  0  0  0  0  0  0  0  0
   26.3243  -20.5968  -13.3087 N   0  0  0  0  0  0  0  0  0  0  0  0
   26.0875  -21.0478  -10.9427 C   0  0  0  0  0  0  0  0  0  0  0  0
   26.5926  -22.1733  -10.7501 O   0  0  0  0  0  0  0  0  0  0  0  0
   23.3592  -20.8728  -14.7902 C   0  0  0  0  0  0  0  0  0  0  0  0
   22.5936  -20.1882  -15.7006 C   0  0  0  0  0  0  0  0  0  0  0  0
   26.1842  -20.1222   -9.8472 N   0  0  0  0  0  0  0  0  0  0  0  0
   26.4567  -20.5401   -8.4918 C   0  0  1  0  0  0  0  0  0  0  0  0
   26.8548  -19.3153   -7.6850 C   0  0  0  0  0  0  0  0  0  0  0  0
   27.3135  -19.8461   -6.0126 S   0  0  0  0  0  0  0  0  0  0  0  0
   25.2512  -21.1073   -7.8431 C   0  0  0  0  0  0  0  0  0  0  0  0
   24.0091  -20.7455   -8.3433 O   0  0  0  0  0  0  0  0  0  0  0  0
   25.3006  -21.8927   -6.8710 O   0  0  0  0  0  0  0  0  0  0  0  0
  1  2  1  0
  3  2  1  0
  4  5  1  0
  4  3  1  0
  5  1  1  0
  5  6  1  1
  7  6  2  0
  8  9  1  0
  9 19  2  0
 10  9  1  0
 10 11  2  0
 11 12  1  0
 12 18  2  0
 12 13  1  0
 14 13  1  6
 14 16  1  0
 14 15  1  0
 15  6  1  0
 16 17  2  0
 19 18  1  0
 20 21  1  0
 20 16  1  0
 21 22  1  1
 23 22  1  0
 24 25  1  0
 24 21  1  0
 26 24  2  0
M  END
$$$$
