PYC.pdb
     RDKit          3D

 26 27  0  0  1  0  0  0  0  0999 V2000
   26.0199  -18.3567  -14.9846 N   0  0  0  0  0  0  0  0  0  0  0  0
   27.1584  -17.5924  -15.4705 C   0  0  0  0  0  0  0  0  0  0  0  0
   28.3828  -18.4185  -15.2313 C   0  0  0  0  0  0  0  0  0  0  0  0
   27.8315  -19.6969  -14.5849 C   0  0  0  0  0  0  0  0  0  0  0  0
   26.4406  -19.7086  -15.1850 C   0  0  1  0  0  0  0  0  0  0  0  0
   25.5541  -20.6993  -14.5313 C   0  0  0  0  0  0  0  0  0  0  0  0
   25.7737  -21.9291  -14.5994 O   0  0  0  0  0  0  0  0  0  0  0  0
   28.1569  -20.9415   -8.7238 O   0  0  0  0  0  0  0  0  0  0  0  0
   26.9546  -20.8514   -9.4402 C   0  0  0  0  0  0  0  0  0  0  0  0
   26.8325  -21.4923  -10.6555 C   0  0  0  0  0  0  0  0  0  0  0  0
   25.6438  -21.4018  -11.3611 C   0  0  0  0  0  0  0  0  0  0  0  0
   24.5785  -20.6912  -10.8875 C   0  0  0  0  0  0  0  0  0  0  0  0
   23.2887  -20.5867  -11.6422 C   0  0  0  0  0  0  0  0  0  0  0  0
   23.5036  -21.0251  -13.0620 C   0  0  2  0  0  0  0  0  0  0  0  0
   24.4253  -20.2371  -13.8085 N   0  0  0  0  0  0  0  0  0  0  0  0
   22.2179  -21.2295  -13.8090 C   0  0  0  0  0  0  0  0  0  0  0  0
   21.5682  -20.3109  -14.3506 O   0  0  0  0  0  0  0  0  0  0  0  0
   24.7266  -20.0581   -9.6669 C   0  0  0  0  0  0  0  0  0  0  0  0
   25.8923  -20.1306   -8.9463 C   0  0  0  0  0  0  0  0  0  0  0  0
   21.6612  -22.5487  -13.9350 N   0  0  0  0  0  0  0  0  0  0  0  0
   20.3840  -22.8023  -14.5598 C   0  0  1  0  0  0  0  0  0  0  0  0
   20.2354  -24.3026  -14.7515 C   0  0  0  0  0  0  0  0  0  0  0  0
   21.6132  -24.8966  -15.7705 S   0  0  0  0  0  0  0  0  0  0  0  0
   19.2595  -22.3669  -13.6988 C   0  0  0  0  0  0  0  0  0  0  0  0
   19.5494  -21.9450  -12.4096 O   0  0  0  0  0  0  0  0  0  0  0  0
   18.0674  -22.3619  -14.0776 O   0  0  0  0  0  0  0  0  0  0  0  0
  1  2  1  0
  3  2  1  0
  4  5  1  0
  4  3  1  0
  5  1  1  0
  5  6  1  1
  7  6  2  0
  8  9  1  0
  9 19  2  0
 10  9  1  0
 10 11  2  0
 11 12  1  0
 12 18  2  0
 12 13  1  0
 14 13  1  1
 14 16  1  0
 14 15  1  0
 15  6  1  0
 16 17  2  0
 19 18  1  0
 20 21  1  0
 20 16  1  0
 21 22  1  1
 23 22  1  0
 24 25  1  0
 24 21  1  0
 26 24  2  0
M  END
$$$$
