PYC.pdb
     RDKit          3D

 26 27  0  0  1  0  0  0  0  0999 V2000
   22.2500  -22.0676  -13.0135 N   0  0  0  0  0  0  0  0  0  0  0  0
   20.8441  -22.2053  -12.6658 C   0  0  0  0  0  0  0  0  0  0  0  0
   20.4397  -20.9565  -11.9476 C   0  0  0  0  0  0  0  0  0  0  0  0
   21.7259  -20.1190  -11.9335 C   0  0  0  0  0  0  0  0  0  0  0  0
   22.3948  -20.6550  -13.1825 C   0  0  1  0  0  0  0  0  0  0  0  0
   23.8070  -20.2219  -13.2946 C   0  0  0  0  0  0  0  0  0  0  0  0
   24.1202  -19.0186  -13.4338 O   0  0  0  0  0  0  0  0  0  0  0  0
   25.2105  -19.6289   -7.1931 O   0  0  0  0  0  0  0  0  0  0  0  0
   25.6579  -20.1192   -8.4285 C   0  0  0  0  0  0  0  0  0  0  0  0
   26.6748  -19.4681   -9.0954 C   0  0  0  0  0  0  0  0  0  0  0  0
   27.1149  -19.9543  -10.3156 C   0  0  0  0  0  0  0  0  0  0  0  0
   26.5689  -21.0686  -10.8852 C   0  0  0  0  0  0  0  0  0  0  0  0
   27.0370  -21.6030  -12.2040 C   0  0  0  0  0  0  0  0  0  0  0  0
   26.2354  -20.9783  -13.3092 C   0  0  2  0  0  0  0  0  0  0  0  0
   24.8307  -21.2015  -13.2421 N   0  0  0  0  0  0  0  0  0  0  0  0
   26.7812  -21.2905  -14.6722 C   0  0  0  0  0  0  0  0  0  0  0  0
   27.1403  -22.4285  -15.0397 O   0  0  0  0  0  0  0  0  0  0  0  0
   25.5510  -21.7028  -10.1964 C   0  0  0  0  0  0  0  0  0  0  0  0
   25.0951  -21.2435   -8.9862 C   0  0  0  0  0  0  0  0  0  0  0  0
   26.9168  -20.2451  -15.6493 N   0  0  0  0  0  0  0  0  0  0  0  0
   27.0023  -20.5060  -17.0672 C   0  0  1  0  0  0  0  0  0  0  0  0
   25.7054  -21.1620  -17.5114 C   0  0  0  0  0  0  0  0  0  0  0  0
   25.7714  -21.4220  -19.3051 S   0  0  0  0  0  0  0  0  0  0  0  0
   27.1368  -19.2522  -17.8454 C   0  0  0  0  0  0  0  0  0  0  0  0
   26.4522  -18.1309  -17.4006 O   0  0  0  0  0  0  0  0  0  0  0  0
   27.8349  -19.1579  -18.8790 O   0  0  0  0  0  0  0  0  0  0  0  0
  1  2  1  0
  3  2  1  0
  4  5  1  0
  4  3  1  0
  5  1  1  0
  5  6  1  1
  7  6  2  0
  8  9  1  0
  9 19  2  0
 10  9  1  0
 10 11  2  0
 11 12  1  0
 12 18  2  0
 12 13  1  0
 14 13  1  1
 14 16  1  0
 14 15  1  0
 15  6  1  0
 16 17  2  0
 19 18  1  0
 20 21  1  0
 20 16  1  0
 21 22  1  6
 23 22  1  0
 24 25  1  0
 24 21  1  0
 26 24  2  0
M  END
$$$$
