MAD.pdb
     RDKit          3D

 22 21  0  0  1  0  0  0  0  0999 V2000
    7.8593  -12.8808   27.2019 C   0  0  0  0  0  0  0  0  0  0  0  0
    6.8653  -12.0512   25.9446 S   0  0  0  0  0  0  0  0  0  0  0  0
    6.5695  -13.1461   24.5284 C   0  0  0  0  0  0  0  0  0  0  0  0
    7.9013  -13.3899   23.8568 C   0  0  0  0  0  0  0  0  0  0  0  0
    7.6835  -14.4005   22.7469 C   0  0  2  0  0  0  0  0  0  0  0  0
    6.6778  -13.8999   21.8481 N   0  0  0  0  0  0  0  0  0  0  0  0
    7.2513  -15.6609   23.3749 C   0  0  0  0  0  0  0  0  0  0  0  0
    6.1457  -15.7021   23.9900 O   0  0  0  0  0  0  0  0  0  0  0  0
    7.3916  -19.1398   22.9520 C   0  0  0  0  0  0  0  0  0  0  0  0
    7.5566  -18.0620   24.0321 C   0  0  2  0  0  0  0  0  0  0  0  0
    7.9978  -16.8691   23.3445 N   0  0  0  0  0  0  0  0  0  0  0  0
    8.6274  -18.5353   24.9322 C   0  0  0  0  0  0  0  0  0  0  0  0
    8.4311  -19.5620   25.6681 O   0  0  0  0  0  0  0  0  0  0  0  0
    9.8922  -17.9297   25.0528 N   0  0  0  0  0  0  0  0  0  0  0  0
   10.9118  -18.4661   25.8977 C   0  0  1  0  0  0  0  0  0  0  0  0
   12.3066  -18.1276   25.4507 C   0  0  0  0  0  0  0  0  0  0  0  0
   12.3356  -17.2219   24.2819 C   0  0  0  0  0  0  0  0  0  0  0  0
   12.9145  -16.1161   24.4484 O   0  0  0  0  0  0  0  0  0  0  0  0
   10.7036  -18.0697   27.3357 C   0  0  0  0  0  0  0  0  0  0  0  0
    9.8615  -17.1952   27.6633 O   0  0  0  0  0  0  0  0  0  0  0  0
   11.7926  -17.4879   23.0580 O   0  0  0  0  0  0  0  0  0  0  0  0
   11.4359  -18.6569   28.3561 O   0  0  0  0  0  0  0  0  0  0  0  0
  2  1  1  0
  3  2  1  0
  4  3  1  0
  4  5  1  0
  5  6  1  6
  7  5  1  0
  7  8  2  0
 10  9  1  6
 10 11  1  0
 10 12  1  0
 11  7  1  0
 12 14  1  0
 13 12  2  0
 14 15  1  0
 15 16  1  6
 15 19  1  0
 16 17  1  0
 17 18  2  0
 19 22  1  0
 20 19  2  0
 21 17  1  0
M  END
$$$$
