MAD.pdb
     RDKit          3D

 22 21  0  0  1  0  0  0  0  0999 V2000
    5.6843  -11.8863   28.3548 C   0  0  0  0  0  0  0  0  0  0  0  0
    7.0964  -11.7565   27.2385 S   0  0  0  0  0  0  0  0  0  0  0  0
    6.5467  -11.5985   25.5166 C   0  0  0  0  0  0  0  0  0  0  0  0
    6.2800  -12.9917   24.9952 C   0  0  0  0  0  0  0  0  0  0  0  0
    7.6168  -13.6890   24.8292 C   0  0  2  0  0  0  0  0  0  0  0  0
    8.5546  -12.7702   24.2407 N   0  0  0  0  0  0  0  0  0  0  0  0
    7.4016  -14.8562   23.9568 C   0  0  0  0  0  0  0  0  0  0  0  0
    6.6286  -15.7833   24.3380 O   0  0  0  0  0  0  0  0  0  0  0  0
    7.8245  -15.7581   20.4238 C   0  0  0  0  0  0  0  0  0  0  0  0
    7.7986  -16.2174   21.8881 C   0  0  2  0  0  0  0  0  0  0  0  0
    8.0100  -15.0296   22.6849 N   0  0  0  0  0  0  0  0  0  0  0  0
    8.9445  -17.1335   22.0572 C   0  0  0  0  0  0  0  0  0  0  0  0
    8.9575  -18.2546   21.4432 O   0  0  0  0  0  0  0  0  0  0  0  0
   10.0645  -16.8670   22.8669 N   0  0  0  0  0  0  0  0  0  0  0  0
   11.0575  -17.8581   23.1368 C   0  0  1  0  0  0  0  0  0  0  0  0
   12.4424  -17.4571   22.7114 C   0  0  0  0  0  0  0  0  0  0  0  0
   12.5157  -17.0480   21.2921 C   0  0  0  0  0  0  0  0  0  0  0  0
   11.9391  -17.8020   20.4647 O   0  0  0  0  0  0  0  0  0  0  0  0
   11.0454  -18.2730   24.5846 C   0  0  0  0  0  0  0  0  0  0  0  0
   11.7588  -19.2193   25.0054 O   0  0  0  0  0  0  0  0  0  0  0  0
   13.1493  -15.9355   20.8184 O   0  0  0  0  0  0  0  0  0  0  0  0
   10.2439  -17.6243   25.5113 O   0  0  0  0  0  0  0  0  0  0  0  0
  2  1  1  0
  3  2  1  0
  4  3  1  0
  4  5  1  0
  5  6  1  6
  7  5  1  0
  7  8  2  0
 10  9  1  6
 10 11  1  0
 10 12  1  0
 11  7  1  0
 12 14  1  0
 13 12  2  0
 14 15  1  0
 15 16  1  1
 15 19  1  0
 16 17  1  0
 17 18  2  0
 19 22  1  0
 20 19  2  0
 21 17  1  0
M  END
$$$$
