MAD.pdb
     RDKit          3D

 22 21  0  0  1  0  0  0  0  0999 V2000
    8.0766  -12.0479   20.8732 C   0  0  0  0  0  0  0  0  0  0  0  0
    7.4400  -12.3594   19.2135 S   0  0  0  0  0  0  0  0  0  0  0  0
    7.8102  -14.0559   18.6872 C   0  0  0  0  0  0  0  0  0  0  0  0
    7.8358  -14.9205   19.9265 C   0  0  0  0  0  0  0  0  0  0  0  0
    8.1663  -16.3373   19.4974 C   0  0  2  0  0  0  0  0  0  0  0  0
    7.2054  -16.7659   18.5161 N   0  0  0  0  0  0  0  0  0  0  0  0
    8.1106  -17.1878   20.6987 C   0  0  0  0  0  0  0  0  0  0  0  0
    7.7922  -16.6733   21.8106 O   0  0  0  0  0  0  0  0  0  0  0  0
    8.2035  -20.8135   21.5170 C   0  0  0  0  0  0  0  0  0  0  0  0
    8.4106  -19.3506   21.9327 C   0  0  2  0  0  0  0  0  0  0  0  0
    8.3940  -18.5797   20.7096 N   0  0  0  0  0  0  0  0  0  0  0  0
    9.7538  -19.2772   22.5420 C   0  0  0  0  0  0  0  0  0  0  0  0
    9.9912  -19.8993   23.6332 O   0  0  0  0  0  0  0  0  0  0  0  0
   10.8344  -18.5539   22.0033 N   0  0  0  0  0  0  0  0  0  0  0  0
   12.1013  -18.4828   22.6600 C   0  0  1  0  0  0  0  0  0  0  0  0
   13.1934  -17.9039   21.8044 C   0  0  0  0  0  0  0  0  0  0  0  0
   14.4947  -17.8252   22.5026 C   0  0  0  0  0  0  0  0  0  0  0  0
   14.8665  -18.8657   23.1067 O   0  0  0  0  0  0  0  0  0  0  0  0
   12.0046  -17.7452   23.9695 C   0  0  0  0  0  0  0  0  0  0  0  0
   12.5668  -18.1725   25.0101 O   0  0  0  0  0  0  0  0  0  0  0  0
   15.3095  -16.7307   22.5420 O   0  0  0  0  0  0  0  0  0  0  0  0
   11.2891  -16.5625   24.0769 O   0  0  0  0  0  0  0  0  0  0  0  0
  2  1  1  0
  3  2  1  0
  4  3  1  0
  4  5  1  0
  5  6  1  6
  7  5  1  0
  7  8  2  0
 10  9  1  6
 10 11  1  0
 10 12  1  0
 11  7  1  0
 12 14  1  0
 13 12  2  0
 14 15  1  0
 15 16  1  6
 15 19  1  0
 16 17  1  0
 17 18  2  0
 19 22  1  0
 20 19  2  0
 21 17  1  0
M  END
$$$$
