MAD.pdb
     RDKit          3D

 22 21  0  0  1  0  0  0  0  0999 V2000
    5.3763  -11.3208   27.8196 C   0  0  0  0  0  0  0  0  0  0  0  0
    6.9417  -11.8809   27.1177 S   0  0  0  0  0  0  0  0  0  0  0  0
    6.7188  -12.4428   25.4070 C   0  0  0  0  0  0  0  0  0  0  0  0
    6.1793  -13.8536   25.4590 C   0  0  0  0  0  0  0  0  0  0  0  0
    7.3616  -14.7999   25.5437 C   0  0  2  0  0  0  0  0  0  0  0  0
    8.5255  -14.0601   25.9534 N   0  0  0  0  0  0  0  0  0  0  0  0
    7.5531  -15.3894   24.2075 C   0  0  0  0  0  0  0  0  0  0  0  0
    6.6965  -16.2070   23.7600 O   0  0  0  0  0  0  0  0  0  0  0  0
    9.0972  -14.8663   21.0271 C   0  0  0  0  0  0  0  0  0  0  0  0
    8.9246  -15.8806   22.1659 C   0  0  2  0  0  0  0  0  0  0  0  0
    8.6542  -15.1056   23.3561 N   0  0  0  0  0  0  0  0  0  0  0  0
   10.2235  -16.5681   22.3113 C   0  0  0  0  0  0  0  0  0  0  0  0
   10.6265  -17.3648   21.3964 O   0  0  0  0  0  0  0  0  0  0  0  0
   11.0871  -16.4148   23.4121 N   0  0  0  0  0  0  0  0  0  0  0  0
   12.2607  -17.2138   23.5717 C   0  0  1  0  0  0  0  0  0  0  0  0
   13.5365  -16.4189   23.5767 C   0  0  0  0  0  0  0  0  0  0  0  0
   13.8638  -15.8423   22.2547 C   0  0  0  0  0  0  0  0  0  0  0  0
   14.8615  -15.0751   22.2133 O   0  0  0  0  0  0  0  0  0  0  0  0
   12.1733  -18.0863   24.7963 C   0  0  0  0  0  0  0  0  0  0  0  0
   11.2013  -18.0121   25.5908 O   0  0  0  0  0  0  0  0  0  0  0  0
   13.1796  -16.0736   21.0964 O   0  0  0  0  0  0  0  0  0  0  0  0
   13.1655  -19.0075   25.0945 O   0  0  0  0  0  0  0  0  0  0  0  0
  2  1  1  0
  3  2  1  0
  4  3  1  0
  4  5  1  0
  5  6  1  6
  7  5  1  0
  7  8  2  0
 10  9  1  6
 10 11  1  0
 10 12  1  0
 11  7  1  0
 12 14  1  0
 13 12  2  0
 14 15  1  0
 15 16  1  1
 15 19  1  0
 16 17  1  0
 17 18  2  0
 19 22  1  0
 20 19  2  0
 21 17  1  0
M  END
$$$$
