MAD.pdb
     RDKit          3D

 22 21  0  0  1  0  0  0  0  0999 V2000
    5.6636  -11.2098   27.5545 C   0  0  0  0  0  0  0  0  0  0  0  0
    6.3096  -12.7008   26.7691 S   0  0  0  0  0  0  0  0  0  0  0  0
    6.1010  -12.6249   24.9683 C   0  0  0  0  0  0  0  0  0  0  0  0
    6.3087  -14.0209   24.4278 C   0  0  0  0  0  0  0  0  0  0  0  0
    7.7229  -14.4469   24.7733 C   0  0  2  0  0  0  0  0  0  0  0  0
    8.6270  -13.3754   24.4507 N   0  0  0  0  0  0  0  0  0  0  0  0
    8.0275  -15.6520   23.9828 C   0  0  0  0  0  0  0  0  0  0  0  0
    7.3565  -16.7080   24.1754 O   0  0  0  0  0  0  0  0  0  0  0  0
    9.8128  -16.5309   20.8862 C   0  0  0  0  0  0  0  0  0  0  0  0
    9.3372  -16.9511   22.2837 C   0  0  2  0  0  0  0  0  0  0  0  0
    9.0436  -15.7259   22.9929 N   0  0  0  0  0  0  0  0  0  0  0  0
   10.4810  -17.6292   22.9261 C   0  0  0  0  0  0  0  0  0  0  0  0
   10.8644  -18.7712   22.4983 O   0  0  0  0  0  0  0  0  0  0  0  0
   11.2116  -17.1055   24.0092 N   0  0  0  0  0  0  0  0  0  0  0  0
   12.2915  -17.8211   24.6115 C   0  0  1  0  0  0  0  0  0  0  0  0
   13.5584  -17.0198   24.7246 C   0  0  0  0  0  0  0  0  0  0  0  0
   13.9515  -16.3768   23.4522 C   0  0  0  0  0  0  0  0  0  0  0  0
   13.8877  -17.0971   22.4212 O   0  0  0  0  0  0  0  0  0  0  0  0
   11.9002  -18.3885   25.9507 C   0  0  0  0  0  0  0  0  0  0  0  0
   10.7819  -18.1416   26.4701 O   0  0  0  0  0  0  0  0  0  0  0  0
   14.3708  -15.0853   23.3118 O   0  0  0  0  0  0  0  0  0  0  0  0
   12.7621  -19.2077   26.6635 O   0  0  0  0  0  0  0  0  0  0  0  0
  2  1  1  0
  3  2  1  0
  4  3  1  0
  4  5  1  0
  5  6  1  6
  7  5  1  0
  7  8  2  0
 10  9  1  6
 10 11  1  0
 10 12  1  0
 11  7  1  0
 12 14  1  0
 13 12  2  0
 14 15  1  0
 15 16  1  1
 15 19  1  0
 16 17  1  0
 17 18  2  0
 19 22  1  0
 20 19  2  0
 21 17  1  0
M  END
$$$$
