MAD.pdb
     RDKit          3D

 22 21  0  0  1  0  0  0  0  0999 V2000
    9.2516  -12.8054   28.0703 C   0  0  0  0  0  0  0  0  0  0  0  0
    7.8360  -11.8465   27.4922 S   0  0  0  0  0  0  0  0  0  0  0  0
    6.6530  -12.9058   26.6146 C   0  0  0  0  0  0  0  0  0  0  0  0
    7.4445  -13.9804   25.9056 C   0  0  0  0  0  0  0  0  0  0  0  0
    6.4700  -14.8222   25.1040 C   0  0  2  0  0  0  0  0  0  0  0  0
    5.7958  -15.7316   25.9919 N   0  0  0  0  0  0  0  0  0  0  0  0
    7.2479  -15.5533   24.0890 C   0  0  0  0  0  0  0  0  0  0  0  0
    7.5081  -16.7790   24.2689 O   0  0  0  0  0  0  0  0  0  0  0  0
    8.5677  -14.8188   20.6593 C   0  0  0  0  0  0  0  0  0  0  0  0
    8.3174  -15.7773   21.8315 C   0  0  2  0  0  0  0  0  0  0  0  0
    7.7439  -14.9760   22.8896 N   0  0  0  0  0  0  0  0  0  0  0  0
    9.6427  -16.2735   22.2536 C   0  0  0  0  0  0  0  0  0  0  0  0
   10.2930  -17.0717   21.4959 O   0  0  0  0  0  0  0  0  0  0  0  0
   10.2736  -15.9295   23.4639 N   0  0  0  0  0  0  0  0  0  0  0  0
   11.5098  -16.5204   23.8687 C   0  0  1  0  0  0  0  0  0  0  0  0
   12.6435  -15.5386   23.9715 C   0  0  0  0  0  0  0  0  0  0  0  0
   13.4448  -15.4484   22.7318 C   0  0  0  0  0  0  0  0  0  0  0  0
   13.1029  -16.2124   21.7909 O   0  0  0  0  0  0  0  0  0  0  0  0
   11.3588  -17.2942   25.1520 C   0  0  0  0  0  0  0  0  0  0  0  0
   10.3068  -17.2340   25.8384 O   0  0  0  0  0  0  0  0  0  0  0  0
   14.5077  -14.6155   22.5325 O   0  0  0  0  0  0  0  0  0  0  0  0
   12.3784  -18.1050   25.6264 O   0  0  0  0  0  0  0  0  0  0  0  0
  2  1  1  0
  3  2  1  0
  4  3  1  0
  4  5  1  0
  5  6  1  1
  7  5  1  0
  7  8  2  0
 10  9  1  6
 10 11  1  0
 10 12  1  0
 11  7  1  0
 12 14  1  0
 13 12  2  0
 14 15  1  0
 15 16  1  1
 15 19  1  0
 16 17  1  0
 17 18  2  0
 19 22  1  0
 20 19  2  0
 21 17  1  0
M  END
$$$$
