MAD.pdb
     RDKit          3D

 22 21  0  0  1  0  0  0  0  0999 V2000
    8.7519  -11.6433   26.4418 C   0  0  0  0  0  0  0  0  0  0  0  0
    7.3301  -12.2896   27.3464 S   0  0  0  0  0  0  0  0  0  0  0  0
    6.4228  -13.5001   26.3447 C   0  0  0  0  0  0  0  0  0  0  0  0
    7.4437  -14.3732   25.6523 C   0  0  0  0  0  0  0  0  0  0  0  0
    6.7015  -15.2832   24.6922 C   0  0  2  0  0  0  0  0  0  0  0  0
    5.8676  -16.1803   25.4470 N   0  0  0  0  0  0  0  0  0  0  0  0
    7.7104  -16.0253   23.9168 C   0  0  0  0  0  0  0  0  0  0  0  0
    7.9330  -17.2414   24.1891 O   0  0  0  0  0  0  0  0  0  0  0  0
    9.7544  -15.3609   20.8494 C   0  0  0  0  0  0  0  0  0  0  0  0
    9.2714  -16.2897   21.9717 C   0  0  2  0  0  0  0  0  0  0  0  0
    8.4758  -15.4692   22.8572 N   0  0  0  0  0  0  0  0  0  0  0  0
   10.4822  -16.7487   22.6820 C   0  0  0  0  0  0  0  0  0  0  0  0
   11.2925  -17.5504   22.1034 O   0  0  0  0  0  0  0  0  0  0  0  0
   10.8323  -16.3641   23.9899 N   0  0  0  0  0  0  0  0  0  0  0  0
   11.8991  -16.9910   24.7042 C   0  0  1  0  0  0  0  0  0  0  0  0
   13.0955  -16.1032   24.9044 C   0  0  0  0  0  0  0  0  0  0  0  0
   13.8534  -15.8638   23.6572 C   0  0  0  0  0  0  0  0  0  0  0  0
   14.3365  -14.7100   23.5118 O   0  0  0  0  0  0  0  0  0  0  0  0
   11.4283  -17.5533   26.0197 C   0  0  0  0  0  0  0  0  0  0  0  0
   10.2562  -17.3661   26.4352 O   0  0  0  0  0  0  0  0  0  0  0  0
   14.0657  -16.7812   22.6690 O   0  0  0  0  0  0  0  0  0  0  0  0
   12.2733  -18.3014   26.8249 O   0  0  0  0  0  0  0  0  0  0  0  0
  2  1  1  0
  3  2  1  0
  4  3  1  0
  4  5  1  0
  5  6  1  1
  7  5  1  0
  7  8  2  0
 10  9  1  6
 10 11  1  0
 10 12  1  0
 11  7  1  0
 12 14  1  0
 13 12  2  0
 14 15  1  0
 15 16  1  1
 15 19  1  0
 16 17  1  0
 17 18  2  0
 19 22  1  0
 20 19  2  0
 21 17  1  0
M  END
$$$$
