MAD.pdb
     RDKit          3D

 22 21  0  0  1  0  0  0  0  0999 V2000
    7.7232  -11.8832   19.2609 C   0  0  0  0  0  0  0  0  0  0  0  0
    6.9788  -12.6789   20.6996 S   0  0  0  0  0  0  0  0  0  0  0  0
    8.0911  -13.9343   21.3914 C   0  0  0  0  0  0  0  0  0  0  0  0
    8.2657  -15.0121   20.3464 C   0  0  0  0  0  0  0  0  0  0  0  0
    9.3047  -15.9913   20.8585 C   0  0  2  0  0  0  0  0  0  0  0  0
    9.7368  -15.5748   22.1660 N   0  0  0  0  0  0  0  0  0  0  0  0
   10.4266  -15.9853   19.9040 C   0  0  0  0  0  0  0  0  0  0  0  0
   10.3054  -16.5893   18.7981 O   0  0  0  0  0  0  0  0  0  0  0  0
   12.9560  -13.9596   18.6738 C   0  0  0  0  0  0  0  0  0  0  0  0
   12.7531  -15.3956   19.1761 C   0  0  2  0  0  0  0  0  0  0  0  0
   11.6698  -15.3371   20.1319 N   0  0  0  0  0  0  0  0  0  0  0  0
   14.0008  -15.7741   19.8695 C   0  0  0  0  0  0  0  0  0  0  0  0
   15.0638  -15.9886   19.1925 O   0  0  0  0  0  0  0  0  0  0  0  0
   14.1233  -15.9244   21.2636 N   0  0  0  0  0  0  0  0  0  0  0  0
   15.3655  -16.2625   21.8832 C   0  0  1  0  0  0  0  0  0  0  0  0
   16.1453  -15.0704   22.3631 C   0  0  0  0  0  0  0  0  0  0  0  0
   17.5597  -15.3854   22.6591 C   0  0  0  0  0  0  0  0  0  0  0  0
   18.0843  -16.2960   21.9652 O   0  0  0  0  0  0  0  0  0  0  0  0
   15.1746  -17.2568   22.9982 C   0  0  0  0  0  0  0  0  0  0  0  0
   14.1621  -17.2256   23.7434 O   0  0  0  0  0  0  0  0  0  0  0  0
   18.3266  -14.7758   23.6097 O   0  0  0  0  0  0  0  0  0  0  0  0
   16.1121  -18.2478   23.2456 O   0  0  0  0  0  0  0  0  0  0  0  0
  2  1  1  0
  3  2  1  0
  4  3  1  0
  4  5  1  0
  5  6  1  1
  7  5  1  0
  7  8  2  0
 10  9  1  1
 10 11  1  0
 10 12  1  0
 11  7  1  0
 12 14  1  0
 13 12  2  0
 14 15  1  0
 15 16  1  1
 15 19  1  0
 16 17  1  0
 17 18  2  0
 19 22  1  0
 20 19  2  0
 21 17  1  0
M  END
$$$$
