MAD.pdb
     RDKit          3D

 22 21  0  0  1  0  0  0  0  0999 V2000
    8.0421  -12.8385   22.6060 C   0  0  0  0  0  0  0  0  0  0  0  0
    8.0549  -12.4715   20.8389 S   0  0  0  0  0  0  0  0  0  0  0  0
    7.6074  -13.9393   19.8708 C   0  0  0  0  0  0  0  0  0  0  0  0
    7.8693  -15.1509   20.7354 C   0  0  0  0  0  0  0  0  0  0  0  0
    7.4210  -16.3775   19.9639 C   0  0  2  0  0  0  0  0  0  0  0  0
    5.9854  -16.3732   19.8700 N   0  0  0  0  0  0  0  0  0  0  0  0
    7.8994  -17.5613   20.6983 C   0  0  0  0  0  0  0  0  0  0  0  0
    7.4585  -17.7910   21.8625 O   0  0  0  0  0  0  0  0  0  0  0  0
    9.9025  -20.6160   19.9678 C   0  0  0  0  0  0  0  0  0  0  0  0
    9.3116  -19.6160   20.9710 C   0  0  2  0  0  0  0  0  0  0  0  0
    8.8434  -18.4931   20.1898 N   0  0  0  0  0  0  0  0  0  0  0  0
   10.4290  -19.1828   21.8340 C   0  0  0  0  0  0  0  0  0  0  0  0
   11.0101  -20.0306   22.5941 O   0  0  0  0  0  0  0  0  0  0  0  0
   10.9266  -17.8675   21.8927 N   0  0  0  0  0  0  0  0  0  0  0  0
   12.0114  -17.5052   22.7489 C   0  0  1  0  0  0  0  0  0  0  0  0
   13.0330  -16.6220   22.0884 C   0  0  0  0  0  0  0  0  0  0  0  0
   14.1751  -16.2989   22.9708 C   0  0  0  0  0  0  0  0  0  0  0  0
   14.6948  -17.2669   23.5860 O   0  0  0  0  0  0  0  0  0  0  0  0
   11.5209  -16.8842   24.0303 C   0  0  0  0  0  0  0  0  0  0  0  0
   10.3557  -16.4232   24.1359 O   0  0  0  0  0  0  0  0  0  0  0  0
   14.6998  -15.0539   23.1661 O   0  0  0  0  0  0  0  0  0  0  0  0
   12.3394  -16.7973   25.1460 O   0  0  0  0  0  0  0  0  0  0  0  0
  2  1  1  0
  3  2  1  0
  4  3  1  0
  4  5  1  0
  5  6  1  1
  7  5  1  0
  7  8  2  0
 10  9  1  6
 10 11  1  0
 10 12  1  0
 11  7  1  0
 12 14  1  0
 13 12  2  0
 14 15  1  0
 15 16  1  6
 15 19  1  0
 16 17  1  0
 17 18  2  0
 19 22  1  0
 20 19  2  0
 21 17  1  0
M  END
$$$$
