MAD.pdb
     RDKit          3D

 22 21  0  0  1  0  0  0  0  0999 V2000
    7.1591  -12.1686   28.5337 C   0  0  0  0  0  0  0  0  0  0  0  0
    6.4887  -11.3035   27.0986 S   0  0  0  0  0  0  0  0  0  0  0  0
    6.2938  -12.4357   25.6944 C   0  0  0  0  0  0  0  0  0  0  0  0
    5.9742  -13.8027   26.2541 C   0  0  0  0  0  0  0  0  0  0  0  0
    7.2029  -14.6747   26.0795 C   0  0  2  0  0  0  0  0  0  0  0  0
    8.3750  -13.9003   26.3896 N   0  0  0  0  0  0  0  0  0  0  0  0
    7.2260  -15.1313   24.6792 C   0  0  0  0  0  0  0  0  0  0  0  0
    6.3753  -15.9836   24.2890 O   0  0  0  0  0  0  0  0  0  0  0  0
    8.4454  -14.2732   21.3735 C   0  0  0  0  0  0  0  0  0  0  0  0
    8.3428  -15.3664   22.4459 C   0  0  2  0  0  0  0  0  0  0  0  0
    8.1537  -14.6784   23.7034 N   0  0  0  0  0  0  0  0  0  0  0  0
    9.6454  -16.0621   22.4569 C   0  0  0  0  0  0  0  0  0  0  0  0
   10.0072  -16.7491   21.4414 O   0  0  0  0  0  0  0  0  0  0  0  0
   10.5556  -16.0317   23.5301 N   0  0  0  0  0  0  0  0  0  0  0  0
   11.7387  -16.8324   23.5432 C   0  0  1  0  0  0  0  0  0  0  0  0
   13.0105  -16.0313   23.5194 C   0  0  0  0  0  0  0  0  0  0  0  0
   13.7444  -16.1490   22.2409 C   0  0  0  0  0  0  0  0  0  0  0  0
   13.1939  -16.8413   21.3445 O   0  0  0  0  0  0  0  0  0  0  0  0
   11.7402  -17.7978   24.6992 C   0  0  0  0  0  0  0  0  0  0  0  0
   12.6069  -18.7033   24.8010 O   0  0  0  0  0  0  0  0  0  0  0  0
   14.9513  -15.5752   21.9626 O   0  0  0  0  0  0  0  0  0  0  0  0
   10.7820  -17.7236   25.6985 O   0  0  0  0  0  0  0  0  0  0  0  0
  2  1  1  0
  3  2  1  0
  4  3  1  0
  4  5  1  0
  5  6  1  6
  7  5  1  0
  7  8  2  0
 10  9  1  6
 10 11  1  0
 10 12  1  0
 11  7  1  0
 12 14  1  0
 13 12  2  0
 14 15  1  0
 15 16  1  1
 15 19  1  0
 16 17  1  0
 17 18  2  0
 19 22  1  0
 20 19  2  0
 21 17  1  0
M  END
$$$$
