EKH.pdb
     RDKit          3D

 29 29  0  0  1  0  0  0  0  0999 V2000
   10.6141  -17.5473   17.6781 N   0  0  0  0  0  0  0  0  0  0  0  0
   11.0207  -18.2936   18.8593 C   0  0  1  0  0  0  0  0  0  0  0  0
   12.3309  -18.9244   18.5801 C   0  0  0  0  0  0  0  0  0  0  0  0
   12.7014  -18.7339   17.1384 C   0  0  0  0  0  0  0  0  0  0  0  0
   13.9727  -19.3268   16.7305 C   0  0  0  0  0  0  0  0  0  0  0  0
   14.0528  -20.2906   15.9563 O   0  0  0  0  0  0  0  0  0  0  0  0
   11.0549  -17.3744   20.0367 C   0  0  0  0  0  0  0  0  0  0  0  0
   12.1445  -16.9932   20.5333 O   0  0  0  0  0  0  0  0  0  0  0  0
   15.1993  -18.8181   17.2099 O   0  0  0  0  0  0  0  0  0  0  0  0
    9.8542  -16.9319   20.5944 N   0  0  0  0  0  0  0  0  0  0  0  0
    9.7587  -16.0100   21.7430 C   0  0  1  0  0  0  0  0  0  0  0  0
    8.5340  -15.1557   21.5907 C   0  0  0  0  0  0  0  0  0  0  0  0
    8.6514  -14.3726   20.3255 C   0  0  0  0  0  0  0  0  0  0  0  0
    7.4430  -13.5140   20.0118 C   0  0  0  0  0  0  0  0  0  0  0  0
    7.6267  -12.8564   18.6784 C   0  0  0  0  0  0  0  0  0  0  0  0
    6.4670  -12.0078   18.3742 N   0  0  0  0  0  0  0  0  0  0  0  0
    9.8286  -16.7617   22.9932 C   0  0  0  0  0  0  0  0  0  0  0  0
    9.0959  -17.8103   23.1154 O   0  0  0  0  0  0  0  0  0  0  0  0
   10.6320  -16.4798   24.1212 N   0  0  0  0  0  0  0  0  0  0  0  0
   10.5575  -17.3364   25.3435 C   0  0  1  0  0  0  0  0  0  0  0  0
   11.9634  -17.3856   25.8492 C   0  0  0  0  0  0  0  0  0  0  0  0
   12.8249  -18.2649   25.0601 C   0  0  0  0  0  0  0  0  0  0  0  0
   12.3851  -19.1450   24.0603 C   0  0  0  0  0  0  0  0  0  0  0  0
   13.4535  -19.7691   23.5746 N   0  0  0  0  0  0  0  0  0  0  0  0
   14.5724  -19.3428   24.2052 C   0  0  0  0  0  0  0  0  0  0  0  0
   14.1499  -18.4435   25.0858 N   0  0  0  0  0  0  0  0  0  0  0  0
    9.6131  -16.7158   26.2831 C   0  0  0  0  0  0  0  0  0  0  0  0
    9.3547  -17.2531   27.3694 O   0  0  0  0  0  0  0  0  0  0  0  0
    9.0012  -15.4976   25.9368 O   0  0  0  0  0  0  0  0  0  0  0  0
  2  1  1  6
  3  2  1  0
  4  3  1  0
  5  4  1  0
  6  5  2  0
  7  2  1  0
  7  8  2  0
  9  5  1  0
 10  7  1  0
 11 10  1  0
 11 12  1  6
 13 12  1  0
 13 14  1  0
 14 15  1  0
 16 15  1  0
 17 11  1  0
 18 17  2  0
 19 17  1  0
 20 27  1  0
 20 19  1  0
 21 22  1  0
 20 21  1  1
 22 23  2  0
 23 24  1  0
 25 24  1  0
 26 22  1  0
 26 25  2  0
 27 29  1  0
 28 27  2  0
M  END
$$$$
