EKH.pdb
     RDKit          3D

 29 29  0  0  1  0  0  0  0  0999 V2000
   12.3542  -18.1113   18.3254 N   0  0  0  0  0  0  0  0  0  0  0  0
   12.3511  -18.9390   19.5223 C   0  0  1  0  0  0  0  0  0  0  0  0
   13.7200  -18.9421   20.0867 C   0  0  0  0  0  0  0  0  0  0  0  0
   14.6006  -18.0024   19.3163 C   0  0  0  0  0  0  0  0  0  0  0  0
   15.9573  -17.8425   19.8339 C   0  0  0  0  0  0  0  0  0  0  0  0
   16.2098  -17.6972   21.0379 O   0  0  0  0  0  0  0  0  0  0  0  0
   11.3270  -18.4202   20.4787 C   0  0  0  0  0  0  0  0  0  0  0  0
   10.8768  -17.2512   20.3793 O   0  0  0  0  0  0  0  0  0  0  0  0
   17.0715  -17.8462   18.9669 O   0  0  0  0  0  0  0  0  0  0  0  0
   10.8629  -19.2501   21.5007 N   0  0  0  0  0  0  0  0  0  0  0  0
    9.6849  -18.9584   22.3407 C   0  0  1  0  0  0  0  0  0  0  0  0
    8.8812  -20.2135   22.5180 C   0  0  0  0  0  0  0  0  0  0  0  0
    7.7181  -19.9155   23.4048 C   0  0  0  0  0  0  0  0  0  0  0  0
    6.8823  -21.1278   23.7618 C   0  0  0  0  0  0  0  0  0  0  0  0
    5.7231  -20.7059   24.6118 C   0  0  0  0  0  0  0  0  0  0  0  0
    5.0087  -21.8895   25.1081 N   0  0  0  0  0  0  0  0  0  0  0  0
   10.1052  -18.3202   23.5852 C   0  0  0  0  0  0  0  0  0  0  0  0
   11.1225  -18.8031   24.2043 O   0  0  0  0  0  0  0  0  0  0  0  0
    9.5228  -17.1962   24.2135 N   0  0  0  0  0  0  0  0  0  0  0  0
   10.0821  -16.6628   25.4926 C   0  0  1  0  0  0  0  0  0  0  0  0
    9.1322  -15.5793   25.8904 C   0  0  0  0  0  0  0  0  0  0  0  0
    9.4256  -15.0162   27.2075 C   0  0  0  0  0  0  0  0  0  0  0  0
   10.4626  -15.4347   28.0543 C   0  0  0  0  0  0  0  0  0  0  0  0
   10.4095  -14.6904   29.1544 N   0  0  0  0  0  0  0  0  0  0  0  0
    9.3899  -13.8046   29.0723 C   0  0  0  0  0  0  0  0  0  0  0  0
    8.8283  -14.0344   27.8915 N   0  0  0  0  0  0  0  0  0  0  0  0
   10.1556  -17.7679   26.4586 C   0  0  0  0  0  0  0  0  0  0  0  0
   11.1511  -17.9118   27.1823 O   0  0  0  0  0  0  0  0  0  0  0  0
    9.0783  -18.6671   26.5560 O   0  0  0  0  0  0  0  0  0  0  0  0
  2  1  1  6
  3  2  1  0
  4  3  1  0
  5  4  1  0
  6  5  2  0
  7  2  1  0
  7  8  2  0
  9  5  1  0
 10  7  1  0
 11 10  1  0
 11 12  1  1
 13 12  1  0
 13 14  1  0
 14 15  1  0
 16 15  1  0
 17 11  1  0
 18 17  2  0
 19 17  1  0
 20 27  1  0
 20 19  1  0
 21 22  1  0
 20 21  1  1
 22 23  2  0
 23 24  1  0
 25 24  1  0
 26 22  1  0
 26 25  2  0
 27 29  1  0
 28 27  2  0
M  END
$$$$
