EKH.pdb
     RDKit          3D

 29 29  0  0  1  0  0  0  0  0999 V2000
   11.9839  -19.4416   19.8299 N   0  0  0  0  0  0  0  0  0  0  0  0
   13.0348  -18.5439   20.2853 C   0  0  1  0  0  0  0  0  0  0  0  0
   13.8109  -18.1026   19.1040 C   0  0  0  0  0  0  0  0  0  0  0  0
   13.3976  -18.8833   17.8908 C   0  0  0  0  0  0  0  0  0  0  0  0
   14.1346  -18.5822   16.6660 C   0  0  0  0  0  0  0  0  0  0  0  0
   15.3389  -18.8337   16.5213 O   0  0  0  0  0  0  0  0  0  0  0  0
   12.4220  -17.4080   21.0381 C   0  0  0  0  0  0  0  0  0  0  0  0
   13.0953  -16.3925   21.3456 O   0  0  0  0  0  0  0  0  0  0  0  0
   13.4950  -17.9762   15.5629 O   0  0  0  0  0  0  0  0  0  0  0  0
   11.0773  -17.4773   21.4060 N   0  0  0  0  0  0  0  0  0  0  0  0
   10.3271  -16.3721   22.0337 C   0  0  1  0  0  0  0  0  0  0  0  0
    8.9329  -16.3429   21.4784 C   0  0  0  0  0  0  0  0  0  0  0  0
    8.6187  -14.9487   21.0477 C   0  0  0  0  0  0  0  0  0  0  0  0
    7.2305  -14.7763   20.4655 C   0  0  0  0  0  0  0  0  0  0  0  0
    7.0490  -13.3606   20.0107 C   0  0  0  0  0  0  0  0  0  0  0  0
    7.3343  -13.2555   18.5735 N   0  0  0  0  0  0  0  0  0  0  0  0
   10.4041  -16.4795   23.4881 C   0  0  0  0  0  0  0  0  0  0  0  0
   10.4394  -17.6526   24.0114 O   0  0  0  0  0  0  0  0  0  0  0  0
   10.4552  -15.4235   24.4259 N   0  0  0  0  0  0  0  0  0  0  0  0
   10.5959  -15.7070   25.8865 C   0  0  1  0  0  0  0  0  0  0  0  0
   10.3746  -14.3834   26.5451 C   0  0  0  0  0  0  0  0  0  0  0  0
   10.4437  -14.4516   28.0040 C   0  0  0  0  0  0  0  0  0  0  0  0
    9.7931  -15.4044   28.8018 C   0  0  0  0  0  0  0  0  0  0  0  0
   10.0947  -15.1419   30.0695 N   0  0  0  0  0  0  0  0  0  0  0  0
   10.9104  -14.0648   30.1439 C   0  0  0  0  0  0  0  0  0  0  0  0
   11.0934  -13.6838   28.8853 N   0  0  0  0  0  0  0  0  0  0  0  0
    9.6011  -16.7240   26.2553 C   0  0  0  0  0  0  0  0  0  0  0  0
    8.5104  -16.7850   25.6705 O   0  0  0  0  0  0  0  0  0  0  0  0
    9.9000  -17.6346   27.2849 O   0  0  0  0  0  0  0  0  0  0  0  0
  2  1  1  6
  3  2  1  0
  4  3  1  0
  5  4  1  0
  6  5  2  0
  7  2  1  0
  7  8  2  0
  9  5  1  0
 10  7  1  0
 11 10  1  0
 11 12  1  1
 13 12  1  0
 13 14  1  0
 14 15  1  0
 16 15  1  0
 17 11  1  0
 18 17  2  0
 19 17  1  0
 20 27  1  0
 20 19  1  0
 21 22  1  0
 20 21  1  1
 22 23  2  0
 23 24  1  0
 25 24  1  0
 26 22  1  0
 26 25  2  0
 27 29  1  0
 28 27  2  0
M  END
$$$$
