EKH.pdb
     RDKit          3D

 29 29  0  0  1  0  0  0  0  0999 V2000
   11.9309  -18.0579   18.8662 N   0  0  0  0  0  0  0  0  0  0  0  0
   12.0273  -17.8690   20.3058 C   0  0  1  0  0  0  0  0  0  0  0  0
   13.1084  -16.8933   20.5734 C   0  0  0  0  0  0  0  0  0  0  0  0
   14.2019  -17.5376   21.3743 C   0  0  0  0  0  0  0  0  0  0  0  0
   15.3380  -16.6777   21.6965 C   0  0  0  0  0  0  0  0  0  0  0  0
   15.6387  -16.3590   22.8552 O   0  0  0  0  0  0  0  0  0  0  0  0
   10.7012  -17.4302   20.8362 C   0  0  0  0  0  0  0  0  0  0  0  0
   10.1861  -16.3405   20.4804 O   0  0  0  0  0  0  0  0  0  0  0  0
   16.1669  -16.1565   20.6794 O   0  0  0  0  0  0  0  0  0  0  0  0
   10.0231  -18.2462   21.7433 N   0  0  0  0  0  0  0  0  0  0  0  0
    8.6515  -17.9943   22.2269 C   0  0  1  0  0  0  0  0  0  0  0  0
    8.0086  -19.3004   22.5923 C   0  0  0  0  0  0  0  0  0  0  0  0
    7.0758  -19.6974   21.4967 C   0  0  0  0  0  0  0  0  0  0  0  0
    6.4857  -21.0839   21.6552 C   0  0  0  0  0  0  0  0  0  0  0  0
    5.5396  -21.3589   20.5266 C   0  0  0  0  0  0  0  0  0  0  0  0
    6.2924  -21.7266   19.3200 N   0  0  0  0  0  0  0  0  0  0  0  0
    8.6747  -17.0028   23.2989 C   0  0  0  0  0  0  0  0  0  0  0  0
    9.7071  -16.9551   24.0625 O   0  0  0  0  0  0  0  0  0  0  0  0
    7.6776  -16.0507   23.6101 N   0  0  0  0  0  0  0  0  0  0  0  0
    7.8060  -15.1792   24.8172 C   0  0  1  0  0  0  0  0  0  0  0  0
    6.6288  -14.2611   24.7396 C   0  0  0  0  0  0  0  0  0  0  0  0
    6.5553  -13.3287   25.8636 C   0  0  0  0  0  0  0  0  0  0  0  0
    7.4477  -13.2924   26.9451 C   0  0  0  0  0  0  0  0  0  0  0  0
    7.0561  -12.3161   27.7578 N   0  0  0  0  0  0  0  0  0  0  0  0
    5.9516  -11.7099   27.2641 C   0  0  0  0  0  0  0  0  0  0  0  0
    5.6868  -12.3473   26.1301 N   0  0  0  0  0  0  0  0  0  0  0  0
    7.8060  -16.0402   26.0082 C   0  0  0  0  0  0  0  0  0  0  0  0
    7.0509  -17.0198   26.0820 O   0  0  0  0  0  0  0  0  0  0  0  0
    8.6775  -15.7413   27.0711 O   0  0  0  0  0  0  0  0  0  0  0  0
  2  1  1  6
  3  2  1  0
  4  3  1  0
  5  4  1  0
  6  5  2  0
  7  2  1  0
  7  8  2  0
  9  5  1  0
 10  7  1  0
 11 10  1  0
 11 12  1  1
 13 12  1  0
 13 14  1  0
 14 15  1  0
 16 15  1  0
 17 11  1  0
 18 17  2  0
 19 17  1  0
 20 27  1  0
 20 19  1  0
 21 22  1  0
 20 21  1  1
 22 23  2  0
 23 24  1  0
 25 24  1  0
 26 22  1  0
 26 25  2  0
 27 29  1  0
 28 27  2  0
M  END
$$$$
