EKH.pdb
     RDKit          3D

 29 29  0  0  1  0  0  0  0  0999 V2000
    6.5197  -18.8606   17.3739 N   0  0  0  0  0  0  0  0  0  0  0  0
    6.1340  -19.9311   18.2810 C   0  0  1  0  0  0  0  0  0  0  0  0
    7.1023  -21.0406   18.1262 C   0  0  0  0  0  0  0  0  0  0  0  0
    8.5028  -20.5034   18.0774 C   0  0  0  0  0  0  0  0  0  0  0  0
    9.5627  -21.5082   18.0451 C   0  0  0  0  0  0  0  0  0  0  0  0
    9.3424  -22.7264   18.0908 O   0  0  0  0  0  0  0  0  0  0  0  0
    6.0748  -19.3991   19.6760 C   0  0  0  0  0  0  0  0  0  0  0  0
    6.8041  -18.4423   20.0391 O   0  0  0  0  0  0  0  0  0  0  0  0
   10.9203  -21.1306   17.9584 O   0  0  0  0  0  0  0  0  0  0  0  0
    5.1931  -19.9761   20.5915 N   0  0  0  0  0  0  0  0  0  0  0  0
    4.9609  -19.4690   21.9580 C   0  0  1  0  0  0  0  0  0  0  0  0
    3.6913  -20.0618   22.4961 C   0  0  0  0  0  0  0  0  0  0  0  0
    2.5416  -19.5231   21.7112 C   0  0  0  0  0  0  0  0  0  0  0  0
    1.2117  -20.1754   22.0301 C   0  0  0  0  0  0  0  0  0  0  0  0
    0.1700  -19.6869   21.0708 C   0  0  0  0  0  0  0  0  0  0  0  0
   -1.1345  -20.2728   21.4064 N   0  0  0  0  0  0  0  0  0  0  0  0
    6.1427  -19.7015   22.7839 C   0  0  0  0  0  0  0  0  0  0  0  0
    6.7741  -20.8120   22.6453 O   0  0  0  0  0  0  0  0  0  0  0  0
    6.7057  -18.8290   23.7427 N   0  0  0  0  0  0  0  0  0  0  0  0
    7.9480  -19.2080   24.4818 C   0  0  1  0  0  0  0  0  0  0  0  0
    8.7843  -17.9691   24.4630 C   0  0  0  0  0  0  0  0  0  0  0  0
    9.4801  -17.7676   23.1929 C   0  0  0  0  0  0  0  0  0  0  0  0
    9.4136  -18.6289   22.0877 C   0  0  0  0  0  0  0  0  0  0  0  0
   10.1755  -18.1128   21.1284 N   0  0  0  0  0  0  0  0  0  0  0  0
   10.7386  -16.9562   21.5484 C   0  0  0  0  0  0  0  0  0  0  0  0
   10.2955  -16.7879   22.7885 N   0  0  0  0  0  0  0  0  0  0  0  0
    7.5651  -19.6418   25.8327 C   0  0  0  0  0  0  0  0  0  0  0  0
    6.4168  -19.4519   26.2576 O   0  0  0  0  0  0  0  0  0  0  0  0
    8.5200  -20.2797   26.6451 O   0  0  0  0  0  0  0  0  0  0  0  0
  2  1  1  6
  3  2  1  0
  4  3  1  0
  5  4  1  0
  6  5  2  0
  7  2  1  0
  7  8  2  0
  9  5  1  0
 10  7  1  0
 11 10  1  0
 11 12  1  1
 13 12  1  0
 13 14  1  0
 14 15  1  0
 16 15  1  0
 17 11  1  0
 18 17  2  0
 19 17  1  0
 20 27  1  0
 20 19  1  0
 21 22  1  0
 20 21  1  1
 22 23  2  0
 23 24  1  0
 25 24  1  0
 26 22  1  0
 26 25  2  0
 27 29  1  0
 28 27  2  0
M  END
$$$$
