EKH.pdb
     RDKit          3D

 29 29  0  0  1  0  0  0  0  0999 V2000
   11.7686  -17.4807   19.2752 N   0  0  0  0  0  0  0  0  0  0  0  0
   11.1789  -18.3238   20.3043 C   0  0  1  0  0  0  0  0  0  0  0  0
   12.2693  -19.0711   20.9716 C   0  0  0  0  0  0  0  0  0  0  0  0
   13.4442  -18.1691   21.2124 C   0  0  0  0  0  0  0  0  0  0  0  0
   14.5184  -18.7359   22.0242 C   0  0  0  0  0  0  0  0  0  0  0  0
   14.9239  -19.8991   21.8936 O   0  0  0  0  0  0  0  0  0  0  0  0
   10.3918  -17.4739   21.2479 C   0  0  0  0  0  0  0  0  0  0  0  0
   10.4609  -16.2198   21.2065 O   0  0  0  0  0  0  0  0  0  0  0  0
   15.1606  -17.9676   23.0194 O   0  0  0  0  0  0  0  0  0  0  0  0
    9.5652  -18.0850   22.1922 N   0  0  0  0  0  0  0  0  0  0  0  0
    8.6757  -17.3560   23.1172 C   0  0  1  0  0  0  0  0  0  0  0  0
    7.2831  -17.9029   22.9979 C   0  0  0  0  0  0  0  0  0  0  0  0
    7.2581  -18.9120   21.8983 C   0  0  0  0  0  0  0  0  0  0  0  0
    5.9086  -19.5679   21.6874 C   0  0  0  0  0  0  0  0  0  0  0  0
    6.0020  -20.5605   20.5694 C   0  0  0  0  0  0  0  0  0  0  0  0
    5.6362  -19.9202   19.2989 N   0  0  0  0  0  0  0  0  0  0  0  0
    9.2300  -17.3835   24.4681 C   0  0  0  0  0  0  0  0  0  0  0  0
    9.2842  -18.5114   25.0816 O   0  0  0  0  0  0  0  0  0  0  0  0
    9.7400  -16.2939   25.2097 N   0  0  0  0  0  0  0  0  0  0  0  0
    9.3619  -16.1036   26.6429 C   0  0  1  0  0  0  0  0  0  0  0  0
    7.8733  -15.9684   26.6199 C   0  0  0  0  0  0  0  0  0  0  0  0
    7.4267  -14.6144   26.2954 C   0  0  0  0  0  0  0  0  0  0  0  0
    8.2701  -13.5256   26.0293 C   0  0  0  0  0  0  0  0  0  0  0  0
    7.5001  -12.4714   25.7787 N   0  0  0  0  0  0  0  0  0  0  0  0
    6.1938  -12.8136   25.8669 C   0  0  0  0  0  0  0  0  0  0  0  0
    6.1961  -14.1043   26.1778 N   0  0  0  0  0  0  0  0  0  0  0  0
    9.8375  -17.2684   27.4026 C   0  0  0  0  0  0  0  0  0  0  0  0
    9.0914  -18.2349   27.6137 O   0  0  0  0  0  0  0  0  0  0  0  0
   11.1566  -17.2772   27.8908 O   0  0  0  0  0  0  0  0  0  0  0  0
  2  1  1  6
  3  2  1  0
  4  3  1  0
  5  4  1  0
  6  5  2  0
  7  2  1  0
  7  8  2  0
  9  5  1  0
 10  7  1  0
 11 10  1  0
 11 12  1  1
 13 12  1  0
 13 14  1  0
 14 15  1  0
 16 15  1  0
 17 11  1  0
 18 17  2  0
 19 17  1  0
 20 27  1  0
 20 19  1  0
 21 22  1  0
 20 21  1  6
 22 23  2  0
 23 24  1  0
 25 24  1  0
 26 22  1  0
 26 25  2  0
 27 29  1  0
 28 27  2  0
M  END
$$$$
