EKH.pdb
     RDKit          3D

 29 29  0  0  1  0  0  0  0  0999 V2000
    8.4983  -18.4619   15.8143 N   0  0  0  0  0  0  0  0  0  0  0  0
    9.5138  -18.9278   16.7467 C   0  0  1  0  0  0  0  0  0  0  0  0
   10.7989  -18.2838   16.3915 C   0  0  0  0  0  0  0  0  0  0  0  0
   11.3358  -18.8658   15.1167 C   0  0  0  0  0  0  0  0  0  0  0  0
   12.6730  -18.4192   14.7337 C   0  0  0  0  0  0  0  0  0  0  0  0
   12.8775  -17.5729   13.8526 O   0  0  0  0  0  0  0  0  0  0  0  0
    9.0769  -18.6269   18.1435 C   0  0  0  0  0  0  0  0  0  0  0  0
    8.2566  -17.7061   18.3847 O   0  0  0  0  0  0  0  0  0  0  0  0
   13.8227  -18.9427   15.3639 O   0  0  0  0  0  0  0  0  0  0  0  0
    9.5901  -19.3831   19.1987 N   0  0  0  0  0  0  0  0  0  0  0  0
    9.1905  -19.2225   20.6104 C   0  0  1  0  0  0  0  0  0  0  0  0
    9.4876  -20.4909   21.3556 C   0  0  0  0  0  0  0  0  0  0  0  0
    8.2491  -21.3231   21.3963 C   0  0  0  0  0  0  0  0  0  0  0  0
    8.2402  -22.4725   20.4092 C   0  0  0  0  0  0  0  0  0  0  0  0
    6.9218  -23.1808   20.4751 C   0  0  0  0  0  0  0  0  0  0  0  0
    6.1733  -22.9632   19.2300 N   0  0  0  0  0  0  0  0  0  0  0  0
    9.8095  -18.0244   21.1709 C   0  0  0  0  0  0  0  0  0  0  0  0
   11.0419  -17.7886   20.8935 O   0  0  0  0  0  0  0  0  0  0  0  0
    9.2049  -17.0530   22.0005 N   0  0  0  0  0  0  0  0  0  0  0  0
    9.9843  -15.8746   22.4876 C   0  0  1  0  0  0  0  0  0  0  0  0
    8.9663  -14.7893   22.6311 C   0  0  0  0  0  0  0  0  0  0  0  0
    8.4911  -14.2770   21.3467 C   0  0  0  0  0  0  0  0  0  0  0  0
    8.9821  -14.6609   20.0902 C   0  0  0  0  0  0  0  0  0  0  0  0
    8.3056  -13.9822   19.1688 N   0  0  0  0  0  0  0  0  0  0  0  0
    7.3954  -13.1723   19.7575 C   0  0  0  0  0  0  0  0  0  0  0  0
    7.5408  -13.3806   21.0606 N   0  0  0  0  0  0  0  0  0  0  0  0
   10.6355  -16.2447   23.7520 C   0  0  0  0  0  0  0  0  0  0  0  0
   10.3616  -17.3129   24.3169 O   0  0  0  0  0  0  0  0  0  0  0  0
   11.5798  -15.3700   24.3193 O   0  0  0  0  0  0  0  0  0  0  0  0
  2  1  1  6
  3  2  1  0
  4  3  1  0
  5  4  1  0
  6  5  2  0
  7  2  1  0
  7  8  2  0
  9  5  1  0
 10  7  1  0
 11 10  1  0
 11 12  1  1
 13 12  1  0
 13 14  1  0
 14 15  1  0
 16 15  1  0
 17 11  1  0
 18 17  2  0
 19 17  1  0
 20 27  1  0
 20 19  1  0
 21 22  1  0
 20 21  1  1
 22 23  2  0
 23 24  1  0
 25 24  1  0
 26 22  1  0
 26 25  2  0
 27 29  1  0
 28 27  2  0
M  END
$$$$
