EKH.pdb
     RDKit          3D

 29 29  0  0  1  0  0  0  0  0999 V2000
   12.2438  -20.2325   21.0300 N   0  0  0  0  0  0  0  0  0  0  0  0
   13.2840  -19.2469   21.2838 C   0  0  1  0  0  0  0  0  0  0  0  0
   14.0936  -19.1006   20.0527 C   0  0  0  0  0  0  0  0  0  0  0  0
   13.2165  -18.7137   18.8981 C   0  0  0  0  0  0  0  0  0  0  0  0
   13.9101  -18.4522   17.6393 C   0  0  0  0  0  0  0  0  0  0  0  0
   14.2726  -17.3208   17.2885 O   0  0  0  0  0  0  0  0  0  0  0  0
   12.6534  -17.9655   21.7229 C   0  0  0  0  0  0  0  0  0  0  0  0
   13.3427  -16.9314   21.9094 O   0  0  0  0  0  0  0  0  0  0  0  0
   14.2074  -19.5004   16.7416 O   0  0  0  0  0  0  0  0  0  0  0  0
   11.2737  -17.9174   21.9295 N   0  0  0  0  0  0  0  0  0  0  0  0
   10.5366  -16.7121   22.3566 C   0  0  1  0  0  0  0  0  0  0  0  0
    9.0924  -16.8543   21.9735 C   0  0  0  0  0  0  0  0  0  0  0  0
    9.0147  -17.5181   20.6389 C   0  0  0  0  0  0  0  0  0  0  0  0
    7.6059  -17.6726   20.1029 C   0  0  0  0  0  0  0  0  0  0  0  0
    7.6529  -18.2840   18.7361 C   0  0  0  0  0  0  0  0  0  0  0  0
    6.2894  -18.5533   18.2605 N   0  0  0  0  0  0  0  0  0  0  0  0
   10.7711  -16.4608   23.7760 C   0  0  0  0  0  0  0  0  0  0  0  0
   10.9964  -15.2528   24.1518 O   0  0  0  0  0  0  0  0  0  0  0  0
   10.7738  -17.4060   24.8267 N   0  0  0  0  0  0  0  0  0  0  0  0
   10.8002  -16.9604   26.2529 C   0  0  1  0  0  0  0  0  0  0  0  0
    9.5598  -16.1409   26.4094 C   0  0  0  0  0  0  0  0  0  0  0  0
    9.7716  -14.9268   27.1961 C   0  0  0  0  0  0  0  0  0  0  0  0
   10.9738  -14.5679   27.8234 C   0  0  0  0  0  0  0  0  0  0  0  0
   10.7761  -13.4059   28.4380 N   0  0  0  0  0  0  0  0  0  0  0  0
    9.5048  -12.9842   28.2457 C   0  0  0  0  0  0  0  0  0  0  0  0
    8.9397  -13.9240   27.4975 N   0  0  0  0  0  0  0  0  0  0  0  0
   10.8302  -18.1556   27.1076 C   0  0  0  0  0  0  0  0  0  0  0  0
   10.4580  -19.2548   26.6734 O   0  0  0  0  0  0  0  0  0  0  0  0
   11.2892  -18.0406   28.4323 O   0  0  0  0  0  0  0  0  0  0  0  0
  2  1  1  6
  3  2  1  0
  4  3  1  0
  5  4  1  0
  6  5  2  0
  7  2  1  0
  7  8  2  0
  9  5  1  0
 10  7  1  0
 11 10  1  0
 11 12  1  1
 13 12  1  0
 13 14  1  0
 14 15  1  0
 16 15  1  0
 17 11  1  0
 18 17  2  0
 19 17  1  0
 20 27  1  0
 20 19  1  0
 21 22  1  0
 20 21  1  1
 22 23  2  0
 23 24  1  0
 25 24  1  0
 26 22  1  0
 26 25  2  0
 27 29  1  0
 28 27  2  0
M  END
$$$$
