EKH.pdb
     RDKit          3D

 29 29  0  0  1  0  0  0  0  0999 V2000
   14.1937  -13.6856   18.8593 N   0  0  0  0  0  0  0  0  0  0  0  0
   13.4748  -14.9120   19.1701 C   0  0  1  0  0  0  0  0  0  0  0  0
   14.4637  -16.0044   19.3153 C   0  0  0  0  0  0  0  0  0  0  0  0
   15.5170  -15.8951   18.2518 C   0  0  0  0  0  0  0  0  0  0  0  0
   16.6094  -16.8605   18.3447 C   0  0  0  0  0  0  0  0  0  0  0  0
   17.7611  -16.5496   18.6787 O   0  0  0  0  0  0  0  0  0  0  0  0
   12.6512  -14.7037   20.3992 C   0  0  0  0  0  0  0  0  0  0  0  0
   13.1574  -14.2369   21.4505 O   0  0  0  0  0  0  0  0  0  0  0  0
   16.4003  -18.2256   18.0516 O   0  0  0  0  0  0  0  0  0  0  0  0
   11.2951  -15.0340   20.3783 N   0  0  0  0  0  0  0  0  0  0  0  0
   10.4004  -14.9567   21.5496 C   0  0  1  0  0  0  0  0  0  0  0  0
    8.9738  -14.9660   21.0834 C   0  0  0  0  0  0  0  0  0  0  0  0
    8.7700  -13.8236   20.1446 C   0  0  0  0  0  0  0  0  0  0  0  0
    7.8916  -14.1475   18.9533 C   0  0  0  0  0  0  0  0  0  0  0  0
    7.7127  -12.9204   18.1128 C   0  0  0  0  0  0  0  0  0  0  0  0
    6.8631  -13.2261   16.9541 N   0  0  0  0  0  0  0  0  0  0  0  0
   10.7384  -16.0076   22.5057 C   0  0  0  0  0  0  0  0  0  0  0  0
   11.9579  -16.4082   22.5652 O   0  0  0  0  0  0  0  0  0  0  0  0
    9.8690  -16.6572   23.4111 N   0  0  0  0  0  0  0  0  0  0  0  0
   10.0950  -16.5636   24.8854 C   0  0  1  0  0  0  0  0  0  0  0  0
    9.8994  -15.1154   25.2002 C   0  0  0  0  0  0  0  0  0  0  0  0
   10.1518  -14.7959   26.6046 C   0  0  0  0  0  0  0  0  0  0  0  0
   10.5894  -15.7078   27.5763 C   0  0  0  0  0  0  0  0  0  0  0  0
   10.7033  -15.0486   28.7251 N   0  0  0  0  0  0  0  0  0  0  0  0
   10.3624  -13.7500   28.5561 C   0  0  0  0  0  0  0  0  0  0  0  0
   10.0394  -13.6430   27.2728 N   0  0  0  0  0  0  0  0  0  0  0  0
    9.1322  -17.4490   25.5554 C   0  0  0  0  0  0  0  0  0  0  0  0
    7.9368  -17.4474   25.2296 O   0  0  0  0  0  0  0  0  0  0  0  0
    9.5827  -18.3051   26.5765 O   0  0  0  0  0  0  0  0  0  0  0  0
  2  1  1  1
  3  2  1  0
  4  3  1  0
  5  4  1  0
  6  5  2  0
  7  2  1  0
  7  8  2  0
  9  5  1  0
 10  7  1  0
 11 10  1  0
 11 12  1  6
 13 12  1  0
 13 14  1  0
 14 15  1  0
 16 15  1  0
 17 11  1  0
 18 17  2  0
 19 17  1  0
 20 27  1  0
 20 19  1  0
 21 22  1  0
 20 21  1  1
 22 23  2  0
 23 24  1  0
 25 24  1  0
 26 22  1  0
 26 25  2  0
 27 29  1  0
 28 27  2  0
M  END
$$$$
