EKH.pdb
     RDKit          3D

 29 29  0  0  1  0  0  0  0  0999 V2000
   15.4390  -13.8425   17.3458 N   0  0  0  0  0  0  0  0  0  0  0  0
   14.4346  -14.8950   17.3129 C   0  0  1  0  0  0  0  0  0  0  0  0
   15.1326  -16.1994   17.2516 C   0  0  0  0  0  0  0  0  0  0  0  0
   15.8841  -16.4458   18.5270 C   0  0  0  0  0  0  0  0  0  0  0  0
   16.5549  -17.7400   18.6237 C   0  0  0  0  0  0  0  0  0  0  0  0
   16.0892  -18.6985   19.2552 O   0  0  0  0  0  0  0  0  0  0  0  0
   13.5443  -14.7654   18.5058 C   0  0  0  0  0  0  0  0  0  0  0  0
   13.9756  -14.3055   19.5929 O   0  0  0  0  0  0  0  0  0  0  0  0
   17.7948  -17.9655   17.9872 O   0  0  0  0  0  0  0  0  0  0  0  0
   12.2095  -15.1626   18.4098 N   0  0  0  0  0  0  0  0  0  0  0  0
   11.2148  -15.0095   19.4894 C   0  0  1  0  0  0  0  0  0  0  0  0
    9.8349  -15.1190   18.9094 C   0  0  0  0  0  0  0  0  0  0  0  0
    9.5531  -13.8903   18.1101 C   0  0  0  0  0  0  0  0  0  0  0  0
    8.1825  -13.8699   17.4644 C   0  0  0  0  0  0  0  0  0  0  0  0
    8.0781  -12.6918   16.5449 C   0  0  0  0  0  0  0  0  0  0  0  0
    6.7444  -12.6523   15.9306 N   0  0  0  0  0  0  0  0  0  0  0  0
   11.5012  -15.9507   20.5688 C   0  0  0  0  0  0  0  0  0  0  0  0
   12.0550  -17.0709   20.2694 O   0  0  0  0  0  0  0  0  0  0  0  0
   11.2470  -15.7788   21.9484 N   0  0  0  0  0  0  0  0  0  0  0  0
   11.4974  -16.8914   22.9141 C   0  0  1  0  0  0  0  0  0  0  0  0
   11.1962  -16.2970   24.2522 C   0  0  0  0  0  0  0  0  0  0  0  0
   11.4452  -17.2208   25.3579 C   0  0  0  0  0  0  0  0  0  0  0  0
   12.7064  -17.6934   25.7498 C   0  0  0  0  0  0  0  0  0  0  0  0
   12.5275  -18.5078   26.7851 N   0  0  0  0  0  0  0  0  0  0  0  0
   11.2125  -18.5934   27.0924 C   0  0  0  0  0  0  0  0  0  0  0  0
   10.6016  -17.8078   26.2136 N   0  0  0  0  0  0  0  0  0  0  0  0
   10.6216  -18.0163   22.5569 C   0  0  0  0  0  0  0  0  0  0  0  0
   10.8758  -19.1653   22.9448 O   0  0  0  0  0  0  0  0  0  0  0  0
    9.4837  -17.7758   21.7658 O   0  0  0  0  0  0  0  0  0  0  0  0
  2  1  1  1
  3  2  1  0
  4  3  1  0
  5  4  1  0
  6  5  2  0
  7  2  1  0
  7  8  2  0
  9  5  1  0
 10  7  1  0
 11 10  1  0
 11 12  1  6
 13 12  1  0
 13 14  1  0
 14 15  1  0
 16 15  1  0
 17 11  1  0
 18 17  2  0
 19 17  1  0
 20 27  1  0
 20 19  1  0
 21 22  1  0
 20 21  1  1
 22 23  2  0
 23 24  1  0
 25 24  1  0
 26 22  1  0
 26 25  2  0
 27 29  1  0
 28 27  2  0
M  END
$$$$
