EKH.pdb
     RDKit          3D

 29 29  0  0  1  0  0  0  0  0999 V2000
    8.5315  -20.0669   17.5885 N   0  0  0  0  0  0  0  0  0  0  0  0
    8.9584  -20.1776   18.9753 C   0  0  1  0  0  0  0  0  0  0  0  0
   10.0823  -21.1396   19.0383 C   0  0  0  0  0  0  0  0  0  0  0  0
    9.6003  -22.5224   18.7098 C   0  0  0  0  0  0  0  0  0  0  0  0
    8.6008  -23.0748   19.6208 C   0  0  0  0  0  0  0  0  0  0  0  0
    7.3822  -23.0134   19.4067 O   0  0  0  0  0  0  0  0  0  0  0  0
    9.3208  -18.8227   19.4901 C   0  0  0  0  0  0  0  0  0  0  0  0
   10.4404  -18.3095   19.2401 O   0  0  0  0  0  0  0  0  0  0  0  0
    8.9845  -23.7201   20.8164 O   0  0  0  0  0  0  0  0  0  0  0  0
    8.3984  -18.1150   20.2627 N   0  0  0  0  0  0  0  0  0  0  0  0
    8.6426  -16.7759   20.8333 C   0  0  1  0  0  0  0  0  0  0  0  0
    7.3295  -16.1467   21.1973 C   0  0  0  0  0  0  0  0  0  0  0  0
    7.5259  -14.6730   21.3306 C   0  0  0  0  0  0  0  0  0  0  0  0
    7.8730  -13.9726   20.0326 C   0  0  0  0  0  0  0  0  0  0  0  0
    8.0183  -12.5021   20.2788 C   0  0  0  0  0  0  0  0  0  0  0  0
    8.3552  -11.8150   19.0250 N   0  0  0  0  0  0  0  0  0  0  0  0
    9.6017  -16.8686   21.9308 C   0  0  0  0  0  0  0  0  0  0  0  0
    9.4448  -17.8021   22.7999 O   0  0  0  0  0  0  0  0  0  0  0  0
   10.7234  -16.0410   22.1636 N   0  0  0  0  0  0  0  0  0  0  0  0
   11.6213  -16.2850   23.3329 C   0  0  1  0  0  0  0  0  0  0  0  0
   12.6908  -15.2486   23.2030 C   0  0  0  0  0  0  0  0  0  0  0  0
   13.6024  -15.5036   22.0886 C   0  0  0  0  0  0  0  0  0  0  0  0
   13.7501  -16.7323   21.4283 C   0  0  0  0  0  0  0  0  0  0  0  0
   14.6657  -16.5714   20.4781 N   0  0  0  0  0  0  0  0  0  0  0  0
   15.1262  -15.2990   20.4816 C   0  0  0  0  0  0  0  0  0  0  0  0
   14.4632  -14.6954   21.4607 N   0  0  0  0  0  0  0  0  0  0  0  0
   10.8227  -16.1590   24.5602 C   0  0  0  0  0  0  0  0  0  0  0  0
    9.6526  -15.7537   24.5160 O   0  0  0  0  0  0  0  0  0  0  0  0
   11.4017  -16.5057   25.7944 O   0  0  0  0  0  0  0  0  0  0  0  0
  2  1  1  6
  3  2  1  0
  4  3  1  0
  5  4  1  0
  6  5  2  0
  7  2  1  0
  7  8  2  0
  9  5  1  0
 10  7  1  0
 11 10  1  0
 11 12  1  1
 13 12  1  0
 13 14  1  0
 14 15  1  0
 16 15  1  0
 17 11  1  0
 18 17  2  0
 19 17  1  0
 20 27  1  0
 20 19  1  0
 21 22  1  0
 20 21  1  1
 22 23  2  0
 23 24  1  0
 25 24  1  0
 26 22  1  0
 26 25  2  0
 27 29  1  0
 28 27  2  0
M  END
$$$$
