EKH.pdb
     RDKit          3D

 29 29  0  0  1  0  0  0  0  0999 V2000
    9.5718  -20.4298   18.9596 N   0  0  0  0  0  0  0  0  0  0  0  0
    9.1826  -21.4345   19.9378 C   0  0  1  0  0  0  0  0  0  0  0  0
   10.2370  -22.4733   19.9792 C   0  0  0  0  0  0  0  0  0  0  0  0
   11.5923  -21.8419   19.8502 C   0  0  0  0  0  0  0  0  0  0  0  0
   12.7234  -22.7661   19.8755 C   0  0  0  0  0  0  0  0  0  0  0  0
   13.9013  -22.3975   19.7700 O   0  0  0  0  0  0  0  0  0  0  0  0
    8.9605  -20.7759   21.2604 C   0  0  0  0  0  0  0  0  0  0  0  0
    9.4908  -19.6699   21.5340 O   0  0  0  0  0  0  0  0  0  0  0  0
   12.5238  -24.1557   20.0249 O   0  0  0  0  0  0  0  0  0  0  0  0
    8.1490  -21.4014   22.2085 N   0  0  0  0  0  0  0  0  0  0  0  0
    7.8131  -20.8278   23.5263 C   0  0  1  0  0  0  0  0  0  0  0  0
    6.4860  -21.3657   23.9758 C   0  0  0  0  0  0  0  0  0  0  0  0
    5.4403  -20.9339   23.0020 C   0  0  0  0  0  0  0  0  0  0  0  0
    4.0533  -21.4636   23.3042 C   0  0  0  0  0  0  0  0  0  0  0  0
    3.1253  -21.1100   22.1826 C   0  0  0  0  0  0  0  0  0  0  0  0
    1.7870  -21.6539   22.4489 N   0  0  0  0  0  0  0  0  0  0  0  0
    8.9121  -21.0505   24.4620 C   0  0  0  0  0  0  0  0  0  0  0  0
    9.3432  -22.2506   24.6211 O   0  0  0  0  0  0  0  0  0  0  0  0
    9.5915  -20.0821   25.2353 N   0  0  0  0  0  0  0  0  0  0  0  0
   10.7200  -20.4771   26.1318 C   0  0  1  0  0  0  0  0  0  0  0  0
   11.6709  -19.3257   26.0617 C   0  0  0  0  0  0  0  0  0  0  0  0
   12.4436  -19.2965   24.8206 C   0  0  0  0  0  0  0  0  0  0  0  0
   12.3828  -20.2632   23.8061 C   0  0  0  0  0  0  0  0  0  0  0  0
   13.2242  -19.8928   22.8459 N   0  0  0  0  0  0  0  0  0  0  0  0
   13.8340  -18.7317   23.1792 C   0  0  0  0  0  0  0  0  0  0  0  0
   13.3375  -18.4108   24.3680 N   0  0  0  0  0  0  0  0  0  0  0  0
   10.1775  -20.7140   27.4769 C   0  0  0  0  0  0  0  0  0  0  0  0
   10.8924  -21.1794   28.3756 O   0  0  0  0  0  0  0  0  0  0  0  0
    8.8303  -20.4050   27.7378 O   0  0  0  0  0  0  0  0  0  0  0  0
  2  1  1  6
  3  2  1  0
  4  3  1  0
  5  4  1  0
  6  5  2  0
  7  2  1  0
  7  8  2  0
  9  5  1  0
 10  7  1  0
 11 10  1  0
 11 12  1  1
 13 12  1  0
 13 14  1  0
 14 15  1  0
 16 15  1  0
 17 11  1  0
 18 17  2  0
 19 17  1  0
 20 27  1  0
 20 19  1  0
 21 22  1  0
 20 21  1  1
 22 23  2  0
 23 24  1  0
 25 24  1  0
 26 22  1  0
 26 25  2  0
 27 29  1  0
 28 27  2  0
M  END
$$$$
