EKH.pdb
     RDKit          3D

 29 29  0  0  1  0  0  0  0  0999 V2000
   10.5567  -19.2363   19.7441 N   0  0  0  0  0  0  0  0  0  0  0  0
   11.5582  -18.2717   20.1731 C   0  0  1  0  0  0  0  0  0  0  0  0
   12.1625  -17.6635   18.9658 C   0  0  0  0  0  0  0  0  0  0  0  0
   13.4971  -18.2887   18.6829 C   0  0  0  0  0  0  0  0  0  0  0  0
   14.1901  -17.7868   17.4988 C   0  0  0  0  0  0  0  0  0  0  0  0
   14.1509  -18.3561   16.3993 O   0  0  0  0  0  0  0  0  0  0  0  0
   10.9207  -17.2662   21.0759 C   0  0  0  0  0  0  0  0  0  0  0  0
   11.5596  -16.2672   21.4917 O   0  0  0  0  0  0  0  0  0  0  0  0
   14.9554  -16.6016   17.5520 O   0  0  0  0  0  0  0  0  0  0  0  0
    9.5912  -17.4409   21.4638 N   0  0  0  0  0  0  0  0  0  0  0  0
    8.8737  -16.5556   22.4018 C   0  0  1  0  0  0  0  0  0  0  0  0
    7.3960  -16.6886   22.1749 C   0  0  0  0  0  0  0  0  0  0  0  0
    7.0716  -18.1310   21.9694 C   0  0  0  0  0  0  0  0  0  0  0  0
    5.6310  -18.3946   21.5809 C   0  0  0  0  0  0  0  0  0  0  0  0
    5.4400  -19.8580   21.3235 C   0  0  0  0  0  0  0  0  0  0  0  0
    4.0585  -20.1155   20.8957 N   0  0  0  0  0  0  0  0  0  0  0  0
    9.3088  -16.8212   23.7703 C   0  0  0  0  0  0  0  0  0  0  0  0
    8.9474  -17.9245   24.3213 O   0  0  0  0  0  0  0  0  0  0  0  0
   10.1106  -15.9971   24.5921 N   0  0  0  0  0  0  0  0  0  0  0  0
    9.4863  -15.0848   25.5976 C   0  0  1  0  0  0  0  0  0  0  0  0
    8.3006  -14.5096   24.8920 C   0  0  0  0  0  0  0  0  0  0  0  0
    7.5306  -13.5873   25.7254 C   0  0  0  0  0  0  0  0  0  0  0  0
    7.8422  -13.2385   27.0478 C   0  0  0  0  0  0  0  0  0  0  0  0
    6.9157  -12.3827   27.4676 N   0  0  0  0  0  0  0  0  0  0  0  0
    6.0118  -12.1524   26.4873 C   0  0  0  0  0  0  0  0  0  0  0  0
    6.4181  -12.8931   25.4632 N   0  0  0  0  0  0  0  0  0  0  0  0
    9.1395  -15.8779   26.7853 C   0  0  0  0  0  0  0  0  0  0  0  0
    8.4082  -16.8737   26.6909 O   0  0  0  0  0  0  0  0  0  0  0  0
    9.6490  -15.4947   28.0392 O   0  0  0  0  0  0  0  0  0  0  0  0
  2  1  1  6
  3  2  1  0
  4  3  1  0
  5  4  1  0
  6  5  2  0
  7  2  1  0
  7  8  2  0
  9  5  1  0
 10  7  1  0
 11 10  1  0
 11 12  1  1
 13 12  1  0
 13 14  1  0
 14 15  1  0
 16 15  1  0
 17 11  1  0
 18 17  2  0
 19 17  1  0
 20 27  1  0
 20 19  1  0
 21 22  1  0
 20 21  1  6
 22 23  2  0
 23 24  1  0
 25 24  1  0
 26 22  1  0
 26 25  2  0
 27 29  1  0
 28 27  2  0
M  END
$$$$
