EKH.pdb
     RDKit          3D

 29 29  0  0  1  0  0  0  0  0999 V2000
   11.3275  -18.4241   19.0266 N   0  0  0  0  0  0  0  0  0  0  0  0
   12.5606  -17.8547   19.5488 C   0  0  1  0  0  0  0  0  0  0  0  0
   13.2835  -17.2098   18.4290 C   0  0  0  0  0  0  0  0  0  0  0  0
   12.9485  -17.8914   17.1346 C   0  0  0  0  0  0  0  0  0  0  0  0
   13.6485  -17.3859   15.9562 C   0  0  0  0  0  0  0  0  0  0  0  0
   14.8154  -16.9713   15.9880 O   0  0  0  0  0  0  0  0  0  0  0  0
   12.2361  -16.9062   20.6568 C   0  0  0  0  0  0  0  0  0  0  0  0
   13.1266  -16.1957   21.1871 O   0  0  0  0  0  0  0  0  0  0  0  0
   13.0142  -17.3448   14.6957 O   0  0  0  0  0  0  0  0  0  0  0  0
   10.9195  -16.8085   21.1102 N   0  0  0  0  0  0  0  0  0  0  0  0
   10.4814  -15.9332   22.2148 C   0  0  1  0  0  0  0  0  0  0  0  0
    9.1084  -15.4069   21.9138 C   0  0  0  0  0  0  0  0  0  0  0  0
    9.1665  -14.6138   20.6506 C   0  0  0  0  0  0  0  0  0  0  0  0
    7.8395  -14.0139   20.2321 C   0  0  0  0  0  0  0  0  0  0  0  0
    8.0229  -13.2146   18.9785 C   0  0  0  0  0  0  0  0  0  0  0  0
    6.7507  -12.5905   18.5915 N   0  0  0  0  0  0  0  0  0  0  0  0
   10.6005  -16.6389   23.4879 C   0  0  0  0  0  0  0  0  0  0  0  0
    9.7004  -17.5044   23.7912 O   0  0  0  0  0  0  0  0  0  0  0  0
   11.6174  -16.4940   24.4585 N   0  0  0  0  0  0  0  0  0  0  0  0
   11.2738  -16.2431   25.8911 C   0  0  1  0  0  0  0  0  0  0  0  0
   10.2236  -15.1805   25.8409 C   0  0  0  0  0  0  0  0  0  0  0  0
    9.7736  -14.7576   27.1663 C   0  0  0  0  0  0  0  0  0  0  0  0
   10.1512  -13.5691   27.8084 C   0  0  0  0  0  0  0  0  0  0  0  0
    9.5414  -13.5380   28.9892 N   0  0  0  0  0  0  0  0  0  0  0  0
    8.7826  -14.6462   29.1542 C   0  0  0  0  0  0  0  0  0  0  0  0
    8.9511  -15.3480   28.0399 N   0  0  0  0  0  0  0  0  0  0  0  0
   10.8083  -17.5063   26.4804 C   0  0  0  0  0  0  0  0  0  0  0  0
   10.7976  -17.6665   27.7091 O   0  0  0  0  0  0  0  0  0  0  0  0
   10.3710  -18.5395   25.6319 O   0  0  0  0  0  0  0  0  0  0  0  0
  2  1  1  6
  3  2  1  0
  4  3  1  0
  5  4  1  0
  6  5  2  0
  7  2  1  0
  7  8  2  0
  9  5  1  0
 10  7  1  0
 11 10  1  0
 11 12  1  6
 13 12  1  0
 13 14  1  0
 14 15  1  0
 16 15  1  0
 17 11  1  0
 18 17  2  0
 19 17  1  0
 20 27  1  0
 20 19  1  0
 21 22  1  0
 20 21  1  6
 22 23  2  0
 23 24  1  0
 25 24  1  0
 26 22  1  0
 26 25  2  0
 27 29  1  0
 28 27  2  0
M  END
$$$$
