EKH.pdb
     RDKit          3D

 29 29  0  0  1  0  0  0  0  0999 V2000
   11.1728  -18.5060   17.1469 N   0  0  0  0  0  0  0  0  0  0  0  0
   10.1913  -18.6961   18.2043 C   0  0  1  0  0  0  0  0  0  0  0  0
   10.1771  -20.1308   18.5703 C   0  0  0  0  0  0  0  0  0  0  0  0
    9.8848  -20.9714   17.3620 C   0  0  0  0  0  0  0  0  0  0  0  0
    9.3546  -22.3050   17.6349 C   0  0  0  0  0  0  0  0  0  0  0  0
    9.5516  -22.9071   18.6994 O   0  0  0  0  0  0  0  0  0  0  0  0
   10.5260  -17.8039   19.3550 C   0  0  0  0  0  0  0  0  0  0  0  0
   11.7189  -17.5337   19.6437 O   0  0  0  0  0  0  0  0  0  0  0  0
    8.5743  -22.9874   16.6764 O   0  0  0  0  0  0  0  0  0  0  0  0
    9.4942  -17.2612   20.1227 N   0  0  0  0  0  0  0  0  0  0  0  0
    9.6954  -16.3304   21.2503 C   0  0  1  0  0  0  0  0  0  0  0  0
    8.5742  -15.3329   21.2740 C   0  0  0  0  0  0  0  0  0  0  0  0
    8.6831  -14.4621   20.0666 C   0  0  0  0  0  0  0  0  0  0  0  0
    7.5582  -13.4573   19.9218 C   0  0  0  0  0  0  0  0  0  0  0  0
    7.6710  -12.7647   18.5982 C   0  0  0  0  0  0  0  0  0  0  0  0
    6.5254  -11.8660   18.4037 N   0  0  0  0  0  0  0  0  0  0  0  0
    9.8732  -17.0804   22.4908 C   0  0  0  0  0  0  0  0  0  0  0  0
    9.0323  -18.0127   22.7649 O   0  0  0  0  0  0  0  0  0  0  0  0
   10.8905  -16.9133   23.4574 N   0  0  0  0  0  0  0  0  0  0  0  0
   10.9799  -17.8276   24.6361 C   0  0  1  0  0  0  0  0  0  0  0  0
   12.4205  -17.7829   25.0328 C   0  0  0  0  0  0  0  0  0  0  0  0
   13.2765  -18.5978   24.1719 C   0  0  0  0  0  0  0  0  0  0  0  0
   12.8307  -19.3916   23.1048 C   0  0  0  0  0  0  0  0  0  0  0  0
   13.8955  -19.9775   22.5664 N   0  0  0  0  0  0  0  0  0  0  0  0
   15.0176  -19.6083   23.2264 C   0  0  0  0  0  0  0  0  0  0  0  0
   14.6010  -18.7826   24.1789 N   0  0  0  0  0  0  0  0  0  0  0  0
   10.0658  -17.3305   25.6740 C   0  0  0  0  0  0  0  0  0  0  0  0
    9.5037  -16.2332   25.5508 O   0  0  0  0  0  0  0  0  0  0  0  0
    9.8320  -18.1170   26.8166 O   0  0  0  0  0  0  0  0  0  0  0  0
  2  1  1  6
  3  2  1  0
  4  3  1  0
  5  4  1  0
  6  5  2  0
  7  2  1  0
  7  8  2  0
  9  5  1  0
 10  7  1  0
 11 10  1  0
 11 12  1  1
 13 12  1  0
 13 14  1  0
 14 15  1  0
 16 15  1  0
 17 11  1  0
 18 17  2  0
 19 17  1  0
 20 27  1  0
 20 19  1  0
 21 22  1  0
 20 21  1  1
 22 23  2  0
 23 24  1  0
 25 24  1  0
 26 22  1  0
 26 25  2  0
 27 29  1  0
 28 27  2  0
M  END
$$$$
