EKH.pdb
     RDKit          3D

 29 29  0  0  1  0  0  0  0  0999 V2000
    8.4723  -13.5123   18.3937 N   0  0  0  0  0  0  0  0  0  0  0  0
    9.2822  -14.3706   19.2452 C   0  0  1  0  0  0  0  0  0  0  0  0
   10.4443  -13.5864   19.7217 C   0  0  0  0  0  0  0  0  0  0  0  0
   11.7218  -14.2019   19.2305 C   0  0  0  0  0  0  0  0  0  0  0  0
   12.9499  -13.5662   19.7015 C   0  0  0  0  0  0  0  0  0  0  0  0
   13.1854  -13.3528   20.8988 O   0  0  0  0  0  0  0  0  0  0  0  0
    8.4384  -14.8987   20.3595 C   0  0  0  0  0  0  0  0  0  0  0  0
    7.6529  -14.1493   20.9924 O   0  0  0  0  0  0  0  0  0  0  0  0
   13.9502  -13.1552   18.7940 O   0  0  0  0  0  0  0  0  0  0  0  0
    8.5252  -16.2489   20.7027 N   0  0  0  0  0  0  0  0  0  0  0  0
    7.8214  -16.8654   21.8442 C   0  0  1  0  0  0  0  0  0  0  0  0
    7.7043  -18.3437   21.6128 C   0  0  0  0  0  0  0  0  0  0  0  0
    6.9857  -18.9536   22.7703 C   0  0  0  0  0  0  0  0  0  0  0  0
    6.6386  -20.4168   22.5850 C   0  0  0  0  0  0  0  0  0  0  0  0
    5.8565  -20.9010   23.7675 C   0  0  0  0  0  0  0  0  0  0  0  0
    5.5348  -22.3251   23.6064 N   0  0  0  0  0  0  0  0  0  0  0  0
    8.4766  -16.4920   23.0949 C   0  0  0  0  0  0  0  0  0  0  0  0
    9.7586  -16.5565   23.1540 O   0  0  0  0  0  0  0  0  0  0  0  0
    7.8620  -16.0453   24.2866 N   0  0  0  0  0  0  0  0  0  0  0  0
    8.6500  -15.9201   25.5502 C   0  0  1  0  0  0  0  0  0  0  0  0
    7.8567  -14.9718   26.3905 C   0  0  0  0  0  0  0  0  0  0  0  0
    8.0097  -13.5771   25.9788 C   0  0  0  0  0  0  0  0  0  0  0  0
    8.9394  -13.1075   25.0394 C   0  0  0  0  0  0  0  0  0  0  0  0
    8.7753  -11.7927   24.9328 N   0  0  0  0  0  0  0  0  0  0  0  0
    7.7847  -11.3758   25.7550 C   0  0  0  0  0  0  0  0  0  0  0  0
    7.3547  -12.4758   26.3615 N   0  0  0  0  0  0  0  0  0  0  0  0
    8.7881  -17.2589   26.1406 C   0  0  0  0  0  0  0  0  0  0  0  0
    8.2108  -18.2346   25.6406 O   0  0  0  0  0  0  0  0  0  0  0  0
    9.5877  -17.4247   27.2859 O   0  0  0  0  0  0  0  0  0  0  0  0
  2  1  1  6
  3  2  1  0
  4  3  1  0
  5  4  1  0
  6  5  2  0
  7  2  1  0
  7  8  2  0
  9  5  1  0
 10  7  1  0
 11 10  1  0
 11 12  1  6
 13 12  1  0
 13 14  1  0
 14 15  1  0
 16 15  1  0
 17 11  1  0
 18 17  2  0
 19 17  1  0
 20 27  1  0
 20 19  1  0
 21 22  1  0
 20 21  1  1
 22 23  2  0
 23 24  1  0
 25 24  1  0
 26 22  1  0
 26 25  2  0
 27 29  1  0
 28 27  2  0
M  END
$$$$
