PVG.pdb
     RDKit          3D

 19 19  0  0  1  0  0  0  0  0999 V2000
   28.7741  -20.9032  -15.2211 N   0  0  0  0  0  0  0  0  0  0  0  0
   28.6481  -20.4479  -16.5650 C   0  0  0  0  0  0  0  0  0  0  0  0
   28.1228  -19.0497  -16.5583 C   0  0  0  0  0  0  0  0  0  0  0  0
   27.6932  -18.7935  -15.1402 C   0  0  0  0  0  0  0  0  0  0  0  0
   28.1184  -19.9986  -14.3438 C   0  0  1  0  0  0  0  0  0  0  0  0
   26.9678  -20.6866  -13.7058 C   0  0  0  0  0  0  0  0  0  0  0  0
   26.5565  -21.7800  -14.1741 O   0  0  0  0  0  0  0  0  0  0  0  0
   26.6410  -20.7195   -9.7274 C   0  0  0  0  0  0  0  0  0  0  0  0
   25.3370  -20.3232  -10.4171 C   0  0  2  0  0  0  0  0  0  0  0  0
   24.2254  -20.9928   -9.6689 C   0  0  0  0  0  0  0  0  0  0  0  0
   25.3355  -20.7957  -11.8583 C   0  0  2  0  0  0  0  0  0  0  0  0
   26.3880  -20.0576  -12.5826 N   0  0  0  0  0  0  0  0  0  0  0  0
   24.0215  -20.4384  -12.4514 C   0  0  0  0  0  0  0  0  0  0  0  0
   23.7898  -19.1858  -12.5912 O   0  0  0  0  0  0  0  0  0  0  0  0
   23.0259  -21.3302  -12.8709 N   0  0  0  0  0  0  0  0  0  0  0  0
   21.8282  -20.7703  -13.5236 C   0  0  0  0  0  0  0  0  0  0  0  0
   20.7092  -20.6896  -12.5588 C   0  0  0  0  0  0  0  0  0  0  0  0
   19.5247  -20.0927  -13.0116 O   0  0  0  0  0  0  0  0  0  0  0  0
   20.7949  -21.1259  -11.3928 O   0  0  0  0  0  0  0  0  0  0  0  0
  1  2  1  0
  3  2  1  0
  4  5  1  0
  4  3  1  0
  5  1  1  0
  6 12  1  0
  5  6  1  6
  7  6  2  0
  9  8  1  1
  9 11  1  0
 10  9  1  0
 11 12  1  6
 11 13  1  0
 13 15  1  0
 14 13  2  0
 15 16  1  0
 17 16  1  0
 17 18  1  0
 19 17  2  0
M  END
$$$$
