PVG.pdb
     RDKit          3D

 19 19  0  0  1  0  0  0  0  0999 V2000
   25.0988  -11.6502  -17.1209 N   0  0  0  0  0  0  0  0  0  0  0  0
   26.5012  -11.5396  -16.8967 C   0  0  0  0  0  0  0  0  0  0  0  0
   26.7362  -11.0999  -15.4888 C   0  0  0  0  0  0  0  0  0  0  0  0
   25.3840  -10.6996  -14.9667 C   0  0  0  0  0  0  0  0  0  0  0  0
   24.3913  -11.0584  -16.0405 C   0  0  1  0  0  0  0  0  0  0  0  0
   23.6460   -9.8742  -16.5369 C   0  0  0  0  0  0  0  0  0  0  0  0
   23.8394   -9.4617  -17.7101 O   0  0  0  0  0  0  0  0  0  0  0  0
   20.2018   -9.7434  -17.0576 C   0  0  0  0  0  0  0  0  0  0  0  0
   20.4603   -8.5881  -16.0924 C   0  0  2  0  0  0  0  0  0  0  0  0
   19.5823   -7.4535  -16.5233 C   0  0  0  0  0  0  0  0  0  0  0  0
   21.9134   -8.1585  -16.1578 C   0  0  2  0  0  0  0  0  0  0  0  0
   22.7410   -9.2651  -15.6405 N   0  0  0  0  0  0  0  0  0  0  0  0
   22.0815   -6.9888  -15.2580 C   0  0  0  0  0  0  0  0  0  0  0  0
   21.7594   -7.1724  -14.0314 O   0  0  0  0  0  0  0  0  0  0  0  0
   22.5568   -5.7212  -15.6183 N   0  0  0  0  0  0  0  0  0  0  0  0
   22.6864   -4.7055  -14.5574 C   0  0  0  0  0  0  0  0  0  0  0  0
   21.4581   -3.8838  -14.4819 C   0  0  0  0  0  0  0  0  0  0  0  0
   21.4324   -2.8713  -13.5129 O   0  0  0  0  0  0  0  0  0  0  0  0
   20.4803   -4.0665  -15.2354 O   0  0  0  0  0  0  0  0  0  0  0  0
  1  2  1  0
  3  2  1  0
  4  5  1  0
  4  3  1  0
  5  1  1  0
  6 12  1  0
  5  6  1  6
  7  6  2  0
  9  8  1  6
  9 11  1  0
 10  9  1  0
 11 12  1  1
 11 13  1  0
 13 15  1  0
 14 13  2  0
 15 16  1  0
 17 16  1  0
 17 18  1  0
 19 17  2  0
M  END
$$$$
