PVG.pdb
     RDKit          3D

 19 19  0  0  1  0  0  0  0  0999 V2000
   18.5884  -12.4685  -16.7967 N   0  0  0  0  0  0  0  0  0  0  0  0
   17.2058  -12.3481  -17.1177 C   0  0  0  0  0  0  0  0  0  0  0  0
   17.0113  -11.1538  -17.9934 C   0  0  0  0  0  0  0  0  0  0  0  0
   18.3221  -10.4178  -17.9582 C   0  0  0  0  0  0  0  0  0  0  0  0
   19.2759  -11.2865  -17.1818 C   0  0  1  0  0  0  0  0  0  0  0  0
   19.7950  -10.6076  -15.9678 C   0  0  0  0  0  0  0  0  0  0  0  0
   19.2327  -10.7975  -14.8578 O   0  0  0  0  0  0  0  0  0  0  0  0
   23.7086   -9.3677  -16.0504 C   0  0  0  0  0  0  0  0  0  0  0  0
   22.9159   -9.6365  -14.7727 C   0  0  2  0  0  0  0  0  0  0  0  0
   22.9184  -11.1193  -14.5603 C   0  0  0  0  0  0  0  0  0  0  0  0
   21.4880   -9.1477  -14.9228 C   0  0  2  0  0  0  0  0  0  0  0  0
   20.9175   -9.7676  -16.1342 N   0  0  0  0  0  0  0  0  0  0  0  0
   21.5309   -7.6771  -15.1262 C   0  0  0  0  0  0  0  0  0  0  0  0
   21.9763   -7.2792  -16.2600 O   0  0  0  0  0  0  0  0  0  0  0  0
   21.1318   -6.6964  -14.2088 N   0  0  0  0  0  0  0  0  0  0  0  0
   21.2745   -5.2830  -14.6035 C   0  0  0  0  0  0  0  0  0  0  0  0
   22.0850   -4.5514  -13.6048 C   0  0  0  0  0  0  0  0  0  0  0  0
   22.2772   -3.1809  -13.8268 O   0  0  0  0  0  0  0  0  0  0  0  0
   22.5828   -5.1086  -12.6053 O   0  0  0  0  0  0  0  0  0  0  0  0
  1  2  1  0
  3  2  1  0
  4  5  1  0
  4  3  1  0
  5  1  1  0
  6 12  1  0
  5  6  1  1
  7  6  2  0
  9  8  1  6
  9 11  1  0
 10  9  1  0
 11 12  1  6
 11 13  1  0
 13 15  1  0
 14 13  2  0
 15 16  1  0
 17 16  1  0
 17 18  1  0
 19 17  2  0
M  END
$$$$
