PVG.pdb
     RDKit          3D

 19 19  0  0  1  0  0  0  0  0999 V2000
   22.8961  -17.7223  -16.3274 N   0  0  0  0  0  0  0  0  0  0  0  0
   23.2839  -16.6952  -17.2350 C   0  0  0  0  0  0  0  0  0  0  0  0
   23.4101  -17.2776  -18.6046 C   0  0  0  0  0  0  0  0  0  0  0  0
   23.3322  -18.7669  -18.4117 C   0  0  0  0  0  0  0  0  0  0  0  0
   23.0174  -18.9902  -16.9563 C   0  0  1  0  0  0  0  0  0  0  0  0
   24.0708  -19.7771  -16.2666 C   0  0  0  0  0  0  0  0  0  0  0  0
   24.3304  -20.9464  -16.6535 O   0  0  0  0  0  0  0  0  0  0  0  0
   27.6842  -19.2900  -15.7618 C   0  0  0  0  0  0  0  0  0  0  0  0
   27.0194  -19.2375  -14.3877 C   0  0  2  0  0  0  0  0  0  0  0  0
   27.9458  -19.9183  -13.4274 C   0  0  0  0  0  0  0  0  0  0  0  0
   25.6901  -19.9672  -14.4144 C   0  0  2  0  0  0  0  0  0  0  0  0
   24.7362  -19.1515  -15.1900 N   0  0  0  0  0  0  0  0  0  0  0  0
   25.1963  -20.0615  -13.0168 C   0  0  0  0  0  0  0  0  0  0  0  0
   24.8153  -18.9620  -12.4799 O   0  0  0  0  0  0  0  0  0  0  0  0
   25.1048  -21.2247  -12.2414 N   0  0  0  0  0  0  0  0  0  0  0  0
   24.7029  -21.0834  -10.8298 C   0  0  0  0  0  0  0  0  0  0  0  0
   25.8984  -21.0307   -9.9595 C   0  0  0  0  0  0  0  0  0  0  0  0
   25.6755  -20.8418   -8.5886 O   0  0  0  0  0  0  0  0  0  0  0  0
   27.0586  -21.1467  -10.4040 O   0  0  0  0  0  0  0  0  0  0  0  0
  1  2  1  0
  3  2  1  0
  4  5  1  0
  4  3  1  0
  5  1  1  0
  6 12  1  0
  5  6  1  1
  7  6  2  0
  9  8  1  6
  9 11  1  0
 10  9  1  0
 11 12  1  6
 11 13  1  0
 13 15  1  0
 14 13  2  0
 15 16  1  0
 17 16  1  0
 17 18  1  0
 19 17  2  0
M  END
$$$$
