PVG.pdb
     RDKit          3D

 19 19  0  0  1  0  0  0  0  0999 V2000
   26.4936  -20.7722   -9.5784 N   0  0  0  0  0  0  0  0  0  0  0  0
   26.1770  -19.9349   -8.4704 C   0  0  0  0  0  0  0  0  0  0  0  0
   24.7050  -19.9899   -8.2232 C   0  0  0  0  0  0  0  0  0  0  0  0
   24.1284  -20.7024   -9.4153 C   0  0  0  0  0  0  0  0  0  0  0  0
   25.2998  -21.1642  -10.2411 C   0  0  1  0  0  0  0  0  0  0  0  0
   25.2886  -20.5846  -11.6079 C   0  0  0  0  0  0  0  0  0  0  0  0
   25.9724  -19.5574  -11.8559 O   0  0  0  0  0  0  0  0  0  0  0  0
   26.2246  -22.2357  -14.6927 C   0  0  0  0  0  0  0  0  0  0  0  0
   24.7977  -21.7414  -14.9221 C   0  0  2  0  0  0  0  0  0  0  0  0
   24.7453  -21.1867  -16.3126 C   0  0  0  0  0  0  0  0  0  0  0  0
   24.4487  -20.6510  -13.9273 C   0  0  2  0  0  0  0  0  0  0  0  0
   24.4913  -21.2365  -12.5736 N   0  0  0  0  0  0  0  0  0  0  0  0
   23.0567  -20.2133  -14.2038 C   0  0  0  0  0  0  0  0  0  0  0  0
   22.1295  -21.0036  -13.8063 O   0  0  0  0  0  0  0  0  0  0  0  0
   22.6663  -19.0312  -14.8463 N   0  0  0  0  0  0  0  0  0  0  0  0
   21.2427  -18.6519  -14.7885 C   0  0  0  0  0  0  0  0  0  0  0  0
   20.5149  -19.2146  -15.9475 C   0  0  0  0  0  0  0  0  0  0  0  0
   21.2759  -19.9152  -16.8934 O   0  0  0  0  0  0  0  0  0  0  0  0
   19.2828  -19.0833  -16.0952 O   0  0  0  0  0  0  0  0  0  0  0  0
  1  2  1  0
  3  2  1  0
  4  5  1  0
  4  3  1  0
  5  1  1  0
  6 12  1  0
  5  6  1  6
  7  6  2  0
  9  8  1  1
  9 11  1  0
 10  9  1  0
 11 12  1  1
 11 13  1  0
 13 15  1  0
 14 13  2  0
 15 16  1  0
 17 16  1  0
 17 18  1  0
 19 17  2  0
M  END
$$$$
