PVG.pdb
     RDKit          3D

 19 19  0  0  1  0  0  0  0  0999 V2000
   28.7617  -20.7208  -15.4105 N   0  0  0  0  0  0  0  0  0  0  0  0
   28.5652  -20.2250  -16.7313 C   0  0  0  0  0  0  0  0  0  0  0  0
   28.0045  -18.8428  -16.6543 C   0  0  0  0  0  0  0  0  0  0  0  0
   27.6308  -18.6455  -15.2111 C   0  0  0  0  0  0  0  0  0  0  0  0
   28.1217  -19.8641  -14.4754 C   0  0  1  0  0  0  0  0  0  0  0  0
   27.0184  -20.6042  -13.8125 C   0  0  0  0  0  0  0  0  0  0  0  0
   26.7198  -21.7623  -14.2045 O   0  0  0  0  0  0  0  0  0  0  0  0
   26.6220  -20.8123   -9.8974 C   0  0  0  0  0  0  0  0  0  0  0  0
   25.3575  -20.2844  -10.5723 C   0  0  2  0  0  0  0  0  0  0  0  0
   24.1918  -20.8802   -9.8442 C   0  0  0  0  0  0  0  0  0  0  0  0
   25.3175  -20.7089  -12.0278 C   0  0  2  0  0  0  0  0  0  0  0  0
   26.3522  -19.9483  -12.7545 N   0  0  0  0  0  0  0  0  0  0  0  0
   23.9892  -20.3307  -12.5743 C   0  0  0  0  0  0  0  0  0  0  0  0
   23.7265  -19.0766  -12.5956 O   0  0  0  0  0  0  0  0  0  0  0  0
   23.0105  -21.2041  -13.0662 N   0  0  0  0  0  0  0  0  0  0  0  0
   21.7691  -20.6176  -13.6035 C   0  0  0  0  0  0  0  0  0  0  0  0
   20.6495  -20.8358  -12.6611 C   0  0  0  0  0  0  0  0  0  0  0  0
   19.4111  -20.2792  -13.0096 O   0  0  0  0  0  0  0  0  0  0  0  0
   20.7797  -21.4813  -11.6011 O   0  0  0  0  0  0  0  0  0  0  0  0
  1  2  1  0
  3  2  1  0
  4  5  1  0
  4  3  1  0
  5  1  1  0
  6 12  1  0
  5  6  1  6
  7  6  2  0
  9  8  1  1
  9 11  1  0
 10  9  1  0
 11 12  1  6
 11 13  1  0
 13 15  1  0
 14 13  2  0
 15 16  1  0
 17 16  1  0
 17 18  1  0
 19 17  2  0
M  END
$$$$
