PVG.pdb
     RDKit          3D

 19 19  0  0  1  0  0  0  0  0999 V2000
   19.1647  -14.1331  -17.2485 N   0  0  0  0  0  0  0  0  0  0  0  0
   17.9038  -14.3114  -17.8869 C   0  0  0  0  0  0  0  0  0  0  0  0
   17.7628  -13.3006  -18.9775 C   0  0  0  0  0  0  0  0  0  0  0  0
   18.9018  -12.3393  -18.7779 C   0  0  0  0  0  0  0  0  0  0  0  0
   19.7471  -12.9075  -17.6689 C   0  0  1  0  0  0  0  0  0  0  0  0
   19.8419  -11.9892  -16.5061 C   0  0  0  0  0  0  0  0  0  0  0  0
   19.1506  -12.2105  -15.4779 O   0  0  0  0  0  0  0  0  0  0  0  0
   22.9527  -11.1114  -14.6853 C   0  0  0  0  0  0  0  0  0  0  0  0
   22.3318   -9.8054  -15.1773 C   0  0  2  0  0  0  0  0  0  0  0  0
   22.5058   -8.7986  -14.0819 C   0  0  0  0  0  0  0  0  0  0  0  0
   20.8543   -9.9957  -15.4618 C   0  0  2  0  0  0  0  0  0  0  0  0
   20.7247  -10.8937  -16.6253 N   0  0  0  0  0  0  0  0  0  0  0  0
   20.2886   -8.6720  -15.8276 C   0  0  0  0  0  0  0  0  0  0  0  0
   20.7293   -8.1530  -16.9133 O   0  0  0  0  0  0  0  0  0  0  0  0
   19.3280   -7.9483  -15.1091 N   0  0  0  0  0  0  0  0  0  0  0  0
   18.8761   -6.6598  -15.6653 C   0  0  0  0  0  0  0  0  0  0  0  0
   19.6715   -5.5491  -15.0969 C   0  0  0  0  0  0  0  0  0  0  0  0
   19.3738   -4.2582  -15.5548 O   0  0  0  0  0  0  0  0  0  0  0  0
   20.5692   -5.7308  -14.2494 O   0  0  0  0  0  0  0  0  0  0  0  0
  1  2  1  0
  3  2  1  0
  4  5  1  0
  4  3  1  0
  5  1  1  0
  6 12  1  0
  5  6  1  1
  7  6  2  0
  9  8  1  1
  9 11  1  0
 10  9  1  0
 11 12  1  6
 11 13  1  0
 13 15  1  0
 14 13  2  0
 15 16  1  0
 17 16  1  0
 17 18  1  0
 19 17  2  0
M  END
$$$$
