PVG.pdb
     RDKit          3D

 19 19  0  0  1  0  0  0  0  0999 V2000
   23.0571  -12.1988  -19.3645 N   0  0  0  0  0  0  0  0  0  0  0  0
   23.1856  -11.9479  -20.7608 C   0  0  0  0  0  0  0  0  0  0  0  0
   24.1078  -10.7909  -20.9650 C   0  0  0  0  0  0  0  0  0  0  0  0
   24.3126  -10.2000  -19.5975 C   0  0  0  0  0  0  0  0  0  0  0  0
   23.6198  -11.1216  -18.6290 C   0  0  1  0  0  0  0  0  0  0  0  0
   22.5439  -10.4354  -17.8701 C   0  0  0  0  0  0  0  0  0  0  0  0
   21.3483  -10.5403  -18.2492 O   0  0  0  0  0  0  0  0  0  0  0  0
   23.0940  -10.0018  -13.9813 C   0  0  0  0  0  0  0  0  0  0  0  0
   21.7294   -9.8223  -14.6436 C   0  0  2  0  0  0  0  0  0  0  0  0
   21.1982  -11.1935  -14.9292 C   0  0  0  0  0  0  0  0  0  0  0  0
   21.8684   -9.0512  -15.9422 C   0  0  2  0  0  0  0  0  0  0  0  0
   22.9354   -9.6864  -16.7391 N   0  0  0  0  0  0  0  0  0  0  0  0
   22.2960   -7.6693  -15.6056 C   0  0  0  0  0  0  0  0  0  0  0  0
   23.5562   -7.4426  -15.6572 O   0  0  0  0  0  0  0  0  0  0  0  0
   21.4621   -6.6027  -15.2456 N   0  0  0  0  0  0  0  0  0  0  0  0
   22.0920   -5.3018  -14.9543 C   0  0  0  0  0  0  0  0  0  0  0  0
   21.0560   -4.2744  -14.7082 C   0  0  0  0  0  0  0  0  0  0  0  0
   21.5006   -3.0192  -14.2708 O   0  0  0  0  0  0  0  0  0  0  0  0
   19.8391   -4.4939  -14.8758 O   0  0  0  0  0  0  0  0  0  0  0  0
  1  2  1  0
  3  2  1  0
  4  5  1  0
  4  3  1  0
  5  1  1  0
  6 12  1  0
  5  6  1  6
  7  6  2  0
  9  8  1  6
  9 11  1  0
 10  9  1  0
 11 12  1  6
 11 13  1  0
 13 15  1  0
 14 13  2  0
 15 16  1  0
 17 16  1  0
 17 18  1  0
 19 17  2  0
M  END
$$$$
