PVG.pdb
     RDKit          3D

 19 19  0  0  1  0  0  0  0  0999 V2000
   27.5701  -20.1866  -15.7418 N   0  0  0  0  0  0  0  0  0  0  0  0
   28.9915  -20.1867  -15.6480 C   0  0  0  0  0  0  0  0  0  0  0  0
   29.5067  -21.5266  -16.0606 C   0  0  0  0  0  0  0  0  0  0  0  0
   28.2921  -22.4084  -16.1519 C   0  0  0  0  0  0  0  0  0  0  0  0
   27.1009  -21.5139  -15.9317 C   0  0  1  0  0  0  0  0  0  0  0  0
   26.3014  -21.9219  -14.7491 C   0  0  0  0  0  0  0  0  0  0  0  0
   25.8464  -23.0932  -14.6771 O   0  0  0  0  0  0  0  0  0  0  0  0
   25.1102  -21.1919  -10.1062 C   0  0  0  0  0  0  0  0  0  0  0  0
   25.9927  -20.9536  -11.3299 C   0  0  2  0  0  0  0  0  0  0  0  0
   26.3263  -19.4934  -11.3508 C   0  0  0  0  0  0  0  0  0  0  0  0
   25.2489  -21.3225  -12.5991 C   0  0  2  0  0  0  0  0  0  0  0  0
   26.0931  -20.9468  -13.7494 N   0  0  0  0  0  0  0  0  0  0  0  0
   24.0051  -20.5123  -12.6477 C   0  0  0  0  0  0  0  0  0  0  0  0
   24.1592  -19.2583  -12.8617 O   0  0  0  0  0  0  0  0  0  0  0  0
   22.6957  -20.9842  -12.4878 N   0  0  0  0  0  0  0  0  0  0  0  0
   21.5947  -20.0072  -12.5729 C   0  0  0  0  0  0  0  0  0  0  0  0
   20.2967  -20.6757  -12.3326 C   0  0  0  0  0  0  0  0  0  0  0  0
   19.1629  -19.8538  -12.2728 O   0  0  0  0  0  0  0  0  0  0  0  0
   20.1940  -21.9108  -12.1872 O   0  0  0  0  0  0  0  0  0  0  0  0
  1  2  1  0
  3  2  1  0
  4  5  1  0
  4  3  1  0
  5  1  1  0
  6 12  1  0
  5  6  1  1
  7  6  2  0
  9  8  1  1
  9 11  1  0
 10  9  1  0
 11 12  1  6
 11 13  1  0
 13 15  1  0
 14 13  2  0
 15 16  1  0
 17 16  1  0
 17 18  1  0
 19 17  2  0
M  END
$$$$
