AKQ.pdb
     RDKit          3D

 24 23  0  0  1  0  0  0  0  0999 V2000
   16.0375  -12.9492  -17.3946 C   0  0  0  0  0  0  0  0  0  0  0  0
   16.4613  -12.2195  -16.1436 C   0  0  2  0  0  0  0  0  0  0  0  0
   15.7997  -12.8237  -15.0050 N   0  0  0  0  0  0  0  0  0  0  0  0
   16.1691  -10.7878  -16.1799 C   0  0  0  0  0  0  0  0  0  0  0  0
   16.6385   -9.9785  -17.0193 O   0  0  0  0  0  0  0  0  0  0  0  0
   15.2896  -10.2545  -15.1990 N   0  0  0  0  0  0  0  0  0  0  0  0
   14.9505   -8.8617  -15.1105 C   0  0  1  0  0  0  0  0  0  0  0  0
   13.7072   -8.7566  -14.2375 C   0  0  0  0  0  0  0  0  0  0  0  0
   13.2316   -7.3090  -14.3078 C   0  0  0  0  0  0  0  0  0  0  0  0
   12.0076   -7.1983  -13.4006 C   0  0  0  0  0  0  0  0  0  0  0  0
   11.5766   -5.7523  -13.4158 C   0  0  0  0  0  0  0  0  0  0  0  0
   10.4890   -5.5637  -12.4848 N   0  0  0  0  0  0  0  0  0  0  0  0
   16.0100   -8.0390  -14.5105 C   0  0  0  0  0  0  0  0  0  0  0  0
   16.4946   -8.3998  -13.4099 O   0  0  0  0  0  0  0  0  0  0  0  0
   21.3147   -8.4124  -14.6358 N   0  0  0  0  0  0  0  0  0  0  0  0
   21.3084   -7.0829  -14.1630 C   0  0  0  0  0  0  0  0  0  0  0  0
   22.3749   -6.5918  -13.7274 O   0  0  0  0  0  0  0  0  0  0  0  0
   20.0797   -6.2796  -14.1840 C   0  0  0  0  0  0  0  0  0  0  0  0
   18.8340   -6.9728  -14.6009 C   0  0  0  0  0  0  0  0  0  0  0  0
   17.6275   -6.1265  -14.6029 C   0  0  2  0  0  0  0  0  0  0  0  0
   16.4783   -6.8851  -15.1310 N   0  0  0  0  0  0  0  0  0  0  0  0
   17.6338   -4.8300  -15.2133 C   0  0  0  0  0  0  0  0  0  0  0  0
   17.0512   -4.5116  -16.2911 O   0  0  0  0  0  0  0  0  0  0  0  0
   18.3413   -3.7778  -14.5922 O   0  0  0  0  0  0  0  0  0  0  0  0
  2  1  1  6
  2  4  1  0
  2  3  1  0
  4  5  2  0
  6  7  1  0
  6  4  1  0
  7  8  1  1
  8  9  1  0
 10  9  1  0
 11 10  1  0
 12 11  1  0
 13  7  1  0
 13 14  2  0
 15 16  1  0
 16 17  2  0
 18 19  1  0
 18 16  1  0
 20 19  1  6
 20 21  1  0
 20 22  1  0
 21 13  1  0
 22 24  1  0
 23 22  2  0
M  END
$$$$
