AKQ.pdb
     RDKit          3D

 24 23  0  0  1  0  0  0  0  0999 V2000
   18.3517  -12.0551  -18.3326 C   0  0  0  0  0  0  0  0  0  0  0  0
   19.5648  -12.2209  -19.2144 C   0  0  2  0  0  0  0  0  0  0  0  0
   19.8261  -13.6357  -19.3862 N   0  0  0  0  0  0  0  0  0  0  0  0
   20.7583  -11.5602  -18.6895 C   0  0  0  0  0  0  0  0  0  0  0  0
   21.0187  -11.4075  -17.4695 O   0  0  0  0  0  0  0  0  0  0  0  0
   21.7062  -11.0460  -19.6155 N   0  0  0  0  0  0  0  0  0  0  0  0
   22.9417  -10.4265  -19.2250 C   0  0  1  0  0  0  0  0  0  0  0  0
   23.9543  -10.7103  -20.3263 C   0  0  0  0  0  0  0  0  0  0  0  0
   24.4664  -12.1306  -20.1086 C   0  0  0  0  0  0  0  0  0  0  0  0
   25.4693  -12.4178  -21.2245 C   0  0  0  0  0  0  0  0  0  0  0  0
   25.8917  -13.8590  -21.0779 C   0  0  0  0  0  0  0  0  0  0  0  0
   26.9290  -14.1572  -22.0370 N   0  0  0  0  0  0  0  0  0  0  0  0
   22.8373   -8.9708  -19.0541 C   0  0  0  0  0  0  0  0  0  0  0  0
   22.2622   -8.3045  -19.9495 O   0  0  0  0  0  0  0  0  0  0  0  0
   21.7363   -5.8327  -13.8043 N   0  0  0  0  0  0  0  0  0  0  0  0
   22.1117   -4.8171  -14.7093 C   0  0  0  0  0  0  0  0  0  0  0  0
   22.0202   -3.6218  -14.3474 O   0  0  0  0  0  0  0  0  0  0  0  0
   22.6084   -5.1469  -16.0509 C   0  0  0  0  0  0  0  0  0  0  0  0
   22.6626   -6.5873  -16.4093 C   0  0  0  0  0  0  0  0  0  0  0  0
   23.2261   -6.8715  -17.7409 C   0  0  2  0  0  0  0  0  0  0  0  0
   23.3565   -8.3277  -17.9349 N   0  0  0  0  0  0  0  0  0  0  0  0
   24.4378   -6.2456  -18.1809 C   0  0  0  0  0  0  0  0  0  0  0  0
   25.5902   -6.7695  -18.1779 O   0  0  0  0  0  0  0  0  0  0  0  0
   24.3927   -4.9225  -18.6719 O   0  0  0  0  0  0  0  0  0  0  0  0
  2  1  1  1
  2  4  1  0
  2  3  1  0
  4  5  2  0
  6  7  1  0
  6  4  1  0
  7  8  1  6
  8  9  1  0
 10  9  1  0
 11 10  1  0
 12 11  1  0
 13  7  1  0
 13 14  2  0
 15 16  1  0
 16 17  2  0
 18 19  1  0
 18 16  1  0
 20 19  1  1
 20 21  1  0
 20 22  1  0
 21 13  1  0
 22 24  1  0
 23 22  2  0
M  END
$$$$
