AKQ.pdb
     RDKit          3D

 24 23  0  0  1  0  0  0  0  0999 V2000
   17.5699  -12.9917  -13.1857 C   0  0  0  0  0  0  0  0  0  0  0  0
   16.2015  -12.7725  -12.5885 C   0  0  2  0  0  0  0  0  0  0  0  0
   15.2028  -13.2411  -13.5277 N   0  0  0  0  0  0  0  0  0  0  0  0
   15.9360  -11.3774  -12.2430 C   0  0  0  0  0  0  0  0  0  0  0  0
   15.8358  -10.4373  -13.0711 O   0  0  0  0  0  0  0  0  0  0  0  0
   15.7765  -11.0416  -10.8711 N   0  0  0  0  0  0  0  0  0  0  0  0
   15.3411   -9.7511  -10.4154 C   0  0  1  0  0  0  0  0  0  0  0  0
   14.4544   -9.9799   -9.1987 C   0  0  0  0  0  0  0  0  0  0  0  0
   13.9768   -8.6096   -8.7286 C   0  0  0  0  0  0  0  0  0  0  0  0
   12.4510   -8.6637   -8.6778 C   0  0  0  0  0  0  0  0  0  0  0  0
   11.9720   -7.2776   -8.3223 C   0  0  0  0  0  0  0  0  0  0  0  0
   10.5313   -7.2753   -8.2264 N   0  0  0  0  0  0  0  0  0  0  0  0
   16.4466   -8.8655  -10.0243 C   0  0  0  0  0  0  0  0  0  0  0  0
   17.2570   -9.2708   -9.1551 O   0  0  0  0  0  0  0  0  0  0  0  0
   21.0588   -6.9681  -12.9677 N   0  0  0  0  0  0  0  0  0  0  0  0
   21.1114   -6.0780  -11.8739 C   0  0  0  0  0  0  0  0  0  0  0  0
   22.1324   -5.3693  -11.7206 O   0  0  0  0  0  0  0  0  0  0  0  0
   19.9908   -5.9728  -10.9313 C   0  0  0  0  0  0  0  0  0  0  0  0
   18.8652   -6.9233  -11.1207 C   0  0  0  0  0  0  0  0  0  0  0  0
   17.7230   -6.7166  -10.2129 C   0  0  2  0  0  0  0  0  0  0  0  0
   16.6086   -7.6054  -10.5914 N   0  0  0  0  0  0  0  0  0  0  0  0
   17.1958   -5.4058   -9.9730 C   0  0  0  0  0  0  0  0  0  0  0  0
   16.1941   -4.8892  -10.5493 O   0  0  0  0  0  0  0  0  0  0  0  0
   17.8172   -4.5765   -9.0140 O   0  0  0  0  0  0  0  0  0  0  0  0
  2  1  1  6
  2  4  1  0
  2  3  1  0
  4  5  2  0
  6  7  1  0
  6  4  1  0
  7  8  1  1
  8  9  1  0
 10  9  1  0
 11 10  1  0
 12 11  1  0
 13  7  1  0
 13 14  2  0
 15 16  1  0
 16 17  2  0
 18 19  1  0
 18 16  1  0
 20 19  1  6
 20 21  1  0
 20 22  1  0
 21 13  1  0
 22 24  1  0
 23 22  2  0
M  END
$$$$
