AKQ.pdb
     RDKit          3D

 24 23  0  0  1  0  0  0  0  0999 V2000
   25.6228  -15.2739  -15.3773 C   0  0  0  0  0  0  0  0  0  0  0  0
   26.3275  -16.5769  -15.6649 C   0  0  2  0  0  0  0  0  0  0  0  0
   27.0069  -16.4676  -16.9399 N   0  0  0  0  0  0  0  0  0  0  0  0
   25.4299  -17.7303  -15.6827 C   0  0  0  0  0  0  0  0  0  0  0  0
   24.4469  -17.8655  -16.4541 O   0  0  0  0  0  0  0  0  0  0  0  0
   25.6733  -18.7878  -14.7647 N   0  0  0  0  0  0  0  0  0  0  0  0
   24.8687  -19.9752  -14.6904 C   0  0  1  0  0  0  0  0  0  0  0  0
   25.5643  -20.9298  -13.7293 C   0  0  0  0  0  0  0  0  0  0  0  0
   24.7345  -22.2092  -13.6900 C   0  0  0  0  0  0  0  0  0  0  0  0
   25.2244  -23.0924  -14.8361 C   0  0  0  0  0  0  0  0  0  0  0  0
   24.3315  -24.3083  -14.8687 C   0  0  0  0  0  0  0  0  0  0  0  0
   24.6466  -25.1067  -16.0299 N   0  0  0  0  0  0  0  0  0  0  0  0
   23.5071  -19.7287  -14.1960 C   0  0  0  0  0  0  0  0  0  0  0  0
   23.3695  -19.1675  -13.0813 O   0  0  0  0  0  0  0  0  0  0  0  0
   18.7349  -17.2407  -17.0376 N   0  0  0  0  0  0  0  0  0  0  0  0
   18.1399  -17.7798  -15.8771 C   0  0  0  0  0  0  0  0  0  0  0  0
   16.9504  -17.4875  -15.6169 O   0  0  0  0  0  0  0  0  0  0  0  0
   18.8923  -18.6740  -14.9884 C   0  0  0  0  0  0  0  0  0  0  0  0
   20.3118  -18.9306  -15.3426 C   0  0  0  0  0  0  0  0  0  0  0  0
   21.0158  -19.8577  -14.4389 C   0  0  2  0  0  0  0  0  0  0  0  0
   22.3851  -20.1006  -14.9299 N   0  0  0  0  0  0  0  0  0  0  0  0
   20.4365  -21.1157  -14.0711 C   0  0  0  0  0  0  0  0  0  0  0  0
   19.7275  -21.3378  -13.0462 O   0  0  0  0  0  0  0  0  0  0  0  0
   20.6479  -22.2411  -14.8971 O   0  0  0  0  0  0  0  0  0  0  0  0
  2  1  1  6
  2  4  1  0
  2  3  1  0
  4  5  2  0
  6  7  1  0
  6  4  1  0
  7  8  1  1
  8  9  1  0
 10  9  1  0
 11 10  1  0
 12 11  1  0
 13  7  1  0
 13 14  2  0
 15 16  1  0
 16 17  2  0
 18 19  1  0
 18 16  1  0
 20 19  1  6
 20 21  1  0
 20 22  1  0
 21 13  1  0
 22 24  1  0
 23 22  2  0
M  END
$$$$
