AKQ.pdb
     RDKit          3D

 24 23  0  0  1  0  0  0  0  0999 V2000
   23.6883  -13.1697  -17.9484 C   0  0  0  0  0  0  0  0  0  0  0  0
   23.4224  -12.2951  -16.7478 C   0  0  2  0  0  0  0  0  0  0  0  0
   22.9919  -13.1331  -15.6470 N   0  0  0  0  0  0  0  0  0  0  0  0
   22.4238  -11.2570  -16.9959 C   0  0  0  0  0  0  0  0  0  0  0  0
   22.5344  -10.3414  -17.8498 O   0  0  0  0  0  0  0  0  0  0  0  0
   21.2320  -11.2697  -16.2216 N   0  0  0  0  0  0  0  0  0  0  0  0
   20.1615  -10.3284  -16.3971 C   0  0  1  0  0  0  0  0  0  0  0  0
   18.9086  -10.9568  -15.8022 C   0  0  0  0  0  0  0  0  0  0  0  0
   18.3383  -11.9017  -16.8552 C   0  0  0  0  0  0  0  0  0  0  0  0
   17.0835  -12.5324  -16.2541 C   0  0  0  0  0  0  0  0  0  0  0  0
   16.5337  -13.4885  -17.2839 C   0  0  0  0  0  0  0  0  0  0  0  0
   15.4206  -14.2156  -16.7208 N   0  0  0  0  0  0  0  0  0  0  0  0
   20.3986   -9.0420  -15.7275 C   0  0  0  0  0  0  0  0  0  0  0  0
   20.8024   -9.0536  -14.5386 O   0  0  0  0  0  0  0  0  0  0  0  0
   22.1662   -5.8993  -12.9491 N   0  0  0  0  0  0  0  0  0  0  0  0
   22.4065   -4.7972  -13.7971 C   0  0  0  0  0  0  0  0  0  0  0  0
   22.6911   -3.6911  -13.2838 O   0  0  0  0  0  0  0  0  0  0  0  0
   22.3331   -4.9374  -15.2567 C   0  0  0  0  0  0  0  0  0  0  0  0
   21.9300   -6.2669  -15.7821 C   0  0  0  0  0  0  0  0  0  0  0  0
   20.4821   -6.5369  -15.7332 C   0  0  2  0  0  0  0  0  0  0  0  0
   20.1867   -7.8303  -16.3775 N   0  0  0  0  0  0  0  0  0  0  0  0
   19.5327   -5.5706  -16.2005 C   0  0  0  0  0  0  0  0  0  0  0  0
   18.9830   -5.5578  -17.3408 O   0  0  0  0  0  0  0  0  0  0  0  0
   19.1427   -4.5165  -15.3459 O   0  0  0  0  0  0  0  0  0  0  0  0
  2  1  1  6
  2  4  1  0
  2  3  1  0
  4  5  2  0
  6  7  1  0
  6  4  1  0
  7  8  1  1
  8  9  1  0
 10  9  1  0
 11 10  1  0
 12 11  1  0
 13  7  1  0
 13 14  2  0
 15 16  1  0
 16 17  2  0
 18 19  1  0
 18 16  1  0
 20 19  1  6
 20 21  1  0
 20 22  1  0
 21 13  1  0
 22 24  1  0
 23 22  2  0
M  END
$$$$
