AKQ.pdb
     RDKit          3D

 24 23  0  0  1  0  0  0  0  0999 V2000
   27.5098  -20.2576  -17.2369 C   0  0  0  0  0  0  0  0  0  0  0  0
   27.6547  -21.4016  -16.2637 C   0  0  2  0  0  0  0  0  0  0  0  0
   28.0098  -22.5977  -17.0001 N   0  0  0  0  0  0  0  0  0  0  0  0
   26.4489  -21.6489  -15.4753 C   0  0  0  0  0  0  0  0  0  0  0  0
   25.5097  -22.4112  -15.8165 O   0  0  0  0  0  0  0  0  0  0  0  0
   26.3128  -20.9849  -14.2260 N   0  0  0  0  0  0  0  0  0  0  0  0
   25.1691  -21.1317  -13.3697 C   0  0  1  0  0  0  0  0  0  0  0  0
   25.5937  -20.6949  -11.9741 C   0  0  0  0  0  0  0  0  0  0  0  0
   24.4217  -20.9791  -11.0400 C   0  0  0  0  0  0  0  0  0  0  0  0
   24.8614  -20.5663   -9.6365 C   0  0  0  0  0  0  0  0  0  0  0  0
   23.7066  -20.8560   -8.7094 C   0  0  0  0  0  0  0  0  0  0  0  0
   24.0835  -20.5313   -7.3539 N   0  0  0  0  0  0  0  0  0  0  0  0
   24.0205  -20.3136  -13.7830 C   0  0  0  0  0  0  0  0  0  0  0  0
   24.2092  -19.0942  -14.0152 O   0  0  0  0  0  0  0  0  0  0  0  0
   19.6913  -20.1960  -18.1606 N   0  0  0  0  0  0  0  0  0  0  0  0
   20.8591  -19.4167  -18.0184 C   0  0  0  0  0  0  0  0  0  0  0  0
   21.1654  -18.6156  -18.9309 O   0  0  0  0  0  0  0  0  0  0  0  0
   21.7023  -19.5311  -16.8220 C   0  0  0  0  0  0  0  0  0  0  0  0
   21.2320  -20.4539  -15.7574 C   0  0  0  0  0  0  0  0  0  0  0  0
   21.6017  -20.0558  -14.3875 C   0  0  2  0  0  0  0  0  0  0  0  0
   22.7474  -20.8580  -13.9194 N   0  0  0  0  0  0  0  0  0  0  0  0
   20.6239  -20.0086  -13.3410 C   0  0  0  0  0  0  0  0  0  0  0  0
   20.2206  -20.9922  -12.6538 O   0  0  0  0  0  0  0  0  0  0  0  0
   20.0270  -18.7729  -13.0089 O   0  0  0  0  0  0  0  0  0  0  0  0
  2  1  1  6
  2  4  1  0
  2  3  1  0
  4  5  2  0
  6  7  1  0
  6  4  1  0
  7  8  1  1
  8  9  1  0
 10  9  1  0
 11 10  1  0
 12 11  1  0
 13  7  1  0
 13 14  2  0
 15 16  1  0
 16 17  2  0
 18 19  1  0
 18 16  1  0
 20 19  1  6
 20 21  1  0
 20 22  1  0
 21 13  1  0
 22 24  1  0
 23 22  2  0
M  END
$$$$
