AKQ.pdb
     RDKit          3D

 24 23  0  0  1  0  0  0  0  0999 V2000
   19.7623  -19.5276  -12.7828 C   0  0  0  0  0  0  0  0  0  0  0  0
   20.3502  -19.9314  -14.1125 C   0  0  2  0  0  0  0  0  0  0  0  0
   20.3775  -21.3780  -14.1899 N   0  0  0  0  0  0  0  0  0  0  0  0
   21.6934  -19.4010  -14.3382 C   0  0  0  0  0  0  0  0  0  0  0  0
   22.0337  -18.2042  -14.1611 O   0  0  0  0  0  0  0  0  0  0  0  0
   22.7026  -20.2930  -14.7924 N   0  0  0  0  0  0  0  0  0  0  0  0
   23.9755  -19.8602  -15.2974 C   0  0  1  0  0  0  0  0  0  0  0  0
   24.8206  -21.1082  -15.5143 C   0  0  0  0  0  0  0  0  0  0  0  0
   26.1519  -20.6510  -16.1020 C   0  0  0  0  0  0  0  0  0  0  0  0
   27.0068  -21.9024  -16.2937 C   0  0  0  0  0  0  0  0  0  0  0  0
   28.2745  -21.4685  -16.9876 C   0  0  0  0  0  0  0  0  0  0  0  0
   29.0809  -22.6282  -17.2876 N   0  0  0  0  0  0  0  0  0  0  0  0
   23.8829  -19.1348  -16.5719 C   0  0  0  0  0  0  0  0  0  0  0  0
   23.2347  -19.6588  -17.5110 O   0  0  0  0  0  0  0  0  0  0  0  0
   20.7797  -17.5778  -19.6818 N   0  0  0  0  0  0  0  0  0  0  0  0
   20.9849  -16.1981  -19.4680 C   0  0  0  0  0  0  0  0  0  0  0  0
   20.3720  -15.3776  -20.1887 O   0  0  0  0  0  0  0  0  0  0  0  0
   21.8935  -15.7236  -18.4169 C   0  0  0  0  0  0  0  0  0  0  0  0
   22.5151  -16.7589  -17.5520 C   0  0  0  0  0  0  0  0  0  0  0  0
   23.9723  -16.9058  -17.7146 C   0  0  2  0  0  0  0  0  0  0  0  0
   24.4913  -17.8968  -16.7536 N   0  0  0  0  0  0  0  0  0  0  0  0
   24.8377  -15.7637  -17.6995 C   0  0  0  0  0  0  0  0  0  0  0  0
   24.7097  -14.7229  -18.4087 O   0  0  0  0  0  0  0  0  0  0  0  0
   25.9496  -15.7513  -16.8293 O   0  0  0  0  0  0  0  0  0  0  0  0
  2  1  1  1
  2  4  1  0
  2  3  1  0
  4  5  2  0
  6  7  1  0
  6  4  1  0
  7  8  1  6
  8  9  1  0
 10  9  1  0
 11 10  1  0
 12 11  1  0
 13  7  1  0
 13 14  2  0
 15 16  1  0
 16 17  2  0
 18 19  1  0
 18 16  1  0
 20 19  1  1
 20 21  1  0
 20 22  1  0
 21 13  1  0
 22 24  1  0
 23 22  2  0
M  END
$$$$
