AKQ.pdb
     RDKit          3D

 24 23  0  0  1  0  0  0  0  0999 V2000
   20.0408  -15.1325  -19.1270 C   0  0  0  0  0  0  0  0  0  0  0  0
   20.1450  -14.5095  -17.7566 C   0  0  2  0  0  0  0  0  0  0  0  0
   19.2622  -15.2196  -16.8535 N   0  0  0  0  0  0  0  0  0  0  0  0
   19.8220  -13.0841  -17.7412 C   0  0  0  0  0  0  0  0  0  0  0  0
   20.4315  -12.2009  -18.3955 O   0  0  0  0  0  0  0  0  0  0  0  0
   18.7396  -12.6472  -16.9301 N   0  0  0  0  0  0  0  0  0  0  0  0
   18.2872  -11.2851  -16.8769 C   0  0  1  0  0  0  0  0  0  0  0  0
   16.7648  -11.3167  -16.8862 C   0  0  0  0  0  0  0  0  0  0  0  0
   16.2872   -9.8698  -16.9575 C   0  0  0  0  0  0  0  0  0  0  0  0
   14.7609   -9.9019  -16.9041 C   0  0  0  0  0  0  0  0  0  0  0  0
   14.2840   -8.4788  -17.0591 C   0  0  0  0  0  0  0  0  0  0  0  0
   12.8493   -8.4315  -16.9032 N   0  0  0  0  0  0  0  0  0  0  0  0
   18.7295  -10.5687  -15.6725 C   0  0  0  0  0  0  0  0  0  0  0  0
   18.5931  -11.1326  -14.5590 O   0  0  0  0  0  0  0  0  0  0  0  0
   22.6018   -5.4298  -15.5286 N   0  0  0  0  0  0  0  0  0  0  0  0
   22.2023   -5.6340  -14.1907 C   0  0  0  0  0  0  0  0  0  0  0  0
   22.6547   -4.8755  -13.3029 O   0  0  0  0  0  0  0  0  0  0  0  0
   21.2678   -6.7098  -13.8373 C   0  0  0  0  0  0  0  0  0  0  0  0
   20.7008   -7.4996  -14.9603 C   0  0  0  0  0  0  0  0  0  0  0  0
   19.8259   -8.6130  -14.5522 C   0  0  2  0  0  0  0  0  0  0  0  0
   19.2879   -9.2964  -15.7432 N   0  0  0  0  0  0  0  0  0  0  0  0
   18.7536   -8.4097  -13.6235 C   0  0  0  0  0  0  0  0  0  0  0  0
   17.5839   -8.0197  -13.9103 O   0  0  0  0  0  0  0  0  0  0  0  0
   18.9736   -8.6542  -12.2504 O   0  0  0  0  0  0  0  0  0  0  0  0
  2  1  1  6
  2  4  1  0
  2  3  1  0
  4  5  2  0
  6  7  1  0
  6  4  1  0
  7  8  1  1
  8  9  1  0
 10  9  1  0
 11 10  1  0
 12 11  1  0
 13  7  1  0
 13 14  2  0
 15 16  1  0
 16 17  2  0
 18 19  1  0
 18 16  1  0
 20 19  1  6
 20 21  1  0
 20 22  1  0
 21 13  1  0
 22 24  1  0
 23 22  2  0
M  END
$$$$
