AKQ.pdb
     RDKit          3D

 24 23  0  0  1  0  0  0  0  0999 V2000
   14.1446   -9.4361  -21.2943 C   0  0  0  0  0  0  0  0  0  0  0  0
   14.5492  -10.4309  -20.2343 C   0  0  2  0  0  0  0  0  0  0  0  0
   13.5952  -11.5213  -20.2302 N   0  0  0  0  0  0  0  0  0  0  0  0
   14.6377   -9.8493  -18.8963 C   0  0  0  0  0  0  0  0  0  0  0  0
   13.7916   -9.0672  -18.3941 O   0  0  0  0  0  0  0  0  0  0  0  0
   15.7590  -10.1833  -18.0892 N   0  0  0  0  0  0  0  0  0  0  0  0
   15.9406   -9.7065  -16.7466 C   0  0  1  0  0  0  0  0  0  0  0  0
   16.3708  -10.8976  -15.9012 C   0  0  0  0  0  0  0  0  0  0  0  0
   15.1031  -11.6507  -15.5105 C   0  0  0  0  0  0  0  0  0  0  0  0
   15.5452  -12.9141  -14.7743 C   0  0  0  0  0  0  0  0  0  0  0  0
   14.3055  -13.7388  -14.5296 C   0  0  0  0  0  0  0  0  0  0  0  0
   14.6796  -15.0189  -13.9762 N   0  0  0  0  0  0  0  0  0  0  0  0
   16.9663   -8.6606  -16.6314 C   0  0  0  0  0  0  0  0  0  0  0  0
   17.9293   -8.6779  -17.4369 O   0  0  0  0  0  0  0  0  0  0  0  0
   18.8548   -3.2861  -16.6048 N   0  0  0  0  0  0  0  0  0  0  0  0
   17.6131   -3.5800  -17.2075 C   0  0  0  0  0  0  0  0  0  0  0  0
   16.8890   -2.6331  -17.5913 O   0  0  0  0  0  0  0  0  0  0  0  0
   17.1728   -4.9683  -17.3917 C   0  0  0  0  0  0  0  0  0  0  0  0
   18.1123   -6.0322  -16.9539 C   0  0  0  0  0  0  0  0  0  0  0  0
   17.8616   -6.5587  -15.6005 C   0  0  2  0  0  0  0  0  0  0  0  0
   16.8904   -7.6669  -15.6605 N   0  0  0  0  0  0  0  0  0  0  0  0
   17.4897   -5.6881  -14.5247 C   0  0  0  0  0  0  0  0  0  0  0  0
   16.3316   -5.5721  -14.0270 O   0  0  0  0  0  0  0  0  0  0  0  0
   18.4714   -4.8641  -13.9323 O   0  0  0  0  0  0  0  0  0  0  0  0
  2  1  1  6
  2  4  1  0
  2  3  1  0
  4  5  2  0
  6  7  1  0
  6  4  1  0
  7  8  1  1
  8  9  1  0
 10  9  1  0
 11 10  1  0
 12 11  1  0
 13  7  1  0
 13 14  2  0
 15 16  1  0
 16 17  2  0
 18 19  1  0
 18 16  1  0
 20 19  1  6
 20 21  1  0
 20 22  1  0
 21 13  1  0
 22 24  1  0
 23 22  2  0
M  END
$$$$
