AKQ.pdb
     RDKit          3D

 24 23  0  0  1  0  0  0  0  0999 V2000
   27.7989  -19.2022  -20.9640 C   0  0  0  0  0  0  0  0  0  0  0  0
   26.3618  -19.2798  -20.5106 C   0  0  2  0  0  0  0  0  0  0  0  0
   25.8124  -17.9397  -20.4719 N   0  0  0  0  0  0  0  0  0  0  0  0
   26.1989  -19.9165  -19.2049 C   0  0  0  0  0  0  0  0  0  0  0  0
   27.1424  -20.2991  -18.4680 O   0  0  0  0  0  0  0  0  0  0  0  0
   24.8804  -20.1259  -18.7172 N   0  0  0  0  0  0  0  0  0  0  0  0
   24.5890  -20.7902  -17.4776 C   0  0  1  0  0  0  0  0  0  0  0  0
   23.2760  -20.2188  -16.9595 C   0  0  0  0  0  0  0  0  0  0  0  0
   23.0208  -20.8497  -15.5944 C   0  0  0  0  0  0  0  0  0  0  0  0
   21.6743  -20.3202  -15.1044 C   0  0  0  0  0  0  0  0  0  0  0  0
   21.4398  -20.9104  -13.7355 C   0  0  0  0  0  0  0  0  0  0  0  0
   20.2439  -20.3389  -13.1626 N   0  0  0  0  0  0  0  0  0  0  0  0
   24.4398  -22.2456  -17.6153 C   0  0  0  0  0  0  0  0  0  0  0  0
   23.6755  -22.6852  -18.5093 O   0  0  0  0  0  0  0  0  0  0  0  0
   28.6909  -26.6546  -15.9089 N   0  0  0  0  0  0  0  0  0  0  0  0
   27.5576  -27.3905  -16.3154 C   0  0  0  0  0  0  0  0  0  0  0  0
   27.6363  -28.6391  -16.3707 O   0  0  0  0  0  0  0  0  0  0  0  0
   26.3020  -26.7134  -16.6625 C   0  0  0  0  0  0  0  0  0  0  0  0
   26.2745  -25.2360  -16.5118 C   0  0  0  0  0  0  0  0  0  0  0  0
   25.0269  -24.5927  -16.9606 C   0  0  2  0  0  0  0  0  0  0  0  0
   25.1198  -23.1313  -16.7854 N   0  0  0  0  0  0  0  0  0  0  0  0
   23.7522  -25.0276  -16.4710 C   0  0  0  0  0  0  0  0  0  0  0  0
   23.2133  -24.6749  -15.3812 O   0  0  0  0  0  0  0  0  0  0  0  0
   22.9893  -25.9330  -17.2403 O   0  0  0  0  0  0  0  0  0  0  0  0
  2  1  1  1
  2  4  1  0
  2  3  1  0
  4  5  2  0
  6  7  1  0
  6  4  1  0
  7  8  1  6
  8  9  1  0
 10  9  1  0
 11 10  1  0
 12 11  1  0
 13  7  1  0
 13 14  2  0
 15 16  1  0
 16 17  2  0
 18 19  1  0
 18 16  1  0
 20 19  1  1
 20 21  1  0
 20 22  1  0
 21 13  1  0
 22 24  1  0
 23 22  2  0
M  END
$$$$
