AKQ.pdb
     RDKit          3D

 24 23  0  0  1  0  0  0  0  0999 V2000
   22.9528  -11.3317  -14.8567 C   0  0  0  0  0  0  0  0  0  0  0  0
   21.7220  -11.8434  -15.5639 C   0  0  2  0  0  0  0  0  0  0  0  0
   22.1199  -12.4248  -16.8299 N   0  0  0  0  0  0  0  0  0  0  0  0
   20.7126  -10.8111  -15.7919 C   0  0  0  0  0  0  0  0  0  0  0  0
   20.8927   -9.7644  -16.4639 O   0  0  0  0  0  0  0  0  0  0  0  0
   19.4248  -10.9892  -15.2173 N   0  0  0  0  0  0  0  0  0  0  0  0
   18.3644  -10.0275  -15.3327 C   0  0  1  0  0  0  0  0  0  0  0  0
   17.0723  -10.7351  -14.9474 C   0  0  0  0  0  0  0  0  0  0  0  0
   15.9228   -9.8086  -15.3310 C   0  0  0  0  0  0  0  0  0  0  0  0
   14.6287  -10.5884  -15.1054 C   0  0  0  0  0  0  0  0  0  0  0  0
   13.4948   -9.7020  -15.5588 C   0  0  0  0  0  0  0  0  0  0  0  0
   12.2682  -10.4635  -15.5842 N   0  0  0  0  0  0  0  0  0  0  0  0
   18.5347   -8.8614  -14.4550 C   0  0  0  0  0  0  0  0  0  0  0  0
   19.0571   -9.0350  -13.3265 O   0  0  0  0  0  0  0  0  0  0  0  0
   22.9524   -5.9787  -14.4784 N   0  0  0  0  0  0  0  0  0  0  0  0
   22.1889   -4.9628  -13.8649 C   0  0  0  0  0  0  0  0  0  0  0  0
   22.7775   -3.9531  -13.4153 O   0  0  0  0  0  0  0  0  0  0  0  0
   20.7291   -5.0759  -13.7573 C   0  0  0  0  0  0  0  0  0  0  0  0
   20.1119   -6.3141  -14.2979 C   0  0  0  0  0  0  0  0  0  0  0  0
   18.6437   -6.3717  -14.1862 C   0  0  2  0  0  0  0  0  0  0  0  0
   18.1334   -7.5879  -14.8462 N   0  0  0  0  0  0  0  0  0  0  0  0
   17.8269   -5.2636  -14.5844 C   0  0  0  0  0  0  0  0  0  0  0  0
   17.8073   -4.1201  -14.0417 O   0  0  0  0  0  0  0  0  0  0  0  0
   16.9466   -5.4125  -15.6782 O   0  0  0  0  0  0  0  0  0  0  0  0
  2  1  1  6
  2  4  1  0
  2  3  1  0
  4  5  2  0
  6  7  1  0
  6  4  1  0
  7  8  1  1
  8  9  1  0
 10  9  1  0
 11 10  1  0
 12 11  1  0
 13  7  1  0
 13 14  2  0
 15 16  1  0
 16 17  2  0
 18 19  1  0
 18 16  1  0
 20 19  1  6
 20 21  1  0
 20 22  1  0
 21 13  1  0
 22 24  1  0
 23 22  2  0
M  END
$$$$
