AKQ.pdb
     RDKit          3D

 24 23  0  0  1  0  0  0  0  0999 V2000
   17.8949  -11.9904  -13.6183 C   0  0  0  0  0  0  0  0  0  0  0  0
   16.4333  -11.8156  -13.2862 C   0  0  2  0  0  0  0  0  0  0  0  0
   15.6567  -11.9851  -14.4975 N   0  0  0  0  0  0  0  0  0  0  0  0
   16.1265  -10.5205  -12.6820 C   0  0  0  0  0  0  0  0  0  0  0  0
   16.1113   -9.4247  -13.2974 O   0  0  0  0  0  0  0  0  0  0  0  0
   15.8200  -10.4798  -11.2947 N   0  0  0  0  0  0  0  0  0  0  0  0
   15.3535   -9.3012  -10.6193 C   0  0  1  0  0  0  0  0  0  0  0  0
   14.3893   -9.7581   -9.5328 C   0  0  0  0  0  0  0  0  0  0  0  0
   13.0135   -9.8848  -10.1794 C   0  0  0  0  0  0  0  0  0  0  0  0
   12.0377  -10.2846   -9.0742 C   0  0  0  0  0  0  0  0  0  0  0  0
   10.6735  -10.3964   -9.7094 C   0  0  0  0  0  0  0  0  0  0  0  0
    9.7082  -10.7931   -8.7115 N   0  0  0  0  0  0  0  0  0  0  0  0
   16.4295   -8.5243   -9.9885 C   0  0  0  0  0  0  0  0  0  0  0  0
   17.0708   -9.0496   -9.0454 O   0  0  0  0  0  0  0  0  0  0  0  0
   21.6458   -6.9808  -11.6578 N   0  0  0  0  0  0  0  0  0  0  0  0
   20.6609   -6.1764  -12.2695 C   0  0  0  0  0  0  0  0  0  0  0  0
   20.9361   -5.5985  -13.3459 O   0  0  0  0  0  0  0  0  0  0  0  0
   19.3319   -6.0194  -11.6655 C   0  0  0  0  0  0  0  0  0  0  0  0
   19.1015   -6.7039  -10.3676 C   0  0  0  0  0  0  0  0  0  0  0  0
   17.7908   -6.4331   -9.7510 C   0  0  2  0  0  0  0  0  0  0  0  0
   16.7453   -7.2370  -10.4112 N   0  0  0  0  0  0  0  0  0  0  0  0
   17.3054   -5.0930   -9.6019 C   0  0  0  0  0  0  0  0  0  0  0  0
   16.2566   -4.6181  -10.1280 O   0  0  0  0  0  0  0  0  0  0  0  0
   18.0298   -4.1811   -8.8037 O   0  0  0  0  0  0  0  0  0  0  0  0
  2  1  1  6
  2  4  1  0
  2  3  1  0
  4  5  2  0
  6  7  1  0
  6  4  1  0
  7  8  1  1
  8  9  1  0
 10  9  1  0
 11 10  1  0
 12 11  1  0
 13  7  1  0
 13 14  2  0
 15 16  1  0
 16 17  2  0
 18 19  1  0
 18 16  1  0
 20 19  1  6
 20 21  1  0
 20 22  1  0
 21 13  1  0
 22 24  1  0
 23 22  2  0
M  END
$$$$
