AKQ.pdb
     RDKit          3D

 24 23  0  0  1  0  0  0  0  0999 V2000
   24.7112  -20.8579   -9.2233 C   0  0  0  0  0  0  0  0  0  0  0  0
   25.4983  -21.3312  -10.4207 C   0  0  2  0  0  0  0  0  0  0  0  0
   26.9100  -21.1433  -10.1542 N   0  0  0  0  0  0  0  0  0  0  0  0
   25.1360  -20.6469  -11.6604 C   0  0  0  0  0  0  0  0  0  0  0  0
   25.6311  -19.5608  -12.0542 O   0  0  0  0  0  0  0  0  0  0  0  0
   24.1511  -21.2413  -12.4952 N   0  0  0  0  0  0  0  0  0  0  0  0
   23.8232  -20.7546  -13.8061 C   0  0  1  0  0  0  0  0  0  0  0  0
   24.1517  -21.8665  -14.7933 C   0  0  0  0  0  0  0  0  0  0  0  0
   25.2425  -21.3362  -15.7184 C   0  0  0  0  0  0  0  0  0  0  0  0
   26.5204  -22.1041  -15.3853 C   0  0  0  0  0  0  0  0  0  0  0  0
   27.5860  -21.6219  -16.3387 C   0  0  0  0  0  0  0  0  0  0  0  0
   28.8529  -22.2191  -15.9875 N   0  0  0  0  0  0  0  0  0  0  0  0
   22.4055  -20.4004  -13.9605 C   0  0  0  0  0  0  0  0  0  0  0  0
   21.5397  -21.2098  -13.5460 O   0  0  0  0  0  0  0  0  0  0  0  0
   19.4136  -17.7116  -18.8218 N   0  0  0  0  0  0  0  0  0  0  0  0
   20.2490  -16.8698  -18.0570 C   0  0  0  0  0  0  0  0  0  0  0  0
   20.4577  -15.7015  -18.4567 O   0  0  0  0  0  0  0  0  0  0  0  0
   20.8611  -17.3444  -16.8098 C   0  0  0  0  0  0  0  0  0  0  0  0
   20.4892  -18.7099  -16.3590 C   0  0  0  0  0  0  0  0  0  0  0  0
   20.6066  -18.9341  -14.9072 C   0  0  2  0  0  0  0  0  0  0  0  0
   22.0117  -19.2027  -14.5487 N   0  0  0  0  0  0  0  0  0  0  0  0
   19.7770  -19.8911  -14.2366 C   0  0  0  0  0  0  0  0  0  0  0  0
   19.7466  -21.1366  -14.4604 O   0  0  0  0  0  0  0  0  0  0  0  0
   18.8957  -19.4520  -13.2247 O   0  0  0  0  0  0  0  0  0  0  0  0
  2  1  1  1
  2  4  1  0
  2  3  1  0
  4  5  2  0
  6  7  1  0
  6  4  1  0
  7  8  1  6
  8  9  1  0
 10  9  1  0
 11 10  1  0
 12 11  1  0
 13  7  1  0
 13 14  2  0
 15 16  1  0
 16 17  2  0
 18 19  1  0
 18 16  1  0
 20 19  1  6
 20 21  1  0
 20 22  1  0
 21 13  1  0
 22 24  1  0
 23 22  2  0
M  END
$$$$
