AKQ.pdb
     RDKit          3D

 24 23  0  0  1  0  0  0  0  0999 V2000
   21.5075  -30.0278  -11.9291 C   0  0  0  0  0  0  0  0  0  0  0  0
   20.2615  -29.3374  -12.4270 C   0  0  2  0  0  0  0  0  0  0  0  0
   20.2791  -29.3321  -13.8757 N   0  0  0  0  0  0  0  0  0  0  0  0
   20.1187  -27.9697  -11.9315 C   0  0  0  0  0  0  0  0  0  0  0  0
   20.1780  -27.6325  -10.7221 O   0  0  0  0  0  0  0  0  0  0  0  0
   19.8955  -26.9308  -12.8755 N   0  0  0  0  0  0  0  0  0  0  0  0
   19.7037  -25.5550  -12.5109 C   0  0  1  0  0  0  0  0  0  0  0  0
   19.7117  -24.7435  -13.7994 C   0  0  0  0  0  0  0  0  0  0  0  0
   21.1565  -24.6891  -14.2854 C   0  0  0  0  0  0  0  0  0  0  0  0
   21.1818  -23.7673  -15.5033 C   0  0  0  0  0  0  0  0  0  0  0  0
   22.6192  -23.6682  -15.9518 C   0  0  0  0  0  0  0  0  0  0  0  0
   22.6977  -22.8541  -17.1418 N   0  0  0  0  0  0  0  0  0  0  0  0
   18.4344  -25.3064  -11.8135 C   0  0  0  0  0  0  0  0  0  0  0  0
   17.3676  -25.6655  -12.3698 O   0  0  0  0  0  0  0  0  0  0  0  0
   17.5041  -25.9534   -5.7943 N   0  0  0  0  0  0  0  0  0  0  0  0
   18.4075  -24.9839   -6.2792 C   0  0  0  0  0  0  0  0  0  0  0  0
   19.3050  -24.5596   -5.5159 O   0  0  0  0  0  0  0  0  0  0  0  0
   18.3089  -24.4808   -7.6549 C   0  0  0  0  0  0  0  0  0  0  0  0
   17.2073  -25.0252   -8.4894 C   0  0  0  0  0  0  0  0  0  0  0  0
   17.1265  -24.4624   -9.8489 C   0  0  2  0  0  0  0  0  0  0  0  0
   18.3945  -24.6898  -10.5669 N   0  0  0  0  0  0  0  0  0  0  0  0
   16.7204  -23.1052  -10.0653 C   0  0  0  0  0  0  0  0  0  0  0  0
   15.5661  -22.6306   -9.8538 O   0  0  0  0  0  0  0  0  0  0  0  0
   17.6597  -22.1738  -10.5590 O   0  0  0  0  0  0  0  0  0  0  0  0
  2  1  1  1
  2  4  1  0
  2  3  1  0
  4  5  2  0
  6  7  1  0
  6  4  1  0
  7  8  1  6
  8  9  1  0
 10  9  1  0
 11 10  1  0
 12 11  1  0
 13  7  1  0
 13 14  2  0
 15 16  1  0
 16 17  2  0
 18 19  1  0
 18 16  1  0
 20 19  1  1
 20 21  1  0
 20 22  1  0
 21 13  1  0
 22 24  1  0
 23 22  2  0
M  END
$$$$
