AKQ.pdb
     RDKit          3D

 24 23  0  0  1  0  0  0  0  0999 V2000
   27.5607  -20.5549  -17.4621 C   0  0  0  0  0  0  0  0  0  0  0  0
   27.7712  -21.6385  -16.4332 C   0  0  2  0  0  0  0  0  0  0  0  0
   28.1794  -22.8520  -17.1114 N   0  0  0  0  0  0  0  0  0  0  0  0
   26.5863  -21.9042  -15.6196 C   0  0  0  0  0  0  0  0  0  0  0  0
   25.6593  -22.6925  -15.9341 O   0  0  0  0  0  0  0  0  0  0  0  0
   26.4574  -21.2280  -14.3760 N   0  0  0  0  0  0  0  0  0  0  0  0
   25.3524  -21.4205  -13.4790 C   0  0  1  0  0  0  0  0  0  0  0  0
   25.7860  -20.9021  -12.1144 C   0  0  0  0  0  0  0  0  0  0  0  0
   24.6434  -21.1848  -11.1442 C   0  0  0  0  0  0  0  0  0  0  0  0
   25.1300  -20.7801   -9.7538 C   0  0  0  0  0  0  0  0  0  0  0  0
   24.0011  -21.0601   -8.7925 C   0  0  0  0  0  0  0  0  0  0  0  0
   24.3747  -20.6201   -7.4690 N   0  0  0  0  0  0  0  0  0  0  0  0
   24.1376  -20.7001  -13.8847 C   0  0  0  0  0  0  0  0  0  0  0  0
   24.2359  -19.4839  -14.1811 O   0  0  0  0  0  0  0  0  0  0  0  0
   19.8865  -22.5995  -17.8508 N   0  0  0  0  0  0  0  0  0  0  0  0
   19.2639  -21.4744  -17.2696 C   0  0  0  0  0  0  0  0  0  0  0  0
   18.1727  -21.0782  -17.7392 O   0  0  0  0  0  0  0  0  0  0  0  0
   19.8738  -20.7784  -16.1298 C   0  0  0  0  0  0  0  0  0  0  0  0
   21.1522  -21.3314  -15.6141 C   0  0  0  0  0  0  0  0  0  0  0  0
   21.6922  -20.6383  -14.4310 C   0  0  2  0  0  0  0  0  0  0  0  0
   22.8996  -21.3321  -13.9454 N   0  0  0  0  0  0  0  0  0  0  0  0
   20.8587  -20.3374  -13.3048 C   0  0  0  0  0  0  0  0  0  0  0  0
   20.8282  -20.9726  -12.2102 O   0  0  0  0  0  0  0  0  0  0  0  0
   19.9729  -19.2401  -13.3748 O   0  0  0  0  0  0  0  0  0  0  0  0
  2  1  1  6
  2  4  1  0
  2  3  1  0
  4  5  2  0
  6  7  1  0
  6  4  1  0
  7  8  1  1
  8  9  1  0
 10  9  1  0
 11 10  1  0
 12 11  1  0
 13  7  1  0
 13 14  2  0
 15 16  1  0
 16 17  2  0
 18 19  1  0
 18 16  1  0
 20 19  1  6
 20 21  1  0
 20 22  1  0
 21 13  1  0
 22 24  1  0
 23 22  2  0
M  END
$$$$
