AKQ.pdb
     RDKit          3D

 24 23  0  0  1  0  0  0  0  0999 V2000
   18.8052  -12.7492  -17.2006 C   0  0  0  0  0  0  0  0  0  0  0  0
   19.4010  -11.4867  -17.7733 C   0  0  2  0  0  0  0  0  0  0  0  0
   20.1623  -11.8265  -18.9582 N   0  0  0  0  0  0  0  0  0  0  0  0
   20.2546  -10.7679  -16.8292 C   0  0  0  0  0  0  0  0  0  0  0  0
   19.9186  -10.4346  -15.6648 O   0  0  0  0  0  0  0  0  0  0  0  0
   21.5667  -10.4115  -17.2436 N   0  0  0  0  0  0  0  0  0  0  0  0
   22.4888   -9.6822  -16.4186 C   0  0  1  0  0  0  0  0  0  0  0  0
   23.8892   -9.9841  -16.9349 C   0  0  0  0  0  0  0  0  0  0  0  0
   24.2125  -11.4211  -16.5383 C   0  0  0  0  0  0  0  0  0  0  0  0
   25.6328  -11.7074  -17.0226 C   0  0  0  0  0  0  0  0  0  0  0  0
   25.9630  -13.1209  -16.6102 C   0  0  0  0  0  0  0  0  0  0  0  0
   27.3155  -13.4350  -17.0064 N   0  0  0  0  0  0  0  0  0  0  0  0
   22.2834   -8.2277  -16.4569 C   0  0  0  0  0  0  0  0  0  0  0  0
   22.1132   -7.6782  -17.5729 O   0  0  0  0  0  0  0  0  0  0  0  0
   19.3234   -4.7054  -18.3019 N   0  0  0  0  0  0  0  0  0  0  0  0
   19.4874   -3.8945  -17.1587 C   0  0  0  0  0  0  0  0  0  0  0  0
   19.0343   -2.7272  -17.1762 O   0  0  0  0  0  0  0  0  0  0  0  0
   20.1697   -4.4042  -15.9628 C   0  0  0  0  0  0  0  0  0  0  0  0
   20.6813   -5.7972  -16.0267 C   0  0  0  0  0  0  0  0  0  0  0  0
   21.9517   -6.0216  -15.3143 C   0  0  2  0  0  0  0  0  0  0  0  0
   22.2742   -7.4606  -15.2962 N   0  0  0  0  0  0  0  0  0  0  0  0
   22.1669   -5.4924  -14.0001 C   0  0  0  0  0  0  0  0  0  0  0  0
   22.2953   -6.1679  -12.9372 O   0  0  0  0  0  0  0  0  0  0  0  0
   22.2511   -4.0940  -13.8240 O   0  0  0  0  0  0  0  0  0  0  0  0
  2  1  1  1
  2  4  1  0
  2  3  1  0
  4  5  2  0
  6  7  1  0
  6  4  1  0
  7  8  1  6
  8  9  1  0
 10  9  1  0
 11 10  1  0
 12 11  1  0
 13  7  1  0
 13 14  2  0
 15 16  1  0
 16 17  2  0
 18 19  1  0
 18 16  1  0
 20 19  1  1
 20 21  1  0
 20 22  1  0
 21 13  1  0
 22 24  1  0
 23 22  2  0
M  END
$$$$
