AKQ.pdb
     RDKit          3D

 24 23  0  0  1  0  0  0  0  0999 V2000
   28.0148  -16.8706  -17.0398 C   0  0  0  0  0  0  0  0  0  0  0  0
   26.8361  -16.6851  -16.1161 C   0  0  2  0  0  0  0  0  0  0  0  0
   26.7763  -17.8102  -15.2053 N   0  0  0  0  0  0  0  0  0  0  0  0
   25.5620  -16.5537  -16.8205 C   0  0  0  0  0  0  0  0  0  0  0  0
   25.3342  -15.7391  -17.7502 O   0  0  0  0  0  0  0  0  0  0  0  0
   24.4895  -17.4041  -16.4374 N   0  0  0  0  0  0  0  0  0  0  0  0
   23.2096  -17.4098  -17.0890 C   0  0  1  0  0  0  0  0  0  0  0  0
   22.4856  -18.6741  -16.6460 C   0  0  0  0  0  0  0  0  0  0  0  0
   22.2521  -19.5175  -17.8955 C   0  0  0  0  0  0  0  0  0  0  0  0
   21.4300  -20.7311  -17.4656 C   0  0  0  0  0  0  0  0  0  0  0  0
   21.1231  -21.5207  -18.7144 C   0  0  0  0  0  0  0  0  0  0  0  0
   20.4457  -22.7446  -18.3564 N   0  0  0  0  0  0  0  0  0  0  0  0
   22.3734  -16.2513  -16.7454 C   0  0  0  0  0  0  0  0  0  0  0  0
   22.2819  -15.9185  -15.5382 O   0  0  0  0  0  0  0  0  0  0  0  0
   22.4133  -10.7947  -19.4493 N   0  0  0  0  0  0  0  0  0  0  0  0
   21.3533  -10.6769  -18.5253 C   0  0  0  0  0  0  0  0  0  0  0  0
   20.8429   -9.5498  -18.3323 O   0  0  0  0  0  0  0  0  0  0  0  0
   20.8465  -11.8507  -17.8036 C   0  0  0  0  0  0  0  0  0  0  0  0
   21.5478  -13.1379  -18.0431 C   0  0  0  0  0  0  0  0  0  0  0  0
   20.9297  -14.3079  -17.3943 C   0  0  2  0  0  0  0  0  0  0  0  0
   21.6920  -15.5279  -17.7191 N   0  0  0  0  0  0  0  0  0  0  0  0
   19.5337  -14.5903  -17.5522 C   0  0  0  0  0  0  0  0  0  0  0  0
   19.0105  -15.2563  -18.4930 O   0  0  0  0  0  0  0  0  0  0  0  0
   18.6178  -14.1020  -16.5950 O   0  0  0  0  0  0  0  0  0  0  0  0
  2  1  1  6
  2  4  1  0
  2  3  1  0
  4  5  2  0
  6  7  1  0
  6  4  1  0
  7  8  1  1
  8  9  1  0
 10  9  1  0
 11 10  1  0
 12 11  1  0
 13  7  1  0
 13 14  2  0
 15 16  1  0
 16 17  2  0
 18 19  1  0
 18 16  1  0
 20 19  1  6
 20 21  1  0
 20 22  1  0
 21 13  1  0
 22 24  1  0
 23 22  2  0
M  END
$$$$
