RDH.pdb
     RDKit          3D

 30 30  0  0  1  0  0  0  0  0999 V2000
   27.5544  -21.6740  -16.1883 N   0  0  0  0  0  0  0  0  0  0  0  0
   27.6018  -22.9699  -16.7827 C   0  0  0  0  0  0  0  0  0  0  0  0
   28.5140  -23.2366  -17.6362 N   0  0  0  0  0  0  0  0  0  0  0  0
   26.6234  -23.9621  -16.4147 N   0  0  0  0  0  0  0  0  0  0  0  0
   25.6340  -23.5971  -15.4344 C   0  0  0  0  0  0  0  0  0  0  0  0
   24.7213  -24.7877  -15.2396 C   0  0  0  0  0  0  0  0  0  0  0  0
   23.6188  -24.4911  -14.2562 C   0  0  0  0  0  0  0  0  0  0  0  0
   22.3807  -23.9875  -14.9628 C   0  0  2  0  0  0  0  0  0  0  0  0
   22.6970  -23.1494  -16.0878 N   0  0  0  0  0  0  0  0  0  0  0  0
   21.4732  -23.2583  -14.0540 C   0  0  0  0  0  0  0  0  0  0  0  0
   21.0111  -23.8209  -13.0130 O   0  0  0  0  0  0  0  0  0  0  0  0
   28.5460  -24.1337  -18.1525 N   0  0  0  0  0  0  0  0  0  0  0  0
   21.1200  -21.9315  -14.3460 C   0  0  1  0  0  0  0  0  0  0  0  0
   20.0880  -21.2292  -13.5240 C   0  0  0  0  0  0  0  0  0  0  0  0
   20.6267  -19.8546  -13.3134 C   0  0  0  0  0  0  0  0  0  0  0  0
   19.8637  -18.9286  -12.5297 O   0  0  0  0  0  0  0  0  0  0  0  0
   18.7779  -19.0435  -11.9348 C   0  0  0  0  0  0  0  0  0  0  0  0
   18.9082  -21.1962  -14.3961 O   0  0  0  0  0  0  0  0  0  0  0  0
   18.9941  -20.7624  -15.5896 O   0  0  0  0  0  0  0  0  0  0  0  0
   20.4318  -17.6224  -12.3887 N   0  0  0  0  0  0  0  0  0  0  0  0
   17.6497  -21.6297  -13.9950 C   0  0  2  0  0  0  0  0  0  0  0  0
   16.4712  -21.5298  -14.9036 C   0  0  0  0  0  0  0  0  0  0  0  0
   15.5700  -22.6509  -14.4358 C   0  0  0  0  0  0  0  0  0  0  0  0
   14.2758  -22.7147  -15.1480 C   0  0  0  0  0  0  0  0  0  0  0  0
   13.9176  -21.7947  -16.1306 N   0  0  0  0  0  0  0  0  0  0  0  0
   12.7082  -22.1262  -16.5705 C   0  0  0  0  0  0  0  0  0  0  0  0
   12.3219  -23.2085  -15.8937 N   0  0  0  0  0  0  0  0  0  0  0  0
   13.2706  -23.5819  -15.0184 C   0  0  0  0  0  0  0  0  0  0  0  0
   15.9038  -20.1907  -14.6784 O   0  0  0  0  0  0  0  0  0  0  0  0
   15.4240  -19.4482  -15.7327 O   0  0  0  0  0  0  0  0  0  0  0  0
  1  2  1  0
  2  3  2  0
  4  2  1  0
  5  4  1  0
  6  5  1  0
  7  6  1  0
  8 10  1  0
  8  7  1  0
  8  9  1  6
 10 11  2  0
 12 13  1  0
 12 10  1  0
 13 14  1  1
 15 19  1  0
 15 14  1  0
 16 15  2  0
 17 13  1  0
 18 17  2  0
 20 17  1  0
 21 20  1  0
 21 22  1  1
 23 22  1  0
 24 23  2  0
 25 24  1  0
 26 25  1  0
 26 27  2  0
 27 23  1  0
 28 21  1  0
 28 29  1  0
 30 28  2  0
M  END
$$$$
