RDH.pdb
     RDKit          3D

 30 30  0  0  1  0  0  0  0  0999 V2000
   17.2313  -14.0692  -15.0419 N   0  0  0  0  0  0  0  0  0  0  0  0
   16.9178  -14.8436  -16.1981 C   0  0  0  0  0  0  0  0  0  0  0  0
   16.8916  -16.1179  -16.1126 N   0  0  0  0  0  0  0  0  0  0  0  0
   16.6342  -14.1823  -17.4469 N   0  0  0  0  0  0  0  0  0  0  0  0
   17.4754  -13.0773  -17.8269 C   0  0  0  0  0  0  0  0  0  0  0  0
   17.2810  -11.9807  -16.8031 C   0  0  0  0  0  0  0  0  0  0  0  0
   18.0350  -10.7300  -17.1746 C   0  0  0  0  0  0  0  0  0  0  0  0
   19.4778  -11.0419  -17.5018 C   0  0  2  0  0  0  0  0  0  0  0  0
   19.8963  -12.3107  -16.9696 N   0  0  0  0  0  0  0  0  0  0  0  0
   20.4004   -9.9894  -17.0302 C   0  0  0  0  0  0  0  0  0  0  0  0
   21.1253  -10.1770  -16.0041 O   0  0  0  0  0  0  0  0  0  0  0  0
   16.6362  -16.7229  -16.9134 N   0  0  0  0  0  0  0  0  0  0  0  0
   20.4746   -8.7716  -17.7246 C   0  0  1  0  0  0  0  0  0  0  0  0
   21.5278   -7.7698  -17.3764 C   0  0  0  0  0  0  0  0  0  0  0  0
   21.5907   -6.8477  -18.5468 C   0  0  0  0  0  0  0  0  0  0  0  0
   22.4827   -5.7273  -18.4934 O   0  0  0  0  0  0  0  0  0  0  0  0
   22.4752   -4.6327  -19.0831 C   0  0  0  0  0  0  0  0  0  0  0  0
   20.9814   -7.0808  -16.2016 O   0  0  0  0  0  0  0  0  0  0  0  0
   19.7528   -6.7514  -16.1544 O   0  0  0  0  0  0  0  0  0  0  0  0
   23.5972   -5.8656  -17.6061 N   0  0  0  0  0  0  0  0  0  0  0  0
   21.7428   -6.7534  -15.0855 C   0  0  2  0  0  0  0  0  0  0  0  0
   21.1259   -6.1099  -13.8898 C   0  0  0  0  0  0  0  0  0  0  0  0
   21.6458   -6.9387  -12.7364 C   0  0  0  0  0  0  0  0  0  0  0  0
   21.3156   -6.3853  -11.4056 C   0  0  0  0  0  0  0  0  0  0  0  0
   20.5531   -5.2308  -11.2447 N   0  0  0  0  0  0  0  0  0  0  0  0
   20.4370   -5.0037   -9.9405 C   0  0  0  0  0  0  0  0  0  0  0  0
   21.0982   -5.9738   -9.3077 N   0  0  0  0  0  0  0  0  0  0  0  0
   21.6422   -6.8284  -10.1906 C   0  0  0  0  0  0  0  0  0  0  0  0
   21.6183   -4.7230  -13.8821 O   0  0  0  0  0  0  0  0  0  0  0  0
   20.8981   -3.7286  -13.2611 O   0  0  0  0  0  0  0  0  0  0  0  0
  1  2  1  0
  2  3  2  0
  4  2  1  0
  5  4  1  0
  6  5  1  0
  7  6  1  0
  8 10  1  0
  8  7  1  0
  8  9  1  1
 10 11  2  0
 12 13  1  0
 12 10  1  0
 13 14  1  1
 15 19  1  0
 15 14  1  0
 16 15  2  0
 17 13  1  0
 18 17  2  0
 20 17  1  0
 21 20  1  0
 21 22  1  6
 23 22  1  0
 24 23  2  0
 25 24  1  0
 26 25  1  0
 26 27  2  0
 27 23  1  0
 28 21  1  0
 28 29  1  0
 30 28  2  0
M  END
$$$$
