RDH.pdb
     RDKit          3D

 30 30  0  0  1  0  0  0  0  0999 V2000
   38.7917   -6.4647  -10.8179 N   0  0  0  0  0  0  0  0  0  0  0  0
   39.4439   -6.4670  -12.0866 C   0  0  0  0  0  0  0  0  0  0  0  0
   40.7088   -6.2977  -12.1431 N   0  0  0  0  0  0  0  0  0  0  0  0
   38.6713   -6.6603  -13.2879 N   0  0  0  0  0  0  0  0  0  0  0  0
   37.2365   -6.6703  -13.1683 C   0  0  0  0  0  0  0  0  0  0  0  0
   36.6629   -6.8691  -14.5538 C   0  0  0  0  0  0  0  0  0  0  0  0
   35.1626   -6.7288  -14.5623 C   0  0  0  0  0  0  0  0  0  0  0  0
   34.5183   -7.8267  -15.3780 C   0  0  2  0  0  0  0  0  0  0  0  0
   35.4058   -8.3562  -16.3781 N   0  0  0  0  0  0  0  0  0  0  0  0
   33.2664   -7.3844  -16.0249 C   0  0  0  0  0  0  0  0  0  0  0  0
   32.2954   -6.9541  -15.3281 O   0  0  0  0  0  0  0  0  0  0  0  0
   41.2226   -6.2476  -13.0408 N   0  0  0  0  0  0  0  0  0  0  0  0
   33.1518   -7.4413  -17.4228 C   0  0  1  0  0  0  0  0  0  0  0  0
   31.8846   -7.0162  -18.0919 C   0  0  0  0  0  0  0  0  0  0  0  0
   32.2988   -6.5349  -19.4412 C   0  0  0  0  0  0  0  0  0  0  0  0
   31.2857   -6.1104  -20.3617 O   0  0  0  0  0  0  0  0  0  0  0  0
   30.0621   -5.9361  -20.2257 C   0  0  0  0  0  0  0  0  0  0  0  0
   31.1110   -8.2586  -18.1989 O   0  0  0  0  0  0  0  0  0  0  0  0
   31.6969   -9.3880  -18.2346 O   0  0  0  0  0  0  0  0  0  0  0  0
   31.7364   -5.8281  -21.6906 N   0  0  0  0  0  0  0  0  0  0  0  0
   29.7226   -8.2907  -18.2608 C   0  0  1  0  0  0  0  0  0  0  0  0
   28.9831   -9.5806  -18.3773 C   0  0  0  0  0  0  0  0  0  0  0  0
   29.0479  -10.1512  -16.9780 C   0  0  0  0  0  0  0  0  0  0  0  0
   28.1825  -11.3325  -16.7731 C   0  0  0  0  0  0  0  0  0  0  0  0
   27.4635  -11.9210  -17.8108 N   0  0  0  0  0  0  0  0  0  0  0  0
   26.7943  -12.9508  -17.3032 C   0  0  0  0  0  0  0  0  0  0  0  0
   27.0800  -13.0079  -16.0017 N   0  0  0  0  0  0  0  0  0  0  0  0
   27.9289  -12.0237  -15.6608 C   0  0  0  0  0  0  0  0  0  0  0  0
   27.6194   -9.2242  -18.8009 O   0  0  0  0  0  0  0  0  0  0  0  0
   26.9926   -8.1156  -18.2803 O   0  0  0  0  0  0  0  0  0  0  0  0
  1  2  1  0
  2  3  2  0
  4  2  1  0
  5  4  1  0
  6  5  1  0
  7  6  1  0
  8 10  1  0
  8  7  1  0
  8  9  1  6
 10 11  2  0
 12 13  1  0
 12 10  1  0
 13 14  1  1
 15 19  1  0
 15 14  1  0
 16 15  2  0
 17 13  1  0
 18 17  2  0
 20 17  1  0
 21 20  1  0
 21 22  1  6
 23 22  1  0
 24 23  2  0
 25 24  1  0
 26 25  1  0
 26 27  2  0
 27 23  1  0
 28 21  1  0
 28 29  1  0
 30 28  2  0
M  END
$$$$
