RDH.pdb
     RDKit          3D

 30 30  0  0  1  0  0  0  0  0999 V2000
   13.4549  -14.6094  -11.7844 N   0  0  0  0  0  0  0  0  0  0  0  0
   12.8008  -14.0646  -10.6397 C   0  0  0  0  0  0  0  0  0  0  0  0
   12.5454  -14.8212   -9.6426 N   0  0  0  0  0  0  0  0  0  0  0  0
   12.4367  -12.6702  -10.6197 N   0  0  0  0  0  0  0  0  0  0  0  0
   13.3497  -11.7300  -11.2161 C   0  0  0  0  0  0  0  0  0  0  0  0
   12.7602  -10.3475  -11.0444 C   0  0  0  0  0  0  0  0  0  0  0  0
   13.6146   -9.2914  -11.6967 C   0  0  0  0  0  0  0  0  0  0  0  0
   15.0618   -9.4302  -11.2820 C   0  0  2  0  0  0  0  0  0  0  0  0
   15.2031   -9.7130   -9.8791 N   0  0  0  0  0  0  0  0  0  0  0  0
   15.8594   -8.2336  -11.6188 C   0  0  0  0  0  0  0  0  0  0  0  0
   15.8622   -7.7700  -12.8015 O   0  0  0  0  0  0  0  0  0  0  0  0
   12.0652  -14.4760   -8.7925 N   0  0  0  0  0  0  0  0  0  0  0  0
   16.6203   -7.6051  -10.6205 C   0  0  1  0  0  0  0  0  0  0  0  0
   17.2342   -6.2660  -10.8733 C   0  0  0  0  0  0  0  0  0  0  0  0
   17.6108   -5.7492   -9.5261 C   0  0  0  0  0  0  0  0  0  0  0  0
   16.6486   -4.9858   -8.7877 O   0  0  0  0  0  0  0  0  0  0  0  0
   15.5224   -4.5551   -9.0913 C   0  0  0  0  0  0  0  0  0  0  0  0
   18.4312   -6.5730  -11.6647 O   0  0  0  0  0  0  0  0  0  0  0  0
   19.1492   -7.5876  -11.3903 O   0  0  0  0  0  0  0  0  0  0  0  0
   17.0267   -4.6408   -7.4510 N   0  0  0  0  0  0  0  0  0  0  0  0
   18.8515   -5.8036  -12.7436 C   0  0  1  0  0  0  0  0  0  0  0  0
   19.9795   -6.2434  -13.6146 C   0  0  0  0  0  0  0  0  0  0  0  0
   19.2996   -7.0807  -14.6750 C   0  0  0  0  0  0  0  0  0  0  0  0
   19.5959   -8.5260  -14.5769 C   0  0  0  0  0  0  0  0  0  0  0  0
   20.4430   -9.0507  -13.6036 N   0  0  0  0  0  0  0  0  0  0  0  0
   20.4976  -10.3661  -13.7843 C   0  0  0  0  0  0  0  0  0  0  0  0
   19.7181  -10.6568  -14.8268 N   0  0  0  0  0  0  0  0  0  0  0  0
   19.1584   -9.5409  -15.3238 C   0  0  0  0  0  0  0  0  0  0  0  0
   20.5835   -5.0094  -14.1420 O   0  0  0  0  0  0  0  0  0  0  0  0
   21.9009   -4.9896  -14.5387 O   0  0  0  0  0  0  0  0  0  0  0  0
  1  2  1  0
  2  3  2  0
  4  2  1  0
  5  4  1  0
  6  5  1  0
  7  6  1  0
  8 10  1  0
  8  7  1  0
  8  9  1  1
 10 11  2  0
 12 13  1  0
 12 10  1  0
 13 14  1  6
 15 19  1  0
 15 14  1  0
 16 15  2  0
 17 13  1  0
 18 17  2  0
 20 17  1  0
 21 20  1  0
 21 22  1  1
 23 22  1  0
 24 23  2  0
 25 24  1  0
 26 25  1  0
 26 27  2  0
 27 23  1  0
 28 21  1  0
 28 29  1  0
 30 28  2  0
M  END
$$$$
