RDH.pdb
     RDKit          3D

 30 30  0  0  1  0  0  0  0  0999 V2000
   29.9276  -23.4403  -16.9111 N   0  0  0  0  0  0  0  0  0  0  0  0
   29.6637  -22.4150  -17.8671 C   0  0  0  0  0  0  0  0  0  0  0  0
   30.1701  -22.5013  -19.0367 N   0  0  0  0  0  0  0  0  0  0  0  0
   28.8306  -21.2961  -17.5049 N   0  0  0  0  0  0  0  0  0  0  0  0
   28.2659  -21.2814  -16.1805 C   0  0  0  0  0  0  0  0  0  0  0  0
   27.1451  -20.2655  -16.1718 C   0  0  0  0  0  0  0  0  0  0  0  0
   26.5469  -20.1059  -14.7980 C   0  0  0  0  0  0  0  0  0  0  0  0
   25.4646  -21.1329  -14.5536 C   0  0  2  0  0  0  0  0  0  0  0  0
   25.2539  -21.9857  -15.6923 N   0  0  0  0  0  0  0  0  0  0  0  0
   24.1807  -20.5140  -14.1662 C   0  0  0  0  0  0  0  0  0  0  0  0
   24.1183  -19.7185  -13.1779 O   0  0  0  0  0  0  0  0  0  0  0  0
   30.0241  -21.7744  -19.7599 N   0  0  0  0  0  0  0  0  0  0  0  0
   23.0205  -20.8096  -14.8992 C   0  0  2  0  0  0  0  0  0  0  0  0
   21.7393  -20.1012  -14.5981 C   0  0  0  0  0  0  0  0  0  0  0  0
   21.4794  -19.2427  -15.7895 C   0  0  0  0  0  0  0  0  0  0  0  0
   21.3847  -17.8242  -15.6086 O   0  0  0  0  0  0  0  0  0  0  0  0
   20.7905  -17.1341  -14.7621 C   0  0  0  0  0  0  0  0  0  0  0  0
   20.7520  -21.1835  -14.5129 O   0  0  0  0  0  0  0  0  0  0  0  0
   21.0534  -22.3677  -14.8692 O   0  0  0  0  0  0  0  0  0  0  0  0
   22.0952  -17.0300  -16.5642 N   0  0  0  0  0  0  0  0  0  0  0  0
   19.4560  -20.9998  -14.0447 C   0  0  1  0  0  0  0  0  0  0  0  0
   18.4990  -22.1398  -13.9496 C   0  0  0  0  0  0  0  0  0  0  0  0
   18.9703  -22.8940  -12.7262 C   0  0  0  0  0  0  0  0  0  0  0  0
   19.5877  -24.2025  -13.0312 C   0  0  0  0  0  0  0  0  0  0  0  0
   19.7908  -24.6469  -14.3356 N   0  0  0  0  0  0  0  0  0  0  0  0
   20.3601  -25.8458  -14.2682 C   0  0  0  0  0  0  0  0  0  0  0  0
   20.5088  -26.1431  -12.9766 N   0  0  0  0  0  0  0  0  0  0  0  0
   20.0407  -25.1471  -12.2055 C   0  0  0  0  0  0  0  0  0  0  0  0
   17.1680  -21.5333  -13.7861 O   0  0  0  0  0  0  0  0  0  0  0  0
   16.0299  -22.2804  -13.9852 O   0  0  0  0  0  0  0  0  0  0  0  0
  1  2  1  0
  2  3  2  0
  4  2  1  0
  5  4  1  0
  6  5  1  0
  7  6  1  0
  8 10  1  0
  8  7  1  0
  8  9  1  6
 10 11  2  0
 12 13  1  0
 12 10  1  0
 13 14  1  1
 15 19  1  0
 15 14  1  0
 16 15  2  0
 17 13  1  0
 18 17  2  0
 20 17  1  0
 21 20  1  0
 21 22  1  6
 23 22  1  0
 24 23  2  0
 25 24  1  0
 26 25  1  0
 26 27  2  0
 27 23  1  0
 28 21  1  0
 28 29  1  0
 30 28  2  0
M  END
$$$$
