RDH.pdb
     RDKit          3D

 30 30  0  0  1  0  0  0  0  0999 V2000
   27.5723  -28.7208  -15.9378 N   0  0  0  0  0  0  0  0  0  0  0  0
   26.7835  -29.8966  -15.7640 C   0  0  0  0  0  0  0  0  0  0  0  0
   27.2560  -30.8768  -15.0948 N   0  0  0  0  0  0  0  0  0  0  0  0
   25.4654  -29.9661  -16.3428 N   0  0  0  0  0  0  0  0  0  0  0  0
   24.6823  -28.7582  -16.3745 C   0  0  0  0  0  0  0  0  0  0  0  0
   25.2725  -27.8577  -17.4371 C   0  0  0  0  0  0  0  0  0  0  0  0
   24.5429  -26.5420  -17.5221 C   0  0  0  0  0  0  0  0  0  0  0  0
   25.2771  -25.4628  -16.7591 C   0  0  2  0  0  0  0  0  0  0  0  0
   26.5157  -25.9350  -16.2014 N   0  0  0  0  0  0  0  0  0  0  0  0
   24.4526  -24.8762  -15.6832 C   0  0  0  0  0  0  0  0  0  0  0  0
   24.8338  -24.9320  -14.4728 O   0  0  0  0  0  0  0  0  0  0  0  0
   26.7120  -31.7394  -14.9145 N   0  0  0  0  0  0  0  0  0  0  0  0
   23.2371  -24.2519  -16.0046 C   0  0  1  0  0  0  0  0  0  0  0  0
   22.4690  -23.5151  -14.9551 C   0  0  0  0  0  0  0  0  0  0  0  0
   22.2690  -22.1448  -15.5085 C   0  0  0  0  0  0  0  0  0  0  0  0
   21.5727  -21.1763  -14.7141 O   0  0  0  0  0  0  0  0  0  0  0  0
   21.1137  -21.2262  -13.5596 C   0  0  0  0  0  0  0  0  0  0  0  0
   21.1934  -24.2369  -14.8828 O   0  0  0  0  0  0  0  0  0  0  0  0
   20.6165  -24.6448  -15.9416 O   0  0  0  0  0  0  0  0  0  0  0  0
   21.3502  -19.9081  -15.3393 N   0  0  0  0  0  0  0  0  0  0  0  0
   20.5453  -24.5243  -13.6870 C   0  0  2  0  0  0  0  0  0  0  0  0
   19.2956  -25.3378  -13.6605 C   0  0  0  0  0  0  0  0  0  0  0  0
   19.3605  -26.0393  -12.3221 C   0  0  0  0  0  0  0  0  0  0  0  0
   20.1753  -27.2732  -12.3324 C   0  0  0  0  0  0  0  0  0  0  0  0
   20.8069  -27.7419  -13.4820 N   0  0  0  0  0  0  0  0  0  0  0  0
   21.4525  -28.8578  -13.1599 C   0  0  0  0  0  0  0  0  0  0  0  0
   21.2363  -29.0819  -11.8631 N   0  0  0  0  0  0  0  0  0  0  0  0
   20.4559  -28.1206  -11.3412 C   0  0  0  0  0  0  0  0  0  0  0  0
   18.1878  -24.3744  -13.7628 O   0  0  0  0  0  0  0  0  0  0  0  0
   16.8927  -24.8118  -13.9194 O   0  0  0  0  0  0  0  0  0  0  0  0
  1  2  1  0
  2  3  2  0
  4  2  1  0
  5  4  1  0
  6  5  1  0
  7  6  1  0
  8 10  1  0
  8  7  1  0
  8  9  1  1
 10 11  2  0
 12 13  1  0
 12 10  1  0
 13 14  1  6
 15 19  1  0
 15 14  1  0
 16 15  2  0
 17 13  1  0
 18 17  2  0
 20 17  1  0
 21 20  1  0
 21 22  1  6
 23 22  1  0
 24 23  2  0
 25 24  1  0
 26 25  1  0
 26 27  2  0
 27 23  1  0
 28 21  1  0
 28 29  1  0
 30 28  2  0
M  END
$$$$
