RDH.pdb
     RDKit          3D

 30 30  0  0  1  0  0  0  0  0999 V2000
   29.1567  -26.5977  -15.9026 N   0  0  0  0  0  0  0  0  0  0  0  0
   29.8886  -25.7575  -16.7933 C   0  0  0  0  0  0  0  0  0  0  0  0
   30.6521  -26.2861  -17.6705 N   0  0  0  0  0  0  0  0  0  0  0  0
   29.7591  -24.3255  -16.6950 N   0  0  0  0  0  0  0  0  0  0  0  0
   28.4478  -23.7864  -16.4439 C   0  0  0  0  0  0  0  0  0  0  0  0
   28.5816  -22.2826  -16.3480 C   0  0  0  0  0  0  0  0  0  0  0  0
   27.2620  -21.6231  -16.0409 C   0  0  0  0  0  0  0  0  0  0  0  0
   26.6897  -20.9535  -17.2697 C   0  0  2  0  0  0  0  0  0  0  0  0
   27.6962  -20.2729  -18.0392 N   0  0  0  0  0  0  0  0  0  0  0  0
   25.6071  -20.0047  -16.9391 C   0  0  0  0  0  0  0  0  0  0  0  0
   25.8760  -18.8499  -16.4834 O   0  0  0  0  0  0  0  0  0  0  0  0
   31.3139  -25.7282  -18.2391 N   0  0  0  0  0  0  0  0  0  0  0  0
   24.2698  -20.3858  -17.1314 C   0  0  1  0  0  0  0  0  0  0  0  0
   23.1603  -19.4994  -16.6653 C   0  0  0  0  0  0  0  0  0  0  0  0
   22.2096  -19.4292  -17.8121 C   0  0  0  0  0  0  0  0  0  0  0  0
   21.5738  -18.1784  -18.1039 O   0  0  0  0  0  0  0  0  0  0  0  0
   20.8094  -17.8308  -19.0209 C   0  0  0  0  0  0  0  0  0  0  0  0
   22.5681  -20.2389  -15.5447 O   0  0  0  0  0  0  0  0  0  0  0  0
   22.3474  -21.4892  -15.6354 O   0  0  0  0  0  0  0  0  0  0  0  0
   21.8519  -17.1145  -17.1876 N   0  0  0  0  0  0  0  0  0  0  0  0
   22.2213  -19.6455  -14.3363 C   0  0  2  0  0  0  0  0  0  0  0  0
   21.5565  -20.4266  -13.2536 C   0  0  0  0  0  0  0  0  0  0  0  0
   22.2992  -20.0019  -12.0063 C   0  0  0  0  0  0  0  0  0  0  0  0
   23.5057  -20.8091  -11.7247 C   0  0  0  0  0  0  0  0  0  0  0  0
   24.5288  -20.9735  -12.6555 N   0  0  0  0  0  0  0  0  0  0  0  0
   25.4582  -21.7440  -12.1001 C   0  0  0  0  0  0  0  0  0  0  0  0
   25.0380  -22.0513  -10.8723 N   0  0  0  0  0  0  0  0  0  0  0  0
   23.8437  -21.4867  -10.6265 C   0  0  0  0  0  0  0  0  0  0  0  0
   20.1457  -20.0076  -13.2653 O   0  0  0  0  0  0  0  0  0  0  0  0
   19.1717  -20.8156  -12.7254 O   0  0  0  0  0  0  0  0  0  0  0  0
  1  2  1  0
  2  3  2  0
  4  2  1  0
  5  4  1  0
  6  5  1  0
  7  6  1  0
  8 10  1  0
  8  7  1  0
  8  9  1  1
 10 11  2  0
 12 13  1  0
 12 10  1  0
 13 14  1  6
 15 19  1  0
 15 14  1  0
 16 15  2  0
 17 13  1  0
 18 17  2  0
 20 17  1  0
 21 20  1  0
 21 22  1  6
 23 22  1  0
 24 23  2  0
 25 24  1  0
 26 25  1  0
 26 27  2  0
 27 23  1  0
 28 21  1  0
 28 29  1  0
 30 28  2  0
M  END
$$$$
