RDH.pdb
     RDKit          3D

 30 30  0  0  1  0  0  0  0  0999 V2000
   14.6635  -13.2729  -19.1718 N   0  0  0  0  0  0  0  0  0  0  0  0
   15.1206  -13.5383  -17.8468 C   0  0  0  0  0  0  0  0  0  0  0  0
   14.2715  -13.8106  -16.9320 N   0  0  0  0  0  0  0  0  0  0  0  0
   16.5314  -13.4973  -17.5549 N   0  0  0  0  0  0  0  0  0  0  0  0
   17.4222  -13.0822  -18.6073 C   0  0  0  0  0  0  0  0  0  0  0  0
   18.8372  -13.2222  -18.0911 C   0  0  0  0  0  0  0  0  0  0  0  0
   19.8540  -12.8942  -19.1538 C   0  0  0  0  0  0  0  0  0  0  0  0
   21.2606  -13.1286  -18.6513 C   0  0  2  0  0  0  0  0  0  0  0  0
   21.4223  -14.4340  -18.0700 N   0  0  0  0  0  0  0  0  0  0  0  0
   21.6853  -12.1058  -17.6740 C   0  0  0  0  0  0  0  0  0  0  0  0
   21.5555  -12.3096  -16.4270 O   0  0  0  0  0  0  0  0  0  0  0  0
   14.5549  -14.0516  -15.9655 N   0  0  0  0  0  0  0  0  0  0  0  0
   22.2370  -10.8985  -18.1308 C   0  0  2  0  0  0  0  0  0  0  0  0
   22.6918   -9.8621  -17.1545 C   0  0  0  0  0  0  0  0  0  0  0  0
   23.7622   -9.1027  -17.8628 C   0  0  0  0  0  0  0  0  0  0  0  0
   24.3809   -7.9975  -17.1924 O   0  0  0  0  0  0  0  0  0  0  0  0
   24.2195   -7.5219  -16.0549 C   0  0  0  0  0  0  0  0  0  0  0  0
   21.5046   -9.0228  -16.9559 O   0  0  0  0  0  0  0  0  0  0  0  0
   20.7469   -8.7266  -17.9348 O   0  0  0  0  0  0  0  0  0  0  0  0
   25.3715   -7.2920  -17.9472 N   0  0  0  0  0  0  0  0  0  0  0  0
   21.1295   -8.5108  -15.7191 C   0  0  1  0  0  0  0  0  0  0  0  0
   19.8923   -7.6926  -15.5634 C   0  0  0  0  0  0  0  0  0  0  0  0
   19.1998   -8.3239  -14.3762 C   0  0  0  0  0  0  0  0  0  0  0  0
   18.3471   -9.4800  -14.7265 C   0  0  0  0  0  0  0  0  0  0  0  0
   18.2098   -9.9381  -16.0347 N   0  0  0  0  0  0  0  0  0  0  0  0
   17.3853  -10.9800  -16.0118 C   0  0  0  0  0  0  0  0  0  0  0  0
   17.0193  -11.1695  -14.7434 N   0  0  0  0  0  0  0  0  0  0  0  0
   17.5996  -10.2592  -13.9432 C   0  0  0  0  0  0  0  0  0  0  0  0
   20.3505   -6.3172  -15.3099 O   0  0  0  0  0  0  0  0  0  0  0  0
   19.4467   -5.2832  -15.2263 O   0  0  0  0  0  0  0  0  0  0  0  0
  1  2  1  0
  2  3  2  0
  4  2  1  0
  5  4  1  0
  6  5  1  0
  7  6  1  0
  8 10  1  0
  8  7  1  0
  8  9  1  1
 10 11  2  0
 12 13  1  0
 12 10  1  0
 13 14  1  6
 15 19  1  0
 15 14  1  0
 16 15  2  0
 17 13  1  0
 18 17  2  0
 20 17  1  0
 21 20  1  0
 21 22  1  6
 23 22  1  0
 24 23  2  0
 25 24  1  0
 26 25  1  0
 26 27  2  0
 27 23  1  0
 28 21  1  0
 28 29  1  0
 30 28  2  0
M  END
$$$$
