RDH.pdb
     RDKit          3D

 30 30  0  0  1  0  0  0  0  0999 V2000
   16.6702  -17.7468  -13.8933 N   0  0  0  0  0  0  0  0  0  0  0  0
   17.2307  -18.1034  -15.1557 C   0  0  0  0  0  0  0  0  0  0  0  0
   17.8456  -19.2164  -15.2781 N   0  0  0  0  0  0  0  0  0  0  0  0
   17.0972  -17.2074  -16.2767 N   0  0  0  0  0  0  0  0  0  0  0  0
   17.6550  -15.8861  -16.1492 C   0  0  0  0  0  0  0  0  0  0  0  0
   17.4384  -15.1690  -17.4635 C   0  0  0  0  0  0  0  0  0  0  0  0
   18.0894  -13.8100  -17.4718 C   0  0  0  0  0  0  0  0  0  0  0  0
   17.0893  -12.7260  -17.1392 C   0  0  2  0  0  0  0  0  0  0  0  0
   15.9141  -12.7954  -17.9651 N   0  0  0  0  0  0  0  0  0  0  0  0
   17.6738  -11.3733  -17.2392 C   0  0  0  0  0  0  0  0  0  0  0  0
   18.0835  -10.9267  -18.3556 O   0  0  0  0  0  0  0  0  0  0  0  0
   18.2181  -19.5479  -16.1858 N   0  0  0  0  0  0  0  0  0  0  0  0
   17.7760  -10.5763  -16.0881 C   0  0  2  0  0  0  0  0  0  0  0  0
   18.3881   -9.2150  -16.1673 C   0  0  0  0  0  0  0  0  0  0  0  0
   17.3466   -8.2880  -15.6383 C   0  0  0  0  0  0  0  0  0  0  0  0
   17.6740   -6.9016  -15.4820 O   0  0  0  0  0  0  0  0  0  0  0  0
   18.6721   -6.2420  -15.8210 C   0  0  0  0  0  0  0  0  0  0  0  0
   19.5304   -9.2905  -15.2493 O   0  0  0  0  0  0  0  0  0  0  0  0
   19.6332  -10.2481  -14.4170 O   0  0  0  0  0  0  0  0  0  0  0  0
   16.6890   -6.1046  -14.8163 N   0  0  0  0  0  0  0  0  0  0  0  0
   20.5558   -8.3521  -15.2274 C   0  0  2  0  0  0  0  0  0  0  0  0
   21.9449   -8.7330  -14.8404 C   0  0  0  0  0  0  0  0  0  0  0  0
   22.3082   -9.8053  -15.8433 C   0  0  0  0  0  0  0  0  0  0  0  0
   23.7026  -10.2839  -15.7284 C   0  0  0  0  0  0  0  0  0  0  0  0
   24.5723   -9.8220  -14.7434 N   0  0  0  0  0  0  0  0  0  0  0  0
   25.7356  -10.4423  -14.9106 C   0  0  0  0  0  0  0  0  0  0  0  0
   25.6035  -11.2596  -15.9562 N   0  0  0  0  0  0  0  0  0  0  0  0
   24.3643  -11.1747  -16.4687 C   0  0  0  0  0  0  0  0  0  0  0  0
   22.7493   -7.5080  -14.9768 O   0  0  0  0  0  0  0  0  0  0  0  0
   23.8202   -7.2783  -14.1440 O   0  0  0  0  0  0  0  0  0  0  0  0
  1  2  1  0
  2  3  2  0
  4  2  1  0
  5  4  1  0
  6  5  1  0
  7  6  1  0
  8 10  1  0
  8  7  1  0
  8  9  1  6
 10 11  2  0
 12 13  1  0
 12 10  1  0
 13 14  1  1
 15 19  1  0
 15 14  1  0
 16 15  2  0
 17 13  1  0
 18 17  2  0
 20 17  1  0
 21 20  1  0
 21 22  1  1
 23 22  1  0
 24 23  2  0
 25 24  1  0
 26 25  1  0
 26 27  2  0
 27 23  1  0
 28 21  1  0
 28 29  1  0
 30 28  2  0
M  END
$$$$
