RWQ.pdb
     RDKit          3D

 35 36  0  0  1  0  0  0  0  0999 V2000
    8.5648  -12.4551   17.4379 N   0  0  0  0  0  0  0  0  0  0  0  0
    8.1328  -13.7158   16.9356 C   0  0  0  0  0  0  0  0  0  0  0  0
    8.1321  -13.9167   15.6666 N   0  0  0  0  0  0  0  0  0  0  0  0
    7.7092  -14.7424   17.8011 N   0  0  0  0  0  0  0  0  0  0  0  0
    7.8120  -14.5801   19.2291 C   0  0  0  0  0  0  0  0  0  0  0  0
    8.3009  -15.8845   19.8628 C   0  0  0  0  0  0  0  0  0  0  0  0
    9.1588  -15.5430   21.0337 C   0  0  0  0  0  0  0  0  0  0  0  0
    9.8018  -16.7275   21.7103 C   0  0  2  0  0  0  0  0  0  0  0  0
    9.1384  -17.9739   21.4922 N   0  0  0  0  0  0  0  0  0  0  0  0
    9.9399  -16.3688   23.1585 C   0  0  0  0  0  0  0  0  0  0  0  0
   10.7261  -15.4529   23.4711 O   0  0  0  0  0  0  0  0  0  0  0  0
    7.8612  -14.8187   15.2253 N   0  0  0  0  0  0  0  0  0  0  0  0
    9.1651  -17.0966   24.0928 C   0  0  1  0  0  0  0  0  0  0  0  0
    9.3472  -16.8028   25.4844 C   0  0  0  0  0  0  0  0  0  0  0  0
    8.1117  -16.5561   26.2634 C   0  0  0  0  0  0  0  0  0  0  0  0
    7.2899  -15.4316   25.8134 C   0  0  0  0  0  0  0  0  0  0  0  0
    6.2970  -15.4516   24.8671 N   0  0  0  0  0  0  0  0  0  0  0  0
    5.7468  -14.2340   24.7141 C   0  0  0  0  0  0  0  0  0  0  0  0
    6.3817  -13.4031   25.5654 C   0  0  0  0  0  0  0  0  0  0  0  0
    6.1775  -12.0518   25.7750 C   0  0  0  0  0  0  0  0  0  0  0  0
    6.9651  -11.4207   26.7070 C   0  0  0  0  0  0  0  0  0  0  0  0
    7.9241  -12.1274   27.4021 C   0  0  0  0  0  0  0  0  0  0  0  0
    8.1140  -13.4731   27.1797 C   0  0  0  0  0  0  0  0  0  0  0  0
    7.3482  -14.1264   26.2619 C   0  0  0  0  0  0  0  0  0  0  0  0
   10.0062  -18.0281   26.0950 O   0  0  0  0  0  0  0  0  0  0  0  0
    9.4733  -19.1625   25.9794 N   0  0  0  0  0  0  0  0  0  0  0  0
   15.4446  -20.2876   25.8117 C   0  0  0  0  0  0  0  0  0  0  0  0
   15.0480  -18.9564   25.5077 O   0  0  0  0  0  0  0  0  0  0  0  0
   15.7770  -18.2598   24.7746 C   0  0  0  0  0  0  0  0  0  0  0  0
   13.7660  -18.4571   26.0899 C   0  0  0  0  0  0  0  0  0  0  0  0
   13.1030  -19.5172   26.9270 C   0  0  1  0  0  0  0  0  0  0  0  0
   11.7618  -19.1415   27.4627 N   0  0  0  0  0  0  0  0  0  0  0  0
   11.2201  -17.9634   26.8042 C   0  0  0  0  0  0  0  0  0  0  0  0
   11.7301  -18.9509   28.9345 O   0  0  0  0  0  0  0  0  0  0  0  0
   12.1034  -19.7853   29.7863 O   0  0  0  0  0  0  0  0  0  0  0  0
  2  1  1  0
  3  2  2  0
  4  2  1  0
  5  4  1  0
  6  5  1  0
  7  6  1  0
  8 10  1  0
  8  7  1  0
  8  9  1  1
 10 11  2  0
 10 12  1  0
 12 13  1  0
 13 24  1  0
 13 14  1  1
 15 16  2  0
 15 14  1  0
 17 16  1  0
 18 23  2  0
 18 17  1  0
 19 18  1  0
 20 21  1  0
 20 19  2  0
 21 22  2  0
 22 23  1  0
 23 15  1  0
 24 25  2  0
 24 32  1  0
 27 29  1  0
 27 26  1  0
 28 27  2  0
 31 30  1  6
 30 29  1  0
 31 33  1  0
 32 31  1  0
 33 34  2  0
 33 35  1  0
M  END
$$$$
