RWQ.pdb
     RDKit          3D

 35 36  0  0  1  0  0  0  0  0999 V2000
    9.5598  -13.1197   17.0950 N   0  0  0  0  0  0  0  0  0  0  0  0
    8.3030  -13.3871   16.4805 C   0  0  0  0  0  0  0  0  0  0  0  0
    8.1822  -13.2331   15.2107 N   0  0  0  0  0  0  0  0  0  0  0  0
    7.1954  -13.8165   17.2363 N   0  0  0  0  0  0  0  0  0  0  0  0
    7.3897  -14.5369   18.4689 C   0  0  0  0  0  0  0  0  0  0  0  0
    7.2600  -16.0403   18.2138 C   0  0  0  0  0  0  0  0  0  0  0  0
    8.5285  -16.6984   18.6397 C   0  0  0  0  0  0  0  0  0  0  0  0
    8.4239  -17.5059   19.9090 C   0  0  2  0  0  0  0  0  0  0  0  0
    7.0882  -17.7627   20.3464 N   0  0  0  0  0  0  0  0  0  0  0  0
    9.2638  -16.8039   20.9321 C   0  0  0  0  0  0  0  0  0  0  0  0
   10.4424  -16.5209   20.6401 O   0  0  0  0  0  0  0  0  0  0  0  0
    7.2967  -13.3992   14.6911 N   0  0  0  0  0  0  0  0  0  0  0  0
    8.6658  -16.5021   22.1788 C   0  0  1  0  0  0  0  0  0  0  0  0
    9.4340  -15.7428   23.1218 C   0  0  0  0  0  0  0  0  0  0  0  0
    8.8389  -14.4594   23.5611 C   0  0  0  0  0  0  0  0  0  0  0  0
    7.8532  -14.5513   24.6390 C   0  0  0  0  0  0  0  0  0  0  0  0
    7.1153  -15.6493   25.0017 N   0  0  0  0  0  0  0  0  0  0  0  0
    6.3128  -15.3727   26.0449 C   0  0  0  0  0  0  0  0  0  0  0  0
    6.5218  -14.0817   26.3735 C   0  0  0  0  0  0  0  0  0  0  0  0
    5.9315  -13.3335   27.3752 C   0  0  0  0  0  0  0  0  0  0  0  0
    6.3160  -12.0214   27.5075 C   0  0  0  0  0  0  0  0  0  0  0  0
    7.2617  -11.4835   26.6598 C   0  0  0  0  0  0  0  0  0  0  0  0
    7.8387  -12.2437   25.6669 C   0  0  0  0  0  0  0  0  0  0  0  0
    7.4778  -13.5480   25.5113 C   0  0  0  0  0  0  0  0  0  0  0  0
    9.5593  -16.6090   24.3637 O   0  0  0  0  0  0  0  0  0  0  0  0
    8.5620  -17.2365   24.8062 N   0  0  0  0  0  0  0  0  0  0  0  0
   14.9055  -19.4266   25.2394 C   0  0  0  0  0  0  0  0  0  0  0  0
   14.1764  -20.0856   26.2669 O   0  0  0  0  0  0  0  0  0  0  0  0
   14.7291  -20.9984   26.9116 C   0  0  0  0  0  0  0  0  0  0  0  0
   12.7715  -19.6459   26.5216 C   0  0  0  0  0  0  0  0  0  0  0  0
   12.4048  -18.4755   25.6500 C   0  0  1  0  0  0  0  0  0  0  0  0
   11.0272  -17.9438   25.8658 N   0  0  0  0  0  0  0  0  0  0  0  0
   10.7685  -16.7551   25.0688 C   0  0  0  0  0  0  0  0  0  0  0  0
   10.6991  -17.6736   27.2880 O   0  0  0  0  0  0  0  0  0  0  0  0
   10.6565  -16.5463   27.8253 O   0  0  0  0  0  0  0  0  0  0  0  0
  2  1  1  0
  3  2  2  0
  4  2  1  0
  5  4  1  0
  6  5  1  0
  7  6  1  0
  8 10  1  0
  8  7  1  0
  8  9  1  1
 10 11  2  0
 10 12  1  0
 12 13  1  0
 13 24  1  0
 13 14  1  6
 15 16  2  0
 15 14  1  0
 17 16  1  0
 18 23  2  0
 18 17  1  0
 19 18  1  0
 20 21  1  0
 20 19  2  0
 21 22  2  0
 22 23  1  0
 23 15  1  0
 24 25  2  0
 24 32  1  0
 27 29  1  0
 27 26  1  0
 28 27  2  0
 31 30  1  6
 30 29  1  0
 31 33  1  0
 32 31  1  0
 33 34  2  0
 33 35  1  0
M  END
$$$$
