RWQ.pdb
     RDKit          3D

 35 36  0  0  1  0  0  0  0  0999 V2000
    7.5886  -11.9978   19.4533 N   0  0  0  0  0  0  0  0  0  0  0  0
    7.8768  -12.9526   18.4366 C   0  0  0  0  0  0  0  0  0  0  0  0
    8.7156  -12.6482   17.5122 N   0  0  0  0  0  0  0  0  0  0  0  0
    7.2625  -14.2194   18.4269 N   0  0  0  0  0  0  0  0  0  0  0  0
    6.5645  -14.6996   19.5924 C   0  0  0  0  0  0  0  0  0  0  0  0
    7.2175  -15.9915   20.0891 C   0  0  0  0  0  0  0  0  0  0  0  0
    7.9414  -15.6921   21.3579 C   0  0  0  0  0  0  0  0  0  0  0  0
    8.7504  -16.8400   21.9076 C   0  0  2  0  0  0  0  0  0  0  0  0
    8.0335  -18.0690   22.0375 N   0  0  0  0  0  0  0  0  0  0  0  0
    9.3534  -16.3605   23.1927 C   0  0  0  0  0  0  0  0  0  0  0  0
   10.1120  -15.3715   23.1601 O   0  0  0  0  0  0  0  0  0  0  0  0
    8.9682  -13.2851   16.7298 N   0  0  0  0  0  0  0  0  0  0  0  0
    9.0248  -17.0640   24.3759 C   0  0  1  0  0  0  0  0  0  0  0  0
    9.6397  -16.6378   25.5991 C   0  0  0  0  0  0  0  0  0  0  0  0
    8.7176  -16.1891   26.6679 C   0  0  0  0  0  0  0  0  0  0  0  0
    7.6349  -15.3009   26.2424 C   0  0  0  0  0  0  0  0  0  0  0  0
    6.3717  -15.6585   25.8447 N   0  0  0  0  0  0  0  0  0  0  0  0
    5.6363  -14.5770   25.5312 C   0  0  0  0  0  0  0  0  0  0  0  0
    6.4202  -13.4965   25.7226 C   0  0  0  0  0  0  0  0  0  0  0  0
    6.1194  -12.1603   25.5335 C   0  0  0  0  0  0  0  0  0  0  0  0
    7.1020  -11.2376   25.7985 C   0  0  0  0  0  0  0  0  0  0  0  0
    8.3431  -11.6481   26.2380 C   0  0  0  0  0  0  0  0  0  0  0  0
    8.6252  -12.9837   26.4201 C   0  0  0  0  0  0  0  0  0  0  0  0
    7.6710  -13.9221   26.1659 C   0  0  0  0  0  0  0  0  0  0  0  0
   10.3806  -17.8463   26.1460 O   0  0  0  0  0  0  0  0  0  0  0  0
    9.8155  -18.9696   26.1996 N   0  0  0  0  0  0  0  0  0  0  0  0
   16.4242  -19.2132   26.2187 C   0  0  0  0  0  0  0  0  0  0  0  0
   15.5700  -18.9068   25.1241 O   0  0  0  0  0  0  0  0  0  0  0  0
   16.0694  -18.7439   23.9934 C   0  0  0  0  0  0  0  0  0  0  0  0
   14.1042  -18.7938   25.3895 C   0  0  0  0  0  0  0  0  0  0  0  0
   13.7992  -19.0206   26.8453 C   0  0  2  0  0  0  0  0  0  0  0  0
   12.3517  -18.9403   27.1998 N   0  0  0  0  0  0  0  0  0  0  0  0
   11.7077  -17.7775   26.6096 C   0  0  0  0  0  0  0  0  0  0  0  0
   12.0838  -18.9734   28.6594 O   0  0  0  0  0  0  0  0  0  0  0  0
   11.4739  -18.0976   29.3092 O   0  0  0  0  0  0  0  0  0  0  0  0
  2  1  1  0
  3  2  2  0
  4  2  1  0
  5  4  1  0
  6  5  1  0
  7  6  1  0
  8 10  1  0
  8  7  1  0
  8  9  1  1
 10 11  2  0
 10 12  1  0
 12 13  1  0
 13 24  1  0
 13 14  1  1
 15 16  2  0
 15 14  1  0
 17 16  1  0
 18 23  2  0
 18 17  1  0
 19 18  1  0
 20 21  1  0
 20 19  2  0
 21 22  2  0
 22 23  1  0
 23 15  1  0
 24 25  2  0
 24 32  1  0
 27 29  1  0
 27 26  1  0
 28 27  2  0
 31 30  1  6
 30 29  1  0
 31 33  1  0
 32 31  1  0
 33 34  2  0
 33 35  1  0
M  END
$$$$
