RWQ.pdb
     RDKit          3D

 35 36  0  0  1  0  0  0  0  0999 V2000
    7.8472  -15.1147   15.3837 N   0  0  0  0  0  0  0  0  0  0  0  0
    7.6722  -13.7270   15.6522 C   0  0  0  0  0  0  0  0  0  0  0  0
    7.0815  -12.9907   14.7806 N   0  0  0  0  0  0  0  0  0  0  0  0
    8.1319  -13.1499   16.8514 N   0  0  0  0  0  0  0  0  0  0  0  0
    9.0659  -13.8580   17.6894 C   0  0  0  0  0  0  0  0  0  0  0  0
    8.3133  -14.8580   18.5703 C   0  0  0  0  0  0  0  0  0  0  0  0
    8.8042  -14.7099   19.9706 C   0  0  0  0  0  0  0  0  0  0  0  0
    9.1177  -16.0093   20.6689 C   0  0  2  0  0  0  0  0  0  0  0  0
    8.0350  -16.9403   20.7147 N   0  0  0  0  0  0  0  0  0  0  0  0
    9.6543  -15.6488   22.0206 C   0  0  0  0  0  0  0  0  0  0  0  0
   10.5558  -14.7905   22.0921 O   0  0  0  0  0  0  0  0  0  0  0  0
    6.9961  -11.9573   14.8609 N   0  0  0  0  0  0  0  0  0  0  0  0
    9.1030  -16.3093   23.1443 C   0  0  1  0  0  0  0  0  0  0  0  0
    9.7167  -16.0823   24.4201 C   0  0  0  0  0  0  0  0  0  0  0  0
    8.8342  -16.2281   25.6008 C   0  0  0  0  0  0  0  0  0  0  0  0
    7.6872  -15.3204   25.6535 C   0  0  0  0  0  0  0  0  0  0  0  0
    6.3575  -15.6550   25.6120 N   0  0  0  0  0  0  0  0  0  0  0  0
    5.5784  -14.5617   25.6920 C   0  0  0  0  0  0  0  0  0  0  0  0
    6.4000  -13.4965   25.7863 C   0  0  0  0  0  0  0  0  0  0  0  0
    6.0765  -12.1560   25.8874 C   0  0  0  0  0  0  0  0  0  0  0  0
    7.1072  -11.2515   25.9685 C   0  0  0  0  0  0  0  0  0  0  0  0
    8.4168  -11.6838   25.9481 C   0  0  0  0  0  0  0  0  0  0  0  0
    8.7203  -13.0232   25.8462 C   0  0  0  0  0  0  0  0  0  0  0  0
    7.7196  -13.9439   25.7643 C   0  0  0  0  0  0  0  0  0  0  0  0
   10.8052  -17.1328   24.5613 O   0  0  0  0  0  0  0  0  0  0  0  0
   10.6091  -18.3109   24.1641 N   0  0  0  0  0  0  0  0  0  0  0  0
   10.5530  -15.3224   29.5704 C   0  0  0  0  0  0  0  0  0  0  0  0
   11.2229  -16.5146   29.9597 O   0  0  0  0  0  0  0  0  0  0  0  0
   11.1739  -16.8750   31.1522 C   0  0  0  0  0  0  0  0  0  0  0  0
   11.9590  -17.2798   28.9088 C   0  0  0  0  0  0  0  0  0  0  0  0
   11.6752  -16.7266   27.5386 C   0  0  1  0  0  0  0  0  0  0  0  0
   12.4278  -17.3856   26.4310 N   0  0  0  0  0  0  0  0  0  0  0  0
   12.0624  -16.8522   25.1283 C   0  0  0  0  0  0  0  0  0  0  0  0
   12.3102  -18.8653   26.4166 O   0  0  0  0  0  0  0  0  0  0  0  0
   13.2519  -19.6733   26.5631 O   0  0  0  0  0  0  0  0  0  0  0  0
  2  1  1  0
  3  2  2  0
  4  2  1  0
  5  4  1  0
  6  5  1  0
  7  6  1  0
  8 10  1  0
  8  7  1  0
  8  9  1  1
 10 11  2  0
 10 12  1  0
 12 13  1  0
 13 24  1  0
 13 14  1  1
 15 16  2  0
 15 14  1  0
 17 16  1  0
 18 23  2  0
 18 17  1  0
 19 18  1  0
 20 21  1  0
 20 19  2  0
 21 22  2  0
 22 23  1  0
 23 15  1  0
 24 25  2  0
 24 32  1  0
 27 29  1  0
 27 26  1  0
 28 27  2  0
 31 30  1  1
 30 29  1  0
 31 33  1  0
 32 31  1  0
 33 34  2  0
 33 35  1  0
M  END
$$$$
