RWQ.pdb
     RDKit          3D

 35 36  0  0  1  0  0  0  0  0999 V2000
    9.7968  -14.3039   17.0517 N   0  0  0  0  0  0  0  0  0  0  0  0
    8.5128  -13.6948   17.1455 C   0  0  0  0  0  0  0  0  0  0  0  0
    8.2237  -12.7204   16.3595 N   0  0  0  0  0  0  0  0  0  0  0  0
    7.5578  -14.1402   18.0793 N   0  0  0  0  0  0  0  0  0  0  0  0
    7.0180  -15.4731   17.9900 C   0  0  0  0  0  0  0  0  0  0  0  0
    6.4913  -15.9093   19.3591 C   0  0  0  0  0  0  0  0  0  0  0  0
    7.5308  -15.5970   20.3815 C   0  0  0  0  0  0  0  0  0  0  0  0
    8.1194  -16.8027   21.0701 C   0  0  2  0  0  0  0  0  0  0  0  0
    7.1629  -17.7748   21.4959 N   0  0  0  0  0  0  0  0  0  0  0  0
    8.9788  -16.2823   22.1816 C   0  0  0  0  0  0  0  0  0  0  0  0
    9.8700  -15.4550   21.9058 O   0  0  0  0  0  0  0  0  0  0  0  0
    7.2765  -12.2968   16.2900 N   0  0  0  0  0  0  0  0  0  0  0  0
    8.7273  -16.7646   23.4881 C   0  0  1  0  0  0  0  0  0  0  0  0
    9.5108  -16.2259   24.5614 C   0  0  0  0  0  0  0  0  0  0  0  0
    8.8439  -16.1587   25.8824 C   0  0  0  0  0  0  0  0  0  0  0  0
    7.6237  -15.3524   25.9386 C   0  0  0  0  0  0  0  0  0  0  0  0
    6.3274  -15.8003   25.9139 N   0  0  0  0  0  0  0  0  0  0  0  0
    5.4580  -14.7771   25.9919 C   0  0  0  0  0  0  0  0  0  0  0  0
    6.1858  -13.6445   26.0681 C   0  0  0  0  0  0  0  0  0  0  0  0
    5.7494  -12.3358   26.1602 C   0  0  0  0  0  0  0  0  0  0  0  0
    6.6992  -11.3454   26.2224 C   0  0  0  0  0  0  0  0  0  0  0  0
    8.0409  -11.6638   26.1925 C   0  0  0  0  0  0  0  0  0  0  0  0
    8.4573  -12.9732   26.0997 C   0  0  0  0  0  0  0  0  0  0  0  0
    7.5388  -13.9771   26.0366 C   0  0  0  0  0  0  0  0  0  0  0  0
   10.7026  -17.1539   24.7252 O   0  0  0  0  0  0  0  0  0  0  0  0
   10.5454  -18.4025   24.7061 N   0  0  0  0  0  0  0  0  0  0  0  0
   15.8370  -14.9364   22.5920 C   0  0  0  0  0  0  0  0  0  0  0  0
   15.2360  -16.1228   22.0892 O   0  0  0  0  0  0  0  0  0  0  0  0
   15.7490  -16.6916   21.1055 C   0  0  0  0  0  0  0  0  0  0  0  0
   14.0079  -16.6298   22.7722 C   0  0  0  0  0  0  0  0  0  0  0  0
   14.3156  -17.0787   24.1750 C   0  0  2  0  0  0  0  0  0  0  0  0
   13.1419  -17.5993   24.9356 N   0  0  0  0  0  0  0  0  0  0  0  0
   12.0159  -16.6794   24.9008 C   0  0  0  0  0  0  0  0  0  0  0  0
   13.4461  -17.9646   26.3418 O   0  0  0  0  0  0  0  0  0  0  0  0
   14.3402  -18.7543   26.7132 O   0  0  0  0  0  0  0  0  0  0  0  0
  2  1  1  0
  3  2  2  0
  4  2  1  0
  5  4  1  0
  6  5  1  0
  7  6  1  0
  8 10  1  0
  8  7  1  0
  8  9  1  1
 10 11  2  0
 10 12  1  0
 12 13  1  0
 13 24  1  0
 13 14  1  1
 15 16  2  0
 15 14  1  0
 17 16  1  0
 18 23  2  0
 18 17  1  0
 19 18  1  0
 20 21  1  0
 20 19  2  0
 21 22  2  0
 22 23  1  0
 23 15  1  0
 24 25  2  0
 24 32  1  0
 27 29  1  0
 27 26  1  0
 28 27  2  0
 31 30  1  6
 30 29  1  0
 31 33  1  0
 32 31  1  0
 33 34  2  0
 33 35  1  0
M  END
$$$$
