RWQ.pdb
     RDKit          3D

 35 36  0  0  1  0  0  0  0  0999 V2000
    7.1010  -14.4196   14.2677 N   0  0  0  0  0  0  0  0  0  0  0  0
    7.9840  -14.2617   15.3739 C   0  0  0  0  0  0  0  0  0  0  0  0
    8.4999  -13.1075   15.6028 N   0  0  0  0  0  0  0  0  0  0  0  0
    8.2996  -15.3431   16.2186 N   0  0  0  0  0  0  0  0  0  0  0  0
    8.7559  -15.1069   17.5648 C   0  0  0  0  0  0  0  0  0  0  0  0
    7.5566  -14.8352   18.4758 C   0  0  0  0  0  0  0  0  0  0  0  0
    8.0695  -14.4436   19.8201 C   0  0  0  0  0  0  0  0  0  0  0  0
    8.9954  -15.4483   20.4583 C   0  0  2  0  0  0  0  0  0  0  0  0
    8.5310  -16.7990   20.4195 N   0  0  0  0  0  0  0  0  0  0  0  0
    9.2748  -14.9515   21.8440 C   0  0  0  0  0  0  0  0  0  0  0  0
    9.5964  -13.7561   21.9927 O   0  0  0  0  0  0  0  0  0  0  0  0
    9.1863  -12.9227   16.3620 N   0  0  0  0  0  0  0  0  0  0  0  0
    9.1573  -15.8752   22.9098 C   0  0  1  0  0  0  0  0  0  0  0  0
    9.3152  -15.3778   24.2453 C   0  0  0  0  0  0  0  0  0  0  0  0
    8.3072  -15.8319   25.2311 C   0  0  0  0  0  0  0  0  0  0  0  0
    7.1343  -14.9700   25.3846 C   0  0  0  0  0  0  0  0  0  0  0  0
    5.8212  -15.3041   25.1704 N   0  0  0  0  0  0  0  0  0  0  0  0
    5.0078  -14.2621   25.4182 C   0  0  0  0  0  0  0  0  0  0  0  0
    5.7898  -13.2314   25.7984 C   0  0  0  0  0  0  0  0  0  0  0  0
    5.4222  -11.9469   26.1542 C   0  0  0  0  0  0  0  0  0  0  0  0
    6.4183  -11.0680   26.5040 C   0  0  0  0  0  0  0  0  0  0  0  0
    7.7375  -11.4703   26.4948 C   0  0  0  0  0  0  0  0  0  0  0  0
    8.0853  -12.7538   26.1368 C   0  0  0  0  0  0  0  0  0  0  0  0
    7.1196  -13.6481   25.7852 C   0  0  0  0  0  0  0  0  0  0  0  0
   10.6595  -15.8903   24.7337 O   0  0  0  0  0  0  0  0  0  0  0  0
   10.9282  -15.9028   25.9632 N   0  0  0  0  0  0  0  0  0  0  0  0
   13.3698  -20.1772   26.7748 C   0  0  0  0  0  0  0  0  0  0  0  0
   12.1533  -20.3957   26.0718 O   0  0  0  0  0  0  0  0  0  0  0  0
   11.1694  -20.8474   26.6900 C   0  0  0  0  0  0  0  0  0  0  0  0
   12.1183  -20.0704   24.6141 C   0  0  0  0  0  0  0  0  0  0  0  0
   11.4394  -18.7498   24.3709 C   0  0  1  0  0  0  0  0  0  0  0  0
   12.3674  -17.6026   24.1475 N   0  0  0  0  0  0  0  0  0  0  0  0
   11.6528  -16.3691   23.8592 C   0  0  0  0  0  0  0  0  0  0  0  0
   13.3885  -17.8461   23.0979 O   0  0  0  0  0  0  0  0  0  0  0  0
   13.3564  -17.3994   21.9314 O   0  0  0  0  0  0  0  0  0  0  0  0
  2  1  1  0
  3  2  2  0
  4  2  1  0
  5  4  1  0
  6  5  1  0
  7  6  1  0
  8 10  1  0
  8  7  1  0
  8  9  1  1
 10 11  2  0
 10 12  1  0
 12 13  1  0
 13 24  1  0
 13 14  1  1
 15 16  2  0
 15 14  1  0
 17 16  1  0
 18 23  2  0
 18 17  1  0
 19 18  1  0
 20 21  1  0
 20 19  2  0
 21 22  2  0
 22 23  1  0
 23 15  1  0
 24 25  2  0
 24 32  1  0
 27 29  1  0
 27 26  1  0
 28 27  2  0
 31 30  1  1
 30 29  1  0
 31 33  1  0
 32 31  1  0
 33 34  2  0
 33 35  1  0
M  END
$$$$
