RWQ.pdb
     RDKit          3D

 35 36  0  0  1  0  0  0  0  0999 V2000
   16.1616  -14.5778   19.2639 N   0  0  0  0  0  0  0  0  0  0  0  0
   14.7923  -14.7205   18.8988 C   0  0  0  0  0  0  0  0  0  0  0  0
   14.1480  -13.6937   18.4731 N   0  0  0  0  0  0  0  0  0  0  0  0
   14.1350  -15.9620   18.9944 N   0  0  0  0  0  0  0  0  0  0  0  0
   12.7391  -16.0220   19.3464 C   0  0  0  0  0  0  0  0  0  0  0  0
   11.8842  -15.9637   18.0784 C   0  0  0  0  0  0  0  0  0  0  0  0
   10.4510  -16.0747   18.4748 C   0  0  0  0  0  0  0  0  0  0  0  0
    9.7672  -14.7573   18.7413 C   0  0  2  0  0  0  0  0  0  0  0  0
   10.3829  -13.6273   18.1206 N   0  0  0  0  0  0  0  0  0  0  0  0
    9.6484  -14.6314   20.2296 C   0  0  0  0  0  0  0  0  0  0  0  0
   10.6546  -14.2828   20.8783 O   0  0  0  0  0  0  0  0  0  0  0  0
   13.1162  -13.6726   18.3444 N   0  0  0  0  0  0  0  0  0  0  0  0
    8.3926  -14.9184   20.8156 C   0  0  1  0  0  0  0  0  0  0  0  0
    8.2619  -14.7465   22.2331 C   0  0  0  0  0  0  0  0  0  0  0  0
    6.8824  -14.5653   22.7412 C   0  0  0  0  0  0  0  0  0  0  0  0
    6.7521  -14.4267   24.1924 C   0  0  0  0  0  0  0  0  0  0  0  0
    6.4012  -15.3991   25.0939 N   0  0  0  0  0  0  0  0  0  0  0  0
    6.3902  -14.9170   26.3494 C   0  0  0  0  0  0  0  0  0  0  0  0
    6.7359  -13.6156   26.2764 C   0  0  0  0  0  0  0  0  0  0  0  0
    6.8613  -12.6914   27.2971 C   0  0  0  0  0  0  0  0  0  0  0  0
    7.2275  -11.4106   26.9617 C   0  0  0  0  0  0  0  0  0  0  0  0
    7.4585  -11.0744   25.6442 C   0  0  0  0  0  0  0  0  0  0  0  0
    7.3280  -12.0081   24.6403 C   0  0  0  0  0  0  0  0  0  0  0  0
    6.9664  -13.2863   24.9421 C   0  0  0  0  0  0  0  0  0  0  0  0
    8.7923  -16.0215   22.8667 O   0  0  0  0  0  0  0  0  0  0  0  0
    8.6913  -17.1221   22.2644 N   0  0  0  0  0  0  0  0  0  0  0  0
   15.1838  -18.2082   23.9260 C   0  0  0  0  0  0  0  0  0  0  0  0
   13.9658  -17.7239   23.3751 O   0  0  0  0  0  0  0  0  0  0  0  0
   13.9886  -17.1439   22.2717 C   0  0  0  0  0  0  0  0  0  0  0  0
   12.7101  -17.9365   24.1560 C   0  0  0  0  0  0  0  0  0  0  0  0
   11.6424  -16.9617   23.7392 C   0  0  1  0  0  0  0  0  0  0  0  0
   10.3543  -17.0914   24.4816 N   0  0  0  0  0  0  0  0  0  0  0  0
    9.4121  -16.0408   24.1301 C   0  0  0  0  0  0  0  0  0  0  0  0
   10.5098  -17.1509   25.9566 O   0  0  0  0  0  0  0  0  0  0  0  0
   10.0121  -16.3490   26.7755 O   0  0  0  0  0  0  0  0  0  0  0  0
  2  1  1  0
  3  2  2  0
  4  2  1  0
  5  4  1  0
  6  5  1  0
  7  6  1  0
  8 10  1  0
  8  7  1  0
  8  9  1  1
 10 11  2  0
 10 12  1  0
 12 13  1  0
 13 24  1  0
 13 14  1  1
 15 16  2  0
 15 14  1  0
 17 16  1  0
 18 23  2  0
 18 17  1  0
 19 18  1  0
 20 21  1  0
 20 19  2  0
 21 22  2  0
 22 23  1  0
 23 15  1  0
 24 25  2  0
 24 32  1  0
 27 29  1  0
 27 26  1  0
 28 27  2  0
 31 30  1  6
 30 29  1  0
 31 33  1  0
 32 31  1  0
 33 34  2  0
 33 35  1  0
M  END
$$$$
