RWQ.pdb
     RDKit          3D

 35 36  0  0  1  0  0  0  0  0999 V2000
    8.4333  -12.1879   18.7301 N   0  0  0  0  0  0  0  0  0  0  0  0
    8.0411  -13.1723   17.7785 C   0  0  0  0  0  0  0  0  0  0  0  0
    8.5260  -13.1217   16.5898 N   0  0  0  0  0  0  0  0  0  0  0  0
    7.1360  -14.1967   18.1159 N   0  0  0  0  0  0  0  0  0  0  0  0
    7.1535  -14.7795   19.4336 C   0  0  0  0  0  0  0  0  0  0  0  0
    8.1963  -15.8982   19.4892 C   0  0  0  0  0  0  0  0  0  0  0  0
    9.0004  -15.7268   20.7333 C   0  0  0  0  0  0  0  0  0  0  0  0
    9.1744  -16.9832   21.5490 C   0  0  2  0  0  0  0  0  0  0  0  0
    8.0360  -17.8463   21.5685 N   0  0  0  0  0  0  0  0  0  0  0  0
    9.6192  -16.5490   22.9123 C   0  0  0  0  0  0  0  0  0  0  0  0
   10.5707  -15.7479   22.9994 O   0  0  0  0  0  0  0  0  0  0  0  0
    8.2140  -13.7384   15.8127 N   0  0  0  0  0  0  0  0  0  0  0  0
    8.9288  -17.0781   24.0286 C   0  0  1  0  0  0  0  0  0  0  0  0
    9.3742  -16.6897   25.3350 C   0  0  0  0  0  0  0  0  0  0  0  0
    8.3156  -16.5098   26.3555 C   0  0  0  0  0  0  0  0  0  0  0  0
    7.3663  -15.4249   26.1027 C   0  0  0  0  0  0  0  0  0  0  0  0
    6.0780  -15.5351   25.6446 N   0  0  0  0  0  0  0  0  0  0  0  0
    5.4949  -14.3279   25.5382 C   0  0  0  0  0  0  0  0  0  0  0  0
    6.4055  -13.4129   25.9284 C   0  0  0  0  0  0  0  0  0  0  0  0
    6.2828  -12.0372   25.9919 C   0  0  0  0  0  0  0  0  0  0  0  0
    7.3684  -11.3154   26.4250 C   0  0  0  0  0  0  0  0  0  0  0  0
    8.5356  -11.9583   26.7808 C   0  0  0  0  0  0  0  0  0  0  0  0
    8.6400  -13.3297   26.7105 C   0  0  0  0  0  0  0  0  0  0  0  0
    7.5803  -14.0724   26.2850 C   0  0  0  0  0  0  0  0  0  0  0  0
   10.2672  -17.8141   25.8316 O   0  0  0  0  0  0  0  0  0  0  0  0
    9.9744  -19.0142   25.5903 N   0  0  0  0  0  0  0  0  0  0  0  0
   15.5464  -19.4251   25.5048 C   0  0  0  0  0  0  0  0  0  0  0  0
   15.4944  -20.0419   26.7849 O   0  0  0  0  0  0  0  0  0  0  0  0
   16.2905  -20.9654   27.0449 C   0  0  0  0  0  0  0  0  0  0  0  0
   14.4769  -19.5468   27.7603 C   0  0  0  0  0  0  0  0  0  0  0  0
   13.6535  -18.4365   27.1661 C   0  0  2  0  0  0  0  0  0  0  0  0
   12.1818  -18.6841   27.1620 N   0  0  0  0  0  0  0  0  0  0  0  0
   11.4430  -17.5806   26.5689 C   0  0  0  0  0  0  0  0  0  0  0  0
   11.6183  -19.0025   28.4979 O   0  0  0  0  0  0  0  0  0  0  0  0
   11.4908  -18.1988   29.4461 O   0  0  0  0  0  0  0  0  0  0  0  0
  2  1  1  0
  3  2  2  0
  4  2  1  0
  5  4  1  0
  6  5  1  0
  7  6  1  0
  8 10  1  0
  8  7  1  0
  8  9  1  1
 10 11  2  0
 10 12  1  0
 12 13  1  0
 13 24  1  0
 13 14  1  1
 15 16  2  0
 15 14  1  0
 17 16  1  0
 18 23  2  0
 18 17  1  0
 19 18  1  0
 20 21  1  0
 20 19  2  0
 21 22  2  0
 22 23  1  0
 23 15  1  0
 24 25  2  0
 24 32  1  0
 27 29  1  0
 27 26  1  0
 28 27  2  0
 31 30  1  6
 30 29  1  0
 31 33  1  0
 32 31  1  0
 33 34  2  0
 33 35  1  0
M  END
$$$$
