RWQ.pdb
     RDKit          3D

 35 36  0  0  1  0  0  0  0  0999 V2000
    7.3114  -15.8682   15.0071 N   0  0  0  0  0  0  0  0  0  0  0  0
    7.4425  -14.5543   14.4731 C   0  0  0  0  0  0  0  0  0  0  0  0
    7.9094  -14.4054   13.2855 N   0  0  0  0  0  0  0  0  0  0  0  0
    7.0699  -13.4203   15.2198 N   0  0  0  0  0  0  0  0  0  0  0  0
    7.1441  -13.4388   16.6587 C   0  0  0  0  0  0  0  0  0  0  0  0
    8.5868  -13.7000   17.0976 C   0  0  0  0  0  0  0  0  0  0  0  0
    8.6235  -13.7344   18.5879 C   0  0  0  0  0  0  0  0  0  0  0  0
    9.1129  -15.0340   19.1761 C   0  0  2  0  0  0  0  0  0  0  0  0
    8.3520  -16.1840   18.8023 N   0  0  0  0  0  0  0  0  0  0  0  0
    9.1959  -14.8275   20.6578 C   0  0  0  0  0  0  0  0  0  0  0  0
    9.8957  -13.8896   21.0884 O   0  0  0  0  0  0  0  0  0  0  0  0
    8.0617  -13.4793   12.8374 N   0  0  0  0  0  0  0  0  0  0  0  0
    8.4709  -15.7159   21.4871 C   0  0  1  0  0  0  0  0  0  0  0  0
    8.4045  -15.4181   22.8882 C   0  0  0  0  0  0  0  0  0  0  0  0
    7.0497  -15.4091   23.4870 C   0  0  0  0  0  0  0  0  0  0  0  0
    6.9719  -14.9594   24.8777 C   0  0  0  0  0  0  0  0  0  0  0  0
    6.7568  -15.7303   25.9916 N   0  0  0  0  0  0  0  0  0  0  0  0
    6.7559  -14.9811   27.1085 C   0  0  0  0  0  0  0  0  0  0  0  0
    6.9714  -13.7051   26.7292 C   0  0  0  0  0  0  0  0  0  0  0  0
    7.0532  -12.5681   27.5116 C   0  0  0  0  0  0  0  0  0  0  0  0
    7.2794  -11.3694   26.8799 C   0  0  0  0  0  0  0  0  0  0  0  0
    7.4177  -11.3196   25.5085 C   0  0  0  0  0  0  0  0  0  0  0  0
    7.3325  -12.4626   24.7450 C   0  0  0  0  0  0  0  0  0  0  0  0
    7.1092  -13.6660   25.3430 C   0  0  0  0  0  0  0  0  0  0  0  0
    9.1820  -16.5163   23.5936 O   0  0  0  0  0  0  0  0  0  0  0  0
    8.9318  -17.7270   23.3570 N   0  0  0  0  0  0  0  0  0  0  0  0
   14.8209  -16.4560   23.7553 C   0  0  0  0  0  0  0  0  0  0  0  0
   14.0579  -17.2627   22.8671 O   0  0  0  0  0  0  0  0  0  0  0  0
   14.5226  -17.5304   21.7417 C   0  0  0  0  0  0  0  0  0  0  0  0
   12.7253  -17.7508   23.3336 C   0  0  0  0  0  0  0  0  0  0  0  0
   12.4212  -17.2507   24.7198 C   0  0  2  0  0  0  0  0  0  0  0  0
   10.9824  -17.3258   25.1089 N   0  0  0  0  0  0  0  0  0  0  0  0
   10.2011  -16.2464   24.5260 C   0  0  0  0  0  0  0  0  0  0  0  0
   10.7540  -17.3733   26.5749 O   0  0  0  0  0  0  0  0  0  0  0  0
   11.2692  -18.1906   27.3672 O   0  0  0  0  0  0  0  0  0  0  0  0
  2  1  1  0
  3  2  2  0
  4  2  1  0
  5  4  1  0
  6  5  1  0
  7  6  1  0
  8 10  1  0
  8  7  1  0
  8  9  1  1
 10 11  2  0
 10 12  1  0
 12 13  1  0
 13 24  1  0
 13 14  1  1
 15 16  2  0
 15 14  1  0
 17 16  1  0
 18 23  2  0
 18 17  1  0
 19 18  1  0
 20 21  1  0
 20 19  2  0
 21 22  2  0
 22 23  1  0
 23 15  1  0
 24 25  2  0
 24 32  1  0
 27 29  1  0
 27 26  1  0
 28 27  2  0
 31 30  1  6
 30 29  1  0
 31 33  1  0
 32 31  1  0
 33 34  2  0
 33 35  1  0
M  END
$$$$
