RWQ.pdb
     RDKit          3D

 35 36  0  0  1  0  0  0  0  0999 V2000
    7.8250  -15.0811   16.5682 N   0  0  0  0  0  0  0  0  0  0  0  0
    7.9991  -13.6893   16.8149 C   0  0  0  0  0  0  0  0  0  0  0  0
    8.4747  -12.9434   15.8832 N   0  0  0  0  0  0  0  0  0  0  0  0
    7.6596  -13.1179   18.0562 N   0  0  0  0  0  0  0  0  0  0  0  0
    7.0753  -13.9272   19.0952 C   0  0  0  0  0  0  0  0  0  0  0  0
    7.9424  -15.1654   19.3340 C   0  0  0  0  0  0  0  0  0  0  0  0
    8.6471  -14.9988   20.6376 C   0  0  0  0  0  0  0  0  0  0  0  0
    9.1325  -16.2838   21.2600 C   0  0  2  0  0  0  0  0  0  0  0  0
    8.1940  -17.3603   21.2192 N   0  0  0  0  0  0  0  0  0  0  0  0
    9.5899  -15.9412   22.6450 C   0  0  0  0  0  0  0  0  0  0  0  0
   10.4254  -15.0264   22.7853 O   0  0  0  0  0  0  0  0  0  0  0  0
    8.6738  -11.9295   16.0009 N   0  0  0  0  0  0  0  0  0  0  0  0
    9.0435  -16.6821   23.7200 C   0  0  1  0  0  0  0  0  0  0  0  0
    9.5168  -16.3898   25.0415 C   0  0  0  0  0  0  0  0  0  0  0  0
    8.4845  -16.3250   26.1018 C   0  0  0  0  0  0  0  0  0  0  0  0
    7.4114  -15.3533   25.8863 C   0  0  0  0  0  0  0  0  0  0  0  0
    6.1330  -15.6053   25.4577 N   0  0  0  0  0  0  0  0  0  0  0  0
    5.4135  -14.4717   25.3813 C   0  0  0  0  0  0  0  0  0  0  0  0
    6.2233  -13.4627   25.7618 C   0  0  0  0  0  0  0  0  0  0  0  0
    5.9460  -12.1108   25.8466 C   0  0  0  0  0  0  0  0  0  0  0  0
    6.9527  -11.2742   26.2632 C   0  0  0  0  0  0  0  0  0  0  0  0
    8.1943  -11.7830   26.5824 C   0  0  0  0  0  0  0  0  0  0  0  0
    8.4527  -13.1326   26.4913 C   0  0  0  0  0  0  0  0  0  0  0  0
    7.4743  -13.9871   26.0814 C   0  0  0  0  0  0  0  0  0  0  0  0
   10.4535  -17.5252   25.4184 O   0  0  0  0  0  0  0  0  0  0  0  0
   10.2173  -18.7002   25.0343 N   0  0  0  0  0  0  0  0  0  0  0  0
   16.3904  -18.8141   25.4742 C   0  0  0  0  0  0  0  0  0  0  0  0
   15.5770  -17.9346   24.7084 O   0  0  0  0  0  0  0  0  0  0  0  0
   16.1136  -17.2055   23.8513 C   0  0  0  0  0  0  0  0  0  0  0  0
   14.1070  -17.9294   24.9749 C   0  0  0  0  0  0  0  0  0  0  0  0
   13.8108  -18.3755   26.3811 C   0  0  2  0  0  0  0  0  0  0  0  0
   12.3590  -18.4624   26.7158 N   0  0  0  0  0  0  0  0  0  0  0  0
   11.6093  -17.3292   26.1971 C   0  0  0  0  0  0  0  0  0  0  0  0
   12.0810  -18.6250   28.1648 O   0  0  0  0  0  0  0  0  0  0  0  0
   11.3349  -17.8944   28.8509 O   0  0  0  0  0  0  0  0  0  0  0  0
  2  1  1  0
  3  2  2  0
  4  2  1  0
  5  4  1  0
  6  5  1  0
  7  6  1  0
  8 10  1  0
  8  7  1  0
  8  9  1  1
 10 11  2  0
 10 12  1  0
 12 13  1  0
 13 24  1  0
 13 14  1  1
 15 16  2  0
 15 14  1  0
 17 16  1  0
 18 23  2  0
 18 17  1  0
 19 18  1  0
 20 21  1  0
 20 19  2  0
 21 22  2  0
 22 23  1  0
 23 15  1  0
 24 25  2  0
 24 32  1  0
 27 29  1  0
 27 26  1  0
 28 27  2  0
 31 30  1  6
 30 29  1  0
 31 33  1  0
 32 31  1  0
 33 34  2  0
 33 35  1  0
M  END
$$$$
