RWQ.pdb
     RDKit          3D

 35 36  0  0  1  0  0  0  0  0999 V2000
    8.5871  -12.4477   15.9386 N   0  0  0  0  0  0  0  0  0  0  0  0
    8.0734  -13.4668   15.0866 C   0  0  0  0  0  0  0  0  0  0  0  0
    8.4749  -13.5243   13.8675 N   0  0  0  0  0  0  0  0  0  0  0  0
    7.1380  -14.4094   15.5546 N   0  0  0  0  0  0  0  0  0  0  0  0
    7.2454  -14.9415   16.8893 C   0  0  0  0  0  0  0  0  0  0  0  0
    8.2969  -16.0530   16.9186 C   0  0  0  0  0  0  0  0  0  0  0  0
    9.0932  -15.9110   18.1713 C   0  0  0  0  0  0  0  0  0  0  0  0
    8.5694  -16.7017   19.3437 C   0  0  2  0  0  0  0  0  0  0  0  0
    7.2679  -17.2601   19.1552 N   0  0  0  0  0  0  0  0  0  0  0  0
    8.6684  -15.8063   20.5410 C   0  0  0  0  0  0  0  0  0  0  0  0
    8.2648  -14.6310   20.4386 O   0  0  0  0  0  0  0  0  0  0  0  0
    8.1429  -14.2340   13.1836 N   0  0  0  0  0  0  0  0  0  0  0  0
    9.2189  -16.3509   21.7256 C   0  0  1  0  0  0  0  0  0  0  0  0
    8.8580  -15.7407   22.9719 C   0  0  0  0  0  0  0  0  0  0  0  0
    7.4080  -15.6766   23.2681 C   0  0  0  0  0  0  0  0  0  0  0  0
    7.0523  -15.1914   24.6024 C   0  0  0  0  0  0  0  0  0  0  0  0
    6.4756  -15.9053   25.6219 N   0  0  0  0  0  0  0  0  0  0  0  0
    6.2987  -15.1386   26.7126 C   0  0  0  0  0  0  0  0  0  0  0  0
    6.7615  -13.9085   26.4109 C   0  0  0  0  0  0  0  0  0  0  0  0
    6.7951  -12.7747   27.2015 C   0  0  0  0  0  0  0  0  0  0  0  0
    7.3197  -11.6279   26.6568 C   0  0  0  0  0  0  0  0  0  0  0  0
    7.7929  -11.6249   25.3613 C   0  0  0  0  0  0  0  0  0  0  0  0
    7.7507  -12.7637   24.5881 C   0  0  0  0  0  0  0  0  0  0  0  0
    7.2364  -13.9163   25.1007 C   0  0  0  0  0  0  0  0  0  0  0  0
    9.4846  -16.5952   24.0608 O   0  0  0  0  0  0  0  0  0  0  0  0
    9.1352  -17.7952   24.2093 N   0  0  0  0  0  0  0  0  0  0  0  0
   15.3600  -16.2930   25.1388 C   0  0  0  0  0  0  0  0  0  0  0  0
   14.5816  -16.3181   23.9492 O   0  0  0  0  0  0  0  0  0  0  0  0
   15.1423  -16.1155   22.8543 C   0  0  0  0  0  0  0  0  0  0  0  0
   13.1176  -16.5872   24.0754 C   0  0  0  0  0  0  0  0  0  0  0  0
   12.7329  -16.8230   25.5109 C   0  0  2  0  0  0  0  0  0  0  0  0
   11.2709  -17.0130   25.7423 N   0  0  0  0  0  0  0  0  0  0  0  0
   10.4674  -16.1039   24.9402 C   0  0  0  0  0  0  0  0  0  0  0  0
   10.8661  -16.9140   27.1670 O   0  0  0  0  0  0  0  0  0  0  0  0
   10.0074  -16.1327   27.6287 O   0  0  0  0  0  0  0  0  0  0  0  0
  2  1  1  0
  3  2  2  0
  4  2  1  0
  5  4  1  0
  6  5  1  0
  7  6  1  0
  8 10  1  0
  8  7  1  0
  8  9  1  6
 10 11  2  0
 10 12  1  0
 12 13  1  0
 13 24  1  0
 13 14  1  1
 15 16  2  0
 15 14  1  0
 17 16  1  0
 18 23  2  0
 18 17  1  0
 19 18  1  0
 20 21  1  0
 20 19  2  0
 21 22  2  0
 22 23  1  0
 23 15  1  0
 24 25  2  0
 24 32  1  0
 27 29  1  0
 27 26  1  0
 28 27  2  0
 31 30  1  6
 30 29  1  0
 31 33  1  0
 32 31  1  0
 33 34  2  0
 33 35  1  0
M  END
$$$$
