RWQ.pdb
     RDKit          3D

 35 36  0  0  1  0  0  0  0  0999 V2000
    8.9034  -14.0755   15.6226 N   0  0  0  0  0  0  0  0  0  0  0  0
    8.3212  -13.4368   16.7547 C   0  0  0  0  0  0  0  0  0  0  0  0
    8.7840  -12.3017   17.1394 N   0  0  0  0  0  0  0  0  0  0  0  0
    7.2511  -14.0240   17.4564 N   0  0  0  0  0  0  0  0  0  0  0  0
    7.4860  -15.1267   18.3537 C   0  0  0  0  0  0  0  0  0  0  0  0
    8.4019  -14.6776   19.4945 C   0  0  0  0  0  0  0  0  0  0  0  0
    7.8385  -15.1902   20.7764 C   0  0  0  0  0  0  0  0  0  0  0  0
    8.5447  -16.3993   21.3361 C   0  0  2  0  0  0  0  0  0  0  0  0
    7.7527  -17.5876   21.3804 N   0  0  0  0  0  0  0  0  0  0  0  0
    9.0911  -15.9946   22.6712 C   0  0  0  0  0  0  0  0  0  0  0  0
    9.8414  -15.0004   22.7293 O   0  0  0  0  0  0  0  0  0  0  0  0
    8.3959  -11.7613   17.9388 N   0  0  0  0  0  0  0  0  0  0  0  0
    8.7216  -16.7706   23.7956 C   0  0  1  0  0  0  0  0  0  0  0  0
    9.3227  -16.4479   25.0567 C   0  0  0  0  0  0  0  0  0  0  0  0
    8.3972  -16.3351   26.2077 C   0  0  0  0  0  0  0  0  0  0  0  0
    7.3277  -15.3455   26.0691 C   0  0  0  0  0  0  0  0  0  0  0  0
    6.0296  -15.5699   25.6868 N   0  0  0  0  0  0  0  0  0  0  0  0
    5.3210  -14.4268   25.6776 C   0  0  0  0  0  0  0  0  0  0  0  0
    6.1579  -13.4395   26.0562 C   0  0  0  0  0  0  0  0  0  0  0  0
    5.9005  -12.0883   26.1964 C   0  0  0  0  0  0  0  0  0  0  0  0
    6.9336  -11.2764   26.5971 C   0  0  0  0  0  0  0  0  0  0  0  0
    8.1813  -11.8085   26.8471 C   0  0  0  0  0  0  0  0  0  0  0  0
    8.4196  -13.1570   26.7015 C   0  0  0  0  0  0  0  0  0  0  0  0
    7.4148  -13.9873   26.3057 C   0  0  0  0  0  0  0  0  0  0  0  0
   10.2752  -17.5873   25.3776 O   0  0  0  0  0  0  0  0  0  0  0  0
    9.9277  -18.7817   25.1856 N   0  0  0  0  0  0  0  0  0  0  0  0
   15.5921  -18.6124   22.5995 C   0  0  0  0  0  0  0  0  0  0  0  0
   15.2366  -17.8887   23.7707 O   0  0  0  0  0  0  0  0  0  0  0  0
   16.1048  -17.2037   24.3462 C   0  0  0  0  0  0  0  0  0  0  0  0
   13.8272  -17.9895   24.2557 C   0  0  0  0  0  0  0  0  0  0  0  0
   13.7814  -18.3935   25.7044 C   0  0  2  0  0  0  0  0  0  0  0  0
   12.4087  -18.4956   26.2810 N   0  0  0  0  0  0  0  0  0  0  0  0
   11.5675  -17.3745   25.8928 C   0  0  0  0  0  0  0  0  0  0  0  0
   12.3827  -18.6529   27.7568 O   0  0  0  0  0  0  0  0  0  0  0  0
   11.8072  -17.8900   28.5617 O   0  0  0  0  0  0  0  0  0  0  0  0
  2  1  1  0
  3  2  2  0
  4  2  1  0
  5  4  1  0
  6  5  1  0
  7  6  1  0
  8 10  1  0
  8  7  1  0
  8  9  1  1
 10 11  2  0
 10 12  1  0
 12 13  1  0
 13 24  1  0
 13 14  1  1
 15 16  2  0
 15 14  1  0
 17 16  1  0
 18 23  2  0
 18 17  1  0
 19 18  1  0
 20 21  1  0
 20 19  2  0
 21 22  2  0
 22 23  1  0
 23 15  1  0
 24 25  2  0
 24 32  1  0
 27 29  1  0
 27 26  1  0
 28 27  2  0
 31 30  1  6
 30 29  1  0
 31 33  1  0
 32 31  1  0
 33 34  2  0
 33 35  1  0
M  END
$$$$
