RWQ.pdb
     RDKit          3D

 35 36  0  0  1  0  0  0  0  0999 V2000
    8.6939  -12.8891   15.4159 N   0  0  0  0  0  0  0  0  0  0  0  0
    8.6042  -14.2111   15.9381 C   0  0  0  0  0  0  0  0  0  0  0  0
    8.8185  -15.2083   15.1568 N   0  0  0  0  0  0  0  0  0  0  0  0
    8.2875  -14.4441   17.2901 N   0  0  0  0  0  0  0  0  0  0  0  0
    7.2392  -13.6928   17.9326 C   0  0  0  0  0  0  0  0  0  0  0  0
    7.0625  -14.1811   19.3723 C   0  0  0  0  0  0  0  0  0  0  0  0
    8.4086  -14.5083   19.9239 C   0  0  0  0  0  0  0  0  0  0  0  0
    8.5041  -15.8558   20.5943 C   0  0  2  0  0  0  0  0  0  0  0  0
    7.2625  -16.5516   20.7186 N   0  0  0  0  0  0  0  0  0  0  0  0
    9.1986  -15.6332   21.9032 C   0  0  0  0  0  0  0  0  0  0  0  0
   10.2129  -14.9082   21.9215 O   0  0  0  0  0  0  0  0  0  0  0  0
    8.7939  -16.2005   15.4677 N   0  0  0  0  0  0  0  0  0  0  0  0
    8.6592  -16.2642   23.0494 C   0  0  1  0  0  0  0  0  0  0  0  0
    9.3369  -16.0728   24.2984 C   0  0  0  0  0  0  0  0  0  0  0  0
    8.4994  -16.1819   25.5153 C   0  0  0  0  0  0  0  0  0  0  0  0
    7.4493  -15.1722   25.6574 C   0  0  0  0  0  0  0  0  0  0  0  0
    6.0945  -15.3589   25.5526 N   0  0  0  0  0  0  0  0  0  0  0  0
    5.4283  -14.2074   25.7506 C   0  0  0  0  0  0  0  0  0  0  0  0
    6.3506  -13.2525   25.9874 C   0  0  0  0  0  0  0  0  0  0  0  0
    6.1620  -11.9071   26.2442 C   0  0  0  0  0  0  0  0  0  0  0  0
    7.2763  -11.1311   26.4521 C   0  0  0  0  0  0  0  0  0  0  0  0
    8.5353  -11.6922   26.4024 C   0  0  0  0  0  0  0  0  0  0  0  0
    8.7041  -13.0344   26.1445 C   0  0  0  0  0  0  0  0  0  0  0  0
    7.6180  -13.8294   25.9345 C   0  0  0  0  0  0  0  0  0  0  0  0
   10.3787  -17.1749   24.3900 O   0  0  0  0  0  0  0  0  0  0  0  0
   10.1435  -18.3155   23.9126 N   0  0  0  0  0  0  0  0  0  0  0  0
   16.1203  -16.0615   23.5989 C   0  0  0  0  0  0  0  0  0  0  0  0
   15.4388  -16.9115   22.6853 O   0  0  0  0  0  0  0  0  0  0  0  0
   15.9966  -17.2201   21.6139 C   0  0  0  0  0  0  0  0  0  0  0  0
   14.0756  -17.3938   23.0605 C   0  0  0  0  0  0  0  0  0  0  0  0
   13.9604  -17.5857   24.5484 C   0  0  2  0  0  0  0  0  0  0  0  0
   12.6219  -18.0517   25.0160 N   0  0  0  0  0  0  0  0  0  0  0  0
   11.6340  -16.9845   24.9973 C   0  0  0  0  0  0  0  0  0  0  0  0
   12.6388  -18.6943   26.3540 O   0  0  0  0  0  0  0  0  0  0  0  0
   12.7207  -19.9218   26.5726 O   0  0  0  0  0  0  0  0  0  0  0  0
  2  1  1  0
  3  2  2  0
  4  2  1  0
  5  4  1  0
  6  5  1  0
  7  6  1  0
  8 10  1  0
  8  7  1  0
  8  9  1  1
 10 11  2  0
 10 12  1  0
 12 13  1  0
 13 24  1  0
 13 14  1  1
 15 16  2  0
 15 14  1  0
 17 16  1  0
 18 23  2  0
 18 17  1  0
 19 18  1  0
 20 21  1  0
 20 19  2  0
 21 22  2  0
 22 23  1  0
 23 15  1  0
 24 25  2  0
 24 32  1  0
 27 29  1  0
 27 26  1  0
 28 27  2  0
 31 30  1  6
 30 29  1  0
 31 33  1  0
 32 31  1  0
 33 34  2  0
 33 35  1  0
M  END
$$$$
