RWQ.pdb
     RDKit          3D

 35 36  0  0  1  0  0  0  0  0999 V2000
    7.5130  -15.4760   14.7858 N   0  0  0  0  0  0  0  0  0  0  0  0
    8.8379  -15.1138   15.1628 C   0  0  0  0  0  0  0  0  0  0  0  0
    9.8297  -15.5959   14.5036 N   0  0  0  0  0  0  0  0  0  0  0  0
    9.0793  -14.2395   16.2397 N   0  0  0  0  0  0  0  0  0  0  0  0
    7.9892  -13.7752   17.0596 C   0  0  0  0  0  0  0  0  0  0  0  0
    7.4753  -14.9223   17.9327 C   0  0  0  0  0  0  0  0  0  0  0  0
    8.1487  -14.8375   19.2605 C   0  0  0  0  0  0  0  0  0  0  0  0
    7.2112  -14.7170   20.4356 C   0  0  2  0  0  0  0  0  0  0  0  0
    6.2127  -13.7037   20.3030 N   0  0  0  0  0  0  0  0  0  0  0  0
    8.0705  -14.5543   21.6523 C   0  0  0  0  0  0  0  0  0  0  0  0
    8.5939  -13.4429   21.8654 O   0  0  0  0  0  0  0  0  0  0  0  0
   10.8219  -15.3440   14.6878 N   0  0  0  0  0  0  0  0  0  0  0  0
    8.2393  -15.6800   22.4932 C   0  0  1  0  0  0  0  0  0  0  0  0
    9.0226  -15.5138   23.6827 C   0  0  0  0  0  0  0  0  0  0  0  0
    8.3859  -15.9519   24.9464 C   0  0  0  0  0  0  0  0  0  0  0  0
    7.2570  -15.1408   25.4044 C   0  0  0  0  0  0  0  0  0  0  0  0
    5.9421  -15.5202   25.4973 N   0  0  0  0  0  0  0  0  0  0  0  0
    5.1789  -14.5177   25.9676 C   0  0  0  0  0  0  0  0  0  0  0  0
    5.9960  -13.4675   26.1864 C   0  0  0  0  0  0  0  0  0  0  0  0
    5.6836  -12.2081   26.6639 C   0  0  0  0  0  0  0  0  0  0  0  0
    6.7060  -11.3004   26.7969 C   0  0  0  0  0  0  0  0  0  0  0  0
    7.9968  -11.6504   26.4600 C   0  0  0  0  0  0  0  0  0  0  0  0
    8.2895  -12.9096   25.9852 C   0  0  0  0  0  0  0  0  0  0  0  0
    7.2967  -13.8314   25.8427 C   0  0  0  0  0  0  0  0  0  0  0  0
   10.2605  -16.3755   23.5004 O   0  0  0  0  0  0  0  0  0  0  0  0
   10.1511  -17.6113   23.2881 N   0  0  0  0  0  0  0  0  0  0  0  0
   15.2136  -14.0062   21.3730 C   0  0  0  0  0  0  0  0  0  0  0  0
   14.7459  -15.1611   20.6879 O   0  0  0  0  0  0  0  0  0  0  0  0
   14.6561  -15.1328   19.4448 C   0  0  0  0  0  0  0  0  0  0  0  0
   14.3818  -16.3594   21.5023 C   0  0  0  0  0  0  0  0  0  0  0  0
   13.9104  -15.9582   22.8737 C   0  0  2  0  0  0  0  0  0  0  0  0
   12.7227  -16.7127   23.3711 N   0  0  0  0  0  0  0  0  0  0  0  0
   11.5655  -15.8513   23.5558 C   0  0  0  0  0  0  0  0  0  0  0  0
   12.9740  -17.4859   24.6131 O   0  0  0  0  0  0  0  0  0  0  0  0
   13.5157  -18.6101   24.6755 O   0  0  0  0  0  0  0  0  0  0  0  0
  2  1  1  0
  3  2  2  0
  4  2  1  0
  5  4  1  0
  6  5  1  0
  7  6  1  0
  8 10  1  0
  8  7  1  0
  8  9  1  6
 10 11  2  0
 10 12  1  0
 12 13  1  0
 13 24  1  0
 13 14  1  1
 15 16  2  0
 15 14  1  0
 17 16  1  0
 18 23  2  0
 18 17  1  0
 19 18  1  0
 20 21  1  0
 20 19  2  0
 21 22  2  0
 22 23  1  0
 23 15  1  0
 24 25  2  0
 24 32  1  0
 27 29  1  0
 27 26  1  0
 28 27  2  0
 31 30  1  6
 30 29  1  0
 31 33  1  0
 32 31  1  0
 33 34  2  0
 33 35  1  0
M  END
$$$$
