RWQ.pdb
     RDKit          3D

 35 36  0  0  1  0  0  0  0  0999 V2000
    8.8771  -14.2039   16.0508 N   0  0  0  0  0  0  0  0  0  0  0  0
    7.5481  -13.7403   15.8336 C   0  0  0  0  0  0  0  0  0  0  0  0
    7.0311  -13.8491   14.6625 N   0  0  0  0  0  0  0  0  0  0  0  0
    6.7930  -13.1683   16.8753 N   0  0  0  0  0  0  0  0  0  0  0  0
    7.2913  -13.1794   18.2272 C   0  0  0  0  0  0  0  0  0  0  0  0
    7.6130  -14.6156   18.6467 C   0  0  0  0  0  0  0  0  0  0  0  0
    8.0165  -14.6045   20.0822 C   0  0  0  0  0  0  0  0  0  0  0  0
    8.4001  -15.9525   20.6391 C   0  0  2  0  0  0  0  0  0  0  0  0
    7.3022  -16.8342   20.8814 N   0  0  0  0  0  0  0  0  0  0  0  0
    9.2360  -15.6900   21.8546 C   0  0  0  0  0  0  0  0  0  0  0  0
   10.2110  -14.9201   21.7499 O   0  0  0  0  0  0  0  0  0  0  0  0
    6.0958  -13.4724   14.4074 N   0  0  0  0  0  0  0  0  0  0  0  0
    8.8674  -16.3369   23.0582 C   0  0  1  0  0  0  0  0  0  0  0  0
    9.6335  -16.0457   24.2348 C   0  0  0  0  0  0  0  0  0  0  0  0
    8.9228  -16.1938   25.5260 C   0  0  0  0  0  0  0  0  0  0  0  0
    7.7520  -15.3349   25.7097 C   0  0  0  0  0  0  0  0  0  0  0  0
    6.4317  -15.7006   25.6413 N   0  0  0  0  0  0  0  0  0  0  0  0
    5.6238  -14.6503   25.8717 C   0  0  0  0  0  0  0  0  0  0  0  0
    6.4168  -13.5824   26.0933 C   0  0  0  0  0  0  0  0  0  0  0  0
    6.0579  -12.2764   26.3712 C   0  0  0  0  0  0  0  0  0  0  0  0
    7.0642  -11.3598   26.5563 C   0  0  0  0  0  0  0  0  0  0  0  0
    8.3848  -11.7468   26.4643 C   0  0  0  0  0  0  0  0  0  0  0  0
    8.7238  -13.0523   26.1859 C   0  0  0  0  0  0  0  0  0  0  0  0
    7.7479  -13.9839   25.9976 C   0  0  0  0  0  0  0  0  0  0  0  0
   10.7787  -17.0440   24.2543 O   0  0  0  0  0  0  0  0  0  0  0  0
   10.5764  -18.2516   23.9628 N   0  0  0  0  0  0  0  0  0  0  0  0
   17.6364  -16.4608   24.1199 C   0  0  0  0  0  0  0  0  0  0  0  0
   16.7929  -17.1896   23.2372 O   0  0  0  0  0  0  0  0  0  0  0  0
   17.0610  -17.2070   22.0198 C   0  0  0  0  0  0  0  0  0  0  0  0
   15.6168  -17.9023   23.8210 C   0  0  0  0  0  0  0  0  0  0  0  0
   14.4101  -17.0048   23.8697 C   0  0  1  0  0  0  0  0  0  0  0  0
   13.1884  -17.6323   24.4535 N   0  0  0  0  0  0  0  0  0  0  0  0
   12.0966  -16.6812   24.5894 C   0  0  0  0  0  0  0  0  0  0  0  0
   13.4206  -18.3160   25.7505 O   0  0  0  0  0  0  0  0  0  0  0  0
   12.8606  -18.0377   26.8322 O   0  0  0  0  0  0  0  0  0  0  0  0
  2  1  1  0
  3  2  2  0
  4  2  1  0
  5  4  1  0
  6  5  1  0
  7  6  1  0
  8 10  1  0
  8  7  1  0
  8  9  1  1
 10 11  2  0
 10 12  1  0
 12 13  1  0
 13 24  1  0
 13 14  1  6
 15 16  2  0
 15 14  1  0
 17 16  1  0
 18 23  2  0
 18 17  1  0
 19 18  1  0
 20 21  1  0
 20 19  2  0
 21 22  2  0
 22 23  1  0
 23 15  1  0
 24 25  2  0
 24 32  1  0
 27 29  1  0
 27 26  1  0
 28 27  2  0
 31 30  1  6
 30 29  1  0
 31 33  1  0
 32 31  1  0
 33 34  2  0
 33 35  1  0
M  END
$$$$
