RWQ.pdb
     RDKit          3D

 35 36  0  0  1  0  0  0  0  0999 V2000
    9.4358  -14.9230   16.7212 N   0  0  0  0  0  0  0  0  0  0  0  0
    8.6009  -13.9993   17.4125 C   0  0  0  0  0  0  0  0  0  0  0  0
    9.0936  -12.8765   17.7962 N   0  0  0  0  0  0  0  0  0  0  0  0
    7.2502  -14.2927   17.6810 N   0  0  0  0  0  0  0  0  0  0  0  0
    6.7643  -14.3104   19.0374 C   0  0  0  0  0  0  0  0  0  0  0  0
    7.2358  -15.5869   19.7377 C   0  0  0  0  0  0  0  0  0  0  0  0
    8.2269  -15.2070   20.7852 C   0  0  0  0  0  0  0  0  0  0  0  0
    8.8599  -16.3711   21.5052 C   0  0  2  0  0  0  0  0  0  0  0  0
    7.9705  -17.4515   21.7936 N   0  0  0  0  0  0  0  0  0  0  0  0
    9.5305  -15.8077   22.7208 C   0  0  0  0  0  0  0  0  0  0  0  0
   10.3900  -14.9177   22.5662 O   0  0  0  0  0  0  0  0  0  0  0  0
    8.5782  -12.1913   18.3848 N   0  0  0  0  0  0  0  0  0  0  0  0
    9.1467  -16.3231   23.9818 C   0  0  1  0  0  0  0  0  0  0  0  0
    9.6755  -15.6864   25.1527 C   0  0  0  0  0  0  0  0  0  0  0  0
    8.8329  -15.7600   26.3688 C   0  0  0  0  0  0  0  0  0  0  0  0
    7.5897  -14.9886   26.3289 C   0  0  0  0  0  0  0  0  0  0  0  0
    6.3131  -15.4725   26.1960 N   0  0  0  0  0  0  0  0  0  0  0  0
    5.4114  -14.4747   26.2076 C   0  0  0  0  0  0  0  0  0  0  0  0
    6.0979  -13.3226   26.3485 C   0  0  0  0  0  0  0  0  0  0  0  0
    5.6183  -12.0274   26.4110 C   0  0  0  0  0  0  0  0  0  0  0  0
    6.5313  -11.0112   26.5555 C   0  0  0  0  0  0  0  0  0  0  0  0
    7.8794  -11.2917   26.6339 C   0  0  0  0  0  0  0  0  0  0  0  0
    8.3392  -12.5882   26.5692 C   0  0  0  0  0  0  0  0  0  0  0  0
    7.4579  -13.6170   26.4262 C   0  0  0  0  0  0  0  0  0  0  0  0
   10.9718  -16.4079   25.4802 O   0  0  0  0  0  0  0  0  0  0  0  0
   11.6279  -16.1035   26.5103 N   0  0  0  0  0  0  0  0  0  0  0  0
    8.9023  -19.7595   27.4796 C   0  0  0  0  0  0  0  0  0  0  0  0
    9.5274  -20.9438   27.0017 O   0  0  0  0  0  0  0  0  0  0  0  0
    9.4570  -21.9839   27.6855 C   0  0  0  0  0  0  0  0  0  0  0  0
   10.2441  -20.8784   25.6926 C   0  0  0  0  0  0  0  0  0  0  0  0
   10.2430  -19.4769   25.1449 C   0  0  2  0  0  0  0  0  0  0  0  0
   11.5734  -18.8009   25.1569 N   0  0  0  0  0  0  0  0  0  0  0  0
   11.4961  -17.4325   24.6702 C   0  0  0  0  0  0  0  0  0  0  0  0
   12.6316  -19.5352   24.4191 O   0  0  0  0  0  0  0  0  0  0  0  0
   12.6747  -19.7046   23.1819 O   0  0  0  0  0  0  0  0  0  0  0  0
  2  1  1  0
  3  2  2  0
  4  2  1  0
  5  4  1  0
  6  5  1  0
  7  6  1  0
  8 10  1  0
  8  7  1  0
  8  9  1  1
 10 11  2  0
 10 12  1  0
 12 13  1  0
 13 24  1  0
 13 14  1  1
 15 16  2  0
 15 14  1  0
 17 16  1  0
 18 23  2  0
 18 17  1  0
 19 18  1  0
 20 21  1  0
 20 19  2  0
 21 22  2  0
 22 23  1  0
 23 15  1  0
 24 25  2  0
 24 32  1  0
 27 29  1  0
 27 26  1  0
 28 27  2  0
 31 30  1  1
 30 29  1  0
 31 33  1  0
 32 31  1  0
 33 34  2  0
 33 35  1  0
M  END
$$$$
