KTE.pdb
     RDKit          3D

 26 25  0  0  1  0  0  0  0  0999 V2000
   19.5717  -23.9885  -13.2227 N   0  0  0  0  0  0  0  0  0  0  0  0
   18.9632  -22.7402  -12.9393 C   0  0  1  0  0  0  0  0  0  0  0  0
   18.6035  -22.5911  -11.4920 C   0  0  0  0  0  0  0  0  0  0  0  0
   18.0415  -23.7904  -10.8361 C   0  0  0  0  0  0  0  0  0  0  0  0
   18.4567  -25.1312  -11.3482 C   0  0  0  0  0  0  0  0  0  0  0  0
   17.8264  -26.3024  -10.6650 C   0  0  0  0  0  0  0  0  0  0  0  0
   18.0877  -26.4475   -9.2720 N   0  0  0  0  0  0  0  0  0  0  0  0
   19.7743  -21.5512  -13.3240 C   0  0  0  0  0  0  0  0  0  0  0  0
   19.3453  -20.4120  -13.0042 O   0  0  0  0  0  0  0  0  0  0  0  0
   23.6543  -20.8340  -12.7758 C   0  0  0  0  0  0  0  0  0  0  0  0
   23.2422  -20.5917  -14.2169 C   0  0  1  0  0  0  0  0  0  0  0  0
   23.7161  -21.5960  -15.0595 O   0  0  0  0  0  0  0  0  0  0  0  0
   21.7443  -20.4029  -14.3511 C   0  0  2  0  0  0  0  0  0  0  0  0
   20.9981  -21.5772  -14.0233 N   0  0  0  0  0  0  0  0  0  0  0  0
   21.4826  -20.0424  -15.7640 C   0  0  0  0  0  0  0  0  0  0  0  0
   20.7804  -20.8198  -16.4548 O   0  0  0  0  0  0  0  0  0  0  0  0
   21.9666  -18.8861  -16.3896 N   0  0  0  0  0  0  0  0  0  0  0  0
   21.2394  -18.1512  -17.4430 C   0  0  1  0  0  0  0  0  0  0  0  0
   19.8690  -17.7984  -17.0006 C   0  0  0  0  0  0  0  0  0  0  0  0
   19.1373  -17.0282  -18.0517 C   0  0  0  0  0  0  0  0  0  0  0  0
   17.7604  -16.6518  -17.5989 C   0  0  0  0  0  0  0  0  0  0  0  0
   16.8403  -16.6721  -18.4439 O   0  0  0  0  0  0  0  0  0  0  0  0
   22.0623  -16.9801  -17.7904 C   0  0  0  0  0  0  0  0  0  0  0  0
   22.9854  -16.4998  -16.8665 O   0  0  0  0  0  0  0  0  0  0  0  0
   17.4841  -16.2895  -16.2971 O   0  0  0  0  0  0  0  0  0  0  0  0
   22.0063  -16.3558  -18.8762 O   0  0  0  0  0  0  0  0  0  0  0  0
  2  1  1  1
  3  2  1  0
  3  4  1  0
  5  4  1  0
  5  6  1  0
  7  6  1  0
  8  9  2  0
  8  2  1  0
 11 10  1  1
 11 13  1  0
 12 11  1  0
 13 14  1  6
 14  8  1  0
 15 17  1  0
 15 13  1  0
 16 15  2  0
 18 19  1  1
 18 17  1  0
 19 20  1  0
 20 21  1  0
 21 25  1  0
 22 21  2  0
 23 18  1  0
 24 23  1  0
 26 23  2  0
M  END
$$$$
