KTE.pdb
     RDKit          3D

 26 25  0  0  1  0  0  0  0  0999 V2000
   24.6128  -20.5428   -8.6649 N   0  0  0  0  0  0  0  0  0  0  0  0
   24.1491  -20.8261   -9.9739 C   0  0  1  0  0  0  0  0  0  0  0  0
   22.7322  -20.3879  -10.1897 C   0  0  0  0  0  0  0  0  0  0  0  0
   21.6873  -21.2731   -9.6340 C   0  0  0  0  0  0  0  0  0  0  0  0
   21.2228  -21.0212   -8.2364 C   0  0  0  0  0  0  0  0  0  0  0  0
   20.1476  -21.9355   -7.7429 C   0  0  0  0  0  0  0  0  0  0  0  0
   20.5592  -23.0193   -6.9149 N   0  0  0  0  0  0  0  0  0  0  0  0
   24.9719  -20.2356  -11.0667 C   0  0  0  0  0  0  0  0  0  0  0  0
   25.5531  -19.1413  -10.8462 O   0  0  0  0  0  0  0  0  0  0  0  0
   28.2149  -20.5865  -12.6131 C   0  0  0  0  0  0  0  0  0  0  0  0
   27.2015  -20.7756  -13.7279 C   0  0  1  0  0  0  0  0  0  0  0  0
   27.0541  -22.1211  -14.0613 O   0  0  0  0  0  0  0  0  0  0  0  0
   25.8719  -20.1274  -13.3975 C   0  0  2  0  0  0  0  0  0  0  0  0
   25.1676  -20.7929  -12.3466 N   0  0  0  0  0  0  0  0  0  0  0  0
   25.0543  -20.1728  -14.6320 C   0  0  0  0  0  0  0  0  0  0  0  0
   23.9127  -20.6900  -14.5693 O   0  0  0  0  0  0  0  0  0  0  0  0
   25.4673  -19.6756  -15.8749 N   0  0  0  0  0  0  0  0  0  0  0  0
   24.5425  -19.2910  -16.9591 C   0  0  1  0  0  0  0  0  0  0  0  0
   23.5194  -18.3333  -16.4751 C   0  0  0  0  0  0  0  0  0  0  0  0
   22.6371  -17.8682  -17.5881 C   0  0  0  0  0  0  0  0  0  0  0  0
   21.7203  -16.7717  -17.1412 C   0  0  0  0  0  0  0  0  0  0  0  0
   22.0790  -16.0664  -16.1743 O   0  0  0  0  0  0  0  0  0  0  0  0
   25.3699  -18.7595  -18.0556 C   0  0  0  0  0  0  0  0  0  0  0  0
   24.9935  -19.0063  -19.3723 O   0  0  0  0  0  0  0  0  0  0  0  0
   20.5114  -16.5227  -17.7568 O   0  0  0  0  0  0  0  0  0  0  0  0
   26.4155  -18.0836  -17.9078 O   0  0  0  0  0  0  0  0  0  0  0  0
  2  1  1  1
  3  2  1  0
  3  4  1  0
  5  4  1  0
  5  6  1  0
  7  6  1  0
  8  9  2  0
  8  2  1  0
 11 10  1  1
 11 13  1  0
 12 11  1  0
 13 14  1  1
 14  8  1  0
 15 17  1  0
 15 13  1  0
 16 15  2  0
 18 19  1  1
 18 17  1  0
 19 20  1  0
 20 21  1  0
 21 25  1  0
 22 21  2  0
 23 18  1  0
 24 23  1  0
 26 23  2  0
M  END
$$$$
