KTE.pdb
     RDKit          3D

 26 25  0  0  1  0  0  0  0  0999 V2000
   15.0322  -11.1601  -15.4606 N   0  0  0  0  0  0  0  0  0  0  0  0
   16.3470  -10.8943  -15.0029 C   0  0  1  0  0  0  0  0  0  0  0  0
   17.3587  -11.8375  -15.5801 C   0  0  0  0  0  0  0  0  0  0  0  0
   16.9827  -13.2667  -15.5889 C   0  0  0  0  0  0  0  0  0  0  0  0
   17.9152  -14.2349  -16.2413 C   0  0  0  0  0  0  0  0  0  0  0  0
   17.5123  -15.6722  -16.1540 C   0  0  0  0  0  0  0  0  0  0  0  0
   18.4122  -16.6242  -16.7138 N   0  0  0  0  0  0  0  0  0  0  0  0
   16.8276   -9.5082  -15.2622 C   0  0  0  0  0  0  0  0  0  0  0  0
   16.6522   -9.0249  -16.4109 O   0  0  0  0  0  0  0  0  0  0  0  0
   15.7042   -6.1746  -14.6557 C   0  0  0  0  0  0  0  0  0  0  0  0
   17.0755   -6.2635  -14.0101 C   0  0  1  0  0  0  0  0  0  0  0  0
   16.9804   -6.4141  -12.6275 O   0  0  0  0  0  0  0  0  0  0  0  0
   17.9257   -7.3495  -14.6386 C   0  0  2  0  0  0  0  0  0  0  0  0
   17.4708   -8.6690  -14.3299 N   0  0  0  0  0  0  0  0  0  0  0  0
   19.2998   -7.1764  -14.1131 C   0  0  0  0  0  0  0  0  0  0  0  0
   19.8604   -8.1643  -13.5798 O   0  0  0  0  0  0  0  0  0  0  0  0
   20.0247   -5.9789  -14.1689 N   0  0  0  0  0  0  0  0  0  0  0  0
   21.4965   -5.8999  -14.0889 C   0  0  1  0  0  0  0  0  0  0  0  0
   22.1346   -6.7307  -15.1381 C   0  0  0  0  0  0  0  0  0  0  0  0
   23.6251   -6.6407  -15.0741 C   0  0  0  0  0  0  0  0  0  0  0  0
   24.2727   -7.4958  -16.1192 C   0  0  0  0  0  0  0  0  0  0  0  0
   23.5676   -7.8905  -17.0720 O   0  0  0  0  0  0  0  0  0  0  0  0
   21.8515   -4.4731  -14.1751 C   0  0  0  0  0  0  0  0  0  0  0  0
   22.9623   -4.0058  -13.4795 O   0  0  0  0  0  0  0  0  0  0  0  0
   25.6034   -7.8537  -16.0602 O   0  0  0  0  0  0  0  0  0  0  0  0
   21.2253   -3.6130  -14.8385 O   0  0  0  0  0  0  0  0  0  0  0  0
  2  1  1  6
  3  2  1  0
  3  4  1  0
  5  4  1  0
  5  6  1  0
  7  6  1  0
  8  9  2  0
  8  2  1  0
 11 10  1  6
 11 13  1  0
 12 11  1  0
 13 14  1  1
 14  8  1  0
 15 17  1  0
 15 13  1  0
 16 15  2  0
 18 19  1  6
 18 17  1  0
 19 20  1  0
 20 21  1  0
 21 25  1  0
 22 21  2  0
 23 18  1  0
 24 23  1  0
 26 23  2  0
M  END
$$$$
