KTE.pdb
     RDKit          3D

 26 25  0  0  1  0  0  0  0  0999 V2000
   23.0715  -15.3863  -16.6893 N   0  0  0  0  0  0  0  0  0  0  0  0
   22.8096  -14.0816  -17.1770 C   0  0  1  0  0  0  0  0  0  0  0  0
   21.3896  -13.9092  -17.6245 C   0  0  0  0  0  0  0  0  0  0  0  0
   20.8214  -15.0162  -18.4218 C   0  0  0  0  0  0  0  0  0  0  0  0
   20.2576  -14.6957  -19.7679 C   0  0  0  0  0  0  0  0  0  0  0  0
   19.7028  -15.8597  -20.5250 C   0  0  0  0  0  0  0  0  0  0  0  0
   19.0123  -15.5652  -21.7358 N   0  0  0  0  0  0  0  0  0  0  0  0
   23.1122  -12.9854  -16.2145 C   0  0  0  0  0  0  0  0  0  0  0  0
   22.4886  -12.9670  -15.1215 O   0  0  0  0  0  0  0  0  0  0  0  0
   26.4632  -10.2722  -16.5086 C   0  0  0  0  0  0  0  0  0  0  0  0
   25.7228  -10.5976  -15.2235 C   0  0  1  0  0  0  0  0  0  0  0  0
   25.8968   -9.5988  -14.2668 O   0  0  0  0  0  0  0  0  0  0  0  0
   24.2567  -10.8882  -15.4754 C   0  0  2  0  0  0  0  0  0  0  0  0
   24.0462  -11.9479  -16.4112 N   0  0  0  0  0  0  0  0  0  0  0  0
   23.6589   -9.6434  -16.0120 C   0  0  0  0  0  0  0  0  0  0  0  0
   23.6595   -9.4725  -17.2551 O   0  0  0  0  0  0  0  0  0  0  0  0
   23.0883   -8.6348  -15.2247 N   0  0  0  0  0  0  0  0  0  0  0  0
   22.2468   -7.5465  -15.7595 C   0  0  1  0  0  0  0  0  0  0  0  0
   21.1299   -8.0842  -16.5729 C   0  0  0  0  0  0  0  0  0  0  0  0
   21.1707   -7.5588  -17.9714 C   0  0  0  0  0  0  0  0  0  0  0  0
   19.8309   -7.6537  -18.6336 C   0  0  0  0  0  0  0  0  0  0  0  0
   18.8714   -8.0782  -17.9553 O   0  0  0  0  0  0  0  0  0  0  0  0
   21.7994   -6.7481  -14.6055 C   0  0  0  0  0  0  0  0  0  0  0  0
   21.0742   -5.5813  -14.8263 O   0  0  0  0  0  0  0  0  0  0  0  0
   19.6300   -7.2918  -19.9493 O   0  0  0  0  0  0  0  0  0  0  0  0
   22.0186   -7.0316  -13.4040 O   0  0  0  0  0  0  0  0  0  0  0  0
  2  1  1  1
  3  2  1  0
  3  4  1  0
  5  4  1  0
  5  6  1  0
  7  6  1  0
  8  9  2  0
  8  2  1  0
 11 10  1  6
 11 13  1  0
 12 11  1  0
 13 14  1  6
 14  8  1  0
 15 17  1  0
 15 13  1  0
 16 15  2  0
 18 19  1  1
 18 17  1  0
 19 20  1  0
 20 21  1  0
 21 25  1  0
 22 21  2  0
 23 18  1  0
 24 23  1  0
 26 23  2  0
M  END
$$$$
