KTE.pdb
     RDKit          3D

 26 25  0  0  1  0  0  0  0  0999 V2000
   17.8584  -14.2623  -15.8216 N   0  0  0  0  0  0  0  0  0  0  0  0
   17.2321  -13.0060  -16.0168 C   0  0  1  0  0  0  0  0  0  0  0  0
   16.3350  -12.6273  -14.8775 C   0  0  0  0  0  0  0  0  0  0  0  0
   15.5338  -13.7219  -14.2907 C   0  0  0  0  0  0  0  0  0  0  0  0
   14.2390  -14.0751  -14.9473 C   0  0  0  0  0  0  0  0  0  0  0  0
   13.4930  -15.2117  -14.3248 C   0  0  0  0  0  0  0  0  0  0  0  0
   12.1796  -15.4613  -14.8171 N   0  0  0  0  0  0  0  0  0  0  0  0
   18.1707  -11.8715  -16.2441 C   0  0  0  0  0  0  0  0  0  0  0  0
   19.3955  -12.0626  -16.0263 O   0  0  0  0  0  0  0  0  0  0  0  0
   19.4875  -10.2075  -19.2243 C   0  0  0  0  0  0  0  0  0  0  0  0
   18.8599   -9.1219  -18.3683 C   0  0  1  0  0  0  0  0  0  0  0  0
   17.6253   -8.7207  -18.8763 O   0  0  0  0  0  0  0  0  0  0  0  0
   18.7635   -9.5360  -16.9134 C   0  0  2  0  0  0  0  0  0  0  0  0
   17.8154  -10.5817  -16.6880 N   0  0  0  0  0  0  0  0  0  0  0  0
   18.3485   -8.3347  -16.1524 C   0  0  0  0  0  0  0  0  0  0  0  0
   17.1609   -8.2659  -15.7527 O   0  0  0  0  0  0  0  0  0  0  0  0
   19.1935   -7.2607  -15.8440 N   0  0  0  0  0  0  0  0  0  0  0  0
   18.7763   -6.0791  -15.0641 C   0  0  1  0  0  0  0  0  0  0  0  0
   19.7469   -5.7811  -13.9837 C   0  0  0  0  0  0  0  0  0  0  0  0
   21.1454   -6.1009  -14.4027 C   0  0  0  0  0  0  0  0  0  0  0  0
   22.1254   -5.8224  -13.3051 C   0  0  0  0  0  0  0  0  0  0  0  0
   21.9920   -4.7633  -12.6561 O   0  0  0  0  0  0  0  0  0  0  0  0
   18.6096   -4.9735  -16.0229 C   0  0  0  0  0  0  0  0  0  0  0  0
   18.1170   -3.7522  -15.5732 O   0  0  0  0  0  0  0  0  0  0  0  0
   23.1538   -6.6880  -12.9960 O   0  0  0  0  0  0  0  0  0  0  0  0
   18.8790   -5.0327  -17.2459 O   0  0  0  0  0  0  0  0  0  0  0  0
  2  1  1  1
  3  2  1  0
  3  4  1  0
  5  4  1  0
  5  6  1  0
  7  6  1  0
  8  9  2  0
  8  2  1  0
 11 10  1  6
 11 13  1  0
 12 11  1  0
 13 14  1  6
 14  8  1  0
 15 17  1  0
 15 13  1  0
 16 15  2  0
 18 19  1  1
 18 17  1  0
 19 20  1  0
 20 21  1  0
 21 25  1  0
 22 21  2  0
 23 18  1  0
 24 23  1  0
 26 23  2  0
M  END
$$$$
