KTE.pdb
     RDKit          3D

 26 25  0  0  1  0  0  0  0  0999 V2000
   28.5024  -18.7005  -15.5620 N   0  0  0  0  0  0  0  0  0  0  0  0
   27.4541  -18.3487  -14.6753 C   0  0  1  0  0  0  0  0  0  0  0  0
   26.7213  -17.1162  -15.1113 C   0  0  0  0  0  0  0  0  0  0  0  0
   27.3067  -16.3828  -16.2531 C   0  0  0  0  0  0  0  0  0  0  0  0
   27.3580  -17.0706  -17.5785 C   0  0  0  0  0  0  0  0  0  0  0  0
   27.9274  -16.2616  -18.6997 C   0  0  0  0  0  0  0  0  0  0  0  0
   27.9742  -16.8855  -19.9796 N   0  0  0  0  0  0  0  0  0  0  0  0
   26.4405  -19.4182  -14.4550 C   0  0  0  0  0  0  0  0  0  0  0  0
   26.2611  -20.2629  -15.3706 O   0  0  0  0  0  0  0  0  0  0  0  0
   26.3609  -21.7704  -11.4376 C   0  0  0  0  0  0  0  0  0  0  0  0
   24.9387  -21.3089  -11.7023 C   0  0  1  0  0  0  0  0  0  0  0  0
   24.4883  -20.4449  -10.7054 O   0  0  0  0  0  0  0  0  0  0  0  0
   24.7903  -20.7027  -13.0835 C   0  0  2  0  0  0  0  0  0  0  0  0
   25.6485  -19.5803  -13.3002 N   0  0  0  0  0  0  0  0  0  0  0  0
   23.3806  -20.2652  -13.2104 C   0  0  0  0  0  0  0  0  0  0  0  0
   23.1464  -19.0357  -13.3006 O   0  0  0  0  0  0  0  0  0  0  0  0
   22.2809  -21.1327  -13.2372 N   0  0  0  0  0  0  0  0  0  0  0  0
   20.8835  -20.6895  -13.4092 C   0  0  1  0  0  0  0  0  0  0  0  0
   20.7102  -19.9475  -14.6811 C   0  0  0  0  0  0  0  0  0  0  0  0
   19.2755  -19.6059  -14.9227 C   0  0  0  0  0  0  0  0  0  0  0  0
   18.9704  -18.1966  -14.5183 C   0  0  0  0  0  0  0  0  0  0  0  0
   19.2047  -17.2874  -15.3426 O   0  0  0  0  0  0  0  0  0  0  0  0
   20.0404  -21.8934  -13.3140 C   0  0  0  0  0  0  0  0  0  0  0  0
   20.6031  -23.1395  -13.5725 O   0  0  0  0  0  0  0  0  0  0  0  0
   18.4468  -17.8797  -13.2823 O   0  0  0  0  0  0  0  0  0  0  0  0
   18.8236  -21.8996  -13.0119 O   0  0  0  0  0  0  0  0  0  0  0  0
  2  1  1  6
  3  2  1  0
  3  4  1  0
  5  4  1  0
  5  6  1  0
  7  6  1  0
  8  9  2  0
  8  2  1  0
 11 10  1  1
 11 13  1  0
 12 11  1  0
 13 14  1  1
 14  8  1  0
 15 17  1  0
 15 13  1  0
 16 15  2  0
 18 19  1  6
 18 17  1  0
 19 20  1  0
 20 21  1  0
 21 25  1  0
 22 21  2  0
 23 18  1  0
 24 23  1  0
 26 23  2  0
M  END
$$$$
