KTE.pdb
     RDKit          3D

 26 25  0  0  1  0  0  0  0  0999 V2000
   14.2934  -10.4969  -10.5080 N   0  0  0  0  0  0  0  0  0  0  0  0
   14.7208   -9.3526  -11.2268 C   0  0  1  0  0  0  0  0  0  0  0  0
   14.2763   -8.0722  -10.5870 C   0  0  0  0  0  0  0  0  0  0  0  0
   12.8167   -7.8929  -10.4398 C   0  0  0  0  0  0  0  0  0  0  0  0
   12.3275   -6.6953   -9.6921 C   0  0  0  0  0  0  0  0  0  0  0  0
   10.8492   -6.6332   -9.4764 C   0  0  0  0  0  0  0  0  0  0  0  0
   10.3637   -5.5586   -8.6769 N   0  0  0  0  0  0  0  0  0  0  0  0
   16.1935   -9.2622  -11.4337 C   0  0  0  0  0  0  0  0  0  0  0  0
   16.9464   -9.5266  -10.4605 O   0  0  0  0  0  0  0  0  0  0  0  0
   18.5618  -11.4347  -12.7971 C   0  0  0  0  0  0  0  0  0  0  0  0
   18.7301  -10.1506  -13.5898 C   0  0  1  0  0  0  0  0  0  0  0  0
   18.1154  -10.2367  -14.8380 O   0  0  0  0  0  0  0  0  0  0  0  0
   18.2565   -8.9402  -12.8101 C   0  0  2  0  0  0  0  0  0  0  0  0
   16.8384   -8.9038  -12.6349 N   0  0  0  0  0  0  0  0  0  0  0  0
   18.6800   -7.7447  -13.5756 C   0  0  0  0  0  0  0  0  0  0  0  0
   17.8538   -7.2184  -14.3598 O   0  0  0  0  0  0  0  0  0  0  0  0
   19.9473   -7.1542  -13.4861 N   0  0  0  0  0  0  0  0  0  0  0  0
   20.3902   -6.0192  -14.3193 C   0  0  1  0  0  0  0  0  0  0  0  0
   20.2952   -4.7403  -13.5754 C   0  0  0  0  0  0  0  0  0  0  0  0
   20.7702   -3.5905  -14.4035 C   0  0  0  0  0  0  0  0  0  0  0  0
   20.6269   -2.2909  -13.6733 C   0  0  0  0  0  0  0  0  0  0  0  0
   19.5052   -1.7407  -13.6722 O   0  0  0  0  0  0  0  0  0  0  0  0
   21.7557   -6.3323  -14.7739 C   0  0  0  0  0  0  0  0  0  0  0  0
   22.2914   -5.6313  -15.8499 O   0  0  0  0  0  0  0  0  0  0  0  0
   21.6807   -1.6944  -13.0130 O   0  0  0  0  0  0  0  0  0  0  0  0
   22.5041   -7.1999  -14.2648 O   0  0  0  0  0  0  0  0  0  0  0  0
  2  1  1  1
  3  2  1  0
  3  4  1  0
  5  4  1  0
  5  6  1  0
  7  6  1  0
  8  9  2  0
  8  2  1  0
 11 10  1  1
 11 13  1  0
 12 11  1  0
 13 14  1  6
 14  8  1  0
 15 17  1  0
 15 13  1  0
 16 15  2  0
 18 19  1  1
 18 17  1  0
 19 20  1  0
 20 21  1  0
 21 25  1  0
 22 21  2  0
 23 18  1  0
 24 23  1  0
 26 23  2  0
M  END
$$$$
