KTE.pdb
     RDKit          3D

 26 25  0  0  1  0  0  0  0  0999 V2000
   23.5971  -20.7486  -15.0080 N   0  0  0  0  0  0  0  0  0  0  0  0
   23.4567  -19.7207  -15.9737 C   0  0  1  0  0  0  0  0  0  0  0  0
   22.1780  -19.8295  -16.7479 C   0  0  0  0  0  0  0  0  0  0  0  0
   21.9296  -21.1263  -17.4118 C   0  0  0  0  0  0  0  0  0  0  0  0
   20.8831  -22.0227  -16.8341 C   0  0  0  0  0  0  0  0  0  0  0  0
   20.6722  -23.3133  -17.5592 C   0  0  0  0  0  0  0  0  0  0  0  0
   19.8259  -24.2706  -16.9290 N   0  0  0  0  0  0  0  0  0  0  0  0
   23.5321  -18.3375  -15.4254 C   0  0  0  0  0  0  0  0  0  0  0  0
   23.2856  -18.1701  -14.2026 O   0  0  0  0  0  0  0  0  0  0  0  0
   26.2123  -15.9060  -14.5844 C   0  0  0  0  0  0  0  0  0  0  0  0
   25.2902  -15.2556  -15.6003 C   0  0  1  0  0  0  0  0  0  0  0  0
   25.8452  -15.2733  -16.8789 O   0  0  0  0  0  0  0  0  0  0  0  0
   23.9044  -15.8692  -15.5784 C   0  0  2  0  0  0  0  0  0  0  0  0
   23.8592  -17.1764  -16.1549 N   0  0  0  0  0  0  0  0  0  0  0  0
   23.0237  -14.9670  -16.3561 C   0  0  0  0  0  0  0  0  0  0  0  0
   22.7826  -15.2588  -17.5525 O   0  0  0  0  0  0  0  0  0  0  0  0
   22.4355  -13.8015  -15.8477 N   0  0  0  0  0  0  0  0  0  0  0  0
   21.5513  -12.9144  -16.6285 C   0  0  1  0  0  0  0  0  0  0  0  0
   20.8044  -11.9892  -15.7430 C   0  0  0  0  0  0  0  0  0  0  0  0
   19.8990  -11.0951  -16.5268 C   0  0  0  0  0  0  0  0  0  0  0  0
   19.1667  -10.1383  -15.6375 C   0  0  0  0  0  0  0  0  0  0  0  0
   18.0444  -10.4803  -15.2079 O   0  0  0  0  0  0  0  0  0  0  0  0
   22.4024  -12.2240  -17.6125 C   0  0  0  0  0  0  0  0  0  0  0  0
   23.7069  -11.8868  -17.2650 O   0  0  0  0  0  0  0  0  0  0  0  0
   19.6877   -8.9107  -15.2853 O   0  0  0  0  0  0  0  0  0  0  0  0
   22.0490  -11.9016  -18.7714 O   0  0  0  0  0  0  0  0  0  0  0  0
  2  1  1  1
  3  2  1  0
  3  4  1  0
  5  4  1  0
  5  6  1  0
  7  6  1  0
  8  9  2  0
  8  2  1  0
 11 10  1  1
 11 13  1  0
 12 11  1  0
 13 14  1  6
 14  8  1  0
 15 17  1  0
 15 13  1  0
 16 15  2  0
 18 19  1  1
 18 17  1  0
 19 20  1  0
 20 21  1  0
 21 25  1  0
 22 21  2  0
 23 18  1  0
 24 23  1  0
 26 23  2  0
M  END
$$$$
