KTE.pdb
     RDKit          3D

 26 25  0  0  1  0  0  0  0  0999 V2000
   24.6347  -13.5733  -19.0536 N   0  0  0  0  0  0  0  0  0  0  0  0
   24.4149  -12.1829  -19.2188 C   0  0  1  0  0  0  0  0  0  0  0  0
   23.3133  -11.8862  -20.1908 C   0  0  0  0  0  0  0  0  0  0  0  0
   23.3813  -12.5962  -21.4852 C   0  0  0  0  0  0  0  0  0  0  0  0
   22.3412  -12.2865  -22.5123 C   0  0  0  0  0  0  0  0  0  0  0  0
   22.4048  -13.1102  -23.7585 C   0  0  0  0  0  0  0  0  0  0  0  0
   21.8193  -14.4077  -23.6987 N   0  0  0  0  0  0  0  0  0  0  0  0
   24.1112  -11.4471  -17.9594 C   0  0  0  0  0  0  0  0  0  0  0  0
   23.4244  -12.0320  -17.0818 O   0  0  0  0  0  0  0  0  0  0  0  0
   26.3698  -10.6603  -15.2955 C   0  0  0  0  0  0  0  0  0  0  0  0
   25.7001   -9.3417  -15.6394 C   0  0  1  0  0  0  0  0  0  0  0  0
   26.5538   -8.5080  -16.3600 O   0  0  0  0  0  0  0  0  0  0  0  0
   24.3792   -9.5492  -16.3531 C   0  0  2  0  0  0  0  0  0  0  0  0
   24.5258  -10.1363  -17.6480 N   0  0  0  0  0  0  0  0  0  0  0  0
   23.7546   -8.2135  -16.4956 C   0  0  0  0  0  0  0  0  0  0  0  0
   23.9643   -7.5697  -17.5522 O   0  0  0  0  0  0  0  0  0  0  0  0
   22.9396   -7.6122  -15.5277 N   0  0  0  0  0  0  0  0  0  0  0  0
   22.3195   -6.2816  -15.6811 C   0  0  1  0  0  0  0  0  0  0  0  0
   20.8684   -6.3297  -15.3807 C   0  0  0  0  0  0  0  0  0  0  0  0
   20.1111   -7.0368  -16.4577 C   0  0  0  0  0  0  0  0  0  0  0  0
   18.6424   -7.0683  -16.1671 C   0  0  0  0  0  0  0  0  0  0  0  0
   18.2384   -6.4996  -15.1307 O   0  0  0  0  0  0  0  0  0  0  0  0
   23.0679   -5.3602  -14.8091 C   0  0  0  0  0  0  0  0  0  0  0  0
   22.8257   -3.9928  -14.8980 O   0  0  0  0  0  0  0  0  0  0  0  0
   17.7384   -7.6970  -16.9977 O   0  0  0  0  0  0  0  0  0  0  0  0
   23.9306   -5.7049  -13.9672 O   0  0  0  0  0  0  0  0  0  0  0  0
  2  1  1  1
  3  2  1  0
  3  4  1  0
  5  4  1  0
  5  6  1  0
  7  6  1  0
  8  9  2  0
  8  2  1  0
 11 10  1  6
 11 13  1  0
 12 11  1  0
 13 14  1  6
 14  8  1  0
 15 17  1  0
 15 13  1  0
 16 15  2  0
 18 19  1  1
 18 17  1  0
 19 20  1  0
 20 21  1  0
 21 25  1  0
 22 21  2  0
 23 18  1  0
 24 23  1  0
 26 23  2  0
M  END
$$$$
