KTE.pdb
     RDKit          3D

 26 25  0  0  1  0  0  0  0  0999 V2000
   16.7242  -12.9887  -15.0399 N   0  0  0  0  0  0  0  0  0  0  0  0
   18.0284  -12.4769  -15.2542 C   0  0  1  0  0  0  0  0  0  0  0  0
   18.7214  -13.1338  -16.4095 C   0  0  0  0  0  0  0  0  0  0  0  0
   18.5722  -14.6010  -16.5067 C   0  0  0  0  0  0  0  0  0  0  0  0
   19.2784  -15.3072  -17.6180 C   0  0  0  0  0  0  0  0  0  0  0  0
   19.1322  -16.7952  -17.6280 C   0  0  0  0  0  0  0  0  0  0  0  0
   19.8077  -17.4977  -18.6672 N   0  0  0  0  0  0  0  0  0  0  0  0
   18.0907  -11.0045  -15.4729 C   0  0  0  0  0  0  0  0  0  0  0  0
   17.5533  -10.5358  -16.5100 O   0  0  0  0  0  0  0  0  0  0  0  0
   16.2515   -8.2236  -14.6618 C   0  0  0  0  0  0  0  0  0  0  0  0
   17.6345   -7.9095  -14.1195 C   0  0  1  0  0  0  0  0  0  0  0  0
   17.7061   -8.1291  -12.7448 O   0  0  0  0  0  0  0  0  0  0  0  0
   18.7177   -8.6604  -14.8679 C   0  0  2  0  0  0  0  0  0  0  0  0
   18.7030  -10.0674  -14.6162 N   0  0  0  0  0  0  0  0  0  0  0  0
   20.0145   -8.1023  -14.4189 C   0  0  0  0  0  0  0  0  0  0  0  0
   20.6484   -8.7168  -13.5271 O   0  0  0  0  0  0  0  0  0  0  0  0
   20.5890   -6.9281  -14.9226 N   0  0  0  0  0  0  0  0  0  0  0  0
   21.8848   -6.3836  -14.4721 C   0  0  1  0  0  0  0  0  0  0  0  0
   22.5384   -5.5993  -15.5471 C   0  0  0  0  0  0  0  0  0  0  0  0
   21.7736   -4.3529  -15.8557 C   0  0  0  0  0  0  0  0  0  0  0  0
   22.4160   -3.5733  -16.9613 C   0  0  0  0  0  0  0  0  0  0  0  0
   23.5663   -3.9044  -17.3193 O   0  0  0  0  0  0  0  0  0  0  0  0
   21.6166   -5.5987  -13.2549 C   0  0  0  0  0  0  0  0  0  0  0  0
   22.6645   -5.3148  -12.3845 O   0  0  0  0  0  0  0  0  0  0  0  0
   21.7839   -2.5179  -17.5849 O   0  0  0  0  0  0  0  0  0  0  0  0
   20.4956   -5.1484  -12.9196 O   0  0  0  0  0  0  0  0  0  0  0  0
  2  1  1  6
  3  2  1  0
  3  4  1  0
  5  4  1  0
  5  6  1  0
  7  6  1  0
  8  9  2  0
  8  2  1  0
 11 10  1  6
 11 13  1  0
 12 11  1  0
 13 14  1  1
 14  8  1  0
 15 17  1  0
 15 13  1  0
 16 15  2  0
 18 19  1  6
 18 17  1  0
 19 20  1  0
 20 21  1  0
 21 25  1  0
 22 21  2  0
 23 18  1  0
 24 23  1  0
 26 23  2  0
M  END
$$$$
