KTE.pdb
     RDKit          3D

 26 25  0  0  1  0  0  0  0  0999 V2000
   22.4247  -14.2208  -17.6161 N   0  0  0  0  0  0  0  0  0  0  0  0
   21.6659  -13.0240  -17.5909 C   0  0  1  0  0  0  0  0  0  0  0  0
   20.1933  -13.2788  -17.4775 C   0  0  0  0  0  0  0  0  0  0  0  0
   19.6845  -14.4711  -18.1871 C   0  0  0  0  0  0  0  0  0  0  0  0
   18.2257  -14.7788  -18.0880 C   0  0  0  0  0  0  0  0  0  0  0  0
   17.7775  -16.0047  -18.8173 C   0  0  0  0  0  0  0  0  0  0  0  0
   16.3957  -16.3378  -18.7203 N   0  0  0  0  0  0  0  0  0  0  0  0
   22.0406  -12.0725  -16.5073 C   0  0  0  0  0  0  0  0  0  0  0  0
   22.4299  -12.5481  -15.4090 O   0  0  0  0  0  0  0  0  0  0  0  0
   24.4280  -11.3619  -15.0149 C   0  0  0  0  0  0  0  0  0  0  0  0
   24.0460   -9.9518  -15.4284 C   0  0  1  0  0  0  0  0  0  0  0  0
   24.7389   -9.5484  -16.5688 O   0  0  0  0  0  0  0  0  0  0  0  0
   22.5473   -9.7995  -15.5958 C   0  0  2  0  0  0  0  0  0  0  0  0
   22.0020  -10.6660  -16.5933 N   0  0  0  0  0  0  0  0  0  0  0  0
   22.3007   -8.3929  -15.9899 C   0  0  0  0  0  0  0  0  0  0  0  0
   21.8566   -8.1682  -17.1419 O   0  0  0  0  0  0  0  0  0  0  0  0
   22.5294   -7.2861  -15.1621 N   0  0  0  0  0  0  0  0  0  0  0  0
   21.7908   -6.0122  -15.2636 C   0  0  1  0  0  0  0  0  0  0  0  0
   20.3261   -6.2421  -15.2700 C   0  0  0  0  0  0  0  0  0  0  0  0
   19.5735   -4.9627  -15.4443 C   0  0  0  0  0  0  0  0  0  0  0  0
   18.1308   -5.2122  -15.7590 C   0  0  0  0  0  0  0  0  0  0  0  0
   17.7241   -4.9272  -16.9055 O   0  0  0  0  0  0  0  0  0  0  0  0
   22.2460   -5.1662  -14.1473 C   0  0  0  0  0  0  0  0  0  0  0  0
   22.2537   -3.7833  -14.3016 O   0  0  0  0  0  0  0  0  0  0  0  0
   17.2534   -5.7388  -14.8343 O   0  0  0  0  0  0  0  0  0  0  0  0
   22.6399   -5.5902  -13.0351 O   0  0  0  0  0  0  0  0  0  0  0  0
  2  1  1  1
  3  2  1  0
  3  4  1  0
  5  4  1  0
  5  6  1  0
  7  6  1  0
  8  9  2  0
  8  2  1  0
 11 10  1  6
 11 13  1  0
 12 11  1  0
 13 14  1  6
 14  8  1  0
 15 17  1  0
 15 13  1  0
 16 15  2  0
 18 19  1  1
 18 17  1  0
 19 20  1  0
 20 21  1  0
 21 25  1  0
 22 21  2  0
 23 18  1  0
 24 23  1  0
 26 23  2  0
M  END
$$$$
