KTE.pdb
     RDKit          3D

 26 25  0  0  1  0  0  0  0  0999 V2000
   18.1309  -12.9027  -17.4836 N   0  0  0  0  0  0  0  0  0  0  0  0
   18.0738  -11.7632  -16.6427 C   0  0  1  0  0  0  0  0  0  0  0  0
   17.7957  -12.1168  -15.2130 C   0  0  0  0  0  0  0  0  0  0  0  0
   16.3966  -12.4686  -14.8918 C   0  0  0  0  0  0  0  0  0  0  0  0
   15.9643  -13.8848  -15.0920 C   0  0  0  0  0  0  0  0  0  0  0  0
   14.5536  -14.1867  -14.6988 C   0  0  0  0  0  0  0  0  0  0  0  0
   14.1502  -15.5517  -14.7604 N   0  0  0  0  0  0  0  0  0  0  0  0
   19.2967  -10.9125  -16.6640 C   0  0  0  0  0  0  0  0  0  0  0  0
   20.2517  -11.2279  -15.9074 O   0  0  0  0  0  0  0  0  0  0  0  0
   21.5876  -10.5165  -19.5549 C   0  0  0  0  0  0  0  0  0  0  0  0
   21.2413   -9.1212  -19.0666 C   0  0  1  0  0  0  0  0  0  0  0  0
   20.3292   -8.4950  -19.9145 O   0  0  0  0  0  0  0  0  0  0  0  0
   20.7611   -9.1297  -17.6290 C   0  0  2  0  0  0  0  0  0  0  0  0
   19.4930   -9.7682  -17.4635 N   0  0  0  0  0  0  0  0  0  0  0  0
   20.6487   -7.7143  -17.2062 C   0  0  0  0  0  0  0  0  0  0  0  0
   19.5159   -7.1750  -17.2325 O   0  0  0  0  0  0  0  0  0  0  0  0
   21.7251   -6.9279  -16.7755 N   0  0  0  0  0  0  0  0  0  0  0  0
   21.6004   -5.5210  -16.3469 C   0  0  1  0  0  0  0  0  0  0  0  0
   22.2507   -5.3025  -15.0325 C   0  0  0  0  0  0  0  0  0  0  0  0
   21.5498   -6.0513  -13.9455 C   0  0  0  0  0  0  0  0  0  0  0  0
   22.2012   -5.8276  -12.6157 C   0  0  0  0  0  0  0  0  0  0  0  0
   23.2094   -5.0910  -12.5742 O   0  0  0  0  0  0  0  0  0  0  0  0
   22.1689   -4.6954  -17.4260 C   0  0  0  0  0  0  0  0  0  0  0  0
   22.7619   -5.3197  -18.5191 O   0  0  0  0  0  0  0  0  0  0  0  0
   21.7271   -6.4024  -11.4549 O   0  0  0  0  0  0  0  0  0  0  0  0
   22.1681   -3.4419  -17.4517 O   0  0  0  0  0  0  0  0  0  0  0  0
  2  1  1  6
  3  2  1  0
  3  4  1  0
  5  4  1  0
  5  6  1  0
  7  6  1  0
  8  9  2  0
  8  2  1  0
 11 10  1  6
 11 13  1  0
 12 11  1  0
 13 14  1  6
 14  8  1  0
 15 17  1  0
 15 13  1  0
 16 15  2  0
 18 19  1  1
 18 17  1  0
 19 20  1  0
 20 21  1  0
 21 25  1  0
 22 21  2  0
 23 18  1  0
 24 23  1  0
 26 23  2  0
M  END
$$$$
