ISI.pdb
     RDKit          3D

 23 22  0  0  1  0  0  0  0  0999 V2000
   21.6896  -13.9912  -22.6964 C   0  0  0  0  0  0  0  0  0  0  0  0
   22.7171  -14.4316  -21.6758 C   0  0  0  0  0  0  0  0  0  0  0  0
   22.7180  -13.5290  -20.4632 C   0  0  2  0  0  0  0  0  0  0  0  0
   22.9375  -12.0933  -20.8172 C   0  0  0  0  0  0  0  0  0  0  0  0
   23.7100  -13.9774  -19.4153 C   0  0  2  0  0  0  0  0  0  0  0  0
   23.3645  -15.3791  -19.1307 N   0  0  0  0  0  0  0  0  0  0  0  0
   23.5520  -13.1930  -18.1385 C   0  0  0  0  0  0  0  0  0  0  0  0
   22.5016  -13.2529  -17.4572 O   0  0  0  0  0  0  0  0  0  0  0  0
   26.5103  -10.7719  -16.8945 O   0  0  0  0  0  0  0  0  0  0  0  0
   25.7597  -11.3239  -15.8613 C   0  0  0  0  0  0  0  0  0  0  0  0
   24.3678  -11.6104  -16.4366 C   0  0  2  0  0  0  0  0  0  0  0  0
   24.5867  -12.3542  -17.6557 N   0  0  0  0  0  0  0  0  0  0  0  0
   23.6388  -10.3753  -16.7271 C   0  0  0  0  0  0  0  0  0  0  0  0
   23.5447   -9.9508  -17.8858 O   0  0  0  0  0  0  0  0  0  0  0  0
   18.9559   -8.3009  -17.8160 C   0  0  0  0  0  0  0  0  0  0  0  0
   20.0921   -7.7084  -16.9716 C   0  0  0  0  0  0  0  0  0  0  0  0
   21.0172   -8.8376  -16.6578 C   0  0  2  0  0  0  0  0  0  0  0  0
   20.2524   -9.8544  -15.8370 C   0  0  0  0  0  0  0  0  0  0  0  0
   22.2736   -8.4255  -15.9337 C   0  0  2  0  0  0  0  0  0  0  0  0
   23.0233   -9.6387  -15.6788 N   0  0  0  0  0  0  0  0  0  0  0  0
   22.0156   -7.7361  -14.6658 C   0  0  0  0  0  0  0  0  0  0  0  0
   21.6195   -6.4097  -14.6789 O   0  0  0  0  0  0  0  0  0  0  0  0
   22.1313   -8.2772  -13.5373 O   0  0  0  0  0  0  0  0  0  0  0  0
  1  2  1  0
  3  2  1  0
  3  4  1  6
  5  6  1  1
  5  3  1  0
  7  8  2  0
  7  5  1  0
  9 10  1  0
 11 10  1  6
 11 13  1  0
 11 12  1  0
 12  7  1  0
 13 20  1  0
 14 13  2  0
 16 15  1  0
 17 19  1  0
 17 18  1  1
 17 16  1  0
 19 20  1  1
 21 19  1  0
 21 22  1  0
 23 21  2  0
M  END
$$$$
