ISI.pdb
     RDKit          3D

 23 22  0  0  1  0  0  0  0  0999 V2000
   26.1886  -20.6022   -7.5696 C   0  0  0  0  0  0  0  0  0  0  0  0
   25.9373  -21.4037   -8.8290 C   0  0  0  0  0  0  0  0  0  0  0  0
   25.6881  -20.5052  -10.0189 C   0  0  2  0  0  0  0  0  0  0  0  0
   24.5418  -19.5706   -9.8015 C   0  0  0  0  0  0  0  0  0  0  0  0
   25.5034  -21.2868  -11.2988 C   0  0  2  0  0  0  0  0  0  0  0  0
   26.6561  -22.1992  -11.3642 N   0  0  0  0  0  0  0  0  0  0  0  0
   25.5572  -20.3853  -12.5050 C   0  0  0  0  0  0  0  0  0  0  0  0
   24.6913  -19.5007  -12.7023 O   0  0  0  0  0  0  0  0  0  0  0  0
   28.2062  -21.0982  -15.3894 O   0  0  0  0  0  0  0  0  0  0  0  0
   27.9968  -19.7326  -15.2244 C   0  0  0  0  0  0  0  0  0  0  0  0
   26.6161  -19.5769  -14.5766 C   0  0  2  0  0  0  0  0  0  0  0  0
   26.5909  -20.5016  -13.4668 N   0  0  0  0  0  0  0  0  0  0  0  0
   25.5399  -19.8925  -15.5165 C   0  0  0  0  0  0  0  0  0  0  0  0
   25.0623  -21.0327  -15.5756 O   0  0  0  0  0  0  0  0  0  0  0  0
   21.0539  -17.5402  -15.5869 C   0  0  0  0  0  0  0  0  0  0  0  0
   22.0707  -18.6632  -15.8323 C   0  0  0  0  0  0  0  0  0  0  0  0
   22.8323  -18.2819  -17.0587 C   0  0  2  0  0  0  0  0  0  0  0  0
   21.8651  -18.2661  -18.2236 C   0  0  0  0  0  0  0  0  0  0  0  0
   24.0010  -19.1829  -17.3667 C   0  0  2  0  0  0  0  0  0  0  0  0
   25.0222  -18.8904  -16.3815 N   0  0  0  0  0  0  0  0  0  0  0  0
   24.5501  -18.9854  -18.7117 C   0  0  0  0  0  0  0  0  0  0  0  0
   25.4153  -17.9307  -18.9470 O   0  0  0  0  0  0  0  0  0  0  0  0
   24.2847  -19.7246  -19.6929 O   0  0  0  0  0  0  0  0  0  0  0  0
  1  2  1  0
  3  2  1  0
  3  4  1  1
  5  6  1  6
  5  3  1  0
  7  8  2  0
  7  5  1  0
  9 10  1  0
 11 10  1  6
 11 13  1  0
 11 12  1  0
 12  7  1  0
 13 20  1  0
 14 13  2  0
 16 15  1  0
 17 19  1  0
 17 18  1  6
 17 16  1  0
 19 20  1  1
 21 19  1  0
 21 22  1  0
 23 21  2  0
M  END
$$$$
