ISI.pdb
     RDKit          3D

 23 22  0  0  1  0  0  0  0  0999 V2000
   19.9580  -23.5096  -12.7180 C   0  0  0  0  0  0  0  0  0  0  0  0
   18.5126  -23.7957  -12.3710 C   0  0  0  0  0  0  0  0  0  0  0  0
   18.3140  -23.9205  -10.8776 C   0  0  2  0  0  0  0  0  0  0  0  0
   19.2084  -24.9493  -10.2642 C   0  0  0  0  0  0  0  0  0  0  0  0
   16.8716  -24.1811  -10.5107 C   0  0  2  0  0  0  0  0  0  0  0  0
   16.1114  -23.0822  -11.1272 N   0  0  0  0  0  0  0  0  0  0  0  0
   16.6628  -24.1096   -9.0202 C   0  0  0  0  0  0  0  0  0  0  0  0
   16.9067  -23.0645   -8.3727 O   0  0  0  0  0  0  0  0  0  0  0  0
   14.2124  -26.5925   -7.1333 O   0  0  0  0  0  0  0  0  0  0  0  0
   14.5035  -25.3379   -6.6070 C   0  0  0  0  0  0  0  0  0  0  0  0
   15.9949  -25.0917   -6.8624 C   0  0  2  0  0  0  0  0  0  0  0  0
   16.1812  -25.2235   -8.2890 N   0  0  0  0  0  0  0  0  0  0  0  0
   16.8313  -26.0625   -6.1559 C   0  0  0  0  0  0  0  0  0  0  0  0
   17.5017  -26.8957   -6.7788 O   0  0  0  0  0  0  0  0  0  0  0  0
   18.8174  -26.6127   -0.3910 C   0  0  0  0  0  0  0  0  0  0  0  0
   18.6553  -27.3769   -1.7119 C   0  0  0  0  0  0  0  0  0  0  0  0
   17.9327  -26.4603   -2.6433 C   0  0  2  0  0  0  0  0  0  0  0  0
   16.6351  -26.0484   -1.9807 C   0  0  0  0  0  0  0  0  0  0  0  0
   17.6567  -27.0509   -4.0026 C   0  0  2  0  0  0  0  0  0  0  0  0
   16.8884  -26.0654   -4.7356 N   0  0  0  0  0  0  0  0  0  0  0  0
   16.9092  -28.3110   -3.9493 C   0  0  0  0  0  0  0  0  0  0  0  0
   15.5306  -28.2920   -4.0740 O   0  0  0  0  0  0  0  0  0  0  0  0
   17.4442  -29.4376   -3.7942 O   0  0  0  0  0  0  0  0  0  0  0  0
  1  2  1  0
  3  2  1  0
  3  4  1  6
  5  6  1  6
  5  3  1  0
  7  8  2  0
  7  5  1  0
  9 10  1  0
 11 10  1  6
 11 13  1  0
 11 12  1  0
 12  7  1  0
 13 20  1  0
 14 13  2  0
 16 15  1  0
 17 19  1  0
 17 18  1  1
 17 16  1  0
 19 20  1  6
 21 19  1  0
 21 22  1  0
 23 21  2  0
M  END
$$$$
