ISI.pdb
     RDKit          3D

 23 22  0  0  1  0  0  0  0  0999 V2000
   26.3004  -19.5288  -18.6065 C   0  0  0  0  0  0  0  0  0  0  0  0
   24.9327  -19.5231  -17.9580 C   0  0  0  0  0  0  0  0  0  0  0  0
   25.0161  -19.1786  -16.4884 C   0  0  2  0  0  0  0  0  0  0  0  0
   26.1037  -19.9253  -15.7853 C   0  0  0  0  0  0  0  0  0  0  0  0
   23.6952  -19.3675  -15.7793 C   0  0  2  0  0  0  0  0  0  0  0  0
   22.7700  -18.4250  -16.4281 N   0  0  0  0  0  0  0  0  0  0  0  0
   23.7949  -18.9911  -14.3238 C   0  0  0  0  0  0  0  0  0  0  0  0
   24.1244  -17.8359  -13.9657 O   0  0  0  0  0  0  0  0  0  0  0  0
   22.0242  -21.1822  -11.5526 O   0  0  0  0  0  0  0  0  0  0  0  0
   22.2768  -19.8429  -11.2728 C   0  0  0  0  0  0  0  0  0  0  0  0
   23.6247  -19.5072  -11.9214 C   0  0  2  0  0  0  0  0  0  0  0  0
   23.5194  -19.9298  -13.2989 N   0  0  0  0  0  0  0  0  0  0  0  0
   24.7292  -20.2077  -11.2653 C   0  0  0  0  0  0  0  0  0  0  0  0
   25.3350  -21.1197  -11.8422 O   0  0  0  0  0  0  0  0  0  0  0  0
   27.4261  -17.5012   -7.4362 C   0  0  0  0  0  0  0  0  0  0  0  0
   27.2725  -18.4273   -8.6501 C   0  0  0  0  0  0  0  0  0  0  0  0
   26.6562  -19.6891   -8.1425 C   0  0  2  0  0  0  0  0  0  0  0  0
   27.6915  -20.4120   -7.3069 C   0  0  0  0  0  0  0  0  0  0  0  0
   26.1328  -20.6006   -9.2231 C   0  0  2  0  0  0  0  0  0  0  0  0
   25.1271  -19.8510   -9.9481 N   0  0  0  0  0  0  0  0  0  0  0  0
   25.5400  -21.8375   -8.7051 C   0  0  0  0  0  0  0  0  0  0  0  0
   24.1721  -21.9060   -8.5038 O   0  0  0  0  0  0  0  0  0  0  0  0
   26.2021  -22.8678   -8.4231 O   0  0  0  0  0  0  0  0  0  0  0  0
  1  2  1  0
  3  2  1  0
  3  4  1  1
  5  6  1  6
  5  3  1  0
  7  8  2  0
  7  5  1  0
  9 10  1  0
 11 10  1  1
 11 13  1  0
 11 12  1  0
 12  7  1  0
 13 20  1  0
 14 13  2  0
 16 15  1  0
 17 19  1  0
 17 18  1  6
 17 16  1  0
 19 20  1  1
 21 19  1  0
 21 22  1  0
 23 21  2  0
M  END
$$$$
