ISI.pdb
     RDKit          3D

 23 22  0  0  1  0  0  0  0  0999 V2000
   15.0896  -12.5405  -18.0599 C   0  0  0  0  0  0  0  0  0  0  0  0
   16.4136  -12.4003  -17.3396 C   0  0  0  0  0  0  0  0  0  0  0  0
   16.6096  -11.0001  -16.8047 C   0  0  2  0  0  0  0  0  0  0  0  0
   16.5123   -9.9593  -17.8733 C   0  0  0  0  0  0  0  0  0  0  0  0
   17.9024  -10.8556  -16.0359 C   0  0  2  0  0  0  0  0  0  0  0  0
   17.7538  -11.7305  -14.8621 N   0  0  0  0  0  0  0  0  0  0  0  0
   18.0921   -9.4451  -15.5413 C   0  0  0  0  0  0  0  0  0  0  0  0
   18.2537   -8.4877  -16.3341 O   0  0  0  0  0  0  0  0  0  0  0  0
   18.5634   -8.6759  -11.5946 O   0  0  0  0  0  0  0  0  0  0  0  0
   17.8433   -7.7033  -12.2810 C   0  0  0  0  0  0  0  0  0  0  0  0
   18.2971   -7.7739  -13.7436 C   0  0  2  0  0  0  0  0  0  0  0  0
   18.0956   -9.1434  -14.1570 N   0  0  0  0  0  0  0  0  0  0  0  0
   19.7065   -7.4084  -13.8901 C   0  0  0  0  0  0  0  0  0  0  0  0
   20.5957   -8.2663  -13.8208 O   0  0  0  0  0  0  0  0  0  0  0  0
   21.4477   -5.1049  -18.0162 C   0  0  0  0  0  0  0  0  0  0  0  0
   21.3598   -5.9512  -16.7391 C   0  0  0  0  0  0  0  0  0  0  0  0
   21.6147   -5.0215  -15.5988 C   0  0  2  0  0  0  0  0  0  0  0  0
   23.0093   -4.4543  -15.7607 C   0  0  0  0  0  0  0  0  0  0  0  0
   21.4668   -5.6549  -14.2388 C   0  0  2  0  0  0  0  0  0  0  0  0
   20.0800   -6.0555  -14.1155 N   0  0  0  0  0  0  0  0  0  0  0  0
   21.8140   -4.7537  -13.1357 C   0  0  0  0  0  0  0  0  0  0  0  0
   23.0067   -4.9348  -12.4566 O   0  0  0  0  0  0  0  0  0  0  0  0
   21.0872   -3.8029  -12.7519 O   0  0  0  0  0  0  0  0  0  0  0  0
  1  2  1  0
  3  2  1  0
  3  4  1  6
  5  6  1  1
  5  3  1  0
  7  8  2  0
  7  5  1  0
  9 10  1  0
 11 10  1  1
 11 13  1  0
 11 12  1  0
 12  7  1  0
 13 20  1  0
 14 13  2  0
 16 15  1  0
 17 19  1  0
 17 18  1  6
 17 16  1  0
 19 20  1  1
 21 19  1  0
 21 22  1  0
 23 21  2  0
M  END
$$$$
