ISI.pdb
     RDKit          3D

 23 22  0  0  1  0  0  0  0  0999 V2000
   14.8183  -12.9279  -18.0828 C   0  0  0  0  0  0  0  0  0  0  0  0
   15.3675  -12.5313  -16.7291 C   0  0  0  0  0  0  0  0  0  0  0  0
   16.2514  -11.3087  -16.8247 C   0  0  2  0  0  0  0  0  0  0  0  0
   17.3829  -11.4927  -17.7843 C   0  0  0  0  0  0  0  0  0  0  0  0
   16.7644  -10.8649  -15.4745 C   0  0  2  0  0  0  0  0  0  0  0  0
   15.5690  -10.7586  -14.6229 N   0  0  0  0  0  0  0  0  0  0  0  0
   17.4018   -9.5018  -15.5504 C   0  0  0  0  0  0  0  0  0  0  0  0
   18.4112   -9.2879  -16.2622 O   0  0  0  0  0  0  0  0  0  0  0  0
   15.6060   -5.9863  -15.3767 O   0  0  0  0  0  0  0  0  0  0  0  0
   16.5831   -6.0841  -14.3911 C   0  0  0  0  0  0  0  0  0  0  0  0
   17.5842   -7.1413  -14.8711 C   0  0  2  0  0  0  0  0  0  0  0  0
   16.8847   -8.4043  -14.8186 N   0  0  0  0  0  0  0  0  0  0  0  0
   18.7705   -7.1895  -14.0157 C   0  0  0  0  0  0  0  0  0  0  0  0
   18.8624   -8.0206  -13.1034 O   0  0  0  0  0  0  0  0  0  0  0  0
   23.3638   -9.4236  -13.4588 C   0  0  0  0  0  0  0  0  0  0  0  0
   22.9864   -7.9767  -13.1133 C   0  0  0  0  0  0  0  0  0  0  0  0
   21.7023   -7.6954  -13.8215 C   0  0  2  0  0  0  0  0  0  0  0  0
   21.9645   -7.7665  -15.3110 C   0  0  0  0  0  0  0  0  0  0  0  0
   21.0776   -6.3699  -13.4672 C   0  0  2  0  0  0  0  0  0  0  0  0
   19.8425   -6.2784  -14.2190 N   0  0  0  0  0  0  0  0  0  0  0  0
   21.9296   -5.2205  -13.7872 C   0  0  0  0  0  0  0  0  0  0  0  0
   21.6240   -4.4285  -14.8807 O   0  0  0  0  0  0  0  0  0  0  0  0
   22.9448   -4.8935  -13.1222 O   0  0  0  0  0  0  0  0  0  0  0  0
  1  2  1  0
  3  2  1  0
  3  4  1  6
  5  6  1  1
  5  3  1  0
  7  8  2  0
  7  5  1  0
  9 10  1  0
 11 10  1  1
 11 13  1  0
 11 12  1  0
 12  7  1  0
 13 20  1  0
 14 13  2  0
 16 15  1  0
 17 19  1  0
 17 18  1  6
 17 16  1  0
 19 20  1  6
 21 19  1  0
 21 22  1  0
 23 21  2  0
M  END
$$$$
