ISI.pdb
     RDKit          3D

 23 22  0  0  1  0  0  0  0  0999 V2000
   17.8095  -16.2143  -15.9844 C   0  0  0  0  0  0  0  0  0  0  0  0
   16.9052  -15.0987  -16.4631 C   0  0  0  0  0  0  0  0  0  0  0  0
   17.6733  -13.8146  -16.6783 C   0  0  2  0  0  0  0  0  0  0  0  0
   18.5171  -13.4469  -15.5004 C   0  0  0  0  0  0  0  0  0  0  0  0
   16.7723  -12.6659  -17.0681 C   0  0  2  0  0  0  0  0  0  0  0  0
   16.0822  -13.1130  -18.2884 N   0  0  0  0  0  0  0  0  0  0  0  0
   17.5701  -11.4348  -17.4116 C   0  0  0  0  0  0  0  0  0  0  0  0
   18.5201  -11.4750  -18.2285 O   0  0  0  0  0  0  0  0  0  0  0  0
   16.1601   -7.8203  -16.8804 O   0  0  0  0  0  0  0  0  0  0  0  0
   17.2399   -7.9854  -17.7421 C   0  0  0  0  0  0  0  0  0  0  0  0
   18.1397   -9.0568  -17.1155 C   0  0  2  0  0  0  0  0  0  0  0  0
   17.2780  -10.1792  -16.8239 N   0  0  0  0  0  0  0  0  0  0  0  0
   18.7732   -8.5787  -15.8862 C   0  0  0  0  0  0  0  0  0  0  0  0
   18.2644   -8.8031  -14.7806 O   0  0  0  0  0  0  0  0  0  0  0  0
   23.3514   -9.9167  -14.2877 C   0  0  0  0  0  0  0  0  0  0  0  0
   21.8980   -9.4362  -14.3972 C   0  0  0  0  0  0  0  0  0  0  0  0
   21.9574   -7.9614  -14.6225 C   0  0  2  0  0  0  0  0  0  0  0  0
   22.7344   -7.3445  -13.4787 C   0  0  0  0  0  0  0  0  0  0  0  0
   20.6087   -7.3000  -14.7500 C   0  0  2  0  0  0  0  0  0  0  0  0
   19.9895   -7.8450  -15.9410 N   0  0  0  0  0  0  0  0  0  0  0  0
   20.6843   -5.8403  -14.8642 C   0  0  0  0  0  0  0  0  0  0  0  0
   20.6260   -5.0628  -13.7203 O   0  0  0  0  0  0  0  0  0  0  0  0
   20.8015   -5.2274  -15.9552 O   0  0  0  0  0  0  0  0  0  0  0  0
  1  2  1  0
  3  2  1  0
  3  4  1  1
  5  6  1  6
  5  3  1  0
  7  8  2  0
  7  5  1  0
  9 10  1  0
 11 10  1  1
 11 13  1  0
 11 12  1  0
 12  7  1  0
 13 20  1  0
 14 13  2  0
 16 15  1  0
 17 19  1  0
 17 18  1  1
 17 16  1  0
 19 20  1  6
 21 19  1  0
 21 22  1  0
 23 21  2  0
M  END
$$$$
