ISI.pdb
     RDKit          3D

 23 22  0  0  1  0  0  0  0  0999 V2000
   16.9830  -13.2540  -19.3082 C   0  0  0  0  0  0  0  0  0  0  0  0
   18.0088  -13.1750  -18.1979 C   0  0  0  0  0  0  0  0  0  0  0  0
   18.0335  -11.8043  -17.5608 C   0  0  2  0  0  0  0  0  0  0  0  0
   18.2586  -10.7129  -18.5572 C   0  0  0  0  0  0  0  0  0  0  0  0
   19.0369  -11.7133  -16.4347 C   0  0  2  0  0  0  0  0  0  0  0  0
   18.5850  -12.6933  -15.4343 N   0  0  0  0  0  0  0  0  0  0  0  0
   19.0172  -10.3513  -15.7907 C   0  0  0  0  0  0  0  0  0  0  0  0
   17.9866   -9.9023  -15.2362 O   0  0  0  0  0  0  0  0  0  0  0  0
   21.3331   -8.6620  -13.1350 O   0  0  0  0  0  0  0  0  0  0  0  0
   21.4625   -8.0911  -14.3971 C   0  0  0  0  0  0  0  0  0  0  0  0
   20.1062   -8.2553  -15.0926 C   0  0  2  0  0  0  0  0  0  0  0  0
   20.1654   -9.5213  -15.7860 N   0  0  0  0  0  0  0  0  0  0  0  0
   19.8532   -7.1736  -16.0451 C   0  0  0  0  0  0  0  0  0  0  0  0
   20.3172   -7.2153  -17.1917 O   0  0  0  0  0  0  0  0  0  0  0  0
   15.4229   -5.6464  -17.9736 C   0  0  0  0  0  0  0  0  0  0  0  0
   16.9425   -5.8289  -17.8614 C   0  0  0  0  0  0  0  0  0  0  0  0
   17.4136   -4.8324  -16.8541 C   0  0  2  0  0  0  0  0  0  0  0  0
   17.0623   -3.4506  -17.3637 C   0  0  0  0  0  0  0  0  0  0  0  0
   18.8871   -4.9129  -16.5461 C   0  0  2  0  0  0  0  0  0  0  0  0
   19.0666   -6.0512  -15.6681 N   0  0  0  0  0  0  0  0  0  0  0  0
   19.4130   -3.7083  -15.8965 C   0  0  0  0  0  0  0  0  0  0  0  0
   20.0559   -2.7479  -16.6585 O   0  0  0  0  0  0  0  0  0  0  0  0
   19.3196   -3.4786  -14.6644 O   0  0  0  0  0  0  0  0  0  0  0  0
  1  2  1  0
  3  2  1  0
  3  4  1  6
  5  6  1  1
  5  3  1  0
  7  8  2  0
  7  5  1  0
  9 10  1  0
 11 10  1  6
 11 13  1  0
 11 12  1  0
 12  7  1  0
 13 20  1  0
 14 13  2  0
 16 15  1  0
 17 19  1  0
 17 18  1  6
 17 16  1  0
 19 20  1  1
 21 19  1  0
 21 22  1  0
 23 21  2  0
M  END
$$$$
