ISI.pdb
     RDKit          3D

 23 22  0  0  1  0  0  0  0  0999 V2000
   20.7115  -20.9067  -13.5070 C   0  0  0  0  0  0  0  0  0  0  0  0
   21.8696  -20.0024  -13.1431 C   0  0  0  0  0  0  0  0  0  0  0  0
   22.7419  -20.6199  -12.0740 C   0  0  2  0  0  0  0  0  0  0  0  0
   22.6778  -19.8739  -10.7801 C   0  0  0  0  0  0  0  0  0  0  0  0
   24.1748  -20.7816  -12.5256 C   0  0  2  0  0  0  0  0  0  0  0  0
   24.1315  -21.7928  -13.5938 N   0  0  0  0  0  0  0  0  0  0  0  0
   25.0429  -21.3163  -11.4163 C   0  0  0  0  0  0  0  0  0  0  0  0
   24.8231  -22.4330  -10.8911 O   0  0  0  0  0  0  0  0  0  0  0  0
   28.7073  -20.1790  -11.0160 O   0  0  0  0  0  0  0  0  0  0  0  0
   28.3266  -21.3605  -10.3877 C   0  0  0  0  0  0  0  0  0  0  0  0
   26.9179  -21.1254   -9.8305 C   0  0  2  0  0  0  0  0  0  0  0  0
   26.1452  -20.5768  -10.9211 N   0  0  0  0  0  0  0  0  0  0  0  0
   26.9313  -20.1898   -8.7055 C   0  0  0  0  0  0  0  0  0  0  0  0
   26.4836  -19.0425   -8.8280 O   0  0  0  0  0  0  0  0  0  0  0  0
   28.2593  -20.6743   -2.7294 C   0  0  0  0  0  0  0  0  0  0  0  0
   27.8853  -19.6887   -3.8447 C   0  0  0  0  0  0  0  0  0  0  0  0
   27.8873  -20.4708   -5.1166 C   0  0  2  0  0  0  0  0  0  0  0  0
   29.2343  -21.1502   -5.2457 C   0  0  0  0  0  0  0  0  0  0  0  0
   27.5999  -19.6503   -6.3482 C   0  0  2  0  0  0  0  0  0  0  0  0
   27.4611  -20.5844   -7.4469 N   0  0  0  0  0  0  0  0  0  0  0  0
   28.6548  -18.6816   -6.6619 C   0  0  0  0  0  0  0  0  0  0  0  0
   29.5720  -18.9708   -7.6576 O   0  0  0  0  0  0  0  0  0  0  0  0
   28.7899  -17.5779   -6.0762 O   0  0  0  0  0  0  0  0  0  0  0  0
  1  2  1  0
  3  2  1  0
  3  4  1  1
  5  6  1  6
  5  3  1  0
  7  8  2  0
  7  5  1  0
  9 10  1  0
 11 10  1  6
 11 13  1  0
 11 12  1  0
 12  7  1  0
 13 20  1  0
 14 13  2  0
 16 15  1  0
 17 19  1  0
 17 18  1  6
 17 16  1  0
 19 20  1  6
 21 19  1  0
 21 22  1  0
 23 21  2  0
M  END
$$$$
