ISI.pdb
     RDKit          3D

 23 22  0  0  1  0  0  0  0  0999 V2000
   22.3754  -22.7760  -12.5791 C   0  0  0  0  0  0  0  0  0  0  0  0
   23.8563  -22.5535  -12.3581 C   0  0  0  0  0  0  0  0  0  0  0  0
   24.3021  -21.2110  -12.8913 C   0  0  2  0  0  0  0  0  0  0  0  0
   23.7708  -20.9329  -14.2607 C   0  0  0  0  0  0  0  0  0  0  0  0
   25.8043  -21.0516  -12.8597 C   0  0  2  0  0  0  0  0  0  0  0  0
   26.1647  -21.0673  -11.4331 N   0  0  0  0  0  0  0  0  0  0  0  0
   26.2273  -19.7225  -13.4297 C   0  0  0  0  0  0  0  0  0  0  0  0
   26.0367  -18.6510  -12.8078 O   0  0  0  0  0  0  0  0  0  0  0  0
   28.0349  -19.4427  -17.0932 O   0  0  0  0  0  0  0  0  0  0  0  0
   28.4504  -18.5599  -16.1014 C   0  0  0  0  0  0  0  0  0  0  0  0
   27.2411  -18.3273  -15.1882 C   0  0  2  0  0  0  0  0  0  0  0  0
   26.8590  -19.6302  -14.6945 N   0  0  0  0  0  0  0  0  0  0  0  0
   26.1253  -17.7193  -15.9139 C   0  0  0  0  0  0  0  0  0  0  0  0
   25.2090  -18.4156  -16.3691 O   0  0  0  0  0  0  0  0  0  0  0  0
   22.0188  -14.0182  -15.0071 C   0  0  0  0  0  0  0  0  0  0  0  0
   22.9666  -14.2465  -16.1923 C   0  0  0  0  0  0  0  0  0  0  0  0
   24.0527  -15.1434  -15.6968 C   0  0  2  0  0  0  0  0  0  0  0  0
   24.8585  -14.3780  -14.6685 C   0  0  0  0  0  0  0  0  0  0  0  0
   24.9601  -15.6723  -16.7783 C   0  0  2  0  0  0  0  0  0  0  0  0
   26.0746  -16.3123  -16.1095 N   0  0  0  0  0  0  0  0  0  0  0  0
   25.4643  -14.6296  -17.6771 C   0  0  0  0  0  0  0  0  0  0  0  0
   26.7578  -14.1617  -17.5211 O   0  0  0  0  0  0  0  0  0  0  0  0
   24.7886  -14.1160  -18.6040 O   0  0  0  0  0  0  0  0  0  0  0  0
  1  2  1  0
  3  2  1  0
  3  4  1  6
  5  6  1  1
  5  3  1  0
  7  8  2  0
  7  5  1  0
  9 10  1  0
 11 10  1  6
 11 13  1  0
 11 12  1  0
 12  7  1  0
 13 20  1  0
 14 13  2  0
 16 15  1  0
 17 19  1  0
 17 18  1  1
 17 16  1  0
 19 20  1  1
 21 19  1  0
 21 22  1  0
 23 21  2  0
M  END
$$$$
