ISI.pdb
     RDKit          3D

 23 22  0  0  1  0  0  0  0  0999 V2000
   22.0116  -11.6759  -21.9301 C   0  0  0  0  0  0  0  0  0  0  0  0
   22.1897  -11.8595  -20.4381 C   0  0  0  0  0  0  0  0  0  0  0  0
   21.5499  -10.7329  -19.6594 C   0  0  2  0  0  0  0  0  0  0  0  0
   22.0801   -9.3913  -20.0516 C   0  0  0  0  0  0  0  0  0  0  0  0
   21.6594  -10.9336  -18.1658 C   0  0  2  0  0  0  0  0  0  0  0  0
   20.9449  -12.1904  -17.8913 N   0  0  0  0  0  0  0  0  0  0  0  0
   20.9633   -9.8307  -17.4112 C   0  0  0  0  0  0  0  0  0  0  0  0
   19.7340   -9.6221  -17.5397 O   0  0  0  0  0  0  0  0  0  0  0  0
   20.4722   -7.0466  -13.7605 O   0  0  0  0  0  0  0  0  0  0  0  0
   21.1035   -8.1193  -14.3822 C   0  0  0  0  0  0  0  0  0  0  0  0
   20.9669   -7.8919  -15.8921 C   0  0  2  0  0  0  0  0  0  0  0  0
   21.6718   -8.9832  -16.5241 N   0  0  0  0  0  0  0  0  0  0  0  0
   21.5512   -6.6142  -16.3010 C   0  0  0  0  0  0  0  0  0  0  0  0
   22.7657   -6.5108  -16.5156 O   0  0  0  0  0  0  0  0  0  0  0  0
   19.6795   -3.5914  -20.1883 C   0  0  0  0  0  0  0  0  0  0  0  0
   19.6720   -3.9652  -18.6999 C   0  0  0  0  0  0  0  0  0  0  0  0
   21.0981   -3.9623  -18.2572 C   0  0  2  0  0  0  0  0  0  0  0  0
   21.8291   -5.0413  -19.0278 C   0  0  0  0  0  0  0  0  0  0  0  0
   21.2865   -4.1647  -16.7753 C   0  0  2  0  0  0  0  0  0  0  0  0
   20.7303   -5.4646  -16.4594 N   0  0  0  0  0  0  0  0  0  0  0  0
   20.6272   -3.1407  -15.9591 C   0  0  0  0  0  0  0  0  0  0  0  0
   21.2037   -1.8878  -15.8402 O   0  0  0  0  0  0  0  0  0  0  0  0
   19.5471   -3.3234  -15.3430 O   0  0  0  0  0  0  0  0  0  0  0  0
  1  2  1  0
  3  2  1  0
  3  4  1  1
  5  6  1  6
  5  3  1  0
  7  8  2  0
  7  5  1  0
  9 10  1  0
 11 10  1  1
 11 13  1  0
 11 12  1  0
 12  7  1  0
 13 20  1  0
 14 13  2  0
 16 15  1  0
 17 19  1  0
 17 18  1  6
 17 16  1  0
 19 20  1  1
 21 19  1  0
 21 22  1  0
 23 21  2  0
M  END
$$$$
