ISI.pdb
     RDKit          3D

 23 22  0  0  1  0  0  0  0  0999 V2000
   27.7079  -26.2176  -16.2349 C   0  0  0  0  0  0  0  0  0  0  0  0
   26.9186  -24.9396  -16.4223 C   0  0  0  0  0  0  0  0  0  0  0  0
   25.5148  -25.0686  -15.8767 C   0  0  2  0  0  0  0  0  0  0  0  0
   24.8177  -26.2950  -16.3715 C   0  0  0  0  0  0  0  0  0  0  0  0
   24.6806  -23.8371  -16.1432 C   0  0  2  0  0  0  0  0  0  0  0  0
   25.3662  -22.7451  -15.4341 N   0  0  0  0  0  0  0  0  0  0  0  0
   23.2986  -23.9733  -15.5588 C   0  0  0  0  0  0  0  0  0  0  0  0
   23.1218  -24.2540  -14.3500 O   0  0  0  0  0  0  0  0  0  0  0  0
   18.6112  -23.2861  -16.0394 O   0  0  0  0  0  0  0  0  0  0  0  0
   19.8430  -23.2709  -16.6860 C   0  0  0  0  0  0  0  0  0  0  0  0
   20.8423  -23.9458  -15.7394 C   0  0  2  0  0  0  0  0  0  0  0  0
   22.1404  -23.7891  -16.3538 N   0  0  0  0  0  0  0  0  0  0  0  0
   20.5411  -25.3665  -15.5597 C   0  0  0  0  0  0  0  0  0  0  0  0
   20.9982  -26.2157  -16.3353 O   0  0  0  0  0  0  0  0  0  0  0  0
   20.4265  -27.4026  -10.6273 C   0  0  0  0  0  0  0  0  0  0  0  0
   20.6559  -27.1410  -12.1220 C   0  0  0  0  0  0  0  0  0  0  0  0
   19.3600  -27.4314  -12.8046 C   0  0  2  0  0  0  0  0  0  0  0  0
   18.9892  -28.8699  -12.5113 C   0  0  0  0  0  0  0  0  0  0  0  0
   19.3775  -27.1931  -14.2930 C   0  0  2  0  0  0  0  0  0  0  0  0
   19.7147  -25.7975  -14.4865 N   0  0  0  0  0  0  0  0  0  0  0  0
   18.0954  -27.4797  -14.9438 C   0  0  0  0  0  0  0  0  0  0  0  0
   17.9273  -28.6743  -15.6229 O   0  0  0  0  0  0  0  0  0  0  0  0
   17.1114  -26.6980  -14.9291 O   0  0  0  0  0  0  0  0  0  0  0  0
  1  2  1  0
  3  2  1  0
  3  4  1  6
  5  6  1  1
  5  3  1  0
  7  8  2  0
  7  5  1  0
  9 10  1  0
 11 10  1  6
 11 13  1  0
 11 12  1  0
 12  7  1  0
 13 20  1  0
 14 13  2  0
 16 15  1  0
 17 19  1  0
 17 18  1  6
 17 16  1  0
 19 20  1  1
 21 19  1  0
 21 22  1  0
 23 21  2  0
M  END
$$$$
