ISI.pdb
     RDKit          3D

 23 22  0  0  1  0  0  0  0  0999 V2000
   18.8316  -12.4237  -21.4960 C   0  0  0  0  0  0  0  0  0  0  0  0
   19.8089  -12.2798  -20.3489 C   0  0  0  0  0  0  0  0  0  0  0  0
   19.3747  -11.2029  -19.3810 C   0  0  2  0  0  0  0  0  0  0  0  0
   19.1988   -9.8741  -20.0428 C   0  0  0  0  0  0  0  0  0  0  0  0
   20.3043  -11.0890  -18.1952 C   0  0  2  0  0  0  0  0  0  0  0  0
   20.2910  -12.4186  -17.5647 N   0  0  0  0  0  0  0  0  0  0  0  0
   19.7897  -10.0936  -17.1879 C   0  0  0  0  0  0  0  0  0  0  0  0
   18.6859  -10.2506  -16.6149 O   0  0  0  0  0  0  0  0  0  0  0  0
   22.2593   -7.7538  -15.3963 O   0  0  0  0  0  0  0  0  0  0  0  0
   21.0230   -7.8839  -14.7716 C   0  0  0  0  0  0  0  0  0  0  0  0
   19.9799   -8.0102  -15.8879 C   0  0  2  0  0  0  0  0  0  0  0  0
   20.5343   -8.9374  -16.8472 N   0  0  0  0  0  0  0  0  0  0  0  0
   19.7175   -6.7218  -16.5301 C   0  0  0  0  0  0  0  0  0  0  0  0
   20.3128   -6.3948  -17.5647 O   0  0  0  0  0  0  0  0  0  0  0  0
   15.6645   -3.8226  -19.0204 C   0  0  0  0  0  0  0  0  0  0  0  0
   16.7979   -3.4283  -18.0639 C   0  0  0  0  0  0  0  0  0  0  0  0
   17.2983   -4.6976  -17.4572 C   0  0  2  0  0  0  0  0  0  0  0  0
   16.1615   -5.3227  -16.6766 C   0  0  0  0  0  0  0  0  0  0  0  0
   18.5046   -4.5258  -16.5695 C   0  0  2  0  0  0  0  0  0  0  0  0
   18.7701   -5.8197  -15.9742 N   0  0  0  0  0  0  0  0  0  0  0  0
   18.3108   -3.5318  -15.5094 C   0  0  0  0  0  0  0  0  0  0  0  0
   18.5480   -2.1944  -15.7769 O   0  0  0  0  0  0  0  0  0  0  0  0
   17.9348   -3.8140  -14.3439 O   0  0  0  0  0  0  0  0  0  0  0  0
  1  2  1  0
  3  2  1  0
  3  4  1  6
  5  6  1  1
  5  3  1  0
  7  8  2  0
  7  5  1  0
  9 10  1  0
 11 10  1  1
 11 13  1  0
 11 12  1  0
 12  7  1  0
 13 20  1  0
 14 13  2  0
 16 15  1  0
 17 19  1  0
 17 18  1  1
 17 16  1  0
 19 20  1  1
 21 19  1  0
 21 22  1  0
 23 21  2  0
M  END
$$$$
