GDW.pdb
     RDKit          3D

 27 28  0  0  1  0  0  0  0  0999 V2000
    5.9439  -16.4251   19.2327 N   0  0  0  0  0  0  0  0  0  0  0  0
    6.6291  -15.6391   20.2424 C   0  0  0  0  0  0  0  0  0  0  0  0
    7.6249  -16.4906   20.9334 C   0  0  0  0  0  0  0  0  0  0  0  0
    7.9225  -17.6349   20.4513 O   0  0  0  0  0  0  0  0  0  0  0  0
    8.2836  -16.0976   22.1306 N   0  0  0  0  0  0  0  0  0  0  0  0
    9.5426  -16.7049   22.5145 C   0  0  1  0  0  0  0  0  0  0  0  0
   10.5136  -16.3951   21.3880 C   0  0  0  0  0  0  0  0  0  0  0  0
   11.7746  -17.0893   21.7094 C   0  0  0  0  0  0  0  0  0  0  0  0
   11.7544  -18.0471   22.5090 O   0  0  0  0  0  0  0  0  0  0  0  0
   10.0239  -16.1900   23.8154 C   0  0  0  0  0  0  0  0  0  0  0  0
   10.6100  -15.1004   23.8881 O   0  0  0  0  0  0  0  0  0  0  0  0
   12.9617  -16.6872   21.1351 O   0  0  0  0  0  0  0  0  0  0  0  0
    9.8180  -16.9400   24.9918 N   0  0  0  0  0  0  0  0  0  0  0  0
   10.1018  -16.4547   26.3296 C   0  0  1  0  0  0  0  0  0  0  0  0
    8.7929  -16.4254   27.0720 C   0  0  0  0  0  0  0  0  0  0  0  0
    7.7811  -15.5644   26.4859 C   0  0  0  0  0  0  0  0  0  0  0  0
    6.6655  -15.9490   25.7782 C   0  0  0  0  0  0  0  0  0  0  0  0
    5.9638  -14.8642   25.3926 N   0  0  0  0  0  0  0  0  0  0  0  0
    6.6336  -13.7640   25.8564 C   0  0  0  0  0  0  0  0  0  0  0  0
    6.3620  -12.4194   25.7492 C   0  0  0  0  0  0  0  0  0  0  0  0
    7.1797  -11.4677   26.2991 C   0  0  0  0  0  0  0  0  0  0  0  0
    8.3055  -11.8899   26.9774 C   0  0  0  0  0  0  0  0  0  0  0  0
    8.6013  -13.2302   27.0995 C   0  0  0  0  0  0  0  0  0  0  0  0
    7.7718  -14.1851   26.5422 C   0  0  0  0  0  0  0  0  0  0  0  0
   11.0988  -17.3351   26.9314 C   0  0  0  0  0  0  0  0  0  0  0  0
   11.4892  -18.4088   26.3487 O   0  0  0  0  0  0  0  0  0  0  0  0
   11.6497  -17.0218   28.1610 O   0  0  0  0  0  0  0  0  0  0  0  0
  1  2  1  0
  3  2  1  0
  3  4  2  0
  5  3  1  0
  6  5  1  0
  6 10  1  0
  6  7  1  6
  8  7  1  0
  9  8  2  0
 10 11  2  0
 10 13  1  0
 12  8  1  0
 13 14  1  0
 14 25  1  0
 14 15  1  1
 16 17  2  0
 16 15  1  0
 18 17  1  0
 19 24  2  0
 19 18  1  0
 20 19  1  0
 21 22  1  0
 21 20  2  0
 22 23  2  0
 23 24  1  0
 24 16  1  0
 25 26  2  0
 25 27  1  0
M  END
$$$$
