GDW.pdb
     RDKit          3D

 27 28  0  0  1  0  0  0  0  0999 V2000
    6.4621  -15.6889   19.7402 N   0  0  0  0  0  0  0  0  0  0  0  0
    7.4691  -14.9764   20.5052 C   0  0  0  0  0  0  0  0  0  0  0  0
    8.1912  -15.9336   21.3751 C   0  0  0  0  0  0  0  0  0  0  0  0
    7.5316  -16.7520   22.0999 O   0  0  0  0  0  0  0  0  0  0  0  0
    9.6098  -15.9945   21.4507 N   0  0  0  0  0  0  0  0  0  0  0  0
   10.2615  -16.8553   22.4180 C   0  0  1  0  0  0  0  0  0  0  0  0
   11.6763  -17.0606   21.9042 C   0  0  0  0  0  0  0  0  0  0  0  0
   11.5608  -17.7179   20.5889 C   0  0  0  0  0  0  0  0  0  0  0  0
   11.0223  -18.8412   20.5160 O   0  0  0  0  0  0  0  0  0  0  0  0
   10.2472  -16.2633   23.7739 C   0  0  0  0  0  0  0  0  0  0  0  0
   10.6546  -15.1087   23.9658 O   0  0  0  0  0  0  0  0  0  0  0  0
   12.0407  -17.1012   19.4530 O   0  0  0  0  0  0  0  0  0  0  0  0
    9.7661  -17.0134   24.8669 N   0  0  0  0  0  0  0  0  0  0  0  0
    9.7992  -16.5610   26.2454 C   0  0  1  0  0  0  0  0  0  0  0  0
    8.3822  -16.5937   26.7515 C   0  0  0  0  0  0  0  0  0  0  0  0
    7.4924  -15.6296   26.1292 C   0  0  0  0  0  0  0  0  0  0  0  0
    6.5033  -15.8806   25.2062 C   0  0  0  0  0  0  0  0  0  0  0  0
    5.8893  -14.7313   24.8598 N   0  0  0  0  0  0  0  0  0  0  0  0
    6.4885  -13.7240   25.5673 C   0  0  0  0  0  0  0  0  0  0  0  0
    6.2564  -12.3681   25.5970 C   0  0  0  0  0  0  0  0  0  0  0  0
    6.9853  -11.5243   26.3928 C   0  0  0  0  0  0  0  0  0  0  0  0
    7.9783  -12.0694   27.1819 C   0  0  0  0  0  0  0  0  0  0  0  0
    8.2319  -13.4238   27.1713 C   0  0  0  0  0  0  0  0  0  0  0  0
    7.4926  -14.2694   26.3658 C   0  0  0  0  0  0  0  0  0  0  0  0
   10.7083  -17.4290   26.9878 C   0  0  0  0  0  0  0  0  0  0  0  0
   10.9544  -17.2406   28.2323 O   0  0  0  0  0  0  0  0  0  0  0  0
   11.3309  -18.4881   26.3520 O   0  0  0  0  0  0  0  0  0  0  0  0
  1  2  1  0
  3  2  1  0
  3  4  2  0
  5  3  1  0
  6  5  1  0
  6 10  1  0
  6  7  1  6
  8  7  1  0
  9  8  2  0
 10 11  2  0
 10 13  1  0
 12  8  1  0
 13 14  1  0
 14 25  1  0
 14 15  1  1
 16 17  2  0
 16 15  1  0
 18 17  1  0
 19 24  2  0
 19 18  1  0
 20 19  1  0
 21 22  1  0
 21 20  2  0
 22 23  2  0
 23 24  1  0
 24 16  1  0
 25 26  2  0
 25 27  1  0
M  END
$$$$
