GDW.pdb
     RDKit          3D

 27 28  0  0  1  0  0  0  0  0999 V2000
    6.7595  -15.3633   19.4905 N   0  0  0  0  0  0  0  0  0  0  0  0
    8.0308  -14.8440   19.9604 C   0  0  0  0  0  0  0  0  0  0  0  0
    8.6587  -15.8330   20.8670 C   0  0  0  0  0  0  0  0  0  0  0  0
    7.9228  -16.5918   21.5832 O   0  0  0  0  0  0  0  0  0  0  0  0
   10.0668  -15.9894   20.9880 N   0  0  0  0  0  0  0  0  0  0  0  0
   10.6281  -16.8807   21.9839 C   0  0  1  0  0  0  0  0  0  0  0  0
   12.0405  -17.1883   21.5168 C   0  0  0  0  0  0  0  0  0  0  0  0
   11.9179  -17.9233   20.2441 C   0  0  0  0  0  0  0  0  0  0  0  0
   12.4653  -17.4632   19.2214 O   0  0  0  0  0  0  0  0  0  0  0  0
   10.6128  -16.2727   23.3326 C   0  0  0  0  0  0  0  0  0  0  0  0
   11.1724  -15.1875   23.5451 O   0  0  0  0  0  0  0  0  0  0  0  0
   11.2083  -19.1038   20.1822 O   0  0  0  0  0  0  0  0  0  0  0  0
    9.9563  -16.9276   24.3951 N   0  0  0  0  0  0  0  0  0  0  0  0
    9.8489  -16.3949   25.7408 C   0  0  1  0  0  0  0  0  0  0  0  0
    8.3851  -16.3795   26.0904 C   0  0  0  0  0  0  0  0  0  0  0  0
    7.6121  -15.3469   25.4238 C   0  0  0  0  0  0  0  0  0  0  0  0
    6.9267  -15.4531   24.2354 C   0  0  0  0  0  0  0  0  0  0  0  0
    6.3301  -14.2813   23.9374 N   0  0  0  0  0  0  0  0  0  0  0  0
    6.6331  -13.4059   24.9454 C   0  0  0  0  0  0  0  0  0  0  0  0
    6.2865  -12.0891   25.1439 C   0  0  0  0  0  0  0  0  0  0  0  0
    6.7047  -11.3863   26.2429 C   0  0  0  0  0  0  0  0  0  0  0  0
    7.4973  -12.0358   27.1680 C   0  0  0  0  0  0  0  0  0  0  0  0
    7.8593  -13.3539   26.9938 C   0  0  0  0  0  0  0  0  0  0  0  0
    7.4337  -14.0570   25.8825 C   0  0  0  0  0  0  0  0  0  0  0  0
   10.6557  -17.2292   26.6264 C   0  0  0  0  0  0  0  0  0  0  0  0
   11.2130  -18.3079   26.2136 O   0  0  0  0  0  0  0  0  0  0  0  0
   10.8367  -16.8650   27.9486 O   0  0  0  0  0  0  0  0  0  0  0  0
  1  2  1  0
  3  2  1  0
  3  4  2  0
  5  3  1  0
  6  5  1  0
  6 10  1  0
  6  7  1  6
  8  7  1  0
  9  8  2  0
 10 11  2  0
 10 13  1  0
 12  8  1  0
 13 14  1  0
 14 25  1  0
 14 15  1  1
 16 17  2  0
 16 15  1  0
 18 17  1  0
 19 24  2  0
 19 18  1  0
 20 19  1  0
 21 22  1  0
 21 20  2  0
 22 23  2  0
 23 24  1  0
 24 16  1  0
 25 26  2  0
 25 27  1  0
M  END
$$$$
