GDW.pdb
     RDKit          3D

 27 28  0  0  1  0  0  0  0  0999 V2000
    6.8376  -15.3224   19.3891 N   0  0  0  0  0  0  0  0  0  0  0  0
    7.0768  -15.2666   20.8197 C   0  0  0  0  0  0  0  0  0  0  0  0
    8.0788  -16.2932   21.1890 C   0  0  0  0  0  0  0  0  0  0  0  0
    8.2276  -17.3260   20.4532 O   0  0  0  0  0  0  0  0  0  0  0  0
    8.9036  -16.1919   22.3428 N   0  0  0  0  0  0  0  0  0  0  0  0
   10.2436  -16.7447   22.3437 C   0  0  1  0  0  0  0  0  0  0  0  0
   11.0053  -15.9886   21.2686 C   0  0  0  0  0  0  0  0  0  0  0  0
   11.3062  -16.9576   20.1982 C   0  0  0  0  0  0  0  0  0  0  0  0
   10.9289  -18.1403   20.3253 O   0  0  0  0  0  0  0  0  0  0  0  0
   10.8871  -16.6165   23.6698 C   0  0  0  0  0  0  0  0  0  0  0  0
   12.0597  -16.9784   23.8430 O   0  0  0  0  0  0  0  0  0  0  0  0
   11.9953  -16.5644   19.0706 O   0  0  0  0  0  0  0  0  0  0  0  0
   10.1663  -16.0772   24.7554 N   0  0  0  0  0  0  0  0  0  0  0  0
   10.6588  -16.0305   26.1197 C   0  0  1  0  0  0  0  0  0  0  0  0
   10.0803  -14.7934   26.7522 C   0  0  0  0  0  0  0  0  0  0  0  0
    8.6717  -14.5725   26.4776 C   0  0  0  0  0  0  0  0  0  0  0  0
    7.7280  -15.5165   26.1437 C   0  0  0  0  0  0  0  0  0  0  0  0
    6.5279  -14.9293   25.9632 N   0  0  0  0  0  0  0  0  0  0  0  0
    6.6969  -13.5886   26.1829 C   0  0  0  0  0  0  0  0  0  0  0  0
    5.8097  -12.5381   26.1341 C   0  0  0  0  0  0  0  0  0  0  0  0
    6.1954  -11.2497   26.3948 C   0  0  0  0  0  0  0  0  0  0  0  0
    7.5183  -11.0182   26.7143 C   0  0  0  0  0  0  0  0  0  0  0  0
    8.4278  -12.0519   26.7700 C   0  0  0  0  0  0  0  0  0  0  0  0
    8.0317  -13.3495   26.5058 C   0  0  0  0  0  0  0  0  0  0  0  0
   10.2686  -17.2689   26.7872 C   0  0  0  0  0  0  0  0  0  0  0  0
   10.5909  -17.5085   28.0052 O   0  0  0  0  0  0  0  0  0  0  0  0
    9.5319  -18.2217   26.1069 O   0  0  0  0  0  0  0  0  0  0  0  0
  1  2  1  0
  3  2  1  0
  3  4  2  0
  5  3  1  0
  6  5  1  0
  6 10  1  0
  6  7  1  6
  8  7  1  0
  9  8  2  0
 10 11  2  0
 10 13  1  0
 12  8  1  0
 13 14  1  0
 14 25  1  0
 14 15  1  1
 16 17  2  0
 16 15  1  0
 18 17  1  0
 19 24  2  0
 19 18  1  0
 20 19  1  0
 21 22  1  0
 21 20  2  0
 22 23  2  0
 23 24  1  0
 24 16  1  0
 25 26  2  0
 25 27  1  0
M  END
$$$$
