GDW.pdb
     RDKit          3D

 27 28  0  0  1  0  0  0  0  0999 V2000
    7.6258  -14.8175   19.7522 N   0  0  0  0  0  0  0  0  0  0  0  0
    6.9045  -15.4865   20.8195 C   0  0  0  0  0  0  0  0  0  0  0  0
    7.8699  -16.1826   21.7015 C   0  0  0  0  0  0  0  0  0  0  0  0
    7.4446  -16.8481   22.7048 O   0  0  0  0  0  0  0  0  0  0  0  0
    9.2756  -16.1514   21.4898 N   0  0  0  0  0  0  0  0  0  0  0  0
   10.1709  -16.8805   22.3662 C   0  0  1  0  0  0  0  0  0  0  0  0
   11.5269  -16.8638   21.6816 C   0  0  0  0  0  0  0  0  0  0  0  0
   11.3800  -17.6243   20.4265 C   0  0  0  0  0  0  0  0  0  0  0  0
   10.9189  -18.7831   20.4684 O   0  0  0  0  0  0  0  0  0  0  0  0
   10.2265  -16.2770   23.7159 C   0  0  0  0  0  0  0  0  0  0  0  0
   10.6937  -15.1414   23.8837 O   0  0  0  0  0  0  0  0  0  0  0  0
   11.7467  -17.0645   19.2211 O   0  0  0  0  0  0  0  0  0  0  0  0
    9.7445  -16.9940   24.8305 N   0  0  0  0  0  0  0  0  0  0  0  0
    9.8471  -16.5346   26.2033 C   0  0  1  0  0  0  0  0  0  0  0  0
    8.4595  -16.5773   26.7845 C   0  0  0  0  0  0  0  0  0  0  0  0
    7.5196  -15.6487   26.1821 C   0  0  0  0  0  0  0  0  0  0  0  0
    6.5269  -15.9369   25.2739 C   0  0  0  0  0  0  0  0  0  0  0  0
    5.8594  -14.8129   24.9438 N   0  0  0  0  0  0  0  0  0  0  0  0
    6.4271  -13.7846   25.6470 C   0  0  0  0  0  0  0  0  0  0  0  0
    6.1386  -12.4399   25.6879 C   0  0  0  0  0  0  0  0  0  0  0  0
    6.8442  -11.5698   26.4764 C   0  0  0  0  0  0  0  0  0  0  0  0
    7.8723  -12.0763   27.2461 C   0  0  0  0  0  0  0  0  0  0  0  0
    8.1825  -13.4187   27.2240 C   0  0  0  0  0  0  0  0  0  0  0  0
    7.4664  -14.2909   26.4260 C   0  0  0  0  0  0  0  0  0  0  0  0
   10.8023  -17.3911   26.8999 C   0  0  0  0  0  0  0  0  0  0  0  0
   11.2889  -18.4433   26.3514 O   0  0  0  0  0  0  0  0  0  0  0  0
   11.2066  -17.0780   28.1852 O   0  0  0  0  0  0  0  0  0  0  0  0
  1  2  1  0
  3  2  1  0
  3  4  2  0
  5  3  1  0
  6  5  1  0
  6 10  1  0
  6  7  1  6
  8  7  1  0
  9  8  2  0
 10 11  2  0
 10 13  1  0
 12  8  1  0
 13 14  1  0
 14 25  1  0
 14 15  1  1
 16 17  2  0
 16 15  1  0
 18 17  1  0
 19 24  2  0
 19 18  1  0
 20 19  1  0
 21 22  1  0
 21 20  2  0
 22 23  2  0
 23 24  1  0
 24 16  1  0
 25 26  2  0
 25 27  1  0
M  END
$$$$
