GDW.pdb
     RDKit          3D

 27 28  0  0  1  0  0  0  0  0999 V2000
    6.0010  -18.3293   20.7493 N   0  0  0  0  0  0  0  0  0  0  0  0
    6.7586  -17.2197   21.2987 C   0  0  0  0  0  0  0  0  0  0  0  0
    8.0832  -17.7066   21.7489 C   0  0  0  0  0  0  0  0  0  0  0  0
    8.6729  -18.6318   21.0959 O   0  0  0  0  0  0  0  0  0  0  0  0
    8.7510  -17.1905   22.8932 N   0  0  0  0  0  0  0  0  0  0  0  0
   10.1630  -16.8666   22.8409 C   0  0  1  0  0  0  0  0  0  0  0  0
   10.3071  -15.8117   21.7572 C   0  0  0  0  0  0  0  0  0  0  0  0
   11.3436  -16.2958   20.8264 C   0  0  0  0  0  0  0  0  0  0  0  0
   11.1315  -17.3339   20.1671 O   0  0  0  0  0  0  0  0  0  0  0  0
   10.6627  -16.3868   24.1482 C   0  0  0  0  0  0  0  0  0  0  0  0
   11.8172  -15.9513   24.2644 O   0  0  0  0  0  0  0  0  0  0  0  0
   12.5324  -15.6121   20.6845 O   0  0  0  0  0  0  0  0  0  0  0  0
    9.8234  -16.4212   25.2809 N   0  0  0  0  0  0  0  0  0  0  0  0
   10.2986  -16.3679   26.6511 C   0  0  1  0  0  0  0  0  0  0  0  0
    9.1995  -15.7492   27.4723 C   0  0  0  0  0  0  0  0  0  0  0  0
    8.0618  -15.2742   26.7052 C   0  0  0  0  0  0  0  0  0  0  0  0
    7.1281  -16.0341   26.0388 C   0  0  0  0  0  0  0  0  0  0  0  0
    6.2219  -15.2355   25.4397 N   0  0  0  0  0  0  0  0  0  0  0  0
    6.5735  -13.9428   25.7218 C   0  0  0  0  0  0  0  0  0  0  0  0
    6.0004  -12.7439   25.3650 C   0  0  0  0  0  0  0  0  0  0  0  0
    6.5236  -11.5422   25.7636 C   0  0  0  0  0  0  0  0  0  0  0  0
    7.6605  -11.5549   26.5466 C   0  0  0  0  0  0  0  0  0  0  0  0
    8.2549  -12.7413   26.9181 C   0  0  0  0  0  0  0  0  0  0  0  0
    7.7216  -13.9502   26.5123 C   0  0  0  0  0  0  0  0  0  0  0  0
   10.6489  -17.7235   27.0646 C   0  0  0  0  0  0  0  0  0  0  0  0
   10.3333  -18.7463   26.3582 O   0  0  0  0  0  0  0  0  0  0  0  0
   11.3389  -17.9326   28.2451 O   0  0  0  0  0  0  0  0  0  0  0  0
  1  2  1  0
  3  2  1  0
  3  4  2  0
  5  3  1  0
  6  5  1  0
  6 10  1  0
  6  7  1  6
  8  7  1  0
  9  8  2  0
 10 11  2  0
 10 13  1  0
 12  8  1  0
 13 14  1  0
 14 25  1  0
 14 15  1  1
 16 17  2  0
 16 15  1  0
 18 17  1  0
 19 24  2  0
 19 18  1  0
 20 19  1  0
 21 22  1  0
 21 20  2  0
 22 23  2  0
 23 24  1  0
 24 16  1  0
 25 26  2  0
 25 27  1  0
M  END
$$$$
