GDW.pdb
     RDKit          3D

 27 28  0  0  1  0  0  0  0  0999 V2000
    9.2721  -20.6581   21.0304 N   0  0  0  0  0  0  0  0  0  0  0  0
    9.0511  -20.1835   22.3841 C   0  0  0  0  0  0  0  0  0  0  0  0
   10.1274  -19.2346   22.7522 C   0  0  0  0  0  0  0  0  0  0  0  0
   11.2115  -19.6745   23.2636 O   0  0  0  0  0  0  0  0  0  0  0  0
   10.0200  -17.8293   22.5640 N   0  0  0  0  0  0  0  0  0  0  0  0
   11.1098  -16.9489   22.9360 C   0  0  1  0  0  0  0  0  0  0  0  0
   11.0715  -15.7989   21.9441 C   0  0  0  0  0  0  0  0  0  0  0  0
   11.5414  -16.3342   20.6527 C   0  0  0  0  0  0  0  0  0  0  0  0
   10.7273  -16.4634   19.7158 O   0  0  0  0  0  0  0  0  0  0  0  0
   10.9799  -16.4778   24.3325 C   0  0  0  0  0  0  0  0  0  0  0  0
   11.8191  -15.7089   24.8227 O   0  0  0  0  0  0  0  0  0  0  0  0
   12.8627  -16.6880   20.4800 O   0  0  0  0  0  0  0  0  0  0  0  0
    9.8920  -16.9028   25.1229 N   0  0  0  0  0  0  0  0  0  0  0  0
    9.7033  -16.5397   26.5152 C   0  0  1  0  0  0  0  0  0  0  0  0
    8.2191  -16.4432   26.7456 C   0  0  0  0  0  0  0  0  0  0  0  0
    7.5453  -15.4320   25.9507 C   0  0  0  0  0  0  0  0  0  0  0  0
    6.8558  -15.6171   24.7745 C   0  0  0  0  0  0  0  0  0  0  0  0
    6.3696  -14.4402   24.3314 N   0  0  0  0  0  0  0  0  0  0  0  0
    6.7493  -13.4815   25.2319 C   0  0  0  0  0  0  0  0  0  0  0  0
    6.5243  -12.1246   25.2677 C   0  0  0  0  0  0  0  0  0  0  0  0
    7.0028  -11.3360   26.2806 C   0  0  0  0  0  0  0  0  0  0  0  0
    7.7304  -11.9393   27.2869 C   0  0  0  0  0  0  0  0  0  0  0  0
    7.9706  -13.2961   27.2754 C   0  0  0  0  0  0  0  0  0  0  0  0
    7.4848  -14.0857   26.2503 C   0  0  0  0  0  0  0  0  0  0  0  0
   10.3618  -17.5469   27.3417 C   0  0  0  0  0  0  0  0  0  0  0  0
   10.7867  -18.6515   26.8477 O   0  0  0  0  0  0  0  0  0  0  0  0
   10.5426  -17.3242   28.6950 O   0  0  0  0  0  0  0  0  0  0  0  0
  1  2  1  0
  3  2  1  0
  3  4  2  0
  5  3  1  0
  6  5  1  0
  6 10  1  0
  6  7  1  6
  8  7  1  0
  9  8  2  0
 10 11  2  0
 10 13  1  0
 12  8  1  0
 13 14  1  0
 14 25  1  0
 14 15  1  1
 16 17  2  0
 16 15  1  0
 18 17  1  0
 19 24  2  0
 19 18  1  0
 20 19  1  0
 21 22  1  0
 21 20  2  0
 22 23  2  0
 23 24  1  0
 24 16  1  0
 25 26  2  0
 25 27  1  0
M  END
$$$$
