GDW.pdb
     RDKit          3D

 27 28  0  0  1  0  0  0  0  0999 V2000
    6.0397  -18.6518   23.0868 N   0  0  0  0  0  0  0  0  0  0  0  0
    6.9869  -19.4217   22.3013 C   0  0  0  0  0  0  0  0  0  0  0  0
    8.1849  -18.5939   22.0297 C   0  0  0  0  0  0  0  0  0  0  0  0
    9.2699  -19.1540   21.6563 O   0  0  0  0  0  0  0  0  0  0  0  0
    8.1960  -17.1784   22.1641 N   0  0  0  0  0  0  0  0  0  0  0  0
    9.3804  -16.4137   21.8268 C   0  0  1  0  0  0  0  0  0  0  0  0
    8.8853  -15.1948   21.0673 C   0  0  0  0  0  0  0  0  0  0  0  0
    8.3898  -15.6769   19.7645 C   0  0  0  0  0  0  0  0  0  0  0  0
    9.1852  -16.2314   18.9790 O   0  0  0  0  0  0  0  0  0  0  0  0
   10.1501  -16.0374   23.0330 C   0  0  0  0  0  0  0  0  0  0  0  0
   11.2196  -15.4188   22.9351 O   0  0  0  0  0  0  0  0  0  0  0  0
    7.0652  -15.5181   19.4164 O   0  0  0  0  0  0  0  0  0  0  0  0
    9.6696  -16.3818   24.3134 N   0  0  0  0  0  0  0  0  0  0  0  0
   10.4725  -16.3524   25.5219 C   0  0  1  0  0  0  0  0  0  0  0  0
    9.9360  -15.2363   26.3773 C   0  0  0  0  0  0  0  0  0  0  0  0
    8.5154  -14.9798   26.2208 C   0  0  0  0  0  0  0  0  0  0  0  0
    7.5209  -15.9023   25.9896 C   0  0  0  0  0  0  0  0  0  0  0  0
    6.3260  -15.2841   25.9010 N   0  0  0  0  0  0  0  0  0  0  0  0
    6.5499  -13.9450   26.0770 C   0  0  0  0  0  0  0  0  0  0  0  0
    5.6907  -12.8703   26.0828 C   0  0  0  0  0  0  0  0  0  0  0  0
    6.1324  -11.5890   26.2819 C   0  0  0  0  0  0  0  0  0  0  0  0
    7.4839  -11.3899   26.4810 C   0  0  0  0  0  0  0  0  0  0  0  0
    8.3664  -12.4483   26.4798 C   0  0  0  0  0  0  0  0  0  0  0  0
    7.9137  -13.7386   26.2782 C   0  0  0  0  0  0  0  0  0  0  0  0
   10.3934  -17.6663   26.1532 C   0  0  0  0  0  0  0  0  0  0  0  0
   11.0702  -17.9507   27.2048 O   0  0  0  0  0  0  0  0  0  0  0  0
    9.5735  -18.6444   25.6198 O   0  0  0  0  0  0  0  0  0  0  0  0
  1  2  1  0
  3  2  1  0
  3  4  2  0
  5  3  1  0
  6  5  1  0
  6 10  1  0
  6  7  1  1
  8  7  1  0
  9  8  2  0
 10 11  2  0
 10 13  1  0
 12  8  1  0
 13 14  1  0
 14 25  1  0
 14 15  1  1
 16 17  2  0
 16 15  1  0
 18 17  1  0
 19 24  2  0
 19 18  1  0
 20 19  1  0
 21 22  1  0
 21 20  2  0
 22 23  2  0
 23 24  1  0
 24 16  1  0
 25 26  2  0
 25 27  1  0
M  END
$$$$
