GDW.pdb
     RDKit          3D

 27 28  0  0  1  0  0  0  0  0999 V2000
    6.1456  -16.9606   20.6719 N   0  0  0  0  0  0  0  0  0  0  0  0
    6.9806  -15.9340   21.2684 C   0  0  0  0  0  0  0  0  0  0  0  0
    8.2373  -16.5476   21.7568 C   0  0  0  0  0  0  0  0  0  0  0  0
    8.1889  -17.5969   22.4826 O   0  0  0  0  0  0  0  0  0  0  0  0
    9.5242  -16.0228   21.4565 N   0  0  0  0  0  0  0  0  0  0  0  0
   10.7181  -16.6362   22.0038 C   0  0  1  0  0  0  0  0  0  0  0  0
   11.8478  -16.2604   21.0601 C   0  0  0  0  0  0  0  0  0  0  0  0
   13.0271  -17.0432   21.4743 C   0  0  0  0  0  0  0  0  0  0  0  0
   12.8659  -18.0527   22.1899 O   0  0  0  0  0  0  0  0  0  0  0  0
   10.9808  -16.1828   23.3874 C   0  0  0  0  0  0  0  0  0  0  0  0
   11.7362  -15.2254   23.6080 O   0  0  0  0  0  0  0  0  0  0  0  0
   14.2926  -16.6667   21.0772 O   0  0  0  0  0  0  0  0  0  0  0  0
   10.3691  -16.8409   24.4744 N   0  0  0  0  0  0  0  0  0  0  0  0
   10.5246  -16.4439   25.8616 C   0  0  1  0  0  0  0  0  0  0  0  0
    9.9991  -15.0383   25.9765 C   0  0  0  0  0  0  0  0  0  0  0  0
    8.5514  -14.9273   25.9564 C   0  0  0  0  0  0  0  0  0  0  0  0
    7.6403  -15.9309   25.7198 C   0  0  0  0  0  0  0  0  0  0  0  0
    6.3852  -15.4424   25.7828 N   0  0  0  0  0  0  0  0  0  0  0  0
    6.4852  -14.1063   26.0635 C   0  0  0  0  0  0  0  0  0  0  0  0
    5.5243  -13.1367   26.2360 C   0  0  0  0  0  0  0  0  0  0  0  0
    5.8482  -11.8357   26.5173 C   0  0  0  0  0  0  0  0  0  0  0  0
    7.1844  -11.5067   26.6272 C   0  0  0  0  0  0  0  0  0  0  0  0
    8.1672  -12.4580   26.4590 C   0  0  0  0  0  0  0  0  0  0  0  0
    7.8331  -13.7688   26.1753 C   0  0  0  0  0  0  0  0  0  0  0  0
    9.8108  -17.4078   26.6938 C   0  0  0  0  0  0  0  0  0  0  0  0
    9.7455  -17.2800   27.9682 O   0  0  0  0  0  0  0  0  0  0  0  0
    9.1815  -18.4943   26.1132 O   0  0  0  0  0  0  0  0  0  0  0  0
  1  2  1  0
  3  2  1  0
  3  4  2  0
  5  3  1  0
  6  5  1  0
  6 10  1  0
  6  7  1  6
  8  7  1  0
  9  8  2  0
 10 11  2  0
 10 13  1  0
 12  8  1  0
 13 14  1  0
 14 25  1  0
 14 15  1  6
 16 17  2  0
 16 15  1  0
 18 17  1  0
 19 24  2  0
 19 18  1  0
 20 19  1  0
 21 22  1  0
 21 20  2  0
 22 23  2  0
 23 24  1  0
 24 16  1  0
 25 26  2  0
 25 27  1  0
M  END
$$$$
