GDW.pdb
     RDKit          3D

 27 28  0  0  1  0  0  0  0  0999 V2000
    6.9064  -13.9251   19.8032 N   0  0  0  0  0  0  0  0  0  0  0  0
    8.2238  -14.4228   19.4518 C   0  0  0  0  0  0  0  0  0  0  0  0
    8.6436  -15.4398   20.4436 C   0  0  0  0  0  0  0  0  0  0  0  0
    7.8053  -15.8653   21.3075 O   0  0  0  0  0  0  0  0  0  0  0  0
    9.9573  -15.9821   20.4895 N   0  0  0  0  0  0  0  0  0  0  0  0
   10.3242  -16.9434   21.5105 C   0  0  1  0  0  0  0  0  0  0  0  0
   11.5029  -17.7184   20.9467 C   0  0  0  0  0  0  0  0  0  0  0  0
   11.0335  -18.3662   19.7076 C   0  0  0  0  0  0  0  0  0  0  0  0
   10.0901  -19.1808   19.7675 O   0  0  0  0  0  0  0  0  0  0  0  0
   10.6605  -16.2808   22.7899 C   0  0  0  0  0  0  0  0  0  0  0  0
   11.4056  -15.2907   22.8142 O   0  0  0  0  0  0  0  0  0  0  0  0
   11.6275  -18.0772   18.4975 O   0  0  0  0  0  0  0  0  0  0  0  0
   10.1320  -16.7737   24.0009 N   0  0  0  0  0  0  0  0  0  0  0  0
   10.3545  -16.1618   25.2979 C   0  0  1  0  0  0  0  0  0  0  0  0
    9.7970  -14.7658   25.2252 C   0  0  0  0  0  0  0  0  0  0  0  0
    8.3778  -14.6625   25.5142 C   0  0  0  0  0  0  0  0  0  0  0  0
    7.4220  -15.6410   25.3655 C   0  0  0  0  0  0  0  0  0  0  0  0
    6.2141  -15.1700   25.7356 N   0  0  0  0  0  0  0  0  0  0  0  0
    6.3903  -13.8705   26.1287 C   0  0  0  0  0  0  0  0  0  0  0  0
    5.5002  -12.9309   26.5955 C   0  0  0  0  0  0  0  0  0  0  0  0
    5.8950  -11.6650   26.9395 C   0  0  0  0  0  0  0  0  0  0  0  0
    7.2304  -11.3411   26.8069 C   0  0  0  0  0  0  0  0  0  0  0  0
    8.1430  -12.2628   26.3416 C   0  0  0  0  0  0  0  0  0  0  0  0
    7.7376  -13.5383   25.9964 C   0  0  0  0  0  0  0  0  0  0  0  0
    9.7164  -16.9972   26.3109 C   0  0  0  0  0  0  0  0  0  0  0  0
    8.9790  -17.9972   25.9931 O   0  0  0  0  0  0  0  0  0  0  0  0
    9.8989  -16.7209   27.6540 O   0  0  0  0  0  0  0  0  0  0  0  0
  1  2  1  0
  3  2  1  0
  3  4  2  0
  5  3  1  0
  6  5  1  0
  6 10  1  0
  6  7  1  6
  8  7  1  0
  9  8  2  0
 10 11  2  0
 10 13  1  0
 12  8  1  0
 13 14  1  0
 14 25  1  0
 14 15  1  6
 16 17  2  0
 16 15  1  0
 18 17  1  0
 19 24  2  0
 19 18  1  0
 20 19  1  0
 21 22  1  0
 21 20  2  0
 22 23  2  0
 23 24  1  0
 24 16  1  0
 25 26  2  0
 25 27  1  0
M  END
$$$$
