GDW.pdb
     RDKit          3D

 27 28  0  0  1  0  0  0  0  0999 V2000
    6.7942  -20.2390   21.6119 N   0  0  0  0  0  0  0  0  0  0  0  0
    7.7349  -20.3679   22.7097 C   0  0  0  0  0  0  0  0  0  0  0  0
    8.9106  -19.5047   22.4511 C   0  0  0  0  0  0  0  0  0  0  0  0
   10.0859  -19.9544   22.6674 O   0  0  0  0  0  0  0  0  0  0  0  0
    8.8028  -18.1731   21.9643 N   0  0  0  0  0  0  0  0  0  0  0  0
    9.9899  -17.4041   21.6472 C   0  0  1  0  0  0  0  0  0  0  0  0
    9.5771  -16.4357   20.5520 C   0  0  0  0  0  0  0  0  0  0  0  0
    9.4165  -17.2295   19.3195 C   0  0  0  0  0  0  0  0  0  0  0  0
   10.3657  -17.9363   18.9237 O   0  0  0  0  0  0  0  0  0  0  0  0
   10.5190  -16.7000   22.8361 C   0  0  0  0  0  0  0  0  0  0  0  0
   11.4409  -15.8787   22.7282 O   0  0  0  0  0  0  0  0  0  0  0  0
    8.2338  -17.1931   18.6118 O   0  0  0  0  0  0  0  0  0  0  0  0
    9.9746  -16.9594   24.1109 N   0  0  0  0  0  0  0  0  0  0  0  0
   10.4260  -16.3255   25.3358 C   0  0  1  0  0  0  0  0  0  0  0  0
    9.8935  -14.9179   25.3228 C   0  0  0  0  0  0  0  0  0  0  0  0
    8.4646  -14.8068   25.5562 C   0  0  0  0  0  0  0  0  0  0  0  0
    7.5386  -15.8244   25.5662 C   0  0  0  0  0  0  0  0  0  0  0  0
    6.3093  -15.3307   25.8172 N   0  0  0  0  0  0  0  0  0  0  0  0
    6.4414  -13.9768   25.9715 C   0  0  0  0  0  0  0  0  0  0  0  0
    5.5150  -12.9954   26.2396 C   0  0  0  0  0  0  0  0  0  0  0  0
    5.8678  -11.6769   26.3567 C   0  0  0  0  0  0  0  0  0  0  0  0
    7.1978  -11.3423   26.1976 C   0  0  0  0  0  0  0  0  0  0  0  0
    8.1460  -12.3052   25.9283 C   0  0  0  0  0  0  0  0  0  0  0  0
    7.7830  -13.6337   25.8114 C   0  0  0  0  0  0  0  0  0  0  0  0
    9.9513  -17.1229   26.4628 C   0  0  0  0  0  0  0  0  0  0  0  0
   10.0735  -16.7183   27.6737 O   0  0  0  0  0  0  0  0  0  0  0  0
    9.3509  -18.3493   26.2413 O   0  0  0  0  0  0  0  0  0  0  0  0
  1  2  1  0
  3  2  1  0
  3  4  2  0
  5  3  1  0
  6  5  1  0
  6 10  1  0
  6  7  1  6
  8  7  1  0
  9  8  2  0
 10 11  2  0
 10 13  1  0
 12  8  1  0
 13 14  1  0
 14 25  1  0
 14 15  1  1
 16 17  2  0
 16 15  1  0
 18 17  1  0
 19 24  2  0
 19 18  1  0
 20 19  1  0
 21 22  1  0
 21 20  2  0
 22 23  2  0
 23 24  1  0
 24 16  1  0
 25 26  2  0
 25 27  1  0
M  END
$$$$
