GDW.pdb
     RDKit          3D

 27 28  0  0  1  0  0  0  0  0999 V2000
    5.8052  -15.6034   20.1581 N   0  0  0  0  0  0  0  0  0  0  0  0
    7.0482  -14.9319   20.4913 C   0  0  0  0  0  0  0  0  0  0  0  0
    7.9375  -15.8752   21.2080 C   0  0  0  0  0  0  0  0  0  0  0  0
    7.4776  -16.9958   21.6119 O   0  0  0  0  0  0  0  0  0  0  0  0
    9.3056  -15.5978   21.4781 N   0  0  0  0  0  0  0  0  0  0  0  0
   10.1005  -16.5096   22.2768 C   0  0  1  0  0  0  0  0  0  0  0  0
   11.4701  -16.5502   21.6210 C   0  0  0  0  0  0  0  0  0  0  0  0
   12.0652  -17.8571   21.9576 C   0  0  0  0  0  0  0  0  0  0  0  0
   12.9889  -17.9067   22.7951 O   0  0  0  0  0  0  0  0  0  0  0  0
   10.1773  -16.0749   23.6889 C   0  0  0  0  0  0  0  0  0  0  0  0
   10.6922  -14.9886   23.9906 O   0  0  0  0  0  0  0  0  0  0  0  0
   11.6085  -19.0106   21.3561 O   0  0  0  0  0  0  0  0  0  0  0  0
    9.6613  -16.8987   24.7107 N   0  0  0  0  0  0  0  0  0  0  0  0
    9.7422  -16.5910   26.1266 C   0  0  1  0  0  0  0  0  0  0  0  0
    8.3370  -16.6284   26.6641 C   0  0  0  0  0  0  0  0  0  0  0  0
    7.4715  -15.5694   26.1762 C   0  0  0  0  0  0  0  0  0  0  0  0
    6.3958  -15.6947   25.3275 C   0  0  0  0  0  0  0  0  0  0  0  0
    5.8401  -14.4872   25.1013 N   0  0  0  0  0  0  0  0  0  0  0  0
    6.5652  -13.5692   25.8123 C   0  0  0  0  0  0  0  0  0  0  0  0
    6.4343  -12.2054   25.9398 C   0  0  0  0  0  0  0  0  0  0  0  0
    7.2837  -11.4644   26.7183 C   0  0  0  0  0  0  0  0  0  0  0  0
    8.2953  -12.1237   27.3875 C   0  0  0  0  0  0  0  0  0  0  0  0
    8.4492  -13.4886   27.2773 C   0  0  0  0  0  0  0  0  0  0  0  0
    7.5885  -14.2301   26.4900 C   0  0  0  0  0  0  0  0  0  0  0  0
   10.6367  -17.5602   26.7527 C   0  0  0  0  0  0  0  0  0  0  0  0
   11.0685  -18.5872   26.1176 O   0  0  0  0  0  0  0  0  0  0  0  0
   11.0413  -17.3852   28.0639 O   0  0  0  0  0  0  0  0  0  0  0  0
  1  2  1  0
  3  2  1  0
  3  4  2  0
  5  3  1  0
  6  5  1  0
  6 10  1  0
  6  7  1  6
  8  7  1  0
  9  8  2  0
 10 11  2  0
 10 13  1  0
 12  8  1  0
 13 14  1  0
 14 25  1  0
 14 15  1  1
 16 17  2  0
 16 15  1  0
 18 17  1  0
 19 24  2  0
 19 18  1  0
 20 19  1  0
 21 22  1  0
 21 20  2  0
 22 23  2  0
 23 24  1  0
 24 16  1  0
 25 26  2  0
 25 27  1  0
M  END
$$$$
