GDW.pdb
     RDKit          3D

 27 28  0  0  1  0  0  0  0  0999 V2000
    7.5313  -15.7037   18.8648 N   0  0  0  0  0  0  0  0  0  0  0  0
    7.8999  -15.0173   20.0895 C   0  0  0  0  0  0  0  0  0  0  0  0
    8.2718  -16.0165   21.1179 C   0  0  0  0  0  0  0  0  0  0  0  0
    7.3783  -16.7902   21.6009 O   0  0  0  0  0  0  0  0  0  0  0  0
    9.5976  -16.1668   21.6093 N   0  0  0  0  0  0  0  0  0  0  0  0
    9.8985  -17.1456   22.6353 C   0  0  1  0  0  0  0  0  0  0  0  0
   11.0942  -17.9301   22.1228 C   0  0  0  0  0  0  0  0  0  0  0  0
   12.1531  -16.9473   21.8259 C   0  0  0  0  0  0  0  0  0  0  0  0
   12.0927  -16.2900   20.7670 O   0  0  0  0  0  0  0  0  0  0  0  0
   10.1772  -16.5033   23.9387 C   0  0  0  0  0  0  0  0  0  0  0  0
   10.7734  -15.4184   23.9961 O   0  0  0  0  0  0  0  0  0  0  0  0
   13.1974  -16.7554   22.7054 O   0  0  0  0  0  0  0  0  0  0  0  0
    9.7635  -17.1249   25.1351 N   0  0  0  0  0  0  0  0  0  0  0  0
    9.9610  -16.5622   26.4581 C   0  0  1  0  0  0  0  0  0  0  0  0
    8.6076  -16.4971   27.1131 C   0  0  0  0  0  0  0  0  0  0  0  0
    7.6257  -15.6989   26.4010 C   0  0  0  0  0  0  0  0  0  0  0  0
    6.6145  -16.1517   25.5851 C   0  0  0  0  0  0  0  0  0  0  0  0
    5.9076  -15.1108   25.1008 N   0  0  0  0  0  0  0  0  0  0  0  0
    6.4682  -13.9701   25.6095 C   0  0  0  0  0  0  0  0  0  0  0  0
    6.1451  -12.6431   25.4427 C   0  0  0  0  0  0  0  0  0  0  0  0
    6.8504  -11.6417   26.0563 C   0  0  0  0  0  0  0  0  0  0  0  0
    7.9141  -11.9944   26.8625 C   0  0  0  0  0  0  0  0  0  0  0  0
    8.2594  -13.3157   27.0467 C   0  0  0  0  0  0  0  0  0  0  0  0
    7.5434  -14.3210   26.4244 C   0  0  0  0  0  0  0  0  0  0  0  0
   10.9191  -17.4016   27.1714 C   0  0  0  0  0  0  0  0  0  0  0  0
   11.3894  -18.4767   26.6541 O   0  0  0  0  0  0  0  0  0  0  0  0
   11.3441  -17.0464   28.4390 O   0  0  0  0  0  0  0  0  0  0  0  0
  1  2  1  0
  3  2  1  0
  3  4  2  0
  5  3  1  0
  6  5  1  0
  6 10  1  0
  6  7  1  6
  8  7  1  0
  9  8  2  0
 10 11  2  0
 10 13  1  0
 12  8  1  0
 13 14  1  0
 14 25  1  0
 14 15  1  1
 16 17  2  0
 16 15  1  0
 18 17  1  0
 19 24  2  0
 19 18  1  0
 20 19  1  0
 21 22  1  0
 21 20  2  0
 22 23  2  0
 23 24  1  0
 24 16  1  0
 25 26  2  0
 25 27  1  0
M  END
$$$$
