IMC.pdb
     RDKit          3D

 23 22  0  0  1  0  0  0  0  0999 V2000
   19.4264  -21.7691  -11.7499 C   0  0  0  0  0  0  0  0  0  0  0  0
   20.2647  -21.9840  -12.9599 C   0  0  0  0  0  0  0  0  0  0  0  0
   21.3555  -20.9971  -13.1846 C   0  0  2  0  0  0  0  0  0  0  0  0
   20.8391  -19.6020  -13.0973 C   0  0  0  0  0  0  0  0  0  0  0  0
   22.1909  -21.2496  -14.4280 C   0  0  2  0  0  0  0  0  0  0  0  0
   22.4739  -22.6872  -14.3975 N   0  0  0  0  0  0  0  0  0  0  0  0
   23.4493  -20.5105  -14.4229 C   0  0  0  0  0  0  0  0  0  0  0  0
   23.5832  -19.2697  -14.4450 O   0  0  0  0  0  0  0  0  0  0  0  0
   28.5185  -21.2549  -10.4380 C   0  0  0  0  0  0  0  0  0  0  0  0
   29.0898  -21.6947  -12.0797 S   0  0  0  0  0  0  0  0  0  0  0  0
   28.2353  -20.7455  -13.3964 C   0  0  0  0  0  0  0  0  0  0  0  0
   26.8756  -21.3344  -13.5088 C   0  0  0  0  0  0  0  0  0  0  0  0
   25.9750  -20.7063  -14.5459 C   0  0  2  0  0  0  0  0  0  0  0  0
   24.6562  -21.2738  -14.3859 N   0  0  0  0  0  0  0  0  0  0  0  0
   26.5132  -20.6999  -15.8874 C   0  0  0  0  0  0  0  0  0  0  0  0
   26.6235  -21.7213  -16.6253 O   0  0  0  0  0  0  0  0  0  0  0  0
   26.9763  -19.4871  -16.4990 N   0  0  0  0  0  0  0  0  0  0  0  0
   27.4029  -19.4069  -17.8632 C   0  0  1  0  0  0  0  0  0  0  0  0
   27.0544  -18.0460  -18.4892 C   0  0  0  0  0  0  0  0  0  0  0  0
   25.3186  -17.6511  -18.0841 S   0  0  0  0  0  0  0  0  0  0  0  0
   28.8253  -19.7093  -17.9760 C   0  0  0  0  0  0  0  0  0  0  0  0
   29.4482  -19.9073  -19.2246 O   0  0  0  0  0  0  0  0  0  0  0  0
   29.5380  -19.8013  -16.9557 O   0  0  0  0  0  0  0  0  0  0  0  0
  2  1  1  0
  3  2  1  0
  3  4  1  6
  5  3  1  0
  5  6  1  1
  7  8  2  0
  7  5  1  0
  9 10  1  0
 10 11  1  0
 11 12  1  0
 13 12  1  1
 13 14  1  0
 14  7  1  0
 15 17  1  0
 15 13  1  0
 16 15  2  0
 18 21  1  0
 18 17  1  0
 18 19  1  1
 20 19  1  0
 21 22  1  0
 23 21  2  0
M  END
$$$$
