IMC.pdb
     RDKit          3D

 23 22  0  0  1  0  0  0  0  0999 V2000
   17.7994  -15.0700  -17.1930 C   0  0  0  0  0  0  0  0  0  0  0  0
   17.7563  -14.0081  -16.1519 C   0  0  0  0  0  0  0  0  0  0  0  0
   18.2894  -12.6775  -16.5514 C   0  0  2  0  0  0  0  0  0  0  0  0
   19.6498  -12.8043  -17.1460 C   0  0  0  0  0  0  0  0  0  0  0  0
   18.2045  -11.6120  -15.4720 C   0  0  2  0  0  0  0  0  0  0  0  0
   16.7698  -11.4589  -15.2157 N   0  0  0  0  0  0  0  0  0  0  0  0
   18.7573  -10.3304  -15.8984 C   0  0  0  0  0  0  0  0  0  0  0  0
   19.9521  -10.0880  -16.1666 O   0  0  0  0  0  0  0  0  0  0  0  0
   14.4791   -5.0522  -17.1824 C   0  0  0  0  0  0  0  0  0  0  0  0
   15.7528   -5.3479  -18.4093 S   0  0  0  0  0  0  0  0  0  0  0  0
   17.3354   -5.8928  -17.6588 C   0  0  0  0  0  0  0  0  0  0  0  0
   17.0961   -7.2693  -17.1528 C   0  0  0  0  0  0  0  0  0  0  0  0
   18.2442   -7.8976  -16.3991 C   0  0  2  0  0  0  0  0  0  0  0  0
   17.8479   -9.2364  -16.0286 N   0  0  0  0  0  0  0  0  0  0  0  0
   18.7949   -7.0758  -15.3452 C   0  0  0  0  0  0  0  0  0  0  0  0
   18.2513   -6.8873  -14.2187 O   0  0  0  0  0  0  0  0  0  0  0  0
   20.0456   -6.3916  -15.5098 N   0  0  0  0  0  0  0  0  0  0  0  0
   20.6077   -5.5294  -14.5148 C   0  0  1  0  0  0  0  0  0  0  0  0
   21.9239   -6.0921  -13.9523 C   0  0  0  0  0  0  0  0  0  0  0  0
   22.6177   -4.8766  -12.7800 S   0  0  0  0  0  0  0  0  0  0  0  0
   20.7738   -4.1785  -15.0391 C   0  0  0  0  0  0  0  0  0  0  0  0
   20.6104   -3.0386  -14.2266 O   0  0  0  0  0  0  0  0  0  0  0  0
   21.0696   -3.9941  -16.2374 O   0  0  0  0  0  0  0  0  0  0  0  0
  2  1  1  0
  3  2  1  0
  3  4  1  1
  5  3  1  0
  5  6  1  6
  7  8  2  0
  7  5  1  0
  9 10  1  0
 10 11  1  0
 11 12  1  0
 13 12  1  1
 13 14  1  0
 14  7  1  0
 15 17  1  0
 15 13  1  0
 16 15  2  0
 18 21  1  0
 18 17  1  0
 18 19  1  6
 20 19  1  0
 21 22  1  0
 23 21  2  0
M  END
$$$$
