IMC.pdb
     RDKit          3D

 23 22  0  0  1  0  0  0  0  0999 V2000
   15.9966  -14.8294  -16.6702 C   0  0  0  0  0  0  0  0  0  0  0  0
   16.5306  -13.4794  -16.9952 C   0  0  0  0  0  0  0  0  0  0  0  0
   17.5985  -12.9639  -16.0961 C   0  0  2  0  0  0  0  0  0  0  0  0
   17.1927  -13.0763  -14.6667 C   0  0  0  0  0  0  0  0  0  0  0  0
   18.1239  -11.5865  -16.4629 C   0  0  2  0  0  0  0  0  0  0  0  0
   18.7988  -11.7789  -17.7494 N   0  0  0  0  0  0  0  0  0  0  0  0
   19.0803  -11.0690  -15.4896 C   0  0  0  0  0  0  0  0  0  0  0  0
   18.8434  -10.7684  -14.3015 O   0  0  0  0  0  0  0  0  0  0  0  0
   24.8237  -13.4827  -14.6939 C   0  0  0  0  0  0  0  0  0  0  0  0
   25.2731  -11.7712  -14.9837 S   0  0  0  0  0  0  0  0  0  0  0  0
   23.9153  -10.6104  -14.5669 C   0  0  0  0  0  0  0  0  0  0  0  0
   22.7402  -11.0525  -15.3617 C   0  0  0  0  0  0  0  0  0  0  0  0
   21.4634  -10.2813  -15.1249 C   0  0  2  0  0  0  0  0  0  0  0  0
   20.4273  -10.8870  -15.9290 N   0  0  0  0  0  0  0  0  0  0  0  0
   21.5985   -8.8457  -15.2263 C   0  0  0  0  0  0  0  0  0  0  0  0
   22.3338   -8.1360  -14.4808 O   0  0  0  0  0  0  0  0  0  0  0  0
   20.8812   -8.0977  -16.2188 N   0  0  0  0  0  0  0  0  0  0  0  0
   20.9390   -6.6711  -16.3230 C   0  0  1  0  0  0  0  0  0  0  0  0
   20.8873   -6.2051  -17.7878 C   0  0  0  0  0  0  0  0  0  0  0  0
   20.9382   -4.3803  -17.8157 S   0  0  0  0  0  0  0  0  0  0  0  0
   19.8907   -6.0537  -15.5185 C   0  0  0  0  0  0  0  0  0  0  0  0
   20.1427   -4.9370  -14.6963 O   0  0  0  0  0  0  0  0  0  0  0  0
   18.7270   -6.5039  -15.5377 O   0  0  0  0  0  0  0  0  0  0  0  0
  2  1  1  0
  3  2  1  0
  3  4  1  1
  5  3  1  0
  5  6  1  6
  7  8  2  0
  7  5  1  0
  9 10  1  0
 10 11  1  0
 11 12  1  0
 13 12  1  6
 13 14  1  0
 14  7  1  0
 15 17  1  0
 15 13  1  0
 16 15  2  0
 18 21  1  0
 18 17  1  0
 18 19  1  6
 20 19  1  0
 21 22  1  0
 23 21  2  0
M  END
$$$$
