IMC.pdb
     RDKit          3D

 23 22  0  0  1  0  0  0  0  0999 V2000
   23.4511  -18.9630  -18.6311 C   0  0  0  0  0  0  0  0  0  0  0  0
   24.7578  -19.6026  -18.3205 C   0  0  0  0  0  0  0  0  0  0  0  0
   24.9238  -20.1122  -16.9323 C   0  0  2  0  0  0  0  0  0  0  0  0
   24.5190  -19.0826  -15.9340 C   0  0  0  0  0  0  0  0  0  0  0  0
   26.2828  -20.7259  -16.6420 C   0  0  2  0  0  0  0  0  0  0  0  0
   26.4086  -21.8197  -17.6091 N   0  0  0  0  0  0  0  0  0  0  0  0
   26.3820  -21.2648  -15.2894 C   0  0  0  0  0  0  0  0  0  0  0  0
   25.6989  -22.1909  -14.8057 O   0  0  0  0  0  0  0  0  0  0  0  0
   31.8981  -22.1201  -11.9617 C   0  0  0  0  0  0  0  0  0  0  0  0
   31.0010  -20.9165  -10.9809 S   0  0  0  0  0  0  0  0  0  0  0  0
   29.1831  -21.0776  -11.1656 C   0  0  0  0  0  0  0  0  0  0  0  0
   28.8988  -20.8758  -12.6100 C   0  0  0  0  0  0  0  0  0  0  0  0
   27.4437  -20.9542  -13.0070 C   0  0  2  0  0  0  0  0  0  0  0  0
   27.3583  -20.6836  -14.4235 N   0  0  0  0  0  0  0  0  0  0  0  0
   26.5453  -20.2082  -12.1551 C   0  0  0  0  0  0  0  0  0  0  0  0
   26.1334  -19.0360  -12.3921 O   0  0  0  0  0  0  0  0  0  0  0  0
   26.0379  -20.7681  -10.9351 N   0  0  0  0  0  0  0  0  0  0  0  0
   24.9637  -20.1859  -10.1892 C   0  0  1  0  0  0  0  0  0  0  0  0
   23.6231  -20.3077  -10.9329 C   0  0  0  0  0  0  0  0  0  0  0  0
   22.2915  -19.7391   -9.8209 S   0  0  0  0  0  0  0  0  0  0  0  0
   24.8969  -20.7600   -8.8500 C   0  0  0  0  0  0  0  0  0  0  0  0
   24.6302  -19.9705   -7.7134 O   0  0  0  0  0  0  0  0  0  0  0  0
   25.0760  -21.9823   -8.6733 O   0  0  0  0  0  0  0  0  0  0  0  0
  2  1  1  0
  3  2  1  0
  3  4  1  1
  5  3  1  0
  5  6  1  6
  7  8  2  0
  7  5  1  0
  9 10  1  0
 10 11  1  0
 11 12  1  0
 13 12  1  1
 13 14  1  0
 14  7  1  0
 15 17  1  0
 15 13  1  0
 16 15  2  0
 18 21  1  0
 18 17  1  0
 18 19  1  6
 20 19  1  0
 21 22  1  0
 23 21  2  0
M  END
$$$$
