IMC.pdb
     RDKit          3D

 23 22  0  0  1  0  0  0  0  0999 V2000
   18.0766  -15.0848  -17.6651 C   0  0  0  0  0  0  0  0  0  0  0  0
   18.9279  -13.9614  -18.1409 C   0  0  0  0  0  0  0  0  0  0  0  0
   19.3823  -12.9983  -17.1014 C   0  0  2  0  0  0  0  0  0  0  0  0
   18.2404  -12.5459  -16.2577 C   0  0  0  0  0  0  0  0  0  0  0  0
   20.2289  -11.8521  -17.6278 C   0  0  2  0  0  0  0  0  0  0  0  0
   21.4288  -12.4968  -18.1685 N   0  0  0  0  0  0  0  0  0  0  0  0
   20.6172  -10.9102  -16.5829 C   0  0  0  0  0  0  0  0  0  0  0  0
   19.8489  -10.2420  -15.8609 O   0  0  0  0  0  0  0  0  0  0  0  0
   26.5479  -12.0894  -15.2591 C   0  0  0  0  0  0  0  0  0  0  0  0
   26.6204  -10.3121  -15.4848 S   0  0  0  0  0  0  0  0  0  0  0  0
   25.0119   -9.6070  -16.0142 C   0  0  0  0  0  0  0  0  0  0  0  0
   23.9885  -10.2021  -15.1162 C   0  0  0  0  0  0  0  0  0  0  0  0
   22.5604   -9.7962  -15.3930 C   0  0  2  0  0  0  0  0  0  0  0  0
   22.0153  -10.7289  -16.3521 N   0  0  0  0  0  0  0  0  0  0  0  0
   22.3788   -8.3927  -15.6871 C   0  0  0  0  0  0  0  0  0  0  0  0
   22.6081   -7.8552  -16.8090 O   0  0  0  0  0  0  0  0  0  0  0  0
   21.9063   -7.4768  -14.6885 N   0  0  0  0  0  0  0  0  0  0  0  0
   21.7112   -6.0796  -14.9316 C   0  0  1  0  0  0  0  0  0  0  0  0
   20.2181   -5.7180  -15.0050 C   0  0  0  0  0  0  0  0  0  0  0  0
   20.0669   -3.9002  -15.0807 S   0  0  0  0  0  0  0  0  0  0  0  0
   22.4160   -5.2808  -13.9353 C   0  0  0  0  0  0  0  0  0  0  0  0
   22.5476   -5.7048  -12.5977 O   0  0  0  0  0  0  0  0  0  0  0  0
   22.9285   -4.1861  -14.2456 O   0  0  0  0  0  0  0  0  0  0  0  0
  2  1  1  0
  3  2  1  0
  3  4  1  6
  5  3  1  0
  5  6  1  1
  7  8  2  0
  7  5  1  0
  9 10  1  0
 10 11  1  0
 11 12  1  0
 13 12  1  6
 13 14  1  0
 14  7  1  0
 15 17  1  0
 15 13  1  0
 16 15  2  0
 18 21  1  0
 18 17  1  0
 18 19  1  1
 20 19  1  0
 21 22  1  0
 23 21  2  0
M  END
$$$$
