IMC.pdb
     RDKit          3D

 23 22  0  0  1  0  0  0  0  0999 V2000
   29.1051  -24.4026  -18.0408 C   0  0  0  0  0  0  0  0  0  0  0  0
   28.5056  -23.1170  -17.5924 C   0  0  0  0  0  0  0  0  0  0  0  0
   27.5008  -23.2093  -16.4987 C   0  0  2  0  0  0  0  0  0  0  0  0
   26.5022  -24.2788  -16.7805 C   0  0  0  0  0  0  0  0  0  0  0  0
   26.8662  -21.8852  -16.1093 C   0  0  2  0  0  0  0  0  0  0  0  0
   27.9844  -21.0645  -15.6360 N   0  0  0  0  0  0  0  0  0  0  0  0
   25.8829  -22.0228  -15.0397 C   0  0  0  0  0  0  0  0  0  0  0  0
   24.7710  -22.5844  -15.1193 O   0  0  0  0  0  0  0  0  0  0  0  0
   25.7386  -20.2412   -7.2586 C   0  0  0  0  0  0  0  0  0  0  0  0
   26.5184  -20.5121   -8.8503 S   0  0  0  0  0  0  0  0  0  0  0  0
   25.2994  -20.8475  -10.1794 C   0  0  0  0  0  0  0  0  0  0  0  0
   26.0907  -21.0326  -11.4235 C   0  0  0  0  0  0  0  0  0  0  0  0
   25.2932  -21.3667  -12.6618 C   0  0  2  0  0  0  0  0  0  0  0  0
   26.2172  -21.4648  -13.7678 N   0  0  0  0  0  0  0  0  0  0  0  0
   24.1276  -20.5376  -12.8701 C   0  0  0  0  0  0  0  0  0  0  0  0
   24.1479  -19.2769  -12.9716 O   0  0  0  0  0  0  0  0  0  0  0  0
   22.8162  -21.1095  -12.9817 N   0  0  0  0  0  0  0  0  0  0  0  0
   21.6404  -20.3365  -13.2450 C   0  0  1  0  0  0  0  0  0  0  0  0
   21.4978  -20.0093  -14.7410 C   0  0  0  0  0  0  0  0  0  0  0  0
   19.9045  -19.1555  -14.9965 S   0  0  0  0  0  0  0  0  0  0  0  0
   20.4561  -21.0061  -12.7194 C   0  0  0  0  0  0  0  0  0  0  0  0
   19.4431  -20.3023  -12.0376 O   0  0  0  0  0  0  0  0  0  0  0  0
   20.3064  -22.2368  -12.8621 O   0  0  0  0  0  0  0  0  0  0  0  0
  2  1  1  0
  3  2  1  0
  3  4  1  6
  5  3  1  0
  5  6  1  1
  7  8  2  0
  7  5  1  0
  9 10  1  0
 10 11  1  0
 11 12  1  0
 13 12  1  1
 13 14  1  0
 14  7  1  0
 15 17  1  0
 15 13  1  0
 16 15  2  0
 18 21  1  0
 18 17  1  0
 18 19  1  6
 20 19  1  0
 21 22  1  0
 23 21  2  0
M  END
$$$$
