IMC.pdb
     RDKit          3D

 23 22  0  0  1  0  0  0  0  0999 V2000
   23.1996  -20.2006  -14.6904 C   0  0  0  0  0  0  0  0  0  0  0  0
   22.1665  -20.2178  -13.6200 C   0  0  0  0  0  0  0  0  0  0  0  0
   20.7566  -20.3633  -14.0730 C   0  0  2  0  0  0  0  0  0  0  0  0
   20.4265  -19.3572  -15.1215 C   0  0  0  0  0  0  0  0  0  0  0  0
   19.7339  -20.4164  -12.9510 C   0  0  2  0  0  0  0  0  0  0  0  0
   19.8402  -19.1118  -12.2920 N   0  0  0  0  0  0  0  0  0  0  0  0
   20.0135  -21.4705  -11.9811 C   0  0  0  0  0  0  0  0  0  0  0  0
   20.0608  -22.6969  -12.2084 O   0  0  0  0  0  0  0  0  0  0  0  0
   23.9234  -21.2836   -6.5254 C   0  0  0  0  0  0  0  0  0  0  0  0
   24.0731  -20.4796   -8.1212 S   0  0  0  0  0  0  0  0  0  0  0  0
   22.9553  -21.2080   -9.3801 C   0  0  0  0  0  0  0  0  0  0  0  0
   21.6411  -21.3822   -8.7089 C   0  0  0  0  0  0  0  0  0  0  0  0
   20.5494  -21.9903   -9.5572 C   0  0  2  0  0  0  0  0  0  0  0  0
   20.2628  -21.0696  -10.6328 N   0  0  0  0  0  0  0  0  0  0  0  0
   19.4123  -22.4835   -8.8136 C   0  0  0  0  0  0  0  0  0  0  0  0
   18.3475  -21.8324   -8.6077 O   0  0  0  0  0  0  0  0  0  0  0  0
   19.4121  -23.7973   -8.2362 N   0  0  0  0  0  0  0  0  0  0  0  0
   18.2641  -24.3825   -7.6124 C   0  0  1  0  0  0  0  0  0  0  0  0
   18.0728  -25.8489   -8.0347 C   0  0  0  0  0  0  0  0  0  0  0  0
   16.6472  -26.5319   -7.1213 S   0  0  0  0  0  0  0  0  0  0  0  0
   18.3372  -24.2390   -6.1628 C   0  0  0  0  0  0  0  0  0  0  0  0
   17.1843  -24.0552   -5.3733 O   0  0  0  0  0  0  0  0  0  0  0  0
   19.4376  -24.2763   -5.5754 O   0  0  0  0  0  0  0  0  0  0  0  0
  2  1  1  0
  3  2  1  0
  3  4  1  6
  5  3  1  0
  5  6  1  1
  7  8  2  0
  7  5  1  0
  9 10  1  0
 10 11  1  0
 11 12  1  0
 13 12  1  1
 13 14  1  0
 14  7  1  0
 15 17  1  0
 15 13  1  0
 16 15  2  0
 18 21  1  0
 18 17  1  0
 18 19  1  1
 20 19  1  0
 21 22  1  0
 23 21  2  0
M  END
$$$$
