IMC.pdb
     RDKit          3D

 23 22  0  0  1  0  0  0  0  0999 V2000
   17.7588  -15.0554    1.0140 C   0  0  0  0  0  0  0  0  0  0  0  0
   17.1743  -14.4147    2.2228 C   0  0  0  0  0  0  0  0  0  0  0  0
   17.9516  -14.5629    3.4831 C   0  0  2  0  0  0  0  0  0  0  0  0
   18.2332  -15.9976    3.7707 C   0  0  0  0  0  0  0  0  0  0  0  0
   17.3752  -13.8154    4.6733 C   0  0  2  0  0  0  0  0  0  0  0  0
   17.2488  -12.4297    4.2137 N   0  0  0  0  0  0  0  0  0  0  0  0
   18.2470  -13.8575    5.8430 C   0  0  0  0  0  0  0  0  0  0  0  0
   18.5499  -14.8689    6.5089 O   0  0  0  0  0  0  0  0  0  0  0  0
   23.1837   -9.1527    7.0106 C   0  0  0  0  0  0  0  0  0  0  0  0
   21.8376   -9.1088    8.1944 S   0  0  0  0  0  0  0  0  0  0  0  0
   21.1667  -10.7776    8.5543 C   0  0  0  0  0  0  0  0  0  0  0  0
   20.2308  -11.0909    7.4435 C   0  0  0  0  0  0  0  0  0  0  0  0
   19.6609  -12.4896    7.4438 C   0  0  2  0  0  0  0  0  0  0  0  0
   18.8197  -12.6228    6.2769 N   0  0  0  0  0  0  0  0  0  0  0  0
   19.0842  -12.9054    8.7023 C   0  0  0  0  0  0  0  0  0  0  0  0
   17.9774  -12.4968    9.1586 O   0  0  0  0  0  0  0  0  0  0  0  0
   19.7525  -13.8479    9.5534 N   0  0  0  0  0  0  0  0  0  0  0  0
   19.2196  -14.2935   10.8051 C   0  0  1  0  0  0  0  0  0  0  0  0
   18.4910  -15.6407   10.6661 C   0  0  0  0  0  0  0  0  0  0  0  0
   17.9828  -16.1972   12.3289 S   0  0  0  0  0  0  0  0  0  0  0  0
   20.2650  -14.3428   11.8210 C   0  0  0  0  0  0  0  0  0  0  0  0
   20.0011  -14.0597   13.1762 O   0  0  0  0  0  0  0  0  0  0  0  0
   21.4368  -14.6416   11.5126 O   0  0  0  0  0  0  0  0  0  0  0  0
  2  1  1  0
  3  2  1  0
  3  4  1  1
  5  3  1  0
  5  6  1  6
  7  8  2  0
  7  5  1  0
  9 10  1  0
 10 11  1  0
 11 12  1  0
 13 12  1  1
 13 14  1  0
 14  7  1  0
 15 17  1  0
 15 13  1  0
 16 15  2  0
 18 21  1  0
 18 17  1  0
 18 19  1  6
 20 19  1  0
 21 22  1  0
 23 21  2  0
M  END
$$$$
