IMC.pdb
     RDKit          3D

 23 22  0  0  1  0  0  0  0  0999 V2000
   16.6541  -11.5086  -20.4022 C   0  0  0  0  0  0  0  0  0  0  0  0
   17.3468  -11.3069  -19.1012 C   0  0  0  0  0  0  0  0  0  0  0  0
   18.2521  -12.4042  -18.6643 C   0  0  2  0  0  0  0  0  0  0  0  0
   17.5444  -13.7154  -18.6739 C   0  0  0  0  0  0  0  0  0  0  0  0
   18.9938  -12.1334  -17.3666 C   0  0  2  0  0  0  0  0  0  0  0  0
   17.9401  -11.8241  -16.3962 N   0  0  0  0  0  0  0  0  0  0  0  0
   19.9073  -10.9994  -17.4639 C   0  0  0  0  0  0  0  0  0  0  0  0
   20.8721  -10.8866  -18.2479 O   0  0  0  0  0  0  0  0  0  0  0  0
   21.4289   -7.6888  -21.2481 C   0  0  0  0  0  0  0  0  0  0  0  0
   20.7287   -6.4922  -20.1110 S   0  0  0  0  0  0  0  0  0  0  0  0
   21.0791   -6.9034  -18.3580 C   0  0  0  0  0  0  0  0  0  0  0  0
   20.3296   -8.1544  -18.0732 C   0  0  0  0  0  0  0  0  0  0  0  0
   20.4014   -8.6493  -16.6481 C   0  0  2  0  0  0  0  0  0  0  0  0
   19.6824   -9.9004  -16.5794 N   0  0  0  0  0  0  0  0  0  0  0  0
   20.0663   -7.6601  -15.6488 C   0  0  0  0  0  0  0  0  0  0  0  0
   18.9253   -7.1315  -15.5112 O   0  0  0  0  0  0  0  0  0  0  0  0
   21.0421   -7.1922  -14.7064 N   0  0  0  0  0  0  0  0  0  0  0  0
   20.7596   -6.2111  -13.7029 C   0  0  1  0  0  0  0  0  0  0  0  0
   21.2889   -6.6391  -12.3238 C   0  0  0  0  0  0  0  0  0  0  0  0
   20.3726   -8.1249  -11.7889 S   0  0  0  0  0  0  0  0  0  0  0  0
   21.2732   -4.9053  -14.1012 C   0  0  0  0  0  0  0  0  0  0  0  0
   22.0819   -4.7395  -15.2435 O   0  0  0  0  0  0  0  0  0  0  0  0
   21.0057   -3.8864  -13.4320 O   0  0  0  0  0  0  0  0  0  0  0  0
  2  1  1  0
  3  2  1  0
  3  4  1  1
  5  3  1  0
  5  6  1  1
  7  8  2  0
  7  5  1  0
  9 10  1  0
 10 11  1  0
 11 12  1  0
 13 12  1  6
 13 14  1  0
 14  7  1  0
 15 17  1  0
 15 13  1  0
 16 15  2  0
 18 21  1  0
 18 17  1  0
 18 19  1  1
 20 19  1  0
 21 22  1  0
 23 21  2  0
M  END
$$$$
