TTV.pdb
     RDKit          3D

 22 21  0  0  1  0  0  0  0  0999 V2000
   17.0457   -9.5437  -17.7589 C   0  0  0  0  0  0  0  0  0  0  0  0
   17.3689  -10.9962  -17.9849 C   0  0  1  0  0  0  0  0  0  0  0  0
   16.3245  -11.6653  -18.6195 O   0  0  0  0  0  0  0  0  0  0  0  0
   18.6670  -11.1432  -18.7294 C   0  0  2  0  0  0  0  0  0  0  0  0
   18.8829  -12.5365  -19.0343 N   0  0  0  0  0  0  0  0  0  0  0  0
   19.8128  -10.5285  -18.0289 C   0  0  0  0  0  0  0  0  0  0  0  0
   20.5246  -11.2380  -17.3007 O   0  0  0  0  0  0  0  0  0  0  0  0
   22.8739   -8.7497  -19.4314 C   0  0  0  0  0  0  0  0  0  0  0  0
   22.1857   -7.8150  -18.4730 C   0  0  1  0  0  0  0  0  0  0  0  0
   21.5060   -6.8032  -19.1483 O   0  0  0  0  0  0  0  0  0  0  0  0
   21.2676   -8.5343  -17.5130 C   0  0  2  0  0  0  0  0  0  0  0  0
   20.1470   -9.1446  -18.1478 N   0  0  0  0  0  0  0  0  0  0  0  0
   20.9158   -7.6530  -16.3851 C   0  0  0  0  0  0  0  0  0  0  0  0
   19.8848   -6.9442  -16.5037 O   0  0  0  0  0  0  0  0  0  0  0  0
   20.5029   -8.5764  -12.7693 C   0  0  0  0  0  0  0  0  0  0  0  0
   21.3855   -7.3459  -12.7348 C   0  0  2  0  0  0  0  0  0  0  0  0
   20.9374   -6.4846  -11.6009 C   0  0  0  0  0  0  0  0  0  0  0  0
   21.2761   -6.6723  -14.0821 C   0  0  2  0  0  0  0  0  0  0  0  0
   21.6448   -7.5365  -15.1725 N   0  0  0  0  0  0  0  0  0  0  0  0
   22.1430   -5.4698  -14.0845 C   0  0  0  0  0  0  0  0  0  0  0  0
   23.3004   -5.5487  -14.5517 O   0  0  0  0  0  0  0  0  0  0  0  0
   21.7334   -4.2479  -13.5901 O   0  0  0  0  0  0  0  0  0  0  0  0
  2  1  1  6
  2  3  1  0
  4  2  1  0
  4  5  1  1
  6  4  1  0
  6 12  1  0
  7  6  2  0
  9  8  1  6
  9 11  1  0
 10  9  1  0
 11 12  1  6
 11 13  1  0
 13 19  1  0
 13 14  2  0
 16 15  1  6
 17 16  1  0
 18 16  1  0
 18 20  1  0
 18 19  1  6
 20 22  1  0
 21 20  2  0
M  END
$$$$
