TTV.pdb
     RDKit          3D

 22 21  0  0  1  0  0  0  0  0999 V2000
   19.8878  -12.4804  -15.9901 C   0  0  0  0  0  0  0  0  0  0  0  0
   18.5049  -12.6896  -16.5463 C   0  0  1  0  0  0  0  0  0  0  0  0
   18.1047  -14.0205  -16.4487 O   0  0  0  0  0  0  0  0  0  0  0  0
   17.5222  -11.7564  -15.8948 C   0  0  2  0  0  0  0  0  0  0  0  0
   16.1872  -12.1065  -16.3143 N   0  0  0  0  0  0  0  0  0  0  0  0
   17.8355  -10.3308  -16.1205 C   0  0  0  0  0  0  0  0  0  0  0  0
   17.9713   -9.9208  -17.2839 O   0  0  0  0  0  0  0  0  0  0  0  0
   16.0114   -7.2491  -15.9064 C   0  0  0  0  0  0  0  0  0  0  0  0
   17.1591   -7.0826  -14.9469 C   0  0  1  0  0  0  0  0  0  0  0  0
   16.7407   -7.2168  -13.6245 O   0  0  0  0  0  0  0  0  0  0  0  0
   18.3105   -8.0138  -15.2458 C   0  0  2  0  0  0  0  0  0  0  0  0
   17.9921   -9.3901  -15.0568 N   0  0  0  0  0  0  0  0  0  0  0  0
   19.5231   -7.5719  -14.5337 C   0  0  0  0  0  0  0  0  0  0  0  0
   19.7533   -8.0837  -13.4093 O   0  0  0  0  0  0  0  0  0  0  0  0
   22.6537   -5.5851  -16.4536 C   0  0  0  0  0  0  0  0  0  0  0  0
   22.8971   -6.3784  -15.1864 C   0  0  2  0  0  0  0  0  0  0  0  0
   23.2019   -7.7879  -15.5722 C   0  0  0  0  0  0  0  0  0  0  0  0
   21.6647   -6.2434  -14.3240 C   0  0  2  0  0  0  0  0  0  0  0  0
   20.4559   -6.6144  -15.0116 N   0  0  0  0  0  0  0  0  0  0  0  0
   21.5618   -4.8399  -13.8578 C   0  0  0  0  0  0  0  0  0  0  0  0
   20.6985   -4.0879  -14.3610 O   0  0  0  0  0  0  0  0  0  0  0  0
   22.3820   -4.3110  -12.8817 O   0  0  0  0  0  0  0  0  0  0  0  0
  2  1  1  1
  2  3  1  0
  4  2  1  0
  4  5  1  6
  6  4  1  0
  6 12  1  0
  7  6  2  0
  9  8  1  6
  9 11  1  0
 10  9  1  0
 11 12  1  1
 11 13  1  0
 13 19  1  0
 13 14  2  0
 16 15  1  6
 17 16  1  0
 18 16  1  0
 18 20  1  0
 18 19  1  6
 20 22  1  0
 21 20  2  0
M  END
$$$$
