TTV.pdb
     RDKit          3D

 22 21  0  0  1  0  0  0  0  0999 V2000
   13.8457  -10.5686  -13.7715 C   0  0  0  0  0  0  0  0  0  0  0  0
   14.8948  -11.5387  -14.2448 C   0  0  1  0  0  0  0  0  0  0  0  0
   14.4477  -12.2969  -15.3247 O   0  0  0  0  0  0  0  0  0  0  0  0
   16.1812  -10.8235  -14.5525 C   0  0  2  0  0  0  0  0  0  0  0  0
   17.1258  -11.7641  -15.1034 N   0  0  0  0  0  0  0  0  0  0  0  0
   16.7244  -10.0796  -13.3979 C   0  0  0  0  0  0  0  0  0  0  0  0
   17.2483  -10.7114  -12.4669 O   0  0  0  0  0  0  0  0  0  0  0  0
   19.5604   -7.8454  -12.8044 C   0  0  0  0  0  0  0  0  0  0  0  0
   18.3322   -7.0471  -12.4582 C   0  0  1  0  0  0  0  0  0  0  0  0
   18.0384   -6.1104  -13.4472 O   0  0  0  0  0  0  0  0  0  0  0  0
   17.1326   -7.9175  -12.1659 C   0  0  2  0  0  0  0  0  0  0  0  0
   16.6768   -8.6554  -13.2968 N   0  0  0  0  0  0  0  0  0  0  0  0
   16.0818   -7.1308  -11.4955 C   0  0  0  0  0  0  0  0  0  0  0  0
   15.1557   -6.6730  -12.2111 O   0  0  0  0  0  0  0  0  0  0  0  0
   15.6614   -6.9135   -7.2837 C   0  0  0  0  0  0  0  0  0  0  0  0
   14.4736   -6.7208   -8.2038 C   0  0  2  0  0  0  0  0  0  0  0  0
   13.8350   -8.0523   -8.4226 C   0  0  0  0  0  0  0  0  0  0  0  0
   14.9834   -6.0817   -9.4736 C   0  0  2  0  0  0  0  0  0  0  0  0
   16.0266   -6.8456  -10.1060 N   0  0  0  0  0  0  0  0  0  0  0  0
   15.4842   -4.7234   -9.1545 C   0  0  0  0  0  0  0  0  0  0  0  0
   14.6698   -3.8262   -8.8450 O   0  0  0  0  0  0  0  0  0  0  0  0
   16.8237   -4.3914   -9.1817 O   0  0  0  0  0  0  0  0  0  0  0  0
  2  1  1  6
  2  3  1  0
  4  2  1  0
  4  5  1  1
  6  4  1  0
  6 12  1  0
  7  6  2  0
  9  8  1  6
  9 11  1  0
 10  9  1  0
 11 12  1  6
 11 13  1  0
 13 19  1  0
 13 14  2  0
 16 15  1  1
 17 16  1  0
 18 16  1  0
 18 20  1  0
 18 19  1  1
 20 22  1  0
 21 20  2  0
M  END
$$$$
