TTV.pdb
     RDKit          3D

 22 21  0  0  1  0  0  0  0  0999 V2000
   18.2192  -10.8831  -13.8397 C   0  0  0  0  0  0  0  0  0  0  0  0
   19.2622  -10.1087  -14.5999 C   0  0  1  0  0  0  0  0  0  0  0  0
   19.8426  -10.8758  -15.6078 O   0  0  0  0  0  0  0  0  0  0  0  0
   18.6902   -8.8228  -15.1291 C   0  0  2  0  0  0  0  0  0  0  0  0
   19.6592   -8.1934  -15.9926 N   0  0  0  0  0  0  0  0  0  0  0  0
   18.2032   -7.9210  -14.0656 C   0  0  0  0  0  0  0  0  0  0  0  0
   19.0009   -7.1353  -13.5301 O   0  0  0  0  0  0  0  0  0  0  0  0
   16.4943   -4.9523  -14.1379 C   0  0  0  0  0  0  0  0  0  0  0  0
   15.5964   -5.8181  -13.2953 C   0  0  1  0  0  0  0  0  0  0  0  0
   14.4896   -6.2587  -14.0182 O   0  0  0  0  0  0  0  0  0  0  0  0
   16.3278   -6.9806  -12.6663 C   0  0  2  0  0  0  0  0  0  0  0  0
   16.8470   -7.9068  -13.6170 N   0  0  0  0  0  0  0  0  0  0  0  0
   15.4994   -7.5965  -11.6142 C   0  0  0  0  0  0  0  0  0  0  0  0
   15.0150   -8.7321  -11.8491 O   0  0  0  0  0  0  0  0  0  0  0  0
   14.2792   -5.4985   -8.1127 C   0  0  0  0  0  0  0  0  0  0  0  0
   14.4518   -7.0000   -8.0125 C   0  0  2  0  0  0  0  0  0  0  0  0
   15.7948   -7.2746   -7.4212 C   0  0  0  0  0  0  0  0  0  0  0  0
   14.2774   -7.5694   -9.4003 C   0  0  2  0  0  0  0  0  0  0  0  0
   15.2013   -7.0144  -10.3543 N   0  0  0  0  0  0  0  0  0  0  0  0
   12.8870   -7.3151   -9.8475 C   0  0  0  0  0  0  0  0  0  0  0  0
   12.6657   -6.4046  -10.6758 O   0  0  0  0  0  0  0  0  0  0  0  0
   11.8065   -8.0422   -9.3903 O   0  0  0  0  0  0  0  0  0  0  0  0
  2  1  1  6
  2  3  1  0
  4  2  1  0
  4  5  1  1
  6  4  1  0
  6 12  1  0
  7  6  2  0
  9  8  1  6
  9 11  1  0
 10  9  1  0
 11 12  1  6
 11 13  1  0
 13 19  1  0
 13 14  2  0
 16 15  1  6
 17 16  1  0
 18 16  1  0
 18 20  1  0
 18 19  1  6
 20 22  1  0
 21 20  2  0
M  END
$$$$
