TTV.pdb
     RDKit          3D

 22 21  0  0  1  0  0  0  0  0999 V2000
   14.4260  -11.0667  -10.7935 C   0  0  0  0  0  0  0  0  0  0  0  0
   14.0579  -12.5212  -10.9134 C   0  0  1  0  0  0  0  0  0  0  0  0
   12.9290  -12.8323  -10.1585 O   0  0  0  0  0  0  0  0  0  0  0  0
   13.8962  -12.9122  -12.3563 C   0  0  2  0  0  0  0  0  0  0  0  0
   13.4180  -14.2712  -12.4278 N   0  0  0  0  0  0  0  0  0  0  0  0
   15.1167  -12.6941  -13.1589 C   0  0  0  0  0  0  0  0  0  0  0  0
   15.9059  -13.6378  -13.3236 O   0  0  0  0  0  0  0  0  0  0  0  0
   15.7089  -12.3018  -16.6599 C   0  0  0  0  0  0  0  0  0  0  0  0
   16.2646  -11.0474  -16.0406 C   0  0  1  0  0  0  0  0  0  0  0  0
   15.4166   -9.9605  -16.2438 O   0  0  0  0  0  0  0  0  0  0  0  0
   16.5874  -11.2131  -14.5742 C   0  0  2  0  0  0  0  0  0  0  0  0
   15.4388  -11.4395  -13.7614 N   0  0  0  0  0  0  0  0  0  0  0  0
   17.4452  -10.1072  -14.1117 C   0  0  0  0  0  0  0  0  0  0  0  0
   16.9235   -9.2445  -13.3614 O   0  0  0  0  0  0  0  0  0  0  0  0
   21.8627   -7.9108  -13.6268 C   0  0  0  0  0  0  0  0  0  0  0  0
   21.1173   -9.1379  -14.1096 C   0  0  2  0  0  0  0  0  0  0  0  0
   21.5228   -9.4017  -15.5219 C   0  0  0  0  0  0  0  0  0  0  0  0
   19.6410   -8.8635  -13.9485 C   0  0  2  0  0  0  0  0  0  0  0  0
   18.8146   -9.9333  -14.4427 N   0  0  0  0  0  0  0  0  0  0  0  0
   19.3099   -7.6075  -14.6631 C   0  0  0  0  0  0  0  0  0  0  0  0
   18.8551   -7.6652  -15.8267 O   0  0  0  0  0  0  0  0  0  0  0  0
   19.4800   -6.3576  -14.1027 O   0  0  0  0  0  0  0  0  0  0  0  0
  2  1  1  6
  2  3  1  0
  4  2  1  0
  4  5  1  1
  6  4  1  0
  6 12  1  0
  7  6  2  0
  9  8  1  1
  9 11  1  0
 10  9  1  0
 11 12  1  1
 11 13  1  0
 13 19  1  0
 13 14  2  0
 16 15  1  6
 17 16  1  0
 18 16  1  0
 18 20  1  0
 18 19  1  6
 20 22  1  0
 21 20  2  0
M  END
$$$$
