TTV.pdb
     RDKit          3D

 22 21  0  0  1  0  0  0  0  0999 V2000
   15.6851   -9.9954  -15.4601 C   0  0  0  0  0  0  0  0  0  0  0  0
   16.0618  -11.4346  -15.6889 C   0  0  1  0  0  0  0  0  0  0  0  0
   14.9423  -12.2312  -15.9200 O   0  0  0  0  0  0  0  0  0  0  0  0
   17.0739  -11.5507  -16.7948 C   0  0  2  0  0  0  0  0  0  0  0  0
   17.2968  -12.9453  -17.0882 N   0  0  0  0  0  0  0  0  0  0  0  0
   18.3265  -10.8191  -16.5168 C   0  0  0  0  0  0  0  0  0  0  0  0
   19.2344  -11.3936  -15.8955 O   0  0  0  0  0  0  0  0  0  0  0  0
   20.6636   -9.1823  -19.0636 C   0  0  0  0  0  0  0  0  0  0  0  0
   20.3110   -8.1538  -18.0226 C   0  0  1  0  0  0  0  0  0  0  0  0
   19.4253   -7.2030  -18.5258 O   0  0  0  0  0  0  0  0  0  0  0  0
   19.7766   -8.7693  -16.7507 C   0  0  2  0  0  0  0  0  0  0  0  0
   18.5486   -9.4699  -16.9307 N   0  0  0  0  0  0  0  0  0  0  0  0
   19.7460   -7.7660  -15.6713 C   0  0  0  0  0  0  0  0  0  0  0  0
   18.6686   -7.1457  -15.4875 O   0  0  0  0  0  0  0  0  0  0  0  0
   22.8714   -7.2673  -12.8112 C   0  0  0  0  0  0  0  0  0  0  0  0
   21.4286   -6.9393  -12.4864 C   0  0  2  0  0  0  0  0  0  0  0  0
   20.7931   -8.1611  -11.9102 C   0  0  0  0  0  0  0  0  0  0  0  0
   20.7740   -6.4648  -13.7619 C   0  0  2  0  0  0  0  0  0  0  0  0
   20.8335   -7.4399  -14.8190 N   0  0  0  0  0  0  0  0  0  0  0  0
   21.4376   -5.2138  -14.2003 C   0  0  0  0  0  0  0  0  0  0  0  0
   21.2985   -4.1742  -13.5192 O   0  0  0  0  0  0  0  0  0  0  0  0
   22.2135   -5.1348  -15.3392 O   0  0  0  0  0  0  0  0  0  0  0  0
  2  1  1  6
  2  3  1  0
  4  2  1  0
  4  5  1  1
  6  4  1  0
  6 12  1  0
  7  6  2  0
  9  8  1  6
  9 11  1  0
 10  9  1  0
 11 12  1  6
 11 13  1  0
 13 19  1  0
 13 14  2  0
 16 15  1  6
 17 16  1  0
 18 16  1  0
 18 20  1  0
 18 19  1  6
 20 22  1  0
 21 20  2  0
M  END
$$$$
