TTV.pdb
     RDKit          3D

 22 21  0  0  1  0  0  0  0  0999 V2000
   14.6453   -5.7260   -7.6982 C   0  0  0  0  0  0  0  0  0  0  0  0
   15.7280   -6.1414   -8.6578 C   0  0  1  0  0  0  0  0  0  0  0  0
   16.9122   -6.4572   -7.9954 O   0  0  0  0  0  0  0  0  0  0  0  0
   15.2570   -7.2665   -9.5372 C   0  0  2  0  0  0  0  0  0  0  0  0
   14.8998   -8.3946   -8.7122 N   0  0  0  0  0  0  0  0  0  0  0  0
   16.2217   -7.6188  -10.5986 C   0  0  0  0  0  0  0  0  0  0  0  0
   16.6324   -8.7875  -10.6756 O   0  0  0  0  0  0  0  0  0  0  0  0
   15.5929   -7.2341  -14.3300 C   0  0  0  0  0  0  0  0  0  0  0  0
   16.8868   -6.5410  -13.9968 C   0  0  1  0  0  0  0  0  0  0  0  0
   16.7370   -5.1556  -13.9969 O   0  0  0  0  0  0  0  0  0  0  0  0
   17.4874   -7.0187  -12.6955 C   0  0  2  0  0  0  0  0  0  0  0  0
   16.7115   -6.6733  -11.5510 N   0  0  0  0  0  0  0  0  0  0  0  0
   18.9029   -6.6171  -12.6083 C   0  0  0  0  0  0  0  0  0  0  0  0
   19.2007   -5.7213  -11.7787 O   0  0  0  0  0  0  0  0  0  0  0  0
   21.9835   -7.9817  -15.2698 C   0  0  0  0  0  0  0  0  0  0  0  0
   22.2921   -7.8260  -13.7950 C   0  0  2  0  0  0  0  0  0  0  0  0
   22.1525   -9.1639  -13.1476 C   0  0  0  0  0  0  0  0  0  0  0  0
   21.3453   -6.7877  -13.2416 C   0  0  2  0  0  0  0  0  0  0  0  0
   19.9617   -7.1579  -13.3840 N   0  0  0  0  0  0  0  0  0  0  0  0
   21.5909   -5.5015  -13.9366 C   0  0  0  0  0  0  0  0  0  0  0  0
   20.7543   -5.0832  -14.7668 O   0  0  0  0  0  0  0  0  0  0  0  0
   22.7124   -4.7289  -13.7121 O   0  0  0  0  0  0  0  0  0  0  0  0
  2  1  1  1
  2  3  1  0
  4  2  1  0
  4  5  1  1
  6  4  1  0
  6 12  1  0
  7  6  2  0
  9  8  1  1
  9 11  1  0
 10  9  1  0
 11 12  1  1
 11 13  1  0
 13 19  1  0
 13 14  2  0
 16 15  1  6
 17 16  1  0
 18 16  1  0
 18 20  1  0
 18 19  1  6
 20 22  1  0
 21 20  2  0
M  END
$$$$
