TTV.pdb
     RDKit          3D

 22 21  0  0  1  0  0  0  0  0999 V2000
   17.8323   -9.8736  -17.3716 C   0  0  0  0  0  0  0  0  0  0  0  0
   18.0226  -11.3452  -17.1196 C   0  0  1  0  0  0  0  0  0  0  0  0
   17.3172  -12.1218  -18.0364 O   0  0  0  0  0  0  0  0  0  0  0  0
   19.4845  -11.6958  -17.0912 C   0  0  2  0  0  0  0  0  0  0  0  0
   19.6261  -13.1280  -16.9933 N   0  0  0  0  0  0  0  0  0  0  0  0
   20.2356  -10.9755  -16.0432 C   0  0  0  0  0  0  0  0  0  0  0  0
   20.0146  -11.2433  -14.8517 O   0  0  0  0  0  0  0  0  0  0  0  0
   23.7499  -10.7779  -14.8639 C   0  0  0  0  0  0  0  0  0  0  0  0
   23.3648   -9.3908  -15.3037 C   0  0  1  0  0  0  0  0  0  0  0  0
   23.9462   -9.0651  -16.5275 O   0  0  0  0  0  0  0  0  0  0  0  0
   21.8688   -9.1852  -15.3453 C   0  0  2  0  0  0  0  0  0  0  0  0
   21.2137   -9.9756  -16.3339 N   0  0  0  0  0  0  0  0  0  0  0  0
   21.5525   -7.7473  -15.4159 C   0  0  0  0  0  0  0  0  0  0  0  0
   21.4325   -7.2360  -16.5576 O   0  0  0  0  0  0  0  0  0  0  0  0
   18.7423   -5.6939  -14.7228 C   0  0  0  0  0  0  0  0  0  0  0  0
   19.8023   -5.0482  -13.8544 C   0  0  2  0  0  0  0  0  0  0  0  0
   19.5867   -3.5713  -13.8793 C   0  0  0  0  0  0  0  0  0  0  0  0
   21.1483   -5.4693  -14.3946 C   0  0  2  0  0  0  0  0  0  0  0  0
   21.3713   -6.8882  -14.3004 N   0  0  0  0  0  0  0  0  0  0  0  0
   22.2070   -4.7481  -13.6486 C   0  0  0  0  0  0  0  0  0  0  0  0
   22.7495   -5.2997  -12.6659 O   0  0  0  0  0  0  0  0  0  0  0  0
   22.6324   -3.4793  -13.9869 O   0  0  0  0  0  0  0  0  0  0  0  0
  2  1  1  6
  2  3  1  0
  4  2  1  0
  4  5  1  1
  6  4  1  0
  6 12  1  0
  7  6  2  0
  9  8  1  6
  9 11  1  0
 10  9  1  0
 11 12  1  6
 11 13  1  0
 13 19  1  0
 13 14  2  0
 16 15  1  6
 17 16  1  0
 18 16  1  0
 18 20  1  0
 18 19  1  1
 20 22  1  0
 21 20  2  0
M  END
$$$$
