TTV.pdb
     RDKit          3D

 22 21  0  0  1  0  0  0  0  0999 V2000
   17.6943   -8.3014  -19.1374 C   0  0  0  0  0  0  0  0  0  0  0  0
   17.2156   -9.7145  -18.9383 C   0  0  1  0  0  0  0  0  0  0  0  0
   16.7091  -10.2592  -20.1163 O   0  0  0  0  0  0  0  0  0  0  0  0
   18.3036  -10.5666  -18.3457 C   0  0  2  0  0  0  0  0  0  0  0  0
   17.8197  -11.9175  -18.1987 N   0  0  0  0  0  0  0  0  0  0  0  0
   18.8538  -10.0180  -17.0896 C   0  0  0  0  0  0  0  0  0  0  0  0
   18.1515  -10.0347  -16.0664 O   0  0  0  0  0  0  0  0  0  0  0  0
   22.8508  -10.2417  -16.1572 C   0  0  0  0  0  0  0  0  0  0  0  0
   21.7763   -9.8517  -15.1779 C   0  0  1  0  0  0  0  0  0  0  0  0
   22.3183   -9.2804  -14.0284 O   0  0  0  0  0  0  0  0  0  0  0  0
   20.7300   -8.9485  -15.7875 C   0  0  2  0  0  0  0  0  0  0  0  0
   20.1665   -9.4632  -16.9913 N   0  0  0  0  0  0  0  0  0  0  0  0
   21.2470   -7.5731  -15.9034 C   0  0  0  0  0  0  0  0  0  0  0  0
   21.9764   -7.3100  -16.8924 O   0  0  0  0  0  0  0  0  0  0  0  0
   19.3391   -4.2460  -14.5500 C   0  0  0  0  0  0  0  0  0  0  0  0
   20.4747   -4.1791  -15.5503 C   0  0  2  0  0  0  0  0  0  0  0  0
   19.9142   -4.4474  -16.9076 C   0  0  0  0  0  0  0  0  0  0  0  0
   21.5169   -5.1838  -15.1199 C   0  0  2  0  0  0  0  0  0  0  0  0
   20.9903   -6.5171  -14.9901 N   0  0  0  0  0  0  0  0  0  0  0  0
   22.0924   -4.7473  -13.8254 C   0  0  0  0  0  0  0  0  0  0  0  0
   21.7972   -5.3698  -12.7816 O   0  0  0  0  0  0  0  0  0  0  0  0
   22.9507   -3.6725  -13.7095 O   0  0  0  0  0  0  0  0  0  0  0  0
  2  1  1  6
  2  3  1  0
  4  2  1  0
  4  5  1  1
  6  4  1  0
  6 12  1  0
  7  6  2  0
  9  8  1  6
  9 11  1  0
 10  9  1  0
 11 12  1  6
 11 13  1  0
 13 19  1  0
 13 14  2  0
 16 15  1  1
 17 16  1  0
 18 16  1  0
 18 20  1  0
 18 19  1  1
 20 22  1  0
 21 20  2  0
M  END
$$$$
