TTV.pdb
     RDKit          3D

 22 21  0  0  1  0  0  0  0  0999 V2000
   20.8713  -15.5353  -15.1543 C   0  0  0  0  0  0  0  0  0  0  0  0
   21.0054  -16.3982  -16.3802 C   0  0  1  0  0  0  0  0  0  0  0  0
   20.2656  -17.5735  -16.2681 O   0  0  0  0  0  0  0  0  0  0  0  0
   20.6482  -15.6235  -17.6183 C   0  0  2  0  0  0  0  0  0  0  0  0
   20.7088  -16.5022  -18.7607 N   0  0  0  0  0  0  0  0  0  0  0  0
   21.4592  -14.4018  -17.7949 C   0  0  0  0  0  0  0  0  0  0  0  0
   22.6468  -14.5116  -18.1385 O   0  0  0  0  0  0  0  0  0  0  0  0
   20.9081  -11.5335  -20.1760 C   0  0  0  0  0  0  0  0  0  0  0  0
   21.0222  -10.9487  -18.7937 C   0  0  1  0  0  0  0  0  0  0  0  0
   19.7840  -10.5220  -18.3177 O   0  0  0  0  0  0  0  0  0  0  0  0
   21.6820  -11.8900  -17.8136 C   0  0  2  0  0  0  0  0  0  0  0  0
   20.9413  -13.0866  -17.5883 N   0  0  0  0  0  0  0  0  0  0  0  0
   22.0520  -11.1687  -16.5825 C   0  0  0  0  0  0  0  0  0  0  0  0
   21.2605  -11.2407  -15.6091 O   0  0  0  0  0  0  0  0  0  0  0  0
   25.7648   -9.1238  -16.0829 C   0  0  0  0  0  0  0  0  0  0  0  0
   25.0582   -9.7422  -14.8942 C   0  0  2  0  0  0  0  0  0  0  0  0
   25.6000  -11.1191  -14.6967 C   0  0  0  0  0  0  0  0  0  0  0  0
   23.5762   -9.7143  -15.1837 C   0  0  2  0  0  0  0  0  0  0  0  0
   23.2301  -10.3974  -16.4024 N   0  0  0  0  0  0  0  0  0  0  0  0
   23.1333   -8.3017  -15.2614 C   0  0  0  0  0  0  0  0  0  0  0  0
   23.1054   -7.6092  -14.2204 O   0  0  0  0  0  0  0  0  0  0  0  0
   22.7437   -7.7008  -16.4414 O   0  0  0  0  0  0  0  0  0  0  0  0
  2  1  1  1
  2  3  1  0
  4  2  1  0
  4  5  1  6
  6  4  1  0
  6 12  1  0
  7  6  2  0
  9  8  1  6
  9 11  1  0
 10  9  1  0
 11 12  1  1
 11 13  1  0
 13 19  1  0
 13 14  2  0
 16 15  1  6
 17 16  1  0
 18 16  1  0
 18 20  1  0
 18 19  1  6
 20 22  1  0
 21 20  2  0
M  END
$$$$
