TTV.pdb
     RDKit          3D

 22 21  0  0  1  0  0  0  0  0999 V2000
   24.5737  -11.6075  -15.8482 C   0  0  0  0  0  0  0  0  0  0  0  0
   23.9933  -12.4768  -16.9312 C   0  0  1  0  0  0  0  0  0  0  0  0
   24.4032  -13.8024  -16.8049 O   0  0  0  0  0  0  0  0  0  0  0  0
   22.4953  -12.3514  -16.9690 C   0  0  2  0  0  0  0  0  0  0  0  0
   21.9637  -13.3075  -17.9092 N   0  0  0  0  0  0  0  0  0  0  0  0
   22.0329  -10.9738  -17.2333 C   0  0  0  0  0  0  0  0  0  0  0  0
   22.2051  -10.4867  -18.3617 O   0  0  0  0  0  0  0  0  0  0  0  0
   18.7421   -9.3927  -17.5039 C   0  0  0  0  0  0  0  0  0  0  0  0
   19.4579   -8.6585  -16.4019 C   0  0  1  0  0  0  0  0  0  0  0  0
   18.9706   -9.0218  -15.1480 O   0  0  0  0  0  0  0  0  0  0  0  0
   20.9579   -8.8252  -16.4670 C   0  0  2  0  0  0  0  0  0  0  0  0
   21.3909  -10.1650  -16.2461 N   0  0  0  0  0  0  0  0  0  0  0  0
   21.6206   -7.8277  -15.6078 C   0  0  0  0  0  0  0  0  0  0  0  0
   22.1293   -8.2354  -14.5333 O   0  0  0  0  0  0  0  0  0  0  0  0
   22.8709   -4.0903  -17.0332 C   0  0  0  0  0  0  0  0  0  0  0  0
   23.5446   -4.7785  -15.8640 C   0  0  2  0  0  0  0  0  0  0  0  0
   24.6028   -5.6823  -16.4042 C   0  0  0  0  0  0  0  0  0  0  0  0
   22.4722   -5.5042  -15.0867 C   0  0  2  0  0  0  0  0  0  0  0  0
   21.7335   -6.4414  -15.8916 N   0  0  0  0  0  0  0  0  0  0  0  0
   21.5437   -4.5033  -14.5091 C   0  0  0  0  0  0  0  0  0  0  0  0
   21.9598   -3.7142  -13.6327 O   0  0  0  0  0  0  0  0  0  0  0  0
   20.2225   -4.3949  -14.8939 O   0  0  0  0  0  0  0  0  0  0  0  0
  2  1  1  1
  2  3  1  0
  4  2  1  0
  4  5  1  6
  6  4  1  0
  6 12  1  0
  7  6  2  0
  9  8  1  6
  9 11  1  0
 10  9  1  0
 11 12  1  1
 11 13  1  0
 13 19  1  0
 13 14  2  0
 16 15  1  6
 17 16  1  0
 18 16  1  0
 18 20  1  0
 18 19  1  6
 20 22  1  0
 21 20  2  0
M  END
$$$$
