TTV.pdb
     RDKit          3D

 22 21  0  0  1  0  0  0  0  0999 V2000
   17.6535  -12.1217  -18.5800 C   0  0  0  0  0  0  0  0  0  0  0  0
   17.7963  -13.5889  -18.2763 C   0  0  1  0  0  0  0  0  0  0  0  0
   17.2539  -14.3808  -19.2861 O   0  0  0  0  0  0  0  0  0  0  0  0
   19.2321  -13.9374  -17.9968 C   0  0  2  0  0  0  0  0  0  0  0  0
   19.3364  -15.3554  -17.7533 N   0  0  0  0  0  0  0  0  0  0  0  0
   19.8278  -13.1276  -16.9148 C   0  0  0  0  0  0  0  0  0  0  0  0
   19.5324  -13.3851  -15.7372 O   0  0  0  0  0  0  0  0  0  0  0  0
   23.4520  -10.8273  -17.2876 C   0  0  0  0  0  0  0  0  0  0  0  0
   22.7521  -11.2336  -16.0184 C   0  0  1  0  0  0  0  0  0  0  0  0
   23.1839  -10.4735  -14.9333 O   0  0  0  0  0  0  0  0  0  0  0  0
   21.2471  -11.1917  -16.1419 C   0  0  2  0  0  0  0  0  0  0  0  0
   20.7360  -12.0517  -17.1570 N   0  0  0  0  0  0  0  0  0  0  0  0
   20.7813   -9.7969  -16.2422 C   0  0  0  0  0  0  0  0  0  0  0  0
   20.9125   -9.2208  -17.3514 O   0  0  0  0  0  0  0  0  0  0  0  0
   17.4413   -8.3555  -15.7135 C   0  0  0  0  0  0  0  0  0  0  0  0
   18.3275   -7.4842  -14.8474 C   0  0  2  0  0  0  0  0  0  0  0  0
   17.8535   -6.0739  -14.9690 C   0  0  0  0  0  0  0  0  0  0  0  0
   19.7507   -7.6831  -15.3120 C   0  0  2  0  0  0  0  0  0  0  0  0
   20.1952   -9.0466  -15.1892 N   0  0  0  0  0  0  0  0  0  0  0  0
   20.6375   -6.7970  -14.5208 C   0  0  0  0  0  0  0  0  0  0  0  0
   20.6256   -5.5652  -14.7373 O   0  0  0  0  0  0  0  0  0  0  0  0
   21.4895   -7.2674  -13.5420 O   0  0  0  0  0  0  0  0  0  0  0  0
  2  1  1  6
  2  3  1  0
  4  2  1  0
  4  5  1  1
  6  4  1  0
  6 12  1  0
  7  6  2  0
  9  8  1  6
  9 11  1  0
 10  9  1  0
 11 12  1  6
 11 13  1  0
 13 19  1  0
 13 14  2  0
 16 15  1  6
 17 16  1  0
 18 16  1  0
 18 20  1  0
 18 19  1  1
 20 22  1  0
 21 20  2  0
M  END
$$$$
