TTV.pdb
     RDKit          3D

 22 21  0  0  1  0  0  0  0  0999 V2000
   16.5281   -9.3153  -15.7071 C   0  0  0  0  0  0  0  0  0  0  0  0
   16.8808  -10.7772  -15.6451 C   0  0  1  0  0  0  0  0  0  0  0  0
   15.7586  -11.5868  -15.8076 O   0  0  0  0  0  0  0  0  0  0  0  0
   17.9618  -11.1067  -16.6370 C   0  0  2  0  0  0  0  0  0  0  0  0
   18.1919  -12.5307  -16.6310 N   0  0  0  0  0  0  0  0  0  0  0  0
   19.1995  -10.3281  -16.4293 C   0  0  0  0  0  0  0  0  0  0  0  0
   20.0111  -10.7050  -15.5694 O   0  0  0  0  0  0  0  0  0  0  0  0
   22.4313   -6.8305  -17.8439 C   0  0  0  0  0  0  0  0  0  0  0  0
   21.2483   -7.7102  -18.1475 C   0  0  1  0  0  0  0  0  0  0  0  0
   21.5764   -8.7054  -19.0660 O   0  0  0  0  0  0  0  0  0  0  0  0
   20.6285   -8.3055  -16.9051 C   0  0  2  0  0  0  0  0  0  0  0  0
   19.5135   -9.1510  -17.1754 N   0  0  0  0  0  0  0  0  0  0  0  0
   20.3584   -7.2497  -15.9127 C   0  0  0  0  0  0  0  0  0  0  0  0
   19.3953   -6.4747  -16.1392 O   0  0  0  0  0  0  0  0  0  0  0  0
   21.9665   -7.1891  -11.9558 C   0  0  0  0  0  0  0  0  0  0  0  0
   20.6340   -6.5838  -12.3462 C   0  0  2  0  0  0  0  0  0  0  0  0
   19.5917   -7.6471  -12.2388 C   0  0  0  0  0  0  0  0  0  0  0  0
   20.7820   -6.0247  -13.7413 C   0  0  2  0  0  0  0  0  0  0  0  0
   21.0957   -7.0332  -14.7191 N   0  0  0  0  0  0  0  0  0  0  0  0
   21.8471   -4.9936  -13.7299 C   0  0  0  0  0  0  0  0  0  0  0  0
   22.9615   -5.2569  -14.2327 O   0  0  0  0  0  0  0  0  0  0  0  0
   21.6707   -3.7378  -13.1846 O   0  0  0  0  0  0  0  0  0  0  0  0
  2  1  1  6
  2  3  1  0
  4  2  1  0
  4  5  1  1
  6  4  1  0
  6 12  1  0
  7  6  2  0
  9  8  1  1
  9 11  1  0
 10  9  1  0
 11 12  1  6
 11 13  1  0
 13 19  1  0
 13 14  2  0
 16 15  1  6
 17 16  1  0
 18 16  1  0
 18 20  1  0
 18 19  1  6
 20 22  1  0
 21 20  2  0
M  END
$$$$
