TTV.pdb
     RDKit          3D

 22 21  0  0  1  0  0  0  0  0999 V2000
   28.3164  -18.1538  -15.6793 C   0  0  0  0  0  0  0  0  0  0  0  0
   27.8328  -17.8660  -17.0753 C   0  0  1  0  0  0  0  0  0  0  0  0
   28.8230  -17.2688  -17.8524 O   0  0  0  0  0  0  0  0  0  0  0  0
   27.2876  -19.1117  -17.7172 C   0  0  2  0  0  0  0  0  0  0  0  0
   26.8600  -18.8041  -19.0601 N   0  0  0  0  0  0  0  0  0  0  0  0
   26.2311  -19.7642  -16.9176 C   0  0  0  0  0  0  0  0  0  0  0  0
   25.1123  -19.2314  -16.8484 O   0  0  0  0  0  0  0  0  0  0  0  0
   24.0076  -23.6082  -14.9595 C   0  0  0  0  0  0  0  0  0  0  0  0
   24.8846  -22.8762  -15.9396 C   0  0  1  0  0  0  0  0  0  0  0  0
   24.2155  -22.6311  -17.1371 O   0  0  0  0  0  0  0  0  0  0  0  0
   25.4579  -21.5996  -15.3707 C   0  0  2  0  0  0  0  0  0  0  0  0
   26.4333  -20.9900  -16.2123 N   0  0  0  0  0  0  0  0  0  0  0  0
   25.9079  -21.8152  -13.9837 C   0  0  0  0  0  0  0  0  0  0  0  0
   26.8058  -22.6735  -13.7930 O   0  0  0  0  0  0  0  0  0  0  0  0
   25.4292  -19.0945  -10.7619 C   0  0  0  0  0  0  0  0  0  0  0  0
   26.4865  -20.1758  -10.8481 C   0  0  2  0  0  0  0  0  0  0  0  0
   27.6444  -19.6328  -11.6181 C   0  0  0  0  0  0  0  0  0  0  0  0
   25.8479  -21.3830  -11.4927 C   0  0  2  0  0  0  0  0  0  0  0  0
   25.4119  -21.1335  -12.8416 N   0  0  0  0  0  0  0  0  0  0  0  0
   24.6928  -21.8083  -10.6665 C   0  0  0  0  0  0  0  0  0  0  0  0
   24.8978  -22.3616   -9.5638 O   0  0  0  0  0  0  0  0  0  0  0  0
   23.3818  -21.6226  -11.0565 O   0  0  0  0  0  0  0  0  0  0  0  0
  2  1  1  1
  2  3  1  0
  4  2  1  0
  4  5  1  6
  6  4  1  0
  6 12  1  0
  7  6  2  0
  9  8  1  1
  9 11  1  0
 10  9  1  0
 11 12  1  6
 11 13  1  0
 13 19  1  0
 13 14  2  0
 16 15  1  6
 17 16  1  0
 18 16  1  0
 18 20  1  0
 18 19  1  6
 20 22  1  0
 21 20  2  0
M  END
$$$$
