TTV.pdb
     RDKit          3D

 22 21  0  0  1  0  0  0  0  0999 V2000
   18.9839  -14.0398  -17.6847 C   0  0  0  0  0  0  0  0  0  0  0  0
   18.7762  -12.5491  -17.6758 C   0  0  1  0  0  0  0  0  0  0  0  0
   17.5843  -12.1973  -17.0461 O   0  0  0  0  0  0  0  0  0  0  0  0
   19.9614  -11.8501  -17.0694 C   0  0  2  0  0  0  0  0  0  0  0  0
   20.2324  -12.4172  -15.7710 N   0  0  0  0  0  0  0  0  0  0  0  0
   19.8138  -10.3810  -17.0305 C   0  0  0  0  0  0  0  0  0  0  0  0
   19.8365   -9.7450  -18.0960 O   0  0  0  0  0  0  0  0  0  0  0  0
   16.9860   -8.2568  -16.3375 C   0  0  0  0  0  0  0  0  0  0  0  0
   18.0302   -7.8626  -15.3275 C   0  0  1  0  0  0  0  0  0  0  0  0
   17.7392   -8.3792  -14.0664 O   0  0  0  0  0  0  0  0  0  0  0  0
   19.4290   -8.2397  -15.7554 C   0  0  2  0  0  0  0  0  0  0  0  0
   19.6446   -9.6472  -15.8166 N   0  0  0  0  0  0  0  0  0  0  0  0
   20.4241   -7.5116  -14.9479 C   0  0  0  0  0  0  0  0  0  0  0  0
   20.8145   -8.0534  -13.8833 O   0  0  0  0  0  0  0  0  0  0  0  0
   22.7665   -4.4449  -16.5755 C   0  0  0  0  0  0  0  0  0  0  0  0
   23.2567   -5.3330  -15.4505 C   0  0  2  0  0  0  0  0  0  0  0  0
   23.8711   -6.5517  -16.0551 C   0  0  0  0  0  0  0  0  0  0  0  0
   22.0728   -5.6332  -14.5621 C   0  0  2  0  0  0  0  0  0  0  0  0
   20.9808   -6.2464  -15.2714 N   0  0  0  0  0  0  0  0  0  0  0  0
   21.6141   -4.3694  -13.9377 C   0  0  0  0  0  0  0  0  0  0  0  0
   20.5405   -3.8520  -14.3168 O   0  0  0  0  0  0  0  0  0  0  0  0
   22.3211   -3.7231  -12.9438 O   0  0  0  0  0  0  0  0  0  0  0  0
  2  1  1  1
  2  3  1  0
  4  2  1  0
  4  5  1  1
  6  4  1  0
  6 12  1  0
  7  6  2  0
  9  8  1  6
  9 11  1  0
 10  9  1  0
 11 12  1  1
 11 13  1  0
 13 19  1  0
 13 14  2  0
 16 15  1  6
 17 16  1  0
 18 16  1  0
 18 20  1  0
 18 19  1  6
 20 22  1  0
 21 20  2  0
M  END
$$$$
