TTV.pdb
     RDKit          3D

 22 21  0  0  1  0  0  0  0  0999 V2000
   19.0819  -10.1094  -19.0841 C   0  0  0  0  0  0  0  0  0  0  0  0
   19.0122  -11.5678  -18.7185 C   0  0  1  0  0  0  0  0  0  0  0  0
   18.6269  -12.3543  -19.8020 O   0  0  0  0  0  0  0  0  0  0  0  0
   20.3125  -12.0297  -18.1211 C   0  0  2  0  0  0  0  0  0  0  0  0
   20.2501  -13.4527  -17.8936 N   0  0  0  0  0  0  0  0  0  0  0  0
   20.6980  -11.2751  -16.9114 C   0  0  0  0  0  0  0  0  0  0  0  0
   20.0731  -11.4678  -15.8566 O   0  0  0  0  0  0  0  0  0  0  0  0
   23.3223  -11.4598  -14.5620 C   0  0  0  0  0  0  0  0  0  0  0  0
   23.4359  -10.0637  -15.1131 C   0  0  1  0  0  0  0  0  0  0  0  0
   24.5005   -9.9537  -16.0054 O   0  0  0  0  0  0  0  0  0  0  0  0
   22.1516   -9.5777  -15.7429 C   0  0  2  0  0  0  0  0  0  0  0  0
   21.7645  -10.3247  -16.8933 N   0  0  0  0  0  0  0  0  0  0  0  0
   22.2087   -8.1210  -15.9607 C   0  0  0  0  0  0  0  0  0  0  0  0
   22.6270   -7.7180  -17.0752 O   0  0  0  0  0  0  0  0  0  0  0  0
   19.5898   -5.4850  -14.3837 C   0  0  0  0  0  0  0  0  0  0  0  0
   20.4804   -5.1502  -15.5624 C   0  0  2  0  0  0  0  0  0  0  0  0
   19.8539   -5.7165  -16.7934 C   0  0  0  0  0  0  0  0  0  0  0  0
   21.8501   -5.7149  -15.2697 C   0  0  2  0  0  0  0  0  0  0  0  0
   21.8300   -7.1315  -15.0159 N   0  0  0  0  0  0  0  0  0  0  0  0
   22.4159   -5.0067  -14.0967 C   0  0  0  0  0  0  0  0  0  0  0  0
   22.5089   -5.6071  -13.0036 O   0  0  0  0  0  0  0  0  0  0  0  0
   22.8524   -3.6982  -14.1483 O   0  0  0  0  0  0  0  0  0  0  0  0
  2  1  1  6
  2  3  1  0
  4  2  1  0
  4  5  1  1
  6  4  1  0
  6 12  1  0
  7  6  2  0
  9  8  1  6
  9 11  1  0
 10  9  1  0
 11 12  1  6
 11 13  1  0
 13 19  1  0
 13 14  2  0
 16 15  1  1
 17 16  1  0
 18 16  1  0
 18 20  1  0
 18 19  1  1
 20 22  1  0
 21 20  2  0
M  END
$$$$
