VAF.pdb
     RDKit          3D

 24 24  0  0  1  0  0  0  0  0999 V2000
   29.7574  -21.8406  -18.5572 C   0  0  0  0  0  0  0  0  0  0  0  0
   28.8239  -20.9226  -17.7980 C   0  0  1  0  0  0  0  0  0  0  0  0
   27.5701  -20.7759  -18.5777 C   0  0  0  0  0  0  0  0  0  0  0  0
   28.6198  -21.3970  -16.3851 C   0  0  2  0  0  0  0  0  0  0  0  0
   28.1174  -22.7562  -16.4592 N   0  0  0  0  0  0  0  0  0  0  0  0
   27.7292  -20.5548  -15.5934 C   0  0  0  0  0  0  0  0  0  0  0  0
   28.1244  -19.4232  -15.2182 O   0  0  0  0  0  0  0  0  0  0  0  0
   24.5005  -19.4181  -15.1029 C   0  0  0  0  0  0  0  0  0  0  0  0
   25.6435  -20.0882  -14.3630 C   0  0  2  0  0  0  0  0  0  0  0  0
   26.4206  -20.9398  -15.2134 N   0  0  0  0  0  0  0  0  0  0  0  0
   25.0918  -20.7692  -13.1846 C   0  0  0  0  0  0  0  0  0  0  0  0
   24.9190  -22.0128  -13.2326 O   0  0  0  0  0  0  0  0  0  0  0  0
   24.7548  -20.0579  -12.0081 N   0  0  0  0  0  0  0  0  0  0  0  0
   24.2046  -20.6799  -10.8210 C   0  0  1  0  0  0  0  0  0  0  0  0
   24.5932  -19.8466   -9.6318 C   0  0  0  0  0  0  0  0  0  0  0  0
   25.9958  -20.0403   -9.2031 C   0  0  0  0  0  0  0  0  0  0  0  0
   26.6558  -21.1945   -9.5377 C   0  0  0  0  0  0  0  0  0  0  0  0
   27.9769  -21.4331   -9.1654 C   0  0  0  0  0  0  0  0  0  0  0  0
   28.6326  -20.4550   -8.4289 C   0  0  0  0  0  0  0  0  0  0  0  0
   27.9568  -19.3030   -8.1012 C   0  0  0  0  0  0  0  0  0  0  0  0
   26.6527  -19.0818   -8.4760 C   0  0  0  0  0  0  0  0  0  0  0  0
   22.7530  -20.8616  -10.9855 C   0  0  0  0  0  0  0  0  0  0  0  0
   22.0244  -21.8085  -10.2890 O   0  0  0  0  0  0  0  0  0  0  0  0
   22.0945  -20.1377  -11.7949 O   0  0  0  0  0  0  0  0  0  0  0  0
  2  1  1  6
  2  4  1  0
  2  3  1  0
  4  6  1  0
  4  5  1  6
  6  7  2  0
  9  8  1  6
  9 11  1  0
 10  6  1  0
 10  9  1  0
 11 12  2  0
 13 14  1  0
 13 11  1  0
 14 22  1  0
 14 15  1  1
 16 21  2  0
 16 15  1  0
 17 16  1  0
 18 19  1  0
 18 17  2  0
 19 20  2  0
 20 21  1  0
 22 24  2  0
 22 23  1  0
M  END
$$$$
