VAF.pdb
     RDKit          3D

 24 24  0  0  1  0  0  0  0  0999 V2000
   28.2599  -20.6390  -12.6450 C   0  0  0  0  0  0  0  0  0  0  0  0
   27.1800  -21.1564  -11.7194 C   0  0  1  0  0  0  0  0  0  0  0  0
   27.8199  -21.6307  -10.4676 C   0  0  0  0  0  0  0  0  0  0  0  0
   26.1010  -20.1294  -11.5098 C   0  0  2  0  0  0  0  0  0  0  0  0
   25.1055  -20.7272  -10.6398 N   0  0  0  0  0  0  0  0  0  0  0  0
   25.4906  -19.6420  -12.7424 C   0  0  0  0  0  0  0  0  0  0  0  0
   24.5886  -20.3208  -13.2928 O   0  0  0  0  0  0  0  0  0  0  0  0
   25.5439  -16.5957  -14.9709 C   0  0  0  0  0  0  0  0  0  0  0  0
   25.2071  -18.0230  -14.5809 C   0  0  2  0  0  0  0  0  0  0  0  0
   25.8580  -18.4273  -13.3705 N   0  0  0  0  0  0  0  0  0  0  0  0
   25.4941  -18.8931  -15.7288 C   0  0  0  0  0  0  0  0  0  0  0  0
   26.6581  -18.9032  -16.2017 O   0  0  0  0  0  0  0  0  0  0  0  0
   24.4941  -19.7120  -16.3059 N   0  0  0  0  0  0  0  0  0  0  0  0
   24.7503  -20.6758  -17.3567 C   0  0  1  0  0  0  0  0  0  0  0  0
   25.1188  -21.9837  -16.7140 C   0  0  0  0  0  0  0  0  0  0  0  0
   26.4887  -22.0066  -16.1560 C   0  0  0  0  0  0  0  0  0  0  0  0
   26.6698  -21.9874  -14.7971 C   0  0  0  0  0  0  0  0  0  0  0  0
   27.9342  -22.0100  -14.2126 C   0  0  0  0  0  0  0  0  0  0  0  0
   29.0393  -22.0534  -15.0529 C   0  0  0  0  0  0  0  0  0  0  0  0
   28.8409  -22.0721  -16.4136 C   0  0  0  0  0  0  0  0  0  0  0  0
   27.5865  -22.0495  -16.9758 C   0  0  0  0  0  0  0  0  0  0  0  0
   23.5865  -20.7486  -18.2554 C   0  0  0  0  0  0  0  0  0  0  0  0
   23.6261  -21.3533  -19.4985 O   0  0  0  0  0  0  0  0  0  0  0  0
   22.4707  -20.2458  -17.9165 O   0  0  0  0  0  0  0  0  0  0  0  0
  2  1  1  6
  2  4  1  0
  2  3  1  0
  4  6  1  0
  4  5  1  1
  6  7  2  0
  9  8  1  6
  9 11  1  0
 10  6  1  0
 10  9  1  0
 11 12  2  0
 13 14  1  0
 13 11  1  0
 14 22  1  0
 14 15  1  1
 16 21  2  0
 16 15  1  0
 17 16  1  0
 18 19  1  0
 18 17  2  0
 19 20  2  0
 20 21  1  0
 22 24  2  0
 22 23  1  0
M  END
$$$$
