VAF.pdb
     RDKit          3D

 24 24  0  0  1  0  0  0  0  0999 V2000
   25.5813  -24.4292  -17.3412 C   0  0  0  0  0  0  0  0  0  0  0  0
   25.7984  -23.1865  -16.5049 C   0  0  1  0  0  0  0  0  0  0  0  0
   24.6978  -22.2317  -16.7852 C   0  0  0  0  0  0  0  0  0  0  0  0
   25.9625  -23.5286  -15.0492 C   0  0  2  0  0  0  0  0  0  0  0  0
   24.8336  -24.3601  -14.6759 N   0  0  0  0  0  0  0  0  0  0  0  0
   26.0690  -22.3690  -14.1699 C   0  0  0  0  0  0  0  0  0  0  0  0
   27.0200  -21.5635  -14.3258 O   0  0  0  0  0  0  0  0  0  0  0  0
   24.0703  -20.0279  -12.3521 C   0  0  0  0  0  0  0  0  0  0  0  0
   25.3076  -20.9063  -12.3363 C   0  0  2  0  0  0  0  0  0  0  0  0
   25.1494  -22.0880  -13.1305 N   0  0  0  0  0  0  0  0  0  0  0  0
   25.6632  -21.1744  -10.9368 C   0  0  0  0  0  0  0  0  0  0  0  0
   25.2105  -22.2097  -10.3873 O   0  0  0  0  0  0  0  0  0  0  0  0
   26.4977  -20.2973  -10.2034 N   0  0  0  0  0  0  0  0  0  0  0  0
   26.8233  -20.4785   -8.8034 C   0  0  1  0  0  0  0  0  0  0  0  0
   27.9589  -19.5544   -8.4626 C   0  0  0  0  0  0  0  0  0  0  0  0
   28.3371  -19.5798   -7.0326 C   0  0  0  0  0  0  0  0  0  0  0  0
   29.1291  -20.5927   -6.5566 C   0  0  0  0  0  0  0  0  0  0  0  0
   29.5204  -20.6693   -5.2217 C   0  0  0  0  0  0  0  0  0  0  0  0
   29.0825  -19.6746   -4.3568 C   0  0  0  0  0  0  0  0  0  0  0  0
   28.2886  -18.6656   -4.8496 C   0  0  0  0  0  0  0  0  0  0  0  0
   27.9107  -18.6036   -6.1700 C   0  0  0  0  0  0  0  0  0  0  0  0
   25.6154  -20.2819   -7.9852 C   0  0  0  0  0  0  0  0  0  0  0  0
   25.3329  -21.0331   -6.8589 O   0  0  0  0  0  0  0  0  0  0  0  0
   24.7620  -19.3919   -8.2888 O   0  0  0  0  0  0  0  0  0  0  0  0
  2  1  1  6
  2  4  1  0
  2  3  1  0
  4  6  1  0
  4  5  1  1
  6  7  2  0
  9  8  1  1
  9 11  1  0
 10  6  1  0
 10  9  1  0
 11 12  2  0
 13 14  1  0
 13 11  1  0
 14 22  1  0
 14 15  1  1
 16 21  2  0
 16 15  1  0
 17 16  1  0
 18 19  1  0
 18 17  2  0
 19 20  2  0
 20 21  1  0
 22 24  2  0
 22 23  1  0
M  END
$$$$
