VAF.pdb
     RDKit          3D

 24 24  0  0  1  0  0  0  0  0999 V2000
   25.4835  -21.2690  -18.6287 C   0  0  0  0  0  0  0  0  0  0  0  0
   26.4629  -20.1466  -18.3611 C   0  0  1  0  0  0  0  0  0  0  0  0
   25.7549  -18.8534  -18.5289 C   0  0  0  0  0  0  0  0  0  0  0  0
   27.1344  -20.3134  -17.0254 C   0  0  2  0  0  0  0  0  0  0  0  0
   28.1051  -21.3827  -17.1659 N   0  0  0  0  0  0  0  0  0  0  0  0
   26.2169  -20.5839  -15.9235 C   0  0  0  0  0  0  0  0  0  0  0  0
   25.3254  -19.7443  -15.6446 O   0  0  0  0  0  0  0  0  0  0  0  0
   24.5211  -23.2307  -14.2439 C   0  0  0  0  0  0  0  0  0  0  0  0
   25.3183  -21.9502  -14.0777 C   0  0  2  0  0  0  0  0  0  0  0  0
   26.2685  -21.7569  -15.1321 N   0  0  0  0  0  0  0  0  0  0  0  0
   25.9129  -21.9500  -12.7348 C   0  0  0  0  0  0  0  0  0  0  0  0
   26.9286  -22.6593  -12.5248 O   0  0  0  0  0  0  0  0  0  0  0  0
   25.3687  -21.1735  -11.6838 N   0  0  0  0  0  0  0  0  0  0  0  0
   25.8683  -21.1961  -10.3242 C   0  0  1  0  0  0  0  0  0  0  0  0
   27.0182  -20.2324  -10.2309 C   0  0  0  0  0  0  0  0  0  0  0  0
   27.5165  -20.0334   -8.8522 C   0  0  0  0  0  0  0  0  0  0  0  0
   28.4575  -20.8885   -8.3393 C   0  0  0  0  0  0  0  0  0  0  0  0
   28.9667  -20.7509   -7.0499 C   0  0  0  0  0  0  0  0  0  0  0  0
   28.4919  -19.7037   -6.2707 C   0  0  0  0  0  0  0  0  0  0  0  0
   27.5481  -18.8548   -6.7996 C   0  0  0  0  0  0  0  0  0  0  0  0
   27.0551  -19.0035   -8.0743 C   0  0  0  0  0  0  0  0  0  0  0  0
   24.7669  -20.9179   -9.3879 C   0  0  0  0  0  0  0  0  0  0  0  0
   24.7180  -21.4274   -8.1031 O   0  0  0  0  0  0  0  0  0  0  0  0
   23.7920  -20.1802   -9.7313 O   0  0  0  0  0  0  0  0  0  0  0  0
  2  1  1  1
  2  4  1  0
  2  3  1  0
  4  6  1  0
  4  5  1  6
  6  7  2  0
  9  8  1  6
  9 11  1  0
 10  6  1  0
 10  9  1  0
 11 12  2  0
 13 14  1  0
 13 11  1  0
 14 22  1  0
 14 15  1  6
 16 21  2  0
 16 15  1  0
 17 16  1  0
 18 19  1  0
 18 17  2  0
 19 20  2  0
 20 21  1  0
 22 24  2  0
 22 23  1  0
M  END
$$$$
