VAF.pdb
     RDKit          3D

 24 24  0  0  1  0  0  0  0  0999 V2000
   29.2250  -31.2992  -17.4282 C   0  0  0  0  0  0  0  0  0  0  0  0
   29.2088  -32.3976  -16.3871 C   0  0  1  0  0  0  0  0  0  0  0  0
   28.8154  -31.8062  -15.0844 C   0  0  0  0  0  0  0  0  0  0  0  0
   28.3505  -33.5531  -16.8243 C   0  0  2  0  0  0  0  0  0  0  0  0
   28.7988  -33.9411  -18.1487 N   0  0  0  0  0  0  0  0  0  0  0  0
   26.9189  -33.2707  -16.8207 C   0  0  0  0  0  0  0  0  0  0  0  0
   26.3875  -32.7714  -17.8433 O   0  0  0  0  0  0  0  0  0  0  0  0
   23.8323  -34.1155  -14.9089 C   0  0  0  0  0  0  0  0  0  0  0  0
   24.6769  -33.2187  -15.7951 C   0  0  2  0  0  0  0  0  0  0  0  0
   26.0731  -33.5292  -15.7150 N   0  0  0  0  0  0  0  0  0  0  0  0
   24.3595  -31.8218  -15.4712 C   0  0  0  0  0  0  0  0  0  0  0  0
   24.9243  -31.2884  -14.4838 O   0  0  0  0  0  0  0  0  0  0  0  0
   23.4388  -31.0733  -16.2430 N   0  0  0  0  0  0  0  0  0  0  0  0
   23.0668  -29.7045  -15.9483 C   0  0  1  0  0  0  0  0  0  0  0  0
   23.6389  -28.8214  -17.0218 C   0  0  0  0  0  0  0  0  0  0  0  0
   25.0966  -28.6022  -16.8969 C   0  0  0  0  0  0  0  0  0  0  0  0
   25.5635  -27.4795  -16.2636 C   0  0  0  0  0  0  0  0  0  0  0  0
   26.9238  -27.2193  -16.1127 C   0  0  0  0  0  0  0  0  0  0  0  0
   27.8244  -28.1421  -16.6291 C   0  0  0  0  0  0  0  0  0  0  0  0
   27.3402  -29.2631  -17.2617 C   0  0  0  0  0  0  0  0  0  0  0  0
   25.9944  -29.5061  -17.4028 C   0  0  0  0  0  0  0  0  0  0  0  0
   21.6052  -29.6101  -15.8007 C   0  0  0  0  0  0  0  0  0  0  0  0
   20.9608  -28.4697  -15.3570 O   0  0  0  0  0  0  0  0  0  0  0  0
   20.8580  -30.5976  -16.0818 O   0  0  0  0  0  0  0  0  0  0  0  0
  2  1  1  6
  2  4  1  0
  2  3  1  0
  4  6  1  0
  4  5  1  6
  6  7  2  0
  9  8  1  1
  9 11  1  0
 10  6  1  0
 10  9  1  0
 11 12  2  0
 13 14  1  0
 13 11  1  0
 14 22  1  0
 14 15  1  6
 16 21  2  0
 16 15  1  0
 17 16  1  0
 18 19  1  0
 18 17  2  0
 19 20  2  0
 20 21  1  0
 22 24  2  0
 22 23  1  0
M  END
$$$$
