VAF.pdb
     RDKit          3D

 24 24  0  0  1  0  0  0  0  0999 V2000
   33.4105  -30.2163  -22.6819 C   0  0  0  0  0  0  0  0  0  0  0  0
   33.0519  -30.1598  -21.2126 C   0  0  1  0  0  0  0  0  0  0  0  0
   33.5704  -28.8887  -20.6496 C   0  0  0  0  0  0  0  0  0  0  0  0
   31.5778  -30.3724  -21.0007 C   0  0  2  0  0  0  0  0  0  0  0  0
   30.8829  -29.4310  -21.8587 N   0  0  0  0  0  0  0  0  0  0  0  0
   31.1456  -30.2310  -19.6142 C   0  0  0  0  0  0  0  0  0  0  0  0
   31.5536  -31.0517  -18.7555 O   0  0  0  0  0  0  0  0  0  0  0  0
   29.4926  -27.7272  -17.3738 C   0  0  0  0  0  0  0  0  0  0  0  0
   29.9245  -29.1241  -17.7797 C   0  0  2  0  0  0  0  0  0  0  0  0
   30.2776  -29.2061  -19.1657 N   0  0  0  0  0  0  0  0  0  0  0  0
   28.8715  -30.0658  -17.3783 C   0  0  0  0  0  0  0  0  0  0  0  0
   27.9554  -30.3307  -18.1965 O   0  0  0  0  0  0  0  0  0  0  0  0
   28.8696  -30.6741  -16.1002 N   0  0  0  0  0  0  0  0  0  0  0  0
   27.9237  -31.6940  -15.6955 C   0  0  1  0  0  0  0  0  0  0  0  0
   28.0158  -32.8333  -16.6718 C   0  0  0  0  0  0  0  0  0  0  0  0
   27.1909  -34.0035  -16.2993 C   0  0  0  0  0  0  0  0  0  0  0  0
   25.8553  -34.0200  -16.6086 C   0  0  0  0  0  0  0  0  0  0  0  0
   25.0282  -35.0938  -16.2864 C   0  0  0  0  0  0  0  0  0  0  0  0
   25.5950  -36.1777  -15.6283 C   0  0  0  0  0  0  0  0  0  0  0  0
   26.9360  -36.1458  -15.3251 C   0  0  0  0  0  0  0  0  0  0  0  0
   27.7396  -35.0786  -15.6497 C   0  0  0  0  0  0  0  0  0  0  0  0
   28.1748  -32.0738  -14.2955 C   0  0  0  0  0  0  0  0  0  0  0  0
   27.1645  -32.3591  -13.3952 O   0  0  0  0  0  0  0  0  0  0  0  0
   29.3598  -32.1565  -13.8466 O   0  0  0  0  0  0  0  0  0  0  0  0
  2  1  1  6
  2  4  1  0
  2  3  1  0
  4  6  1  0
  4  5  1  6
  6  7  2  0
  9  8  1  6
  9 11  1  0
 10  6  1  0
 10  9  1  0
 11 12  2  0
 13 14  1  0
 13 11  1  0
 14 22  1  0
 14 15  1  6
 16 21  2  0
 16 15  1  0
 17 16  1  0
 18 19  1  0
 18 17  2  0
 19 20  2  0
 20 21  1  0
 22 24  2  0
 22 23  1  0
M  END
$$$$
