VAF.pdb
     RDKit          3D

 24 24  0  0  1  0  0  0  0  0999 V2000
   26.5549  -23.0018  -22.5494 C   0  0  0  0  0  0  0  0  0  0  0  0
   25.1057  -22.5865  -22.4151 C   0  0  1  0  0  0  0  0  0  0  0  0
   24.2504  -23.7719  -22.6696 C   0  0  0  0  0  0  0  0  0  0  0  0
   24.8497  -21.9131  -21.0945 C   0  0  2  0  0  0  0  0  0  0  0  0
   25.6278  -22.6219  -20.0957 N   0  0  0  0  0  0  0  0  0  0  0  0
   23.4420  -21.8560  -20.7144 C   0  0  0  0  0  0  0  0  0  0  0  0
   22.6608  -21.1114  -21.3568 O   0  0  0  0  0  0  0  0  0  0  0  0
   20.8627  -23.9217  -19.2375 C   0  0  0  0  0  0  0  0  0  0  0  0
   21.4814  -22.5441  -19.3862 C   0  0  2  0  0  0  0  0  0  0  0  0
   22.8892  -22.6020  -19.6454 N   0  0  0  0  0  0  0  0  0  0  0  0
   21.1277  -21.7510  -18.2018 C   0  0  0  0  0  0  0  0  0  0  0  0
   21.9785  -21.6220  -17.2862 O   0  0  0  0  0  0  0  0  0  0  0  0
   19.8594  -21.1356  -18.0742 N   0  0  0  0  0  0  0  0  0  0  0  0
   19.5058  -20.2366  -16.9945 C   0  0  1  0  0  0  0  0  0  0  0  0
   20.1903  -18.9204  -17.2367 C   0  0  0  0  0  0  0  0  0  0  0  0
   19.7899  -18.2662  -18.5017 C   0  0  0  0  0  0  0  0  0  0  0  0
   20.6122  -18.3416  -19.5962 C   0  0  0  0  0  0  0  0  0  0  0  0
   20.2887  -17.7487  -20.8147 C   0  0  0  0  0  0  0  0  0  0  0  0
   19.0856  -17.0605  -20.9048 C   0  0  0  0  0  0  0  0  0  0  0  0
   18.2719  -16.9940  -19.7981 C   0  0  0  0  0  0  0  0  0  0  0  0
   18.6049  -17.5844  -18.6021 C   0  0  0  0  0  0  0  0  0  0  0  0
   18.0405  -20.1467  -16.8857 C   0  0  0  0  0  0  0  0  0  0  0  0
   17.1758  -20.7717  -17.7657 O   0  0  0  0  0  0  0  0  0  0  0  0
   17.4974  -19.4739  -15.9556 O   0  0  0  0  0  0  0  0  0  0  0  0
  2  1  1  1
  2  4  1  0
  2  3  1  0
  4  6  1  0
  4  5  1  1
  6  7  2  0
  9  8  1  1
  9 11  1  0
 10  6  1  0
 10  9  1  0
 11 12  2  0
 13 14  1  0
 13 11  1  0
 14 22  1  0
 14 15  1  6
 16 21  2  0
 16 15  1  0
 17 16  1  0
 18 19  1  0
 18 17  2  0
 19 20  2  0
 20 21  1  0
 22 24  2  0
 22 23  1  0
M  END
$$$$
