VAF.pdb
     RDKit          3D

 24 24  0  0  1  0  0  0  0  0999 V2000
   23.7290  -18.2162  -18.7541 C   0  0  0  0  0  0  0  0  0  0  0  0
   23.8718  -17.9284  -17.2751 C   0  0  1  0  0  0  0  0  0  0  0  0
   22.5788  -17.4041  -16.7702 C   0  0  0  0  0  0  0  0  0  0  0  0
   24.3824  -19.1317  -16.5305 C   0  0  2  0  0  0  0  0  0  0  0  0
   23.6241  -20.2769  -16.9982 N   0  0  0  0  0  0  0  0  0  0  0  0
   24.3060  -19.0140  -15.0780 C   0  0  0  0  0  0  0  0  0  0  0  0
   25.0386  -18.1813  -14.4886 O   0  0  0  0  0  0  0  0  0  0  0  0
   22.0691  -19.7457  -12.2416 C   0  0  0  0  0  0  0  0  0  0  0  0
   23.4554  -19.6410  -12.8498 C   0  0  2  0  0  0  0  0  0  0  0  0
   23.4406  -19.7948  -14.2741 N   0  0  0  0  0  0  0  0  0  0  0  0
   24.3339  -20.5936  -12.1587 C   0  0  0  0  0  0  0  0  0  0  0  0
   24.4517  -21.7539  -12.6261 O   0  0  0  0  0  0  0  0  0  0  0  0
   25.0428  -20.2324  -10.9880 N   0  0  0  0  0  0  0  0  0  0  0  0
   25.8624  -21.1531  -10.2269 C   0  0  1  0  0  0  0  0  0  0  0  0
   27.2491  -20.5803  -10.1343 C   0  0  0  0  0  0  0  0  0  0  0  0
   27.5302  -19.9092   -8.8462 C   0  0  0  0  0  0  0  0  0  0  0  0
   26.8357  -18.7780   -8.5031 C   0  0  0  0  0  0  0  0  0  0  0  0
   27.0537  -18.1037   -7.3036 C   0  0  0  0  0  0  0  0  0  0  0  0
   28.0134  -18.6107   -6.4368 C   0  0  0  0  0  0  0  0  0  0  0  0
   28.7014  -19.7461   -6.7955 C   0  0  0  0  0  0  0  0  0  0  0  0
   28.4750  -20.4006   -7.9831 C   0  0  0  0  0  0  0  0  0  0  0  0
   25.2286  -21.4195   -8.9252 C   0  0  0  0  0  0  0  0  0  0  0  0
   25.6716  -22.3969   -8.0528 O   0  0  0  0  0  0  0  0  0  0  0  0
   24.2232  -20.7453   -8.5413 O   0  0  0  0  0  0  0  0  0  0  0  0
  2  1  1  6
  2  4  1  0
  2  3  1  0
  4  6  1  0
  4  5  1  6
  6  7  2  0
  9  8  1  1
  9 11  1  0
 10  6  1  0
 10  9  1  0
 11 12  2  0
 13 14  1  0
 13 11  1  0
 14 22  1  0
 14 15  1  1
 16 21  2  0
 16 15  1  0
 17 16  1  0
 18 19  1  0
 18 17  2  0
 19 20  2  0
 20 21  1  0
 22 24  2  0
 22 23  1  0
M  END
$$$$
