VAF.pdb
     RDKit          3D

 24 24  0  0  1  0  0  0  0  0999 V2000
   25.5182    0.3173   -6.8650 C   0  0  0  0  0  0  0  0  0  0  0  0
   24.7779    1.5444   -7.3516 C   0  0  1  0  0  0  0  0  0  0  0  0
   24.5611    2.4521   -6.1981 C   0  0  0  0  0  0  0  0  0  0  0  0
   25.4847    2.1839   -8.5154 C   0  0  2  0  0  0  0  0  0  0  0  0
   25.4251    1.2447   -9.6198 N   0  0  0  0  0  0  0  0  0  0  0  0
   26.8628    2.5750   -8.2377 C   0  0  0  0  0  0  0  0  0  0  0  0
   27.7789    1.7232   -8.3500 O   0  0  0  0  0  0  0  0  0  0  0  0
   28.8741    5.6804   -7.5117 C   0  0  0  0  0  0  0  0  0  0  0  0
   28.6222    4.1877   -7.6169 C   0  0  2  0  0  0  0  0  0  0  0  0
   27.2410    3.8807   -7.8415 N   0  0  0  0  0  0  0  0  0  0  0  0
   29.1884    3.5409   -6.4262 C   0  0  0  0  0  0  0  0  0  0  0  0
   28.4719    3.4341   -5.3996 O   0  0  0  0  0  0  0  0  0  0  0  0
   30.5125    3.0407   -6.4140 N   0  0  0  0  0  0  0  0  0  0  0  0
   31.1297    2.4246   -5.2570 C   0  0  1  0  0  0  0  0  0  0  0  0
   31.2991    0.9582   -5.5409 C   0  0  0  0  0  0  0  0  0  0  0  0
   31.9798    0.2176   -4.4561 C   0  0  0  0  0  0  0  0  0  0  0  0
   33.3489    0.1474   -4.4359 C   0  0  0  0  0  0  0  0  0  0  0  0
   34.0464   -0.5325   -3.4398 C   0  0  0  0  0  0  0  0  0  0  0  0
   33.3112   -1.1555   -2.4396 C   0  0  0  0  0  0  0  0  0  0  0  0
   31.9387   -1.0759   -2.4740 C   0  0  0  0  0  0  0  0  0  0  0  0
   31.2644   -0.4010   -3.4639 C   0  0  0  0  0  0  0  0  0  0  0  0
   32.3815    3.1275   -4.9312 C   0  0  0  0  0  0  0  0  0  0  0  0
   32.8284    3.3179   -3.6364 O   0  0  0  0  0  0  0  0  0  0  0  0
   33.1202    3.5998   -5.8499 O   0  0  0  0  0  0  0  0  0  0  0  0
  2  1  1  1
  2  4  1  0
  2  3  1  0
  4  6  1  0
  4  5  1  6
  6  7  2  0
  9  8  1  1
  9 11  1  0
 10  6  1  0
 10  9  1  0
 11 12  2  0
 13 14  1  0
 13 11  1  0
 14 22  1  0
 14 15  1  6
 16 21  2  0
 16 15  1  0
 17 16  1  0
 18 19  1  0
 18 17  2  0
 19 20  2  0
 20 21  1  0
 22 24  2  0
 22 23  1  0
M  END
$$$$
