VAF.pdb
     RDKit          3D

 24 24  0  0  1  0  0  0  0  0999 V2000
   21.9473  -11.6342  -14.7312 C   0  0  0  0  0  0  0  0  0  0  0  0
   21.8264  -12.2151  -16.1235 C   0  0  1  0  0  0  0  0  0  0  0  0
   22.0699  -13.6768  -16.0469 C   0  0  0  0  0  0  0  0  0  0  0  0
   20.5162  -11.8406  -16.7606 C   0  0  2  0  0  0  0  0  0  0  0  0
   20.5071  -12.4197  -18.0910 N   0  0  0  0  0  0  0  0  0  0  0  0
   20.2662  -10.4040  -16.8159 C   0  0  0  0  0  0  0  0  0  0  0  0
   21.0939   -9.6570  -17.3941 O   0  0  0  0  0  0  0  0  0  0  0  0
   17.5641   -7.9053  -16.4442 C   0  0  0  0  0  0  0  0  0  0  0  0
   19.0017   -8.3586  -16.2692 C   0  0  2  0  0  0  0  0  0  0  0  0
   19.1263   -9.7856  -16.2475 N   0  0  0  0  0  0  0  0  0  0  0  0
   19.5510   -7.6962  -15.0791 C   0  0  0  0  0  0  0  0  0  0  0  0
   19.6244   -8.3467  -14.0067 O   0  0  0  0  0  0  0  0  0  0  0  0
   19.9946   -6.3525  -15.1177 N   0  0  0  0  0  0  0  0  0  0  0  0
   20.5650   -5.6602  -13.9801 C   0  0  1  0  0  0  0  0  0  0  0  0
   21.7890   -6.4127  -13.5384 C   0  0  0  0  0  0  0  0  0  0  0  0
   22.8748   -6.4237  -14.5431 C   0  0  0  0  0  0  0  0  0  0  0  0
   23.2837   -7.6129  -15.0893 C   0  0  0  0  0  0  0  0  0  0  0  0
   24.2985   -7.6868  -16.0410 C   0  0  0  0  0  0  0  0  0  0  0  0
   24.9061   -6.5027  -16.4383 C   0  0  0  0  0  0  0  0  0  0  0  0
   24.4846   -5.3182  -15.8810 C   0  0  0  0  0  0  0  0  0  0  0  0
   23.4815   -5.2612  -14.9426 C   0  0  0  0  0  0  0  0  0  0  0  0
   20.8131   -4.2523  -14.3315 C   0  0  0  0  0  0  0  0  0  0  0  0
   20.6036   -3.7397  -15.5988 O   0  0  0  0  0  0  0  0  0  0  0  0
   21.2408   -3.4308  -13.4627 O   0  0  0  0  0  0  0  0  0  0  0  0
  2  1  1  1
  2  4  1  0
  2  3  1  0
  4  6  1  0
  4  5  1  6
  6  7  2  0
  9  8  1  1
  9 11  1  0
 10  6  1  0
 10  9  1  0
 11 12  2  0
 13 14  1  0
 13 11  1  0
 14 22  1  0
 14 15  1  6
 16 21  2  0
 16 15  1  0
 17 16  1  0
 18 19  1  0
 18 17  2  0
 19 20  2  0
 20 21  1  0
 22 24  2  0
 22 23  1  0
M  END
$$$$
