VAF.pdb
     RDKit          3D

 24 24  0  0  1  0  0  0  0  0999 V2000
   18.6666  -14.5999  -17.5748 C   0  0  0  0  0  0  0  0  0  0  0  0
   19.0993  -13.1736  -17.8376 C   0  0  1  0  0  0  0  0  0  0  0  0
   18.0387  -12.4969  -18.6242 C   0  0  0  0  0  0  0  0  0  0  0  0
   19.4646  -12.4686  -16.5599 C   0  0  2  0  0  0  0  0  0  0  0  0
   18.4552  -12.8155  -15.5770 N   0  0  0  0  0  0  0  0  0  0  0  0
   19.5897  -11.0206  -16.6897 C   0  0  0  0  0  0  0  0  0  0  0  0
   20.6277  -10.5361  -17.2048 O   0  0  0  0  0  0  0  0  0  0  0  0
   17.5741   -7.9347  -16.7639 C   0  0  0  0  0  0  0  0  0  0  0  0
   18.8252   -8.6978  -16.3700 C   0  0  2  0  0  0  0  0  0  0  0  0
   18.5948  -10.1077  -16.2632 N   0  0  0  0  0  0  0  0  0  0  0  0
   19.3686   -8.0905  -15.1482 C   0  0  0  0  0  0  0  0  0  0  0  0
   19.4371   -8.7894  -14.1063 O   0  0  0  0  0  0  0  0  0  0  0  0
   19.8120   -6.7465  -15.1231 N   0  0  0  0  0  0  0  0  0  0  0  0
   20.3924   -6.1119  -13.9573 C   0  0  1  0  0  0  0  0  0  0  0  0
   21.6154   -6.8902  -13.5596 C   0  0  0  0  0  0  0  0  0  0  0  0
   22.7029   -6.8411  -14.5613 C   0  0  0  0  0  0  0  0  0  0  0  0
   23.1424   -8.0010  -15.1453 C   0  0  0  0  0  0  0  0  0  0  0  0
   24.1604   -8.0184  -16.0963 C   0  0  0  0  0  0  0  0  0  0  0  0
   24.7390   -6.8070  -16.4529 C   0  0  0  0  0  0  0  0  0  0  0  0
   24.2870   -5.6524  -15.8580 C   0  0  0  0  0  0  0  0  0  0  0  0
   23.2811   -5.6513  -14.9208 C   0  0  0  0  0  0  0  0  0  0  0  0
   20.6451   -4.6900  -14.2424 C   0  0  0  0  0  0  0  0  0  0  0  0
   20.4650   -4.1243  -15.4915 O   0  0  0  0  0  0  0  0  0  0  0  0
   21.0494   -3.9054  -13.3294 O   0  0  0  0  0  0  0  0  0  0  0  0
  2  1  1  1
  2  4  1  0
  2  3  1  0
  4  6  1  0
  4  5  1  1
  6  7  2  0
  9  8  1  1
  9 11  1  0
 10  6  1  0
 10  9  1  0
 11 12  2  0
 13 14  1  0
 13 11  1  0
 14 22  1  0
 14 15  1  6
 16 21  2  0
 16 15  1  0
 17 16  1  0
 18 19  1  0
 18 17  2  0
 19 20  2  0
 20 21  1  0
 22 24  2  0
 22 23  1  0
M  END
$$$$
