VAF.pdb
     RDKit          3D

 24 24  0  0  1  0  0  0  0  0999 V2000
   29.4111  -18.6470  -14.2352 C   0  0  0  0  0  0  0  0  0  0  0  0
   28.4066  -19.7744  -14.3371 C   0  0  1  0  0  0  0  0  0  0  0  0
   28.6817  -20.7499  -13.2535 C   0  0  0  0  0  0  0  0  0  0  0  0
   26.9964  -19.2508  -14.3524 C   0  0  2  0  0  0  0  0  0  0  0  0
   27.0479  -17.9003  -14.8804 N   0  0  0  0  0  0  0  0  0  0  0  0
   26.3337  -19.2772  -13.0526 C   0  0  0  0  0  0  0  0  0  0  0  0
   26.5833  -18.3743  -12.2160 O   0  0  0  0  0  0  0  0  0  0  0  0
   23.6078  -21.1272  -11.2343 C   0  0  0  0  0  0  0  0  0  0  0  0
   24.8496  -20.2622  -11.3471 C   0  0  2  0  0  0  0  0  0  0  0  0
   25.4079  -20.2765  -12.6664 N   0  0  0  0  0  0  0  0  0  0  0  0
   25.7925  -20.6726  -10.2986 C   0  0  0  0  0  0  0  0  0  0  0  0
   26.6877  -21.5064  -10.5852 O   0  0  0  0  0  0  0  0  0  0  0  0
   25.7123  -20.1514   -8.9850 N   0  0  0  0  0  0  0  0  0  0  0  0
   26.6095  -20.5302   -7.9125 C   0  0  1  0  0  0  0  0  0  0  0  0
   27.3893  -19.3127   -7.5011 C   0  0  0  0  0  0  0  0  0  0  0  0
   28.1909  -19.5072   -6.2730 C   0  0  0  0  0  0  0  0  0  0  0  0
   27.7743  -18.9466   -5.0933 C   0  0  0  0  0  0  0  0  0  0  0  0
   28.4846  -19.0967   -3.9042 C   0  0  0  0  0  0  0  0  0  0  0  0
   29.6546  -19.8445   -3.9346 C   0  0  0  0  0  0  0  0  0  0  0  0
   30.0590  -20.4003   -5.1258 C   0  0  0  0  0  0  0  0  0  0  0  0
   29.3471  -20.2433   -6.2914 C   0  0  0  0  0  0  0  0  0  0  0  0
   25.8417  -21.1549   -6.8228 C   0  0  0  0  0  0  0  0  0  0  0  0
   26.4249  -21.9090   -5.8208 O   0  0  0  0  0  0  0  0  0  0  0  0
   24.5803  -21.0234   -6.7576 O   0  0  0  0  0  0  0  0  0  0  0  0
  2  1  1  1
  2  4  1  0
  2  3  1  0
  4  6  1  0
  4  5  1  1
  6  7  2  0
  9  8  1  6
  9 11  1  0
 10  6  1  0
 10  9  1  0
 11 12  2  0
 13 14  1  0
 13 11  1  0
 14 22  1  0
 14 15  1  1
 16 21  2  0
 16 15  1  0
 17 16  1  0
 18 19  1  0
 18 17  2  0
 19 20  2  0
 20 21  1  0
 22 24  2  0
 22 23  1  0
M  END
$$$$
