VYV.pdb
     RDKit          3D

 27 27  0  0  1  0  0  0  0  0999 V2000
   28.7505  -25.2403  -16.8705 C   0  0  0  0  0  0  0  0  0  0  0  0
   29.1759  -23.8094  -16.9066 C   0  0  1  0  0  0  0  0  0  0  0  0
   30.1333  -23.6390  -18.0880 C   0  0  0  0  0  0  0  0  0  0  0  0
   28.0200  -22.8677  -17.1598 C   0  0  2  0  0  0  0  0  0  0  0  0
   28.4869  -21.5417  -17.3889 N   0  0  0  0  0  0  0  0  0  0  0  0
   27.0382  -22.8843  -16.0512 C   0  0  0  0  0  0  0  0  0  0  0  0
   26.3413  -23.8955  -15.7695 O   0  0  0  0  0  0  0  0  0  0  0  0
   23.5313  -20.4126   -8.3542 O   0  0  0  0  0  0  0  0  0  0  0  0
   24.2515  -20.4636   -9.5371 C   0  0  0  0  0  0  0  0  0  0  0  0
   23.7635  -19.9058  -10.6897 C   0  0  0  0  0  0  0  0  0  0  0  0
   24.4565  -19.9421  -11.8754 C   0  0  0  0  0  0  0  0  0  0  0  0
   25.6778  -20.5514  -11.9290 C   0  0  0  0  0  0  0  0  0  0  0  0
   26.4578  -20.6170  -13.1713 C   0  0  0  0  0  0  0  0  0  0  0  0
   25.9419  -21.6639  -14.1405 C   0  0  2  0  0  0  0  0  0  0  0  0
   26.8620  -21.7169  -15.2606 N   0  0  0  0  0  0  0  0  0  0  0  0
   24.6109  -21.2027  -14.6066 C   0  0  0  0  0  0  0  0  0  0  0  0
   24.4540  -20.1610  -15.2935 O   0  0  0  0  0  0  0  0  0  0  0  0
   26.1812  -21.1187  -10.7706 C   0  0  0  0  0  0  0  0  0  0  0  0
   25.4846  -21.0779   -9.5947 C   0  0  0  0  0  0  0  0  0  0  0  0
   22.3953  -22.5238  -16.8769 C   0  0  0  0  0  0  0  0  0  0  0  0
   21.5160  -22.5025  -15.6606 C   0  0  1  0  0  0  0  0  0  0  0  0
   21.3751  -23.9005  -15.1488 C   0  0  0  0  0  0  0  0  0  0  0  0
   22.1114  -21.5643  -14.6345 C   0  0  2  0  0  0  0  0  0  0  0  0
   23.4574  -21.9593  -14.2704 N   0  0  0  0  0  0  0  0  0  0  0  0
   21.2570  -21.4566  -13.4339 C   0  0  0  0  0  0  0  0  0  0  0  0
   20.1061  -20.6863  -13.4015 O   0  0  0  0  0  0  0  0  0  0  0  0
   21.5813  -22.0836  -12.4039 O   0  0  0  0  0  0  0  0  0  0  0  0
  2  1  1  6
  2  3  1  0
  4  2  1  0
  4  5  1  1
  6  4  1  0
  6 15  1  0
  7  6  2  0
  9 19  2  0
  9  8  1  0
 10  9  1  0
 11 12  1  0
 11 10  2  0
 12 18  2  0
 13 12  1  0
 14 13  1  1
 14 15  1  0
 16 17  2  0
 16 14  1  0
 18 19  1  0
 21 20  1  6
 21 23  1  0
 22 21  1  0
 23 25  1  0
 23 24  1  1
 24 16  1  0
 25 26  1  0
 27 25  2  0
M  END
$$$$
