VYV.pdb
     RDKit          3D

 27 27  0  0  1  0  0  0  0  0999 V2000
   30.8908  -27.8875  -21.5589 C   0  0  0  0  0  0  0  0  0  0  0  0
   30.9902  -28.1796  -20.0979 C   0  0  1  0  0  0  0  0  0  0  0  0
   32.2718  -28.9841  -19.8712 C   0  0  0  0  0  0  0  0  0  0  0  0
   31.1253  -26.9251  -19.2643 C   0  0  2  0  0  0  0  0  0  0  0  0
   31.3405  -27.2476  -17.8938 N   0  0  0  0  0  0  0  0  0  0  0  0
   29.9496  -26.0358  -19.4062 C   0  0  0  0  0  0  0  0  0  0  0  0
   29.9645  -24.9884  -20.1064 O   0  0  0  0  0  0  0  0  0  0  0  0
   22.3340  -22.7551  -21.2560 O   0  0  0  0  0  0  0  0  0  0  0  0
   23.4883  -23.4830  -21.0150 C   0  0  0  0  0  0  0  0  0  0  0  0
   23.4363  -24.8225  -20.7305 C   0  0  0  0  0  0  0  0  0  0  0  0
   24.5648  -25.5674  -20.4877 C   0  0  0  0  0  0  0  0  0  0  0  0
   25.7929  -24.9708  -20.5264 C   0  0  0  0  0  0  0  0  0  0  0  0
   27.0286  -25.7228  -20.2743 C   0  0  0  0  0  0  0  0  0  0  0  0
   27.5376  -25.5675  -18.8538 C   0  0  2  0  0  0  0  0  0  0  0  0
   28.7438  -26.3635  -18.7297 N   0  0  0  0  0  0  0  0  0  0  0  0
   26.4864  -26.1073  -17.9565 C   0  0  0  0  0  0  0  0  0  0  0  0
   26.1123  -27.3076  -17.9920 O   0  0  0  0  0  0  0  0  0  0  0  0
   25.8580  -23.6178  -20.8129 C   0  0  0  0  0  0  0  0  0  0  0  0
   24.7296  -22.8838  -21.0533 C   0  0  0  0  0  0  0  0  0  0  0  0
   26.6469  -26.2053  -14.4579 C   0  0  0  0  0  0  0  0  0  0  0  0
   25.3313  -25.5056  -14.6388 C   0  0  1  0  0  0  0  0  0  0  0  0
   25.5006  -24.0670  -14.2672 C   0  0  0  0  0  0  0  0  0  0  0  0
   24.8651  -25.6871  -16.0661 C   0  0  2  0  0  0  0  0  0  0  0  0
   25.8682  -25.2443  -17.0136 N   0  0  0  0  0  0  0  0  0  0  0  0
   23.5789  -25.0022  -16.3106 C   0  0  0  0  0  0  0  0  0  0  0  0
   23.4690  -23.8839  -17.1207 O   0  0  0  0  0  0  0  0  0  0  0  0
   22.5458  -25.4456  -15.7671 O   0  0  0  0  0  0  0  0  0  0  0  0
  2  1  1  6
  2  3  1  0
  4  2  1  0
  4  5  1  1
  6  4  1  0
  6 15  1  0
  7  6  2  0
  9 19  2  0
  9  8  1  0
 10  9  1  0
 11 12  1  0
 11 10  2  0
 12 18  2  0
 13 12  1  0
 14 13  1  6
 14 15  1  0
 16 17  2  0
 16 14  1  0
 18 19  1  0
 21 20  1  6
 21 23  1  0
 22 21  1  0
 23 25  1  0
 23 24  1  6
 24 16  1  0
 25 26  1  0
 27 25  2  0
M  END
$$$$
