VYV.pdb
     RDKit          3D

 27 27  0  0  1  0  0  0  0  0999 V2000
   29.1642  -20.5343  -19.2378 C   0  0  0  0  0  0  0  0  0  0  0  0
   28.2236  -20.6882  -18.0883 C   0  0  1  0  0  0  0  0  0  0  0  0
   26.8653  -21.1095  -18.6527 C   0  0  0  0  0  0  0  0  0  0  0  0
   28.6455  -21.7861  -17.1377 C   0  0  2  0  0  0  0  0  0  0  0  0
   28.7624  -23.0307  -17.8201 N   0  0  0  0  0  0  0  0  0  0  0  0
   27.7180  -21.9125  -15.9900 C   0  0  0  0  0  0  0  0  0  0  0  0
   26.7576  -22.7278  -15.9730 O   0  0  0  0  0  0  0  0  0  0  0  0
   24.8301  -20.5794   -7.7194 O   0  0  0  0  0  0  0  0  0  0  0  0
   25.5446  -20.5438   -8.9063 C   0  0  0  0  0  0  0  0  0  0  0  0
   26.2639  -21.6287   -9.3344 C   0  0  0  0  0  0  0  0  0  0  0  0
   26.9807  -21.6203  -10.5064 C   0  0  0  0  0  0  0  0  0  0  0  0
   26.9901  -20.5000  -11.2879 C   0  0  0  0  0  0  0  0  0  0  0  0
   27.7400  -20.4405  -12.5489 C   0  0  0  0  0  0  0  0  0  0  0  0
   27.0316  -21.1400  -13.6934 C   0  0  2  0  0  0  0  0  0  0  0  0
   27.9054  -21.0854  -14.8499 N   0  0  0  0  0  0  0  0  0  0  0  0
   25.7906  -20.3739  -13.9663 C   0  0  0  0  0  0  0  0  0  0  0  0
   25.7982  -19.2311  -14.4914 O   0  0  0  0  0  0  0  0  0  0  0  0
   26.2669  -19.3975  -10.8655 C   0  0  0  0  0  0  0  0  0  0  0  0
   25.5562  -19.4146   -9.6975 C   0  0  0  0  0  0  0  0  0  0  0  0
   21.2761  -20.9982  -15.1452 C   0  0  0  0  0  0  0  0  0  0  0  0
   22.7338  -20.6592  -15.2603 C   0  0  1  0  0  0  0  0  0  0  0  0
   22.8897  -19.5529  -16.2542 C   0  0  0  0  0  0  0  0  0  0  0  0
   23.2673  -20.2930  -13.8932 C   0  0  2  0  0  0  0  0  0  0  0  0
   24.5349  -20.9423  -13.6255 N   0  0  0  0  0  0  0  0  0  0  0  0
   22.2903  -20.5975  -12.8274 C   0  0  0  0  0  0  0  0  0  0  0  0
   21.2307  -19.7591  -12.5223 O   0  0  0  0  0  0  0  0  0  0  0  0
   22.4208  -21.6524  -12.1722 O   0  0  0  0  0  0  0  0  0  0  0  0
  2  1  1  6
  2  3  1  0
  4  2  1  0
  4  5  1  6
  6  4  1  0
  6 15  1  0
  7  6  2  0
  9 19  2  0
  9  8  1  0
 10  9  1  0
 11 12  1  0
 11 10  2  0
 12 18  2  0
 13 12  1  0
 14 13  1  1
 14 15  1  0
 16 17  2  0
 16 14  1  0
 18 19  1  0
 21 20  1  1
 21 23  1  0
 22 21  1  0
 23 25  1  0
 23 24  1  1
 24 16  1  0
 25 26  1  0
 27 25  2  0
M  END
$$$$
