VYV.pdb
     RDKit          3D

 27 27  0  0  1  0  0  0  0  0999 V2000
   16.0431  -13.0280  -16.8524 C   0  0  0  0  0  0  0  0  0  0  0  0
   16.8508  -11.9336  -16.2362 C   0  0  1  0  0  0  0  0  0  0  0  0
   16.3597  -10.6078  -16.8213 C   0  0  0  0  0  0  0  0  0  0  0  0
   16.6489  -11.8363  -14.7406 C   0  0  2  0  0  0  0  0  0  0  0  0
   15.2692  -11.6784  -14.4242 N   0  0  0  0  0  0  0  0  0  0  0  0
   17.4436  -10.7381  -14.1440 C   0  0  0  0  0  0  0  0  0  0  0  0
   18.7035  -10.7334  -14.1327 O   0  0  0  0  0  0  0  0  0  0  0  0
   21.3032   -3.3579  -12.8181 O   0  0  0  0  0  0  0  0  0  0  0  0
   20.5420   -4.4611  -13.1705 C   0  0  0  0  0  0  0  0  0  0  0  0
   19.3021   -4.3165  -13.7356 C   0  0  0  0  0  0  0  0  0  0  0  0
   18.5270   -5.3926  -14.0942 C   0  0  0  0  0  0  0  0  0  0  0  0
   18.9904   -6.6610  -13.8888 C   0  0  0  0  0  0  0  0  0  0  0  0
   18.2008   -7.8437  -14.2546 C   0  0  0  0  0  0  0  0  0  0  0  0
   17.4727   -8.4585  -13.0743 C   0  0  2  0  0  0  0  0  0  0  0  0
   16.7714   -9.6339  -13.5545 N   0  0  0  0  0  0  0  0  0  0  0  0
   16.4936   -7.4505  -12.5979 C   0  0  0  0  0  0  0  0  0  0  0  0
   15.5570   -7.0186  -13.3176 O   0  0  0  0  0  0  0  0  0  0  0  0
   20.2420   -6.8195  -13.3185 C   0  0  0  0  0  0  0  0  0  0  0  0
   21.0069   -5.7428  -12.9645 C   0  0  0  0  0  0  0  0  0  0  0  0
   14.7146   -7.5710   -9.1428 C   0  0  0  0  0  0  0  0  0  0  0  0
   15.4052   -6.2435   -9.2607 C   0  0  1  0  0  0  0  0  0  0  0  0
   16.6429   -6.2731   -8.4219 C   0  0  0  0  0  0  0  0  0  0  0  0
   15.6965   -5.9637  -10.7182 C   0  0  2  0  0  0  0  0  0  0  0  0
   16.6067   -6.9436  -11.2764 N   0  0  0  0  0  0  0  0  0  0  0  0
   16.2177   -4.5955  -10.9169 C   0  0  0  0  0  0  0  0  0  0  0  0
   15.4369   -3.4648  -10.7413 O   0  0  0  0  0  0  0  0  0  0  0  0
   17.4100   -4.4470  -11.2570 O   0  0  0  0  0  0  0  0  0  0  0  0
  2  1  1  6
  2  3  1  0
  4  2  1  0
  4  5  1  6
  6  4  1  0
  6 15  1  0
  7  6  2  0
  9 19  2  0
  9  8  1  0
 10  9  1  0
 11 12  1  0
 11 10  2  0
 12 18  2  0
 13 12  1  0
 14 13  1  6
 14 15  1  0
 16 17  2  0
 16 14  1  0
 18 19  1  0
 21 20  1  6
 21 23  1  0
 22 21  1  0
 23 25  1  0
 23 24  1  1
 24 16  1  0
 25 26  1  0
 27 25  2  0
M  END
$$$$
