VYV.pdb
     RDKit          3D

 27 27  0  0  1  0  0  0  0  0999 V2000
   25.1563  -18.9366  -20.3949 C   0  0  0  0  0  0  0  0  0  0  0  0
   24.2930  -18.5824  -19.2291 C   0  0  1  0  0  0  0  0  0  0  0  0
   22.8732  -19.0607  -19.5401 C   0  0  0  0  0  0  0  0  0  0  0  0
   24.7108  -19.2937  -17.9616 C   0  0  2  0  0  0  0  0  0  0  0  0
   24.6875  -20.7063  -18.1416 N   0  0  0  0  0  0  0  0  0  0  0  0
   23.8692  -18.9072  -16.8058 C   0  0  0  0  0  0  0  0  0  0  0  0
   23.7816  -17.7213  -16.3895 O   0  0  0  0  0  0  0  0  0  0  0  0
   19.2508  -14.4326  -17.3112 O   0  0  0  0  0  0  0  0  0  0  0  0
   19.6366  -15.6924  -16.8817 C   0  0  0  0  0  0  0  0  0  0  0  0
   19.7475  -15.9843  -15.5475 C   0  0  0  0  0  0  0  0  0  0  0  0
   20.1278  -17.2244  -15.0947 C   0  0  0  0  0  0  0  0  0  0  0  0
   20.4100  -18.2164  -15.9903 C   0  0  0  0  0  0  0  0  0  0  0  0
   20.8204  -19.5582  -15.5574 C   0  0  0  0  0  0  0  0  0  0  0  0
   22.2372  -19.5991  -15.0170 C   0  0  2  0  0  0  0  0  0  0  0  0
   23.1214  -19.9055  -16.1253 N   0  0  0  0  0  0  0  0  0  0  0  0
   22.2873  -20.6951  -14.0181 C   0  0  0  0  0  0  0  0  0  0  0  0
   22.1604  -21.9067  -14.3306 O   0  0  0  0  0  0  0  0  0  0  0  0
   20.3014  -17.9333  -17.3412 C   0  0  0  0  0  0  0  0  0  0  0  0
   19.9222  -16.6961  -17.7831 C   0  0  0  0  0  0  0  0  0  0  0  0
   24.8897  -20.5903  -11.1029 C   0  0  0  0  0  0  0  0  0  0  0  0
   23.5500  -20.9168  -10.5099 C   0  0  1  0  0  0  0  0  0  0  0  0
   23.0378  -19.7084   -9.7931 C   0  0  0  0  0  0  0  0  0  0  0  0
   22.6201  -21.3789  -11.6096 C   0  0  2  0  0  0  0  0  0  0  0  0
   22.4862  -20.3775  -12.6486 N   0  0  0  0  0  0  0  0  0  0  0  0
   21.2949  -21.7596  -11.0787 C   0  0  0  0  0  0  0  0  0  0  0  0
   21.0667  -22.9614  -10.4286 O   0  0  0  0  0  0  0  0  0  0  0  0
   20.3384  -20.9693  -11.2192 O   0  0  0  0  0  0  0  0  0  0  0  0
  2  1  1  6
  2  3  1  0
  4  2  1  0
  4  5  1  6
  6  4  1  0
  6 15  1  0
  7  6  2  0
  9 19  2  0
  9  8  1  0
 10  9  1  0
 11 12  1  0
 11 10  2  0
 12 18  2  0
 13 12  1  0
 14 13  1  6
 14 15  1  0
 16 17  2  0
 16 14  1  0
 18 19  1  0
 21 20  1  6
 21 23  1  0
 22 21  1  0
 23 25  1  0
 23 24  1  6
 24 16  1  0
 25 26  1  0
 27 25  2  0
M  END
$$$$
