VYV.pdb
     RDKit          3D

 27 27  0  0  1  0  0  0  0  0999 V2000
   26.5942  -20.3629  -18.2613 C   0  0  0  0  0  0  0  0  0  0  0  0
   27.4612  -21.5577  -18.4858 C   0  0  1  0  0  0  0  0  0  0  0  0
   28.4325  -21.2207  -19.6189 C   0  0  0  0  0  0  0  0  0  0  0  0
   28.3143  -21.8887  -17.2818 C   0  0  2  0  0  0  0  0  0  0  0  0
   29.0733  -23.0725  -17.5080 N   0  0  0  0  0  0  0  0  0  0  0  0
   27.5050  -22.0229  -16.0487 C   0  0  0  0  0  0  0  0  0  0  0  0
   26.7628  -23.0155  -15.8222 O   0  0  0  0  0  0  0  0  0  0  0  0
   25.0503  -20.2861   -7.7411 O   0  0  0  0  0  0  0  0  0  0  0  0
   25.6670  -20.2778   -8.9821 C   0  0  0  0  0  0  0  0  0  0  0  0
   25.5793  -19.1901   -9.8109 C   0  0  0  0  0  0  0  0  0  0  0  0
   26.1808  -19.1556  -11.0456 C   0  0  0  0  0  0  0  0  0  0  0  0
   26.8968  -20.2339  -11.4819 C   0  0  0  0  0  0  0  0  0  0  0  0
   27.5581  -20.2466  -12.7928 C   0  0  0  0  0  0  0  0  0  0  0  0
   26.8072  -21.0629  -13.8277 C   0  0  2  0  0  0  0  0  0  0  0  0
   27.5563  -20.9962  -15.0679 N   0  0  0  0  0  0  0  0  0  0  0  0
   25.4822  -20.4196  -14.0072 C   0  0  0  0  0  0  0  0  0  0  0  0
   25.3439  -19.2771  -14.5145 O   0  0  0  0  0  0  0  0  0  0  0  0
   26.9924  -21.3388  -10.6530 C   0  0  0  0  0  0  0  0  0  0  0  0
   26.3905  -21.3646   -9.4255 C   0  0  0  0  0  0  0  0  0  0  0  0
   22.7901  -21.0729  -16.0076 C   0  0  0  0  0  0  0  0  0  0  0  0
   22.1151  -21.1768  -14.6710 C   0  0  1  0  0  0  0  0  0  0  0  0
   21.8487  -22.6196  -14.3815 C   0  0  0  0  0  0  0  0  0  0  0  0
   22.9882  -20.5244  -13.6223 C   0  0  2  0  0  0  0  0  0  0  0  0
   24.3131  -21.1110  -13.5935 N   0  0  0  0  0  0  0  0  0  0  0  0
   22.3650  -20.5784  -12.2838 C   0  0  0  0  0  0  0  0  0  0  0  0
   21.2259  -19.8600  -11.9596 O   0  0  0  0  0  0  0  0  0  0  0  0
   22.8825  -21.2995  -11.4054 O   0  0  0  0  0  0  0  0  0  0  0  0
  2  1  1  1
  2  3  1  0
  4  2  1  0
  4  5  1  6
  6  4  1  0
  6 15  1  0
  7  6  2  0
  9 19  2  0
  9  8  1  0
 10  9  1  0
 11 12  1  0
 11 10  2  0
 12 18  2  0
 13 12  1  0
 14 13  1  1
 14 15  1  0
 16 17  2  0
 16 14  1  0
 18 19  1  0
 21 20  1  6
 21 23  1  0
 22 21  1  0
 23 25  1  0
 23 24  1  1
 24 16  1  0
 25 26  1  0
 27 25  2  0
M  END
$$$$
