VYV.pdb
     RDKit          3D

 27 27  0  0  1  0  0  0  0  0999 V2000
   14.2783  -10.5313  -16.2436 C   0  0  0  0  0  0  0  0  0  0  0  0
   14.7521   -9.9556  -14.9498 C   0  0  1  0  0  0  0  0  0  0  0  0
   13.9290  -10.5932  -13.8286 C   0  0  0  0  0  0  0  0  0  0  0  0
   16.1968  -10.2950  -14.6593 C   0  0  2  0  0  0  0  0  0  0  0  0
   16.3992  -11.7047  -14.6723 N   0  0  0  0  0  0  0  0  0  0  0  0
   16.6535   -9.7204  -13.3729 C   0  0  0  0  0  0  0  0  0  0  0  0
   16.8069  -10.4118  -12.3309 O   0  0  0  0  0  0  0  0  0  0  0  0
   23.0444   -9.8681  -14.3903 O   0  0  0  0  0  0  0  0  0  0  0  0
   21.9662   -9.1270  -13.9334 C   0  0  0  0  0  0  0  0  0  0  0  0
   21.7232   -8.9799  -12.5929 C   0  0  0  0  0  0  0  0  0  0  0  0
   20.6621   -8.2510  -12.1132 C   0  0  0  0  0  0  0  0  0  0  0  0
   19.8063   -7.6430  -12.9871 C   0  0  0  0  0  0  0  0  0  0  0  0
   18.6579   -6.8532  -12.5250 C   0  0  0  0  0  0  0  0  0  0  0  0
   17.4811   -7.7110  -12.1003 C   0  0  2  0  0  0  0  0  0  0  0  0
   16.9354   -8.3301  -13.2932 N   0  0  0  0  0  0  0  0  0  0  0  0
   16.4743   -6.7987  -11.5038 C   0  0  0  0  0  0  0  0  0  0  0  0
   15.7385   -6.0509  -12.1974 O   0  0  0  0  0  0  0  0  0  0  0  0
   20.0418   -7.7846  -14.3441 C   0  0  0  0  0  0  0  0  0  0  0  0
   21.1005   -8.5119  -14.8129 C   0  0  0  0  0  0  0  0  0  0  0  0
   13.9674   -5.5833   -7.4201 C   0  0  0  0  0  0  0  0  0  0  0  0
   15.0385   -6.4375   -8.0333 C   0  0  1  0  0  0  0  0  0  0  0  0
   14.5685   -7.8572   -8.0450 C   0  0  0  0  0  0  0  0  0  0  0  0
   15.3552   -5.9179   -9.4180 C   0  0  2  0  0  0  0  0  0  0  0  0
   16.3244   -6.7580  -10.0925 N   0  0  0  0  0  0  0  0  0  0  0  0
   15.8174   -4.5150   -9.3812 C   0  0  0  0  0  0  0  0  0  0  0  0
   14.9441   -3.4397   -9.3742 O   0  0  0  0  0  0  0  0  0  0  0  0
   17.0442   -4.2840   -9.3551 O   0  0  0  0  0  0  0  0  0  0  0  0
  2  1  1  6
  2  3  1  0
  4  2  1  0
  4  5  1  1
  6  4  1  0
  6 15  1  0
  7  6  2  0
  9 19  2  0
  9  8  1  0
 10  9  1  0
 11 12  1  0
 11 10  2  0
 12 18  2  0
 13 12  1  0
 14 13  1  6
 14 15  1  0
 16 17  2  0
 16 14  1  0
 18 19  1  0
 21 20  1  6
 21 23  1  0
 22 21  1  0
 23 25  1  0
 23 24  1  1
 24 16  1  0
 25 26  1  0
 27 25  2  0
M  END
$$$$
