VYV.pdb
     RDKit          3D

 27 27  0  0  1  0  0  0  0  0999 V2000
   19.3511  -22.0068  -15.3425 C   0  0  0  0  0  0  0  0  0  0  0  0
   20.6251  -21.3664  -14.8994 C   0  0  1  0  0  0  0  0  0  0  0  0
   20.7416  -20.0193  -15.6157 C   0  0  0  0  0  0  0  0  0  0  0  0
   20.6350  -21.0602  -13.4185 C   0  0  2  0  0  0  0  0  0  0  0  0
   19.5625  -20.1889  -13.0735 N   0  0  0  0  0  0  0  0  0  0  0  0
   21.9276  -20.4856  -12.9797 C   0  0  0  0  0  0  0  0  0  0  0  0
   22.1552  -19.2465  -12.9633 O   0  0  0  0  0  0  0  0  0  0  0  0
   28.5746  -19.5168   -7.5603 O   0  0  0  0  0  0  0  0  0  0  0  0
   27.6125  -20.0767   -8.3857 C   0  0  0  0  0  0  0  0  0  0  0  0
   27.9538  -20.9611   -9.3751 C   0  0  0  0  0  0  0  0  0  0  0  0
   27.0204  -21.5306  -10.2070 C   0  0  0  0  0  0  0  0  0  0  0  0
   25.6991  -21.2173  -10.0593 C   0  0  0  0  0  0  0  0  0  0  0  0
   24.6632  -21.7986  -10.9225 C   0  0  0  0  0  0  0  0  0  0  0  0
   24.2328  -20.8682  -12.0407 C   0  0  2  0  0  0  0  0  0  0  0  0
   22.9675  -21.3560  -12.5555 N   0  0  0  0  0  0  0  0  0  0  0  0
   25.2705  -20.9540  -13.0979 C   0  0  0  0  0  0  0  0  0  0  0  0
   25.4874  -22.0045  -13.7545 O   0  0  0  0  0  0  0  0  0  0  0  0
   25.3422  -20.3247   -9.0629 C   0  0  0  0  0  0  0  0  0  0  0  0
   26.2779  -19.7626   -8.2393 C   0  0  0  0  0  0  0  0  0  0  0  0
   28.4056  -18.0933  -13.3664 C   0  0  0  0  0  0  0  0  0  0  0  0
   27.6231  -18.3780  -14.6153 C   0  0  1  0  0  0  0  0  0  0  0  0
   28.5414  -18.2659  -15.7901 C   0  0  0  0  0  0  0  0  0  0  0  0
   26.9877  -19.7458  -14.5015 C   0  0  2  0  0  0  0  0  0  0  0  0
   26.0590  -19.8102  -13.3909 N   0  0  0  0  0  0  0  0  0  0  0  0
   28.0050  -20.8119  -14.3927 C   0  0  0  0  0  0  0  0  0  0  0  0
   28.5233  -21.2300  -13.1781 O   0  0  0  0  0  0  0  0  0  0  0  0
   28.4175  -21.3615  -15.4353 O   0  0  0  0  0  0  0  0  0  0  0  0
  2  1  1  6
  2  3  1  0
  4  2  1  0
  4  5  1  6
  6  4  1  0
  6 15  1  0
  7  6  2  0
  9 19  2  0
  9  8  1  0
 10  9  1  0
 11 12  1  0
 11 10  2  0
 12 18  2  0
 13 12  1  0
 14 13  1  1
 14 15  1  0
 16 17  2  0
 16 14  1  0
 18 19  1  0
 21 20  1  1
 21 23  1  0
 22 21  1  0
 23 25  1  0
 23 24  1  1
 24 16  1  0
 25 26  1  0
 27 25  2  0
M  END
$$$$
