VYV.pdb
     RDKit          3D

 27 27  0  0  1  0  0  0  0  0999 V2000
   28.8785  -20.0296  -19.3162 C   0  0  0  0  0  0  0  0  0  0  0  0
   27.9642  -20.3355  -18.1760 C   0  0  1  0  0  0  0  0  0  0  0  0
   26.6656  -20.8963  -18.7594 C   0  0  0  0  0  0  0  0  0  0  0  0
   28.5154  -21.4078  -17.2631 C   0  0  2  0  0  0  0  0  0  0  0  0
   28.7392  -22.6181  -17.9796 N   0  0  0  0  0  0  0  0  0  0  0  0
   27.6324  -21.6532  -16.0996 C   0  0  0  0  0  0  0  0  0  0  0  0
   26.7176  -22.5195  -16.1057 O   0  0  0  0  0  0  0  0  0  0  0  0
   24.8315  -20.7550   -7.7219 O   0  0  0  0  0  0  0  0  0  0  0  0
   25.5164  -20.6404   -8.9212 C   0  0  0  0  0  0  0  0  0  0  0  0
   25.8436  -21.7470   -9.6602 C   0  0  0  0  0  0  0  0  0  0  0  0
   26.5218  -21.6617  -10.8519 C   0  0  0  0  0  0  0  0  0  0  0  0
   26.8926  -20.4393  -11.3355 C   0  0  0  0  0  0  0  0  0  0  0  0
   27.6186  -20.2948  -12.6036 C   0  0  0  0  0  0  0  0  0  0  0  0
   26.9636  -21.0417  -13.7500 C   0  0  2  0  0  0  0  0  0  0  0  0
   27.8113  -20.8866  -14.9168 N   0  0  0  0  0  0  0  0  0  0  0  0
   25.6513  -20.3937  -13.9942 C   0  0  0  0  0  0  0  0  0  0  0  0
   25.5433  -19.2260  -14.4487 O   0  0  0  0  0  0  0  0  0  0  0  0
   26.5675  -19.3139  -10.5975 C   0  0  0  0  0  0  0  0  0  0  0  0
   25.8922  -19.4079   -9.4122 C   0  0  0  0  0  0  0  0  0  0  0  0
   21.0544  -20.5036  -15.1617 C   0  0  0  0  0  0  0  0  0  0  0  0
   22.4533  -21.0454  -15.1104 C   0  0  1  0  0  0  0  0  0  0  0  0
   23.1700  -20.6356  -16.3573 C   0  0  0  0  0  0  0  0  0  0  0  0
   23.1339  -20.5435  -13.8563 C   0  0  2  0  0  0  0  0  0  0  0  0
   24.4594  -21.1100  -13.7075 N   0  0  0  0  0  0  0  0  0  0  0  0
   22.3178  -20.8032  -12.6523 C   0  0  0  0  0  0  0  0  0  0  0  0
   22.4863  -21.9291  -11.8631 O   0  0  0  0  0  0  0  0  0  0  0  0
   21.4392  -19.9771  -12.3287 O   0  0  0  0  0  0  0  0  0  0  0  0
  2  1  1  6
  2  3  1  0
  4  2  1  0
  4  5  1  6
  6  4  1  0
  6 15  1  0
  7  6  2  0
  9 19  2  0
  9  8  1  0
 10  9  1  0
 11 12  1  0
 11 10  2  0
 12 18  2  0
 13 12  1  0
 14 13  1  1
 14 15  1  0
 16 17  2  0
 16 14  1  0
 18 19  1  0
 21 20  1  6
 21 23  1  0
 22 21  1  0
 23 25  1  0
 23 24  1  1
 24 16  1  0
 25 26  1  0
 27 25  2  0
M  END
$$$$
