VYV.pdb
     RDKit          3D

 27 27  0  0  1  0  0  0  0  0999 V2000
   22.9902  -12.6353  -19.9505 C   0  0  0  0  0  0  0  0  0  0  0  0
   21.9124  -11.7024  -19.5057 C   0  0  1  0  0  0  0  0  0  0  0  0
   20.6819  -11.9653  -20.3762 C   0  0  0  0  0  0  0  0  0  0  0  0
   21.4819  -11.9536  -18.0779 C   0  0  2  0  0  0  0  0  0  0  0  0
   21.0235  -13.2921  -17.9143 N   0  0  0  0  0  0  0  0  0  0  0  0
   20.4431  -10.9952  -17.6353 C   0  0  0  0  0  0  0  0  0  0  0  0
   19.3071  -10.9200  -18.1750 O   0  0  0  0  0  0  0  0  0  0  0  0
   14.9366  -13.1628  -15.4894 O   0  0  0  0  0  0  0  0  0  0  0  0
   15.9801  -12.2659  -15.3246 C   0  0  0  0  0  0  0  0  0  0  0  0
   17.2475  -12.6974  -15.0329 C   0  0  0  0  0  0  0  0  0  0  0  0
   18.2995  -11.8301  -14.8646 C   0  0  0  0  0  0  0  0  0  0  0  0
   18.0964  -10.4850  -14.9883 C   0  0  0  0  0  0  0  0  0  0  0  0
   19.1874   -9.5172  -14.8179 C   0  0  0  0  0  0  0  0  0  0  0  0
   19.8011   -9.0781  -16.1339 C   0  0  2  0  0  0  0  0  0  0  0  0
   20.7236  -10.1147  -16.5560 N   0  0  0  0  0  0  0  0  0  0  0  0
   20.5459   -7.8230  -15.8659 C   0  0  0  0  0  0  0  0  0  0  0  0
   21.6093   -7.7931  -15.1951 O   0  0  0  0  0  0  0  0  0  0  0  0
   16.8199  -10.0371  -15.2830 C   0  0  0  0  0  0  0  0  0  0  0  0
   15.7784  -10.9075  -15.4489 C   0  0  0  0  0  0  0  0  0  0  0  0
   21.9162   -5.5217  -18.3534 C   0  0  0  0  0  0  0  0  0  0  0  0
   20.9925   -4.6589  -17.5438 C   0  0  1  0  0  0  0  0  0  0  0  0
   19.7421   -4.4282  -18.3309 C   0  0  0  0  0  0  0  0  0  0  0  0
   20.7277   -5.3280  -16.2134 C   0  0  2  0  0  0  0  0  0  0  0  0
   20.0490   -6.5973  -16.3822 N   0  0  0  0  0  0  0  0  0  0  0  0
   19.9675   -4.4476  -15.3023 C   0  0  0  0  0  0  0  0  0  0  0  0
   20.5336   -3.3464  -14.6812 O   0  0  0  0  0  0  0  0  0  0  0  0
   18.7655   -4.7023  -15.0799 O   0  0  0  0  0  0  0  0  0  0  0  0
  2  1  1  6
  2  3  1  0
  4  2  1  0
  4  5  1  6
  6  4  1  0
  6 15  1  0
  7  6  2  0
  9 19  2  0
  9  8  1  0
 10  9  1  0
 11 12  1  0
 11 10  2  0
 12 18  2  0
 13 12  1  0
 14 13  1  1
 14 15  1  0
 16 17  2  0
 16 14  1  0
 18 19  1  0
 21 20  1  6
 21 23  1  0
 22 21  1  0
 23 25  1  0
 23 24  1  6
 24 16  1  0
 25 26  1  0
 27 25  2  0
M  END
$$$$
