VYV.pdb
     RDKit          3D

 27 27  0  0  1  0  0  0  0  0999 V2000
   17.3739  -21.9557    2.6428 C   0  0  0  0  0  0  0  0  0  0  0  0
   16.6401  -22.2881    1.3856 C   0  0  1  0  0  0  0  0  0  0  0  0
   16.7589  -23.7973    1.1635 C   0  0  0  0  0  0  0  0  0  0  0  0
   15.1607  -21.9900    1.4822 C   0  0  2  0  0  0  0  0  0  0  0  0
   14.4646  -22.5047    0.3513 N   0  0  0  0  0  0  0  0  0  0  0  0
   14.8959  -20.5408    1.6349 C   0  0  0  0  0  0  0  0  0  0  0  0
   14.4032  -19.8347    0.7151 O   0  0  0  0  0  0  0  0  0  0  0  0
    8.6424  -19.1194    1.8862 O   0  0  0  0  0  0  0  0  0  0  0  0
    9.9005  -18.9674    2.4471 C   0  0  0  0  0  0  0  0  0  0  0  0
   10.4357  -19.9310    3.2612 C   0  0  0  0  0  0  0  0  0  0  0  0
   11.6800  -19.8056    3.8299 C   0  0  0  0  0  0  0  0  0  0  0  0
   12.4271  -18.6880    3.5880 C   0  0  0  0  0  0  0  0  0  0  0  0
   13.7621  -18.5063    4.1717 C   0  0  0  0  0  0  0  0  0  0  0  0
   14.8691  -18.5179    3.1346 C   0  0  2  0  0  0  0  0  0  0  0  0
   15.2053  -19.9032    2.8664 N   0  0  0  0  0  0  0  0  0  0  0  0
   16.0349  -17.8272    3.7391 C   0  0  0  0  0  0  0  0  0  0  0  0
   16.8029  -18.3845    4.5646 O   0  0  0  0  0  0  0  0  0  0  0  0
   11.8967  -17.7075    2.7669 C   0  0  0  0  0  0  0  0  0  0  0  0
   10.6573  -17.8404    2.2049 C   0  0  0  0  0  0  0  0  0  0  0  0
   16.3906  -13.5913    3.2185 C   0  0  0  0  0  0  0  0  0  0  0  0
   17.6326  -14.4327    3.1688 C   0  0  1  0  0  0  0  0  0  0  0  0
   18.7734  -13.6325    3.7115 C   0  0  0  0  0  0  0  0  0  0  0  0
   17.3975  -15.7104    3.9432 C   0  0  2  0  0  0  0  0  0  0  0  0
   16.3069  -16.4808    3.3799 N   0  0  0  0  0  0  0  0  0  0  0  0
   17.1607  -15.4430    5.3769 C   0  0  0  0  0  0  0  0  0  0  0  0
   18.1883  -15.1867    6.2697 O   0  0  0  0  0  0  0  0  0  0  0  0
   15.9881  -15.4471    5.8062 O   0  0  0  0  0  0  0  0  0  0  0  0
  2  1  1  1
  2  3  1  0
  4  2  1  0
  4  5  1  6
  6  4  1  0
  6 15  1  0
  7  6  2  0
  9 19  2  0
  9  8  1  0
 10  9  1  0
 11 12  1  0
 11 10  2  0
 12 18  2  0
 13 12  1  0
 14 13  1  1
 14 15  1  0
 16 17  2  0
 16 14  1  0
 18 19  1  0
 21 20  1  1
 21 23  1  0
 22 21  1  0
 23 25  1  0
 23 24  1  6
 24 16  1  0
 25 26  1  0
 27 25  2  0
M  END
$$$$
