GLG.pdb
     RDKit          3D

 17 16  0  0  1  0  0  0  0  0999 V2000
   17.5445  -26.0509   -8.0682 N   0  0  0  0  0  0  0  0  0  0  0  0
   18.2138  -25.7397   -6.8426 C   0  0  0  0  0  0  0  0  0  0  0  0
   17.5135  -26.2658   -5.6497 C   0  0  0  0  0  0  0  0  0  0  0  0
   16.4998  -27.0022   -5.7463 O   0  0  0  0  0  0  0  0  0  0  0  0
   18.5748  -29.1794   -2.6456 C   0  0  0  0  0  0  0  0  0  0  0  0
   19.3280  -27.8357   -2.5943 C   0  0  2  0  0  0  0  0  0  0  0  0
   20.5310  -28.0465   -1.7358 C   0  0  0  0  0  0  0  0  0  0  0  0
   18.3895  -26.7881   -2.1196 C   0  0  0  0  0  0  0  0  0  0  0  0
   17.3766  -26.3652   -3.1252 C   0  0  2  0  0  0  0  0  0  0  0  0
   17.9933  -25.9342   -4.3728 N   0  0  0  0  0  0  0  0  0  0  0  0
   16.3753  -25.3880   -2.6510 C   0  0  0  0  0  0  0  0  0  0  0  0
   15.6720  -25.5623   -1.6293 O   0  0  0  0  0  0  0  0  0  0  0  0
   16.1349  -24.1447   -3.3443 N   0  0  0  0  0  0  0  0  0  0  0  0
   15.2197  -23.1557   -2.8583 C   0  0  0  0  0  0  0  0  0  0  0  0
   13.8485  -23.3144   -3.3185 C   0  0  0  0  0  0  0  0  0  0  0  0
   13.5180  -24.2784   -4.0415 O   0  0  0  0  0  0  0  0  0  0  0  0
   12.8786  -22.3991   -2.9650 O   0  0  0  0  0  0  0  0  0  0  0  0
  1  2  1  0
  2  3  1  0
  3  4  2  0
  3 10  1  0
  6  5  1  1
  7  6  1  0
  8  6  1  0
  9  8  1  1
 10  9  1  0
 11  9  1  0
 11 12  2  0
 13 11  1  0
 14 13  1  0
 14 15  1  0
 15 17  1  0
 16 15  2  0
M  END
$$$$
