GLG.pdb
     RDKit          3D

 17 16  0  0  1  0  0  0  0  0999 V2000
   27.9953  -20.9965  -16.0846 N   0  0  0  0  0  0  0  0  0  0  0  0
   26.8222  -20.2958  -15.6610 C   0  0  0  0  0  0  0  0  0  0  0  0
   25.9614  -21.0964  -14.7619 C   0  0  0  0  0  0  0  0  0  0  0  0
   25.9828  -22.3529  -14.7679 O   0  0  0  0  0  0  0  0  0  0  0  0
   26.0496  -22.2956  -10.9152 C   0  0  0  0  0  0  0  0  0  0  0  0
   25.7517  -20.7852  -10.9895 C   0  0  2  0  0  0  0  0  0  0  0  0
   25.9574  -20.2356   -9.6168 C   0  0  0  0  0  0  0  0  0  0  0  0
   24.3874  -20.6016  -11.5451 C   0  0  0  0  0  0  0  0  0  0  0  0
   24.2127  -21.1098  -12.9333 C   0  0  2  0  0  0  0  0  0  0  0  0
   25.0954  -20.4358  -13.8762 N   0  0  0  0  0  0  0  0  0  0  0  0
   22.8215  -21.1497  -13.4284 C   0  0  0  0  0  0  0  0  0  0  0  0
   21.8901  -21.7270  -12.8218 O   0  0  0  0  0  0  0  0  0  0  0  0
   22.4338  -20.5152  -14.6660 N   0  0  0  0  0  0  0  0  0  0  0  0
   21.0952  -20.5689  -15.1733 C   0  0  0  0  0  0  0  0  0  0  0  0
   20.3972  -19.2924  -15.1899 C   0  0  0  0  0  0  0  0  0  0  0  0
   21.0166  -18.2204  -15.3586 O   0  0  0  0  0  0  0  0  0  0  0  0
   19.0293  -19.2375  -15.0189 O   0  0  0  0  0  0  0  0  0  0  0  0
  1  2  1  0
  2  3  1  0
  3  4  2  0
  3 10  1  0
  6  5  1  1
  7  6  1  0
  8  6  1  0
  9  8  1  1
 10  9  1  0
 11  9  1  0
 11 12  2  0
 13 11  1  0
 14 13  1  0
 14 15  1  0
 15 17  1  0
 16 15  2  0
M  END
$$$$
