GLG.pdb
     RDKit          3D

 17 16  0  0  1  0  0  0  0  0999 V2000
   18.2014  -11.2510  -18.2013 N   0  0  0  0  0  0  0  0  0  0  0  0
   18.3877   -9.8342  -18.1323 C   0  0  0  0  0  0  0  0  0  0  0  0
   18.9117   -9.3812  -16.8244 C   0  0  0  0  0  0  0  0  0  0  0  0
   18.2351   -9.4757  -15.7697 O   0  0  0  0  0  0  0  0  0  0  0  0
   23.6912  -10.2100  -14.0422 C   0  0  0  0  0  0  0  0  0  0  0  0
   22.2741   -9.6050  -14.0804 C   0  0  2  0  0  0  0  0  0  0  0  0
   21.3144  -10.7460  -14.0042 C   0  0  0  0  0  0  0  0  0  0  0  0
   22.1556   -8.7606  -15.2955 C   0  0  0  0  0  0  0  0  0  0  0  0
   20.7839   -8.2449  -15.5574 C   0  0  2  0  0  0  0  0  0  0  0  0
   20.2010   -8.8299  -16.7576 N   0  0  0  0  0  0  0  0  0  0  0  0
   20.6420   -6.7745  -15.5486 C   0  0  0  0  0  0  0  0  0  0  0  0
   21.0776   -6.0454  -14.6281 O   0  0  0  0  0  0  0  0  0  0  0  0
   19.9805   -6.0656  -16.6183 N   0  0  0  0  0  0  0  0  0  0  0  0
   19.7898   -4.6460  -16.5998 C   0  0  0  0  0  0  0  0  0  0  0  0
   18.5350   -4.2064  -16.0088 C   0  0  0  0  0  0  0  0  0  0  0  0
   18.2083   -3.0004  -16.0110 O   0  0  0  0  0  0  0  0  0  0  0  0
   17.6743   -5.1162  -15.4302 O   0  0  0  0  0  0  0  0  0  0  0  0
  1  2  1  0
  2  3  1  0
  3  4  2  0
  3 10  1  0
  6  5  1  6
  7  6  1  0
  8  6  1  0
  9  8  1  6
 10  9  1  0
 11  9  1  0
 11 12  2  0
 13 11  1  0
 14 13  1  0
 14 15  1  0
 15 17  1  0
 16 15  2  0
M  END
$$$$
