GLG.pdb
     RDKit          3D

 17 16  0  0  1  0  0  0  0  0999 V2000
   21.7545  -12.4205  -18.5725 N   0  0  0  0  0  0  0  0  0  0  0  0
   21.8027  -10.9913  -18.6128 C   0  0  0  0  0  0  0  0  0  0  0  0
   22.3560  -10.3946  -17.3766 C   0  0  0  0  0  0  0  0  0  0  0  0
   21.8809  -10.6565  -16.2431 O   0  0  0  0  0  0  0  0  0  0  0  0
   25.7516  -10.8040  -14.8936 C   0  0  0  0  0  0  0  0  0  0  0  0
   26.0245  -10.1855  -16.2787 C   0  0  2  0  0  0  0  0  0  0  0  0
   27.4964  -10.2769  -16.5110 C   0  0  0  0  0  0  0  0  0  0  0  0
   25.4666   -8.8099  -16.2979 C   0  0  0  0  0  0  0  0  0  0  0  0
   23.9803   -8.7474  -16.3519 C   0  0  2  0  0  0  0  0  0  0  0  0
   23.4424   -9.5106  -17.4703 N   0  0  0  0  0  0  0  0  0  0  0  0
   23.3956   -7.3922  -16.2909 C   0  0  0  0  0  0  0  0  0  0  0  0
   23.3227   -6.6276  -17.2804 O   0  0  0  0  0  0  0  0  0  0  0  0
   22.8593   -6.8472  -15.0663 N   0  0  0  0  0  0  0  0  0  0  0  0
   22.3701   -5.5043  -14.9695 C   0  0  0  0  0  0  0  0  0  0  0  0
   20.9408   -5.3574  -15.1991 C   0  0  0  0  0  0  0  0  0  0  0  0
   20.2399   -6.3311  -15.5484 O   0  0  0  0  0  0  0  0  0  0  0  0
   20.3252   -4.1336  -15.0354 O   0  0  0  0  0  0  0  0  0  0  0  0
  1  2  1  0
  2  3  1  0
  3  4  2  0
  3 10  1  0
  6  5  1  1
  7  6  1  0
  8  6  1  0
  9  8  1  6
 10  9  1  0
 11  9  1  0
 11 12  2  0
 13 11  1  0
 14 13  1  0
 14 15  1  0
 15 17  1  0
 16 15  2  0
M  END
$$$$
