GLG.pdb
     RDKit          3D

 17 16  0  0  1  0  0  0  0  0999 V2000
   28.6037  -19.9901  -16.3890 N   0  0  0  0  0  0  0  0  0  0  0  0
   27.9997  -19.3437  -15.2648 C   0  0  0  0  0  0  0  0  0  0  0  0
   27.4851  -20.2962  -14.2557 C   0  0  0  0  0  0  0  0  0  0  0  0
   26.9868  -21.4030  -14.5813 O   0  0  0  0  0  0  0  0  0  0  0  0
   29.5966  -22.4552  -11.8549 C   0  0  0  0  0  0  0  0  0  0  0  0
   29.4374  -21.0837  -11.1698 C   0  0  2  0  0  0  0  0  0  0  0  0
   30.4641  -21.0188  -10.0880 C   0  0  0  0  0  0  0  0  0  0  0  0
   28.0312  -20.9455  -10.7147 C   0  0  0  0  0  0  0  0  0  0  0  0
   27.0398  -20.7847  -11.8134 C   0  0  2  0  0  0  0  0  0  0  0  0
   27.5543  -19.9559  -12.8956 N   0  0  0  0  0  0  0  0  0  0  0  0
   25.6896  -20.3537  -11.3971 C   0  0  0  0  0  0  0  0  0  0  0  0
   25.4834  -19.4405  -10.5650 O   0  0  0  0  0  0  0  0  0  0  0  0
   24.4954  -20.9657  -11.9298 N   0  0  0  0  0  0  0  0  0  0  0  0
   23.1794  -20.5265  -11.5732 C   0  0  0  0  0  0  0  0  0  0  0  0
   22.0974  -21.2484  -12.2252 C   0  0  0  0  0  0  0  0  0  0  0  0
   22.3318  -22.1992  -13.0013 O   0  0  0  0  0  0  0  0  0  0  0  0
   20.7825  -20.8971  -11.9997 O   0  0  0  0  0  0  0  0  0  0  0  0
  1  2  1  0
  2  3  1  0
  3  4  2  0
  3 10  1  0
  6  5  1  1
  7  6  1  0
  8  6  1  0
  9  8  1  1
 10  9  1  0
 11  9  1  0
 11 12  2  0
 13 11  1  0
 14 13  1  0
 14 15  1  0
 15 17  1  0
 16 15  2  0
M  END
$$$$
