GLG.pdb
     RDKit          3D

 17 16  0  0  1  0  0  0  0  0999 V2000
   16.2232  -11.2138  -16.9282 N   0  0  0  0  0  0  0  0  0  0  0  0
   17.1086  -10.1231  -17.1984 C   0  0  0  0  0  0  0  0  0  0  0  0
   18.0884   -9.8893  -16.1141 C   0  0  0  0  0  0  0  0  0  0  0  0
   17.7988  -10.0778  -14.9059 O   0  0  0  0  0  0  0  0  0  0  0  0
   23.9539  -10.3138  -14.9387 C   0  0  0  0  0  0  0  0  0  0  0  0
   22.6394   -9.6170  -14.5360 C   0  0  2  0  0  0  0  0  0  0  0  0
   22.2687  -10.1387  -13.1873 C   0  0  0  0  0  0  0  0  0  0  0  0
   21.6349   -9.8550  -15.6028 C   0  0  0  0  0  0  0  0  0  0  0  0
   20.3872   -9.0547  -15.4654 C   0  0  2  0  0  0  0  0  0  0  0  0
   19.3788   -9.4442  -16.4421 N   0  0  0  0  0  0  0  0  0  0  0  0
   20.5692   -7.5891  -15.4308 C   0  0  0  0  0  0  0  0  0  0  0  0
   20.7927   -6.8980  -16.4512 O   0  0  0  0  0  0  0  0  0  0  0  0
   20.5007   -6.8407  -14.1981 N   0  0  0  0  0  0  0  0  0  0  0  0
   20.6116   -5.4132  -14.1559 C   0  0  0  0  0  0  0  0  0  0  0  0
   21.9679   -4.9024  -14.2841 C   0  0  0  0  0  0  0  0  0  0  0  0
   22.2024   -3.6759  -14.2393 O   0  0  0  0  0  0  0  0  0  0  0  0
   23.0300   -5.7654  -14.4590 O   0  0  0  0  0  0  0  0  0  0  0  0
  1  2  1  0
  2  3  1  0
  3  4  2  0
  3 10  1  0
  6  5  1  6
  7  6  1  0
  8  6  1  0
  9  8  1  6
 10  9  1  0
 11  9  1  0
 11 12  2  0
 13 11  1  0
 14 13  1  0
 14 15  1  0
 15 17  1  0
 16 15  2  0
M  END
$$$$
