GLG.pdb
     RDKit          3D

 17 16  0  0  1  0  0  0  0  0999 V2000
   28.5942  -26.3546  -16.8830 N   0  0  0  0  0  0  0  0  0  0  0  0
   28.3439  -27.4676  -16.0197 C   0  0  0  0  0  0  0  0  0  0  0  0
   27.9756  -28.6991  -16.7532 C   0  0  0  0  0  0  0  0  0  0  0  0
   27.8566  -28.7159  -18.0041 O   0  0  0  0  0  0  0  0  0  0  0  0
   29.8801  -32.1311  -18.1800 C   0  0  0  0  0  0  0  0  0  0  0  0
   29.7876  -31.9902  -16.6480 C   0  0  2  0  0  0  0  0  0  0  0  0
   30.7912  -32.9296  -16.0657 C   0  0  0  0  0  0  0  0  0  0  0  0
   28.3820  -32.2340  -16.2372 C   0  0  0  0  0  0  0  0  0  0  0  0
   27.4267  -31.1665  -16.6419 C   0  0  2  0  0  0  0  0  0  0  0  0
   27.7524  -29.8835  -16.0334 N   0  0  0  0  0  0  0  0  0  0  0  0
   25.9957  -31.4948  -16.4787 C   0  0  0  0  0  0  0  0  0  0  0  0
   25.2748  -31.0070  -15.5781 O   0  0  0  0  0  0  0  0  0  0  0  0
   25.3189  -32.4159  -17.3608 N   0  0  0  0  0  0  0  0  0  0  0  0
   23.9301  -32.7377  -17.2207 C   0  0  0  0  0  0  0  0  0  0  0  0
   23.4365  -33.7332  -18.1601 C   0  0  0  0  0  0  0  0  0  0  0  0
   24.1346  -34.1123  -19.1246 O   0  0  0  0  0  0  0  0  0  0  0  0
   22.1806  -34.2830  -18.0055 O   0  0  0  0  0  0  0  0  0  0  0  0
  1  2  1  0
  2  3  1  0
  3  4  2  0
  3 10  1  0
  6  5  1  6
  7  6  1  0
  8  6  1  0
  9  8  1  1
 10  9  1  0
 11  9  1  0
 11 12  2  0
 13 11  1  0
 14 13  1  0
 14 15  1  0
 15 17  1  0
 16 15  2  0
M  END
$$$$
