GLG.pdb
     RDKit          3D

 17 16  0  0  1  0  0  0  0  0999 V2000
   20.3322  -10.8403  -19.1142 N   0  0  0  0  0  0  0  0  0  0  0  0
   21.2787  -11.7615  -18.5647 C   0  0  0  0  0  0  0  0  0  0  0  0
   21.5981  -11.4874  -17.1458 C   0  0  0  0  0  0  0  0  0  0  0  0
   20.8427  -11.8573  -16.2122 O   0  0  0  0  0  0  0  0  0  0  0  0
   24.0969  -13.0413  -14.2060 C   0  0  0  0  0  0  0  0  0  0  0  0
   24.8551  -12.3125  -15.3327 C   0  0  2  0  0  0  0  0  0  0  0  0
   26.2878  -12.7175  -15.2223 C   0  0  0  0  0  0  0  0  0  0  0  0
   24.5994  -10.8557  -15.2060 C   0  0  0  0  0  0  0  0  0  0  0  0
   23.1932  -10.4500  -15.4781 C   0  0  2  0  0  0  0  0  0  0  0  0
   22.7780  -10.7948  -16.8314 N   0  0  0  0  0  0  0  0  0  0  0  0
   22.8578   -9.0493  -15.1498 C   0  0  0  0  0  0  0  0  0  0  0  0
   23.1122   -8.5207  -14.0432 O   0  0  0  0  0  0  0  0  0  0  0  0
   22.2030   -8.1793  -16.0979 N   0  0  0  0  0  0  0  0  0  0  0  0
   21.8506   -6.8262  -15.7866 C   0  0  0  0  0  0  0  0  0  0  0  0
   20.4928   -6.6466  -15.2956 C   0  0  0  0  0  0  0  0  0  0  0  0
   19.7275   -7.6225  -15.1428 O   0  0  0  0  0  0  0  0  0  0  0  0
   20.0182   -5.3886  -14.9866 O   0  0  0  0  0  0  0  0  0  0  0  0
  1  2  1  0
  2  3  1  0
  3  4  2  0
  3 10  1  0
  6  5  1  1
  7  6  1  0
  8  6  1  0
  9  8  1  6
 10  9  1  0
 11  9  1  0
 11 12  2  0
 13 11  1  0
 14 13  1  0
 14 15  1  0
 15 17  1  0
 16 15  2  0
M  END
$$$$
