GLG.pdb
     RDKit          3D

 17 16  0  0  1  0  0  0  0  0999 V2000
   26.9504  -17.5387  -16.7380 N   0  0  0  0  0  0  0  0  0  0  0  0
   26.8353  -17.4952  -15.3127 C   0  0  0  0  0  0  0  0  0  0  0  0
   26.6045  -18.8265  -14.7087 C   0  0  0  0  0  0  0  0  0  0  0  0
   26.1446  -19.7871  -15.3757 O   0  0  0  0  0  0  0  0  0  0  0  0
   29.1102  -21.7707  -13.3244 C   0  0  0  0  0  0  0  0  0  0  0  0
   29.0340  -20.6226  -12.2990 C   0  0  2  0  0  0  0  0  0  0  0  0
   30.1663  -20.8178  -11.3459 C   0  0  0  0  0  0  0  0  0  0  0  0
   27.6829  -20.6300  -11.6840 C   0  0  0  0  0  0  0  0  0  0  0  0
   26.5832  -20.2325  -12.6052 C   0  0  2  0  0  0  0  0  0  0  0  0
   26.9071  -19.0243  -13.3522 N   0  0  0  0  0  0  0  0  0  0  0  0
   25.2396  -20.1484  -11.9970 C   0  0  0  0  0  0  0  0  0  0  0  0
   25.0044  -19.5433  -10.9259 O   0  0  0  0  0  0  0  0  0  0  0  0
   24.0865  -20.7683  -12.6057 N   0  0  0  0  0  0  0  0  0  0  0  0
   22.7671  -20.6426  -12.0624 C   0  0  0  0  0  0  0  0  0  0  0  0
   21.7149  -21.2402  -12.8703 C   0  0  0  0  0  0  0  0  0  0  0  0
   21.9867  -21.9335  -13.8736 O   0  0  0  0  0  0  0  0  0  0  0  0
   20.3873  -21.0534  -12.5444 O   0  0  0  0  0  0  0  0  0  0  0  0
  1  2  1  0
  2  3  1  0
  3  4  2  0
  3 10  1  0
  6  5  1  6
  7  6  1  0
  8  6  1  0
  9  8  1  1
 10  9  1  0
 11  9  1  0
 11 12  2  0
 13 11  1  0
 14 13  1  0
 14 15  1  0
 15 17  1  0
 16 15  2  0
M  END
$$$$
