GLG.pdb
     RDKit          3D

 17 16  0  0  1  0  0  0  0  0999 V2000
   22.7310  -12.2865  -19.5012 N   0  0  0  0  0  0  0  0  0  0  0  0
   22.7758  -10.8623  -19.3739 C   0  0  0  0  0  0  0  0  0  0  0  0
   23.2672  -10.4134  -18.0520 C   0  0  0  0  0  0  0  0  0  0  0  0
   22.7816  -10.8527  -16.9794 O   0  0  0  0  0  0  0  0  0  0  0  0
   26.4161  -11.0423  -15.3470 C   0  0  0  0  0  0  0  0  0  0  0  0
   26.8196  -10.3563  -16.6668 C   0  0  2  0  0  0  0  0  0  0  0  0
   28.3045  -10.4665  -16.7753 C   0  0  0  0  0  0  0  0  0  0  0  0
   26.2885   -8.9701  -16.6581 C   0  0  0  0  0  0  0  0  0  0  0  0
   24.8063   -8.8764  -16.7596 C   0  0  2  0  0  0  0  0  0  0  0  0
   24.3051   -9.4702  -17.9920 N   0  0  0  0  0  0  0  0  0  0  0  0
   24.2345   -7.5330  -16.5350 C   0  0  0  0  0  0  0  0  0  0  0  0
   24.5828   -6.5185  -17.1817 O   0  0  0  0  0  0  0  0  0  0  0  0
   23.2181   -7.2934  -15.5380 N   0  0  0  0  0  0  0  0  0  0  0  0
   22.6294   -6.0039  -15.3319 C   0  0  0  0  0  0  0  0  0  0  0  0
   21.4030   -5.7666  -16.0781 C   0  0  0  0  0  0  0  0  0  0  0  0
   20.9755   -6.6048  -16.9004 O   0  0  0  0  0  0  0  0  0  0  0  0
   20.6817   -4.6052  -15.8930 O   0  0  0  0  0  0  0  0  0  0  0  0
  1  2  1  0
  2  3  1  0
  3  4  2  0
  3 10  1  0
  6  5  1  1
  7  6  1  0
  8  6  1  0
  9  8  1  6
 10  9  1  0
 11  9  1  0
 11 12  2  0
 13 11  1  0
 14 13  1  0
 14 15  1  0
 15 17  1  0
 16 15  2  0
M  END
$$$$
