GLG.pdb
     RDKit          3D

 17 16  0  0  1  0  0  0  0  0999 V2000
   23.3976  -16.3453  -17.7005 N   0  0  0  0  0  0  0  0  0  0  0  0
   23.1280  -15.0075  -18.1297 C   0  0  0  0  0  0  0  0  0  0  0  0
   23.4371  -13.9937  -17.0967 C   0  0  0  0  0  0  0  0  0  0  0  0
   22.8852  -14.0070  -15.9677 O   0  0  0  0  0  0  0  0  0  0  0  0
   26.8501  -13.4520  -14.8682 C   0  0  0  0  0  0  0  0  0  0  0  0
   26.9630  -12.8883  -16.2982 C   0  0  2  0  0  0  0  0  0  0  0  0
   28.4185  -12.7144  -16.5811 C   0  0  0  0  0  0  0  0  0  0  0  0
   26.1513  -11.6481  -16.3806 C   0  0  0  0  0  0  0  0  0  0  0  0
   24.6847  -11.8766  -16.4942 C   0  0  2  0  0  0  0  0  0  0  0  0
   24.3730  -12.9875  -17.3837 N   0  0  0  0  0  0  0  0  0  0  0  0
   23.8755  -10.6832  -16.8152 C   0  0  0  0  0  0  0  0  0  0  0  0
   23.7386  -10.2351  -17.9767 O   0  0  0  0  0  0  0  0  0  0  0  0
   23.1753   -9.9393  -15.7949 N   0  0  0  0  0  0  0  0  0  0  0  0
   22.4178   -8.7586  -16.0850 C   0  0  0  0  0  0  0  0  0  0  0  0
   23.1678   -7.5150  -15.9954 C   0  0  0  0  0  0  0  0  0  0  0  0
   24.4106   -7.5188  -15.8664 O   0  0  0  0  0  0  0  0  0  0  0  0
   22.5197   -6.2983  -16.0511 O   0  0  0  0  0  0  0  0  0  0  0  0
  1  2  1  0
  2  3  1  0
  3  4  2  0
  3 10  1  0
  6  5  1  1
  7  6  1  0
  8  6  1  0
  9  8  1  6
 10  9  1  0
 11  9  1  0
 11 12  2  0
 13 11  1  0
 14 13  1  0
 14 15  1  0
 15 17  1  0
 16 15  2  0
M  END
$$$$
