GLG.pdb
     RDKit          3D

 17 16  0  0  1  0  0  0  0  0999 V2000
   19.3939  -11.0444  -19.0264 N   0  0  0  0  0  0  0  0  0  0  0  0
   20.4885  -10.2255  -18.6045 C   0  0  0  0  0  0  0  0  0  0  0  0
   20.6728  -10.2153  -17.1361 C   0  0  0  0  0  0  0  0  0  0  0  0
   19.7442  -10.5262  -16.3486 O   0  0  0  0  0  0  0  0  0  0  0  0
   22.1435  -12.6581  -14.1337 C   0  0  0  0  0  0  0  0  0  0  0  0
   23.2141  -12.1482  -15.1183 C   0  0  2  0  0  0  0  0  0  0  0  0
   24.4225  -13.0032  -14.9244 C   0  0  0  0  0  0  0  0  0  0  0  0
   23.4217  -10.6981  -14.8781 C   0  0  0  0  0  0  0  0  0  0  0  0
   22.2398   -9.8464  -15.1842 C   0  0  2  0  0  0  0  0  0  0  0  0
   21.9194   -9.8481  -16.6054 N   0  0  0  0  0  0  0  0  0  0  0  0
   22.2846   -8.4731  -14.6415 C   0  0  0  0  0  0  0  0  0  0  0  0
   22.4304   -8.2174  -13.4240 O   0  0  0  0  0  0  0  0  0  0  0  0
   22.1612   -7.3126  -15.4914 N   0  0  0  0  0  0  0  0  0  0  0  0
   22.2329   -5.9748  -14.9843 C   0  0  0  0  0  0  0  0  0  0  0  0
   20.9444   -5.3515  -14.7226 C   0  0  0  0  0  0  0  0  0  0  0  0
   19.8783   -5.9851  -14.8751 O   0  0  0  0  0  0  0  0  0  0  0  0
   20.8715   -4.0408  -14.2983 O   0  0  0  0  0  0  0  0  0  0  0  0
  1  2  1  0
  2  3  1  0
  3  4  2  0
  3 10  1  0
  6  5  1  1
  7  6  1  0
  8  6  1  0
  9  8  1  6
 10  9  1  0
 11  9  1  0
 11 12  2  0
 13 11  1  0
 14 13  1  0
 14 15  1  0
 15 17  1  0
 16 15  2  0
M  END
$$$$
