GLG.pdb
     RDKit          3D

 17 16  0  0  1  0  0  0  0  0999 V2000
   18.8986  -11.0041  -18.6078 N   0  0  0  0  0  0  0  0  0  0  0  0
   19.2869   -9.6875  -18.2045 C   0  0  0  0  0  0  0  0  0  0  0  0
   19.8592   -9.6440  -16.8404 C   0  0  0  0  0  0  0  0  0  0  0  0
   19.2419  -10.1032  -15.8468 O   0  0  0  0  0  0  0  0  0  0  0  0
   22.5343  -11.6147  -14.1554 C   0  0  0  0  0  0  0  0  0  0  0  0
   23.1370  -11.0268  -15.4464 C   0  0  2  0  0  0  0  0  0  0  0  0
   24.4846  -11.6464  -15.6160 C   0  0  0  0  0  0  0  0  0  0  0  0
   23.1321   -9.5464  -15.3362 C   0  0  0  0  0  0  0  0  0  0  0  0
   21.7769   -8.9308  -15.3520 C   0  0  2  0  0  0  0  0  0  0  0  0
   21.1276   -9.0740  -16.6483 N   0  0  0  0  0  0  0  0  0  0  0  0
   21.7017   -7.5398  -14.8601 C   0  0  0  0  0  0  0  0  0  0  0  0
   22.0765   -7.1917  -13.7167 O   0  0  0  0  0  0  0  0  0  0  0  0
   21.1824   -6.4687  -15.6771 N   0  0  0  0  0  0  0  0  0  0  0  0
   21.0871   -5.1185  -15.2084 C   0  0  0  0  0  0  0  0  0  0  0  0
   22.1746   -4.2482  -15.6292 C   0  0  0  0  0  0  0  0  0  0  0  0
   23.1327   -4.6902  -16.2986 O   0  0  0  0  0  0  0  0  0  0  0  0
   22.1714   -2.9092  -15.2968 O   0  0  0  0  0  0  0  0  0  0  0  0
  1  2  1  0
  2  3  1  0
  3  4  2  0
  3 10  1  0
  6  5  1  1
  7  6  1  0
  8  6  1  0
  9  8  1  6
 10  9  1  0
 11  9  1  0
 11 12  2  0
 13 11  1  0
 14 13  1  0
 14 15  1  0
 15 17  1  0
 16 15  2  0
M  END
$$$$
