RRV.pdb
     RDKit          3D

 30 29  0  0  1  0  0  0  0  0999 V2000
    8.6848  -16.6968   14.9146 N   0  0  0  0  0  0  0  0  0  0  0  0
    8.5825  -15.3450   14.4862 C   0  0  0  0  0  0  0  0  0  0  0  0
    8.6612  -15.0631   13.2279 N   0  0  0  0  0  0  0  0  0  0  0  0
    8.3960  -14.3262   15.4421 N   0  0  0  0  0  0  0  0  0  0  0  0
    8.0905  -14.6435   16.8190 C   0  0  0  0  0  0  0  0  0  0  0  0
    7.8058  -13.3961   17.5932 C   0  0  0  0  0  0  0  0  0  0  0  0
    7.3188  -13.6895   18.9884 C   0  0  0  0  0  0  0  0  0  0  0  0
    8.4755  -14.0615   19.8924 C   0  0  2  0  0  0  0  0  0  0  0  0
    9.3060  -15.0761   19.2997 N   0  0  0  0  0  0  0  0  0  0  0  0
    7.9880  -14.4608   21.2462 C   0  0  0  0  0  0  0  0  0  0  0  0
    7.2757  -13.6253   21.8372 O   0  0  0  0  0  0  0  0  0  0  0  0
    8.6812  -14.0753   12.8949 N   0  0  0  0  0  0  0  0  0  0  0  0
    6.8598  -21.3903   27.5161 C   0  0  0  0  0  0  0  0  0  0  0  0
    7.2618  -20.0384   27.3700 N   0  0  0  0  0  0  0  0  0  0  0  0
    6.7565  -19.1298   28.1589 N   0  0  0  0  0  0  0  0  0  0  0  0
    8.2087  -19.6770   26.3708 C   0  0  0  0  0  0  0  0  0  0  0  0
    7.7288  -19.4381   25.0490 C   0  0  0  0  0  0  0  0  0  0  0  0
    7.5792  -17.9738   24.7225 C   0  0  0  0  0  0  0  0  0  0  0  0
    8.0726  -17.6133   23.3669 C   0  0  2  0  0  0  0  0  0  0  0  0
    7.8886  -16.1569   23.1221 N   0  0  0  0  0  0  0  0  0  0  0  0
    8.3006  -15.6933   21.8334 C   0  0  0  0  0  0  0  0  0  0  0  0
    8.3432  -15.2708   24.2124 O   0  0  0  0  0  0  0  0  0  0  0  0
    9.5542  -15.1073   24.4289 C   0  0  0  0  0  0  0  0  0  0  0  0
    7.0856  -18.1608   28.1122 C   0  0  1  0  0  0  0  0  0  0  0  0
    7.5080  -11.4410   27.1047 C   0  0  0  0  0  0  0  0  0  0  0  0
    6.9505  -12.4680   26.1584 C   0  0  2  0  0  0  0  0  0  0  0  0
    5.6413  -13.0297   26.7021 N   0  0  0  0  0  0  0  0  0  0  0  0
    7.9248  -13.5921   26.0145 C   0  0  0  0  0  0  0  0  0  0  0  0
    7.4308  -14.5697   25.0581 O   0  0  0  0  0  0  0  0  0  0  0  0
    8.2129  -14.2335   27.3322 O   0  0  0  0  0  0  0  0  0  0  0  0
  2  1  1  0
  2  3  2  0
  4  2  1  0
  5  4  1  0
  6  5  1  0
  7  6  1  0
  8  7  1  0
  8  9  1  6
 10  8  1  0
 10 11  2  0
 13 12  1  0
 13 14  2  0
 15 13  1  0
 16 15  1  0
 17 16  1  0
 19 18  1  6
 18 17  1  0
 19 20  1  0
 20 10  1  0
 21 19  1  0
 22 21  2  0
 24 23  1  1
 24 26  1  0
 25 24  1  0
 26 28  1  0
 26 27  1  6
 27 21  1  0
 28 30  1  0
 29 28  2  0
M  END
$$$$
