RRV.pdb
     RDKit          3D

 30 29  0  0  1  0  0  0  0  0999 V2000
    8.4765  -15.9946   16.0141 N   0  0  0  0  0  0  0  0  0  0  0  0
    8.5175  -14.6863   15.4592 C   0  0  0  0  0  0  0  0  0  0  0  0
    8.1583  -14.4981   14.2326 N   0  0  0  0  0  0  0  0  0  0  0  0
    8.9508  -13.6076   16.2561 N   0  0  0  0  0  0  0  0  0  0  0  0
    8.9913  -13.7153   17.6971 C   0  0  0  0  0  0  0  0  0  0  0  0
    7.6071  -13.6937   18.2631 C   0  0  0  0  0  0  0  0  0  0  0  0
    7.6069  -13.6980   19.7697 C   0  0  0  0  0  0  0  0  0  0  0  0
    7.8053  -15.1021   20.3014 C   0  0  2  0  0  0  0  0  0  0  0  0
    7.4199  -16.0945   19.3333 N   0  0  0  0  0  0  0  0  0  0  0  0
    7.0944  -15.2861   21.6016 C   0  0  0  0  0  0  0  0  0  0  0  0
    6.1861  -14.4679   21.8465 O   0  0  0  0  0  0  0  0  0  0  0  0
    8.2382  -13.5609   13.7830 N   0  0  0  0  0  0  0  0  0  0  0  0
   10.4232  -19.1823   24.9082 C   0  0  0  0  0  0  0  0  0  0  0  0
   10.0177  -19.6600   26.1802 N   0  0  0  0  0  0  0  0  0  0  0  0
   10.8323  -19.5553   27.1946 N   0  0  0  0  0  0  0  0  0  0  0  0
    8.7328  -20.2484   26.3478 C   0  0  0  0  0  0  0  0  0  0  0  0
    7.6723  -19.7901   25.5111 C   0  0  0  0  0  0  0  0  0  0  0  0
    7.8204  -18.3491   25.0931 C   0  0  0  0  0  0  0  0  0  0  0  0
    6.6754  -17.8417   24.2916 C   0  0  1  0  0  0  0  0  0  0  0  0
    6.9370  -16.4461   23.8455 N   0  0  0  0  0  0  0  0  0  0  0  0
    7.4133  -16.3086   22.5040 C   0  0  0  0  0  0  0  0  0  0  0  0
    7.6904  -15.6086   24.8003 O   0  0  0  0  0  0  0  0  0  0  0  0
    8.9251  -15.5137   24.7184 C   0  0  0  0  0  0  0  0  0  0  0  0
   10.5573  -19.9012   28.1187 C   0  0  2  0  0  0  0  0  0  0  0  0
    6.1642  -12.1662   26.1938 C   0  0  0  0  0  0  0  0  0  0  0  0
    6.8879  -12.9271   27.2699 C   0  0  1  0  0  0  0  0  0  0  0  0
    7.7190  -11.9735   28.1215 N   0  0  0  0  0  0  0  0  0  0  0  0
    7.8068  -13.9242   26.6415 C   0  0  0  0  0  0  0  0  0  0  0  0
    7.0499  -14.8786   25.8473 O   0  0  0  0  0  0  0  0  0  0  0  0
    8.6347  -14.6234   27.6694 O   0  0  0  0  0  0  0  0  0  0  0  0
  2  1  1  0
  2  3  2  0
  4  2  1  0
  5  4  1  0
  6  5  1  0
  7  6  1  0
  8  7  1  0
  8  9  1  6
 10  8  1  0
 10 11  2  0
 13 12  1  0
 13 14  2  0
 15 13  1  0
 16 15  1  0
 17 16  1  0
 19 18  1  6
 18 17  1  0
 19 20  1  0
 20 10  1  0
 21 19  1  0
 22 21  2  0
 24 23  1  6
 24 26  1  0
 25 24  1  0
 26 28  1  0
 26 27  1  6
 27 21  1  0
 28 30  1  0
 29 28  2  0
M  END
$$$$
