RRV.pdb
     RDKit          3D

 30 29  0  0  1  0  0  0  0  0999 V2000
    6.2770  -17.1088   16.4972 N   0  0  0  0  0  0  0  0  0  0  0  0
    7.6900  -17.1726   16.3532 C   0  0  0  0  0  0  0  0  0  0  0  0
    8.3169  -18.2617   16.6528 N   0  0  0  0  0  0  0  0  0  0  0  0
    8.3915  -16.0438   15.8840 N   0  0  0  0  0  0  0  0  0  0  0  0
    8.2317  -14.7525   16.5141 C   0  0  0  0  0  0  0  0  0  0  0  0
    8.1710  -14.8993   18.0012 C   0  0  0  0  0  0  0  0  0  0  0  0
    7.3227  -13.8336   18.6452 C   0  0  0  0  0  0  0  0  0  0  0  0
    8.0550  -13.1957   19.8072 C   0  0  2  0  0  0  0  0  0  0  0  0
    9.4665  -13.0879   19.5490 N   0  0  0  0  0  0  0  0  0  0  0  0
    7.7753  -13.9252   21.0798 C   0  0  0  0  0  0  0  0  0  0  0  0
    6.5964  -13.8840   21.4838 O   0  0  0  0  0  0  0  0  0  0  0  0
    9.3494  -18.3424   16.5326 N   0  0  0  0  0  0  0  0  0  0  0  0
    6.7658  -20.9766   24.9271 C   0  0  0  0  0  0  0  0  0  0  0  0
    7.0635  -20.0491   25.9575 N   0  0  0  0  0  0  0  0  0  0  0  0
    6.4272  -20.1267   27.0943 N   0  0  0  0  0  0  0  0  0  0  0  0
    8.0484  -19.0425   25.7522 C   0  0  0  0  0  0  0  0  0  0  0  0
    8.1442  -18.4541   24.4563 C   0  0  0  0  0  0  0  0  0  0  0  0
    9.1022  -17.2915   24.3966 C   0  0  0  0  0  0  0  0  0  0  0  0
    9.2298  -16.6949   23.0406 C   0  0  1  0  0  0  0  0  0  0  0  0
    8.5867  -15.3532   23.0055 N   0  0  0  0  0  0  0  0  0  0  0  0
    8.7626  -14.6189   21.7908 C   0  0  0  0  0  0  0  0  0  0  0  0
    8.8000  -14.5190   24.2051 O   0  0  0  0  0  0  0  0  0  0  0  0
    9.8952  -13.9707   24.4055 C   0  0  0  0  0  0  0  0  0  0  0  0
    6.6263  -19.4610   27.8470 C   0  0  2  0  0  0  0  0  0  0  0  0
    5.6622  -13.5169   26.8656 C   0  0  0  0  0  0  0  0  0  0  0  0
    6.8934  -12.6654   26.7249 C   0  0  2  0  0  0  0  0  0  0  0  0
    6.7022  -11.6426   25.6103 N   0  0  0  0  0  0  0  0  0  0  0  0
    8.0603  -13.5321   26.3776 C   0  0  0  0  0  0  0  0  0  0  0  0
    7.7772  -14.3039   25.1781 O   0  0  0  0  0  0  0  0  0  0  0  0
    8.4288  -14.4284   27.5140 O   0  0  0  0  0  0  0  0  0  0  0  0
  2  1  1  0
  2  3  2  0
  4  2  1  0
  5  4  1  0
  6  5  1  0
  7  6  1  0
  8  7  1  0
  8  9  1  6
 10  8  1  0
 10 11  2  0
 13 12  1  0
 13 14  2  0
 15 13  1  0
 16 15  1  0
 17 16  1  0
 19 18  1  6
 18 17  1  0
 19 20  1  0
 20 10  1  0
 21 19  1  0
 22 21  2  0
 24 23  1  6
 24 26  1  0
 25 24  1  0
 26 28  1  0
 26 27  1  6
 27 21  1  0
 28 30  1  0
 29 28  2  0
M  END
$$$$
