RRV.pdb
     RDKit          3D

 30 29  0  0  1  0  0  0  0  0999 V2000
    8.5951  -11.2446   19.2051 N   0  0  0  0  0  0  0  0  0  0  0  0
    8.6612  -12.6628   19.1302 C   0  0  0  0  0  0  0  0  0  0  0  0
    9.6157  -13.2932   19.7306 N   0  0  0  0  0  0  0  0  0  0  0  0
    7.6820  -13.3658   18.3998 N   0  0  0  0  0  0  0  0  0  0  0  0
    7.7802  -14.7950   18.2062 C   0  0  0  0  0  0  0  0  0  0  0  0
    6.9924  -15.5203   19.2503 C   0  0  0  0  0  0  0  0  0  0  0  0
    7.4764  -16.9328   19.4510 C   0  0  0  0  0  0  0  0  0  0  0  0
    8.5434  -16.9860   20.5244 C   0  0  2  0  0  0  0  0  0  0  0  0
    9.1088  -18.3038   20.6444 N   0  0  0  0  0  0  0  0  0  0  0  0
    8.0146  -16.4855   21.8281 C   0  0  0  0  0  0  0  0  0  0  0  0
    7.6340  -15.2983   21.8421 O   0  0  0  0  0  0  0  0  0  0  0  0
    9.6914  -14.3320   19.6842 N   0  0  0  0  0  0  0  0  0  0  0  0
   10.4915  -18.1373   28.1820 C   0  0  0  0  0  0  0  0  0  0  0  0
   10.3055  -19.5430   28.1991 N   0  0  0  0  0  0  0  0  0  0  0  0
   10.6805  -20.2272   29.2452 N   0  0  0  0  0  0  0  0  0  0  0  0
    9.7147  -20.2006   27.0839 C   0  0  0  0  0  0  0  0  0  0  0  0
    8.4565  -19.7208   26.6132 C   0  0  0  0  0  0  0  0  0  0  0  0
    8.5769  -18.5451   25.6771 C   0  0  0  0  0  0  0  0  0  0  0  0
    7.2660  -17.9959   25.2403 C   0  0  1  0  0  0  0  0  0  0  0  0
    7.4698  -16.8890   24.2666 N   0  0  0  0  0  0  0  0  0  0  0  0
    7.9424  -17.2847   22.9760 C   0  0  0  0  0  0  0  0  0  0  0  0
    8.1856  -15.7093   24.7922 O   0  0  0  0  0  0  0  0  0  0  0  0
    9.4198  -15.6247   24.6937 C   0  0  0  0  0  0  0  0  0  0  0  0
   10.5418  -21.2416   29.2788 C   0  0  2  0  0  0  0  0  0  0  0  0
    6.1585  -12.3914   26.4954 C   0  0  0  0  0  0  0  0  0  0  0  0
    7.5304  -12.2506   25.8965 C   0  0  2  0  0  0  0  0  0  0  0  0
    7.4257  -11.9091   24.4141 N   0  0  0  0  0  0  0  0  0  0  0  0
    8.2680  -13.5431   26.0340 C   0  0  0  0  0  0  0  0  0  0  0  0
    7.5082  -14.6254   25.4290 O   0  0  0  0  0  0  0  0  0  0  0  0
    8.5772  -13.8429   27.4641 O   0  0  0  0  0  0  0  0  0  0  0  0
  2  1  1  0
  2  3  2  0
  4  2  1  0
  5  4  1  0
  6  5  1  0
  7  6  1  0
  8  7  1  0
  8  9  1  1
 10  8  1  0
 10 11  2  0
 13 12  1  0
 13 14  2  0
 15 13  1  0
 16 15  1  0
 17 16  1  0
 19 18  1  6
 18 17  1  0
 19 20  1  0
 20 10  1  0
 21 19  1  0
 22 21  2  0
 24 23  1  6
 24 26  1  0
 25 24  1  0
 26 28  1  0
 26 27  1  6
 27 21  1  0
 28 30  1  0
 29 28  2  0
M  END
$$$$
