RRV.pdb
     RDKit          3D

 30 29  0  0  1  0  0  0  0  0999 V2000
    6.9660  -23.0531   16.8152 N   0  0  0  0  0  0  0  0  0  0  0  0
    7.8130  -24.0791   16.3137 C   0  0  0  0  0  0  0  0  0  0  0  0
    7.4492  -24.7633   15.2801 N   0  0  0  0  0  0  0  0  0  0  0  0
    9.0426  -24.3378   16.9520 N   0  0  0  0  0  0  0  0  0  0  0  0
    9.4591  -23.5717   18.1051 C   0  0  0  0  0  0  0  0  0  0  0  0
    9.9884  -22.2377   17.6842 C   0  0  0  0  0  0  0  0  0  0  0  0
   10.4372  -21.4063   18.8578 C   0  0  0  0  0  0  0  0  0  0  0  0
   11.0275  -20.0928   18.3892 C   0  0  2  0  0  0  0  0  0  0  0  0
   12.3740  -20.2584   17.9094 N   0  0  0  0  0  0  0  0  0  0  0  0
   10.9411  -19.0562   19.4605 C   0  0  0  0  0  0  0  0  0  0  0  0
   12.0170  -18.7520   20.0125 O   0  0  0  0  0  0  0  0  0  0  0  0
    8.0632  -25.5034   14.8774 N   0  0  0  0  0  0  0  0  0  0  0  0
    9.8208  -13.0144   20.3378 C   0  0  0  0  0  0  0  0  0  0  0  0
    8.4830  -12.7788   19.9311 N   0  0  0  0  0  0  0  0  0  0  0  0
    8.1811  -11.6567   19.3369 N   0  0  0  0  0  0  0  0  0  0  0  0
    7.4790  -13.7588   20.1697 C   0  0  0  0  0  0  0  0  0  0  0  0
    7.4269  -14.3633   21.4606 C   0  0  0  0  0  0  0  0  0  0  0  0
    8.4722  -15.4305   21.6640 C   0  0  0  0  0  0  0  0  0  0  0  0
    8.4867  -16.4608   20.5920 C   0  0  2  0  0  0  0  0  0  0  0  0
    9.5543  -17.4637   20.8556 N   0  0  0  0  0  0  0  0  0  0  0  0
    9.7355  -18.4509   19.8368 C   0  0  0  0  0  0  0  0  0  0  0  0
    9.5520  -18.0467   22.2123 O   0  0  0  0  0  0  0  0  0  0  0  0
    8.5569  -18.6559   22.6353 C   0  0  0  0  0  0  0  0  0  0  0  0
    7.2181  -11.4679   19.0431 C   0  0  1  0  0  0  0  0  0  0  0  0
   12.7297  -17.5540   25.1328 C   0  0  0  0  0  0  0  0  0  0  0  0
   12.0489  -18.8656   24.8551 C   0  0  2  0  0  0  0  0  0  0  0  0
   12.7972  -19.6277   23.7669 N   0  0  0  0  0  0  0  0  0  0  0  0
   10.6542  -18.6114   24.3818 C   0  0  0  0  0  0  0  0  0  0  0  0
   10.6727  -17.9421   23.0910 O   0  0  0  0  0  0  0  0  0  0  0  0
    9.8768  -17.8200   25.3819 O   0  0  0  0  0  0  0  0  0  0  0  0
  2  1  1  0
  2  3  2  0
  4  2  1  0
  5  4  1  0
  6  5  1  0
  7  6  1  0
  8  7  1  0
  8  9  1  1
 10  8  1  0
 10 11  2  0
 13 12  1  0
 13 14  2  0
 15 13  1  0
 16 15  1  0
 17 16  1  0
 19 18  1  6
 18 17  1  0
 19 20  1  0
 20 10  1  0
 21 19  1  0
 22 21  2  0
 24 23  1  6
 24 26  1  0
 25 24  1  0
 26 28  1  0
 26 27  1  6
 27 21  1  0
 28 30  1  0
 29 28  2  0
M  END
$$$$
