RRV.pdb
     RDKit          3D

 30 29  0  0  1  0  0  0  0  0999 V2000
    7.1592  -14.2513   15.8890 N   0  0  0  0  0  0  0  0  0  0  0  0
    8.4152  -13.5907   15.8031 C   0  0  0  0  0  0  0  0  0  0  0  0
    9.0414  -13.5474   14.6739 N   0  0  0  0  0  0  0  0  0  0  0  0
    8.9634  -12.9895   16.9539 N   0  0  0  0  0  0  0  0  0  0  0  0
    8.2818  -13.0583   18.2268 C   0  0  0  0  0  0  0  0  0  0  0  0
    7.9202  -14.4728   18.5515 C   0  0  0  0  0  0  0  0  0  0  0  0
    7.2274  -14.5927   19.8839 C   0  0  0  0  0  0  0  0  0  0  0  0
    6.9749  -16.0459   20.2276 C   0  0  2  0  0  0  0  0  0  0  0  0
    5.8229  -16.5613   19.5363 N   0  0  0  0  0  0  0  0  0  0  0  0
    6.8689  -16.2345   21.7051 C   0  0  0  0  0  0  0  0  0  0  0  0
    5.8275  -15.8012   22.2364 O   0  0  0  0  0  0  0  0  0  0  0  0
    9.9521  -13.0489   14.5789 N   0  0  0  0  0  0  0  0  0  0  0  0
    6.7560  -21.2050   27.6765 C   0  0  0  0  0  0  0  0  0  0  0  0
    7.7460  -20.5296   28.4345 N   0  0  0  0  0  0  0  0  0  0  0  0
    7.6642  -20.5244   29.7370 N   0  0  0  0  0  0  0  0  0  0  0  0
    8.8191  -19.8634   27.7787 C   0  0  0  0  0  0  0  0  0  0  0  0
    8.8001  -19.8055   26.3536 C   0  0  0  0  0  0  0  0  0  0  0  0
    8.3514  -18.4706   25.8152 C   0  0  0  0  0  0  0  0  0  0  0  0
    8.3118  -18.4112   24.3301 C   0  0  1  0  0  0  0  0  0  0  0  0
    7.8607  -17.0662   23.8800 N   0  0  0  0  0  0  0  0  0  0  0  0
    7.8669  -16.8573   22.4652 C   0  0  0  0  0  0  0  0  0  0  0  0
    8.4364  -15.9262   24.6213 O   0  0  0  0  0  0  0  0  0  0  0  0
    9.6275  -15.6122   24.4697 C   0  0  0  0  0  0  0  0  0  0  0  0
    8.3666  -20.0344   30.2990 C   0  0  1  0  0  0  0  0  0  0  0  0
    8.0368  -11.6845   26.9126 C   0  0  0  0  0  0  0  0  0  0  0  0
    7.3902  -12.8236   26.1742 C   0  0  2  0  0  0  0  0  0  0  0  0
    6.0565  -13.1812   26.8210 N   0  0  0  0  0  0  0  0  0  0  0  0
    8.2809  -14.0224   26.2312 C   0  0  0  0  0  0  0  0  0  0  0  0
    7.6677  -15.1411   25.5333 O   0  0  0  0  0  0  0  0  0  0  0  0
    8.6093  -14.3887   27.6413 O   0  0  0  0  0  0  0  0  0  0  0  0
  2  1  1  0
  2  3  2  0
  4  2  1  0
  5  4  1  0
  6  5  1  0
  7  6  1  0
  8  7  1  0
  8  9  1  6
 10  8  1  0
 10 11  2  0
 13 12  1  0
 13 14  2  0
 15 13  1  0
 16 15  1  0
 17 16  1  0
 19 18  1  6
 18 17  1  0
 19 20  1  0
 20 10  1  0
 21 19  1  0
 22 21  2  0
 24 23  1  1
 24 26  1  0
 25 24  1  0
 26 28  1  0
 26 27  1  6
 27 21  1  0
 28 30  1  0
 29 28  2  0
M  END
$$$$
