RRV.pdb
     RDKit          3D

 30 29  0  0  1  0  0  0  0  0999 V2000
    6.8921  -14.0877   15.1344 N   0  0  0  0  0  0  0  0  0  0  0  0
    8.3000  -14.2157   14.9834 C   0  0  0  0  0  0  0  0  0  0  0  0
    8.8099  -14.3410   13.8030 N   0  0  0  0  0  0  0  0  0  0  0  0
    9.1246  -14.2045   16.1263 N   0  0  0  0  0  0  0  0  0  0  0  0
    8.6531  -14.7246   17.3901 C   0  0  0  0  0  0  0  0  0  0  0  0
    7.7286  -13.7489   18.0459 C   0  0  0  0  0  0  0  0  0  0  0  0
    8.1408  -13.4352   19.4607 C   0  0  0  0  0  0  0  0  0  0  0  0
    8.6578  -14.6774   20.1559 C   0  0  2  0  0  0  0  0  0  0  0  0
    8.5827  -15.8327   19.3015 N   0  0  0  0  0  0  0  0  0  0  0  0
    7.9511  -14.8965   21.4530 C   0  0  0  0  0  0  0  0  0  0  0  0
    7.0063  -14.1202   21.6967 O   0  0  0  0  0  0  0  0  0  0  0  0
    9.8330  -14.4893   13.6684 N   0  0  0  0  0  0  0  0  0  0  0  0
    8.0300  -21.2274   27.7400 C   0  0  0  0  0  0  0  0  0  0  0  0
    8.7335  -20.3841   26.8430 N   0  0  0  0  0  0  0  0  0  0  0  0
    9.9649  -20.0460   27.1123 N   0  0  0  0  0  0  0  0  0  0  0  0
    8.1006  -19.9113   25.6593 C   0  0  0  0  0  0  0  0  0  0  0  0
    6.8780  -19.1893   25.7965 C   0  0  0  0  0  0  0  0  0  0  0  0
    6.9716  -17.7599   25.3265 C   0  0  0  0  0  0  0  0  0  0  0  0
    7.6007  -17.6141   23.9872 C   0  0  1  0  0  0  0  0  0  0  0  0
    7.7122  -16.1751   23.6241 N   0  0  0  0  0  0  0  0  0  0  0  0
    8.3120  -15.9062   22.3539 C   0  0  0  0  0  0  0  0  0  0  0  0
    8.2284  -15.2930   24.6899 O   0  0  0  0  0  0  0  0  0  0  0  0
    9.4500  -15.1759   24.8753 C   0  0  0  0  0  0  0  0  0  0  0  0
   10.5065  -19.4859   26.4472 C   0  0  2  0  0  0  0  0  0  0  0  0
    6.4178  -11.8310   25.7347 C   0  0  0  0  0  0  0  0  0  0  0  0
    6.8839  -12.6163   26.9292 C   0  0  1  0  0  0  0  0  0  0  0  0
    7.4986  -11.6827   27.9663 N   0  0  0  0  0  0  0  0  0  0  0  0
    7.9243  -13.6004   26.5020 C   0  0  0  0  0  0  0  0  0  0  0  0
    7.3659  -14.5434   25.5462 O   0  0  0  0  0  0  0  0  0  0  0  0
    8.5111  -14.3146   27.6752 O   0  0  0  0  0  0  0  0  0  0  0  0
  2  1  1  0
  2  3  2  0
  4  2  1  0
  5  4  1  0
  6  5  1  0
  7  6  1  0
  8  7  1  0
  8  9  1  6
 10  8  1  0
 10 11  2  0
 13 12  1  0
 13 14  2  0
 15 13  1  0
 16 15  1  0
 17 16  1  0
 19 18  1  6
 18 17  1  0
 19 20  1  0
 20 10  1  0
 21 19  1  0
 22 21  2  0
 24 23  1  6
 24 26  1  0
 25 24  1  0
 26 28  1  0
 26 27  1  6
 27 21  1  0
 28 30  1  0
 29 28  2  0
M  END
$$$$
