RRV.pdb
     RDKit          3D

 30 29  0  0  1  0  0  0  0  0999 V2000
   15.8394  -14.2298   17.8784 N   0  0  0  0  0  0  0  0  0  0  0  0
   14.5409  -14.7157   18.1934 C   0  0  0  0  0  0  0  0  0  0  0  0
   13.7655  -15.1335   17.2483 N   0  0  0  0  0  0  0  0  0  0  0  0
   14.1143  -14.7358   19.5365 N   0  0  0  0  0  0  0  0  0  0  0  0
   12.8518  -15.3339   19.9082 C   0  0  0  0  0  0  0  0  0  0  0  0
   11.7122  -14.5304   19.3676 C   0  0  0  0  0  0  0  0  0  0  0  0
   10.5978  -14.3755   20.3697 C   0  0  0  0  0  0  0  0  0  0  0  0
    9.6097  -15.5172   20.2527 C   0  0  2  0  0  0  0  0  0  0  0  0
    8.8385  -15.4281   19.0411 N   0  0  0  0  0  0  0  0  0  0  0  0
    8.7388  -15.5957   21.4632 C   0  0  0  0  0  0  0  0  0  0  0  0
    7.9107  -14.6736   21.5995 O   0  0  0  0  0  0  0  0  0  0  0  0
   12.8117  -15.5009   17.4536 N   0  0  0  0  0  0  0  0  0  0  0  0
    6.6729  -21.9675   27.2519 C   0  0  0  0  0  0  0  0  0  0  0  0
    5.9508  -21.6028   26.0874 N   0  0  0  0  0  0  0  0  0  0  0  0
    5.1480  -22.4693   25.5325 N   0  0  0  0  0  0  0  0  0  0  0  0
    6.1014  -20.3022   25.5295 C   0  0  0  0  0  0  0  0  0  0  0  0
    7.0774  -19.4358   26.1052 C   0  0  0  0  0  0  0  0  0  0  0  0
    7.1614  -18.0933   25.4243 C   0  0  0  0  0  0  0  0  0  0  0  0
    7.9277  -18.1195   24.1503 C   0  0  2  0  0  0  0  0  0  0  0  0
    8.1201  -16.7361   23.6363 N   0  0  0  0  0  0  0  0  0  0  0  0
    8.8310  -16.6332   22.3995 C   0  0  0  0  0  0  0  0  0  0  0  0
    8.5789  -15.7495   24.6346 O   0  0  0  0  0  0  0  0  0  0  0  0
    9.7824  -15.6573   24.9233 C   0  0  0  0  0  0  0  0  0  0  0  0
    4.6632  -22.2424   24.6591 C   0  0  1  0  0  0  0  0  0  0  0  0
    5.9057  -13.3301   26.9363 C   0  0  0  0  0  0  0  0  0  0  0  0
    7.2030  -12.7718   26.4205 C   0  0  2  0  0  0  0  0  0  0  0  0
    6.9876  -12.1017   25.0679 N   0  0  0  0  0  0  0  0  0  0  0  0
    8.1882  -13.8822   26.2475 C   0  0  0  0  0  0  0  0  0  0  0  0
    7.6793  -14.8674   25.3067 O   0  0  0  0  0  0  0  0  0  0  0  0
    8.5251  -14.5185   27.5560 O   0  0  0  0  0  0  0  0  0  0  0  0
  2  1  1  0
  2  3  2  0
  4  2  1  0
  5  4  1  0
  6  5  1  0
  7  6  1  0
  8  7  1  0
  8  9  1  6
 10  8  1  0
 10 11  2  0
 13 12  1  0
 13 14  2  0
 15 13  1  0
 16 15  1  0
 17 16  1  0
 19 18  1  6
 18 17  1  0
 19 20  1  0
 20 10  1  0
 21 19  1  0
 22 21  2  0
 24 23  1  6
 24 26  1  0
 25 24  1  0
 26 28  1  0
 26 27  1  6
 27 21  1  0
 28 30  1  0
 29 28  2  0
M  END
$$$$
