RRV.pdb
     RDKit          3D

 30 29  0  0  1  0  0  0  0  0999 V2000
   12.2105  -12.8505   19.4422 N   0  0  0  0  0  0  0  0  0  0  0  0
   11.0538  -13.0562   18.6414 C   0  0  0  0  0  0  0  0  0  0  0  0
   11.1184  -13.8276   17.6072 N   0  0  0  0  0  0  0  0  0  0  0  0
    9.8475  -12.4142   18.9866 N   0  0  0  0  0  0  0  0  0  0  0  0
    8.6019  -12.7763   18.3485 C   0  0  0  0  0  0  0  0  0  0  0  0
    8.2619  -14.2041   18.6358 C   0  0  0  0  0  0  0  0  0  0  0  0
    7.8002  -14.4057   20.0556 C   0  0  0  0  0  0  0  0  0  0  0  0
    7.4240  -15.8528   20.2963 C   0  0  2  0  0  0  0  0  0  0  0  0
    6.2478  -16.2246   19.5553 N   0  0  0  0  0  0  0  0  0  0  0  0
    7.2740  -16.1298   21.7559 C   0  0  0  0  0  0  0  0  0  0  0  0
    6.1356  -15.9481   22.2309 O   0  0  0  0  0  0  0  0  0  0  0  0
   10.2587  -14.1171   17.0934 N   0  0  0  0  0  0  0  0  0  0  0  0
    8.9362  -20.4430   29.5181 C   0  0  0  0  0  0  0  0  0  0  0  0
    8.2063  -19.9727   28.3971 N   0  0  0  0  0  0  0  0  0  0  0  0
    7.2300  -19.1254   28.5766 N   0  0  0  0  0  0  0  0  0  0  0  0
    8.5367  -20.4221   27.0877 C   0  0  0  0  0  0  0  0  0  0  0  0
    9.4350  -19.6285   26.3145 C   0  0  0  0  0  0  0  0  0  0  0  0
    8.8261  -18.3376   25.8287 C   0  0  0  0  0  0  0  0  0  0  0  0
    8.8758  -18.1754   24.3515 C   0  0  1  0  0  0  0  0  0  0  0  0
    8.2827  -16.8688   23.9564 N   0  0  0  0  0  0  0  0  0  0  0  0
    8.3344  -16.5676   22.5592 C   0  0  0  0  0  0  0  0  0  0  0  0
    8.6723  -15.7185   24.7964 O   0  0  0  0  0  0  0  0  0  0  0  0
    9.8536  -15.3406   24.8399 C   0  0  0  0  0  0  0  0  0  0  0  0
    6.7127  -18.7524   27.7749 C   0  0  2  0  0  0  0  0  0  0  0  0
    5.8621  -13.4727   27.1088 C   0  0  0  0  0  0  0  0  0  0  0  0
    7.1520  -12.8801   26.6131 C   0  0  2  0  0  0  0  0  0  0  0  0
    6.9504  -12.2555   25.2367 N   0  0  0  0  0  0  0  0  0  0  0  0
    8.1821  -13.9568   26.4984 C   0  0  0  0  0  0  0  0  0  0  0  0
    7.7284  -14.9952   25.5871 O   0  0  0  0  0  0  0  0  0  0  0  0
    8.5195  -14.5306   27.8354 O   0  0  0  0  0  0  0  0  0  0  0  0
  2  1  1  0
  2  3  2  0
  4  2  1  0
  5  4  1  0
  6  5  1  0
  7  6  1  0
  8  7  1  0
  8  9  1  6
 10  8  1  0
 10 11  2  0
 13 12  1  0
 13 14  2  0
 15 13  1  0
 16 15  1  0
 17 16  1  0
 19 18  1  6
 18 17  1  0
 19 20  1  0
 20 10  1  0
 21 19  1  0
 22 21  2  0
 24 23  1  6
 24 26  1  0
 25 24  1  0
 26 28  1  0
 26 27  1  6
 27 21  1  0
 28 30  1  0
 29 28  2  0
M  END
$$$$
