RRV.pdb
     RDKit          3D

 30 29  0  0  1  0  0  0  0  0999 V2000
   11.9841  -22.9751   26.7834 N   0  0  0  0  0  0  0  0  0  0  0  0
   11.3582  -23.9324   25.9388 C   0  0  0  0  0  0  0  0  0  0  0  0
   11.6425  -25.1859   26.0690 N   0  0  0  0  0  0  0  0  0  0  0  0
   10.4329  -23.5010   24.9672 N   0  0  0  0  0  0  0  0  0  0  0  0
   10.7427  -22.4035   24.0789 C   0  0  0  0  0  0  0  0  0  0  0  0
   10.5251  -21.0942   24.7682 C   0  0  0  0  0  0  0  0  0  0  0  0
    9.4061  -20.3008   24.1452 C   0  0  0  0  0  0  0  0  0  0  0  0
    9.9117  -19.4967   22.9657 C   0  0  2  0  0  0  0  0  0  0  0  0
   11.1667  -20.0041   22.4777 N   0  0  0  0  0  0  0  0  0  0  0  0
    9.9914  -18.0446   23.3043 C   0  0  0  0  0  0  0  0  0  0  0  0
   11.0318  -17.6766   23.8846 O   0  0  0  0  0  0  0  0  0  0  0  0
   11.2451  -25.9008   25.4225 N   0  0  0  0  0  0  0  0  0  0  0  0
    7.7526  -11.7567   19.5857 C   0  0  0  0  0  0  0  0  0  0  0  0
    7.9704  -13.0282   18.9970 N   0  0  0  0  0  0  0  0  0  0  0  0
    8.6161  -13.1095   17.8658 N   0  0  0  0  0  0  0  0  0  0  0  0
    7.4881  -14.2050   19.6357 C   0  0  0  0  0  0  0  0  0  0  0  0
    6.6508  -14.0504   20.7801 C   0  0  0  0  0  0  0  0  0  0  0  0
    7.1029  -14.8638   21.9663 C   0  0  0  0  0  0  0  0  0  0  0  0
    8.5747  -14.8425   22.1760 C   0  0  1  0  0  0  0  0  0  0  0  0
    8.9476  -15.7388   23.3040 N   0  0  0  0  0  0  0  0  0  0  0  0
    8.9710  -17.1356   22.9974 C   0  0  0  0  0  0  0  0  0  0  0  0
    8.2734  -15.4539   24.5865 O   0  0  0  0  0  0  0  0  0  0  0  0
    7.2051  -16.0153   24.8759 C   0  0  0  0  0  0  0  0  0  0  0  0
    8.6913  -14.0052   17.3744 C   0  0  1  0  0  0  0  0  0  0  0  0
    8.5141  -14.0511   29.2386 C   0  0  0  0  0  0  0  0  0  0  0  0
    9.1935  -14.1645   27.9020 C   0  0  1  0  0  0  0  0  0  0  0  0
    9.9555  -12.8817   27.5878 N   0  0  0  0  0  0  0  0  0  0  0  0
    8.1655  -14.3775   26.8383 C   0  0  0  0  0  0  0  0  0  0  0  0
    8.8051  -14.5354   25.5419 O   0  0  0  0  0  0  0  0  0  0  0  0
    7.1727  -13.2621   26.8110 O   0  0  0  0  0  0  0  0  0  0  0  0
  2  1  1  0
  2  3  2  0
  4  2  1  0
  5  4  1  0
  6  5  1  0
  7  6  1  0
  8  7  1  0
  8  9  1  1
 10  8  1  0
 10 11  2  0
 13 12  1  0
 13 14  2  0
 15 13  1  0
 16 15  1  0
 17 16  1  0
 19 18  1  6
 18 17  1  0
 19 20  1  0
 20 10  1  0
 21 19  1  0
 22 21  2  0
 24 23  1  1
 24 26  1  0
 25 24  1  0
 26 28  1  0
 26 27  1  6
 27 21  1  0
 28 30  1  0
 29 28  2  0
M  END
$$$$
