RRV.pdb
     RDKit          3D

 30 29  0  0  1  0  0  0  0  0999 V2000
    7.8227  -12.5023   14.1475 N   0  0  0  0  0  0  0  0  0  0  0  0
    7.6796  -13.9166   14.1711 C   0  0  0  0  0  0  0  0  0  0  0  0
    7.5399  -14.5658   13.0629 N   0  0  0  0  0  0  0  0  0  0  0  0
    7.6920  -14.5950   15.4064 N   0  0  0  0  0  0  0  0  0  0  0  0
    7.9527  -13.8896   16.6410 C   0  0  0  0  0  0  0  0  0  0  0  0
    7.8434  -14.8185   17.8080 C   0  0  0  0  0  0  0  0  0  0  0  0
    7.9583  -14.0956   19.1249 C   0  0  0  0  0  0  0  0  0  0  0  0
    8.8902  -14.8348   20.0622 C   0  0  2  0  0  0  0  0  0  0  0  0
    9.3035  -16.0981   19.5110 N   0  0  0  0  0  0  0  0  0  0  0  0
    8.2746  -14.9910   21.4137 C   0  0  0  0  0  0  0  0  0  0  0  0
    7.9189  -13.9363   21.9757 O   0  0  0  0  0  0  0  0  0  0  0  0
    7.5468  -15.6081   13.0418 N   0  0  0  0  0  0  0  0  0  0  0  0
    7.1254  -21.2314   27.7798 C   0  0  0  0  0  0  0  0  0  0  0  0
    8.2504  -20.7921   27.0369 N   0  0  0  0  0  0  0  0  0  0  0  0
    9.4513  -21.0490   27.4786 N   0  0  0  0  0  0  0  0  0  0  0  0
    8.0698  -20.0769   25.8198 C   0  0  0  0  0  0  0  0  0  0  0  0
    6.8082  -19.4515   25.5917 C   0  0  0  0  0  0  0  0  0  0  0  0
    6.9249  -18.0282   25.1085 C   0  0  0  0  0  0  0  0  0  0  0  0
    7.4788  -17.9103   23.7337 C   0  0  2  0  0  0  0  0  0  0  0  0
    7.5776  -16.4787   23.3390 N   0  0  0  0  0  0  0  0  0  0  0  0
    8.0989  -16.2367   22.0293 C   0  0  0  0  0  0  0  0  0  0  0  0
    8.1655  -15.5827   24.3548 O   0  0  0  0  0  0  0  0  0  0  0  0
    9.3943  -15.4204   24.4173 C   0  0  0  0  0  0  0  0  0  0  0  0
   10.2745  -20.7522   26.9462 C   0  0  2  0  0  0  0  0  0  0  0  0
    6.5644  -12.0854   25.2673 C   0  0  0  0  0  0  0  0  0  0  0  0
    6.9798  -12.8132   26.5157 C   0  0  1  0  0  0  0  0  0  0  0  0
    7.6302  -11.8454   27.4982 N   0  0  0  0  0  0  0  0  0  0  0  0
    7.9743  -13.8726   26.1659 C   0  0  0  0  0  0  0  0  0  0  0  0
    7.3665  -14.8701   25.2997 O   0  0  0  0  0  0  0  0  0  0  0  0
    8.5458  -14.5072   27.3911 O   0  0  0  0  0  0  0  0  0  0  0  0
  2  1  1  0
  2  3  2  0
  4  2  1  0
  5  4  1  0
  6  5  1  0
  7  6  1  0
  8  7  1  0
  8  9  1  6
 10  8  1  0
 10 11  2  0
 13 12  1  0
 13 14  2  0
 15 13  1  0
 16 15  1  0
 17 16  1  0
 19 18  1  6
 18 17  1  0
 19 20  1  0
 20 10  1  0
 21 19  1  0
 22 21  2  0
 24 23  1  6
 24 26  1  0
 25 24  1  0
 26 28  1  0
 26 27  1  6
 27 21  1  0
 28 30  1  0
 29 28  2  0
M  END
$$$$
