ACS.pdb
     RDKit          3D

 18 17  0  0  1  0  0  0  0  0999 V2000
   20.0229  -12.6289  -17.7104 C   0  0  0  0  0  0  0  0  0  0  0  0
   20.7471  -11.3721  -18.2039 C   0  0  2  0  0  0  0  0  0  0  0  0
   21.9763  -11.7734  -18.8446 N   0  0  0  0  0  0  0  0  0  0  0  0
   21.0684  -10.5569  -17.0145 C   0  0  0  0  0  0  0  0  0  0  0  0
   20.1389  -10.2237  -16.2444 O   0  0  0  0  0  0  0  0  0  0  0  0
   22.3846  -10.1404  -16.7152 N   0  0  0  0  0  0  0  0  0  0  0  0
   22.6621   -9.2914  -15.5814 C   0  0  1  0  0  0  0  0  0  0  0  0
   24.0452   -9.5355  -15.0167 C   0  0  0  0  0  0  0  0  0  0  0  0
   24.1121  -11.0625  -14.0618 S   0  0  0  0  0  0  0  0  0  0  0  0
   22.4642   -7.8750  -15.9667 C   0  0  0  0  0  0  0  0  0  0  0  0
   22.7896   -7.5032  -17.1208 O   0  0  0  0  0  0  0  0  0  0  0  0
   19.5469   -5.9801  -16.4981 O   0  0  0  0  0  0  0  0  0  0  0  0
   20.1789   -5.2670  -15.5088 C   0  0  0  0  0  0  0  0  0  0  0  0
   21.6568   -5.5740  -15.4017 C   0  0  2  0  0  0  0  0  0  0  0  0
   21.9134   -6.9389  -15.0492 N   0  0  0  0  0  0  0  0  0  0  0  0
   22.3698   -4.6060  -14.5507 C   0  0  0  0  0  0  0  0  0  0  0  0
   22.8041   -4.9646  -13.4420 O   0  0  0  0  0  0  0  0  0  0  0  0
   22.5531   -3.3145  -14.9809 O   0  0  0  0  0  0  0  0  0  0  0  0
  2  1  1  1
  2  4  1  0
  2  3  1  0
  4  5  2  0
  6  7  1  0
  6  4  1  0
  7  8  1  6
  8  9  1  0
 10  7  1  0
 11 10  2  0
 13 12  1  0
 14 13  1  1
 14 15  1  0
 15 10  1  0
 16 18  1  0
 16 14  1  0
 17 16  2  0
M  END
$$$$
