ACS.pdb
     RDKit          3D

 18 17  0  0  1  0  0  0  0  0999 V2000
   17.1651   -8.2953  -16.8601 C   0  0  0  0  0  0  0  0  0  0  0  0
   18.1487   -8.9539  -15.8874 C   0  0  2  0  0  0  0  0  0  0  0  0
   17.4107   -9.8391  -15.0189 N   0  0  0  0  0  0  0  0  0  0  0  0
   18.7501   -7.8754  -15.0764 C   0  0  0  0  0  0  0  0  0  0  0  0
   18.0929   -7.4030  -14.1209 O   0  0  0  0  0  0  0  0  0  0  0  0
   20.0381   -7.3587  -15.3398 N   0  0  0  0  0  0  0  0  0  0  0  0
   20.6127   -6.3227  -14.5153 C   0  0  1  0  0  0  0  0  0  0  0  0
   22.1114   -6.4802  -14.3710 C   0  0  0  0  0  0  0  0  0  0  0  0
   22.8342   -5.1211  -13.4339 S   0  0  0  0  0  0  0  0  0  0  0  0
   20.2464   -4.9966  -15.0640 C   0  0  0  0  0  0  0  0  0  0  0  0
   20.3115   -4.8076  -16.3034 O   0  0  0  0  0  0  0  0  0  0  0  0
   17.8528   -0.9281  -14.9142 O   0  0  0  0  0  0  0  0  0  0  0  0
   18.1198   -2.1997  -14.4690 C   0  0  0  0  0  0  0  0  0  0  0  0
   19.5571   -2.6200  -14.6875 C   0  0  2  0  0  0  0  0  0  0  0  0
   19.8249   -3.9431  -14.2074 N   0  0  0  0  0  0  0  0  0  0  0  0
   20.5153   -1.6145  -14.1972 C   0  0  0  0  0  0  0  0  0  0  0  0
   21.3578   -1.9343  -13.3401 O   0  0  0  0  0  0  0  0  0  0  0  0
   20.4773   -0.3310  -14.6849 O   0  0  0  0  0  0  0  0  0  0  0  0
  2  1  1  6
  2  4  1  0
  2  3  1  0
  4  5  2  0
  6  7  1  0
  6  4  1  0
  7  8  1  6
  8  9  1  0
 10  7  1  0
 11 10  2  0
 13 12  1  0
 14 13  1  1
 14 15  1  0
 15 10  1  0
 16 18  1  0
 16 14  1  0
 17 16  2  0
M  END
$$$$
