ACS.pdb
     RDKit          3D

 18 17  0  0  1  0  0  0  0  0999 V2000
   22.2763  -12.6716  -18.3438 C   0  0  0  0  0  0  0  0  0  0  0  0
   22.2335  -11.1795  -18.6890 C   0  0  2  0  0  0  0  0  0  0  0  0
   23.2801  -10.8995  -19.6423 N   0  0  0  0  0  0  0  0  0  0  0  0
   22.5058  -10.4342  -17.4429 C   0  0  0  0  0  0  0  0  0  0  0  0
   21.7750  -10.6396  -16.4470 O   0  0  0  0  0  0  0  0  0  0  0  0
   23.5594   -9.4995  -17.3347 N   0  0  0  0  0  0  0  0  0  0  0  0
   23.7882   -8.7669  -16.1123 C   0  0  1  0  0  0  0  0  0  0  0  0
   25.2640   -8.5750  -15.8352 C   0  0  0  0  0  0  0  0  0  0  0  0
   26.0614  -10.1267  -15.3832 S   0  0  0  0  0  0  0  0  0  0  0  0
   23.0639   -7.4761  -16.1689 C   0  0  0  0  0  0  0  0  0  0  0  0
   23.0590   -6.8232  -17.2412 O   0  0  0  0  0  0  0  0  0  0  0  0
   19.5306   -6.9189  -14.6897 O   0  0  0  0  0  0  0  0  0  0  0  0
   20.3187   -5.8684  -14.2873 C   0  0  0  0  0  0  0  0  0  0  0  0
   21.6140   -5.7617  -15.0626 C   0  0  2  0  0  0  0  0  0  0  0  0
   22.3792   -6.9726  -15.0292 N   0  0  0  0  0  0  0  0  0  0  0  0
   22.3920   -4.5673  -14.6916 C   0  0  0  0  0  0  0  0  0  0  0  0
   23.5195   -4.7010  -14.1842 O   0  0  0  0  0  0  0  0  0  0  0  0
   21.8737   -3.3134  -14.9055 O   0  0  0  0  0  0  0  0  0  0  0  0
  2  1  1  1
  2  4  1  0
  2  3  1  0
  4  5  2  0
  6  7  1  0
  6  4  1  0
  7  8  1  6
  8  9  1  0
 10  7  1  0
 11 10  2  0
 13 12  1  0
 14 13  1  1
 14 15  1  0
 15 10  1  0
 16 18  1  0
 16 14  1  0
 17 16  2  0
M  END
$$$$
