ACS.pdb
     RDKit          3D

 18 17  0  0  1  0  0  0  0  0999 V2000
   11.4457  -10.8549  -11.6151 C   0  0  0  0  0  0  0  0  0  0  0  0
   12.7316  -11.6614  -11.8234 C   0  0  2  0  0  0  0  0  0  0  0  0
   12.5322  -12.9875  -11.2903 N   0  0  0  0  0  0  0  0  0  0  0  0
   13.7990  -10.9893  -11.0544 C   0  0  0  0  0  0  0  0  0  0  0  0
   13.8856  -11.2107   -9.8250 O   0  0  0  0  0  0  0  0  0  0  0  0
   14.7241  -10.1069  -11.6554 N   0  0  0  0  0  0  0  0  0  0  0  0
   15.7742   -9.4843  -10.8855 C   0  0  1  0  0  0  0  0  0  0  0  0
   17.1458   -9.7885  -11.4492 C   0  0  0  0  0  0  0  0  0  0  0  0
   18.4497   -9.0111  -10.4780 S   0  0  0  0  0  0  0  0  0  0  0  0
   15.5231   -8.0272  -10.7982 C   0  0  0  0  0  0  0  0  0  0  0  0
   15.2523   -7.3887  -11.8446 O   0  0  0  0  0  0  0  0  0  0  0  0
   15.9813   -5.9453   -7.1037 O   0  0  0  0  0  0  0  0  0  0  0  0
   15.0078   -5.5488   -7.9878 C   0  0  0  0  0  0  0  0  0  0  0  0
   15.2986   -5.9515   -9.4172 C   0  0  2  0  0  0  0  0  0  0  0  0
   15.5852   -7.3491   -9.5500 N   0  0  0  0  0  0  0  0  0  0  0  0
   16.3080   -5.0846  -10.0491 C   0  0  0  0  0  0  0  0  0  0  0  0
   17.2993   -5.5951  -10.5997 O   0  0  0  0  0  0  0  0  0  0  0  0
   16.1537   -3.7199  -10.0294 O   0  0  0  0  0  0  0  0  0  0  0  0
  2  1  1  1
  2  4  1  0
  2  3  1  0
  4  5  2  0
  6  7  1  0
  6  4  1  0
  7  8  1  6
  8  9  1  0
 10  7  1  0
 11 10  2  0
 13 12  1  0
 14 13  1  1
 14 15  1  0
 15 10  1  0
 16 18  1  0
 16 14  1  0
 17 16  2  0
M  END
$$$$
