ACS.pdb
     RDKit          3D

 18 17  0  0  1  0  0  0  0  0999 V2000
   16.2213  -15.6665  -16.8515 C   0  0  0  0  0  0  0  0  0  0  0  0
   17.2613  -14.5656  -16.6194 C   0  0  2  0  0  0  0  0  0  0  0  0
   17.9028  -14.8019  -15.3486 N   0  0  0  0  0  0  0  0  0  0  0  0
   16.5332  -13.2816  -16.5596 C   0  0  0  0  0  0  0  0  0  0  0  0
   15.9156  -12.8920  -17.5768 O   0  0  0  0  0  0  0  0  0  0  0  0
   16.5088  -12.4787  -15.3976 N   0  0  0  0  0  0  0  0  0  0  0  0
   15.8511  -11.1939  -15.3885 C   0  0  1  0  0  0  0  0  0  0  0  0
   14.7683  -11.1198  -14.3331 C   0  0  0  0  0  0  0  0  0  0  0  0
   14.2721   -9.4177  -14.0101 S   0  0  0  0  0  0  0  0  0  0  0  0
   16.8617  -10.1244  -15.2197 C   0  0  0  0  0  0  0  0  0  0  0  0
   17.7660  -10.2666  -14.3606 O   0  0  0  0  0  0  0  0  0  0  0  0
   19.3644   -6.5336  -17.0986 O   0  0  0  0  0  0  0  0  0  0  0  0
   18.4353   -7.5394  -17.2068 C   0  0  0  0  0  0  0  0  0  0  0  0
   17.7833   -7.8952  -15.8884 C   0  0  2  0  0  0  0  0  0  0  0  0
   16.8184   -8.9468  -16.0152 N   0  0  0  0  0  0  0  0  0  0  0  0
   17.2682   -6.7107  -15.1805 C   0  0  0  0  0  0  0  0  0  0  0  0
   18.0505   -5.9923  -14.5336 O   0  0  0  0  0  0  0  0  0  0  0  0
   15.9308   -6.4026  -15.2355 O   0  0  0  0  0  0  0  0  0  0  0  0
  2  1  1  1
  2  4  1  0
  2  3  1  0
  4  5  2  0
  6  7  1  0
  6  4  1  0
  7  8  1  1
  8  9  1  0
 10  7  1  0
 11 10  2  0
 13 12  1  0
 14 13  1  6
 14 15  1  0
 15 10  1  0
 16 18  1  0
 16 14  1  0
 17 16  2  0
M  END
$$$$
