ACS.pdb
     RDKit          3D

 18 17  0  0  1  0  0  0  0  0999 V2000
   19.0345  -12.0219  -18.0804 C   0  0  0  0  0  0  0  0  0  0  0  0
   20.3826  -11.3785  -18.4211 C   0  0  2  0  0  0  0  0  0  0  0  0
   21.3423  -12.4278  -18.6665 N   0  0  0  0  0  0  0  0  0  0  0  0
   20.8090  -10.6037  -17.2377 C   0  0  0  0  0  0  0  0  0  0  0  0
   20.0338  -10.5274  -16.2572 O   0  0  0  0  0  0  0  0  0  0  0  0
   22.0578   -9.9468  -17.1726 N   0  0  0  0  0  0  0  0  0  0  0  0
   22.4696   -9.2363  -15.9857 C   0  0  1  0  0  0  0  0  0  0  0  0
   23.9443   -9.4214  -15.6982 C   0  0  0  0  0  0  0  0  0  0  0  0
   24.2853  -11.0476  -15.0003 S   0  0  0  0  0  0  0  0  0  0  0  0
   22.1073   -7.8062  -16.1172 C   0  0  0  0  0  0  0  0  0  0  0  0
   22.1366   -7.2689  -17.2515 O   0  0  0  0  0  0  0  0  0  0  0  0
   19.4419   -4.1768  -14.7761 O   0  0  0  0  0  0  0  0  0  0  0  0
   19.8667   -5.4779  -14.6605 C   0  0  0  0  0  0  0  0  0  0  0  0
   21.3086   -5.6749  -15.0755 C   0  0  2  0  0  0  0  0  0  0  0  0
   21.7293   -7.0412  -14.9800 N   0  0  0  0  0  0  0  0  0  0  0  0
   22.2191   -4.7338  -14.4010 C   0  0  0  0  0  0  0  0  0  0  0  0
   22.7239   -5.0433  -13.3075 O   0  0  0  0  0  0  0  0  0  0  0  0
   22.5080   -3.5213  -14.9781 O   0  0  0  0  0  0  0  0  0  0  0  0
  2  1  1  1
  2  4  1  0
  2  3  1  0
  4  5  2  0
  6  7  1  0
  6  4  1  0
  7  8  1  6
  8  9  1  0
 10  7  1  0
 11 10  2  0
 13 12  1  0
 14 13  1  1
 14 15  1  0
 15 10  1  0
 16 18  1  0
 16 14  1  0
 17 16  2  0
M  END
$$$$
