ACS.pdb
     RDKit          3D

 18 17  0  0  1  0  0  0  0  0999 V2000
   17.6197  -10.6214  -13.3898 C   0  0  0  0  0  0  0  0  0  0  0  0
   16.5365  -11.0307  -12.3864 C   0  0  2  0  0  0  0  0  0  0  0  0
   15.5360  -11.8035  -13.0821 N   0  0  0  0  0  0  0  0  0  0  0  0
   15.9183   -9.7886  -11.8791 C   0  0  0  0  0  0  0  0  0  0  0  0
   15.2380   -9.0905  -12.6652 O   0  0  0  0  0  0  0  0  0  0  0  0
   16.0669   -9.3607  -10.5411 N   0  0  0  0  0  0  0  0  0  0  0  0
   15.4499   -8.1435  -10.0710 C   0  0  1  0  0  0  0  0  0  0  0  0
   14.9313   -8.2820   -8.6555 C   0  0  0  0  0  0  0  0  0  0  0  0
   13.5969   -9.4888   -8.5529 S   0  0  0  0  0  0  0  0  0  0  0  0
   16.4095   -7.0228  -10.2010 C   0  0  0  0  0  0  0  0  0  0  0  0
   17.6411   -7.2653  -10.1764 O   0  0  0  0  0  0  0  0  0  0  0  0
   18.3750   -3.9218  -12.4743 O   0  0  0  0  0  0  0  0  0  0  0  0
   17.5903   -4.9567  -12.0272 C   0  0  0  0  0  0  0  0  0  0  0  0
   16.8149   -4.6197  -10.7721 C   0  0  2  0  0  0  0  0  0  0  0  0
   15.9533   -5.6848  -10.3524 N   0  0  0  0  0  0  0  0  0  0  0  0
   16.1322   -3.3181  -10.8680 C   0  0  0  0  0  0  0  0  0  0  0  0
   16.7887   -2.2688  -10.7476 O   0  0  0  0  0  0  0  0  0  0  0  0
   14.7776   -3.2651  -11.0893 O   0  0  0  0  0  0  0  0  0  0  0  0
  2  1  1  6
  2  4  1  0
  2  3  1  0
  4  5  2  0
  6  7  1  0
  6  4  1  0
  7  8  1  1
  8  9  1  0
 10  7  1  0
 11 10  2  0
 13 12  1  0
 14 13  1  6
 14 15  1  0
 15 10  1  0
 16 18  1  0
 16 14  1  0
 17 16  2  0
M  END
$$$$
