ACS.pdb
     RDKit          3D

 18 17  0  0  1  0  0  0  0  0999 V2000
   15.2427   -7.9391  -13.2126 C   0  0  0  0  0  0  0  0  0  0  0  0
   16.1012   -9.1863  -12.9780 C   0  0  2  0  0  0  0  0  0  0  0  0
   15.7153   -9.7781  -11.7198 N   0  0  0  0  0  0  0  0  0  0  0  0
   17.5065   -8.7395  -12.8887 C   0  0  0  0  0  0  0  0  0  0  0  0
   17.9216   -8.2724  -11.8035 O   0  0  0  0  0  0  0  0  0  0  0  0
   18.3974   -8.8201  -13.9819 N   0  0  0  0  0  0  0  0  0  0  0  0
   19.7657   -8.3750  -13.8676 C   0  0  1  0  0  0  0  0  0  0  0  0
   20.7334   -9.3522  -14.5001 C   0  0  0  0  0  0  0  0  0  0  0  0
   22.4376   -8.7828  -14.3605 S   0  0  0  0  0  0  0  0  0  0  0  0
   19.8922   -7.0180  -14.4475 C   0  0  0  0  0  0  0  0  0  0  0  0
   19.3148   -6.7592  -15.5318 O   0  0  0  0  0  0  0  0  0  0  0  0
   19.9878   -2.4475  -14.3575 O   0  0  0  0  0  0  0  0  0  0  0  0
   19.8657   -3.6908  -13.7865 C   0  0  0  0  0  0  0  0  0  0  0  0
   20.8408   -4.7038  -14.3459 C   0  0  2  0  0  0  0  0  0  0  0  0
   20.6555   -6.0126  -13.7932 N   0  0  0  0  0  0  0  0  0  0  0  0
   22.2352   -4.2336  -14.2819 C   0  0  0  0  0  0  0  0  0  0  0  0
   22.8950   -4.4052  -13.2419 O   0  0  0  0  0  0  0  0  0  0  0  0
   22.8023   -3.6092  -15.3660 O   0  0  0  0  0  0  0  0  0  0  0  0
  2  1  1  1
  2  4  1  0
  2  3  1  0
  4  5  2  0
  6  7  1  0
  6  4  1  0
  7  8  1  6
  8  9  1  0
 10  7  1  0
 11 10  2  0
 13 12  1  0
 14 13  1  1
 14 15  1  0
 15 10  1  0
 16 18  1  0
 16 14  1  0
 17 16  2  0
M  END
$$$$
