ACS.pdb
     RDKit          3D

 18 17  0  0  1  0  0  0  0  0999 V2000
   17.6974  -10.0655  -17.5350 C   0  0  0  0  0  0  0  0  0  0  0  0
   19.0306  -10.3681  -16.8433 C   0  0  2  0  0  0  0  0  0  0  0  0
   18.9053  -11.6185  -16.1339 N   0  0  0  0  0  0  0  0  0  0  0  0
   19.2737   -9.2845  -15.8690 C   0  0  0  0  0  0  0  0  0  0  0  0
   18.4883   -9.1572  -14.9021 O   0  0  0  0  0  0  0  0  0  0  0  0
   20.3588   -8.3880  -15.9890 N   0  0  0  0  0  0  0  0  0  0  0  0
   20.5550   -7.3182  -15.0401 C   0  0  1  0  0  0  0  0  0  0  0  0
   21.9490   -7.3336  -14.4502 C   0  0  0  0  0  0  0  0  0  0  0  0
   22.2209   -5.9296  -13.3535 S   0  0  0  0  0  0  0  0  0  0  0  0
   20.2426   -6.0229  -15.6869 C   0  0  0  0  0  0  0  0  0  0  0  0
   20.7194   -5.7741  -16.8212 O   0  0  0  0  0  0  0  0  0  0  0  0
   16.7208   -4.4840  -15.3955 O   0  0  0  0  0  0  0  0  0  0  0  0
   17.6056   -3.4351  -15.3368 C   0  0  0  0  0  0  0  0  0  0  0  0
   19.0282   -3.8342  -15.6641 C   0  0  2  0  0  0  0  0  0  0  0  0
   19.4140   -5.0652  -15.0406 N   0  0  0  0  0  0  0  0  0  0  0  0
   19.9844   -2.7375  -15.4350 C   0  0  0  0  0  0  0  0  0  0  0  0
   20.9608   -2.9190  -14.6865 O   0  0  0  0  0  0  0  0  0  0  0  0
   19.7972   -1.5214  -16.0456 O   0  0  0  0  0  0  0  0  0  0  0  0
  2  1  1  1
  2  4  1  0
  2  3  1  0
  4  5  2  0
  6  7  1  0
  6  4  1  0
  7  8  1  6
  8  9  1  0
 10  7  1  0
 11 10  2  0
 13 12  1  0
 14 13  1  1
 14 15  1  0
 15 10  1  0
 16 18  1  0
 16 14  1  0
 17 16  2  0
M  END
$$$$
