ACS.pdb
     RDKit          3D

 18 17  0  0  1  0  0  0  0  0999 V2000
   18.5251  -13.5199  -18.4657 C   0  0  0  0  0  0  0  0  0  0  0  0
   19.8697  -14.0859  -17.9975 C   0  0  2  0  0  0  0  0  0  0  0  0
   19.6573  -15.4273  -17.5097 N   0  0  0  0  0  0  0  0  0  0  0  0
   20.3373  -13.2370  -16.8826 C   0  0  0  0  0  0  0  0  0  0  0  0
   19.7059  -13.2618  -15.8015 O   0  0  0  0  0  0  0  0  0  0  0  0
   21.4695  -12.3993  -16.9922 N   0  0  0  0  0  0  0  0  0  0  0  0
   21.8614  -11.5245  -15.9132 C   0  0  1  0  0  0  0  0  0  0  0  0
   23.3633  -11.4945  -15.7259 C   0  0  0  0  0  0  0  0  0  0  0  0
   23.8333  -11.9787  -14.0549 S   0  0  0  0  0  0  0  0  0  0  0  0
   21.3066  -10.1717  -16.1497 C   0  0  0  0  0  0  0  0  0  0  0  0
   21.4177   -9.6549  -17.2884 O   0  0  0  0  0  0  0  0  0  0  0  0
   18.5606   -6.5293  -14.3941 O   0  0  0  0  0  0  0  0  0  0  0  0
   19.0250   -7.8176  -14.2885 C   0  0  0  0  0  0  0  0  0  0  0  0
   20.1020   -8.1494  -15.2985 C   0  0  2  0  0  0  0  0  0  0  0  0
   20.6542   -9.4576  -15.1076 N   0  0  0  0  0  0  0  0  0  0  0  0
   21.1227   -7.0920  -15.3965 C   0  0  0  0  0  0  0  0  0  0  0  0
   22.1917   -7.2092  -14.7720 O   0  0  0  0  0  0  0  0  0  0  0  0
   20.8936   -5.9830  -16.1739 O   0  0  0  0  0  0  0  0  0  0  0  0
  2  1  1  1
  2  4  1  0
  2  3  1  0
  4  5  2  0
  6  7  1  0
  6  4  1  0
  7  8  1  6
  8  9  1  0
 10  7  1  0
 11 10  2  0
 13 12  1  0
 14 13  1  1
 14 15  1  0
 15 10  1  0
 16 18  1  0
 16 14  1  0
 17 16  2  0
M  END
$$$$
