ACS.pdb
     RDKit          3D

 18 17  0  0  1  0  0  0  0  0999 V2000
   15.3715   -9.1717  -10.5398 C   0  0  0  0  0  0  0  0  0  0  0  0
   15.5969   -9.7341  -11.9471 C   0  0  2  0  0  0  0  0  0  0  0  0
   15.4037  -11.1635  -11.9056 N   0  0  0  0  0  0  0  0  0  0  0  0
   16.9995   -9.4486  -12.3127 C   0  0  0  0  0  0  0  0  0  0  0  0
   17.9115  -10.1008  -11.7550 O   0  0  0  0  0  0  0  0  0  0  0  0
   17.3483   -8.4677  -13.2675 N   0  0  0  0  0  0  0  0  0  0  0  0
   18.7131   -8.3018  -13.7069 C   0  0  1  0  0  0  0  0  0  0  0  0
   19.0183   -9.1356  -14.9329 C   0  0  0  0  0  0  0  0  0  0  0  0
   17.6537   -9.1091  -16.1099 S   0  0  0  0  0  0  0  0  0  0  0  0
   18.9859   -6.8638  -13.9342 C   0  0  0  0  0  0  0  0  0  0  0  0
   18.0756   -6.1336  -14.3969 O   0  0  0  0  0  0  0  0  0  0  0  0
   22.9751   -5.1748  -13.7152 O   0  0  0  0  0  0  0  0  0  0  0  0
   21.8740   -4.5022  -13.2444 C   0  0  0  0  0  0  0  0  0  0  0  0
   20.5821   -4.9360  -13.9024 C   0  0  2  0  0  0  0  0  0  0  0  0
   20.2593   -6.3062  -13.6358 N   0  0  0  0  0  0  0  0  0  0  0  0
   20.5401   -4.5929  -15.3342 C   0  0  0  0  0  0  0  0  0  0  0  0
   20.6321   -5.4945  -16.1857 O   0  0  0  0  0  0  0  0  0  0  0  0
   20.4000   -3.2836  -15.7252 O   0  0  0  0  0  0  0  0  0  0  0  0
  2  1  1  1
  2  4  1  0
  2  3  1  0
  4  5  2  0
  6  7  1  0
  6  4  1  0
  7  8  1  6
  8  9  1  0
 10  7  1  0
 11 10  2  0
 13 12  1  0
 14 13  1  6
 14 15  1  0
 15 10  1  0
 16 18  1  0
 16 14  1  0
 17 16  2  0
M  END
$$$$
