ACS.pdb
     RDKit          3D

 18 17  0  0  1  0  0  0  0  0999 V2000
   17.3889   -8.7440  -17.7646 C   0  0  0  0  0  0  0  0  0  0  0  0
   18.9152   -8.8262  -17.6605 C   0  0  2  0  0  0  0  0  0  0  0  0
   19.2824  -10.1936  -17.3815 N   0  0  0  0  0  0  0  0  0  0  0  0
   19.3224   -7.9769  -16.5224 C   0  0  0  0  0  0  0  0  0  0  0  0
   18.6390   -8.0079  -15.4736 O   0  0  0  0  0  0  0  0  0  0  0  0
   20.4535   -7.1323  -16.5748 N   0  0  0  0  0  0  0  0  0  0  0  0
   20.8136   -6.2924  -15.4576 C   0  0  1  0  0  0  0  0  0  0  0  0
   22.1637   -6.6637  -14.8824 C   0  0  0  0  0  0  0  0  0  0  0  0
   22.5148   -5.7490  -13.3698 S   0  0  0  0  0  0  0  0  0  0  0  0
   20.7614   -4.8715  -15.8726 C   0  0  0  0  0  0  0  0  0  0  0  0
   21.3443   -4.5200  -16.9275 O   0  0  0  0  0  0  0  0  0  0  0  0
   18.6519   -0.5279  -15.3381 O   0  0  0  0  0  0  0  0  0  0  0  0
   18.7187   -1.8591  -15.0059 C   0  0  0  0  0  0  0  0  0  0  0  0
   20.0024   -2.5232  -15.4544 C   0  0  2  0  0  0  0  0  0  0  0  0
   20.0627   -3.9086  -15.0940 N   0  0  0  0  0  0  0  0  0  0  0  0
   21.1972   -1.7615  -15.0524 C   0  0  0  0  0  0  0  0  0  0  0  0
   21.7276   -1.9858  -13.9502 O   0  0  0  0  0  0  0  0  0  0  0  0
   21.7216   -0.8088  -15.8916 O   0  0  0  0  0  0  0  0  0  0  0  0
  2  1  1  1
  2  4  1  0
  2  3  1  0
  4  5  2  0
  6  7  1  0
  6  4  1  0
  7  8  1  6
  8  9  1  0
 10  7  1  0
 11 10  2  0
 13 12  1  0
 14 13  1  1
 14 15  1  0
 15 10  1  0
 16 18  1  0
 16 14  1  0
 17 16  2  0
M  END
$$$$
