YVC.pdb
     RDKit          3D

 26 26  0  0  1  0  0  0  0  0999 V2000
    9.4411  -21.7692   17.5198 O   0  0  0  0  0  0  0  0  0  0  0  0
    9.7665  -20.8942   18.5466 C   0  0  0  0  0  0  0  0  0  0  0  0
   11.0586  -20.5047   18.7652 C   0  0  0  0  0  0  0  0  0  0  0  0
   11.4133  -19.6470   19.7643 C   0  0  0  0  0  0  0  0  0  0  0  0
   10.4519  -19.1211   20.6218 C   0  0  0  0  0  0  0  0  0  0  0  0
   10.8303  -18.1810   21.7190 C   0  0  0  0  0  0  0  0  0  0  0  0
   10.0950  -16.8668   21.4267 C   0  0  2  0  0  0  0  0  0  0  0  0
   10.6773  -16.3257   20.2339 N   0  0  0  0  0  0  0  0  0  0  0  0
   10.2349  -15.9322   22.5795 C   0  0  0  0  0  0  0  0  0  0  0  0
   11.2862  -15.2848   22.7959 O   0  0  0  0  0  0  0  0  0  0  0  0
    9.1467  -19.5105   20.4060 C   0  0  0  0  0  0  0  0  0  0  0  0
    8.7929  -20.3813   19.3905 C   0  0  0  0  0  0  0  0  0  0  0  0
    7.5196  -13.6479   25.9909 C   0  0  0  0  0  0  0  0  0  0  0  0
    7.7710  -14.2956   24.6673 C   0  0  1  0  0  0  0  0  0  0  0  0
    7.4169  -13.4741   23.4779 C   0  0  0  0  0  0  0  0  0  0  0  0
    9.1634  -14.9047   24.6244 C   0  0  2  0  0  0  0  0  0  0  0  0
    9.1474  -15.7765   23.4493 N   0  0  0  0  0  0  0  0  0  0  0  0
    9.5307  -15.6403   25.8331 C   0  0  0  0  0  0  0  0  0  0  0  0
    9.2324  -16.8739   25.9864 O   0  0  0  0  0  0  0  0  0  0  0  0
   10.2349  -15.0050   26.8797 N   0  0  0  0  0  0  0  0  0  0  0  0
   11.1227  -15.7609   27.7697 C   0  0  1  0  0  0  0  0  0  0  0  0
   11.6650  -14.8340   28.8574 C   0  0  0  0  0  0  0  0  0  0  0  0
   10.4088  -13.6292   29.3431 S   0  0  0  0  0  0  0  0  0  0  0  0
   10.3312  -16.7995   28.4380 C   0  0  0  0  0  0  0  0  0  0  0  0
   10.8858  -17.8210   29.2025 O   0  0  0  0  0  0  0  0  0  0  0  0
    9.0612  -16.8207   28.3508 O   0  0  0  0  0  0  0  0  0  0  0  0
  2  1  1  0
  2  3  2  0
  4  3  1  0
  5  4  2  0
  6  5  1  0
  7  9  1  0
  7  6  1  0
  7  8  1  6
  9 17  1  0
  9 10  2  0
 11 12  2  0
 11  5  1  0
 12  2  1  0
 14 13  1  1
 14 15  1  0
 16 14  1  0
 16 17  1  6
 18 20  1  0
 18 16  1  0
 19 18  2  0
 21 20  1  0
 22 23  1  0
 21 22  1  1
 24 21  1  0
 24 25  1  0
 26 24  2  0
M  END
$$$$
