YVC.pdb
     RDKit          3D

 26 26  0  0  1  0  0  0  0  0999 V2000
    3.7682  -21.5012   14.8470 O   0  0  0  0  0  0  0  0  0  0  0  0
    4.7578  -20.9110   15.6206 C   0  0  0  0  0  0  0  0  0  0  0  0
    4.4878  -19.8347   16.4192 C   0  0  0  0  0  0  0  0  0  0  0  0
    5.4357  -19.2310   17.1916 C   0  0  0  0  0  0  0  0  0  0  0  0
    6.7468  -19.6968   17.1984 C   0  0  0  0  0  0  0  0  0  0  0  0
    7.7921  -19.0424   18.0409 C   0  0  0  0  0  0  0  0  0  0  0  0
    7.9133  -17.6020   17.5274 C   0  0  2  0  0  0  0  0  0  0  0  0
    8.5538  -17.6738   16.2471 N   0  0  0  0  0  0  0  0  0  0  0  0
    8.6985  -16.7777   18.4895 C   0  0  0  0  0  0  0  0  0  0  0  0
    9.9513  -16.7995   18.5267 O   0  0  0  0  0  0  0  0  0  0  0  0
    7.0250  -20.7824   16.3947 C   0  0  0  0  0  0  0  0  0  0  0  0
    6.0589  -21.3909   15.6130 C   0  0  0  0  0  0  0  0  0  0  0  0
    8.0537  -13.1854   21.8411 C   0  0  0  0  0  0  0  0  0  0  0  0
    7.6289  -14.0050   20.6653 C   0  0  1  0  0  0  0  0  0  0  0  0
    7.1767  -13.2302   19.4778 C   0  0  0  0  0  0  0  0  0  0  0  0
    8.6576  -15.0832   20.3637 C   0  0  2  0  0  0  0  0  0  0  0  0
    8.0046  -15.9502   19.3824 N   0  0  0  0  0  0  0  0  0  0  0  0
    9.0950  -15.8362   21.5379 C   0  0  0  0  0  0  0  0  0  0  0  0
    8.2985  -16.6019   22.1808 O   0  0  0  0  0  0  0  0  0  0  0  0
   10.4252  -15.7412   22.0029 N   0  0  0  0  0  0  0  0  0  0  0  0
   10.8830  -16.5101   23.1652 C   0  0  1  0  0  0  0  0  0  0  0  0
   12.4110  -16.5131   23.2058 C   0  0  0  0  0  0  0  0  0  0  0  0
   13.0413  -18.2029   23.0943 S   0  0  0  0  0  0  0  0  0  0  0  0
   10.4168  -15.8324   24.3797 C   0  0  0  0  0  0  0  0  0  0  0  0
   10.0444  -16.5000   25.5421 O   0  0  0  0  0  0  0  0  0  0  0  0
   10.3264  -14.5636   24.4349 O   0  0  0  0  0  0  0  0  0  0  0  0
  2  1  1  0
  2  3  2  0
  4  3  1  0
  5  4  2  0
  6  5  1  0
  7  9  1  0
  7  6  1  0
  7  8  1  6
  9 17  1  0
  9 10  2  0
 11 12  2  0
 11  5  1  0
 12  2  1  0
 14 13  1  1
 14 15  1  0
 16 14  1  0
 16 17  1  6
 18 20  1  0
 18 16  1  0
 19 18  2  0
 21 20  1  0
 22 23  1  0
 21 22  1  1
 24 21  1  0
 24 25  1  0
 26 24  2  0
M  END
$$$$
