YVC.pdb
     RDKit          3D

 26 26  0  0  1  0  0  0  0  0999 V2000
    6.4579  -10.7351   26.9448 O   0  0  0  0  0  0  0  0  0  0  0  0
    6.6625  -12.1061   26.8781 C   0  0  0  0  0  0  0  0  0  0  0  0
    7.9176  -12.6314   26.7446 C   0  0  0  0  0  0  0  0  0  0  0  0
    8.1542  -13.9726   26.6760 C   0  0  0  0  0  0  0  0  0  0  0  0
    7.1032  -14.8822   26.7405 C   0  0  0  0  0  0  0  0  0  0  0  0
    7.3521  -16.3531   26.6662 C   0  0  0  0  0  0  0  0  0  0  0  0
    6.5925  -16.8520   25.4304 C   0  0  2  0  0  0  0  0  0  0  0  0
    6.1114  -18.1651   25.7451 N   0  0  0  0  0  0  0  0  0  0  0  0
    7.4945  -16.8667   24.2438 C   0  0  0  0  0  0  0  0  0  0  0  0
    8.2239  -17.8477   23.9664 O   0  0  0  0  0  0  0  0  0  0  0  0
    5.8348  -14.3580   26.8751 C   0  0  0  0  0  0  0  0  0  0  0  0
    5.6008  -12.9960   26.9442 C   0  0  0  0  0  0  0  0  0  0  0  0
    8.7759  -14.0362   20.3675 C   0  0  0  0  0  0  0  0  0  0  0  0
    7.8883  -14.3738   21.5220 C   0  0  1  0  0  0  0  0  0  0  0  0
    6.4303  -14.3850   21.2234 C   0  0  0  0  0  0  0  0  0  0  0  0
    8.3962  -15.6111   22.2449 C   0  0  2  0  0  0  0  0  0  0  0  0
    7.5233  -15.7394   23.4122 N   0  0  0  0  0  0  0  0  0  0  0  0
    9.8038  -15.5402   22.6328 C   0  0  0  0  0  0  0  0  0  0  0  0
   10.2597  -14.5753   23.3365 O   0  0  0  0  0  0  0  0  0  0  0  0
   10.7134  -16.5464   22.2392 N   0  0  0  0  0  0  0  0  0  0  0  0
   12.1294  -16.4839   22.6171 C   0  0  1  0  0  0  0  0  0  0  0  0
   12.4756  -17.6825   23.5003 C   0  0  0  0  0  0  0  0  0  0  0  0
   11.4233  -17.7079   24.9692 S   0  0  0  0  0  0  0  0  0  0  0  0
   12.9377  -16.5940   21.3980 C   0  0  0  0  0  0  0  0  0  0  0  0
   14.3212  -16.4494   21.3730 O   0  0  0  0  0  0  0  0  0  0  0  0
   12.4008  -16.8341   20.2688 O   0  0  0  0  0  0  0  0  0  0  0  0
  2  1  1  0
  2  3  2  0
  4  3  1  0
  5  4  2  0
  6  5  1  0
  7  9  1  0
  7  6  1  0
  7  8  1  1
  9 17  1  0
  9 10  2  0
 11 12  2  0
 11  5  1  0
 12  2  1  0
 14 13  1  6
 14 15  1  0
 16 14  1  0
 16 17  1  1
 18 20  1  0
 18 16  1  0
 19 18  2  0
 21 20  1  0
 22 23  1  0
 21 22  1  1
 24 21  1  0
 24 25  1  0
 26 24  2  0
M  END
$$$$
