YVC.pdb
     RDKit          3D

 26 26  0  0  1  0  0  0  0  0999 V2000
    8.0000  -12.5412   16.4879 O   0  0  0  0  0  0  0  0  0  0  0  0
    7.8743  -13.0836   17.7591 C   0  0  0  0  0  0  0  0  0  0  0  0
    8.8467  -12.9108   18.7044 C   0  0  0  0  0  0  0  0  0  0  0  0
    8.7554  -13.4297   19.9622 C   0  0  0  0  0  0  0  0  0  0  0  0
    7.6428  -14.1733   20.3434 C   0  0  0  0  0  0  0  0  0  0  0  0
    7.5335  -14.7456   21.7187 C   0  0  0  0  0  0  0  0  0  0  0  0
    8.2305  -16.1112   21.6686 C   0  0  2  0  0  0  0  0  0  0  0  0
    7.3542  -16.9950   20.9575 N   0  0  0  0  0  0  0  0  0  0  0  0
    8.5022  -16.6006   23.0501 C   0  0  0  0  0  0  0  0  0  0  0  0
    7.5937  -17.0195   23.8053 O   0  0  0  0  0  0  0  0  0  0  0  0
    6.6587  -14.3508   19.3939 C   0  0  0  0  0  0  0  0  0  0  0  0
    6.7568  -13.8219   18.1190 C   0  0  0  0  0  0  0  0  0  0  0  0
   11.9379  -18.4751   25.8967 C   0  0  0  0  0  0  0  0  0  0  0  0
   11.2607  -18.1035   24.6169 C   0  0  1  0  0  0  0  0  0  0  0  0
   10.7890  -19.2470   23.7895 C   0  0  0  0  0  0  0  0  0  0  0  0
   10.2186  -17.0226   24.8561 C   0  0  2  0  0  0  0  0  0  0  0  0
    9.8239  -16.5891   23.5154 N   0  0  0  0  0  0  0  0  0  0  0  0
   10.6959  -15.9013   25.6635 C   0  0  0  0  0  0  0  0  0  0  0  0
   11.7542  -15.2535   25.3560 O   0  0  0  0  0  0  0  0  0  0  0  0
    9.9950  -15.4936   26.8200 N   0  0  0  0  0  0  0  0  0  0  0  0
   10.5669  -14.5168   27.7530 C   0  0  1  0  0  0  0  0  0  0  0  0
    9.6751  -13.2763   27.8035 C   0  0  0  0  0  0  0  0  0  0  0  0
    7.9489  -13.7288   27.5190 S   0  0  0  0  0  0  0  0  0  0  0  0
   10.5679  -15.1069   29.0959 C   0  0  0  0  0  0  0  0  0  0  0  0
   11.1758  -14.5157   30.1988 O   0  0  0  0  0  0  0  0  0  0  0  0
    9.9970  -16.2210   29.3284 O   0  0  0  0  0  0  0  0  0  0  0  0
  2  1  1  0
  2  3  2  0
  4  3  1  0
  5  4  2  0
  6  5  1  0
  7  9  1  0
  7  6  1  0
  7  8  1  1
  9 17  1  0
  9 10  2  0
 11 12  2  0
 11  5  1  0
 12  2  1  0
 14 13  1  1
 14 15  1  0
 16 14  1  0
 16 17  1  6
 18 20  1  0
 18 16  1  0
 19 18  2  0
 21 20  1  0
 22 23  1  0
 21 22  1  1
 24 21  1  0
 24 25  1  0
 26 24  2  0
M  END
$$$$
