YVC.pdb
     RDKit          3D

 26 26  0  0  1  0  0  0  0  0999 V2000
   11.8524  -16.1595   32.0560 O   0  0  0  0  0  0  0  0  0  0  0  0
   11.2989  -16.2965   30.7909 C   0  0  0  0  0  0  0  0  0  0  0  0
   11.3599  -17.4824   30.1134 C   0  0  0  0  0  0  0  0  0  0  0  0
   10.8269  -17.6516   28.8697 C   0  0  0  0  0  0  0  0  0  0  0  0
   10.1841  -16.5995   28.2246 C   0  0  0  0  0  0  0  0  0  0  0  0
    9.5971  -16.7749   26.8624 C   0  0  0  0  0  0  0  0  0  0  0  0
    8.0801  -16.6194   27.0288 C   0  0  2  0  0  0  0  0  0  0  0  0
    7.5894  -17.8725   27.5225 N   0  0  0  0  0  0  0  0  0  0  0  0
    7.4542  -16.2592   25.7248 C   0  0  0  0  0  0  0  0  0  0  0  0
    6.6571  -17.0213   25.1289 O   0  0  0  0  0  0  0  0  0  0  0  0
   10.1195  -15.4008   28.9033 C   0  0  0  0  0  0  0  0  0  0  0  0
   10.6623  -15.2350   30.1653 C   0  0  0  0  0  0  0  0  0  0  0  0
    6.5838  -12.4236   22.7892 C   0  0  0  0  0  0  0  0  0  0  0  0
    6.9996  -13.0699   24.0714 C   0  0  1  0  0  0  0  0  0  0  0  0
    6.1646  -12.7317   25.2561 C   0  0  0  0  0  0  0  0  0  0  0  0
    7.2384  -14.5578   23.8691 C   0  0  2  0  0  0  0  0  0  0  0  0
    7.7730  -15.0219   25.1496 N   0  0  0  0  0  0  0  0  0  0  0  0
    8.1428  -14.8724   22.7645 C   0  0  0  0  0  0  0  0  0  0  0  0
    7.8595  -14.5678   21.5557 O   0  0  0  0  0  0  0  0  0  0  0  0
    9.3711  -15.5285   23.0006 N   0  0  0  0  0  0  0  0  0  0  0  0
   10.3089  -15.8067   21.9076 C   0  0  1  0  0  0  0  0  0  0  0  0
   11.6682  -16.1965   22.4880 C   0  0  0  0  0  0  0  0  0  0  0  0
   12.2255  -14.9551   23.6770 S   0  0  0  0  0  0  0  0  0  0  0  0
    9.8101  -16.9622   21.1542 C   0  0  0  0  0  0  0  0  0  0  0  0
    9.9738  -17.1182   19.7814 O   0  0  0  0  0  0  0  0  0  0  0  0
    9.1843  -17.9080   21.7329 O   0  0  0  0  0  0  0  0  0  0  0  0
  2  1  1  0
  2  3  2  0
  4  3  1  0
  5  4  2  0
  6  5  1  0
  7  9  1  0
  7  6  1  0
  7  8  1  6
  9 17  1  0
  9 10  2  0
 11 12  2  0
 11  5  1  0
 12  2  1  0
 14 13  1  6
 14 15  1  0
 16 14  1  0
 16 17  1  1
 18 20  1  0
 18 16  1  0
 19 18  2  0
 21 20  1  0
 22 23  1  0
 21 22  1  1
 24 21  1  0
 24 25  1  0
 26 24  2  0
M  END
$$$$
