YVC.pdb
     RDKit          3D

 26 26  0  0  1  0  0  0  0  0999 V2000
   10.4000  -14.3047   30.6345 O   0  0  0  0  0  0  0  0  0  0  0  0
   10.2697  -14.6073   29.2865 C   0  0  0  0  0  0  0  0  0  0  0  0
   10.5391  -15.8602   28.8105 C   0  0  0  0  0  0  0  0  0  0  0  0
   10.4215  -16.1916   27.4929 C   0  0  0  0  0  0  0  0  0  0  0  0
   10.0132  -15.2458   26.5576 C   0  0  0  0  0  0  0  0  0  0  0  0
    9.8814  -15.5989   25.1124 C   0  0  0  0  0  0  0  0  0  0  0  0
    8.3770  -15.6162   24.8132 C   0  0  2  0  0  0  0  0  0  0  0  0
    7.8072  -16.6499   25.6266 N   0  0  0  0  0  0  0  0  0  0  0  0
    8.1442  -15.8671   23.3624 C   0  0  0  0  0  0  0  0  0  0  0  0
    7.8018  -16.9892   22.9211 O   0  0  0  0  0  0  0  0  0  0  0  0
    9.7400  -13.9801   27.0321 C   0  0  0  0  0  0  0  0  0  0  0  0
    9.8611  -13.6496   28.3703 C   0  0  0  0  0  0  0  0  0  0  0  0
    7.9219  -13.5849   18.9841 C   0  0  0  0  0  0  0  0  0  0  0  0
    7.9826  -13.5755   20.4778 C   0  0  1  0  0  0  0  0  0  0  0  0
    6.8405  -12.9063   21.1581 C   0  0  0  0  0  0  0  0  0  0  0  0
    8.3129  -14.9610   21.0096 C   0  0  2  0  0  0  0  0  0  0  0  0
    8.3163  -14.8052   22.4645 N   0  0  0  0  0  0  0  0  0  0  0  0
    9.5825  -15.4995   20.5248 C   0  0  0  0  0  0  0  0  0  0  0  0
   10.6982  -14.9360   20.7929 O   0  0  0  0  0  0  0  0  0  0  0  0
    9.6168  -16.6718   19.7378 N   0  0  0  0  0  0  0  0  0  0  0  0
   10.8877  -17.2580   19.2987 C   0  0  1  0  0  0  0  0  0  0  0  0
   11.0547  -18.6424   19.9247 C   0  0  0  0  0  0  0  0  0  0  0  0
   11.0189  -18.5275   21.7277 S   0  0  0  0  0  0  0  0  0  0  0  0
   10.8331  -17.4418   17.8444 C   0  0  0  0  0  0  0  0  0  0  0  0
   11.9390  -17.7655   17.0648 O   0  0  0  0  0  0  0  0  0  0  0  0
    9.7413  -17.3113   17.2025 O   0  0  0  0  0  0  0  0  0  0  0  0
  2  1  1  0
  2  3  2  0
  4  3  1  0
  5  4  2  0
  6  5  1  0
  7  9  1  0
  7  6  1  0
  7  8  1  1
  9 17  1  0
  9 10  2  0
 11 12  2  0
 11  5  1  0
 12  2  1  0
 14 13  1  6
 14 15  1  0
 16 14  1  0
 16 17  1  1
 18 20  1  0
 18 16  1  0
 19 18  2  0
 21 20  1  0
 22 23  1  0
 21 22  1  1
 24 21  1  0
 24 25  1  0
 26 24  2  0
M  END
$$$$
