YVC.pdb
     RDKit          3D

 26 26  0  0  1  0  0  0  0  0999 V2000
    5.1143  -10.7146   27.9087 O   0  0  0  0  0  0  0  0  0  0  0  0
    5.7804  -11.8111   27.3797 C   0  0  0  0  0  0  0  0  0  0  0  0
    5.3484  -12.4198   26.2342 C   0  0  0  0  0  0  0  0  0  0  0  0
    5.9787  -13.4984   25.6874 C   0  0  0  0  0  0  0  0  0  0  0  0
    7.1135  -14.0357   26.2870 C   0  0  0  0  0  0  0  0  0  0  0  0
    7.8108  -15.2168   25.6958 C   0  0  0  0  0  0  0  0  0  0  0  0
    6.8075  -15.8671   24.7347 C   0  0  2  0  0  0  0  0  0  0  0  0
    6.2974  -17.0312   25.3976 N   0  0  0  0  0  0  0  0  0  0  0  0
    7.4782  -16.2158   23.4500 C   0  0  0  0  0  0  0  0  0  0  0  0
    7.7839  -17.3937   23.1497 O   0  0  0  0  0  0  0  0  0  0  0  0
    7.5538  -13.4258   27.4428 C   0  0  0  0  0  0  0  0  0  0  0  0
    6.9101  -12.3315   27.9931 C   0  0  0  0  0  0  0  0  0  0  0  0
    8.9398  -14.1375   19.1875 C   0  0  0  0  0  0  0  0  0  0  0  0
    8.2378  -14.0961   20.5067 C   0  0  1  0  0  0  0  0  0  0  0  0
    6.8222  -13.6393   20.4616 C   0  0  0  0  0  0  0  0  0  0  0  0
    8.4618  -15.3895   21.2740 C   0  0  2  0  0  0  0  0  0  0  0  0
    7.7748  -15.1840   22.5495 N   0  0  0  0  0  0  0  0  0  0  0  0
    9.8696  -15.7302   21.4717 C   0  0  0  0  0  0  0  0  0  0  0  0
   10.6574  -14.9747   22.1371 O   0  0  0  0  0  0  0  0  0  0  0  0
   10.4088  -16.9175   20.9290 N   0  0  0  0  0  0  0  0  0  0  0  0
   11.8249  -17.2594   21.1006 C   0  0  1  0  0  0  0  0  0  0  0  0
   11.9425  -18.6509   21.7222 C   0  0  0  0  0  0  0  0  0  0  0  0
   10.9352  -18.7602   23.2185 S   0  0  0  0  0  0  0  0  0  0  0  0
   12.4488  -17.3211   19.7745 C   0  0  0  0  0  0  0  0  0  0  0  0
   13.8204  -17.4336   19.5708 O   0  0  0  0  0  0  0  0  0  0  0  0
   11.7486  -17.2737   18.7121 O   0  0  0  0  0  0  0  0  0  0  0  0
  2  1  1  0
  2  3  2  0
  4  3  1  0
  5  4  2  0
  6  5  1  0
  7  9  1  0
  7  6  1  0
  7  8  1  1
  9 17  1  0
  9 10  2  0
 11 12  2  0
 11  5  1  0
 12  2  1  0
 14 13  1  6
 14 15  1  0
 16 14  1  0
 16 17  1  1
 18 20  1  0
 18 16  1  0
 19 18  2  0
 21 20  1  0
 22 23  1  0
 21 22  1  6
 24 21  1  0
 24 25  1  0
 26 24  2  0
M  END
$$$$
