YVC.pdb
     RDKit          3D

 26 26  0  0  1  0  0  0  0  0999 V2000
    7.9582  -14.1210   15.9191 O   0  0  0  0  0  0  0  0  0  0  0  0
    7.7912  -13.9142   17.2811 C   0  0  0  0  0  0  0  0  0  0  0  0
    8.7866  -14.2068   18.1713 C   0  0  0  0  0  0  0  0  0  0  0  0
    8.6561  -14.0160   19.5153 C   0  0  0  0  0  0  0  0  0  0  0  0
    7.4769  -13.5039   20.0475 C   0  0  0  0  0  0  0  0  0  0  0  0
    7.3243  -13.2914   21.5180 C   0  0  0  0  0  0  0  0  0  0  0  0
    8.2612  -14.3005   22.1940 C   0  0  2  0  0  0  0  0  0  0  0  0
    7.6052  -15.5737   22.1369 N   0  0  0  0  0  0  0  0  0  0  0  0
    8.5354  -13.8859   23.5993 C   0  0  0  0  0  0  0  0  0  0  0  0
    8.6294  -12.6829   23.9387 O   0  0  0  0  0  0  0  0  0  0  0  0
    6.4692  -13.2069   19.1541 C   0  0  0  0  0  0  0  0  0  0  0  0
    6.6074  -13.4026   17.7913 C   0  0  0  0  0  0  0  0  0  0  0  0
    7.6912  -13.7909   27.9618 C   0  0  0  0  0  0  0  0  0  0  0  0
    7.6893  -13.9051   26.4713 C   0  0  1  0  0  0  0  0  0  0  0  0
    7.3539  -12.6553   25.7363 C   0  0  0  0  0  0  0  0  0  0  0  0
    8.9477  -14.6069   25.9858 C   0  0  2  0  0  0  0  0  0  0  0  0
    8.6927  -14.8826   24.5716 N   0  0  0  0  0  0  0  0  0  0  0  0
    9.2711  -15.8286   26.7206 C   0  0  0  0  0  0  0  0  0  0  0  0
    8.4229  -16.7749   26.8586 O   0  0  0  0  0  0  0  0  0  0  0  0
   10.5443  -16.0040   27.3062 N   0  0  0  0  0  0  0  0  0  0  0  0
   10.9510  -17.2940   27.8739 C   0  0  1  0  0  0  0  0  0  0  0  0
   12.4644  -17.4581   27.7360 C   0  0  0  0  0  0  0  0  0  0  0  0
   13.0181  -16.8678   26.1204 S   0  0  0  0  0  0  0  0  0  0  0  0
   10.6432  -17.2848   29.3080 C   0  0  0  0  0  0  0  0  0  0  0  0
   10.7687  -18.3988   30.1320 O   0  0  0  0  0  0  0  0  0  0  0  0
   10.2341  -16.2284   29.8892 O   0  0  0  0  0  0  0  0  0  0  0  0
  2  1  1  0
  2  3  2  0
  4  3  1  0
  5  4  2  0
  6  5  1  0
  7  9  1  0
  7  6  1  0
  7  8  1  1
  9 17  1  0
  9 10  2  0
 11 12  2  0
 11  5  1  0
 12  2  1  0
 14 13  1  1
 14 15  1  0
 16 14  1  0
 16 17  1  6
 18 20  1  0
 18 16  1  0
 19 18  2  0
 21 20  1  0
 22 23  1  0
 21 22  1  1
 24 21  1  0
 24 25  1  0
 26 24  2  0
M  END
$$$$
