YVC.pdb
     RDKit          3D

 26 26  0  0  1  0  0  0  0  0999 V2000
   10.5531  -14.3400   30.9103 O   0  0  0  0  0  0  0  0  0  0  0  0
   10.3397  -14.7049   29.5885 C   0  0  0  0  0  0  0  0  0  0  0  0
   10.4285  -16.0092   29.1884 C   0  0  0  0  0  0  0  0  0  0  0  0
   10.2250  -16.4023   27.8986 C   0  0  0  0  0  0  0  0  0  0  0  0
    9.9113  -15.4701   26.9144 C   0  0  0  0  0  0  0  0  0  0  0  0
    9.6865  -15.8908   25.4990 C   0  0  0  0  0  0  0  0  0  0  0  0
    8.1862  -15.7116   25.2342 C   0  0  2  0  0  0  0  0  0  0  0  0
    7.5042  -16.6450   26.0816 N   0  0  0  0  0  0  0  0  0  0  0  0
    7.8857  -15.9548   23.7946 C   0  0  0  0  0  0  0  0  0  0  0  0
    7.5021  -17.0689   23.3672 O   0  0  0  0  0  0  0  0  0  0  0  0
    9.8203  -14.1529   27.3122 C   0  0  0  0  0  0  0  0  0  0  0  0
   10.0279  -13.7599   28.6226 C   0  0  0  0  0  0  0  0  0  0  0  0
    7.7581  -13.7237   19.3830 C   0  0  0  0  0  0  0  0  0  0  0  0
    7.7215  -13.7057   20.8774 C   0  0  1  0  0  0  0  0  0  0  0  0
    6.4975  -13.1093   21.4781 C   0  0  0  0  0  0  0  0  0  0  0  0
    8.1049  -15.0654   21.4395 C   0  0  2  0  0  0  0  0  0  0  0  0
    8.0399  -14.8947   22.8913 N   0  0  0  0  0  0  0  0  0  0  0  0
    9.4208  -15.5381   21.0133 C   0  0  0  0  0  0  0  0  0  0  0  0
   10.4776  -15.2821   21.6854 O   0  0  0  0  0  0  0  0  0  0  0  0
    9.5674  -16.3012   19.8339 N   0  0  0  0  0  0  0  0  0  0  0  0
   10.6842  -17.2373   19.6657 C   0  0  1  0  0  0  0  0  0  0  0  0
   10.5267  -18.4010   20.6441 C   0  0  0  0  0  0  0  0  0  0  0  0
   11.8097  -19.6415   20.3601 S   0  0  0  0  0  0  0  0  0  0  0  0
   10.6182  -17.7960   18.3110 C   0  0  0  0  0  0  0  0  0  0  0  0
   11.7393  -18.0917   17.5421 O   0  0  0  0  0  0  0  0  0  0  0  0
    9.5013  -18.0461   17.7532 O   0  0  0  0  0  0  0  0  0  0  0  0
  2  1  1  0
  2  3  2  0
  4  3  1  0
  5  4  2  0
  6  5  1  0
  7  9  1  0
  7  6  1  0
  7  8  1  1
  9 17  1  0
  9 10  2  0
 11 12  2  0
 11  5  1  0
 12  2  1  0
 14 13  1  6
 14 15  1  0
 16 14  1  0
 16 17  1  1
 18 20  1  0
 18 16  1  0
 19 18  2  0
 21 20  1  0
 22 23  1  0
 21 22  1  1
 24 21  1  0
 24 25  1  0
 26 24  2  0
M  END
$$$$
