YVC.pdb
     RDKit          3D

 26 26  0  0  1  0  0  0  0  0999 V2000
    7.7049  -22.0451   30.3383 O   0  0  0  0  0  0  0  0  0  0  0  0
    7.7697  -21.0506   29.3725 C   0  0  0  0  0  0  0  0  0  0  0  0
    6.6362  -20.5180   28.8243 C   0  0  0  0  0  0  0  0  0  0  0  0
    6.6636  -19.5404   27.8740 C   0  0  0  0  0  0  0  0  0  0  0  0
    7.8746  -19.0335   27.4129 C   0  0  0  0  0  0  0  0  0  0  0  0
    7.9151  -17.9628   26.3723 C   0  0  0  0  0  0  0  0  0  0  0  0
    6.9165  -18.3852   25.2871 C   0  0  2  0  0  0  0  0  0  0  0  0
    6.8855  -19.8183   25.2914 N   0  0  0  0  0  0  0  0  0  0  0  0
    7.3395  -17.8484   23.9624 C   0  0  0  0  0  0  0  0  0  0  0  0
    7.7468  -18.5887   23.0365 O   0  0  0  0  0  0  0  0  0  0  0  0
    9.0214  -19.5671   27.9623 C   0  0  0  0  0  0  0  0  0  0  0  0
    8.9874  -20.5591   28.9265 C   0  0  0  0  0  0  0  0  0  0  0  0
    8.1717  -13.5670   21.6179 C   0  0  0  0  0  0  0  0  0  0  0  0
    7.3698  -14.4593   22.5098 C   0  0  1  0  0  0  0  0  0  0  0  0
    5.9484  -14.6485   22.1113 C   0  0  0  0  0  0  0  0  0  0  0  0
    8.1239  -15.7479   22.7971 C   0  0  2  0  0  0  0  0  0  0  0  0
    7.2770  -16.4647   23.7511 N   0  0  0  0  0  0  0  0  0  0  0  0
    9.4726  -15.5457   23.3234 C   0  0  0  0  0  0  0  0  0  0  0  0
    9.6817  -14.9037   24.4089 O   0  0  0  0  0  0  0  0  0  0  0  0
   10.5985  -16.0594   22.6428 N   0  0  0  0  0  0  0  0  0  0  0  0
   11.9478  -15.9441   23.2064 C   0  0  1  0  0  0  0  0  0  0  0  0
   12.2254  -17.1411   24.1155 C   0  0  0  0  0  0  0  0  0  0  0  0
   13.8046  -16.9319   24.9686 S   0  0  0  0  0  0  0  0  0  0  0  0
   12.9146  -16.0010   22.1047 C   0  0  0  0  0  0  0  0  0  0  0  0
   14.2534  -15.6448   22.2328 O   0  0  0  0  0  0  0  0  0  0  0  0
   12.5697  -16.3899   20.9424 O   0  0  0  0  0  0  0  0  0  0  0  0
  2  1  1  0
  2  3  2  0
  4  3  1  0
  5  4  2  0
  6  5  1  0
  7  9  1  0
  7  6  1  0
  7  8  1  6
  9 17  1  0
  9 10  2  0
 11 12  2  0
 11  5  1  0
 12  2  1  0
 14 13  1  6
 14 15  1  0
 16 14  1  0
 16 17  1  1
 18 20  1  0
 18 16  1  0
 19 18  2  0
 21 20  1  0
 22 23  1  0
 21 22  1  1
 24 21  1  0
 24 25  1  0
 26 24  2  0
M  END
$$$$
