YVC.pdb
     RDKit          3D

 26 26  0  0  1  0  0  0  0  0999 V2000
    4.6960  -23.5963   26.7246 O   0  0  0  0  0  0  0  0  0  0  0  0
    5.3986  -22.4454   26.3969 C   0  0  0  0  0  0  0  0  0  0  0  0
    6.4923  -22.4898   25.5778 C   0  0  0  0  0  0  0  0  0  0  0  0
    7.2053  -21.3789   25.2357 C   0  0  0  0  0  0  0  0  0  0  0  0
    6.8401  -20.1257   25.7177 C   0  0  0  0  0  0  0  0  0  0  0  0
    7.6146  -18.9030   25.3488 C   0  0  0  0  0  0  0  0  0  0  0  0
    6.6608  -18.0259   24.5278 C   0  0  2  0  0  0  0  0  0  0  0  0
    6.4648  -18.6924   23.2740 N   0  0  0  0  0  0  0  0  0  0  0  0
    7.2437  -16.6665   24.3426 C   0  0  0  0  0  0  0  0  0  0  0  0
    7.9742  -16.3761   23.3662 O   0  0  0  0  0  0  0  0  0  0  0  0
    5.7376  -20.0748   26.5444 C   0  0  0  0  0  0  0  0  0  0  0  0
    5.0179  -21.2056   26.8882 C   0  0  0  0  0  0  0  0  0  0  0  0
    6.2833  -13.0590   24.3620 C   0  0  0  0  0  0  0  0  0  0  0  0
    6.9071  -13.3547   25.6879 C   0  0  1  0  0  0  0  0  0  0  0  0
    5.9656  -13.4004   26.8396 C   0  0  0  0  0  0  0  0  0  0  0  0
    7.8417  -14.5496   25.5862 C   0  0  2  0  0  0  0  0  0  0  0  0
    6.9608  -15.6820   25.2987 N   0  0  0  0  0  0  0  0  0  0  0  0
    8.6431  -14.7845   26.7860 C   0  0  0  0  0  0  0  0  0  0  0  0
    8.1487  -15.3362   27.8277 O   0  0  0  0  0  0  0  0  0  0  0  0
   10.0032  -14.4064   26.8319 N   0  0  0  0  0  0  0  0  0  0  0  0
   10.8978  -14.9051   27.8820 C   0  0  1  0  0  0  0  0  0  0  0  0
   12.3421  -14.8663   27.3831 C   0  0  0  0  0  0  0  0  0  0  0  0
   12.4752  -15.6768   25.7735 S   0  0  0  0  0  0  0  0  0  0  0  0
   10.8102  -13.9987   29.0319 C   0  0  0  0  0  0  0  0  0  0  0  0
   11.4118  -14.2500   30.2609 O   0  0  0  0  0  0  0  0  0  0  0  0
   10.1615  -12.9053   28.9634 O   0  0  0  0  0  0  0  0  0  0  0  0
  2  1  1  0
  2  3  2  0
  4  3  1  0
  5  4  2  0
  6  5  1  0
  7  9  1  0
  7  6  1  0
  7  8  1  6
  9 17  1  0
  9 10  2  0
 11 12  2  0
 11  5  1  0
 12  2  1  0
 14 13  1  6
 14 15  1  0
 16 14  1  0
 16 17  1  1
 18 20  1  0
 18 16  1  0
 19 18  2  0
 21 20  1  0
 22 23  1  0
 21 22  1  6
 24 21  1  0
 24 25  1  0
 26 24  2  0
M  END
$$$$
