YVC.pdb
     RDKit          3D

 26 26  0  0  1  0  0  0  0  0999 V2000
   11.3366  -15.8591   32.4134 O   0  0  0  0  0  0  0  0  0  0  0  0
   10.9363  -16.0840   31.1038 C   0  0  0  0  0  0  0  0  0  0  0  0
   10.9713  -17.3358   30.5554 C   0  0  0  0  0  0  0  0  0  0  0  0
   10.5856  -17.5920   29.2727 C   0  0  0  0  0  0  0  0  0  0  0  0
   10.1301  -16.5657   28.4510 C   0  0  0  0  0  0  0  0  0  0  0  0
    9.7054  -16.8362   27.0448 C   0  0  0  0  0  0  0  0  0  0  0  0
    8.1777  -16.9714   27.0794 C   0  0  2  0  0  0  0  0  0  0  0  0
    7.8907  -18.3713   27.1913 N   0  0  0  0  0  0  0  0  0  0  0  0
    7.5817  -16.3848   25.8455 C   0  0  0  0  0  0  0  0  0  0  0  0
    7.0168  -17.0860   24.9734 O   0  0  0  0  0  0  0  0  0  0  0  0
   10.0926  -15.3008   28.9989 C   0  0  0  0  0  0  0  0  0  0  0  0
   10.4853  -15.0469   30.3012 C   0  0  0  0  0  0  0  0  0  0  0  0
    7.0710  -12.0135   23.5461 C   0  0  0  0  0  0  0  0  0  0  0  0
    7.2146  -12.8568   24.7721 C   0  0  1  0  0  0  0  0  0  0  0  0
    6.2406  -12.5709   25.8604 C   0  0  0  0  0  0  0  0  0  0  0  0
    7.3360  -14.3262   24.4008 C   0  0  2  0  0  0  0  0  0  0  0  0
    7.6593  -14.9982   25.6598 N   0  0  0  0  0  0  0  0  0  0  0  0
    8.3385  -14.6014   23.3731 C   0  0  0  0  0  0  0  0  0  0  0  0
    9.5816  -14.3763   23.5687 O   0  0  0  0  0  0  0  0  0  0  0  0
    7.9614  -15.1309   22.1192 N   0  0  0  0  0  0  0  0  0  0  0  0
    8.9634  -15.4745   21.1045 C   0  0  1  0  0  0  0  0  0  0  0  0
    8.9038  -16.9743   20.8153 C   0  0  0  0  0  0  0  0  0  0  0  0
    9.0694  -17.9187   22.3470 S   0  0  0  0  0  0  0  0  0  0  0  0
    8.6186  -14.7776   19.8607 C   0  0  0  0  0  0  0  0  0  0  0  0
    9.4140  -14.7954   18.7194 O   0  0  0  0  0  0  0  0  0  0  0  0
    7.5443  -14.1019   19.7580 O   0  0  0  0  0  0  0  0  0  0  0  0
  2  1  1  0
  2  3  2  0
  4  3  1  0
  5  4  2  0
  6  5  1  0
  7  9  1  0
  7  6  1  0
  7  8  1  6
  9 17  1  0
  9 10  2  0
 11 12  2  0
 11  5  1  0
 12  2  1  0
 14 13  1  6
 14 15  1  0
 16 14  1  0
 16 17  1  1
 18 20  1  0
 18 16  1  0
 19 18  2  0
 21 20  1  0
 22 23  1  0
 21 22  1  6
 24 21  1  0
 24 25  1  0
 26 24  2  0
M  END
$$$$
