YVC.pdb
     RDKit          3D

 26 26  0  0  1  0  0  0  0  0999 V2000
   11.6405  -16.1734   32.6032 O   0  0  0  0  0  0  0  0  0  0  0  0
   11.1878  -16.3216   31.2998 C   0  0  0  0  0  0  0  0  0  0  0  0
   10.6989  -15.2588   30.5924 C   0  0  0  0  0  0  0  0  0  0  0  0
   10.2462  -15.3691   29.3108 C   0  0  0  0  0  0  0  0  0  0  0  0
   10.2640  -16.5965   28.6557 C   0  0  0  0  0  0  0  0  0  0  0  0
    9.7704  -16.7275   27.2521 C   0  0  0  0  0  0  0  0  0  0  0  0
    8.2404  -16.7918   27.3426 C   0  0  2  0  0  0  0  0  0  0  0  0
    7.9001  -18.1612   27.5950 N   0  0  0  0  0  0  0  0  0  0  0  0
    7.6294  -16.2979   26.0759 C   0  0  0  0  0  0  0  0  0  0  0  0
    7.1154  -17.0696   25.2324 O   0  0  0  0  0  0  0  0  0  0  0  0
   10.7562  -17.6722   29.3644 C   0  0  0  0  0  0  0  0  0  0  0  0
   11.2142  -17.5543   30.6648 C   0  0  0  0  0  0  0  0  0  0  0  0
    6.7251  -12.0846   23.6158 C   0  0  0  0  0  0  0  0  0  0  0  0
    7.0083  -12.8558   24.8647 C   0  0  1  0  0  0  0  0  0  0  0  0
    6.0694  -12.6098   25.9929 C   0  0  0  0  0  0  0  0  0  0  0  0
    7.2449  -14.3236   24.5464 C   0  0  2  0  0  0  0  0  0  0  0  0
    7.6332  -14.9193   25.8252 N   0  0  0  0  0  0  0  0  0  0  0  0
    8.2568  -14.5557   23.5172 C   0  0  0  0  0  0  0  0  0  0  0  0
    9.4697  -14.1820   23.6701 O   0  0  0  0  0  0  0  0  0  0  0  0
    7.9229  -15.2077   22.3095 N   0  0  0  0  0  0  0  0  0  0  0  0
    8.9298  -15.4499   21.2707 C   0  0  1  0  0  0  0  0  0  0  0  0
    9.1225  -16.9552   21.0876 C   0  0  0  0  0  0  0  0  0  0  0  0
    9.5625  -17.7302   22.6596 S   0  0  0  0  0  0  0  0  0  0  0  0
    8.4206  -14.9190   20.0016 C   0  0  0  0  0  0  0  0  0  0  0  0
    9.1636  -14.8830   18.8259 O   0  0  0  0  0  0  0  0  0  0  0  0
    7.2404  -14.4509   19.9074 O   0  0  0  0  0  0  0  0  0  0  0  0
  2  1  1  0
  2  3  2  0
  4  3  1  0
  5  4  2  0
  6  5  1  0
  7  9  1  0
  7  6  1  0
  7  8  1  6
  9 17  1  0
  9 10  2  0
 11 12  2  0
 11  5  1  0
 12  2  1  0
 14 13  1  6
 14 15  1  0
 16 14  1  0
 16 17  1  1
 18 20  1  0
 18 16  1  0
 19 18  2  0
 21 20  1  0
 22 23  1  0
 21 22  1  6
 24 21  1  0
 24 25  1  0
 26 24  2  0
M  END
$$$$
