YVC.pdb
     RDKit          3D

 26 26  0  0  1  0  0  0  0  0999 V2000
    5.6383  -10.6440   28.4199 O   0  0  0  0  0  0  0  0  0  0  0  0
    6.2423  -11.5131   27.5223 C   0  0  0  0  0  0  0  0  0  0  0  0
    7.0745  -12.5101   27.9494 C   0  0  0  0  0  0  0  0  0  0  0  0
    7.6841  -13.3809   27.0952 C   0  0  0  0  0  0  0  0  0  0  0  0
    7.4790  -13.2880   25.7222 C   0  0  0  0  0  0  0  0  0  0  0  0
    8.1420  -14.2371   24.7785 C   0  0  0  0  0  0  0  0  0  0  0  0
    7.0143  -14.8947   23.9728 C   0  0  2  0  0  0  0  0  0  0  0  0
    6.3793  -15.8368   24.8467 N   0  0  0  0  0  0  0  0  0  0  0  0
    7.5694  -15.5583   22.7590 C   0  0  0  0  0  0  0  0  0  0  0  0
    7.9381  -16.7563   22.7575 O   0  0  0  0  0  0  0  0  0  0  0  0
    6.6403  -12.2842   25.2855 C   0  0  0  0  0  0  0  0  0  0  0  0
    6.0245  -11.4034   26.1570 C   0  0  0  0  0  0  0  0  0  0  0  0
    6.6664  -13.8539   19.1870 C   0  0  0  0  0  0  0  0  0  0  0  0
    8.1150  -14.1878   19.3447 C   0  0  1  0  0  0  0  0  0  0  0  0
    9.0200  -13.0229   19.5420 C   0  0  0  0  0  0  0  0  0  0  0  0
    8.2997  -15.3110   20.3525 C   0  0  2  0  0  0  0  0  0  0  0  0
    7.6802  -14.8097   21.5797 N   0  0  0  0  0  0  0  0  0  0  0  0
    9.6936  -15.6926   20.5724 C   0  0  0  0  0  0  0  0  0  0  0  0
   10.5140  -14.9224   21.1789 O   0  0  0  0  0  0  0  0  0  0  0  0
   10.1824  -16.9374   20.1181 N   0  0  0  0  0  0  0  0  0  0  0  0
   11.5987  -17.2948   20.2519 C   0  0  1  0  0  0  0  0  0  0  0  0
   11.7360  -18.4963   21.1867 C   0  0  0  0  0  0  0  0  0  0  0  0
   11.2074  -18.0582   22.8583 S   0  0  0  0  0  0  0  0  0  0  0  0
   12.0968  -17.7085   18.9357 C   0  0  0  0  0  0  0  0  0  0  0  0
   11.2890  -17.8403   17.8107 O   0  0  0  0  0  0  0  0  0  0  0  0
   13.3276  -17.9757   18.7492 O   0  0  0  0  0  0  0  0  0  0  0  0
  2  1  1  0
  2  3  2  0
  4  3  1  0
  5  4  2  0
  6  5  1  0
  7  9  1  0
  7  6  1  0
  7  8  1  1
  9 17  1  0
  9 10  2  0
 11 12  2  0
 11  5  1  0
 12  2  1  0
 14 13  1  1
 14 15  1  0
 16 14  1  0
 16 17  1  1
 18 20  1  0
 18 16  1  0
 19 18  2  0
 21 20  1  0
 22 23  1  0
 21 22  1  1
 24 21  1  0
 24 25  1  0
 26 24  2  0
M  END
$$$$
