YVC.pdb
     RDKit          3D

 26 26  0  0  1  0  0  0  0  0999 V2000
    7.2445  -11.4741   26.6303 O   0  0  0  0  0  0  0  0  0  0  0  0
    7.0081  -12.8237   26.4099 C   0  0  0  0  0  0  0  0  0  0  0  0
    7.4764  -13.7768   27.2709 C   0  0  0  0  0  0  0  0  0  0  0  0
    7.2625  -15.1106   27.0847 C   0  0  0  0  0  0  0  0  0  0  0  0
    6.5420  -15.5664   25.9850 C   0  0  0  0  0  0  0  0  0  0  0  0
    6.3023  -17.0252   25.7723 C   0  0  0  0  0  0  0  0  0  0  0  0
    6.7959  -17.3357   24.3534 C   0  0  2  0  0  0  0  0  0  0  0  0
    6.0081  -18.4333   23.8744 N   0  0  0  0  0  0  0  0  0  0  0  0
    8.2483  -17.6701   24.3761 C   0  0  0  0  0  0  0  0  0  0  0  0
    8.6703  -18.8120   24.6745 O   0  0  0  0  0  0  0  0  0  0  0  0
    6.0671  -14.6094   25.1130 C   0  0  0  0  0  0  0  0  0  0  0  0
    6.2873  -13.2572   25.3072 C   0  0  0  0  0  0  0  0  0  0  0  0
   10.5207  -17.1626   21.5741 C   0  0  0  0  0  0  0  0  0  0  0  0
   11.0650  -16.3241   22.6856 C   0  0  1  0  0  0  0  0  0  0  0  0
   10.8910  -14.8553   22.5204 C   0  0  0  0  0  0  0  0  0  0  0  0
   10.6196  -16.8668   24.0342 C   0  0  2  0  0  0  0  0  0  0  0  0
    9.1703  -16.6663   24.0508 N   0  0  0  0  0  0  0  0  0  0  0  0
   11.2633  -16.2239   25.1785 C   0  0  0  0  0  0  0  0  0  0  0  0
   12.3358  -15.5402   25.0503 O   0  0  0  0  0  0  0  0  0  0  0  0
   10.7142  -16.3383   26.4748 N   0  0  0  0  0  0  0  0  0  0  0  0
   11.4832  -15.9574   27.6644 C   0  0  1  0  0  0  0  0  0  0  0  0
   10.8440  -14.7304   28.3142 C   0  0  0  0  0  0  0  0  0  0  0  0
   10.5479  -13.4451   27.0790 S   0  0  0  0  0  0  0  0  0  0  0  0
   11.4049  -17.0542   28.6353 C   0  0  0  0  0  0  0  0  0  0  0  0
   10.6820  -18.2237   28.4228 O   0  0  0  0  0  0  0  0  0  0  0  0
   12.0110  -16.9913   29.7533 O   0  0  0  0  0  0  0  0  0  0  0  0
  2  1  1  0
  2  3  2  0
  4  3  1  0
  5  4  2  0
  6  5  1  0
  7  9  1  0
  7  6  1  0
  7  8  1  1
  9 17  1  0
  9 10  2  0
 11 12  2  0
 11  5  1  0
 12  2  1  0
 14 13  1  6
 14 15  1  0
 16 14  1  0
 16 17  1  1
 18 20  1  0
 18 16  1  0
 19 18  2  0
 21 20  1  0
 22 23  1  0
 21 22  1  1
 24 21  1  0
 24 25  1  0
 26 24  2  0
M  END
$$$$
