HNL.pdb
     RDKit          3D

 27 27  0  0  1  0  0  0  0  0999 V2000
    7.8283  -17.2620   19.0470 N   0  0  0  0  0  0  0  0  0  0  0  0
    7.9533  -16.1637   19.9803 C   0  0  1  0  0  0  0  0  0  0  0  0
    7.0165  -15.0770   19.4632 C   0  0  0  0  0  0  0  0  0  0  0  0
    7.6546  -14.4527   18.2750 C   0  0  0  0  0  0  0  0  0  0  0  0
    8.6144  -13.4460   18.2919 C   0  0  0  0  0  0  0  0  0  0  0  0
    8.9520  -13.1337   17.0288 N   0  0  0  0  0  0  0  0  0  0  0  0
    8.2378  -13.9093   16.1953 C   0  0  0  0  0  0  0  0  0  0  0  0
    7.4560  -14.7038   16.9529 N   0  0  0  0  0  0  0  0  0  0  0  0
    7.4757  -16.6272   21.3277 C   0  0  0  0  0  0  0  0  0  0  0  0
    6.4927  -17.3882   21.3149 O   0  0  0  0  0  0  0  0  0  0  0  0
    7.7787  -19.2019   26.3175 N   0  0  0  0  0  0  0  0  0  0  0  0
    7.0566  -18.2904   25.4656 C   0  0  0  0  0  0  0  0  0  0  0  0
    6.0225  -17.6935   25.8993 O   0  0  0  0  0  0  0  0  0  0  0  0
    7.5683  -18.0970   24.1099 C   0  0  0  0  0  0  0  0  0  0  0  0
    7.7821  -16.6301   23.8190 C   0  0  2  0  0  0  0  0  0  0  0  0
    8.0871  -16.2341   22.5130 N   0  0  0  0  0  0  0  0  0  0  0  0
    8.4597  -16.0102   24.9380 C   0  0  0  0  0  0  0  0  0  0  0  0
    9.6848  -16.3015   25.1081 O   0  0  0  0  0  0  0  0  0  0  0  0
    7.2339  -11.8836   25.5254 C   0  0  0  0  0  0  0  0  0  0  0  0
    6.7364  -12.8339   26.6179 C   0  0  2  0  0  0  0  0  0  0  0  0
    5.7302  -12.0380   27.4369 C   0  0  0  0  0  0  0  0  0  0  0  0
    7.8838  -13.2911   27.4752 C   0  0  0  0  0  0  0  0  0  0  0  0
    8.7116  -14.2945   26.7628 C   0  0  2  0  0  0  0  0  0  0  0  0
    7.9094  -15.1175   25.8598 N   0  0  0  0  0  0  0  0  0  0  0  0
    9.3337  -15.2286   27.7127 C   0  0  0  0  0  0  0  0  0  0  0  0
   10.2840  -14.9162   28.6714 O   0  0  0  0  0  0  0  0  0  0  0  0
    8.9984  -16.4737   27.6907 O   0  0  0  0  0  0  0  0  0  0  0  0
  2  1  1  6
  2  3  1  0
  4  3  1  0
  5  4  2  0
  6  5  1  0
  7  6  1  0
  7  8  2  0
  8  4  1  0
  9  2  1  0
 10  9  2  0
 12 14  1  0
 12 11  1  0
 13 12  2  0
 15 14  1  6
 15 16  1  0
 16  9  1  0
 17 15  1  0
 17 18  2  0
 20 19  1  6
 20 22  1  0
 20 21  1  0
 23 22  1  1
 23 24  1  0
 24 17  1  0
 25 23  1  0
 26 25  1  0
 27 25  2  0
M  END
$$$$
