HNL.pdb
     RDKit          3D

 27 27  0  0  1  0  0  0  0  0999 V2000
    8.6385  -16.3061   19.6240 N   0  0  0  0  0  0  0  0  0  0  0  0
    8.4111  -15.0977   20.3862 C   0  0  1  0  0  0  0  0  0  0  0  0
    7.3089  -14.3469   19.6465 C   0  0  0  0  0  0  0  0  0  0  0  0
    7.7904  -14.0733   18.2673 C   0  0  0  0  0  0  0  0  0  0  0  0
    6.9946  -13.8461   17.1493 C   0  0  0  0  0  0  0  0  0  0  0  0
    7.7814  -13.6399   16.0791 N   0  0  0  0  0  0  0  0  0  0  0  0
    9.0635  -13.7275   16.4728 C   0  0  0  0  0  0  0  0  0  0  0  0
    9.0633  -13.9894   17.7948 N   0  0  0  0  0  0  0  0  0  0  0  0
    7.9156  -15.4825   21.7518 C   0  0  0  0  0  0  0  0  0  0  0  0
    7.2590  -14.6116   22.3485 O   0  0  0  0  0  0  0  0  0  0  0  0
    6.2795  -17.8132   25.6197 N   0  0  0  0  0  0  0  0  0  0  0  0
    6.9918  -18.9257   25.0424 C   0  0  0  0  0  0  0  0  0  0  0  0
    6.8427  -20.0950   25.5160 O   0  0  0  0  0  0  0  0  0  0  0  0
    7.8722  -18.6394   23.9110 C   0  0  0  0  0  0  0  0  0  0  0  0
    7.9125  -17.1573   23.6214 C   0  0  2  0  0  0  0  0  0  0  0  0
    8.1719  -16.7270   22.3164 N   0  0  0  0  0  0  0  0  0  0  0  0
    8.5097  -16.4628   24.7424 C   0  0  0  0  0  0  0  0  0  0  0  0
    9.7730  -16.5310   24.8609 O   0  0  0  0  0  0  0  0  0  0  0  0
    7.9939  -12.0745   25.6777 C   0  0  0  0  0  0  0  0  0  0  0  0
    6.9738  -13.0480   26.2744 C   0  0  2  0  0  0  0  0  0  0  0  0
    5.8742  -12.1839   26.8751 C   0  0  0  0  0  0  0  0  0  0  0  0
    7.6212  -13.9018   27.3291 C   0  0  0  0  0  0  0  0  0  0  0  0
    8.5289  -14.9028   26.7180 C   0  0  2  0  0  0  0  0  0  0  0  0
    7.8432  -15.7179   25.7172 N   0  0  0  0  0  0  0  0  0  0  0  0
    9.0269  -15.8446   27.7314 C   0  0  0  0  0  0  0  0  0  0  0  0
    9.9744  -15.5790   28.7068 O   0  0  0  0  0  0  0  0  0  0  0  0
    8.5707  -17.0507   27.7559 O   0  0  0  0  0  0  0  0  0  0  0  0
  2  1  1  6
  2  3  1  0
  4  3  1  0
  5  4  2  0
  6  5  1  0
  7  6  1  0
  7  8  2  0
  8  4  1  0
  9  2  1  0
 10  9  2  0
 12 14  1  0
 12 11  1  0
 13 12  2  0
 15 14  1  6
 15 16  1  0
 16  9  1  0
 17 15  1  0
 17 18  2  0
 20 19  1  1
 20 22  1  0
 20 21  1  0
 23 22  1  1
 23 24  1  0
 24 17  1  0
 25 23  1  0
 26 25  1  0
 27 25  2  0
M  END
$$$$
