HNL.pdb
     RDKit          3D

 27 27  0  0  1  0  0  0  0  0999 V2000
    6.1914  -16.2266   19.8419 N   0  0  0  0  0  0  0  0  0  0  0  0
    7.3798  -15.8675   20.5846 C   0  0  1  0  0  0  0  0  0  0  0  0
    7.5460  -14.3639   20.3914 C   0  0  0  0  0  0  0  0  0  0  0  0
    8.0312  -14.1333   19.0057 C   0  0  0  0  0  0  0  0  0  0  0  0
    7.3880  -13.3871   18.0236 C   0  0  0  0  0  0  0  0  0  0  0  0
    8.1235  -13.4067   16.8987 N   0  0  0  0  0  0  0  0  0  0  0  0
    9.2239  -14.1444   17.1248 C   0  0  0  0  0  0  0  0  0  0  0  0
    9.1632  -14.5808   18.3985 N   0  0  0  0  0  0  0  0  0  0  0  0
    7.1368  -16.1545   22.0396 C   0  0  0  0  0  0  0  0  0  0  0  0
    6.0066  -15.8565   22.4629 O   0  0  0  0  0  0  0  0  0  0  0  0
    6.5762  -18.6562   26.5634 N   0  0  0  0  0  0  0  0  0  0  0  0
    7.9380  -18.6062   26.0934 C   0  0  0  0  0  0  0  0  0  0  0  0
    8.9017  -18.6779   26.9180 O   0  0  0  0  0  0  0  0  0  0  0  0
    8.1419  -18.4718   24.6521 C   0  0  0  0  0  0  0  0  0  0  0  0
    8.0149  -17.0291   24.2223 C   0  0  2  0  0  0  0  0  0  0  0  0
    8.1073  -16.7147   22.8629 N   0  0  0  0  0  0  0  0  0  0  0  0
    8.6483  -16.1755   25.2052 C   0  0  0  0  0  0  0  0  0  0  0  0
    9.9090  -16.0368   25.1268 O   0  0  0  0  0  0  0  0  0  0  0  0
    8.1441  -11.9744   25.6246 C   0  0  0  0  0  0  0  0  0  0  0  0
    7.1728  -12.8384   26.4336 C   0  0  2  0  0  0  0  0  0  0  0  0
    6.0712  -11.8992   26.9039 C   0  0  0  0  0  0  0  0  0  0  0  0
    7.8800  -13.4638   27.6037 C   0  0  0  0  0  0  0  0  0  0  0  0
    8.7278  -14.5993   27.1662 C   0  0  2  0  0  0  0  0  0  0  0  0
    8.0195  -15.4802   26.2397 N   0  0  0  0  0  0  0  0  0  0  0  0
    9.1066  -15.4406   28.3111 C   0  0  0  0  0  0  0  0  0  0  0  0
    8.8361  -16.7906   28.4655 O   0  0  0  0  0  0  0  0  0  0  0  0
    9.7531  -14.9176   29.2969 O   0  0  0  0  0  0  0  0  0  0  0  0
  2  1  1  6
  2  3  1  0
  4  3  1  0
  5  4  2  0
  6  5  1  0
  7  6  1  0
  7  8  2  0
  8  4  1  0
  9  2  1  0
 10  9  2  0
 12 14  1  0
 12 11  1  0
 13 12  2  0
 15 14  1  6
 15 16  1  0
 16  9  1  0
 17 15  1  0
 17 18  2  0
 20 19  1  1
 20 22  1  0
 20 21  1  0
 23 22  1  1
 23 24  1  0
 24 17  1  0
 25 23  1  0
 26 25  1  0
 27 25  2  0
M  END
$$$$
