HNL.pdb
     RDKit          3D

 27 27  0  0  1  0  0  0  0  0999 V2000
   10.1544  -16.7303   18.3431 N   0  0  0  0  0  0  0  0  0  0  0  0
    9.1085  -16.0119   19.0379 C   0  0  1  0  0  0  0  0  0  0  0  0
    7.8632  -16.1582   18.1697 C   0  0  0  0  0  0  0  0  0  0  0  0
    7.9319  -15.1311   17.0977 C   0  0  0  0  0  0  0  0  0  0  0  0
    8.9899  -14.2593   16.8618 C   0  0  0  0  0  0  0  0  0  0  0  0
    8.6920  -13.4739   15.8125 N   0  0  0  0  0  0  0  0  0  0  0  0
    7.4714  -13.8123   15.3629 C   0  0  0  0  0  0  0  0  0  0  0  0
    7.0170  -14.8135   16.1425 N   0  0  0  0  0  0  0  0  0  0  0  0
    8.8690  -16.6821   20.3615 C   0  0  0  0  0  0  0  0  0  0  0  0
    8.1049  -17.6624   20.3351 O   0  0  0  0  0  0  0  0  0  0  0  0
    8.8438  -19.4653   24.5068 N   0  0  0  0  0  0  0  0  0  0  0  0
   10.0685  -18.7472   24.2565 C   0  0  0  0  0  0  0  0  0  0  0  0
   10.9385  -18.6281   25.1745 O   0  0  0  0  0  0  0  0  0  0  0  0
   10.2476  -18.1788   22.9216 C   0  0  0  0  0  0  0  0  0  0  0  0
    9.4936  -16.8770   22.7848 C   0  0  2  0  0  0  0  0  0  0  0  0
    9.4586  -16.2398   21.5405 N   0  0  0  0  0  0  0  0  0  0  0  0
    9.6586  -16.0949   23.9918 C   0  0  0  0  0  0  0  0  0  0  0  0
   10.8119  -15.6111   24.2166 O   0  0  0  0  0  0  0  0  0  0  0  0
    8.2249  -12.1671   25.2875 C   0  0  0  0  0  0  0  0  0  0  0  0
    7.2338  -13.3211   25.4615 C   0  0  2  0  0  0  0  0  0  0  0  0
    5.9054  -12.6778   25.8334 C   0  0  0  0  0  0  0  0  0  0  0  0
    7.7009  -14.2521   26.5457 C   0  0  0  0  0  0  0  0  0  0  0  0
    8.9206  -14.9846   26.1271 C   0  0  2  0  0  0  0  0  0  0  0  0
    8.6793  -15.8101   24.9453 N   0  0  0  0  0  0  0  0  0  0  0  0
    9.3623  -15.9100   27.1809 C   0  0  0  0  0  0  0  0  0  0  0  0
   10.0303  -15.5714   28.3466 O   0  0  0  0  0  0  0  0  0  0  0  0
    9.1322  -17.1727   27.0544 O   0  0  0  0  0  0  0  0  0  0  0  0
  2  1  1  6
  2  3  1  0
  4  3  1  0
  5  4  2  0
  6  5  1  0
  7  6  1  0
  7  8  2  0
  8  4  1  0
  9  2  1  0
 10  9  2  0
 12 14  1  0
 12 11  1  0
 13 12  2  0
 15 14  1  6
 15 16  1  0
 16  9  1  0
 17 15  1  0
 17 18  2  0
 20 19  1  1
 20 22  1  0
 20 21  1  0
 23 22  1  1
 23 24  1  0
 24 17  1  0
 25 23  1  0
 26 25  1  0
 27 25  2  0
M  END
$$$$
