HNL.pdb
     RDKit          3D

 27 27  0  0  1  0  0  0  0  0999 V2000
    8.5550  -16.2914   19.5822 N   0  0  0  0  0  0  0  0  0  0  0  0
    7.9237  -15.2013   20.2936 C   0  0  1  0  0  0  0  0  0  0  0  0
    6.7344  -14.7846   19.4347 C   0  0  0  0  0  0  0  0  0  0  0  0
    7.2567  -14.3522   18.1122 C   0  0  0  0  0  0  0  0  0  0  0  0
    8.0952  -13.2680   17.8746 C   0  0  0  0  0  0  0  0  0  0  0  0
    8.3521  -13.1861   16.5578 N   0  0  0  0  0  0  0  0  0  0  0  0
    7.7036  -14.1861   15.9366 C   0  0  0  0  0  0  0  0  0  0  0  0
    7.0437  -14.8871   16.8797 N   0  0  0  0  0  0  0  0  0  0  0  0
    7.4229  -15.7201   21.6121 C   0  0  0  0  0  0  0  0  0  0  0  0
    6.2221  -16.0406   21.6404 O   0  0  0  0  0  0  0  0  0  0  0  0
    6.1989  -19.2447   25.1336 N   0  0  0  0  0  0  0  0  0  0  0  0
    7.5546  -18.8617   24.8279 C   0  0  0  0  0  0  0  0  0  0  0  0
    8.4950  -19.1407   25.6350 O   0  0  0  0  0  0  0  0  0  0  0  0
    7.7798  -18.1528   23.5694 C   0  0  0  0  0  0  0  0  0  0  0  0
    8.1042  -16.6989   23.8208 C   0  0  2  0  0  0  0  0  0  0  0  0
    8.2422  -15.8352   22.7296 N   0  0  0  0  0  0  0  0  0  0  0  0
    9.0124  -16.5944   24.9432 C   0  0  0  0  0  0  0  0  0  0  0  0
    9.1769  -17.6340   25.6551 O   0  0  0  0  0  0  0  0  0  0  0  0
    6.1978  -12.2661   26.5244 C   0  0  0  0  0  0  0  0  0  0  0  0
    7.4516  -12.9904   27.0218 C   0  0  2  0  0  0  0  0  0  0  0  0
    8.5095  -11.9123   27.2097 C   0  0  0  0  0  0  0  0  0  0  0  0
    7.8999  -14.0115   26.0134 C   0  0  0  0  0  0  0  0  0  0  0  0
    9.2607  -14.5087   26.3307 C   0  0  2  0  0  0  0  0  0  0  0  0
    9.7354  -15.4655   25.3329 N   0  0  0  0  0  0  0  0  0  0  0  0
    9.2689  -15.2276   27.6132 C   0  0  0  0  0  0  0  0  0  0  0  0
    8.8604  -16.5342   27.8270 O   0  0  0  0  0  0  0  0  0  0  0  0
    9.6852  -14.6263   28.6755 O   0  0  0  0  0  0  0  0  0  0  0  0
  2  1  1  6
  2  3  1  0
  4  3  1  0
  5  4  2  0
  6  5  1  0
  7  6  1  0
  7  8  2  0
  8  4  1  0
  9  2  1  0
 10  9  2  0
 12 14  1  0
 12 11  1  0
 13 12  2  0
 15 14  1  6
 15 16  1  0
 16  9  1  0
 17 15  1  0
 17 18  2  0
 20 19  1  6
 20 22  1  0
 20 21  1  0
 23 22  1  6
 23 24  1  0
 24 17  1  0
 25 23  1  0
 26 25  1  0
 27 25  2  0
M  END
$$$$
