HNL.pdb
     RDKit          3D

 27 27  0  0  1  0  0  0  0  0999 V2000
    9.2053  -15.4391   20.7407 N   0  0  0  0  0  0  0  0  0  0  0  0
    7.9669  -14.7981   21.1262 C   0  0  1  0  0  0  0  0  0  0  0  0
    6.9912  -15.0711   19.9863 C   0  0  0  0  0  0  0  0  0  0  0  0
    7.4425  -14.2923   18.8037 C   0  0  0  0  0  0  0  0  0  0  0  0
    8.5931  -13.5149   18.7225 C   0  0  0  0  0  0  0  0  0  0  0  0
    8.6674  -12.9587   17.5010 N   0  0  0  0  0  0  0  0  0  0  0  0
    7.5977  -13.3540   16.7898 C   0  0  0  0  0  0  0  0  0  0  0  0
    6.8613  -14.1590   17.5811 N   0  0  0  0  0  0  0  0  0  0  0  0
    7.4599  -15.4563   22.3784 C   0  0  0  0  0  0  0  0  0  0  0  0
    6.3508  -15.0628   22.7791 O   0  0  0  0  0  0  0  0  0  0  0  0
    6.4785  -19.1684   26.1076 N   0  0  0  0  0  0  0  0  0  0  0  0
    7.8670  -18.8310   25.9172 C   0  0  0  0  0  0  0  0  0  0  0  0
    8.6784  -18.8888   26.8930 O   0  0  0  0  0  0  0  0  0  0  0  0
    8.2776  -18.4291   24.5730 C   0  0  0  0  0  0  0  0  0  0  0  0
    7.9342  -16.9807   24.3154 C   0  0  2  0  0  0  0  0  0  0  0  0
    8.1787  -16.4394   23.0494 N   0  0  0  0  0  0  0  0  0  0  0  0
    8.2169  -16.1997   25.5011 C   0  0  0  0  0  0  0  0  0  0  0  0
    7.5888  -16.5074   26.5619 O   0  0  0  0  0  0  0  0  0  0  0  0
    8.2886  -11.7023   25.5803 C   0  0  0  0  0  0  0  0  0  0  0  0
    7.3676  -12.8784   25.9160 C   0  0  2  0  0  0  0  0  0  0  0  0
    6.0084  -12.2684   26.2277 C   0  0  0  0  0  0  0  0  0  0  0  0
    7.8992  -13.6370   27.1003 C   0  0  0  0  0  0  0  0  0  0  0  0
    9.2021  -14.2705   26.7833 C   0  0  2  0  0  0  0  0  0  0  0  0
    9.1138  -15.1351   25.6083 N   0  0  0  0  0  0  0  0  0  0  0  0
    9.6452  -15.1353   27.8868 C   0  0  0  0  0  0  0  0  0  0  0  0
    9.8438  -16.5053   27.8300 O   0  0  0  0  0  0  0  0  0  0  0  0
    9.8831  -14.6170   29.0436 O   0  0  0  0  0  0  0  0  0  0  0  0
  2  1  1  6
  2  3  1  0
  4  3  1  0
  5  4  2  0
  6  5  1  0
  7  6  1  0
  7  8  2  0
  8  4  1  0
  9  2  1  0
 10  9  2  0
 12 14  1  0
 12 11  1  0
 13 12  2  0
 15 14  1  1
 15 16  1  0
 16  9  1  0
 17 15  1  0
 17 18  2  0
 20 19  1  1
 20 22  1  0
 20 21  1  0
 23 22  1  1
 23 24  1  0
 24 17  1  0
 25 23  1  0
 26 25  1  0
 27 25  2  0
M  END
$$$$
