HNL.pdb
     RDKit          3D

 27 27  0  0  1  0  0  0  0  0999 V2000
   11.8807  -15.3751   21.3968 N   0  0  0  0  0  0  0  0  0  0  0  0
   10.5961  -15.3541   20.7317 C   0  0  1  0  0  0  0  0  0  0  0  0
   10.7996  -16.1083   19.4218 C   0  0  0  0  0  0  0  0  0  0  0  0
   11.9784  -15.5188   18.7350 C   0  0  0  0  0  0  0  0  0  0  0  0
   12.3153  -14.1698   18.6933 C   0  0  0  0  0  0  0  0  0  0  0  0
   13.4427  -14.0161   17.9777 N   0  0  0  0  0  0  0  0  0  0  0  0
   13.8448  -15.2269   17.5551 C   0  0  0  0  0  0  0  0  0  0  0  0
   12.9571  -16.1307   18.0151 N   0  0  0  0  0  0  0  0  0  0  0  0
    9.6072  -16.1001   21.5825 C   0  0  0  0  0  0  0  0  0  0  0  0
    8.4847  -16.2693   21.0757 O   0  0  0  0  0  0  0  0  0  0  0  0
   11.1438  -19.9282   23.6360 N   0  0  0  0  0  0  0  0  0  0  0  0
   10.3739  -19.0743   24.5056 C   0  0  0  0  0  0  0  0  0  0  0  0
   10.8309  -18.7419   25.6433 O   0  0  0  0  0  0  0  0  0  0  0  0
    9.0717  -18.6244   24.0167 C   0  0  0  0  0  0  0  0  0  0  0  0
    9.0626  -17.1284   23.8066 C   0  0  2  0  0  0  0  0  0  0  0  0
    9.9201  -16.5713   22.8527 N   0  0  0  0  0  0  0  0  0  0  0  0
    8.8682  -16.4639   25.0779 C   0  0  0  0  0  0  0  0  0  0  0  0
    8.0036  -16.9603   25.8657 O   0  0  0  0  0  0  0  0  0  0  0  0
    8.3320  -11.9274   26.2229 C   0  0  0  0  0  0  0  0  0  0  0  0
    7.5068  -13.1795   25.9139 C   0  0  2  0  0  0  0  0  0  0  0  0
    6.0489  -12.7531   26.0116 C   0  0  0  0  0  0  0  0  0  0  0  0
    7.8152  -14.2666   26.9057 C   0  0  0  0  0  0  0  0  0  0  0  0
    9.2366  -14.6798   26.8152 C   0  0  2  0  0  0  0  0  0  0  0  0
    9.5338  -15.3264   25.5385 N   0  0  0  0  0  0  0  0  0  0  0  0
    9.5603  -15.6702   27.8526 C   0  0  0  0  0  0  0  0  0  0  0  0
    9.8779  -15.4035   29.1746 O   0  0  0  0  0  0  0  0  0  0  0  0
    9.5659  -16.9247   27.5532 O   0  0  0  0  0  0  0  0  0  0  0  0
  2  1  1  1
  2  3  1  0
  4  3  1  0
  5  4  2  0
  6  5  1  0
  7  6  1  0
  7  8  2  0
  8  4  1  0
  9  2  1  0
 10  9  2  0
 12 14  1  0
 12 11  1  0
 13 12  2  0
 15 14  1  1
 15 16  1  0
 16  9  1  0
 17 15  1  0
 17 18  2  0
 20 19  1  1
 20 22  1  0
 20 21  1  0
 23 22  1  6
 23 24  1  0
 24 17  1  0
 25 23  1  0
 26 25  1  0
 27 25  2  0
M  END
$$$$
