HNL.pdb
     RDKit          3D

 27 27  0  0  1  0  0  0  0  0999 V2000
    9.8422  -15.1775   19.4349 N   0  0  0  0  0  0  0  0  0  0  0  0
    8.6241  -14.7049   20.0563 C   0  0  1  0  0  0  0  0  0  0  0  0
    7.4919  -15.1704   19.1468 C   0  0  0  0  0  0  0  0  0  0  0  0
    7.6969  -14.5521   17.8110 C   0  0  0  0  0  0  0  0  0  0  0  0
    8.5108  -13.4604   17.5272 C   0  0  0  0  0  0  0  0  0  0  0  0
    8.4408  -13.1844   16.2136 N   0  0  0  0  0  0  0  0  0  0  0  0
    7.6047  -14.0662   15.6393 C   0  0  0  0  0  0  0  0  0  0  0  0
    7.1583  -14.8898   16.6083 N   0  0  0  0  0  0  0  0  0  0  0  0
    8.4852  -15.3690   21.3972 C   0  0  0  0  0  0  0  0  0  0  0  0
    7.4127  -15.1597   21.9900 O   0  0  0  0  0  0  0  0  0  0  0  0
    9.1616  -19.9019   22.9645 N   0  0  0  0  0  0  0  0  0  0  0  0
   10.1796  -18.9600   22.5713 C   0  0  0  0  0  0  0  0  0  0  0  0
   10.7818  -19.0962   21.4611 O   0  0  0  0  0  0  0  0  0  0  0  0
   10.4720  -17.8681   23.4984 C   0  0  0  0  0  0  0  0  0  0  0  0
    9.5686  -16.6852   23.2395 C   0  0  2  0  0  0  0  0  0  0  0  0
    9.4857  -16.1645   21.9443 N   0  0  0  0  0  0  0  0  0  0  0  0
    9.6089  -15.7897   24.3762 C   0  0  0  0  0  0  0  0  0  0  0  0
   10.7103  -15.2019   24.6130 O   0  0  0  0  0  0  0  0  0  0  0  0
    5.8648  -12.1756   26.8860 C   0  0  0  0  0  0  0  0  0  0  0  0
    7.1494  -12.7749   26.3072 C   0  0  2  0  0  0  0  0  0  0  0  0
    6.9200  -12.8834   24.8064 C   0  0  0  0  0  0  0  0  0  0  0  0
    7.4122  -14.1276   26.9087 C   0  0  0  0  0  0  0  0  0  0  0  0
    8.7119  -14.6710   26.4451 C   0  0  2  0  0  0  0  0  0  0  0  0
    8.5594  -15.4973   25.2492 N   0  0  0  0  0  0  0  0  0  0  0  0
    9.3065  -15.5465   27.4659 C   0  0  0  0  0  0  0  0  0  0  0  0
    9.5022  -16.9143   27.3642 O   0  0  0  0  0  0  0  0  0  0  0  0
    9.6984  -15.0409   28.5858 O   0  0  0  0  0  0  0  0  0  0  0  0
  2  1  1  6
  2  3  1  0
  4  3  1  0
  5  4  2  0
  6  5  1  0
  7  6  1  0
  7  8  2  0
  8  4  1  0
  9  2  1  0
 10  9  2  0
 12 14  1  0
 12 11  1  0
 13 12  2  0
 15 14  1  6
 15 16  1  0
 16  9  1  0
 17 15  1  0
 17 18  2  0
 20 19  1  1
 20 22  1  0
 20 21  1  0
 23 22  1  1
 23 24  1  0
 24 17  1  0
 25 23  1  0
 26 25  1  0
 27 25  2  0
M  END
$$$$
