HNL.pdb
     RDKit          3D

 27 27  0  0  1  0  0  0  0  0999 V2000
    9.7185  -15.5517   19.6487 N   0  0  0  0  0  0  0  0  0  0  0  0
    8.6229  -14.8222   20.2490 C   0  0  1  0  0  0  0  0  0  0  0  0
    7.4054  -15.1222   19.3809 C   0  0  0  0  0  0  0  0  0  0  0  0
    7.6402  -14.5198   18.0427 C   0  0  0  0  0  0  0  0  0  0  0  0
    8.6650  -13.6418   17.7055 C   0  0  0  0  0  0  0  0  0  0  0  0
    8.5538  -13.3075   16.4083 N   0  0  0  0  0  0  0  0  0  0  0  0
    7.4862  -13.9439   15.8968 C   0  0  0  0  0  0  0  0  0  0  0  0
    6.9382  -14.6745   16.8879 N   0  0  0  0  0  0  0  0  0  0  0  0
    8.3899  -15.3652   21.6308 C   0  0  0  0  0  0  0  0  0  0  0  0
    7.3892  -14.9206   22.2193 O   0  0  0  0  0  0  0  0  0  0  0  0
    8.1024  -18.8442   22.3825 N   0  0  0  0  0  0  0  0  0  0  0  0
    9.2684  -19.1609   23.1688 C   0  0  0  0  0  0  0  0  0  0  0  0
    9.6924  -20.3568   23.2301 O   0  0  0  0  0  0  0  0  0  0  0  0
    9.9180  -18.0568   23.8731 C   0  0  0  0  0  0  0  0  0  0  0  0
    9.2510  -16.7417   23.5449 C   0  0  2  0  0  0  0  0  0  0  0  0
    9.2339  -16.3013   22.2178 N   0  0  0  0  0  0  0  0  0  0  0  0
    9.4929  -15.7978   24.6156 C   0  0  0  0  0  0  0  0  0  0  0  0
   10.5888  -15.1554   24.5861 O   0  0  0  0  0  0  0  0  0  0  0  0
    7.9287  -11.9368   25.7126 C   0  0  0  0  0  0  0  0  0  0  0  0
    7.0814  -13.1254   26.1745 C   0  0  2  0  0  0  0  0  0  0  0  0
    5.7699  -12.5346   26.6722 C   0  0  0  0  0  0  0  0  0  0  0  0
    7.7842  -13.8725   27.2737 C   0  0  0  0  0  0  0  0  0  0  0  0
    8.9839  -14.5740   26.7557 C   0  0  2  0  0  0  0  0  0  0  0  0
    8.6451  -15.5123   25.6874 N   0  0  0  0  0  0  0  0  0  0  0  0
    9.6162  -15.3781   27.8118 C   0  0  0  0  0  0  0  0  0  0  0  0
   10.3212  -14.8958   28.9027 O   0  0  0  0  0  0  0  0  0  0  0  0
    9.5385  -16.6646   27.7628 O   0  0  0  0  0  0  0  0  0  0  0  0
  2  1  1  6
  2  3  1  0
  4  3  1  0
  5  4  2  0
  6  5  1  0
  7  6  1  0
  7  8  2  0
  8  4  1  0
  9  2  1  0
 10  9  2  0
 12 14  1  0
 12 11  1  0
 13 12  2  0
 15 14  1  6
 15 16  1  0
 16  9  1  0
 17 15  1  0
 17 18  2  0
 20 19  1  1
 20 22  1  0
 20 21  1  0
 23 22  1  1
 23 24  1  0
 24 17  1  0
 25 23  1  0
 26 25  1  0
 27 25  2  0
M  END
$$$$
