HNL.pdb
     RDKit          3D

 27 27  0  0  1  0  0  0  0  0999 V2000
    8.5141  -16.6992   19.3133 N   0  0  0  0  0  0  0  0  0  0  0  0
    8.7467  -15.5503   20.1612 C   0  0  1  0  0  0  0  0  0  0  0  0
    7.5776  -14.6058   19.9028 C   0  0  0  0  0  0  0  0  0  0  0  0
    7.7142  -14.0793   18.5197 C   0  0  0  0  0  0  0  0  0  0  0  0
    8.2849  -12.8641   18.1559 C   0  0  0  0  0  0  0  0  0  0  0  0
    8.2268  -12.7290   16.8198 N   0  0  0  0  0  0  0  0  0  0  0  0
    7.6346  -13.8220   16.3088 C   0  0  0  0  0  0  0  0  0  0  0  0
    7.3271  -14.6341   17.3395 N   0  0  0  0  0  0  0  0  0  0  0  0
    8.7098  -16.0012   21.5944 C   0  0  0  0  0  0  0  0  0  0  0  0
    7.5774  -16.0853   22.1004 O   0  0  0  0  0  0  0  0  0  0  0  0
   11.4284  -19.4879   22.1795 N   0  0  0  0  0  0  0  0  0  0  0  0
   10.5034  -19.0633   23.2003 C   0  0  0  0  0  0  0  0  0  0  0  0
    9.4244  -19.7056   23.3924 O   0  0  0  0  0  0  0  0  0  0  0  0
   10.8679  -17.8825   23.9814 C   0  0  0  0  0  0  0  0  0  0  0  0
    9.9698  -16.7154   23.6444 C   0  0  2  0  0  0  0  0  0  0  0  0
    9.8614  -16.3044   22.3122 N   0  0  0  0  0  0  0  0  0  0  0  0
   10.0451  -15.7282   24.7005 C   0  0  0  0  0  0  0  0  0  0  0  0
   11.0731  -14.9817   24.7247 O   0  0  0  0  0  0  0  0  0  0  0  0
    8.4552  -11.9115   25.7363 C   0  0  0  0  0  0  0  0  0  0  0  0
    7.5597  -13.1116   26.0557 C   0  0  2  0  0  0  0  0  0  0  0  0
    6.1888  -12.5348   26.3794 C   0  0  0  0  0  0  0  0  0  0  0  0
    8.1097  -13.8770   27.2271 C   0  0  0  0  0  0  0  0  0  0  0  0
    9.3350  -14.6209   26.8468 C   0  0  2  0  0  0  0  0  0  0  0  0
    9.1020  -15.5032   25.7050 N   0  0  0  0  0  0  0  0  0  0  0  0
    9.7795  -15.4924   27.9445 C   0  0  0  0  0  0  0  0  0  0  0  0
    9.8178  -16.8773   27.9319 O   0  0  0  0  0  0  0  0  0  0  0  0
   10.1801  -14.9652   29.0512 O   0  0  0  0  0  0  0  0  0  0  0  0
  2  1  1  6
  2  3  1  0
  4  3  1  0
  5  4  2  0
  6  5  1  0
  7  6  1  0
  7  8  2  0
  8  4  1  0
  9  2  1  0
 10  9  2  0
 12 14  1  0
 12 11  1  0
 13 12  2  0
 15 14  1  6
 15 16  1  0
 16  9  1  0
 17 15  1  0
 17 18  2  0
 20 19  1  1
 20 22  1  0
 20 21  1  0
 23 22  1  1
 23 24  1  0
 24 17  1  0
 25 23  1  0
 26 25  1  0
 27 25  2  0
M  END
$$$$
