HNL.pdb
     RDKit          3D

 27 27  0  0  1  0  0  0  0  0999 V2000
    8.3924  -16.9357   19.4190 N   0  0  0  0  0  0  0  0  0  0  0  0
    8.8080  -15.8110   20.2285 C   0  0  1  0  0  0  0  0  0  0  0  0
    7.7437  -14.7389   20.0191 C   0  0  0  0  0  0  0  0  0  0  0  0
    7.9244  -14.1777   18.6548 C   0  0  0  0  0  0  0  0  0  0  0  0
    8.8725  -14.5801   17.7200 C   0  0  0  0  0  0  0  0  0  0  0  0
    8.7358  -13.8433   16.6041 N   0  0  0  0  0  0  0  0  0  0  0  0
    7.7264  -12.9756   16.7903 C   0  0  0  0  0  0  0  0  0  0  0  0
    7.2400  -13.1817   18.0302 N   0  0  0  0  0  0  0  0  0  0  0  0
    8.8046  -16.2351   21.6702 C   0  0  0  0  0  0  0  0  0  0  0  0
    7.6816  -16.3929   22.1796 O   0  0  0  0  0  0  0  0  0  0  0  0
   12.0591  -19.5651   22.4496 N   0  0  0  0  0  0  0  0  0  0  0  0
   10.9562  -19.1152   23.2616 C   0  0  0  0  0  0  0  0  0  0  0  0
    9.8646  -19.7649   23.2735 O   0  0  0  0  0  0  0  0  0  0  0  0
   11.1597  -17.9009   24.0497 C   0  0  0  0  0  0  0  0  0  0  0  0
   10.1148  -16.8617   23.7174 C   0  0  2  0  0  0  0  0  0  0  0  0
    9.9756  -16.4381   22.3920 N   0  0  0  0  0  0  0  0  0  0  0  0
   10.0324  -15.8988   24.7953 C   0  0  0  0  0  0  0  0  0  0  0  0
   11.0426  -15.1513   24.9840 O   0  0  0  0  0  0  0  0  0  0  0  0
    7.5301  -12.3018   25.8381 C   0  0  0  0  0  0  0  0  0  0  0  0
    6.8995  -13.6716   26.1029 C   0  0  2  0  0  0  0  0  0  0  0  0
    5.4521  -13.3977   26.4858 C   0  0  0  0  0  0  0  0  0  0  0  0
    7.6250  -14.3744   27.2166 C   0  0  0  0  0  0  0  0  0  0  0  0
    8.9879  -14.7761   26.7916 C   0  0  2  0  0  0  0  0  0  0  0  0
    8.9535  -15.6985   25.6584 N   0  0  0  0  0  0  0  0  0  0  0  0
    9.6828  -15.4917   27.8719 C   0  0  0  0  0  0  0  0  0  0  0  0
   10.3052  -14.9205   28.9701 O   0  0  0  0  0  0  0  0  0  0  0  0
    9.7508  -16.7792   27.8395 O   0  0  0  0  0  0  0  0  0  0  0  0
  2  1  1  6
  2  3  1  0
  4  3  1  0
  5  4  2  0
  6  5  1  0
  7  6  1  0
  7  8  2  0
  8  4  1  0
  9  2  1  0
 10  9  2  0
 12 14  1  0
 12 11  1  0
 13 12  2  0
 15 14  1  6
 15 16  1  0
 16  9  1  0
 17 15  1  0
 17 18  2  0
 20 19  1  1
 20 22  1  0
 20 21  1  0
 23 22  1  1
 23 24  1  0
 24 17  1  0
 25 23  1  0
 26 25  1  0
 27 25  2  0
M  END
$$$$
