HNL.pdb
     RDKit          3D

 27 27  0  0  1  0  0  0  0  0999 V2000
    9.4928  -15.9485   19.2436 N   0  0  0  0  0  0  0  0  0  0  0  0
    8.6244  -14.9650   19.8533 C   0  0  1  0  0  0  0  0  0  0  0  0
    7.3068  -15.0514   19.0902 C   0  0  0  0  0  0  0  0  0  0  0  0
    7.5630  -14.6273   17.6890 C   0  0  0  0  0  0  0  0  0  0  0  0
    7.8972  -15.4606   16.6266 C   0  0  0  0  0  0  0  0  0  0  0  0
    8.0557  -14.7209   15.5154 N   0  0  0  0  0  0  0  0  0  0  0  0
    7.8339  -13.4329   15.8287 C   0  0  0  0  0  0  0  0  0  0  0  0
    7.5369  -13.3819   17.1424 N   0  0  0  0  0  0  0  0  0  0  0  0
    8.3923  -15.3574   21.2853 C   0  0  0  0  0  0  0  0  0  0  0  0
    7.5504  -14.6775   21.8972 O   0  0  0  0  0  0  0  0  0  0  0  0
    9.5157  -19.9655   21.7560 N   0  0  0  0  0  0  0  0  0  0  0  0
    8.7257  -19.2378   22.7175 C   0  0  0  0  0  0  0  0  0  0  0  0
    7.4786  -19.4580   22.8177 O   0  0  0  0  0  0  0  0  0  0  0  0
    9.4227  -18.2578   23.5487 C   0  0  0  0  0  0  0  0  0  0  0  0
    8.9776  -16.8536   23.2138 C   0  0  2  0  0  0  0  0  0  0  0  0
    9.0712  -16.4086   21.8914 N   0  0  0  0  0  0  0  0  0  0  0  0
    9.3281  -15.9643   24.3010 C   0  0  0  0  0  0  0  0  0  0  0  0
   10.5155  -15.5123   24.3211 O   0  0  0  0  0  0  0  0  0  0  0  0
    7.9026  -11.9769   25.2708 C   0  0  0  0  0  0  0  0  0  0  0  0
    7.0474  -13.1207   25.8227 C   0  0  2  0  0  0  0  0  0  0  0  0
    5.7732  -12.4737   26.3468 C   0  0  0  0  0  0  0  0  0  0  0  0
    7.7786  -13.8352   26.9251 C   0  0  0  0  0  0  0  0  0  0  0  0
    8.9191  -14.6154   26.3867 C   0  0  2  0  0  0  0  0  0  0  0  0
    8.4958  -15.5436   25.3400 N   0  0  0  0  0  0  0  0  0  0  0  0
    9.5279  -15.4444   27.4374 C   0  0  0  0  0  0  0  0  0  0  0  0
    9.5958  -16.8282   27.4580 O   0  0  0  0  0  0  0  0  0  0  0  0
   10.0627  -14.8763   28.4643 O   0  0  0  0  0  0  0  0  0  0  0  0
  2  1  1  6
  2  3  1  0
  4  3  1  0
  5  4  2  0
  6  5  1  0
  7  6  1  0
  7  8  2  0
  8  4  1  0
  9  2  1  0
 10  9  2  0
 12 14  1  0
 12 11  1  0
 13 12  2  0
 15 14  1  6
 15 16  1  0
 16  9  1  0
 17 15  1  0
 17 18  2  0
 20 19  1  1
 20 22  1  0
 20 21  1  0
 23 22  1  1
 23 24  1  0
 24 17  1  0
 25 23  1  0
 26 25  1  0
 27 25  2  0
M  END
$$$$
