HNL.pdb
     RDKit          3D

 27 27  0  0  1  0  0  0  0  0999 V2000
    7.2972  -16.8230   20.0589 N   0  0  0  0  0  0  0  0  0  0  0  0
    8.2854  -15.9526   20.6579 C   0  0  1  0  0  0  0  0  0  0  0  0
    7.7087  -14.5445   20.5550 C   0  0  0  0  0  0  0  0  0  0  0  0
    7.8358  -14.1022   19.1418 C   0  0  0  0  0  0  0  0  0  0  0  0
    8.3969  -14.8328   18.0996 C   0  0  0  0  0  0  0  0  0  0  0  0
    8.3393  -14.1085   16.9687 N   0  0  0  0  0  0  0  0  0  0  0  0
    7.7572  -12.9301   17.2496 C   0  0  0  0  0  0  0  0  0  0  0  0
    7.4551  -12.9315   18.5630 N   0  0  0  0  0  0  0  0  0  0  0  0
    8.4296  -16.3224   22.1073 C   0  0  0  0  0  0  0  0  0  0  0  0
    7.3709  -16.3622   22.7578 O   0  0  0  0  0  0  0  0  0  0  0  0
   10.1758  -20.2316   24.3332 N   0  0  0  0  0  0  0  0  0  0  0  0
   10.8001  -19.1485   23.6155 C   0  0  0  0  0  0  0  0  0  0  0  0
   11.1353  -19.2970   22.3993 O   0  0  0  0  0  0  0  0  0  0  0  0
   11.0198  -17.9022   24.3475 C   0  0  0  0  0  0  0  0  0  0  0  0
    9.9433  -16.8921   24.0268 C   0  0  2  0  0  0  0  0  0  0  0  0
    9.6616  -16.6014   22.6883 N   0  0  0  0  0  0  0  0  0  0  0  0
    9.9751  -15.8261   25.0057 C   0  0  0  0  0  0  0  0  0  0  0  0
   10.9877  -15.0585   24.9948 O   0  0  0  0  0  0  0  0  0  0  0  0
    8.8193  -11.9538   25.6605 C   0  0  0  0  0  0  0  0  0  0  0  0
    7.7184  -12.9704   25.9745 C   0  0  2  0  0  0  0  0  0  0  0  0
    6.4353  -12.1645   26.1196 C   0  0  0  0  0  0  0  0  0  0  0  0
    8.0351  -13.7078   27.2459 C   0  0  0  0  0  0  0  0  0  0  0  0
    9.2069  -14.5986   27.0648 C   0  0  2  0  0  0  0  0  0  0  0  0
    9.0050  -15.5453   25.9697 N   0  0  0  0  0  0  0  0  0  0  0  0
    9.4333  -15.4155   28.2662 C   0  0  0  0  0  0  0  0  0  0  0  0
    9.3613  -16.7967   28.3478 O   0  0  0  0  0  0  0  0  0  0  0  0
    9.7279  -14.8374   29.3808 O   0  0  0  0  0  0  0  0  0  0  0  0
  2  1  1  6
  2  3  1  0
  4  3  1  0
  5  4  2  0
  6  5  1  0
  7  6  1  0
  7  8  2  0
  8  4  1  0
  9  2  1  0
 10  9  2  0
 12 14  1  0
 12 11  1  0
 13 12  2  0
 15 14  1  6
 15 16  1  0
 16  9  1  0
 17 15  1  0
 17 18  2  0
 20 19  1  1
 20 22  1  0
 20 21  1  0
 23 22  1  1
 23 24  1  0
 24 17  1  0
 25 23  1  0
 26 25  1  0
 27 25  2  0
M  END
$$$$
