HNL.pdb
     RDKit          3D

 27 27  0  0  1  0  0  0  0  0999 V2000
    8.2021  -17.3268   19.9187 N   0  0  0  0  0  0  0  0  0  0  0  0
    8.6052  -16.1835   20.7083 C   0  0  1  0  0  0  0  0  0  0  0  0
    7.4568  -15.1856   20.6018 C   0  0  0  0  0  0  0  0  0  0  0  0
    7.7291  -14.2999   19.4398 C   0  0  0  0  0  0  0  0  0  0  0  0
    8.8596  -14.3313   18.6301 C   0  0  0  0  0  0  0  0  0  0  0  0
    8.7553  -13.3806   17.6855 N   0  0  0  0  0  0  0  0  0  0  0  0
    7.5897  -12.7348   17.8613 C   0  0  0  0  0  0  0  0  0  0  0  0
    6.9740  -13.2939   18.9218 N   0  0  0  0  0  0  0  0  0  0  0  0
    8.7490  -16.6200   22.1391 C   0  0  0  0  0  0  0  0  0  0  0  0
    7.6975  -16.9760   22.6988 O   0  0  0  0  0  0  0  0  0  0  0  0
   10.1267  -19.9257   23.6824 N   0  0  0  0  0  0  0  0  0  0  0  0
   11.2790  -19.0654   23.5816 C   0  0  0  0  0  0  0  0  0  0  0  0
   12.1984  -19.3241   22.7440 O   0  0  0  0  0  0  0  0  0  0  0  0
   11.3283  -17.9089   24.4745 C   0  0  0  0  0  0  0  0  0  0  0  0
   10.2333  -16.9233   24.1403 C   0  0  2  0  0  0  0  0  0  0  0  0
    9.9729  -16.6265   22.7989 N   0  0  0  0  0  0  0  0  0  0  0  0
   10.2171  -15.8666   25.1297 C   0  0  0  0  0  0  0  0  0  0  0  0
   11.2491  -15.1294   25.2081 O   0  0  0  0  0  0  0  0  0  0  0  0
    8.5734  -12.0391   25.7935 C   0  0  0  0  0  0  0  0  0  0  0  0
    7.5875  -13.1560   26.1469 C   0  0  2  0  0  0  0  0  0  0  0  0
    6.2506  -12.4706   26.3915 C   0  0  0  0  0  0  0  0  0  0  0  0
    8.0471  -13.8892   27.3764 C   0  0  0  0  0  0  0  0  0  0  0  0
    9.3143  -14.6152   27.1186 C   0  0  2  0  0  0  0  0  0  0  0  0
    9.1811  -15.5649   26.0155 N   0  0  0  0  0  0  0  0  0  0  0  0
    9.7080  -15.4119   28.2900 C   0  0  0  0  0  0  0  0  0  0  0  0
   10.2297  -14.9261   29.4780 O   0  0  0  0  0  0  0  0  0  0  0  0
    9.5778  -16.6946   28.2584 O   0  0  0  0  0  0  0  0  0  0  0  0
  2  1  1  6
  2  3  1  0
  4  3  1  0
  5  4  2  0
  6  5  1  0
  7  6  1  0
  7  8  2  0
  8  4  1  0
  9  2  1  0
 10  9  2  0
 12 14  1  0
 12 11  1  0
 13 12  2  0
 15 14  1  6
 15 16  1  0
 16  9  1  0
 17 15  1  0
 17 18  2  0
 20 19  1  1
 20 22  1  0
 20 21  1  0
 23 22  1  1
 23 24  1  0
 24 17  1  0
 25 23  1  0
 26 25  1  0
 27 25  2  0
M  END
$$$$
