HNL.pdb
     RDKit          3D

 27 27  0  0  1  0  0  0  0  0999 V2000
    7.7996  -16.6985   19.4274 N   0  0  0  0  0  0  0  0  0  0  0  0
    8.1276  -15.3676   19.8901 C   0  0  1  0  0  0  0  0  0  0  0  0
    7.3051  -14.4179   19.0255 C   0  0  0  0  0  0  0  0  0  0  0  0
    7.8724  -14.4453   17.6521 C   0  0  0  0  0  0  0  0  0  0  0  0
    8.8530  -15.3146   17.1855 C   0  0  0  0  0  0  0  0  0  0  0  0
    9.1141  -15.0378   15.8963 N   0  0  0  0  0  0  0  0  0  0  0  0
    8.3307  -14.0142   15.5155 C   0  0  0  0  0  0  0  0  0  0  0  0
    7.5829  -13.6603   16.5795 N   0  0  0  0  0  0  0  0  0  0  0  0
    7.6870  -15.2391   21.3211 C   0  0  0  0  0  0  0  0  0  0  0  0
    7.9998  -14.1760   21.8846 O   0  0  0  0  0  0  0  0  0  0  0  0
    6.1667  -18.2626   25.5106 N   0  0  0  0  0  0  0  0  0  0  0  0
    7.3506  -18.6651   24.7934 C   0  0  0  0  0  0  0  0  0  0  0  0
    8.2485  -19.3497   25.3754 O   0  0  0  0  0  0  0  0  0  0  0  0
    7.4566  -18.2515   23.3953 C   0  0  0  0  0  0  0  0  0  0  0  0
    7.2036  -16.7691   23.2514 C   0  0  2  0  0  0  0  0  0  0  0  0
    6.9778  -16.2391   21.9772 N   0  0  0  0  0  0  0  0  0  0  0  0
    8.0247  -16.0454   24.1989 C   0  0  0  0  0  0  0  0  0  0  0  0
    9.2751  -16.0112   23.9756 O   0  0  0  0  0  0  0  0  0  0  0  0
    7.7216  -11.8625   24.8059 C   0  0  0  0  0  0  0  0  0  0  0  0
    6.8950  -12.7562   25.7344 C   0  0  2  0  0  0  0  0  0  0  0  0
    5.8735  -11.8408   26.3943 C   0  0  0  0  0  0  0  0  0  0  0  0
    7.7808  -13.4014   26.7638 C   0  0  0  0  0  0  0  0  0  0  0  0
    8.4721  -14.5867   26.2011 C   0  0  2  0  0  0  0  0  0  0  0  0
    7.5889  -15.3734   25.3425 N   0  0  0  0  0  0  0  0  0  0  0  0
    8.9067  -15.4957   27.2719 C   0  0  0  0  0  0  0  0  0  0  0  0
    8.5012  -16.8083   27.4523 O   0  0  0  0  0  0  0  0  0  0  0  0
    9.7453  -15.0779   28.1582 O   0  0  0  0  0  0  0  0  0  0  0  0
  2  1  1  6
  2  3  1  0
  4  3  1  0
  5  4  2  0
  6  5  1  0
  7  6  1  0
  7  8  2  0
  8  4  1  0
  9  2  1  0
 10  9  2  0
 12 14  1  0
 12 11  1  0
 13 12  2  0
 15 14  1  6
 15 16  1  0
 16  9  1  0
 17 15  1  0
 17 18  2  0
 20 19  1  6
 20 22  1  0
 20 21  1  0
 23 22  1  1
 23 24  1  0
 24 17  1  0
 25 23  1  0
 26 25  1  0
 27 25  2  0
M  END
$$$$
