HNL.pdb
     RDKit          3D

 27 27  0  0  1  0  0  0  0  0999 V2000
    8.4442  -16.7122   19.3350 N   0  0  0  0  0  0  0  0  0  0  0  0
    8.5637  -15.6052   20.2587 C   0  0  1  0  0  0  0  0  0  0  0  0
    7.3941  -14.6788   19.9429 C   0  0  0  0  0  0  0  0  0  0  0  0
    7.6634  -14.0363   18.6301 C   0  0  0  0  0  0  0  0  0  0  0  0
    8.4136  -12.8843   18.4178 C   0  0  0  0  0  0  0  0  0  0  0  0
    8.4334  -12.6039   17.1033 N   0  0  0  0  0  0  0  0  0  0  0  0
    7.7174  -13.5413   16.4592 C   0  0  0  0  0  0  0  0  0  0  0  0
    7.2546  -14.4038   17.3857 N   0  0  0  0  0  0  0  0  0  0  0  0
    8.4113  -16.1337   21.6573 C   0  0  0  0  0  0  0  0  0  0  0  0
    7.2508  -16.4214   21.9977 O   0  0  0  0  0  0  0  0  0  0  0  0
    8.7468  -18.7937   26.1258 N   0  0  0  0  0  0  0  0  0  0  0  0
   10.0147  -18.3330   25.6179 C   0  0  0  0  0  0  0  0  0  0  0  0
   10.9991  -18.1746   26.4050 O   0  0  0  0  0  0  0  0  0  0  0  0
   10.1012  -18.0653   24.1833 C   0  0  0  0  0  0  0  0  0  0  0  0
    9.4852  -16.7275   23.8469 C   0  0  2  0  0  0  0  0  0  0  0  0
    9.4917  -16.2916   22.5182 N   0  0  0  0  0  0  0  0  0  0  0  0
    9.7562  -15.7893   24.9155 C   0  0  0  0  0  0  0  0  0  0  0  0
   10.9213  -15.2844   24.9628 O   0  0  0  0  0  0  0  0  0  0  0  0
    7.8500  -11.9636   25.4847 C   0  0  0  0  0  0  0  0  0  0  0  0
    7.1659  -13.1502   26.1689 C   0  0  2  0  0  0  0  0  0  0  0  0
    5.8023  -12.6439   26.6173 C   0  0  0  0  0  0  0  0  0  0  0  0
    7.9787  -13.6148   27.3454 C   0  0  0  0  0  0  0  0  0  0  0  0
    9.1892  -14.3459   26.8984 C   0  0  2  0  0  0  0  0  0  0  0  0
    8.8686  -15.3735   25.9097 N   0  0  0  0  0  0  0  0  0  0  0  0
    9.8183  -15.0529   28.0238 C   0  0  0  0  0  0  0  0  0  0  0  0
    9.9656  -16.4242   28.1552 O   0  0  0  0  0  0  0  0  0  0  0  0
   10.2932  -14.3756   29.0133 O   0  0  0  0  0  0  0  0  0  0  0  0
  2  1  1  6
  2  3  1  0
  4  3  1  0
  5  4  2  0
  6  5  1  0
  7  6  1  0
  7  8  2  0
  8  4  1  0
  9  2  1  0
 10  9  2  0
 12 14  1  0
 12 11  1  0
 13 12  2  0
 15 14  1  6
 15 16  1  0
 16  9  1  0
 17 15  1  0
 17 18  2  0
 20 19  1  1
 20 22  1  0
 20 21  1  0
 23 22  1  1
 23 24  1  0
 24 17  1  0
 25 23  1  0
 26 25  1  0
 27 25  2  0
M  END
$$$$
