NSI.pdb
     RDKit          3D

 23 22  0  0  1  0  0  0  0  0999 V2000
   13.5988  -15.9846   18.8923 N   0  0  0  0  0  0  0  0  0  0  0  0
   13.2960  -14.5997   19.0505 C   0  0  0  0  0  0  0  0  0  0  0  0
   14.1919  -13.7843   18.7087 O   0  0  0  0  0  0  0  0  0  0  0  0
   11.9816  -14.2040   19.5928 C   0  0  0  0  0  0  0  0  0  0  0  0
   10.9542  -15.2592   19.3080 C   0  0  2  0  0  0  0  0  0  0  0  0
   10.5283  -15.1399   17.9292 N   0  0  0  0  0  0  0  0  0  0  0  0
    9.7821  -15.1041   20.2004 C   0  0  0  0  0  0  0  0  0  0  0  0
    9.0786  -14.0685   20.1519 O   0  0  0  0  0  0  0  0  0  0  0  0
    7.9676  -17.8140   23.4334 O   0  0  0  0  0  0  0  0  0  0  0  0
    7.6514  -17.3939   22.1487 C   0  0  0  0  0  0  0  0  0  0  0  0
    8.2174  -16.0034   21.9451 C   0  0  2  0  0  0  0  0  0  0  0  0
    9.4241  -16.1169   21.1302 N   0  0  0  0  0  0  0  0  0  0  0  0
    8.5418  -15.4429   23.2791 C   0  0  0  0  0  0  0  0  0  0  0  0
    9.7296  -15.5850   23.7194 O   0  0  0  0  0  0  0  0  0  0  0  0
    6.7109  -11.3057   27.4571 C   0  0  0  0  0  0  0  0  0  0  0  0
    7.6422  -12.4267   27.0907 C   0  0  0  0  0  0  0  0  0  0  0  0
    7.1013  -13.1304   25.8619 C   0  0  2  0  0  0  0  0  0  0  0  0
    5.8066  -13.8302   26.2282 C   0  0  0  0  0  0  0  0  0  0  0  0
    8.0757  -14.1666   25.3474 C   0  0  2  0  0  0  0  0  0  0  0  0
    7.6390  -14.7573   24.1121 N   0  0  0  0  0  0  0  0  0  0  0  0
    8.2433  -15.1929   26.4079 C   0  0  0  0  0  0  0  0  0  0  0  0
    9.0661  -15.0104   27.4882 O   0  0  0  0  0  0  0  0  0  0  0  0
    7.6063  -16.2696   26.3110 O   0  0  0  0  0  0  0  0  0  0  0  0
  1  2  1  0
  2  4  1  0
  3  2  2  0
  4  5  1  0
  5  7  1  0
  5  6  1  6
  7 12  1  0
  7  8  2  0
 10  9  1  0
 11 10  1  1
 11 13  1  0
 12 11  1  0
 13 14  2  0
 13 20  1  0
 16 17  1  0
 16 15  1  0
 17 19  1  0
 17 18  1  1
 19 21  1  0
 19 20  1  6
 21 22  1  0
 23 21  2  0
M  END
$$$$
