NSI.pdb
     RDKit          3D

 23 22  0  0  1  0  0  0  0  0999 V2000
   11.3094  -19.7716   18.3249 N   0  0  0  0  0  0  0  0  0  0  0  0
   12.2037  -19.2289   19.2944 C   0  0  0  0  0  0  0  0  0  0  0  0
   13.3891  -19.6513   19.2665 O   0  0  0  0  0  0  0  0  0  0  0  0
   11.7063  -18.2257   20.2559 C   0  0  0  0  0  0  0  0  0  0  0  0
   10.2461  -17.9624   20.0354 C   0  0  2  0  0  0  0  0  0  0  0  0
   10.0816  -17.2417   18.7903 N   0  0  0  0  0  0  0  0  0  0  0  0
    9.6844  -17.1600   21.1466 C   0  0  0  0  0  0  0  0  0  0  0  0
    9.8506  -15.9186   21.1819 O   0  0  0  0  0  0  0  0  0  0  0  0
    7.4248  -18.9946   24.0558 O   0  0  0  0  0  0  0  0  0  0  0  0
    7.0585  -17.7055   23.6940 C   0  0  0  0  0  0  0  0  0  0  0  0
    8.2971  -16.9667   23.2297 C   0  0  2  0  0  0  0  0  0  0  0  0
    8.9465  -17.7693   22.1967 N   0  0  0  0  0  0  0  0  0  0  0  0
    9.1940  -16.7997   24.3987 C   0  0  0  0  0  0  0  0  0  0  0  0
   10.2284  -17.5406   24.4749 O   0  0  0  0  0  0  0  0  0  0  0  0
   10.4983  -13.2483   29.3008 C   0  0  0  0  0  0  0  0  0  0  0  0
   10.7533  -14.4930   28.4981 C   0  0  0  0  0  0  0  0  0  0  0  0
    9.7772  -14.5364   27.3393 C   0  0  2  0  0  0  0  0  0  0  0  0
    8.3649  -14.4436   27.8843 C   0  0  0  0  0  0  0  0  0  0  0  0
    9.9051  -15.8264   26.5600 C   0  0  2  0  0  0  0  0  0  0  0  0
    8.9993  -15.8802   25.4454 N   0  0  0  0  0  0  0  0  0  0  0  0
    9.6676  -16.9481   27.5041 C   0  0  0  0  0  0  0  0  0  0  0  0
   10.6546  -17.4607   28.3045 O   0  0  0  0  0  0  0  0  0  0  0  0
    8.5180  -17.4463   27.5717 O   0  0  0  0  0  0  0  0  0  0  0  0
  1  2  1  0
  2  4  1  0
  3  2  2  0
  4  5  1  0
  5  7  1  0
  5  6  1  6
  7 12  1  0
  7  8  2  0
 10  9  1  0
 11 10  1  1
 11 13  1  0
 12 11  1  0
 13 14  2  0
 13 20  1  0
 16 17  1  0
 16 15  1  0
 17 19  1  0
 17 18  1  1
 19 21  1  0
 19 20  1  6
 21 22  1  0
 23 21  2  0
M  END
$$$$
