NSI.pdb
     RDKit          3D

 23 22  0  0  1  0  0  0  0  0999 V2000
    9.1153  -12.7406   16.9418 N   0  0  0  0  0  0  0  0  0  0  0  0
    7.9821  -13.6068   16.9503 C   0  0  0  0  0  0  0  0  0  0  0  0
    7.5582  -13.9913   15.8291 O   0  0  0  0  0  0  0  0  0  0  0  0
    7.3802  -13.9979   18.2399 C   0  0  0  0  0  0  0  0  0  0  0  0
    8.4427  -14.1897   19.2813 C   0  0  2  0  0  0  0  0  0  0  0  0
    9.3423  -15.2378   18.8466 N   0  0  0  0  0  0  0  0  0  0  0  0
    7.8406  -14.5655   20.5814 C   0  0  0  0  0  0  0  0  0  0  0  0
    7.1312  -13.7487   21.2134 O   0  0  0  0  0  0  0  0  0  0  0  0
    9.1764  -17.8785   22.6521 O   0  0  0  0  0  0  0  0  0  0  0  0
    7.8081  -17.6566   22.7264 C   0  0  0  0  0  0  0  0  0  0  0  0
    7.5457  -16.1857   22.4760 C   0  0  2  0  0  0  0  0  0  0  0  0
    8.0482  -15.8527   21.1456 N   0  0  0  0  0  0  0  0  0  0  0  0
    8.2677  -15.4102   23.5134 C   0  0  0  0  0  0  0  0  0  0  0  0
    9.4550  -15.0228   23.2583 O   0  0  0  0  0  0  0  0  0  0  0  0
    5.8914  -12.1576   27.4548 C   0  0  0  0  0  0  0  0  0  0  0  0
    6.4863  -13.4042   26.8627 C   0  0  0  0  0  0  0  0  0  0  0  0
    7.7814  -13.0434   26.1626 C   0  0  2  0  0  0  0  0  0  0  0  0
    7.4615  -12.1938   24.9477 C   0  0  0  0  0  0  0  0  0  0  0  0
    8.5200  -14.2797   25.7003 C   0  0  2  0  0  0  0  0  0  0  0  0
    7.7475  -15.0594   24.7724 N   0  0  0  0  0  0  0  0  0  0  0  0
    8.8742  -15.0702   26.9069 C   0  0  0  0  0  0  0  0  0  0  0  0
    9.7723  -14.6272   27.8420 O   0  0  0  0  0  0  0  0  0  0  0  0
    8.3296  -16.1877   27.0768 O   0  0  0  0  0  0  0  0  0  0  0  0
  1  2  1  0
  2  4  1  0
  3  2  2  0
  4  5  1  0
  5  7  1  0
  5  6  1  6
  7 12  1  0
  7  8  2  0
 10  9  1  0
 11 10  1  1
 11 13  1  0
 12 11  1  0
 13 14  2  0
 13 20  1  0
 16 17  1  0
 16 15  1  0
 17 19  1  0
 17 18  1  6
 19 21  1  0
 19 20  1  6
 21 22  1  0
 23 21  2  0
M  END
$$$$
