NSI.pdb
     RDKit          3D

 23 22  0  0  1  0  0  0  0  0999 V2000
    8.7185  -15.4704   17.5086 N   0  0  0  0  0  0  0  0  0  0  0  0
    8.0852  -14.2725   17.0629 C   0  0  0  0  0  0  0  0  0  0  0  0
    8.0029  -14.1083   15.8177 O   0  0  0  0  0  0  0  0  0  0  0  0
    7.5723  -13.3118   18.0590 C   0  0  0  0  0  0  0  0  0  0  0  0
    8.4947  -13.2326   19.2392 C   0  0  2  0  0  0  0  0  0  0  0  0
    9.7913  -13.7519   18.8574 N   0  0  0  0  0  0  0  0  0  0  0  0
    7.9629  -14.0220   20.3742 C   0  0  0  0  0  0  0  0  0  0  0  0
    6.8749  -13.7098   20.9115 O   0  0  0  0  0  0  0  0  0  0  0  0
    8.2325  -18.0374   23.0241 O   0  0  0  0  0  0  0  0  0  0  0  0
    8.7413  -17.3009   21.9631 C   0  0  0  0  0  0  0  0  0  0  0  0
    8.1559  -15.9049   22.0231 C   0  0  2  0  0  0  0  0  0  0  0  0
    8.6652  -15.1473   20.8830 N   0  0  0  0  0  0  0  0  0  0  0  0
    8.5904  -15.2821   23.2968 C   0  0  0  0  0  0  0  0  0  0  0  0
    9.7381  -14.7290   23.3360 O   0  0  0  0  0  0  0  0  0  0  0  0
    5.7390  -11.9174   26.0992 C   0  0  0  0  0  0  0  0  0  0  0  0
    6.8188  -12.6988   25.4050 C   0  0  0  0  0  0  0  0  0  0  0  0
    7.3527  -13.7492   26.3585 C   0  0  2  0  0  0  0  0  0  0  0  0
    8.0380  -13.0542   27.5194 C   0  0  0  0  0  0  0  0  0  0  0  0
    8.3602  -14.6490   25.6780 C   0  0  2  0  0  0  0  0  0  0  0  0
    7.8338  -15.2479   24.4823 N   0  0  0  0  0  0  0  0  0  0  0  0
    8.7778  -15.6813   26.6609 C   0  0  0  0  0  0  0  0  0  0  0  0
    8.3979  -16.9939   26.5592 O   0  0  0  0  0  0  0  0  0  0  0  0
    9.5074  -15.3383   27.6224 O   0  0  0  0  0  0  0  0  0  0  0  0
  1  2  1  0
  2  4  1  0
  3  2  2  0
  4  5  1  0
  5  7  1  0
  5  6  1  6
  7 12  1  0
  7  8  2  0
 10  9  1  0
 11 10  1  6
 11 13  1  0
 12 11  1  0
 13 14  2  0
 13 20  1  0
 16 17  1  0
 16 15  1  0
 17 19  1  0
 17 18  1  1
 19 21  1  0
 19 20  1  6
 21 22  1  0
 23 21  2  0
M  END
$$$$
