NSI.pdb
     RDKit          3D

 23 22  0  0  1  0  0  0  0  0999 V2000
    9.8047  -11.4019   18.5430 N   0  0  0  0  0  0  0  0  0  0  0  0
    9.7698  -12.8059   18.7922 C   0  0  0  0  0  0  0  0  0  0  0  0
   10.8497  -13.3406   19.1560 O   0  0  0  0  0  0  0  0  0  0  0  0
    8.5022  -13.5406   18.6153 C   0  0  0  0  0  0  0  0  0  0  0  0
    8.7365  -15.0207   18.6830 C   0  0  2  0  0  0  0  0  0  0  0  0
    8.2311  -15.6320   17.4716 N   0  0  0  0  0  0  0  0  0  0  0  0
    8.0469  -15.6076   19.8553 C   0  0  0  0  0  0  0  0  0  0  0  0
    6.8143  -15.8299   19.8224 O   0  0  0  0  0  0  0  0  0  0  0  0
    9.8637  -17.8282   22.6714 O   0  0  0  0  0  0  0  0  0  0  0  0
    8.4818  -17.7987   22.5433 C   0  0  0  0  0  0  0  0  0  0  0  0
    8.0574  -16.3753   22.2452 C   0  0  2  0  0  0  0  0  0  0  0  0
    8.7571  -15.9331   21.0419 N   0  0  0  0  0  0  0  0  0  0  0  0
    8.4363  -15.5335   23.4057 C   0  0  0  0  0  0  0  0  0  0  0  0
    9.6396  -15.1204   23.4827 O   0  0  0  0  0  0  0  0  0  0  0  0
    6.4153  -11.4389   27.4384 C   0  0  0  0  0  0  0  0  0  0  0  0
    7.4509  -12.4833   27.1298 C   0  0  0  0  0  0  0  0  0  0  0  0
    6.9659  -13.3244   25.9658 C   0  0  2  0  0  0  0  0  0  0  0  0
    5.7461  -14.1116   26.4047 C   0  0  0  0  0  0  0  0  0  0  0  0
    8.0278  -14.3015   25.5127 C   0  0  2  0  0  0  0  0  0  0  0  0
    7.5694  -15.1453   24.4434 N   0  0  0  0  0  0  0  0  0  0  0  0
    8.4373  -15.1017   26.6951 C   0  0  0  0  0  0  0  0  0  0  0  0
    9.2807  -14.6155   27.6593 O   0  0  0  0  0  0  0  0  0  0  0  0
    7.9935  -16.2691   26.8162 O   0  0  0  0  0  0  0  0  0  0  0  0
  1  2  1  0
  2  4  1  0
  3  2  2  0
  4  5  1  0
  5  7  1  0
  5  6  1  6
  7 12  1  0
  7  8  2  0
 10  9  1  0
 11 10  1  1
 11 13  1  0
 12 11  1  0
 13 14  2  0
 13 20  1  0
 16 17  1  0
 16 15  1  0
 17 19  1  0
 17 18  1  1
 19 21  1  0
 19 20  1  6
 21 22  1  0
 23 21  2  0
M  END
$$$$
