NSI.pdb
     RDKit          3D

 23 22  0  0  1  0  0  0  0  0999 V2000
   13.3795  -17.7912   19.9514 N   0  0  0  0  0  0  0  0  0  0  0  0
   12.6383  -16.9737   19.0477 C   0  0  0  0  0  0  0  0  0  0  0  0
   13.0572  -16.9215   17.8619 O   0  0  0  0  0  0  0  0  0  0  0  0
   11.4488  -16.2497   19.5367 C   0  0  0  0  0  0  0  0  0  0  0  0
   10.3049  -17.1967   19.7483 C   0  0  2  0  0  0  0  0  0  0  0  0
    9.7332  -17.5373   18.4623 N   0  0  0  0  0  0  0  0  0  0  0  0
    9.2637  -16.5787   20.6017 C   0  0  0  0  0  0  0  0  0  0  0  0
    8.5188  -15.6803   20.1460 O   0  0  0  0  0  0  0  0  0  0  0  0
    8.0120  -18.5216   23.8930 O   0  0  0  0  0  0  0  0  0  0  0  0
    7.1608  -17.6268   23.2592 C   0  0  0  0  0  0  0  0  0  0  0  0
    7.9816  -16.4569   22.7564 C   0  0  2  0  0  0  0  0  0  0  0  0
    9.0806  -16.9833   21.9512 N   0  0  0  0  0  0  0  0  0  0  0  0
    8.5050  -15.7262   23.9358 C   0  0  0  0  0  0  0  0  0  0  0  0
    9.6813  -16.0020   24.3418 O   0  0  0  0  0  0  0  0  0  0  0  0
    5.5905  -11.7641   26.8953 C   0  0  0  0  0  0  0  0  0  0  0  0
    6.2139  -13.0748   26.5055 C   0  0  0  0  0  0  0  0  0  0  0  0
    7.6822  -12.8480   26.2049 C   0  0  2  0  0  0  0  0  0  0  0  0
    7.8007  -11.8860   25.0384 C   0  0  0  0  0  0  0  0  0  0  0  0
    8.3734  -14.1403   25.8310 C   0  0  2  0  0  0  0  0  0  0  0  0
    7.8054  -14.7401   24.6549 N   0  0  0  0  0  0  0  0  0  0  0  0
    8.2849  -15.0527   26.9996 C   0  0  0  0  0  0  0  0  0  0  0  0
    8.9542  -14.8177   28.1719 O   0  0  0  0  0  0  0  0  0  0  0  0
    7.5692  -16.0794   26.9102 O   0  0  0  0  0  0  0  0  0  0  0  0
  1  2  1  0
  2  4  1  0
  3  2  2  0
  4  5  1  0
  5  7  1  0
  5  6  1  6
  7 12  1  0
  7  8  2  0
 10  9  1  0
 11 10  1  1
 11 13  1  0
 12 11  1  0
 13 14  2  0
 13 20  1  0
 16 17  1  0
 16 15  1  0
 17 19  1  0
 17 18  1  6
 19 21  1  0
 19 20  1  6
 21 22  1  0
 23 21  2  0
M  END
$$$$
