NSI.pdb
     RDKit          3D

 23 22  0  0  1  0  0  0  0  0999 V2000
    8.9373  -18.1996   18.1400 N   0  0  0  0  0  0  0  0  0  0  0  0
    7.6599  -17.6200   17.8813 C   0  0  0  0  0  0  0  0  0  0  0  0
    7.5244  -17.0225   16.7817 O   0  0  0  0  0  0  0  0  0  0  0  0
    6.5901  -17.7474   18.8901 C   0  0  0  0  0  0  0  0  0  0  0  0
    7.0928  -18.4721   20.1034 C   0  0  2  0  0  0  0  0  0  0  0  0
    6.6808  -19.8581   20.0267 N   0  0  0  0  0  0  0  0  0  0  0  0
    6.5488  -17.8644   21.3399 C   0  0  0  0  0  0  0  0  0  0  0  0
    5.3924  -17.3822   21.3559 O   0  0  0  0  0  0  0  0  0  0  0  0
    7.8086  -19.0362   25.0086 O   0  0  0  0  0  0  0  0  0  0  0  0
    6.5559  -18.5179   24.7101 C   0  0  0  0  0  0  0  0  0  0  0  0
    6.7350  -17.3310   23.7857 C   0  0  2  0  0  0  0  0  0  0  0  0
    7.3158  -17.8109   22.5345 N   0  0  0  0  0  0  0  0  0  0  0  0
    7.6496  -16.3702   24.4485 C   0  0  0  0  0  0  0  0  0  0  0  0
    8.8741  -16.3624   24.0948 O   0  0  0  0  0  0  0  0  0  0  0  0
    5.8989  -11.6181   26.6544 C   0  0  0  0  0  0  0  0  0  0  0  0
    6.6834  -12.6013   25.8320 C   0  0  0  0  0  0  0  0  0  0  0  0
    7.5811  -13.4033   26.7531 C   0  0  2  0  0  0  0  0  0  0  0  0
    8.6683  -12.4934   27.2921 C   0  0  0  0  0  0  0  0  0  0  0  0
    8.2386  -14.5508   26.0191 C   0  0  2  0  0  0  0  0  0  0  0  0
    7.2767  -15.4528   25.4476 N   0  0  0  0  0  0  0  0  0  0  0  0
    9.1297  -15.2488   26.9807 C   0  0  0  0  0  0  0  0  0  0  0  0
   10.4184  -14.8482   27.2173 O   0  0  0  0  0  0  0  0  0  0  0  0
    8.6850  -16.2447   27.6011 O   0  0  0  0  0  0  0  0  0  0  0  0
  1  2  1  0
  2  4  1  0
  3  2  2  0
  4  5  1  0
  5  7  1  0
  5  6  1  6
  7 12  1  0
  7  8  2  0
 10  9  1  0
 11 10  1  1
 11 13  1  0
 12 11  1  0
 13 14  2  0
 13 20  1  0
 16 17  1  0
 16 15  1  0
 17 19  1  0
 17 18  1  6
 19 21  1  0
 19 20  1  1
 21 22  1  0
 23 21  2  0
M  END
$$$$
