NSI.pdb
     RDKit          3D

 23 22  0  0  1  0  0  0  0  0999 V2000
    7.8837  -12.5714   17.2472 N   0  0  0  0  0  0  0  0  0  0  0  0
    8.4990  -13.4691   18.1693 C   0  0  0  0  0  0  0  0  0  0  0  0
    9.6561  -13.8704   17.8784 O   0  0  0  0  0  0  0  0  0  0  0  0
    7.7663  -13.8711   19.3858 C   0  0  0  0  0  0  0  0  0  0  0  0
    7.8392  -15.3569   19.5786 C   0  0  2  0  0  0  0  0  0  0  0  0
    7.0275  -16.0019   18.5678 N   0  0  0  0  0  0  0  0  0  0  0  0
    7.3450  -15.7360   20.9226 C   0  0  0  0  0  0  0  0  0  0  0  0
    6.2477  -15.3008   21.3427 O   0  0  0  0  0  0  0  0  0  0  0  0
    7.5840  -18.6749   24.6914 O   0  0  0  0  0  0  0  0  0  0  0  0
    8.0624  -18.3414   23.4316 C   0  0  0  0  0  0  0  0  0  0  0  0
    7.6346  -16.9229   23.1154 C   0  0  2  0  0  0  0  0  0  0  0  0
    8.0945  -16.5973   21.7680 N   0  0  0  0  0  0  0  0  0  0  0  0
    8.2652  -16.0232   24.1114 C   0  0  0  0  0  0  0  0  0  0  0  0
    9.4787  -15.6787   23.9285 O   0  0  0  0  0  0  0  0  0  0  0  0
    6.0408  -11.6716   26.1928 C   0  0  0  0  0  0  0  0  0  0  0  0
    6.9737  -12.6970   25.6123 C   0  0  0  0  0  0  0  0  0  0  0  0
    7.5114  -13.5608   26.7357 C   0  0  2  0  0  0  0  0  0  0  0  0
    8.3818  -12.7065   27.6373 C   0  0  0  0  0  0  0  0  0  0  0  0
    8.3507  -14.6998   26.2007 C   0  0  2  0  0  0  0  0  0  0  0  0
    7.6302  -15.5091   25.2566 N   0  0  0  0  0  0  0  0  0  0  0  0
    8.8109  -15.5039   27.3617 C   0  0  0  0  0  0  0  0  0  0  0  0
    8.2729  -16.7248   27.6736 O   0  0  0  0  0  0  0  0  0  0  0  0
    9.7285  -15.0474   28.0855 O   0  0  0  0  0  0  0  0  0  0  0  0
  1  2  1  0
  2  4  1  0
  3  2  2  0
  4  5  1  0
  5  7  1  0
  5  6  1  6
  7 12  1  0
  7  8  2  0
 10  9  1  0
 11 10  1  1
 11 13  1  0
 12 11  1  0
 13 14  2  0
 13 20  1  0
 16 17  1  0
 16 15  1  0
 17 19  1  0
 17 18  1  1
 19 21  1  0
 19 20  1  6
 21 22  1  0
 23 21  2  0
M  END
$$$$
