NSI.pdb
     RDKit          3D

 23 22  0  0  1  0  0  0  0  0999 V2000
   12.9756  -16.6731   17.6114 N   0  0  0  0  0  0  0  0  0  0  0  0
   11.9511  -17.4499   18.2291 C   0  0  0  0  0  0  0  0  0  0  0  0
   12.0254  -18.6981   18.0842 O   0  0  0  0  0  0  0  0  0  0  0  0
   10.8839  -16.7679   18.9868 C   0  0  0  0  0  0  0  0  0  0  0  0
   11.1452  -16.8558   20.4613 C   0  0  2  0  0  0  0  0  0  0  0  0
   11.5042  -18.2185   20.7942 N   0  0  0  0  0  0  0  0  0  0  0  0
    9.9428  -16.4614   21.2312 C   0  0  0  0  0  0  0  0  0  0  0  0
    9.4584  -15.3123   21.1096 O   0  0  0  0  0  0  0  0  0  0  0  0
    6.3835  -17.7909   24.2172 O   0  0  0  0  0  0  0  0  0  0  0  0
    7.4941  -18.1849   23.4835 C   0  0  0  0  0  0  0  0  0  0  0  0
    8.1904  -16.9443   22.9625 C   0  0  2  0  0  0  0  0  0  0  0  0
    9.3083  -17.3672   22.1232 N   0  0  0  0  0  0  0  0  0  0  0  0
    8.6799  -16.1716   24.1296 C   0  0  0  0  0  0  0  0  0  0  0  0
    9.8277  -16.4588   24.6035 O   0  0  0  0  0  0  0  0  0  0  0  0
    5.6228  -12.2392   26.9795 C   0  0  0  0  0  0  0  0  0  0  0  0
    6.3089  -13.5104   26.5650 C   0  0  0  0  0  0  0  0  0  0  0  0
    7.7626  -13.2057   26.2627 C   0  0  2  0  0  0  0  0  0  0  0  0
    7.8291  -12.2596   25.0791 C   0  0  0  0  0  0  0  0  0  0  0  0
    8.5274  -14.4629   25.9132 C   0  0  2  0  0  0  0  0  0  0  0  0
    7.9768  -15.1333   24.7674 N   0  0  0  0  0  0  0  0  0  0  0  0
    8.5187  -15.3425   27.1101 C   0  0  0  0  0  0  0  0  0  0  0  0
    9.2229  -15.0477   28.2478 O   0  0  0  0  0  0  0  0  0  0  0  0
    7.8397  -16.3972   27.0783 O   0  0  0  0  0  0  0  0  0  0  0  0
  1  2  1  0
  2  4  1  0
  3  2  2  0
  4  5  1  0
  5  7  1  0
  5  6  1  6
  7 12  1  0
  7  8  2  0
 10  9  1  0
 11 10  1  1
 11 13  1  0
 12 11  1  0
 13 14  2  0
 13 20  1  0
 16 17  1  0
 16 15  1  0
 17 19  1  0
 17 18  1  6
 19 21  1  0
 19 20  1  6
 21 22  1  0
 23 21  2  0
M  END
$$$$
