NSI.pdb
     RDKit          3D

 23 22  0  0  1  0  0  0  0  0999 V2000
    9.0652  -17.6688   17.4396 N   0  0  0  0  0  0  0  0  0  0  0  0
    7.8088  -16.9958   17.3848 C   0  0  0  0  0  0  0  0  0  0  0  0
    7.3490  -16.7531   16.2384 O   0  0  0  0  0  0  0  0  0  0  0  0
    7.1297  -16.6280   18.6425 C   0  0  0  0  0  0  0  0  0  0  0  0
    7.9671  -17.0127   19.8261 C   0  0  2  0  0  0  0  0  0  0  0  0
    8.1639  -18.4472   19.8157 N   0  0  0  0  0  0  0  0  0  0  0  0
    7.3029  -16.6160   21.0893 C   0  0  0  0  0  0  0  0  0  0  0  0
    6.7632  -15.4905   21.1978 O   0  0  0  0  0  0  0  0  0  0  0  0
    7.5673  -18.9593   24.5408 O   0  0  0  0  0  0  0  0  0  0  0  0
    6.3529  -18.3427   24.2721 C   0  0  0  0  0  0  0  0  0  0  0  0
    6.6185  -17.0938   23.4567 C   0  0  2  0  0  0  0  0  0  0  0  0
    7.2586  -17.4931   22.2061 N   0  0  0  0  0  0  0  0  0  0  0  0
    7.5184  -16.2171   24.2444 C   0  0  0  0  0  0  0  0  0  0  0  0
    8.7648  -16.2392   23.9787 O   0  0  0  0  0  0  0  0  0  0  0  0
    5.7906  -11.4891   26.3782 C   0  0  0  0  0  0  0  0  0  0  0  0
    6.5582  -12.5441   25.6323 C   0  0  0  0  0  0  0  0  0  0  0  0
    7.4021  -13.3252   26.6198 C   0  0  2  0  0  0  0  0  0  0  0  0
    8.4901  -12.4174   27.1604 C   0  0  0  0  0  0  0  0  0  0  0  0
    8.0584  -14.5178   25.9604 C   0  0  2  0  0  0  0  0  0  0  0  0
    7.1090  -15.3501   25.2738 N   0  0  0  0  0  0  0  0  0  0  0  0
    8.7784  -15.2759   27.0154 C   0  0  0  0  0  0  0  0  0  0  0  0
   10.0699  -14.9938   27.3758 O   0  0  0  0  0  0  0  0  0  0  0  0
    8.1807  -16.2115   27.5999 O   0  0  0  0  0  0  0  0  0  0  0  0
  1  2  1  0
  2  4  1  0
  3  2  2  0
  4  5  1  0
  5  7  1  0
  5  6  1  1
  7 12  1  0
  7  8  2  0
 10  9  1  0
 11 10  1  1
 11 13  1  0
 12 11  1  0
 13 14  2  0
 13 20  1  0
 16 17  1  0
 16 15  1  0
 17 19  1  0
 17 18  1  6
 19 21  1  0
 19 20  1  1
 21 22  1  0
 23 21  2  0
M  END
$$$$
