KLP.pdb
     RDKit          3D

 25 25  0  0  1  0  0  0  0  0999 V2000
   19.5062  -13.7682  -17.0006 N   0  0  0  0  0  0  0  0  0  0  0  0
   19.5926  -12.5061  -17.6234 C   0  0  1  0  0  0  0  0  0  0  0  0
   18.5869  -12.2006  -18.6680 C   0  0  0  0  0  0  0  0  0  0  0  0
   18.8242  -13.0014  -19.9038 C   0  0  0  0  0  0  0  0  0  0  0  0
   17.7396  -13.8925  -20.3801 C   0  0  0  0  0  0  0  0  0  0  0  0
   17.9666  -14.5806  -21.6848 C   0  0  0  0  0  0  0  0  0  0  0  0
   16.8736  -15.2888  -22.2399 N   0  0  0  0  0  0  0  0  0  0  0  0
   19.7388  -11.4271  -16.6115 C   0  0  0  0  0  0  0  0  0  0  0  0
   18.9857  -11.3632  -15.5902 O   0  0  0  0  0  0  0  0  0  0  0  0
   22.3304  -10.4010  -13.4291 C   0  0  0  0  0  0  0  0  0  0  0  0
   22.9909  -10.3430  -14.7670 C   0  0  2  0  0  0  0  0  0  0  0  0
   24.4850  -10.1289  -14.6195 C   0  0  0  0  0  0  0  0  0  0  0  0
   22.4523   -9.2174  -15.5952 C   0  0  0  0  0  0  0  0  0  0  0  0
   20.9757   -9.3740  -15.8980 C   0  0  2  0  0  0  0  0  0  0  0  0
   20.7479  -10.4504  -16.8037 N   0  0  0  0  0  0  0  0  0  0  0  0
   20.4553   -8.0864  -16.3108 C   0  0  0  0  0  0  0  0  0  0  0  0
   21.0117   -7.5837  -17.3681 O   0  0  0  0  0  0  0  0  0  0  0  0
   19.4394   -7.3346  -15.7034 N   0  0  0  0  0  0  0  0  0  0  0  0
   18.6148   -7.7609  -14.5990 C   0  0  0  0  0  0  0  0  0  0  0  0
   17.4667   -6.7508  -14.5192 C   0  0  0  0  0  0  0  0  0  0  0  0
   18.1980   -5.5039  -14.9276 C   0  0  0  0  0  0  0  0  0  0  0  0
   19.0416   -5.9732  -16.0804 C   0  0  1  0  0  0  0  0  0  0  0  0
   20.2181   -5.0713  -16.2507 C   0  0  0  0  0  0  0  0  0  0  0  0
   19.9907   -3.8351  -16.7921 O   0  0  0  0  0  0  0  0  0  0  0  0
   21.3659   -5.4020  -15.9240 O   0  0  0  0  0  0  0  0  0  0  0  0
  2  1  1  1
  2  3  1  0
  4  5  1  0
  4  3  1  0
  6  5  1  0
  7  6  1  0
  8  2  1  0
  9  8  2  0
 11 10  1  1
 11 13  1  0
 12 11  1  0
 14 13  1  6
 14 15  1  0
 15  8  1  0
 16 14  1  0
 16 17  2  0
 18 16  1  0
 19 18  1  0
 20 19  1  0
 21 20  1  0
 21 22  1  0
 22 23  1  1
 22 18  1  0
 23 24  1  0
 25 23  2  0
M  END
$$$$
