KLP.pdb
     RDKit          3D

 25 25  0  0  1  0  0  0  0  0999 V2000
   23.7034  -19.3410  -11.2923 N   0  0  0  0  0  0  0  0  0  0  0  0
   23.7001  -20.7155  -10.9777 C   0  0  1  0  0  0  0  0  0  0  0  0
   23.2884  -21.6509  -12.0507 C   0  0  0  0  0  0  0  0  0  0  0  0
   22.3264  -21.0096  -12.9932 C   0  0  0  0  0  0  0  0  0  0  0  0
   20.8763  -21.1749  -12.7341 C   0  0  0  0  0  0  0  0  0  0  0  0
   19.9472  -20.5727  -13.7349 C   0  0  0  0  0  0  0  0  0  0  0  0
   20.4831  -19.5935  -14.6058 N   0  0  0  0  0  0  0  0  0  0  0  0
   24.9686  -21.1067  -10.3085 C   0  0  0  0  0  0  0  0  0  0  0  0
   25.2356  -22.3197  -10.0410 O   0  0  0  0  0  0  0  0  0  0  0  0
   28.8404  -22.0503  -11.0357 C   0  0  0  0  0  0  0  0  0  0  0  0
   28.5098  -20.6173  -11.2950 C   0  0  2  0  0  0  0  0  0  0  0  0
   29.6300  -19.9374  -12.0582 C   0  0  0  0  0  0  0  0  0  0  0  0
   28.3093  -19.8619  -10.0175 C   0  0  0  0  0  0  0  0  0  0  0  0
   27.0978  -20.3410   -9.2434 C   0  0  2  0  0  0  0  0  0  0  0  0
   25.8946  -20.0901   -9.9648 N   0  0  0  0  0  0  0  0  0  0  0  0
   27.1575  -19.7799   -7.9090 C   0  0  0  0  0  0  0  0  0  0  0  0
   26.6106  -18.6117   -7.7806 O   0  0  0  0  0  0  0  0  0  0  0  0
   27.7340  -20.3461   -6.7630 N   0  0  0  0  0  0  0  0  0  0  0  0
   28.3162  -21.6628   -6.6698 C   0  0  0  0  0  0  0  0  0  0  0  0
   28.5014  -21.9338   -5.1741 C   0  0  0  0  0  0  0  0  0  0  0  0
   28.8390  -20.5472   -4.7056 C   0  0  0  0  0  0  0  0  0  0  0  0
   27.8549  -19.6920   -5.4548 C   0  0  1  0  0  0  0  0  0  0  0  0
   28.3756  -18.2983   -5.5698 C   0  0  0  0  0  0  0  0  0  0  0  0
   28.3011  -17.5046   -4.4574 O   0  0  0  0  0  0  0  0  0  0  0  0
   28.8611  -17.8512   -6.6176 O   0  0  0  0  0  0  0  0  0  0  0  0
  2  1  1  6
  2  3  1  0
  4  5  1  0
  4  3  1  0
  6  5  1  0
  7  6  1  0
  8  2  1  0
  9  8  2  0
 11 10  1  1
 11 13  1  0
 12 11  1  0
 14 13  1  6
 14 15  1  0
 15  8  1  0
 16 14  1  0
 16 17  2  0
 18 16  1  0
 19 18  1  0
 20 19  1  0
 21 20  1  0
 21 22  1  0
 22 23  1  6
 22 18  1  0
 23 24  1  0
 25 23  2  0
M  END
$$$$
