KLP.pdb
     RDKit          3D

 25 25  0  0  1  0  0  0  0  0999 V2000
   26.8447  -17.7858  -16.7278 N   0  0  0  0  0  0  0  0  0  0  0  0
   26.7955  -19.0848  -17.2738 C   0  0  1  0  0  0  0  0  0  0  0  0
   27.9638  -19.5243  -18.0724 C   0  0  0  0  0  0  0  0  0  0  0  0
   28.3935  -18.4693  -19.0354 C   0  0  0  0  0  0  0  0  0  0  0  0
   29.4303  -17.5036  -18.5998 C   0  0  0  0  0  0  0  0  0  0  0  0
   29.8508  -16.4798  -19.6010 C   0  0  0  0  0  0  0  0  0  0  0  0
   30.7750  -15.4975  -19.1707 N   0  0  0  0  0  0  0  0  0  0  0  0
   26.3778  -20.0739  -16.2457 C   0  0  0  0  0  0  0  0  0  0  0  0
   26.4114  -21.3242  -16.4696 O   0  0  0  0  0  0  0  0  0  0  0  0
   25.0589  -20.1279  -10.2398 C   0  0  0  0  0  0  0  0  0  0  0  0
   25.3677  -20.8709  -11.4977 C   0  0  2  0  0  0  0  0  0  0  0  0
   26.4898  -21.8658  -11.2720 C   0  0  0  0  0  0  0  0  0  0  0  0
   25.7997  -19.9420  -12.5902 C   0  0  0  0  0  0  0  0  0  0  0  0
   25.4175  -20.4471  -13.9669 C   0  0  2  0  0  0  0  0  0  0  0  0
   25.9320  -19.5962  -14.9878 N   0  0  0  0  0  0  0  0  0  0  0  0
   23.9850  -20.6623  -13.9927 C   0  0  0  0  0  0  0  0  0  0  0  0
   23.2682  -19.6095  -13.7519 O   0  0  0  0  0  0  0  0  0  0  0  0
   23.2997  -21.8605  -14.2397 N   0  0  0  0  0  0  0  0  0  0  0  0
   23.9018  -23.1253  -14.5844 C   0  0  0  0  0  0  0  0  0  0  0  0
   22.7548  -24.0174  -15.0673 C   0  0  0  0  0  0  0  0  0  0  0  0
   21.6587  -23.5323  -14.1621 C   0  0  0  0  0  0  0  0  0  0  0  0
   21.8443  -22.0403  -14.1815 C   0  0  1  0  0  0  0  0  0  0  0  0
   21.2527  -21.4375  -12.9514 C   0  0  0  0  0  0  0  0  0  0  0  0
   19.9004  -21.2278  -12.9407 O   0  0  0  0  0  0  0  0  0  0  0  0
   21.9345  -21.1295  -11.9645 O   0  0  0  0  0  0  0  0  0  0  0  0
  2  1  1  1
  2  3  1  0
  4  5  1  0
  4  3  1  0
  6  5  1  0
  7  6  1  0
  8  2  1  0
  9  8  2  0
 11 10  1  1
 11 13  1  0
 12 11  1  0
 14 13  1  1
 14 15  1  0
 15  8  1  0
 16 14  1  0
 16 17  2  0
 18 16  1  0
 19 18  1  0
 20 19  1  0
 21 20  1  0
 21 22  1  0
 22 23  1  1
 22 18  1  0
 23 24  1  0
 25 23  2  0
M  END
$$$$
