KLP.pdb
     RDKit          3D

 25 25  0  0  1  0  0  0  0  0999 V2000
   20.6059  -20.4763   -9.9824 N   0  0  0  0  0  0  0  0  0  0  0  0
   21.3474  -21.1503  -10.9743 C   0  0  1  0  0  0  0  0  0  0  0  0
   20.6148  -21.5754  -12.1902 C   0  0  0  0  0  0  0  0  0  0  0  0
   19.9743  -22.9093  -12.0020 C   0  0  0  0  0  0  0  0  0  0  0  0
   18.6384  -22.9607  -11.3615 C   0  0  0  0  0  0  0  0  0  0  0  0
   18.0567  -24.3172  -11.1404 C   0  0  0  0  0  0  0  0  0  0  0  0
   16.8484  -24.3896  -10.4063 N   0  0  0  0  0  0  0  0  0  0  0  0
   22.6123  -20.4275  -11.2700 C   0  0  0  0  0  0  0  0  0  0  0  0
   22.6125  -19.2491  -11.7449 O   0  0  0  0  0  0  0  0  0  0  0  0
   25.6535  -18.8695   -8.8772 C   0  0  0  0  0  0  0  0  0  0  0  0
   25.7689  -20.3583   -8.8857 C   0  0  2  0  0  0  0  0  0  0  0  0
   26.8416  -20.8192   -7.9180 C   0  0  0  0  0  0  0  0  0  0  0  0
   26.1347  -20.8713  -10.2444 C   0  0  0  0  0  0  0  0  0  0  0  0
   25.1119  -20.5014  -11.2997 C   0  0  2  0  0  0  0  0  0  0  0  0
   23.8428  -21.0820  -11.0115 N   0  0  0  0  0  0  0  0  0  0  0  0
   25.6647  -20.8163  -12.6014 C   0  0  0  0  0  0  0  0  0  0  0  0
   25.5620  -22.0594  -12.9543 O   0  0  0  0  0  0  0  0  0  0  0  0
   26.2909  -19.9445  -13.5035 N   0  0  0  0  0  0  0  0  0  0  0  0
   26.4329  -18.5179  -13.3432 C   0  0  0  0  0  0  0  0  0  0  0  0
   26.8769  -17.9851  -14.7084 C   0  0  0  0  0  0  0  0  0  0  0  0
   27.7365  -19.1313  -15.1599 C   0  0  0  0  0  0  0  0  0  0  0  0
   26.9225  -20.3338  -14.7698 C   0  0  1  0  0  0  0  0  0  0  0  0
   27.8121  -21.5214  -14.6119 C   0  0  0  0  0  0  0  0  0  0  0  0
   28.1798  -22.1883  -15.7489 O   0  0  0  0  0  0  0  0  0  0  0  0
   28.2167  -21.9105  -13.5080 O   0  0  0  0  0  0  0  0  0  0  0  0
  2  1  1  6
  2  3  1  0
  4  5  1  0
  4  3  1  0
  6  5  1  0
  7  6  1  0
  8  2  1  0
  9  8  2  0
 11 10  1  6
 11 13  1  0
 12 11  1  0
 14 13  1  1
 14 15  1  0
 15  8  1  0
 16 14  1  0
 16 17  2  0
 18 16  1  0
 19 18  1  0
 20 19  1  0
 21 20  1  0
 21 22  1  0
 22 23  1  1
 22 18  1  0
 23 24  1  0
 25 23  2  0
M  END
$$$$
