KLP.pdb
     RDKit          3D

 25 25  0  0  1  0  0  0  0  0999 V2000
   25.9834  -21.0306  -12.4653 N   0  0  0  0  0  0  0  0  0  0  0  0
   25.1901  -20.5041  -11.4253 C   0  0  1  0  0  0  0  0  0  0  0  0
   23.7208  -20.6331  -11.5679 C   0  0  0  0  0  0  0  0  0  0  0  0
   23.2179  -19.8653  -12.7437 C   0  0  0  0  0  0  0  0  0  0  0  0
   24.0673  -19.8063  -13.9571 C   0  0  0  0  0  0  0  0  0  0  0  0
   23.5037  -19.0768  -15.1308 C   0  0  0  0  0  0  0  0  0  0  0  0
   22.1684  -19.3742  -15.4952 N   0  0  0  0  0  0  0  0  0  0  0  0
   25.6955  -20.9478  -10.0996 C   0  0  0  0  0  0  0  0  0  0  0  0
   25.6660  -22.1685   -9.7484 O   0  0  0  0  0  0  0  0  0  0  0  0
   28.4569  -18.2350   -5.3000 C   0  0  0  0  0  0  0  0  0  0  0  0
   28.1788  -19.5019   -6.0398 C   0  0  2  0  0  0  0  0  0  0  0  0
   29.4371  -20.3394   -6.1625 C   0  0  0  0  0  0  0  0  0  0  0  0
   27.6804  -19.2287   -7.4254 C   0  0  0  0  0  0  0  0  0  0  0  0
   26.7067  -20.2835   -7.9109 C   0  0  2  0  0  0  0  0  0  0  0  0
   26.2202  -19.9733   -9.2139 N   0  0  0  0  0  0  0  0  0  0  0  0
   25.6941  -20.4734   -6.8922 C   0  0  0  0  0  0  0  0  0  0  0  0
   24.9628  -19.4320   -6.6454 O   0  0  0  0  0  0  0  0  0  0  0  0
   25.4244  -21.6344   -6.1536 N   0  0  0  0  0  0  0  0  0  0  0  0
   26.0329  -22.9269   -6.3545 C   0  0  0  0  0  0  0  0  0  0  0  0
   25.1902  -23.9169   -5.5456 C   0  0  0  0  0  0  0  0  0  0  0  0
   24.8243  -23.0438   -4.3794 C   0  0  0  0  0  0  0  0  0  0  0  0
   24.4786  -21.7360   -5.0360 C   0  0  1  0  0  0  0  0  0  0  0  0
   24.6397  -20.6183   -4.0606 C   0  0  0  0  0  0  0  0  0  0  0  0
   25.9137  -20.2908   -3.6829 O   0  0  0  0  0  0  0  0  0  0  0  0
   23.6766  -19.9943   -3.5950 O   0  0  0  0  0  0  0  0  0  0  0  0
  2  1  1  6
  2  3  1  0
  4  5  1  0
  4  3  1  0
  6  5  1  0
  7  6  1  0
  8  2  1  0
  9  8  2  0
 11 10  1  6
 11 13  1  0
 12 11  1  0
 14 13  1  1
 14 15  1  0
 15  8  1  0
 16 14  1  0
 16 17  2  0
 18 16  1  0
 19 18  1  0
 20 19  1  0
 21 20  1  0
 21 22  1  0
 22 23  1  1
 22 18  1  0
 23 24  1  0
 25 23  2  0
M  END
$$$$
