KLP.pdb
     RDKit          3D

 25 25  0  0  1  0  0  0  0  0999 V2000
   27.5372  -17.4338  -15.6912 N   0  0  0  0  0  0  0  0  0  0  0  0
   26.9663  -18.5365  -16.3592 C   0  0  1  0  0  0  0  0  0  0  0  0
   27.5986  -18.9532  -17.6330 C   0  0  0  0  0  0  0  0  0  0  0  0
   27.9947  -17.7740  -18.4560 C   0  0  0  0  0  0  0  0  0  0  0  0
   29.3350  -17.1818  -18.2319 C   0  0  0  0  0  0  0  0  0  0  0  0
   29.7096  -16.0303  -19.1044 C   0  0  0  0  0  0  0  0  0  0  0  0
   30.9490  -15.3983  -18.8423 N   0  0  0  0  0  0  0  0  0  0  0  0
   26.7381  -19.6637  -15.4173 C   0  0  0  0  0  0  0  0  0  0  0  0
   26.7012  -20.8696  -15.8158 O   0  0  0  0  0  0  0  0  0  0  0  0
   25.3624  -20.2279   -9.3784 C   0  0  0  0  0  0  0  0  0  0  0  0
   25.4982  -20.8187  -10.7430 C   0  0  2  0  0  0  0  0  0  0  0  0
   26.4021  -22.0360  -10.7137 C   0  0  0  0  0  0  0  0  0  0  0  0
   26.0909  -19.8383  -11.7076 C   0  0  0  0  0  0  0  0  0  0  0  0
   25.8338  -20.2170  -13.1523 C   0  0  2  0  0  0  0  0  0  0  0  0
   26.5576  -19.3713  -14.0421 N   0  0  0  0  0  0  0  0  0  0  0  0
   24.4013  -20.2691  -13.3626 C   0  0  0  0  0  0  0  0  0  0  0  0
   23.7711  -19.1626  -13.1200 O   0  0  0  0  0  0  0  0  0  0  0  0
   23.6336  -21.3632  -13.7867 N   0  0  0  0  0  0  0  0  0  0  0  0
   24.1426  -22.6563  -14.1735 C   0  0  0  0  0  0  0  0  0  0  0  0
   22.9768  -23.3787  -14.8546 C   0  0  0  0  0  0  0  0  0  0  0  0
   21.8361  -22.8471  -14.0346 C   0  0  0  0  0  0  0  0  0  0  0  0
   22.1707  -21.3871  -13.9028 C   0  0  1  0  0  0  0  0  0  0  0  0
   21.5022  -20.8184  -12.6960 C   0  0  0  0  0  0  0  0  0  0  0  0
   20.2175  -20.3694  -12.8407 O   0  0  0  0  0  0  0  0  0  0  0  0
   22.0636  -20.7433  -11.5948 O   0  0  0  0  0  0  0  0  0  0  0  0
  2  1  1  1
  2  3  1  0
  4  5  1  0
  4  3  1  0
  6  5  1  0
  7  6  1  0
  8  2  1  0
  9  8  2  0
 11 10  1  1
 11 13  1  0
 12 11  1  0
 14 13  1  1
 14 15  1  0
 15  8  1  0
 16 14  1  0
 16 17  2  0
 18 16  1  0
 19 18  1  0
 20 19  1  0
 21 20  1  0
 21 22  1  0
 22 23  1  1
 22 18  1  0
 23 24  1  0
 25 23  2  0
M  END
$$$$
