KLP.pdb
     RDKit          3D

 25 25  0  0  1  0  0  0  0  0999 V2000
   25.7957  -20.9269  -12.4571 N   0  0  0  0  0  0  0  0  0  0  0  0
   25.2469  -20.2216  -11.3665 C   0  0  1  0  0  0  0  0  0  0  0  0
   23.7789  -20.0191  -11.3657 C   0  0  0  0  0  0  0  0  0  0  0  0
   23.2382  -19.9457  -12.7539 C   0  0  0  0  0  0  0  0  0  0  0  0
   22.6396  -21.1695  -13.3382 C   0  0  0  0  0  0  0  0  0  0  0  0
   21.9619  -21.0152  -14.6588 C   0  0  0  0  0  0  0  0  0  0  0  0
   21.1518  -19.8682  -14.8386 N   0  0  0  0  0  0  0  0  0  0  0  0
   25.7704  -20.7495  -10.0793 C   0  0  0  0  0  0  0  0  0  0  0  0
   25.7543  -21.9914   -9.8111 O   0  0  0  0  0  0  0  0  0  0  0  0
   28.5449  -18.3362   -5.0861 C   0  0  0  0  0  0  0  0  0  0  0  0
   28.1653  -19.5388   -5.8858 C   0  0  2  0  0  0  0  0  0  0  0  0
   29.3621  -20.4476   -6.0899 C   0  0  0  0  0  0  0  0  0  0  0  0
   27.6517  -19.1563   -7.2396 C   0  0  0  0  0  0  0  0  0  0  0  0
   26.7565  -20.2198   -7.8429 C   0  0  2  0  0  0  0  0  0  0  0  0
   26.2975  -19.8328   -9.1353 N   0  0  0  0  0  0  0  0  0  0  0  0
   25.7224  -20.5451   -6.8817 C   0  0  0  0  0  0  0  0  0  0  0  0
   24.8834  -19.5885   -6.6343 O   0  0  0  0  0  0  0  0  0  0  0  0
   25.5337  -21.7547   -6.1979 N   0  0  0  0  0  0  0  0  0  0  0  0
   26.2935  -22.9655   -6.3926 C   0  0  0  0  0  0  0  0  0  0  0  0
   25.5129  -24.0698   -5.6743 C   0  0  0  0  0  0  0  0  0  0  0  0
   24.9753  -23.2846   -4.5121 C   0  0  0  0  0  0  0  0  0  0  0  0
   24.5320  -21.9988   -5.1534 C   0  0  1  0  0  0  0  0  0  0  0  0
   24.5027  -20.9066   -4.1371 C   0  0  0  0  0  0  0  0  0  0  0  0
   23.3534  -20.7537   -3.4100 O   0  0  0  0  0  0  0  0  0  0  0  0
   25.4654  -20.1535   -3.9383 O   0  0  0  0  0  0  0  0  0  0  0  0
  2  1  1  6
  2  3  1  0
  4  5  1  0
  4  3  1  0
  6  5  1  0
  7  6  1  0
  8  2  1  0
  9  8  2  0
 11 10  1  6
 11 13  1  0
 12 11  1  0
 14 13  1  1
 14 15  1  0
 15  8  1  0
 16 14  1  0
 16 17  2  0
 18 16  1  0
 19 18  1  0
 20 19  1  0
 21 20  1  0
 21 22  1  0
 22 23  1  1
 22 18  1  0
 23 24  1  0
 25 23  2  0
M  END
$$$$
