KLP.pdb
     RDKit          3D

 25 25  0  0  1  0  0  0  0  0999 V2000
   20.4591  -20.4669  -12.2355 N   0  0  0  0  0  0  0  0  0  0  0  0
   21.2572  -20.9316  -13.3009 C   0  0  1  0  0  0  0  0  0  0  0  0
   20.6370  -20.9546  -14.6465 C   0  0  0  0  0  0  0  0  0  0  0  0
   20.3701  -22.3503  -15.0998 C   0  0  0  0  0  0  0  0  0  0  0  0
   19.4517  -23.1862  -14.2903 C   0  0  0  0  0  0  0  0  0  0  0  0
   19.1899  -24.5671  -14.7921 C   0  0  0  0  0  0  0  0  0  0  0  0
   18.4644  -25.4361  -13.9420 N   0  0  0  0  0  0  0  0  0  0  0  0
   22.5955  -20.2848  -13.2790 C   0  0  0  0  0  0  0  0  0  0  0  0
   22.7410  -19.0438  -13.5093 O   0  0  0  0  0  0  0  0  0  0  0  0
   25.2835  -19.3714  -10.2873 C   0  0  0  0  0  0  0  0  0  0  0  0
   25.3234  -20.8485  -10.5022 C   0  0  2  0  0  0  0  0  0  0  0  0
   26.2081  -21.5179   -9.4682 C   0  0  0  0  0  0  0  0  0  0  0  0
   25.8694  -21.1906  -11.8542 C   0  0  0  0  0  0  0  0  0  0  0  0
   25.0611  -20.5765  -12.9794 C   0  0  2  0  0  0  0  0  0  0  0  0
   23.7300  -21.0851  -12.9933 N   0  0  0  0  0  0  0  0  0  0  0  0
   25.8047  -20.7317  -14.2131 C   0  0  0  0  0  0  0  0  0  0  0  0
   25.6543  -21.8758  -14.8035 O   0  0  0  0  0  0  0  0  0  0  0  0
   26.6569  -19.8022  -14.8263 N   0  0  0  0  0  0  0  0  0  0  0  0
   26.9050  -18.4543  -14.3760 C   0  0  0  0  0  0  0  0  0  0  0  0
   27.6254  -17.7528  -15.5308 C   0  0  0  0  0  0  0  0  0  0  0  0
   28.4362  -18.9020  -16.0585 C   0  0  0  0  0  0  0  0  0  0  0  0
   27.4562  -20.0421  -16.0336 C   0  0  1  0  0  0  0  0  0  0  0  0
   28.1879  -21.3412  -15.9738 C   0  0  0  0  0  0  0  0  0  0  0  0
   28.3303  -21.9277  -14.7455 O   0  0  0  0  0  0  0  0  0  0  0  0
   28.6581  -21.8897  -16.9796 O   0  0  0  0  0  0  0  0  0  0  0  0
  2  1  1  1
  2  3  1  0
  4  5  1  0
  4  3  1  0
  6  5  1  0
  7  6  1  0
  8  2  1  0
  9  8  2  0
 11 10  1  1
 11 13  1  0
 12 11  1  0
 14 13  1  1
 14 15  1  0
 15  8  1  0
 16 14  1  0
 16 17  2  0
 18 16  1  0
 19 18  1  0
 20 19  1  0
 21 20  1  0
 21 22  1  0
 22 23  1  1
 22 18  1  0
 23 24  1  0
 25 23  2  0
M  END
$$$$
