KLP.pdb
     RDKit          3D

 25 25  0  0  1  0  0  0  0  0999 V2000
   21.1808  -23.1126  -14.8116 N   0  0  0  0  0  0  0  0  0  0  0  0
   20.8855  -24.2468  -14.0277 C   0  0  1  0  0  0  0  0  0  0  0  0
   22.0252  -25.1075  -13.6327 C   0  0  0  0  0  0  0  0  0  0  0  0
   22.6951  -25.7053  -14.8237 C   0  0  0  0  0  0  0  0  0  0  0  0
   23.7061  -24.8920  -15.5406 C   0  0  0  0  0  0  0  0  0  0  0  0
   25.1256  -25.0643  -15.1131 C   0  0  0  0  0  0  0  0  0  0  0  0
   26.1016  -24.2939  -15.7900 N   0  0  0  0  0  0  0  0  0  0  0  0
   19.9966  -23.8866  -12.8920 C   0  0  0  0  0  0  0  0  0  0  0  0
   20.1494  -22.8059  -12.2415 O   0  0  0  0  0  0  0  0  0  0  0  0
   16.4074  -23.2311  -13.9708 C   0  0  0  0  0  0  0  0  0  0  0  0
   16.1290  -23.3171  -12.5063 C   0  0  2  0  0  0  0  0  0  0  0  0
   16.8272  -22.1966  -11.7602 C   0  0  0  0  0  0  0  0  0  0  0  0
   16.6127  -24.6130  -11.9322 C   0  0  0  0  0  0  0  0  0  0  0  0
   18.0514  -24.5388  -11.4620 C   0  0  2  0  0  0  0  0  0  0  0  0
   18.9565  -24.7812  -12.5357 N   0  0  0  0  0  0  0  0  0  0  0  0
   18.2001  -25.4037  -10.3092 C   0  0  0  0  0  0  0  0  0  0  0  0
   18.2483  -26.6710  -10.5773 O   0  0  0  0  0  0  0  0  0  0  0  0
   18.2911  -25.0309   -8.9604 N   0  0  0  0  0  0  0  0  0  0  0  0
   18.3997  -23.6824   -8.4596 C   0  0  0  0  0  0  0  0  0  0  0  0
   18.7962  -23.8135   -6.9864 C   0  0  0  0  0  0  0  0  0  0  0  0
   18.0381  -25.0604   -6.6303 C   0  0  0  0  0  0  0  0  0  0  0  0
   18.2825  -25.9509   -7.8170 C   0  0  1  0  0  0  0  0  0  0  0  0
   17.1958  -26.9681   -7.9227 C   0  0  0  0  0  0  0  0  0  0  0  0
   17.3832  -28.1592   -7.2755 O   0  0  0  0  0  0  0  0  0  0  0  0
   16.1552  -26.7692   -8.5639 O   0  0  0  0  0  0  0  0  0  0  0  0
  2  1  1  1
  2  3  1  0
  4  5  1  0
  4  3  1  0
  6  5  1  0
  7  6  1  0
  8  2  1  0
  9  8  2  0
 11 10  1  6
 11 13  1  0
 12 11  1  0
 14 13  1  6
 14 15  1  0
 15  8  1  0
 16 14  1  0
 16 17  2  0
 18 16  1  0
 19 18  1  0
 20 19  1  0
 21 20  1  0
 21 22  1  0
 22 23  1  6
 22 18  1  0
 23 24  1  0
 25 23  2  0
M  END
$$$$
