KLP.pdb
     RDKit          3D

 25 25  0  0  1  0  0  0  0  0999 V2000
   19.9344  -18.7978  -15.1915 N   0  0  0  0  0  0  0  0  0  0  0  0
   21.0546  -19.4195  -15.7802 C   0  0  1  0  0  0  0  0  0  0  0  0
   21.2203  -19.2616  -17.2443 C   0  0  0  0  0  0  0  0  0  0  0  0
   20.9497  -20.5396  -17.9643 C   0  0  0  0  0  0  0  0  0  0  0  0
   19.9820  -21.4895  -17.3656 C   0  0  0  0  0  0  0  0  0  0  0  0
   19.7532  -22.7643  -18.1072 C   0  0  0  0  0  0  0  0  0  0  0  0
   18.9039  -23.7207  -17.5002 N   0  0  0  0  0  0  0  0  0  0  0  0
   22.2904  -19.1185  -15.0107 C   0  0  0  0  0  0  0  0  0  0  0  0
   22.8562  -17.9826  -15.0740 O   0  0  0  0  0  0  0  0  0  0  0  0
   25.4519  -21.5791  -10.3146 C   0  0  0  0  0  0  0  0  0  0  0  0
   25.3913  -20.6393  -11.4734 C   0  0  2  0  0  0  0  0  0  0  0  0
   25.5331  -19.2030  -11.0079 C   0  0  0  0  0  0  0  0  0  0  0  0
   24.0877  -20.7520  -12.2022 C   0  0  0  0  0  0  0  0  0  0  0  0
   24.0927  -20.0043  -13.5202 C   0  0  2  0  0  0  0  0  0  0  0  0
   22.8414  -20.1343  -14.1898 N   0  0  0  0  0  0  0  0  0  0  0  0
   25.2554  -20.4213  -14.2773 C   0  0  0  0  0  0  0  0  0  0  0  0
   25.2588  -21.6674  -14.6346 O   0  0  0  0  0  0  0  0  0  0  0  0
   26.3593  -19.6439  -14.6560 N   0  0  0  0  0  0  0  0  0  0  0  0
   26.5670  -18.2533  -14.3331 C   0  0  0  0  0  0  0  0  0  0  0  0
   27.7173  -17.7829  -15.2276 C   0  0  0  0  0  0  0  0  0  0  0  0
   28.5414  -19.0384  -15.2611 C   0  0  0  0  0  0  0  0  0  0  0  0
   27.5059  -20.1135  -15.4425 C   0  0  1  0  0  0  0  0  0  0  0  0
   28.0329  -21.4174  -14.9436 C   0  0  0  0  0  0  0  0  0  0  0  0
   28.8996  -22.0981  -15.7550 O   0  0  0  0  0  0  0  0  0  0  0  0
   27.7157  -21.8888  -13.8433 O   0  0  0  0  0  0  0  0  0  0  0  0
  2  1  1  1
  2  3  1  0
  4  5  1  0
  4  3  1  0
  6  5  1  0
  7  6  1  0
  8  2  1  0
  9  8  2  0
 11 10  1  1
 11 13  1  0
 12 11  1  0
 14 13  1  1
 14 15  1  0
 15  8  1  0
 16 14  1  0
 16 17  2  0
 18 16  1  0
 19 18  1  0
 20 19  1  0
 21 20  1  0
 21 22  1  0
 22 23  1  1
 22 18  1  0
 23 24  1  0
 25 23  2  0
M  END
$$$$
