KLP.pdb
     RDKit          3D

 25 25  0  0  1  0  0  0  0  0999 V2000
   27.2893  -21.2711  -17.8902 N   0  0  0  0  0  0  0  0  0  0  0  0
   26.6519  -22.4184  -17.3748 C   0  0  1  0  0  0  0  0  0  0  0  0
   27.1309  -23.7322  -17.8651 C   0  0  0  0  0  0  0  0  0  0  0  0
   26.9996  -23.8417  -19.3469 C   0  0  0  0  0  0  0  0  0  0  0  0
   25.7142  -23.4423  -19.9677 C   0  0  0  0  0  0  0  0  0  0  0  0
   25.5827  -23.6731  -21.4363 C   0  0  0  0  0  0  0  0  0  0  0  0
   24.7174  -24.7139  -21.8513 N   0  0  0  0  0  0  0  0  0  0  0  0
   26.5473  -22.3436  -15.8939 C   0  0  0  0  0  0  0  0  0  0  0  0
   26.0982  -23.3134  -15.2066 O   0  0  0  0  0  0  0  0  0  0  0  0
   29.5576  -21.3113  -12.5651 C   0  0  0  0  0  0  0  0  0  0  0  0
   29.2095  -20.1763  -13.4708 C   0  0  2  0  0  0  0  0  0  0  0  0
   30.0040  -18.9366  -13.1080 C   0  0  0  0  0  0  0  0  0  0  0  0
   27.7564  -19.8260  -13.3761 C   0  0  0  0  0  0  0  0  0  0  0  0
   26.8558  -20.9540  -13.8377 C   0  0  2  0  0  0  0  0  0  0  0  0
   26.9619  -21.1537  -15.2447 N   0  0  0  0  0  0  0  0  0  0  0  0
   25.5188  -20.7038  -13.3389 C   0  0  0  0  0  0  0  0  0  0  0  0
   24.7591  -20.0127  -14.1298 O   0  0  0  0  0  0  0  0  0  0  0  0
   24.9660  -21.1137  -12.1171 N   0  0  0  0  0  0  0  0  0  0  0  0
   25.6116  -21.9468  -11.1321 C   0  0  0  0  0  0  0  0  0  0  0  0
   24.5101  -22.3736  -10.1578 C   0  0  0  0  0  0  0  0  0  0  0  0
   23.6706  -21.1280  -10.1636 C   0  0  0  0  0  0  0  0  0  0  0  0
   23.6317  -20.7576  -11.6204 C   0  0  1  0  0  0  0  0  0  0  0  0
   23.3481  -19.3000  -11.7678 C   0  0  0  0  0  0  0  0  0  0  0  0
   22.0488  -18.8940  -11.6269 O   0  0  0  0  0  0  0  0  0  0  0  0
   24.2337  -18.4684  -12.0080 O   0  0  0  0  0  0  0  0  0  0  0  0
  2  1  1  1
  2  3  1  0
  4  5  1  0
  4  3  1  0
  6  5  1  0
  7  6  1  0
  8  2  1  0
  9  8  2  0
 11 10  1  1
 11 13  1  0
 12 11  1  0
 14 13  1  6
 14 15  1  0
 15  8  1  0
 16 14  1  0
 16 17  2  0
 18 16  1  0
 19 18  1  0
 20 19  1  0
 21 20  1  0
 21 22  1  0
 22 23  1  1
 22 18  1  0
 23 24  1  0
 25 23  2  0
M  END
$$$$
