AHH.pdb
     RDKit          3D

 26 27  0  0  1  0  0  0  0  0999 V2000
   11.8548  -17.5070   18.7459 C   0  0  0  0  0  0  0  0  0  0  0  0
   10.8915  -18.1153   19.7436 C   0  0  2  0  0  0  0  0  0  0  0  0
    9.9510  -18.9068   19.0173 N   0  0  0  0  0  0  0  0  0  0  0  0
   10.2917  -17.0198   20.5252 C   0  0  0  0  0  0  0  0  0  0  0  0
   11.0675  -16.3245   21.2317 O   0  0  0  0  0  0  0  0  0  0  0  0
    8.9166  -16.7205   20.5185 N   0  0  0  0  0  0  0  0  0  0  0  0
    8.3097  -15.6688   21.3239 C   0  0  1  0  0  0  0  0  0  0  0  0
    7.2155  -14.9707   20.5993 C   0  0  0  0  0  0  0  0  0  0  0  0
    7.7097  -14.3399   19.3537 C   0  0  0  0  0  0  0  0  0  0  0  0
    9.0182  -14.2712   18.9274 C   0  0  0  0  0  0  0  0  0  0  0  0
    9.0737  -13.6331   17.7708 N   0  0  0  0  0  0  0  0  0  0  0  0
    7.8240  -13.2828   17.4323 C   0  0  0  0  0  0  0  0  0  0  0  0
    6.9972  -13.7139   18.3967 N   0  0  0  0  0  0  0  0  0  0  0  0
    7.8857  -16.1803   22.6407 C   0  0  0  0  0  0  0  0  0  0  0  0
    6.6977  -16.1501   23.0034 O   0  0  0  0  0  0  0  0  0  0  0  0
    8.8167  -16.7408   23.5764 N   0  0  0  0  0  0  0  0  0  0  0  0
    8.3421  -17.3836   24.8037 C   0  0  1  0  0  0  0  0  0  0  0  0
    7.6459  -18.6697   24.5031 C   0  0  0  0  0  0  0  0  0  0  0  0
    6.4044  -18.4156   23.7569 C   0  0  0  0  0  0  0  0  0  0  0  0
    5.5863  -17.2982   23.9522 C   0  0  0  0  0  0  0  0  0  0  0  0
    4.5399  -17.3704   23.1161 N   0  0  0  0  0  0  0  0  0  0  0  0
    4.6785  -18.4988   22.4037 C   0  0  0  0  0  0  0  0  0  0  0  0
    5.8117  -19.1298   22.7963 N   0  0  0  0  0  0  0  0  0  0  0  0
    9.4440  -17.5108   25.7834 C   0  0  0  0  0  0  0  0  0  0  0  0
   10.7180  -17.0681   25.5548 O   0  0  0  0  0  0  0  0  0  0  0  0
    9.2223  -18.0614   26.9143 O   0  0  0  0  0  0  0  0  0  0  0  0
  2  1  1  6
  2  4  1  0
  3  2  1  0
  4  5  2  0
  6  4  1  0
  6  7  1  0
  7 14  1  0
  7  8  1  6
  9  8  1  0
 10  9  2  0
 11 12  1  0
 11 10  1  0
 12 13  2  0
 13  9  1  0
 14 15  2  0
 16 17  1  0
 16 14  1  0
 17 24  1  0
 18 19  1  0
 17 18  1  6
 19 23  1  0
 20 21  1  0
 20 19  2  0
 21 22  1  0
 22 23  2  0
 24 26  2  0
 24 25  1  0
M  END
$$$$
