AHH.pdb
     RDKit          3D

 26 27  0  0  1  0  0  0  0  0999 V2000
    8.9384  -17.4215   16.4303 C   0  0  0  0  0  0  0  0  0  0  0  0
    9.5756  -17.7924   17.7531 C   0  0  2  0  0  0  0  0  0  0  0  0
    8.5286  -18.1217   18.6662 N   0  0  0  0  0  0  0  0  0  0  0  0
   10.4267  -16.6684   18.1809 C   0  0  0  0  0  0  0  0  0  0  0  0
   11.4755  -16.4554   17.5183 O   0  0  0  0  0  0  0  0  0  0  0  0
   10.1265  -15.8371   19.2760 N   0  0  0  0  0  0  0  0  0  0  0  0
   10.9583  -14.7181   19.6992 C   0  0  1  0  0  0  0  0  0  0  0  0
   10.1752  -13.4630   19.8446 C   0  0  0  0  0  0  0  0  0  0  0  0
    9.0976  -13.3789   18.8321 C   0  0  0  0  0  0  0  0  0  0  0  0
    7.7539  -13.1903   19.0721 C   0  0  0  0  0  0  0  0  0  0  0  0
    7.0982  -13.1690   17.9242 N   0  0  0  0  0  0  0  0  0  0  0  0
    7.9895  -13.3403   16.9367 C   0  0  0  0  0  0  0  0  0  0  0  0
    9.2040  -13.4677   17.4919 N   0  0  0  0  0  0  0  0  0  0  0  0
   11.7292  -15.0526   20.9114 C   0  0  0  0  0  0  0  0  0  0  0  0
   11.1960  -15.1074   22.0322 O   0  0  0  0  0  0  0  0  0  0  0  0
   13.1348  -15.3333   20.8672 N   0  0  0  0  0  0  0  0  0  0  0  0
   13.8306  -15.8362   22.0537 C   0  0  1  0  0  0  0  0  0  0  0  0
   14.0533  -17.3098   21.9627 C   0  0  0  0  0  0  0  0  0  0  0  0
   12.7764  -18.0278   22.0920 C   0  0  0  0  0  0  0  0  0  0  0  0
   11.7855  -17.7046   23.0246 C   0  0  0  0  0  0  0  0  0  0  0  0
   10.7542  -18.5499   22.8781 N   0  0  0  0  0  0  0  0  0  0  0  0
   11.0699  -19.3919   21.8824 C   0  0  0  0  0  0  0  0  0  0  0  0
   12.2982  -19.0709   21.4085 N   0  0  0  0  0  0  0  0  0  0  0  0
   15.0630  -15.0559   22.3033 C   0  0  0  0  0  0  0  0  0  0  0  0
   15.8857  -15.2591   23.3773 O   0  0  0  0  0  0  0  0  0  0  0  0
   15.4021  -14.1338   21.4873 O   0  0  0  0  0  0  0  0  0  0  0  0
  2  1  1  6
  2  4  1  0
  3  2  1  0
  4  5  2  0
  6  4  1  0
  6  7  1  0
  7 14  1  0
  7  8  1  1
  9  8  1  0
 10  9  2  0
 11 12  1  0
 11 10  1  0
 12 13  2  0
 13  9  1  0
 14 15  2  0
 16 17  1  0
 16 14  1  0
 17 24  1  0
 18 19  1  0
 17 18  1  6
 19 23  1  0
 20 21  1  0
 20 19  2  0
 21 22  1  0
 22 23  2  0
 24 26  2  0
 24 25  1  0
M  END
$$$$
