AHH.pdb
     RDKit          3D

 26 27  0  0  1  0  0  0  0  0999 V2000
    8.6892  -12.0590   19.9310 C   0  0  0  0  0  0  0  0  0  0  0  0
    8.6637  -13.3215   19.0951 C   0  0  2  0  0  0  0  0  0  0  0  0
    7.5056  -13.2711   18.2615 N   0  0  0  0  0  0  0  0  0  0  0  0
    8.7068  -14.4756   20.0099 C   0  0  0  0  0  0  0  0  0  0  0  0
    7.6090  -14.8936   20.4621 O   0  0  0  0  0  0  0  0  0  0  0  0
    9.8972  -15.1205   20.3944 N   0  0  0  0  0  0  0  0  0  0  0  0
    9.9576  -16.2012   21.3698 C   0  0  1  0  0  0  0  0  0  0  0  0
   10.9876  -17.2140   21.0190 C   0  0  0  0  0  0  0  0  0  0  0  0
   10.6556  -17.9047   19.7516 C   0  0  0  0  0  0  0  0  0  0  0  0
    9.5886  -17.6369   18.9219 C   0  0  0  0  0  0  0  0  0  0  0  0
    9.6177  -18.4569   17.8851 N   0  0  0  0  0  0  0  0  0  0  0  0
   10.6855  -19.2570   18.0217 C   0  0  0  0  0  0  0  0  0  0  0  0
   11.3143  -18.9188   19.1573 N   0  0  0  0  0  0  0  0  0  0  0  0
   10.1164  -15.6776   22.7396 C   0  0  0  0  0  0  0  0  0  0  0  0
   10.0862  -14.4596   22.9827 O   0  0  0  0  0  0  0  0  0  0  0  0
   10.3142  -16.5411   23.8672 N   0  0  0  0  0  0  0  0  0  0  0  0
    9.4681  -16.4177   25.0562 C   0  0  1  0  0  0  0  0  0  0  0  0
    8.0212  -16.5054   24.6985 C   0  0  0  0  0  0  0  0  0  0  0  0
    7.3617  -15.2094   24.9181 C   0  0  0  0  0  0  0  0  0  0  0  0
    8.0229  -14.0565   25.3537 C   0  0  0  0  0  0  0  0  0  0  0  0
    7.1367  -13.0542   25.4512 N   0  0  0  0  0  0  0  0  0  0  0  0
    5.9415  -13.5450   25.0898 C   0  0  0  0  0  0  0  0  0  0  0  0
    6.0832  -14.8535   24.7672 N   0  0  0  0  0  0  0  0  0  0  0  0
    9.8900  -17.3816   26.0968 C   0  0  0  0  0  0  0  0  0  0  0  0
    9.9302  -18.7357   25.9060 O   0  0  0  0  0  0  0  0  0  0  0  0
   10.2412  -16.9538   27.2479 O   0  0  0  0  0  0  0  0  0  0  0  0
  2  1  1  1
  2  4  1  0
  3  2  1  0
  4  5  2  0
  6  4  1  0
  6  7  1  0
  7 14  1  0
  7  8  1  6
  9  8  1  0
 10  9  2  0
 11 12  1  0
 11 10  1  0
 12 13  2  0
 13  9  1  0
 14 15  2  0
 16 17  1  0
 16 14  1  0
 17 24  1  0
 18 19  1  0
 17 18  1  6
 19 23  1  0
 20 21  1  0
 20 19  2  0
 21 22  1  0
 22 23  2  0
 24 26  2  0
 24 25  1  0
M  END
$$$$
