AHH.pdb
     RDKit          3D

 26 27  0  0  1  0  0  0  0  0999 V2000
    9.8203  -18.6380   18.5852 C   0  0  0  0  0  0  0  0  0  0  0  0
    9.3789  -18.7622   20.0285 C   0  0  2  0  0  0  0  0  0  0  0  0
    8.1655  -19.5144   20.0519 N   0  0  0  0  0  0  0  0  0  0  0  0
    9.2657  -17.4046   20.5896 C   0  0  0  0  0  0  0  0  0  0  0  0
   10.3344  -16.8260   20.9175 O   0  0  0  0  0  0  0  0  0  0  0  0
    8.0403  -16.7372   20.7726 N   0  0  0  0  0  0  0  0  0  0  0  0
    7.9164  -15.4154   21.3730 C   0  0  1  0  0  0  0  0  0  0  0  0
    6.9121  -14.5742   20.6705 C   0  0  0  0  0  0  0  0  0  0  0  0
    7.4145  -14.1211   19.3530 C   0  0  0  0  0  0  0  0  0  0  0  0
    8.6826  -14.3053   18.8465 C   0  0  0  0  0  0  0  0  0  0  0  0
    8.7611  -13.7642   17.6427 N   0  0  0  0  0  0  0  0  0  0  0  0
    7.5662  -13.2288   17.3522 C   0  0  0  0  0  0  0  0  0  0  0  0
    6.7498  -13.4474   18.3939 N   0  0  0  0  0  0  0  0  0  0  0  0
    7.6677  -15.5078   22.8239 C   0  0  0  0  0  0  0  0  0  0  0  0
    6.5235  -15.4164   23.2993 O   0  0  0  0  0  0  0  0  0  0  0  0
    8.7287  -15.7078   23.7676 N   0  0  0  0  0  0  0  0  0  0  0  0
    8.5136  -16.5186   24.9681 C   0  0  1  0  0  0  0  0  0  0  0  0
    7.9327  -17.8496   24.6215 C   0  0  0  0  0  0  0  0  0  0  0  0
    7.8572  -18.7007   25.8184 C   0  0  0  0  0  0  0  0  0  0  0  0
    8.1981  -18.2753   27.1064 C   0  0  0  0  0  0  0  0  0  0  0  0
    8.0167  -19.2900   27.9648 N   0  0  0  0  0  0  0  0  0  0  0  0
    7.5727  -20.3371   27.2530 C   0  0  0  0  0  0  0  0  0  0  0  0
    7.4776  -19.9744   25.9508 N   0  0  0  0  0  0  0  0  0  0  0  0
    9.7529  -16.5944   25.7732 C   0  0  0  0  0  0  0  0  0  0  0  0
    9.7790  -16.9437   27.0956 O   0  0  0  0  0  0  0  0  0  0  0  0
   10.8762  -16.3229   25.2293 O   0  0  0  0  0  0  0  0  0  0  0  0
  2  1  1  6
  2  4  1  0
  3  2  1  0
  4  5  2  0
  6  4  1  0
  6  7  1  0
  7 14  1  0
  7  8  1  6
  9  8  1  0
 10  9  2  0
 11 12  1  0
 11 10  1  0
 12 13  2  0
 13  9  1  0
 14 15  2  0
 16 17  1  0
 16 14  1  0
 17 24  1  0
 18 19  1  0
 17 18  1  6
 19 23  1  0
 20 21  1  0
 20 19  2  0
 21 22  1  0
 22 23  2  0
 24 26  2  0
 24 25  1  0
M  END
$$$$
