AHH.pdb
     RDKit          3D

 26 27  0  0  1  0  0  0  0  0999 V2000
    7.5315  -12.9502   19.2341 C   0  0  0  0  0  0  0  0  0  0  0  0
    8.9450  -13.3338   19.6190 C   0  0  2  0  0  0  0  0  0  0  0  0
    9.5980  -13.8287   18.4498 N   0  0  0  0  0  0  0  0  0  0  0  0
    8.8696  -14.2987   20.7300 C   0  0  0  0  0  0  0  0  0  0  0  0
    8.2703  -13.9298   21.7736 O   0  0  0  0  0  0  0  0  0  0  0  0
    9.4265  -15.5901   20.6790 N   0  0  0  0  0  0  0  0  0  0  0  0
    9.4478  -16.5113   21.8077 C   0  0  1  0  0  0  0  0  0  0  0  0
    9.5030  -17.9308   21.3698 C   0  0  0  0  0  0  0  0  0  0  0  0
    9.8686  -18.0403   19.9388 C   0  0  0  0  0  0  0  0  0  0  0  0
   10.2459  -17.0116   19.1033 C   0  0  0  0  0  0  0  0  0  0  0  0
   10.4960  -17.4907   17.8967 N   0  0  0  0  0  0  0  0  0  0  0  0
   10.2891  -18.8155   17.9278 C   0  0  0  0  0  0  0  0  0  0  0  0
    9.9078  -19.1465   19.1705 N   0  0  0  0  0  0  0  0  0  0  0  0
   10.5201  -16.1664   22.7600 C   0  0  0  0  0  0  0  0  0  0  0  0
   11.2562  -15.1804   22.5883 O   0  0  0  0  0  0  0  0  0  0  0  0
   10.7748  -16.9466   23.9359 N   0  0  0  0  0  0  0  0  0  0  0  0
   10.8068  -16.3135   25.2561 C   0  0  1  0  0  0  0  0  0  0  0  0
    9.5410  -15.5695   25.5270 C   0  0  0  0  0  0  0  0  0  0  0  0
    9.5854  -14.9563   26.8630 C   0  0  0  0  0  0  0  0  0  0  0  0
   10.6916  -15.0151   27.7168 C   0  0  0  0  0  0  0  0  0  0  0  0
   10.4044  -14.3587   28.8509 N   0  0  0  0  0  0  0  0  0  0  0  0
    9.1524  -13.8913   28.7324 C   0  0  0  0  0  0  0  0  0  0  0  0
    8.6596  -14.2566   27.5241 N   0  0  0  0  0  0  0  0  0  0  0  0
   11.1577  -17.3032   26.2988 C   0  0  0  0  0  0  0  0  0  0  0  0
   12.1512  -17.1152   27.2204 O   0  0  0  0  0  0  0  0  0  0  0  0
   10.5142  -18.4044   26.3656 O   0  0  0  0  0  0  0  0  0  0  0  0
  2  1  1  6
  2  4  1  0
  3  2  1  0
  4  5  2  0
  6  4  1  0
  6  7  1  0
  7 14  1  0
  7  8  1  6
  9  8  1  0
 10  9  2  0
 11 12  1  0
 11 10  1  0
 12 13  2  0
 13  9  1  0
 14 15  2  0
 16 17  1  0
 16 14  1  0
 17 24  1  0
 18 19  1  0
 17 18  1  1
 19 23  1  0
 20 21  1  0
 20 19  2  0
 21 22  1  0
 22 23  2  0
 24 26  2  0
 24 25  1  0
M  END
$$$$
