AHH.pdb
     RDKit          3D

 26 27  0  0  1  0  0  0  0  0999 V2000
   12.6610  -16.8083   15.9995 C   0  0  0  0  0  0  0  0  0  0  0  0
   12.9501  -15.3465   16.2693 C   0  0  2  0  0  0  0  0  0  0  0  0
   14.2314  -15.0444   15.7167 N   0  0  0  0  0  0  0  0  0  0  0  0
   12.8435  -15.1204   17.7213 C   0  0  0  0  0  0  0  0  0  0  0  0
   13.9068  -15.1770   18.3926 O   0  0  0  0  0  0  0  0  0  0  0  0
   11.6299  -14.8491   18.3802 N   0  0  0  0  0  0  0  0  0  0  0  0
   11.5341  -14.4708   19.7840 C   0  0  1  0  0  0  0  0  0  0  0  0
   10.7397  -13.2290   19.9754 C   0  0  0  0  0  0  0  0  0  0  0  0
    9.3558  -13.3909   19.4732 C   0  0  0  0  0  0  0  0  0  0  0  0
    8.8406  -14.4862   18.8149 C   0  0  0  0  0  0  0  0  0  0  0  0
    7.5702  -14.2682   18.5206 N   0  0  0  0  0  0  0  0  0  0  0  0
    7.2447  -13.0490   18.9750 C   0  0  0  0  0  0  0  0  0  0  0  0
    8.3323  -12.5182   19.5535 N   0  0  0  0  0  0  0  0  0  0  0  0
   11.0462  -15.5923   20.6085 C   0  0  0  0  0  0  0  0  0  0  0  0
   10.3369  -16.4946   20.1329 O   0  0  0  0  0  0  0  0  0  0  0  0
   11.3610  -15.7063   22.0029 N   0  0  0  0  0  0  0  0  0  0  0  0
   11.7026  -17.0063   22.5845 C   0  0  1  0  0  0  0  0  0  0  0  0
   12.7499  -17.6988   21.7765 C   0  0  0  0  0  0  0  0  0  0  0  0
   12.9990  -19.0460   22.3112 C   0  0  0  0  0  0  0  0  0  0  0  0
   12.0339  -19.8239   22.9588 C   0  0  0  0  0  0  0  0  0  0  0  0
   12.5842  -20.9925   23.3205 N   0  0  0  0  0  0  0  0  0  0  0  0
   13.8641  -20.9693   22.9187 C   0  0  0  0  0  0  0  0  0  0  0  0
   14.1111  -19.7857   22.3067 N   0  0  0  0  0  0  0  0  0  0  0  0
   12.0461  -16.8609   24.0166 C   0  0  0  0  0  0  0  0  0  0  0  0
   11.4943  -17.6218   25.0107 O   0  0  0  0  0  0  0  0  0  0  0  0
   12.9023  -15.9832   24.3741 O   0  0  0  0  0  0  0  0  0  0  0  0
  2  1  1  1
  2  4  1  0
  3  2  1  0
  4  5  2  0
  6  4  1  0
  6  7  1  0
  7 14  1  0
  7  8  1  6
  9  8  1  0
 10  9  2  0
 11 12  1  0
 11 10  1  0
 12 13  2  0
 13  9  1  0
 14 15  2  0
 16 17  1  0
 16 14  1  0
 17 24  1  0
 18 19  1  0
 17 18  1  6
 19 23  1  0
 20 21  1  0
 20 19  2  0
 21 22  1  0
 22 23  2  0
 24 26  2  0
 24 25  1  0
M  END
$$$$
