AHH.pdb
     RDKit          3D

 26 27  0  0  1  0  0  0  0  0999 V2000
   14.1485  -26.0269   26.7038 C   0  0  0  0  0  0  0  0  0  0  0  0
   13.8096  -25.2196   25.4682 C   0  0  2  0  0  0  0  0  0  0  0  0
   14.9287  -25.2821   24.5839 N   0  0  0  0  0  0  0  0  0  0  0  0
   13.4473  -23.8577   25.8980 C   0  0  0  0  0  0  0  0  0  0  0  0
   14.3858  -23.0326   26.0490 O   0  0  0  0  0  0  0  0  0  0  0  0
   12.1246  -23.4443   26.1430 N   0  0  0  0  0  0  0  0  0  0  0  0
   11.7605  -22.1051   26.5869 C   0  0  1  0  0  0  0  0  0  0  0  0
   10.8196  -21.4411   25.6469 C   0  0  0  0  0  0  0  0  0  0  0  0
   11.4269  -21.2694   24.3070 C   0  0  0  0  0  0  0  0  0  0  0  0
   12.2731  -20.2574   23.9090 C   0  0  0  0  0  0  0  0  0  0  0  0
   12.6110  -20.4354   22.6432 N   0  0  0  0  0  0  0  0  0  0  0  0
   12.0006  -21.5465   22.2055 C   0  0  0  0  0  0  0  0  0  0  0  0
   11.2816  -22.0512   23.2193 N   0  0  0  0  0  0  0  0  0  0  0  0
   11.2642  -22.1180   27.9758 C   0  0  0  0  0  0  0  0  0  0  0  0
   10.7113  -23.1175   28.4644 O   0  0  0  0  0  0  0  0  0  0  0  0
   11.3906  -20.9812   28.8407 N   0  0  0  0  0  0  0  0  0  0  0  0
   11.0767  -21.0929   30.2668 C   0  0  1  0  0  0  0  0  0  0  0  0
   11.8321  -22.2157   30.8978 C   0  0  0  0  0  0  0  0  0  0  0  0
   11.1289  -23.4890   30.6811 C   0  0  0  0  0  0  0  0  0  0  0  0
    9.7696  -23.5913   30.3685 C   0  0  0  0  0  0  0  0  0  0  0  0
    9.4470  -24.8867   30.2370 N   0  0  0  0  0  0  0  0  0  0  0  0
   10.5632  -25.5977   30.4579 C   0  0  0  0  0  0  0  0  0  0  0  0
   11.5813  -24.7449   30.7270 N   0  0  0  0  0  0  0  0  0  0  0  0
   11.2603  -19.7895   30.9431 C   0  0  0  0  0  0  0  0  0  0  0  0
   11.6572  -18.6494   30.2995 O   0  0  0  0  0  0  0  0  0  0  0  0
   11.0440  -19.6939   32.1983 O   0  0  0  0  0  0  0  0  0  0  0  0
  2  1  1  1
  2  4  1  0
  3  2  1  0
  4  5  2  0
  6  4  1  0
  6  7  1  0
  7 14  1  0
  7  8  1  6
  9  8  1  0
 10  9  2  0
 11 12  1  0
 11 10  1  0
 12 13  2  0
 13  9  1  0
 14 15  2  0
 16 17  1  0
 16 14  1  0
 17 24  1  0
 18 19  1  0
 17 18  1  1
 19 23  1  0
 20 21  1  0
 20 19  2  0
 21 22  1  0
 22 23  2  0
 24 26  2  0
 24 25  1  0
M  END
$$$$
