AHH.pdb
     RDKit          3D

 26 27  0  0  1  0  0  0  0  0999 V2000
   10.8870  -19.4239   17.9951 C   0  0  0  0  0  0  0  0  0  0  0  0
   10.2863  -18.4740   16.9802 C   0  0  2  0  0  0  0  0  0  0  0  0
   10.7247  -18.8833   15.6845 N   0  0  0  0  0  0  0  0  0  0  0  0
   10.6770  -17.1027   17.3512 C   0  0  0  0  0  0  0  0  0  0  0  0
   11.8900  -16.7937   17.2189 O   0  0  0  0  0  0  0  0  0  0  0  0
    9.7730  -16.1401   17.8378 N   0  0  0  0  0  0  0  0  0  0  0  0
   10.1525  -14.7833   18.2094 C   0  0  1  0  0  0  0  0  0  0  0  0
    9.1156  -13.7886   17.8283 C   0  0  0  0  0  0  0  0  0  0  0  0
    8.7726  -13.8903   16.3911 C   0  0  0  0  0  0  0  0  0  0  0  0
    9.3474  -14.7321   15.4640 C   0  0  0  0  0  0  0  0  0  0  0  0
    8.7838  -14.5407   14.2834 N   0  0  0  0  0  0  0  0  0  0  0  0
    7.8498  -13.5882   14.4215 C   0  0  0  0  0  0  0  0  0  0  0  0
    7.8454  -13.1948   15.7040 N   0  0  0  0  0  0  0  0  0  0  0  0
   10.5233  -14.7024   19.6347 C   0  0  0  0  0  0  0  0  0  0  0  0
   10.9953  -13.6658   20.1308 O   0  0  0  0  0  0  0  0  0  0  0  0
   10.3612  -15.8122   20.5284 N   0  0  0  0  0  0  0  0  0  0  0  0
   10.8273  -15.7257   21.9140 C   0  0  1  0  0  0  0  0  0  0  0  0
    9.7062  -15.9508   22.8740 C   0  0  0  0  0  0  0  0  0  0  0  0
    8.5965  -15.0291   22.5879 C   0  0  0  0  0  0  0  0  0  0  0  0
    7.2820  -15.4369   22.3398 C   0  0  0  0  0  0  0  0  0  0  0  0
    6.5225  -14.3540   22.1166 N   0  0  0  0  0  0  0  0  0  0  0  0
    7.3220  -13.2813   22.2174 C   0  0  0  0  0  0  0  0  0  0  0  0
    8.5799  -13.6962   22.5036 N   0  0  0  0  0  0  0  0  0  0  0  0
   11.9902  -16.6157   22.1278 C   0  0  0  0  0  0  0  0  0  0  0  0
   12.5419  -17.3929   21.1465 O   0  0  0  0  0  0  0  0  0  0  0  0
   12.5292  -16.6829   23.2838 O   0  0  0  0  0  0  0  0  0  0  0  0
  2  1  1  1
  2  4  1  0
  3  2  1  0
  4  5  2  0
  6  4  1  0
  6  7  1  0
  7 14  1  0
  7  8  1  1
  9  8  1  0
 10  9  2  0
 11 12  1  0
 11 10  1  0
 12 13  2  0
 13  9  1  0
 14 15  2  0
 16 17  1  0
 16 14  1  0
 17 24  1  0
 18 19  1  0
 17 18  1  1
 19 23  1  0
 20 21  1  0
 20 19  2  0
 21 22  1  0
 22 23  2  0
 24 26  2  0
 24 25  1  0
M  END
$$$$
