AHH.pdb
     RDKit          3D

 26 27  0  0  1  0  0  0  0  0999 V2000
   13.8514  -17.0948   17.4334 C   0  0  0  0  0  0  0  0  0  0  0  0
   12.3778  -16.7470   17.4052 C   0  0  2  0  0  0  0  0  0  0  0  0
   12.1322  -15.9771   16.2281 N   0  0  0  0  0  0  0  0  0  0  0  0
   12.0473  -16.0576   18.6647 C   0  0  0  0  0  0  0  0  0  0  0  0
   12.7687  -15.0797   18.9925 O   0  0  0  0  0  0  0  0  0  0  0  0
   10.9816  -16.4352   19.5027 N   0  0  0  0  0  0  0  0  0  0  0  0
   10.6620  -15.7721   20.7601 C   0  0  1  0  0  0  0  0  0  0  0  0
    9.1985  -15.5760   20.9326 C   0  0  0  0  0  0  0  0  0  0  0  0
    8.6598  -14.6260   19.9321 C   0  0  0  0  0  0  0  0  0  0  0  0
    7.9691  -14.9430   18.7827 C   0  0  0  0  0  0  0  0  0  0  0  0
    7.6481  -13.8334   18.1394 N   0  0  0  0  0  0  0  0  0  0  0  0
    8.1167  -12.7954   18.8477 C   0  0  0  0  0  0  0  0  0  0  0  0
    8.7312  -13.2805   19.9370 N   0  0  0  0  0  0  0  0  0  0  0  0
   11.2828  -16.4659   21.9041 C   0  0  0  0  0  0  0  0  0  0  0  0
   11.2734  -17.7043   22.0024 O   0  0  0  0  0  0  0  0  0  0  0  0
   11.9315  -15.7538   22.9664 N   0  0  0  0  0  0  0  0  0  0  0  0
   12.5810  -16.4793   24.0602 C   0  0  1  0  0  0  0  0  0  0  0  0
   13.7547  -15.7213   24.5866 C   0  0  0  0  0  0  0  0  0  0  0  0
   14.8254  -15.6747   23.5795 C   0  0  0  0  0  0  0  0  0  0  0  0
   14.8608  -16.4767   22.4343 C   0  0  0  0  0  0  0  0  0  0  0  0
   15.9653  -16.1864   21.7306 N   0  0  0  0  0  0  0  0  0  0  0  0
   16.6217  -15.2271   22.4007 C   0  0  0  0  0  0  0  0  0  0  0  0
   15.9259  -14.9199   23.5222 N   0  0  0  0  0  0  0  0  0  0  0  0
   11.5921  -16.8521   25.0961 C   0  0  0  0  0  0  0  0  0  0  0  0
   11.8868  -17.6302   26.1821 O   0  0  0  0  0  0  0  0  0  0  0  0
   10.3876  -16.4391   24.9963 O   0  0  0  0  0  0  0  0  0  0  0  0
  2  1  1  1
  2  4  1  0
  3  2  1  0
  4  5  2  0
  6  4  1  0
  6  7  1  0
  7 14  1  0
  7  8  1  1
  9  8  1  0
 10  9  2  0
 11 12  1  0
 11 10  1  0
 12 13  2  0
 13  9  1  0
 14 15  2  0
 16 17  1  0
 16 14  1  0
 17 24  1  0
 18 19  1  0
 17 18  1  1
 19 23  1  0
 20 21  1  0
 20 19  2  0
 21 22  1  0
 22 23  2  0
 24 26  2  0
 24 25  1  0
M  END
$$$$
