AHH.pdb
     RDKit          3D

 26 27  0  0  1  0  0  0  0  0999 V2000
   10.0228  -19.1732   16.8358 C   0  0  0  0  0  0  0  0  0  0  0  0
   10.1151  -17.6621   16.8036 C   0  0  2  0  0  0  0  0  0  0  0  0
   11.1964  -17.3078   15.9412 N   0  0  0  0  0  0  0  0  0  0  0  0
   10.2587  -17.1839   18.1898 C   0  0  0  0  0  0  0  0  0  0  0  0
   11.4286  -17.0518   18.6352 O   0  0  0  0  0  0  0  0  0  0  0  0
    9.1682  -16.8735   19.0235 N   0  0  0  0  0  0  0  0  0  0  0  0
    9.3028  -16.3580   20.3797 C   0  0  1  0  0  0  0  0  0  0  0  0
    8.1659  -15.4785   20.7588 C   0  0  0  0  0  0  0  0  0  0  0  0
    7.9930  -14.3722   19.7894 C   0  0  0  0  0  0  0  0  0  0  0  0
    8.4971  -13.0944   19.8982 C   0  0  0  0  0  0  0  0  0  0  0  0
    8.1369  -12.3853   18.8420 N   0  0  0  0  0  0  0  0  0  0  0  0
    7.4056  -13.1768   18.0434 C   0  0  0  0  0  0  0  0  0  0  0  0
    7.3200  -14.3840   18.6222 N   0  0  0  0  0  0  0  0  0  0  0  0
    9.5269  -17.4486   21.3471 C   0  0  0  0  0  0  0  0  0  0  0  0
    9.1908  -18.6196   21.1033 O   0  0  0  0  0  0  0  0  0  0  0  0
   10.1438  -17.2219   22.6216 N   0  0  0  0  0  0  0  0  0  0  0  0
   11.2038  -18.1101   23.1035 C   0  0  1  0  0  0  0  0  0  0  0  0
   12.2709  -18.2828   22.0736 C   0  0  0  0  0  0  0  0  0  0  0  0
   13.2868  -19.2354   22.5461 C   0  0  0  0  0  0  0  0  0  0  0  0
   13.3989  -20.5530   22.0907 C   0  0  0  0  0  0  0  0  0  0  0  0
   14.4232  -21.1480   22.7201 N   0  0  0  0  0  0  0  0  0  0  0  0
   14.9552  -20.2427   23.5554 C   0  0  0  0  0  0  0  0  0  0  0  0
   14.2620  -19.0835   23.4461 N   0  0  0  0  0  0  0  0  0  0  0  0
   11.7057  -17.6546   24.4190 C   0  0  0  0  0  0  0  0  0  0  0  0
   11.2183  -16.5606   25.0802 O   0  0  0  0  0  0  0  0  0  0  0  0
   12.6470  -18.2994   24.9930 O   0  0  0  0  0  0  0  0  0  0  0  0
  2  1  1  1
  2  4  1  0
  3  2  1  0
  4  5  2  0
  6  4  1  0
  6  7  1  0
  7 14  1  0
  7  8  1  1
  9  8  1  0
 10  9  2  0
 11 12  1  0
 11 10  1  0
 12 13  2  0
 13  9  1  0
 14 15  2  0
 16 17  1  0
 16 14  1  0
 17 24  1  0
 18 19  1  0
 17 18  1  6
 19 23  1  0
 20 21  1  0
 20 19  2  0
 21 22  1  0
 22 23  2  0
 24 26  2  0
 24 25  1  0
M  END
$$$$
