AHH.pdb
     RDKit          3D

 26 27  0  0  1  0  0  0  0  0999 V2000
    8.6415  -12.1643   20.5572 C   0  0  0  0  0  0  0  0  0  0  0  0
    8.4577  -13.3545   19.6391 C   0  0  2  0  0  0  0  0  0  0  0  0
    7.1749  -13.2382   19.0231 N   0  0  0  0  0  0  0  0  0  0  0  0
    8.6421  -14.5793   20.4370 C   0  0  0  0  0  0  0  0  0  0  0  0
    7.6199  -15.0701   20.9834 O   0  0  0  0  0  0  0  0  0  0  0  0
    9.8858  -15.2140   20.6132 N   0  0  0  0  0  0  0  0  0  0  0  0
   10.0943  -16.3673   21.4790 C   0  0  1  0  0  0  0  0  0  0  0  0
   10.8553  -17.4474   20.7978 C   0  0  0  0  0  0  0  0  0  0  0  0
   10.0363  -18.1111   19.7575 C   0  0  0  0  0  0  0  0  0  0  0  0
    8.6910  -17.9250   19.5242 C   0  0  0  0  0  0  0  0  0  0  0  0
    8.3075  -18.6878   18.5147 N   0  0  0  0  0  0  0  0  0  0  0  0
    9.3784  -19.3701   18.0829 C   0  0  0  0  0  0  0  0  0  0  0  0
   10.4277  -19.0173   18.8404 N   0  0  0  0  0  0  0  0  0  0  0  0
   10.6970  -15.9692   22.7650 C   0  0  0  0  0  0  0  0  0  0  0  0
   11.1938  -14.8432   22.9346 O   0  0  0  0  0  0  0  0  0  0  0  0
   10.7447  -16.8558   23.8911 N   0  0  0  0  0  0  0  0  0  0  0  0
   10.7353  -16.3256   25.2562 C   0  0  1  0  0  0  0  0  0  0  0  0
    9.5687  -15.4195   25.4737 C   0  0  0  0  0  0  0  0  0  0  0  0
    9.5683  -14.9103   26.8534 C   0  0  0  0  0  0  0  0  0  0  0  0
   10.5578  -15.2022   27.7976 C   0  0  0  0  0  0  0  0  0  0  0  0
   10.2592  -14.5838   28.9500 N   0  0  0  0  0  0  0  0  0  0  0  0
    9.1130  -13.9141   28.7552 C   0  0  0  0  0  0  0  0  0  0  0  0
    8.6977  -14.1154   27.4811 N   0  0  0  0  0  0  0  0  0  0  0  0
   10.8348  -17.4251   26.2416 C   0  0  0  0  0  0  0  0  0  0  0  0
   11.6146  -17.3702   27.3643 O   0  0  0  0  0  0  0  0  0  0  0  0
   10.1667  -18.4983   26.0591 O   0  0  0  0  0  0  0  0  0  0  0  0
  2  1  1  1
  2  4  1  0
  3  2  1  0
  4  5  2  0
  6  4  1  0
  6  7  1  0
  7 14  1  0
  7  8  1  6
  9  8  1  0
 10  9  2  0
 11 12  1  0
 11 10  1  0
 12 13  2  0
 13  9  1  0
 14 15  2  0
 16 17  1  0
 16 14  1  0
 17 24  1  0
 18 19  1  0
 17 18  1  1
 19 23  1  0
 20 21  1  0
 20 19  2  0
 21 22  1  0
 22 23  2  0
 24 26  2  0
 24 25  1  0
M  END
$$$$
