AHH.pdb
     RDKit          3D

 26 27  0  0  1  0  0  0  0  0999 V2000
    8.4028  -11.8569   19.1988 C   0  0  0  0  0  0  0  0  0  0  0  0
    8.8896  -12.9469   18.2670 C   0  0  2  0  0  0  0  0  0  0  0  0
    7.8030  -13.3132   17.4164 N   0  0  0  0  0  0  0  0  0  0  0  0
    9.4178  -14.0488   19.0902 C   0  0  0  0  0  0  0  0  0  0  0  0
    8.6445  -15.0136   19.3259 O   0  0  0  0  0  0  0  0  0  0  0  0
   10.7232  -14.0719   19.6155 N   0  0  0  0  0  0  0  0  0  0  0  0
   11.2638  -15.1734   20.4014 C   0  0  1  0  0  0  0  0  0  0  0  0
   12.7133  -15.3831   20.1468 C   0  0  0  0  0  0  0  0  0  0  0  0
   12.9549  -15.8643   18.7671 C   0  0  0  0  0  0  0  0  0  0  0  0
   13.6050  -15.1857   17.7593 C   0  0  0  0  0  0  0  0  0  0  0  0
   13.6283  -15.9311   16.6676 N   0  0  0  0  0  0  0  0  0  0  0  0
   13.0045  -17.0861   16.9431 C   0  0  0  0  0  0  0  0  0  0  0  0
   12.5963  -17.0423   18.2202 N   0  0  0  0  0  0  0  0  0  0  0  0
   10.9544  -15.0109   21.8343 C   0  0  0  0  0  0  0  0  0  0  0  0
   11.6859  -14.3513   22.5915 O   0  0  0  0  0  0  0  0  0  0  0  0
    9.7949  -15.6030   22.4354 N   0  0  0  0  0  0  0  0  0  0  0  0
    9.2842  -15.1057   23.7147 C   0  0  1  0  0  0  0  0  0  0  0  0
    7.8028  -14.9253   23.6692 C   0  0  0  0  0  0  0  0  0  0  0  0
    7.3205  -14.3440   24.9311 C   0  0  0  0  0  0  0  0  0  0  0  0
    8.1569  -13.8623   25.9432 C   0  0  0  0  0  0  0  0  0  0  0  0
    7.4025  -13.4021   26.9524 N   0  0  0  0  0  0  0  0  0  0  0  0
    6.1198  -13.5813   26.6024 C   0  0  0  0  0  0  0  0  0  0  0  0
    6.0752  -14.1533   25.3747 N   0  0  0  0  0  0  0  0  0  0  0  0
    9.7521  -15.9601   24.8287 C   0  0  0  0  0  0  0  0  0  0  0  0
    9.9630  -15.5016   26.1003 O   0  0  0  0  0  0  0  0  0  0  0  0
    9.9809  -17.1992   24.6204 O   0  0  0  0  0  0  0  0  0  0  0  0
  2  1  1  1
  2  4  1  0
  3  2  1  0
  4  5  2  0
  6  4  1  0
  6  7  1  0
  7 14  1  0
  7  8  1  1
  9  8  1  0
 10  9  2  0
 11 12  1  0
 11 10  1  0
 12 13  2  0
 13  9  1  0
 14 15  2  0
 16 17  1  0
 16 14  1  0
 17 24  1  0
 18 19  1  0
 17 18  1  6
 19 23  1  0
 20 21  1  0
 20 19  2  0
 21 22  1  0
 22 23  2  0
 24 26  2  0
 24 25  1  0
M  END
$$$$
