AHH.pdb
     RDKit          3D

 26 27  0  0  1  0  0  0  0  0999 V2000
    5.4488  -17.6028   22.0646 C   0  0  0  0  0  0  0  0  0  0  0  0
    5.8341  -16.8542   20.8059 C   0  0  2  0  0  0  0  0  0  0  0  0
    5.2773  -17.5536   19.6927 N   0  0  0  0  0  0  0  0  0  0  0  0
    7.3023  -16.7336   20.7779 C   0  0  0  0  0  0  0  0  0  0  0  0
    7.9702  -17.7605   21.0672 O   0  0  0  0  0  0  0  0  0  0  0  0
    7.9799  -15.5449   20.4486 N   0  0  0  0  0  0  0  0  0  0  0  0
    9.4304  -15.4070   20.4573 C   0  0  1  0  0  0  0  0  0  0  0  0
    9.9132  -14.5099   19.3748 C   0  0  0  0  0  0  0  0  0  0  0  0
    8.9839  -14.5073   18.2215 C   0  0  0  0  0  0  0  0  0  0  0  0
    7.8278  -15.2458   18.0927 C   0  0  0  0  0  0  0  0  0  0  0  0
    7.2616  -14.9817   16.9274 N   0  0  0  0  0  0  0  0  0  0  0  0
    8.0272  -14.0830   16.2910 C   0  0  0  0  0  0  0  0  0  0  0  0
    9.0734  -13.7967   17.0802 N   0  0  0  0  0  0  0  0  0  0  0  0
    9.9223  -15.0086   21.7895 C   0  0  0  0  0  0  0  0  0  0  0  0
    9.4370  -14.0449   22.4054 O   0  0  0  0  0  0  0  0  0  0  0  0
   10.9859  -15.7081   22.4496 N   0  0  0  0  0  0  0  0  0  0  0  0
   10.7909  -16.2646   23.7902 C   0  0  1  0  0  0  0  0  0  0  0  0
    9.5372  -17.0723   23.8604 C   0  0  0  0  0  0  0  0  0  0  0  0
    8.4874  -16.3246   24.5688 C   0  0  0  0  0  0  0  0  0  0  0  0
    8.5955  -14.9802   24.9388 C   0  0  0  0  0  0  0  0  0  0  0  0
    7.4695  -14.6067   25.5650 N   0  0  0  0  0  0  0  0  0  0  0  0
    6.6605  -15.6765   25.5979 C   0  0  0  0  0  0  0  0  0  0  0  0
    7.2828  -16.7167   24.9920 N   0  0  0  0  0  0  0  0  0  0  0  0
   12.0011  -16.9928   24.2319 C   0  0  0  0  0  0  0  0  0  0  0  0
   12.8208  -16.5625   25.2391 O   0  0  0  0  0  0  0  0  0  0  0  0
   12.3235  -18.0873   23.6579 O   0  0  0  0  0  0  0  0  0  0  0  0
  2  1  1  1
  2  4  1  0
  3  2  1  0
  4  5  2  0
  6  4  1  0
  6  7  1  0
  7 14  1  0
  7  8  1  6
  9  8  1  0
 10  9  2  0
 11 12  1  0
 11 10  1  0
 12 13  2  0
 13  9  1  0
 14 15  2  0
 16 17  1  0
 16 14  1  0
 17 24  1  0
 18 19  1  0
 17 18  1  6
 19 23  1  0
 20 21  1  0
 20 19  2  0
 21 22  1  0
 22 23  2  0
 24 26  2  0
 24 25  1  0
M  END
$$$$
