GWI.pdb
     RDKit          3D

 27 28  0  0  1  0  0  0  0  0999 V2000
   12.1689  -16.3901   19.3086 N   0  0  0  0  0  0  0  0  0  0  0  0
   11.4056  -17.2613   20.1708 C   0  0  0  0  0  0  0  0  0  0  0  0
   10.8688  -16.4798   21.3561 C   0  0  0  0  0  0  0  0  0  0  0  0
   11.5179  -15.4878   21.7248 O   0  0  0  0  0  0  0  0  0  0  0  0
    9.6811  -16.8914   21.9860 N   0  0  0  0  0  0  0  0  0  0  0  0
    9.0276  -16.3305   23.1130 C   0  0  1  0  0  0  0  0  0  0  0  0
    7.5408  -16.2573   23.1257 C   0  0  0  0  0  0  0  0  0  0  0  0
    7.0013  -15.6229   24.3523 C   0  0  0  0  0  0  0  0  0  0  0  0
    6.2969  -16.2170   25.3824 C   0  0  0  0  0  0  0  0  0  0  0  0
    5.9940  -15.2417   26.2438 N   0  0  0  0  0  0  0  0  0  0  0  0
    6.4675  -14.0378   25.8283 C   0  0  0  0  0  0  0  0  0  0  0  0
    6.4065  -12.7698   26.3638 C   0  0  0  0  0  0  0  0  0  0  0  0
    6.9777  -11.7056   25.7219 C   0  0  0  0  0  0  0  0  0  0  0  0
    7.6307  -11.9257   24.5021 C   0  0  0  0  0  0  0  0  0  0  0  0
    7.7061  -13.1880   23.9453 C   0  0  0  0  0  0  0  0  0  0  0  0
    7.1147  -14.2491   24.6233 C   0  0  0  0  0  0  0  0  0  0  0  0
    9.6631  -16.7238   24.3833 C   0  0  0  0  0  0  0  0  0  0  0  0
   10.2207  -17.8521   24.4248 O   0  0  0  0  0  0  0  0  0  0  0  0
    9.9569  -13.6261   29.3017 C   0  0  0  0  0  0  0  0  0  0  0  0
    9.7031  -14.7579   28.3484 C   0  0  0  0  0  0  0  0  0  0  0  0
   10.9064  -15.1343   27.5168 C   0  0  2  0  0  0  0  0  0  0  0  0
   11.2701  -13.8823   26.7151 C   0  0  0  0  0  0  0  0  0  0  0  0
   10.6007  -16.2902   26.6373 C   0  0  2  0  0  0  0  0  0  0  0  0
    9.6814  -15.9135   25.5511 N   0  0  0  0  0  0  0  0  0  0  0  0
    9.9275  -17.4306   27.3373 C   0  0  0  0  0  0  0  0  0  0  0  0
   10.5519  -18.2186   28.2957 O   0  0  0  0  0  0  0  0  0  0  0  0
    8.7376  -17.7294   27.0762 O   0  0  0  0  0  0  0  0  0  0  0  0
  2  1  1  0
  3  2  1  0
  4  3  2  0
  5  3  1  0
  6  5  1  0
  6  7  1  1
  8  7  1  0
  9  8  2  0
 10 11  1  0
 10  9  1  0
 11 16  2  0
 12 11  1  0
 12 13  2  0
 13 14  1  0
 14 15  2  0
 16  8  1  0
 16 15  1  0
 17  6  1  0
 17 18  2  0
 20 21  1  0
 20 19  1  0
 21 22  1  6
 23 21  1  0
 23 24  1  6
 24 17  1  0
 25 23  1  0
 26 25  1  0
 27 25  2  0
M  END
$$$$
