GWI.pdb
     RDKit          3D

 27 28  0  0  1  0  0  0  0  0999 V2000
    5.0900  -19.5911   21.7204 N   0  0  0  0  0  0  0  0  0  0  0  0
    5.6938  -19.6694   23.0298 C   0  0  0  0  0  0  0  0  0  0  0  0
    6.6633  -18.5180   23.2250 C   0  0  0  0  0  0  0  0  0  0  0  0
    6.8806  -17.7848   22.2469 O   0  0  0  0  0  0  0  0  0  0  0  0
    7.2715  -18.3196   24.4770 N   0  0  0  0  0  0  0  0  0  0  0  0
    8.2057  -17.3267   24.8684 C   0  0  1  0  0  0  0  0  0  0  0  0
    8.0620  -16.6833   26.2032 C   0  0  0  0  0  0  0  0  0  0  0  0
    7.1113  -15.5457   26.1999 C   0  0  0  0  0  0  0  0  0  0  0  0
    5.7309  -15.5859   26.1447 C   0  0  0  0  0  0  0  0  0  0  0  0
    5.3167  -14.3158   26.1303 N   0  0  0  0  0  0  0  0  0  0  0  0
    6.3594  -13.4456   26.1750 C   0  0  0  0  0  0  0  0  0  0  0  0
    6.4341  -12.0699   26.1791 C   0  0  0  0  0  0  0  0  0  0  0  0
    7.6420  -11.4299   26.2262 C   0  0  0  0  0  0  0  0  0  0  0  0
    8.8114  -12.2001   26.2703 C   0  0  0  0  0  0  0  0  0  0  0  0
    8.7625  -13.5809   26.2681 C   0  0  0  0  0  0  0  0  0  0  0  0
    7.5182  -14.2011   26.2195 C   0  0  0  0  0  0  0  0  0  0  0  0
    9.5820  -17.6589   24.4594 C   0  0  0  0  0  0  0  0  0  0  0  0
    9.9661  -18.8452   24.6353 O   0  0  0  0  0  0  0  0  0  0  0  0
   11.8258  -15.4780   20.0338 C   0  0  0  0  0  0  0  0  0  0  0  0
   11.3810  -16.3708   21.1559 C   0  0  0  0  0  0  0  0  0  0  0  0
   12.3407  -16.4071   22.3216 C   0  0  2  0  0  0  0  0  0  0  0  0
   13.6493  -16.9774   21.7695 C   0  0  0  0  0  0  0  0  0  0  0  0
   11.7965  -17.2319   23.4291 C   0  0  2  0  0  0  0  0  0  0  0  0
   10.4910  -16.7284   23.8860 N   0  0  0  0  0  0  0  0  0  0  0  0
   12.6555  -17.2523   24.6561 C   0  0  0  0  0  0  0  0  0  0  0  0
   13.7640  -18.0764   24.8031 O   0  0  0  0  0  0  0  0  0  0  0  0
   12.3988  -16.5044   25.6299 O   0  0  0  0  0  0  0  0  0  0  0  0
  2  1  1  0
  3  2  1  0
  4  3  2  0
  5  3  1  0
  6  5  1  0
  6  7  1  1
  8  7  1  0
  9  8  2  0
 10 11  1  0
 10  9  1  0
 11 16  2  0
 12 11  1  0
 12 13  2  0
 13 14  1  0
 14 15  2  0
 16  8  1  0
 16 15  1  0
 17  6  1  0
 17 18  2  0
 20 21  1  0
 20 19  1  0
 21 22  1  6
 23 21  1  0
 23 24  1  1
 24 17  1  0
 25 23  1  0
 26 25  1  0
 27 25  2  0
M  END
$$$$
