GWI.pdb
     RDKit          3D

 27 28  0  0  1  0  0  0  0  0999 V2000
    9.0634  -16.9902   18.2990 N   0  0  0  0  0  0  0  0  0  0  0  0
    8.1568  -17.3989   19.3460 C   0  0  0  0  0  0  0  0  0  0  0  0
    8.5567  -16.7549   20.6609 C   0  0  0  0  0  0  0  0  0  0  0  0
    9.6640  -16.1952   20.7070 O   0  0  0  0  0  0  0  0  0  0  0  0
    7.6830  -16.8089   21.7611 N   0  0  0  0  0  0  0  0  0  0  0  0
    7.8920  -16.3594   23.0900 C   0  0  1  0  0  0  0  0  0  0  0  0
    6.7128  -16.1056   23.9625 C   0  0  0  0  0  0  0  0  0  0  0  0
    7.0744  -15.4944   25.2640 C   0  0  0  0  0  0  0  0  0  0  0  0
    7.5331  -16.1241   26.4056 C   0  0  0  0  0  0  0  0  0  0  0  0
    7.6874  -15.1691   27.3271 N   0  0  0  0  0  0  0  0  0  0  0  0
    7.3533  -13.9441   26.8434 C   0  0  0  0  0  0  0  0  0  0  0  0
    7.3453  -12.6847   27.4023 C   0  0  0  0  0  0  0  0  0  0  0  0
    6.9496  -11.5945   26.6771 C   0  0  0  0  0  0  0  0  0  0  0  0
    6.5493  -11.7788   25.3473 C   0  0  0  0  0  0  0  0  0  0  0  0
    6.5496  -13.0314   24.7642 C   0  0  0  0  0  0  0  0  0  0  0  0
    6.9575  -14.1197   25.5289 C   0  0  0  0  0  0  0  0  0  0  0  0
    9.0371  -17.0269   23.7345 C   0  0  0  0  0  0  0  0  0  0  0  0
    9.0390  -18.2861   23.7472 O   0  0  0  0  0  0  0  0  0  0  0  0
   14.6241  -17.5638   23.1769 C   0  0  0  0  0  0  0  0  0  0  0  0
   13.8273  -17.0995   24.3616 C   0  0  0  0  0  0  0  0  0  0  0  0
   12.5449  -16.3919   23.9929 C   0  0  2  0  0  0  0  0  0  0  0  0
   12.6853  -14.9646   24.5274 C   0  0  0  0  0  0  0  0  0  0  0  0
   11.3702  -17.0907   24.5714 C   0  0  2  0  0  0  0  0  0  0  0  0
   10.1261  -16.3398   24.3368 N   0  0  0  0  0  0  0  0  0  0  0  0
   11.4379  -17.2751   26.0564 C   0  0  0  0  0  0  0  0  0  0  0  0
   10.5780  -16.6459   26.9476 O   0  0  0  0  0  0  0  0  0  0  0  0
   12.3014  -18.0263   26.5696 O   0  0  0  0  0  0  0  0  0  0  0  0
  2  1  1  0
  3  2  1  0
  4  3  2  0
  5  3  1  0
  6  5  1  0
  6  7  1  1
  8  7  1  0
  9  8  2  0
 10 11  1  0
 10  9  1  0
 11 16  2  0
 12 11  1  0
 12 13  2  0
 13 14  1  0
 14 15  2  0
 16  8  1  0
 16 15  1  0
 17  6  1  0
 17 18  2  0
 20 21  1  0
 20 19  1  0
 21 22  1  1
 23 21  1  0
 23 24  1  1
 24 17  1  0
 25 23  1  0
 26 25  1  0
 27 25  2  0
M  END
$$$$
