GWI.pdb
     RDKit          3D

 27 28  0  0  1  0  0  0  0  0999 V2000
   11.1457  -16.9559   19.3913 N   0  0  0  0  0  0  0  0  0  0  0  0
   11.3284  -17.6887   20.6220 C   0  0  0  0  0  0  0  0  0  0  0  0
   10.8969  -16.8381   21.8027 C   0  0  0  0  0  0  0  0  0  0  0  0
   11.4455  -15.7327   21.9385 O   0  0  0  0  0  0  0  0  0  0  0  0
    9.9123  -17.3147   22.6860 N   0  0  0  0  0  0  0  0  0  0  0  0
    9.3179  -16.6623   23.7964 C   0  0  1  0  0  0  0  0  0  0  0  0
    7.8407  -16.4799   23.8234 C   0  0  0  0  0  0  0  0  0  0  0  0
    7.4261  -15.0699   23.6286 C   0  0  0  0  0  0  0  0  0  0  0  0
    7.3789  -14.3481   22.4510 C   0  0  0  0  0  0  0  0  0  0  0  0
    6.9788  -13.1164   22.7792 N   0  0  0  0  0  0  0  0  0  0  0  0
    6.7602  -12.9971   24.1149 C   0  0  0  0  0  0  0  0  0  0  0  0
    6.3504  -11.9483   24.9089 C   0  0  0  0  0  0  0  0  0  0  0  0
    6.2119  -12.1004   26.2612 C   0  0  0  0  0  0  0  0  0  0  0  0
    6.4953  -13.3483   26.8315 C   0  0  0  0  0  0  0  0  0  0  0  0
    6.9068  -14.4155   26.0563 C   0  0  0  0  0  0  0  0  0  0  0  0
    7.0379  -14.2278   24.6841 C   0  0  0  0  0  0  0  0  0  0  0  0
    9.9417  -17.0492   25.0744 C   0  0  0  0  0  0  0  0  0  0  0  0
   10.5106  -18.1716   25.1226 O   0  0  0  0  0  0  0  0  0  0  0  0
    9.9390  -13.9094   29.8960 C   0  0  0  0  0  0  0  0  0  0  0  0
    9.7520  -15.0479   28.9354 C   0  0  0  0  0  0  0  0  0  0  0  0
   11.0373  -15.5305   28.3062 C   0  0  2  0  0  0  0  0  0  0  0  0
   11.6346  -14.3171   27.5895 C   0  0  0  0  0  0  0  0  0  0  0  0
   10.7798  -16.6570   27.3746 C   0  0  2  0  0  0  0  0  0  0  0  0
    9.9370  -16.2391   26.2425 N   0  0  0  0  0  0  0  0  0  0  0  0
   10.0522  -17.8100   27.9951 C   0  0  0  0  0  0  0  0  0  0  0  0
   10.5817  -18.5932   29.0128 O   0  0  0  0  0  0  0  0  0  0  0  0
    8.9016  -18.1246   27.6070 O   0  0  0  0  0  0  0  0  0  0  0  0
  2  1  1  0
  3  2  1  0
  4  3  2  0
  5  3  1  0
  6  5  1  0
  6  7  1  1
  8  7  1  0
  9  8  2  0
 10 11  1  0
 10  9  1  0
 11 16  2  0
 12 11  1  0
 12 13  2  0
 13 14  1  0
 14 15  2  0
 16  8  1  0
 16 15  1  0
 17  6  1  0
 17 18  2  0
 20 21  1  0
 20 19  1  0
 21 22  1  6
 23 21  1  0
 23 24  1  6
 24 17  1  0
 25 23  1  0
 26 25  1  0
 27 25  2  0
M  END
$$$$
