GWI.pdb
     RDKit          3D

 27 28  0  0  1  0  0  0  0  0999 V2000
   10.4142  -16.1280   19.7061 N   0  0  0  0  0  0  0  0  0  0  0  0
   10.0299  -17.1143   20.6882 C   0  0  0  0  0  0  0  0  0  0  0  0
    9.8730  -16.4600   22.0486 C   0  0  0  0  0  0  0  0  0  0  0  0
   10.1807  -15.2607   22.1423 O   0  0  0  0  0  0  0  0  0  0  0  0
    9.3949  -17.2119   23.1362 N   0  0  0  0  0  0  0  0  0  0  0  0
    9.0628  -16.7773   24.4448 C   0  0  1  0  0  0  0  0  0  0  0  0
    7.7423  -17.1540   25.0196 C   0  0  0  0  0  0  0  0  0  0  0  0
    6.7491  -16.0548   24.9618 C   0  0  0  0  0  0  0  0  0  0  0  0
    5.4579  -16.0949   24.4705 C   0  0  0  0  0  0  0  0  0  0  0  0
    4.9671  -14.8589   24.5983 N   0  0  0  0  0  0  0  0  0  0  0  0
    5.8741  -14.0116   25.1511 C   0  0  0  0  0  0  0  0  0  0  0  0
    5.8336  -12.6721   25.4714 C   0  0  0  0  0  0  0  0  0  0  0  0
    6.9154  -12.0478   26.0290 C   0  0  0  0  0  0  0  0  0  0  0  0
    8.0745  -12.7964   26.2713 C   0  0  0  0  0  0  0  0  0  0  0  0
    8.1394  -14.1410   25.9598 C   0  0  0  0  0  0  0  0  0  0  0  0
    7.0219  -14.7460   25.3936 C   0  0  0  0  0  0  0  0  0  0  0  0
   10.2098  -16.8484   25.3676 C   0  0  0  0  0  0  0  0  0  0  0  0
   11.1963  -17.5444   25.0098 O   0  0  0  0  0  0  0  0  0  0  0  0
   10.7262  -13.8639   30.2291 C   0  0  0  0  0  0  0  0  0  0  0  0
   10.5410  -15.0262   29.2969 C   0  0  0  0  0  0  0  0  0  0  0  0
   11.7057  -15.2472   28.3611 C   0  0  2  0  0  0  0  0  0  0  0  0
   11.8691  -13.9413   27.5797 C   0  0  0  0  0  0  0  0  0  0  0  0
   11.4530  -16.4042   27.4663 C   0  0  2  0  0  0  0  0  0  0  0  0
   10.2657  -16.1859   26.6240 N   0  0  0  0  0  0  0  0  0  0  0  0
   11.1855  -17.6891   28.1883 C   0  0  0  0  0  0  0  0  0  0  0  0
    9.9656  -18.3522   28.1480 O   0  0  0  0  0  0  0  0  0  0  0  0
   12.0792  -18.2326   28.8805 O   0  0  0  0  0  0  0  0  0  0  0  0
  2  1  1  0
  3  2  1  0
  4  3  2  0
  5  3  1  0
  6  5  1  0
  6  7  1  1
  8  7  1  0
  9  8  2  0
 10 11  1  0
 10  9  1  0
 11 16  2  0
 12 11  1  0
 12 13  2  0
 13 14  1  0
 14 15  2  0
 16  8  1  0
 16 15  1  0
 17  6  1  0
 17 18  2  0
 20 21  1  0
 20 19  1  0
 21 22  1  6
 23 21  1  0
 23 24  1  1
 24 17  1  0
 25 23  1  0
 26 25  1  0
 27 25  2  0
M  END
$$$$
