GWI.pdb
     RDKit          3D

 27 28  0  0  1  0  0  0  0  0999 V2000
   12.2403  -16.5242   19.8459 N   0  0  0  0  0  0  0  0  0  0  0  0
   11.3787  -17.3480   20.6608 C   0  0  0  0  0  0  0  0  0  0  0  0
   10.8874  -16.5589   21.8607 C   0  0  0  0  0  0  0  0  0  0  0  0
   11.3689  -15.4276   22.0338 O   0  0  0  0  0  0  0  0  0  0  0  0
    9.9245  -17.1177   22.7195 N   0  0  0  0  0  0  0  0  0  0  0  0
    9.2795  -16.5322   23.8388 C   0  0  1  0  0  0  0  0  0  0  0  0
    7.7920  -16.4816   23.8727 C   0  0  0  0  0  0  0  0  0  0  0  0
    7.2500  -15.1348   23.5721 C   0  0  0  0  0  0  0  0  0  0  0  0
    7.0330  -14.5575   22.3353 C   0  0  0  0  0  0  0  0  0  0  0  0
    6.5695  -13.3266   22.5695 N   0  0  0  0  0  0  0  0  0  0  0  0
    6.4710  -13.0704   23.9002 C   0  0  0  0  0  0  0  0  0  0  0  0
    6.0570  -11.9681   24.6156 C   0  0  0  0  0  0  0  0  0  0  0  0
    6.0610  -11.9734   25.9834 C   0  0  0  0  0  0  0  0  0  0  0  0
    6.4960  -13.1254   26.6515 C   0  0  0  0  0  0  0  0  0  0  0  0
    6.9150  -14.2437   25.9565 C   0  0  0  0  0  0  0  0  0  0  0  0
    6.8989  -14.2058   24.5659 C   0  0  0  0  0  0  0  0  0  0  0  0
    9.9405  -16.8758   25.1104 C   0  0  0  0  0  0  0  0  0  0  0  0
   10.7989  -17.7967   25.0844 O   0  0  0  0  0  0  0  0  0  0  0  0
   10.3836  -13.0798   29.0661 C   0  0  0  0  0  0  0  0  0  0  0  0
   10.6681  -14.1629   28.0661 C   0  0  0  0  0  0  0  0  0  0  0  0
   10.3927  -15.5553   28.5823 C   0  0  2  0  0  0  0  0  0  0  0  0
   11.3967  -15.7891   29.7135 C   0  0  0  0  0  0  0  0  0  0  0  0
   10.5317  -16.5586   27.4973 C   0  0  2  0  0  0  0  0  0  0  0  0
    9.6672  -16.2365   26.3503 N   0  0  0  0  0  0  0  0  0  0  0  0
   10.1442  -17.9494   27.8967 C   0  0  0  0  0  0  0  0  0  0  0  0
   11.0529  -18.9013   28.3411 O   0  0  0  0  0  0  0  0  0  0  0  0
    8.9475  -18.3212   27.8421 O   0  0  0  0  0  0  0  0  0  0  0  0
  2  1  1  0
  3  2  1  0
  4  3  2  0
  5  3  1  0
  6  5  1  0
  6  7  1  1
  8  7  1  0
  9  8  2  0
 10 11  1  0
 10  9  1  0
 11 16  2  0
 12 11  1  0
 12 13  2  0
 13 14  1  0
 14 15  2  0
 16  8  1  0
 16 15  1  0
 17  6  1  0
 17 18  2  0
 20 21  1  0
 20 19  1  0
 21 22  1  1
 23 21  1  0
 23 24  1  6
 24 17  1  0
 25 23  1  0
 26 25  1  0
 27 25  2  0
M  END
$$$$
