GWI.pdb
     RDKit          3D

 27 28  0  0  1  0  0  0  0  0999 V2000
    6.0332  -16.3649   20.1120 N   0  0  0  0  0  0  0  0  0  0  0  0
    6.1736  -16.9705   21.4153 C   0  0  0  0  0  0  0  0  0  0  0  0
    7.3513  -16.3565   22.1499 C   0  0  0  0  0  0  0  0  0  0  0  0
    8.0360  -15.5246   21.5329 O   0  0  0  0  0  0  0  0  0  0  0  0
    7.6255  -16.7376   23.4752 N   0  0  0  0  0  0  0  0  0  0  0  0
    8.6915  -16.3320   24.3183 C   0  0  1  0  0  0  0  0  0  0  0  0
    8.4133  -16.0527   25.7539 C   0  0  0  0  0  0  0  0  0  0  0  0
    7.2860  -15.1108   25.9541 C   0  0  0  0  0  0  0  0  0  0  0  0
    5.9360  -15.3974   26.0285 C   0  0  0  0  0  0  0  0  0  0  0  0
    5.3096  -14.2270   26.1790 N   0  0  0  0  0  0  0  0  0  0  0  0
    6.1844  -13.1878   26.2083 C   0  0  0  0  0  0  0  0  0  0  0  0
    6.0202  -11.8262   26.3405 C   0  0  0  0  0  0  0  0  0  0  0  0
    7.0969  -10.9826   26.3336 C   0  0  0  0  0  0  0  0  0  0  0  0
    8.3792  -11.5278   26.1888 C   0  0  0  0  0  0  0  0  0  0  0  0
    8.5698  -12.8898   26.0557 C   0  0  0  0  0  0  0  0  0  0  0  0
    7.4539  -13.7205   26.0665 C   0  0  0  0  0  0  0  0  0  0  0  0
    9.9398  -17.0627   24.0355 C   0  0  0  0  0  0  0  0  0  0  0  0
    9.8854  -18.3208   24.0379 O   0  0  0  0  0  0  0  0  0  0  0  0
   15.1002  -17.0029   20.7632 C   0  0  0  0  0  0  0  0  0  0  0  0
   14.3174  -17.5070   21.9410 C   0  0  0  0  0  0  0  0  0  0  0  0
   13.0701  -16.7060   22.2304 C   0  0  2  0  0  0  0  0  0  0  0  0
   13.5465  -15.2830   22.5320 C   0  0  0  0  0  0  0  0  0  0  0  0
   12.3158  -17.2936   23.3657 C   0  0  2  0  0  0  0  0  0  0  0  0
   11.1871  -16.4371   23.7647 N   0  0  0  0  0  0  0  0  0  0  0  0
   13.1270  -17.4722   24.6123 C   0  0  0  0  0  0  0  0  0  0  0  0
   14.1230  -18.4307   24.7488 O   0  0  0  0  0  0  0  0  0  0  0  0
   12.9316  -16.7421   25.6133 O   0  0  0  0  0  0  0  0  0  0  0  0
  2  1  1  0
  3  2  1  0
  4  3  2  0
  5  3  1  0
  6  5  1  0
  6  7  1  1
  8  7  1  0
  9  8  2  0
 10 11  1  0
 10  9  1  0
 11 16  2  0
 12 11  1  0
 12 13  2  0
 13 14  1  0
 14 15  2  0
 16  8  1  0
 16 15  1  0
 17  6  1  0
 17 18  2  0
 20 21  1  0
 20 19  1  0
 21 22  1  1
 23 21  1  0
 23 24  1  1
 24 17  1  0
 25 23  1  0
 26 25  1  0
 27 25  2  0
M  END
$$$$
