GWI.pdb
     RDKit          3D

 27 28  0  0  1  0  0  0  0  0999 V2000
   12.2719  -17.5466   19.8472 N   0  0  0  0  0  0  0  0  0  0  0  0
   11.5472  -18.1940   20.9154 C   0  0  0  0  0  0  0  0  0  0  0  0
   11.0877  -17.1639   21.9309 C   0  0  0  0  0  0  0  0  0  0  0  0
   11.8042  -16.1625   22.0901 O   0  0  0  0  0  0  0  0  0  0  0  0
    9.8932  -17.3681   22.6438 N   0  0  0  0  0  0  0  0  0  0  0  0
    9.3132  -16.5686   23.6617 C   0  0  1  0  0  0  0  0  0  0  0  0
    7.8476  -16.3094   23.6320 C   0  0  0  0  0  0  0  0  0  0  0  0
    7.5140  -14.8652   23.5980 C   0  0  0  0  0  0  0  0  0  0  0  0
    7.6624  -13.9786   22.5482 C   0  0  0  0  0  0  0  0  0  0  0  0
    7.2613  -12.7873   23.0010 N   0  0  0  0  0  0  0  0  0  0  0  0
    6.8561  -12.8514   24.2964 C   0  0  0  0  0  0  0  0  0  0  0  0
    6.3719  -11.9079   25.1760 C   0  0  0  0  0  0  0  0  0  0  0  0
    6.0341  -12.2469   26.4574 C   0  0  0  0  0  0  0  0  0  0  0  0
    6.1892  -13.5781   26.8655 C   0  0  0  0  0  0  0  0  0  0  0  0
    6.6717  -14.5425   26.0017 C   0  0  0  0  0  0  0  0  0  0  0  0
    7.0063  -14.1651   24.7052 C   0  0  0  0  0  0  0  0  0  0  0  0
    9.8907  -16.8446   24.9893 C   0  0  0  0  0  0  0  0  0  0  0  0
   10.5837  -17.8889   25.1117 O   0  0  0  0  0  0  0  0  0  0  0  0
   10.5779  -12.7143   28.5919 C   0  0  0  0  0  0  0  0  0  0  0  0
   10.8998  -13.9141   27.7487 C   0  0  0  0  0  0  0  0  0  0  0  0
   10.4062  -15.2172   28.3311 C   0  0  2  0  0  0  0  0  0  0  0  0
   11.2786  -15.4840   29.5601 C   0  0  0  0  0  0  0  0  0  0  0  0
   10.4998  -16.3117   27.3329 C   0  0  2  0  0  0  0  0  0  0  0  0
    9.7118  -16.0108   26.1266 N   0  0  0  0  0  0  0  0  0  0  0  0
    9.9780  -17.6291   27.8186 C   0  0  0  0  0  0  0  0  0  0  0  0
    8.6425  -18.0024   27.7373 O   0  0  0  0  0  0  0  0  0  0  0  0
   10.7496  -18.4723   28.3353 O   0  0  0  0  0  0  0  0  0  0  0  0
  2  1  1  0
  3  2  1  0
  4  3  2  0
  5  3  1  0
  6  5  1  0
  6  7  1  1
  8  7  1  0
  9  8  2  0
 10 11  1  0
 10  9  1  0
 11 16  2  0
 12 11  1  0
 12 13  2  0
 13 14  1  0
 14 15  2  0
 16  8  1  0
 16 15  1  0
 17  6  1  0
 17 18  2  0
 20 21  1  0
 20 19  1  0
 21 22  1  1
 23 21  1  0
 23 24  1  6
 24 17  1  0
 25 23  1  0
 26 25  1  0
 27 25  2  0
M  END
$$$$
