GWI.pdb
     RDKit          3D

 27 28  0  0  1  0  0  0  0  0999 V2000
   12.1609  -16.3415   19.5375 N   0  0  0  0  0  0  0  0  0  0  0  0
   11.6294  -17.2997   20.4779 C   0  0  0  0  0  0  0  0  0  0  0  0
   11.0677  -16.5812   21.6911 C   0  0  0  0  0  0  0  0  0  0  0  0
   11.8096  -15.7674   22.2646 O   0  0  0  0  0  0  0  0  0  0  0  0
    9.7559  -16.8509   22.1193 N   0  0  0  0  0  0  0  0  0  0  0  0
    9.0507  -16.3154   23.2273 C   0  0  1  0  0  0  0  0  0  0  0  0
    7.5637  -16.2620   23.1820 C   0  0  0  0  0  0  0  0  0  0  0  0
    6.9703  -15.5965   24.3665 C   0  0  0  0  0  0  0  0  0  0  0  0
    6.1425  -16.1437   25.3286 C   0  0  0  0  0  0  0  0  0  0  0  0
    5.8388  -15.1533   26.1723 N   0  0  0  0  0  0  0  0  0  0  0  0
    6.4289  -13.9843   25.8100 C   0  0  0  0  0  0  0  0  0  0  0  0
    6.4134  -12.7177   26.3520 C   0  0  0  0  0  0  0  0  0  0  0  0
    7.1096  -11.6938   25.7706 C   0  0  0  0  0  0  0  0  0  0  0  0
    7.8445  -11.9542   24.6066 C   0  0  0  0  0  0  0  0  0  0  0  0
    7.8766  -13.2161   24.0447 C   0  0  0  0  0  0  0  0  0  0  0  0
    7.1574  -14.2355   24.6603 C   0  0  0  0  0  0  0  0  0  0  0  0
    9.6408  -16.7190   24.5161 C   0  0  0  0  0  0  0  0  0  0  0  0
   10.0961  -17.8900   24.6011 O   0  0  0  0  0  0  0  0  0  0  0  0
   10.0816  -13.4954   29.3170 C   0  0  0  0  0  0  0  0  0  0  0  0
    9.7590  -14.6153   28.3706 C   0  0  0  0  0  0  0  0  0  0  0  0
   10.9625  -15.1574   27.6367 C   0  0  2  0  0  0  0  0  0  0  0  0
   11.5224  -13.9856   26.8268 C   0  0  0  0  0  0  0  0  0  0  0  0
   10.5829  -16.3021   26.7714 C   0  0  2  0  0  0  0  0  0  0  0  0
    9.7233  -15.8736   25.6559 N   0  0  0  0  0  0  0  0  0  0  0  0
    9.8018  -17.3688   27.4755 C   0  0  0  0  0  0  0  0  0  0  0  0
   10.3424  -18.1997   28.4485 O   0  0  0  0  0  0  0  0  0  0  0  0
    8.5923  -17.5610   27.2046 O   0  0  0  0  0  0  0  0  0  0  0  0
  2  1  1  0
  3  2  1  0
  4  3  2  0
  5  3  1  0
  6  5  1  0
  6  7  1  1
  8  7  1  0
  9  8  2  0
 10 11  1  0
 10  9  1  0
 11 16  2  0
 12 11  1  0
 12 13  2  0
 13 14  1  0
 14 15  2  0
 16  8  1  0
 16 15  1  0
 17  6  1  0
 17 18  2  0
 20 21  1  0
 20 19  1  0
 21 22  1  6
 23 21  1  0
 23 24  1  6
 24 17  1  0
 25 23  1  0
 26 25  1  0
 27 25  2  0
M  END
$$$$
