GWI.pdb
     RDKit          3D

 27 28  0  0  1  0  0  0  0  0999 V2000
   12.9590  -16.3223   20.2382 N   0  0  0  0  0  0  0  0  0  0  0  0
   11.8155  -17.0617   20.7185 C   0  0  0  0  0  0  0  0  0  0  0  0
   11.1858  -16.3391   21.8954 C   0  0  0  0  0  0  0  0  0  0  0  0
   11.9203  -15.5963   22.5663 O   0  0  0  0  0  0  0  0  0  0  0  0
    9.8226  -16.5266   22.1839 N   0  0  0  0  0  0  0  0  0  0  0  0
    9.0614  -16.0187   23.2676 C   0  0  1  0  0  0  0  0  0  0  0  0
    7.5895  -15.8625   23.1082 C   0  0  0  0  0  0  0  0  0  0  0  0
    6.9193  -15.3862   24.3419 C   0  0  0  0  0  0  0  0  0  0  0  0
    6.1321  -16.1075   25.2195 C   0  0  0  0  0  0  0  0  0  0  0  0
    5.7250  -15.2462   26.1562 N   0  0  0  0  0  0  0  0  0  0  0  0
    6.2089  -13.9960   25.9352 C   0  0  0  0  0  0  0  0  0  0  0  0
    6.0674  -12.8023   26.6086 C   0  0  0  0  0  0  0  0  0  0  0  0
    6.6738  -11.6624   26.1570 C   0  0  0  0  0  0  0  0  0  0  0  0
    7.4468  -11.7270   24.9904 C   0  0  0  0  0  0  0  0  0  0  0  0
    7.6045  -12.9123   24.2981 C   0  0  0  0  0  0  0  0  0  0  0  0
    6.9745  -14.0537   24.7837 C   0  0  0  0  0  0  0  0  0  0  0  0
    9.5153  -16.5448   24.5673 C   0  0  0  0  0  0  0  0  0  0  0  0
   10.2004  -17.6013   24.5551 O   0  0  0  0  0  0  0  0  0  0  0  0
    9.5803  -12.9186   28.7191 C   0  0  0  0  0  0  0  0  0  0  0  0
   10.0661  -13.9102   27.7018 C   0  0  0  0  0  0  0  0  0  0  0  0
    9.8559  -15.3499   28.1067 C   0  0  2  0  0  0  0  0  0  0  0  0
   10.8280  -15.6070   29.2606 C   0  0  0  0  0  0  0  0  0  0  0  0
   10.0971  -16.2622   26.9609 C   0  0  2  0  0  0  0  0  0  0  0  0
    9.2266  -15.9367   25.8194 N   0  0  0  0  0  0  0  0  0  0  0  0
    9.8233  -17.7044   27.2588 C   0  0  0  0  0  0  0  0  0  0  0  0
    8.5981  -18.3165   27.0268 O   0  0  0  0  0  0  0  0  0  0  0  0
   10.7162  -18.4383   27.7462 O   0  0  0  0  0  0  0  0  0  0  0  0
  2  1  1  0
  3  2  1  0
  4  3  2  0
  5  3  1  0
  6  5  1  0
  6  7  1  6
  8  7  1  0
  9  8  2  0
 10 11  1  0
 10  9  1  0
 11 16  2  0
 12 11  1  0
 12 13  2  0
 13 14  1  0
 14 15  2  0
 16  8  1  0
 16 15  1  0
 17  6  1  0
 17 18  2  0
 20 21  1  0
 20 19  1  0
 21 22  1  1
 23 21  1  0
 23 24  1  6
 24 17  1  0
 25 23  1  0
 26 25  1  0
 27 25  2  0
M  END
$$$$
