GWI.pdb
     RDKit          3D

 27 28  0  0  1  0  0  0  0  0999 V2000
   12.1747  -16.3506   19.4585 N   0  0  0  0  0  0  0  0  0  0  0  0
   11.1137  -17.1009   20.0882 C   0  0  0  0  0  0  0  0  0  0  0  0
   10.7465  -16.4668   21.4174 C   0  0  0  0  0  0  0  0  0  0  0  0
   11.4823  -15.5594   21.8377 O   0  0  0  0  0  0  0  0  0  0  0  0
    9.6115  -16.9139   22.1165 N   0  0  0  0  0  0  0  0  0  0  0  0
    9.0228  -16.3859   23.2939 C   0  0  1  0  0  0  0  0  0  0  0  0
    7.5414  -16.4138   23.4380 C   0  0  0  0  0  0  0  0  0  0  0  0
    7.0602  -15.6777   24.6316 C   0  0  0  0  0  0  0  0  0  0  0  0
    6.6153  -16.1960   25.8331 C   0  0  0  0  0  0  0  0  0  0  0  0
    6.2555  -15.1515   26.5844 N   0  0  0  0  0  0  0  0  0  0  0  0
    6.4449  -13.9739   25.9333 C   0  0  0  0  0  0  0  0  0  0  0  0
    6.2254  -12.6604   26.2866 C   0  0  0  0  0  0  0  0  0  0  0  0
    6.5059  -11.6410   25.4188 C   0  0  0  0  0  0  0  0  0  0  0  0
    7.0234  -11.9548   24.1553 C   0  0  0  0  0  0  0  0  0  0  0  0
    7.2531  -13.2641   23.7782 C   0  0  0  0  0  0  0  0  0  0  0  0
    6.9571  -14.2776   24.6840 C   0  0  0  0  0  0  0  0  0  0  0  0
    9.7932  -16.7203   24.5050 C   0  0  0  0  0  0  0  0  0  0  0  0
   10.4550  -17.7916   24.4907 O   0  0  0  0  0  0  0  0  0  0  0  0
   10.1075  -13.6872   29.4598 C   0  0  0  0  0  0  0  0  0  0  0  0
    9.8433  -14.7675   28.4512 C   0  0  0  0  0  0  0  0  0  0  0  0
   11.0604  -15.1612   27.6483 C   0  0  2  0  0  0  0  0  0  0  0  0
   11.4691  -13.9106   26.8663 C   0  0  0  0  0  0  0  0  0  0  0  0
   10.7555  -16.3043   26.7519 C   0  0  2  0  0  0  0  0  0  0  0  0
    9.8309  -15.9139   25.6751 N   0  0  0  0  0  0  0  0  0  0  0  0
   10.0890  -17.4579   27.4364 C   0  0  0  0  0  0  0  0  0  0  0  0
    8.8054  -17.8931   27.1319 O   0  0  0  0  0  0  0  0  0  0  0  0
   10.6809  -18.0948   28.3404 O   0  0  0  0  0  0  0  0  0  0  0  0
  2  1  1  0
  3  2  1  0
  4  3  2  0
  5  3  1  0
  6  5  1  0
  6  7  1  1
  8  7  1  0
  9  8  2  0
 10 11  1  0
 10  9  1  0
 11 16  2  0
 12 11  1  0
 12 13  2  0
 13 14  1  0
 14 15  2  0
 16  8  1  0
 16 15  1  0
 17  6  1  0
 17 18  2  0
 20 21  1  0
 20 19  1  0
 21 22  1  6
 23 21  1  0
 23 24  1  6
 24 17  1  0
 25 23  1  0
 26 25  1  0
 27 25  2  0
M  END
$$$$
