GWI.pdb
     RDKit          3D

 27 28  0  0  1  0  0  0  0  0999 V2000
   11.4529  -16.3221   18.9614 N   0  0  0  0  0  0  0  0  0  0  0  0
   11.1500  -17.2447   20.0301 C   0  0  0  0  0  0  0  0  0  0  0  0
   10.6634  -16.4849   21.2507 C   0  0  0  0  0  0  0  0  0  0  0  0
   11.1524  -15.3620   21.4544 O   0  0  0  0  0  0  0  0  0  0  0  0
    9.6966  -17.0603   22.0939 N   0  0  0  0  0  0  0  0  0  0  0  0
    9.0739  -16.5105   23.2435 C   0  0  1  0  0  0  0  0  0  0  0  0
    7.5908  -16.5666   23.3603 C   0  0  0  0  0  0  0  0  0  0  0  0
    7.0702  -15.7994   24.5173 C   0  0  0  0  0  0  0  0  0  0  0  0
    6.5335  -16.2870   25.6939 C   0  0  0  0  0  0  0  0  0  0  0  0
    6.1730  -15.2211   26.4143 N   0  0  0  0  0  0  0  0  0  0  0  0
    6.4492  -14.0589   25.7667 C   0  0  0  0  0  0  0  0  0  0  0  0
    6.2635  -12.7340   26.0961 C   0  0  0  0  0  0  0  0  0  0  0  0
    6.6369  -11.7357   25.2388 C   0  0  0  0  0  0  0  0  0  0  0  0
    7.2154  -12.0831   24.0111 C   0  0  0  0  0  0  0  0  0  0  0  0
    7.4130  -13.4044   23.6585 C   0  0  0  0  0  0  0  0  0  0  0  0
    7.0220  -14.3958   24.5527 C   0  0  0  0  0  0  0  0  0  0  0  0
    9.8273  -16.7919   24.4785 C   0  0  0  0  0  0  0  0  0  0  0  0
   10.4696  -17.8739   24.5290 O   0  0  0  0  0  0  0  0  0  0  0  0
    9.8808  -13.7171   29.4149 C   0  0  0  0  0  0  0  0  0  0  0  0
    9.6980  -14.7946   28.3855 C   0  0  0  0  0  0  0  0  0  0  0  0
   10.9657  -15.1512   27.6462 C   0  0  2  0  0  0  0  0  0  0  0  0
   11.3809  -13.8859   26.8917 C   0  0  0  0  0  0  0  0  0  0  0  0
   10.7393  -16.2972   26.7304 C   0  0  2  0  0  0  0  0  0  0  0  0
    9.8694  -15.9237   25.6033 N   0  0  0  0  0  0  0  0  0  0  0  0
   10.0614  -17.4687   27.3721 C   0  0  0  0  0  0  0  0  0  0  0  0
   10.6533  -18.2556   28.3518 O   0  0  0  0  0  0  0  0  0  0  0  0
    8.8975  -17.7965   27.0386 O   0  0  0  0  0  0  0  0  0  0  0  0
  2  1  1  0
  3  2  1  0
  4  3  2  0
  5  3  1  0
  6  5  1  0
  6  7  1  1
  8  7  1  0
  9  8  2  0
 10 11  1  0
 10  9  1  0
 11 16  2  0
 12 11  1  0
 12 13  2  0
 13 14  1  0
 14 15  2  0
 16  8  1  0
 16 15  1  0
 17  6  1  0
 17 18  2  0
 20 21  1  0
 20 19  1  0
 21 22  1  6
 23 21  1  0
 23 24  1  6
 24 17  1  0
 25 23  1  0
 26 25  1  0
 27 25  2  0
M  END
$$$$
