HHN.pdb
     RDKit          3D

 29 30  0  0  1  0  0  0  0  0999 V2000
   12.9859  -16.7987    4.8755 N   0  0  0  0  0  0  0  0  0  0  0  0
   14.2404  -16.1513    5.1065 C   0  0  1  0  0  0  0  0  0  0  0  0
   14.1043  -15.1080    6.2251 C   0  0  0  0  0  0  0  0  0  0  0  0
   13.1889  -14.0253    5.8387 C   0  0  0  0  0  0  0  0  0  0  0  0
   12.1702  -13.5368    6.6268 C   0  0  0  0  0  0  0  0  0  0  0  0
   11.5368  -12.5421    5.9420 N   0  0  0  0  0  0  0  0  0  0  0  0
   12.1592  -12.4168    4.7401 C   0  0  0  0  0  0  0  0  0  0  0  0
   13.1501  -13.3170    4.6961 N   0  0  0  0  0  0  0  0  0  0  0  0
   15.3166  -17.0873    5.4974 C   0  0  0  0  0  0  0  0  0  0  0  0
   15.0811  -17.9643    6.3488 O   0  0  0  0  0  0  0  0  0  0  0  0
   16.6286  -17.0616    4.9636 N   0  0  0  0  0  0  0  0  0  0  0  0
   17.6360  -18.0076    5.2583 C   0  0  1  0  0  0  0  0  0  0  0  0
   18.2057  -18.7699    4.1109 C   0  0  0  0  0  0  0  0  0  0  0  0
   17.1840  -19.6788    3.5209 C   0  0  0  0  0  0  0  0  0  0  0  0
   16.3319  -19.4474    2.4587 C   0  0  0  0  0  0  0  0  0  0  0  0
   15.5540  -20.5274    2.2329 N   0  0  0  0  0  0  0  0  0  0  0  0
   15.9129  -21.4409    3.1504 C   0  0  0  0  0  0  0  0  0  0  0  0
   16.8864  -20.9476    3.9275 N   0  0  0  0  0  0  0  0  0  0  0  0
   18.7230  -17.3494    6.0354 C   0  0  0  0  0  0  0  0  0  0  0  0
   18.9920  -16.1323    5.8703 O   0  0  0  0  0  0  0  0  0  0  0  0
   22.3487  -15.9863    9.2927 N   0  0  0  0  0  0  0  0  0  0  0  0
   20.9820  -15.5322    9.2812 C   0  0  0  0  0  0  0  0  0  0  0  0
   20.6236  -14.5754    9.9802 O   0  0  0  0  0  0  0  0  0  0  0  0
   20.0641  -16.2621    8.4062 C   0  0  0  0  0  0  0  0  0  0  0  0
   20.6236  -17.4613    7.7090 C   0  0  2  0  0  0  0  0  0  0  0  0
   19.4923  -18.0702    6.9879 N   0  0  0  0  0  0  0  0  0  0  0  0
   21.2993  -18.4386    8.5578 C   0  0  0  0  0  0  0  0  0  0  0  0
   22.3154  -18.1674    9.2355 O   0  0  0  0  0  0  0  0  0  0  0  0
   20.7557  -19.7449    8.5947 O   0  0  0  0  0  0  0  0  0  0  0  0
  2  3  1  0
  2  1  1  1
  4  8  1  0
  4  3  1  0
  5  4  2  0
  6  5  1  0
  6  7  1  0
  7  8  2  0
  9  2  1  0
 10  9  2  0
 11  9  1  0
 12 11  1  0
 13 14  1  0
 12 13  1  6
 14 15  2  0
 15 16  1  0
 17 16  1  0
 18 14  1  0
 18 17  2  0
 19 12  1  0
 19 26  1  0
 20 19  2  0
 22 21  1  0
 23 22  2  0
 24 22  1  0
 25 24  1  1
 25 27  1  0
 25 26  1  0
 27 29  1  0
 28 27  2  0
M  END
$$$$
