HHN.pdb
     RDKit          3D

 29 30  0  0  1  0  0  0  0  0999 V2000
   14.8848  -16.7852    2.7759 N   0  0  0  0  0  0  0  0  0  0  0  0
   14.6705  -16.2073    4.0668 C   0  0  1  0  0  0  0  0  0  0  0  0
   13.4737  -16.8758    4.7587 C   0  0  0  0  0  0  0  0  0  0  0  0
   12.2296  -16.6548    4.0084 C   0  0  0  0  0  0  0  0  0  0  0  0
   11.3298  -15.6418    4.2569 C   0  0  0  0  0  0  0  0  0  0  0  0
   10.3029  -15.7517    3.3664 N   0  0  0  0  0  0  0  0  0  0  0  0
   10.5660  -16.8242    2.5738 C   0  0  0  0  0  0  0  0  0  0  0  0
   11.7288  -17.3545    2.9749 N   0  0  0  0  0  0  0  0  0  0  0  0
   15.8372  -16.3394    4.9660 C   0  0  0  0  0  0  0  0  0  0  0  0
   16.6645  -17.2465    4.7604 O   0  0  0  0  0  0  0  0  0  0  0  0
   16.0919  -15.4912    6.0717 N   0  0  0  0  0  0  0  0  0  0  0  0
   17.2354  -15.5678    6.8982 C   0  0  1  0  0  0  0  0  0  0  0  0
   17.6426  -14.3218    7.6080 C   0  0  0  0  0  0  0  0  0  0  0  0
   18.4238  -13.4309    6.7059 C   0  0  0  0  0  0  0  0  0  0  0  0
   18.7713  -13.6297    5.3838 C   0  0  0  0  0  0  0  0  0  0  0  0
   19.4853  -12.5820    4.9202 N   0  0  0  0  0  0  0  0  0  0  0  0
   19.5897  -11.7215    5.9465 C   0  0  0  0  0  0  0  0  0  0  0  0
   18.9599  -12.2155    7.0209 N   0  0  0  0  0  0  0  0  0  0  0  0
   17.0739  -16.6880    7.8665 C   0  0  0  0  0  0  0  0  0  0  0  0
   15.9701  -16.9051    8.4281 O   0  0  0  0  0  0  0  0  0  0  0  0
   16.5503  -20.9745    8.8597 N   0  0  0  0  0  0  0  0  0  0  0  0
   17.8978  -21.0323    8.3547 C   0  0  0  0  0  0  0  0  0  0  0  0
   18.3280  -22.0549    7.8054 O   0  0  0  0  0  0  0  0  0  0  0  0
   18.7079  -19.8266    8.5305 C   0  0  0  0  0  0  0  0  0  0  0  0
   18.0242  -18.6525    9.1562 C   0  0  2  0  0  0  0  0  0  0  0  0
   18.1572  -17.5488    8.1894 N   0  0  0  0  0  0  0  0  0  0  0  0
   18.5053  -18.2606   10.4780 C   0  0  0  0  0  0  0  0  0  0  0  0
   19.4229  -17.4278   10.6512 O   0  0  0  0  0  0  0  0  0  0  0  0
   17.8850  -18.8683   11.5957 O   0  0  0  0  0  0  0  0  0  0  0  0
  2  3  1  0
  2  1  1  6
  4  8  1  0
  4  3  1  0
  5  4  2  0
  6  5  1  0
  6  7  1  0
  7  8  2  0
  9  2  1  0
 10  9  2  0
 11  9  1  0
 12 11  1  0
 13 14  1  0
 12 13  1  1
 14 15  2  0
 15 16  1  0
 17 16  1  0
 18 14  1  0
 18 17  2  0
 19 12  1  0
 19 26  1  0
 20 19  2  0
 22 21  1  0
 23 22  2  0
 24 22  1  0
 25 24  1  6
 25 27  1  0
 25 26  1  0
 27 29  1  0
 28 27  2  0
M  END
$$$$
