HHN.pdb
     RDKit          3D

 29 30  0  0  1  0  0  0  0  0999 V2000
   25.5314  -11.0371  -21.1171 N   0  0  0  0  0  0  0  0  0  0  0  0
   25.5685   -9.9220  -20.2219 C   0  0  1  0  0  0  0  0  0  0  0  0
   25.2252   -8.6256  -20.9700 C   0  0  0  0  0  0  0  0  0  0  0  0
   26.2034   -8.3440  -22.0298 C   0  0  0  0  0  0  0  0  0  0  0  0
   25.8850   -8.0544  -23.3384 C   0  0  0  0  0  0  0  0  0  0  0  0
   27.0442   -7.8514  -24.0274 N   0  0  0  0  0  0  0  0  0  0  0  0
   28.0709   -8.0142  -23.1517 C   0  0  0  0  0  0  0  0  0  0  0  0
   27.5458   -8.3100  -21.9554 N   0  0  0  0  0  0  0  0  0  0  0  0
   24.6230  -10.0493  -19.0919 C   0  0  0  0  0  0  0  0  0  0  0  0
   23.4119   -9.8359  -19.2846 O   0  0  0  0  0  0  0  0  0  0  0  0
   24.9996  -10.4046  -17.7733 N   0  0  0  0  0  0  0  0  0  0  0  0
   24.1027  -10.5456  -16.6905 C   0  0  1  0  0  0  0  0  0  0  0  0
   24.5444  -11.4011  -15.5524 C   0  0  0  0  0  0  0  0  0  0  0  0
   24.6586  -12.8247  -15.9745 C   0  0  0  0  0  0  0  0  0  0  0  0
   24.3848  -13.3853  -17.2070 C   0  0  0  0  0  0  0  0  0  0  0  0
   24.6165  -14.7150  -17.1833 N   0  0  0  0  0  0  0  0  0  0  0  0
   25.0361  -14.9959  -15.9384 C   0  0  0  0  0  0  0  0  0  0  0  0
   25.0664  -13.8755  -15.2043 N   0  0  0  0  0  0  0  0  0  0  0  0
   23.6994   -9.1979  -16.2013 C   0  0  0  0  0  0  0  0  0  0  0  0
   24.5582   -8.3107  -15.9642 O   0  0  0  0  0  0  0  0  0  0  0  0
   20.8627   -5.0065  -15.1288 N   0  0  0  0  0  0  0  0  0  0  0  0
   20.6225   -5.5805  -16.4276 C   0  0  0  0  0  0  0  0  0  0  0  0
   19.9687   -4.9687  -17.2825 O   0  0  0  0  0  0  0  0  0  0  0  0
   21.1912   -6.9076  -16.6647 C   0  0  0  0  0  0  0  0  0  0  0  0
   21.9122   -7.5363  -15.5149 C   0  0  2  0  0  0  0  0  0  0  0  0
   22.3346   -8.8671  -15.9854 N   0  0  0  0  0  0  0  0  0  0  0  0
   21.1652   -7.6287  -14.2637 C   0  0  0  0  0  0  0  0  0  0  0  0
   20.7559   -8.7127  -13.7914 O   0  0  0  0  0  0  0  0  0  0  0  0
   20.9077   -6.4186  -13.5761 O   0  0  0  0  0  0  0  0  0  0  0  0
  2  3  1  0
  2  1  1  6
  4  8  1  0
  4  3  1  0
  5  4  2  0
  6  5  1  0
  6  7  1  0
  7  8  2  0
  9  2  1  0
 10  9  2  0
 11  9  1  0
 12 11  1  0
 13 14  1  0
 12 13  1  1
 14 15  2  0
 15 16  1  0
 17 16  1  0
 18 14  1  0
 18 17  2  0
 19 12  1  0
 19 26  1  0
 20 19  2  0
 22 21  1  0
 23 22  2  0
 24 22  1  0
 25 24  1  6
 25 27  1  0
 25 26  1  0
 27 29  1  0
 28 27  2  0
M  END
$$$$
