HHN.pdb
     RDKit          3D

 29 30  0  0  1  0  0  0  0  0999 V2000
   18.2259  -13.7013  -17.3950 N   0  0  0  0  0  0  0  0  0  0  0  0
   18.4310  -12.8988  -16.2287 C   0  0  1  0  0  0  0  0  0  0  0  0
   19.8111  -13.1856  -15.6196 C   0  0  0  0  0  0  0  0  0  0  0  0
   19.9560  -14.6048  -15.2666 C   0  0  0  0  0  0  0  0  0  0  0  0
   19.1409  -15.2849  -14.3887 C   0  0  0  0  0  0  0  0  0  0  0  0
   19.5758  -16.5750  -14.3108 N   0  0  0  0  0  0  0  0  0  0  0  0
   20.6511  -16.6913  -15.1341 C   0  0  0  0  0  0  0  0  0  0  0  0
   20.8647  -15.4963  -15.7002 N   0  0  0  0  0  0  0  0  0  0  0  0
   18.3551  -11.4469  -16.4990 C   0  0  0  0  0  0  0  0  0  0  0  0
   19.0125  -10.9679  -17.4413 O   0  0  0  0  0  0  0  0  0  0  0  0
   17.5716  -10.5359  -15.7485 N   0  0  0  0  0  0  0  0  0  0  0  0
   17.4266   -9.1625  -16.0477 C   0  0  1  0  0  0  0  0  0  0  0  0
   16.0579   -8.5842  -15.9276 C   0  0  0  0  0  0  0  0  0  0  0  0
   15.1319   -9.2090  -16.9124 C   0  0  0  0  0  0  0  0  0  0  0  0
   14.8328   -8.8000  -18.1975 C   0  0  0  0  0  0  0  0  0  0  0  0
   13.9422   -9.6405  -18.7657 N   0  0  0  0  0  0  0  0  0  0  0  0
   13.6779  -10.5799  -17.8424 C   0  0  0  0  0  0  0  0  0  0  0  0
   14.3820  -10.3349  -16.7291 N   0  0  0  0  0  0  0  0  0  0  0  0
   18.3968   -8.3731  -15.2389 C   0  0  0  0  0  0  0  0  0  0  0  0
   18.6138   -8.6530  -14.0324 O   0  0  0  0  0  0  0  0  0  0  0  0
   22.1946   -5.0295  -14.0065 N   0  0  0  0  0  0  0  0  0  0  0  0
   22.5046   -5.8845  -15.1231 C   0  0  0  0  0  0  0  0  0  0  0  0
   23.6590   -5.9627  -15.5633 O   0  0  0  0  0  0  0  0  0  0  0  0
   21.3871   -6.6392  -15.6912 C   0  0  0  0  0  0  0  0  0  0  0  0
   20.0634   -6.4763  -15.0142 C   0  0  2  0  0  0  0  0  0  0  0  0
   19.1097   -7.2793  -15.7993 N   0  0  0  0  0  0  0  0  0  0  0  0
   19.5922   -5.1040  -14.8502 C   0  0  0  0  0  0  0  0  0  0  0  0
   18.8662   -4.5266  -15.6898 O   0  0  0  0  0  0  0  0  0  0  0  0
   19.9921   -4.4214  -13.6765 O   0  0  0  0  0  0  0  0  0  0  0  0
  2  3  1  0
  2  1  1  6
  4  8  1  0
  4  3  1  0
  5  4  2  0
  6  5  1  0
  6  7  1  0
  7  8  2  0
  9  2  1  0
 10  9  2  0
 11  9  1  0
 12 11  1  0
 13 14  1  0
 12 13  1  1
 14 15  2  0
 15 16  1  0
 17 16  1  0
 18 14  1  0
 18 17  2  0
 19 12  1  0
 19 26  1  0
 20 19  2  0
 22 21  1  0
 23 22  2  0
 24 22  1  0
 25 24  1  6
 25 27  1  0
 25 26  1  0
 27 29  1  0
 28 27  2  0
M  END
$$$$
