HHN.pdb
     RDKit          3D

 29 30  0  0  1  0  0  0  0  0999 V2000
   19.4428  -21.4956  -12.7293 N   0  0  0  0  0  0  0  0  0  0  0  0
   19.7462  -21.3818  -14.1226 C   0  0  1  0  0  0  0  0  0  0  0  0
   18.4824  -21.0196  -14.9160 C   0  0  0  0  0  0  0  0  0  0  0  0
   17.4490  -22.0554  -14.7788 C   0  0  0  0  0  0  0  0  0  0  0  0
   17.6747  -23.4107  -14.8773 C   0  0  0  0  0  0  0  0  0  0  0  0
   16.4881  -24.0578  -14.6962 N   0  0  0  0  0  0  0  0  0  0  0  0
   15.5366  -23.1100  -14.4873 C   0  0  0  0  0  0  0  0  0  0  0  0
   16.1332  -21.9119  -14.5405 N   0  0  0  0  0  0  0  0  0  0  0  0
   20.7673  -20.3529  -14.4151 C   0  0  0  0  0  0  0  0  0  0  0  0
   20.7111  -19.2558  -13.8297 O   0  0  0  0  0  0  0  0  0  0  0  0
   21.8318  -20.5244  -15.3340 N   0  0  0  0  0  0  0  0  0  0  0  0
   22.8308  -19.5604  -15.5975 C   0  0  1  0  0  0  0  0  0  0  0  0
   24.0302  -20.0179  -16.3553 C   0  0  0  0  0  0  0  0  0  0  0  0
   25.0755  -18.9575  -16.3805 C   0  0  0  0  0  0  0  0  0  0  0  0
   25.0143  -17.6714  -15.8801 C   0  0  0  0  0  0  0  0  0  0  0  0
   26.1761  -17.0214  -16.1036 N   0  0  0  0  0  0  0  0  0  0  0  0
   26.9716  -17.8941  -16.7444 C   0  0  0  0  0  0  0  0  0  0  0  0
   26.3271  -19.0559  -16.9169 N   0  0  0  0  0  0  0  0  0  0  0  0
   22.2163  -18.3777  -16.2623 C   0  0  0  0  0  0  0  0  0  0  0  0
   21.2120  -18.5028  -17.0085 O   0  0  0  0  0  0  0  0  0  0  0  0
   20.8614  -13.5442  -17.4317 N   0  0  0  0  0  0  0  0  0  0  0  0
   20.5654  -14.0381  -16.1117 C   0  0  0  0  0  0  0  0  0  0  0  0
   19.7912  -13.4279  -15.3629 O   0  0  0  0  0  0  0  0  0  0  0  0
   21.2271  -15.2838  -15.7225 C   0  0  0  0  0  0  0  0  0  0  0  0
   22.1526  -15.8872  -16.7308 C   0  0  2  0  0  0  0  0  0  0  0  0
   22.7406  -17.0701  -16.0782 N   0  0  0  0  0  0  0  0  0  0  0  0
   23.1879  -15.0037  -17.2596 C   0  0  0  0  0  0  0  0  0  0  0  0
   23.0822  -14.4066  -18.3540 O   0  0  0  0  0  0  0  0  0  0  0  0
   24.3537  -14.8352  -16.4747 O   0  0  0  0  0  0  0  0  0  0  0  0
  2  3  1  0
  2  1  1  1
  4  8  1  0
  4  3  1  0
  5  4  2  0
  6  5  1  0
  6  7  1  0
  7  8  2  0
  9  2  1  0
 10  9  2  0
 11  9  1  0
 12 11  1  0
 13 14  1  0
 12 13  1  6
 14 15  2  0
 15 16  1  0
 17 16  1  0
 18 14  1  0
 18 17  2  0
 19 12  1  0
 19 26  1  0
 20 19  2  0
 22 21  1  0
 23 22  2  0
 24 22  1  0
 25 24  1  1
 25 27  1  0
 25 26  1  0
 27 29  1  0
 28 27  2  0
M  END
$$$$
