HHN.pdb
     RDKit          3D

 29 30  0  0  1  0  0  0  0  0999 V2000
   14.1150  -11.1248  -11.8582 N   0  0  0  0  0  0  0  0  0  0  0  0
   15.4134  -10.6806  -11.4543 C   0  0  1  0  0  0  0  0  0  0  0  0
   16.4461  -10.9857  -12.5491 C   0  0  0  0  0  0  0  0  0  0  0  0
   16.5429  -12.4292  -12.8064 C   0  0  0  0  0  0  0  0  0  0  0  0
   16.7679  -13.3874  -11.8425 C   0  0  0  0  0  0  0  0  0  0  0  0
   16.7947  -14.6085  -12.4490 N   0  0  0  0  0  0  0  0  0  0  0  0
   16.5879  -14.4066  -13.7772 C   0  0  0  0  0  0  0  0  0  0  0  0
   16.4386  -13.0900  -13.9731 N   0  0  0  0  0  0  0  0  0  0  0  0
   15.4730   -9.2295  -11.1760 C   0  0  0  0  0  0  0  0  0  0  0  0
   15.0165   -8.4297  -12.0135 O   0  0  0  0  0  0  0  0  0  0  0  0
   16.0240   -8.6652   -9.9991 N   0  0  0  0  0  0  0  0  0  0  0  0
   16.0442   -7.2839   -9.7020 C   0  0  1  0  0  0  0  0  0  0  0  0
   15.5885   -6.8771   -8.3422 C   0  0  0  0  0  0  0  0  0  0  0  0
   14.1633   -7.2520   -8.1282 C   0  0  0  0  0  0  0  0  0  0  0  0
   13.6455   -8.4311   -7.6283 C   0  0  0  0  0  0  0  0  0  0  0  0
   12.2972   -8.3770   -7.5913 N   0  0  0  0  0  0  0  0  0  0  0  0
   11.9617   -7.1662   -8.0668 C   0  0  0  0  0  0  0  0  0  0  0  0
   13.0670   -6.4824   -8.3919 N   0  0  0  0  0  0  0  0  0  0  0  0
   17.4008   -6.7359   -9.9808 C   0  0  0  0  0  0  0  0  0  0  0  0
   18.2829   -6.7028   -9.0854 O   0  0  0  0  0  0  0  0  0  0  0  0
   21.7242   -5.2498  -12.2710 N   0  0  0  0  0  0  0  0  0  0  0  0
   21.3321   -6.6343  -12.2129 C   0  0  0  0  0  0  0  0  0  0  0  0
   22.1320   -7.5346  -12.4995 O   0  0  0  0  0  0  0  0  0  0  0  0
   19.9536   -6.9006  -11.8009 C   0  0  0  0  0  0  0  0  0  0  0  0
   19.0874   -5.7038  -11.5670 C   0  0  2  0  0  0  0  0  0  0  0  0
   17.7460   -6.2325  -11.2638 N   0  0  0  0  0  0  0  0  0  0  0  0
   19.0396   -4.7260  -12.6504 C   0  0  0  0  0  0  0  0  0  0  0  0
   19.9948   -3.9668  -12.9274 O   0  0  0  0  0  0  0  0  0  0  0  0
   17.8436   -4.6576  -13.4043 O   0  0  0  0  0  0  0  0  0  0  0  0
  2  3  1  0
  2  1  1  6
  4  8  1  0
  4  3  1  0
  5  4  2  0
  6  5  1  0
  6  7  1  0
  7  8  2  0
  9  2  1  0
 10  9  2  0
 11  9  1  0
 12 11  1  0
 13 14  1  0
 12 13  1  1
 14 15  2  0
 15 16  1  0
 17 16  1  0
 18 14  1  0
 18 17  2  0
 19 12  1  0
 19 26  1  0
 20 19  2  0
 22 21  1  0
 23 22  2  0
 24 22  1  0
 25 24  1  6
 25 27  1  0
 25 26  1  0
 27 29  1  0
 28 27  2  0
M  END
$$$$
