HHN.pdb
     RDKit          3D

 29 30  0  0  1  0  0  0  0  0999 V2000
   27.0791  -18.6798  -19.5509 N   0  0  0  0  0  0  0  0  0  0  0  0
   26.7300  -18.5598  -18.1689 C   0  0  1  0  0  0  0  0  0  0  0  0
   27.3692  -17.3012  -17.5644 C   0  0  0  0  0  0  0  0  0  0  0  0
   28.8282  -17.3047  -17.7401 C   0  0  0  0  0  0  0  0  0  0  0  0
   29.5381  -18.2760  -18.4112 C   0  0  0  0  0  0  0  0  0  0  0  0
   30.8607  -17.9468  -18.3698 N   0  0  0  0  0  0  0  0  0  0  0  0
   30.9675  -16.7813  -17.6786 C   0  0  0  0  0  0  0  0  0  0  0  0
   29.7350  -16.4105  -17.3079 N   0  0  0  0  0  0  0  0  0  0  0  0
   25.2714  -18.4732  -17.9411 C   0  0  0  0  0  0  0  0  0  0  0  0
   24.6967  -17.3785  -18.0852 O   0  0  0  0  0  0  0  0  0  0  0  0
   24.4572  -19.5687  -17.5617 N   0  0  0  0  0  0  0  0  0  0  0  0
   23.0506  -19.5205  -17.4359 C   0  0  1  0  0  0  0  0  0  0  0  0
   22.2507  -20.1065  -18.5490 C   0  0  0  0  0  0  0  0  0  0  0  0
   22.3170  -19.2417  -19.7597 C   0  0  0  0  0  0  0  0  0  0  0  0
   21.7164  -18.0176  -19.9813 C   0  0  0  0  0  0  0  0  0  0  0  0
   22.0240  -17.5562  -21.2120 N   0  0  0  0  0  0  0  0  0  0  0  0
   22.8178  -18.4861  -21.7688 C   0  0  0  0  0  0  0  0  0  0  0  0
   23.0018  -19.4997  -20.9121 N   0  0  0  0  0  0  0  0  0  0  0  0
   22.6476  -20.1219  -16.1342 C   0  0  0  0  0  0  0  0  0  0  0  0
   23.1240  -21.2214  -15.7532 O   0  0  0  0  0  0  0  0  0  0  0  0
   20.2983  -20.6027  -11.4681 N   0  0  0  0  0  0  0  0  0  0  0  0
   20.0924  -19.2528  -11.9255 C   0  0  0  0  0  0  0  0  0  0  0  0
   19.4871  -18.4296  -11.2265 O   0  0  0  0  0  0  0  0  0  0  0  0
   20.6351  -18.9256  -13.2444 C   0  0  0  0  0  0  0  0  0  0  0  0
   21.3339  -20.0324  -13.9681 C   0  0  2  0  0  0  0  0  0  0  0  0
   21.7138  -19.4775  -15.2790 N   0  0  0  0  0  0  0  0  0  0  0  0
   20.5827  -21.2757  -14.1161 C   0  0  0  0  0  0  0  0  0  0  0  0
   19.6450  -21.4137  -14.9330 O   0  0  0  0  0  0  0  0  0  0  0  0
   20.9561  -22.3572  -13.2828 O   0  0  0  0  0  0  0  0  0  0  0  0
  2  3  1  0
  2  1  1  6
  4  8  1  0
  4  3  1  0
  5  4  2  0
  6  5  1  0
  6  7  1  0
  7  8  2  0
  9  2  1  0
 10  9  2  0
 11  9  1  0
 12 11  1  0
 13 14  1  0
 12 13  1  6
 14 15  2  0
 15 16  1  0
 17 16  1  0
 18 14  1  0
 18 17  2  0
 19 12  1  0
 19 26  1  0
 20 19  2  0
 22 21  1  0
 23 22  2  0
 24 22  1  0
 25 24  1  6
 25 27  1  0
 25 26  1  0
 27 29  1  0
 28 27  2  0
M  END
$$$$
