HHN.pdb
     RDKit          3D

 29 30  0  0  1  0  0  0  0  0999 V2000
   33.2010  -35.5630   -6.9623 N   0  0  0  0  0  0  0  0  0  0  0  0
   33.2137  -36.1080   -5.6398 C   0  0  1  0  0  0  0  0  0  0  0  0
   34.5242  -35.7458   -4.9260 C   0  0  0  0  0  0  0  0  0  0  0  0
   35.4372  -36.8958   -4.8671 C   0  0  0  0  0  0  0  0  0  0  0  0
   35.1510  -38.1539   -5.3498 C   0  0  0  0  0  0  0  0  0  0  0  0
   36.2291  -38.9569   -5.1212 N   0  0  0  0  0  0  0  0  0  0  0  0
   37.1742  -38.2012   -4.5021 C   0  0  0  0  0  0  0  0  0  0  0  0
   36.6800  -36.9646   -4.3579 N   0  0  0  0  0  0  0  0  0  0  0  0
   32.0982  -35.6234   -4.7984 C   0  0  0  0  0  0  0  0  0  0  0  0
   31.9089  -34.3983   -4.6852 O   0  0  0  0  0  0  0  0  0  0  0  0
   31.2058  -36.4681   -4.0934 N   0  0  0  0  0  0  0  0  0  0  0  0
   30.1227  -36.0165   -3.3062 C   0  0  1  0  0  0  0  0  0  0  0  0
   28.7544  -36.4106   -3.7473 C   0  0  0  0  0  0  0  0  0  0  0  0
   28.3517  -35.6505   -4.9630 C   0  0  0  0  0  0  0  0  0  0  0  0
   28.9394  -34.5289   -5.5151 C   0  0  0  0  0  0  0  0  0  0  0  0
   28.2706  -34.1412   -6.6219 N   0  0  0  0  0  0  0  0  0  0  0  0
   27.2615  -35.0155   -6.7704 C   0  0  0  0  0  0  0  0  0  0  0  0
   27.2972  -35.9237   -5.7859 N   0  0  0  0  0  0  0  0  0  0  0  0
   30.3436  -36.4084   -1.8863 C   0  0  0  0  0  0  0  0  0  0  0  0
   30.6742  -37.5828   -1.5820 O   0  0  0  0  0  0  0  0  0  0  0  0
   33.0942  -36.0558    0.3248 N   0  0  0  0  0  0  0  0  0  0  0  0
   32.6299  -34.9026    1.0519 C   0  0  0  0  0  0  0  0  0  0  0  0
   33.4290  -34.0772    1.5131 O   0  0  0  0  0  0  0  0  0  0  0  0
   31.1806  -34.7740    1.2060 C   0  0  0  0  0  0  0  0  0  0  0  0
   30.3487  -35.8519    0.5868 C   0  0  2  0  0  0  0  0  0  0  0  0
   30.1895  -35.4730   -0.8281 N   0  0  0  0  0  0  0  0  0  0  0  0
   29.0559  -36.1050    1.2167 C   0  0  0  0  0  0  0  0  0  0  0  0
   28.9380  -36.6332    2.3448 O   0  0  0  0  0  0  0  0  0  0  0  0
   27.9008  -35.7241    0.4927 O   0  0  0  0  0  0  0  0  0  0  0  0
  2  3  1  0
  2  1  1  6
  4  8  1  0
  4  3  1  0
  5  4  2  0
  6  5  1  0
  6  7  1  0
  7  8  2  0
  9  2  1  0
 10  9  2  0
 11  9  1  0
 12 11  1  0
 13 14  1  0
 12 13  1  6
 14 15  2  0
 15 16  1  0
 17 16  1  0
 18 14  1  0
 18 17  2  0
 19 12  1  0
 19 26  1  0
 20 19  2  0
 22 21  1  0
 23 22  2  0
 24 22  1  0
 25 24  1  1
 25 27  1  0
 25 26  1  0
 27 29  1  0
 28 27  2  0
M  END
$$$$
