HHN.pdb
     RDKit          3D

 29 30  0  0  1  0  0  0  0  0999 V2000
   27.6979  -23.1558  -17.0201 N   0  0  0  0  0  0  0  0  0  0  0  0
   27.1637  -22.1891  -17.9291 C   0  0  1  0  0  0  0  0  0  0  0  0
   26.0034  -22.7955  -18.7317 C   0  0  0  0  0  0  0  0  0  0  0  0
   26.4721  -23.8613  -19.6282 C   0  0  0  0  0  0  0  0  0  0  0  0
   26.2489  -25.2070  -19.4356 C   0  0  0  0  0  0  0  0  0  0  0  0
   26.8285  -25.8898  -20.4639 N   0  0  0  0  0  0  0  0  0  0  0  0
   27.4054  -24.9734  -21.2856 C   0  0  0  0  0  0  0  0  0  0  0  0
   27.1806  -23.7591  -20.7667 N   0  0  0  0  0  0  0  0  0  0  0  0
   26.6545  -20.9746  -17.2562 C   0  0  0  0  0  0  0  0  0  0  0  0
   26.0579  -21.0856  -16.1695 O   0  0  0  0  0  0  0  0  0  0  0  0
   26.7974  -19.6608  -17.7669 N   0  0  0  0  0  0  0  0  0  0  0  0
   26.4043  -18.4860  -17.0872 C   0  0  1  0  0  0  0  0  0  0  0  0
   27.0663  -17.2142  -17.4948 C   0  0  0  0  0  0  0  0  0  0  0  0
   26.5482  -16.0690  -16.6960 C   0  0  0  0  0  0  0  0  0  0  0  0
   25.6520  -15.0877  -17.0728 C   0  0  0  0  0  0  0  0  0  0  0  0
   25.4394  -14.2261  -16.0556 N   0  0  0  0  0  0  0  0  0  0  0  0
   26.1994  -14.6608  -15.0367 C   0  0  0  0  0  0  0  0  0  0  0  0
   26.8681  -15.7619  -15.4048 N   0  0  0  0  0  0  0  0  0  0  0  0
   24.9230  -18.3455  -17.1549 C   0  0  0  0  0  0  0  0  0  0  0  0
   24.2778  -18.7582  -18.1521 O   0  0  0  0  0  0  0  0  0  0  0  0
   19.9720  -17.9051  -16.0192 N   0  0  0  0  0  0  0  0  0  0  0  0
   20.7314  -19.0072  -15.4876 C   0  0  0  0  0  0  0  0  0  0  0  0
   20.1655  -20.0183  -15.0518 O   0  0  0  0  0  0  0  0  0  0  0  0
   22.1867  -18.8554  -15.4966 C   0  0  0  0  0  0  0  0  0  0  0  0
   22.7209  -17.6128  -16.1352 C   0  0  2  0  0  0  0  0  0  0  0  0
   24.1881  -17.7421  -16.0992 N   0  0  0  0  0  0  0  0  0  0  0  0
   22.2850  -16.3506  -15.5444 C   0  0  0  0  0  0  0  0  0  0  0  0
   22.9445  -15.7409  -14.6733 O   0  0  0  0  0  0  0  0  0  0  0  0
   21.0552  -15.8173  -15.9988 O   0  0  0  0  0  0  0  0  0  0  0  0
  2  3  1  0
  2  1  1  1
  4  8  1  0
  4  3  1  0
  5  4  2  0
  6  5  1  0
  6  7  1  0
  7  8  2  0
  9  2  1  0
 10  9  2  0
 11  9  1  0
 12 11  1  0
 13 14  1  0
 12 13  1  6
 14 15  2  0
 15 16  1  0
 17 16  1  0
 18 14  1  0
 18 17  2  0
 19 12  1  0
 19 26  1  0
 20 19  2  0
 22 21  1  0
 23 22  2  0
 24 22  1  0
 25 24  1  1
 25 27  1  0
 25 26  1  0
 27 29  1  0
 28 27  2  0
M  END
$$$$
