SSH.pdb
     RDKit          3D

 23 23  0  0  1  0  0  0  0  0999 V2000
   28.7321  -18.5999  -16.0218 O   0  0  0  0  0  0  0  0  0  0  0  0
   27.5340  -19.2684  -15.7139 C   0  0  0  0  0  0  0  0  0  0  0  0
   27.9357  -20.5509  -15.0043 C   0  0  2  0  0  0  0  0  0  0  0  0
   28.4136  -21.4865  -15.9830 N   0  0  0  0  0  0  0  0  0  0  0  0
   26.7319  -21.1108  -14.3569 C   0  0  0  0  0  0  0  0  0  0  0  0
   25.9074  -21.7878  -15.0038 O   0  0  0  0  0  0  0  0  0  0  0  0
   25.7499  -20.0054  -10.4789 O   0  0  0  0  0  0  0  0  0  0  0  0
   25.4290  -21.2963  -10.8499 C   0  0  0  0  0  0  0  0  0  0  0  0
   25.2225  -21.3729  -12.3460 C   0  0  2  0  0  0  0  0  0  0  0  0
   26.4446  -20.9120  -12.9681 N   0  0  0  0  0  0  0  0  0  0  0  0
   24.1106  -20.5225  -12.8063 C   0  0  0  0  0  0  0  0  0  0  0  0
   24.2945  -19.3924  -13.3176 O   0  0  0  0  0  0  0  0  0  0  0  0
   22.7823  -20.9759  -12.6769 N   0  0  0  0  0  0  0  0  0  0  0  0
   21.7131  -20.1732  -13.2386 C   0  0  1  0  0  0  0  0  0  0  0  0
   21.7785  -20.0749  -14.7184 C   0  0  0  0  0  0  0  0  0  0  0  0
   20.6926  -19.2034  -15.2186 C   0  0  0  0  0  0  0  0  0  0  0  0
   20.7446  -17.8106  -15.3819 C   0  0  0  0  0  0  0  0  0  0  0  0
   19.5697  -17.3847  -15.8557 N   0  0  0  0  0  0  0  0  0  0  0  0
   18.7706  -18.4285  -16.0038 C   0  0  0  0  0  0  0  0  0  0  0  0
   19.4442  -19.5237  -15.6211 N   0  0  0  0  0  0  0  0  0  0  0  0
   20.4303  -20.7881  -12.8327 C   0  0  0  0  0  0  0  0  0  0  0  0
   20.2249  -22.0104  -12.7772 O   0  0  0  0  0  0  0  0  0  0  0  0
   19.3562  -19.9480  -12.4812 O   0  0  0  0  0  0  0  0  0  0  0  0
  1  2  1  0
  3  2  1  0
  3  5  1  0
  3  4  1  6
  5  6  2  0
  7  8  1  0
  9  8  1  1
  9 11  1  0
 10  9  1  0
 10  5  1  0
 11 13  1  0
 12 11  2  0
 13 14  1  0
 14 15  1  6
 15 16  1  0
 16 17  2  0
 16 20  1  0
 17 18  1  0
 18 19  1  0
 20 19  2  0
 21 23  1  0
 21 14  1  0
 22 21  2  0
M  END
$$$$
