SSH.pdb
     RDKit          3D

 23 23  0  0  1  0  0  0  0  0999 V2000
   20.1722  -11.5955  -21.3944 O   0  0  0  0  0  0  0  0  0  0  0  0
   19.7460  -10.9322  -20.2302 C   0  0  0  0  0  0  0  0  0  0  0  0
   20.8866  -11.0528  -19.2332 C   0  0  2  0  0  0  0  0  0  0  0  0
   20.9585  -12.4135  -18.7805 N   0  0  0  0  0  0  0  0  0  0  0  0
   20.5793  -10.1820  -18.0804 C   0  0  0  0  0  0  0  0  0  0  0  0
   19.6142  -10.4246  -17.3279 O   0  0  0  0  0  0  0  0  0  0  0  0
   21.7464   -7.5534  -14.4937 O   0  0  0  0  0  0  0  0  0  0  0  0
   21.9894   -8.4063  -15.5523 C   0  0  0  0  0  0  0  0  0  0  0  0
   21.0246   -8.1236  -16.6820 C   0  0  2  0  0  0  0  0  0  0  0  0
   21.3603   -9.0243  -17.7633 N   0  0  0  0  0  0  0  0  0  0  0  0
   21.1239   -6.7386  -17.1754 C   0  0  0  0  0  0  0  0  0  0  0  0
   22.0762   -6.3452  -17.8901 O   0  0  0  0  0  0  0  0  0  0  0  0
   20.1225   -5.8038  -16.8439 N   0  0  0  0  0  0  0  0  0  0  0  0
   20.1978   -4.4705  -17.4093 C   0  0  1  0  0  0  0  0  0  0  0  0
   18.8817   -3.9615  -17.8703 C   0  0  0  0  0  0  0  0  0  0  0  0
   18.3852   -4.7822  -18.9967 C   0  0  0  0  0  0  0  0  0  0  0  0
   17.4458   -5.8222  -18.9249 C   0  0  0  0  0  0  0  0  0  0  0  0
   17.2557   -6.3213  -20.1501 N   0  0  0  0  0  0  0  0  0  0  0  0
   18.0219   -5.6574  -21.0000 C   0  0  0  0  0  0  0  0  0  0  0  0
   18.7022   -4.7310  -20.3082 N   0  0  0  0  0  0  0  0  0  0  0  0
   20.7466   -3.5729  -16.3694 C   0  0  0  0  0  0  0  0  0  0  0  0
   21.0304   -3.9281  -15.2149 O   0  0  0  0  0  0  0  0  0  0  0  0
   20.9701   -2.2200  -16.6895 O   0  0  0  0  0  0  0  0  0  0  0  0
  1  2  1  0
  3  2  1  0
  3  5  1  0
  3  4  1  1
  5  6  2  0
  7  8  1  0
  9  8  1  1
  9 11  1  0
 10  9  1  0
 10  5  1  0
 11 13  1  0
 12 11  2  0
 13 14  1  0
 14 15  1  1
 15 16  1  0
 16 17  2  0
 16 20  1  0
 17 18  1  0
 18 19  1  0
 20 19  2  0
 21 23  1  0
 21 14  1  0
 22 21  2  0
M  END
$$$$
