SSH.pdb
     RDKit          3D

 23 23  0  0  1  0  0  0  0  0999 V2000
   18.3432  -15.4021  -13.6430 O   0  0  0  0  0  0  0  0  0  0  0  0
   19.0738  -14.5136  -14.4515 C   0  0  0  0  0  0  0  0  0  0  0  0
   18.1310  -14.0791  -15.5614 C   0  0  2  0  0  0  0  0  0  0  0  0
   18.0202  -15.1478  -16.5139 N   0  0  0  0  0  0  0  0  0  0  0  0
   18.7244  -12.9034  -16.2303 C   0  0  0  0  0  0  0  0  0  0  0  0
   19.5970  -13.0352  -17.1123 O   0  0  0  0  0  0  0  0  0  0  0  0
   18.1498   -8.5043  -17.8123 O   0  0  0  0  0  0  0  0  0  0  0  0
   17.7038   -9.6195  -17.1307 C   0  0  0  0  0  0  0  0  0  0  0  0
   18.8779  -10.4063  -16.5928 C   0  0  2  0  0  0  0  0  0  0  0  0
   18.3383  -11.5621  -15.9102 N   0  0  0  0  0  0  0  0  0  0  0  0
   19.6865   -9.6299  -15.6363 C   0  0  0  0  0  0  0  0  0  0  0  0
   19.3845   -9.5323  -14.4232 O   0  0  0  0  0  0  0  0  0  0  0  0
   20.8471   -8.9640  -16.0792 N   0  0  0  0  0  0  0  0  0  0  0  0
   21.5788   -8.1370  -15.1392 C   0  0  1  0  0  0  0  0  0  0  0  0
   23.0195   -8.0139  -15.4752 C   0  0  0  0  0  0  0  0  0  0  0  0
   23.6871   -9.3273  -15.3409 C   0  0  0  0  0  0  0  0  0  0  0  0
   23.1017  -10.5228  -14.8965 C   0  0  0  0  0  0  0  0  0  0  0  0
   24.0235  -11.4904  -14.9136 N   0  0  0  0  0  0  0  0  0  0  0  0
   25.1649  -10.9788  -15.3443 C   0  0  0  0  0  0  0  0  0  0  0  0
   24.9647   -9.6775  -15.6019 N   0  0  0  0  0  0  0  0  0  0  0  0
   20.9485   -6.7987  -15.1344 C   0  0  0  0  0  0  0  0  0  0  0  0
   20.0249   -6.4556  -15.8885 O   0  0  0  0  0  0  0  0  0  0  0  0
   21.4124   -5.8332  -14.2203 O   0  0  0  0  0  0  0  0  0  0  0  0
  1  2  1  0
  3  2  1  0
  3  5  1  0
  3  4  1  6
  5  6  2  0
  7  8  1  0
  9  8  1  1
  9 11  1  0
 10  9  1  0
 10  5  1  0
 11 13  1  0
 12 11  2  0
 13 14  1  0
 14 15  1  6
 15 16  1  0
 16 17  2  0
 16 20  1  0
 17 18  1  0
 18 19  1  0
 20 19  2  0
 21 23  1  0
 21 14  1  0
 22 21  2  0
M  END
$$$$
