SSH.pdb
     RDKit          3D

 23 23  0  0  1  0  0  0  0  0999 V2000
   13.5338  -12.0006   -9.2947 O   0  0  0  0  0  0  0  0  0  0  0  0
   13.9249  -10.8660  -10.0273 C   0  0  0  0  0  0  0  0  0  0  0  0
   13.7325   -9.6772   -9.1002 C   0  0  2  0  0  0  0  0  0  0  0  0
   12.3248   -9.4615   -8.9168 N   0  0  0  0  0  0  0  0  0  0  0  0
   14.3159   -8.4886   -9.7549 C   0  0  0  0  0  0  0  0  0  0  0  0
   13.7205   -7.9064  -10.6840 O   0  0  0  0  0  0  0  0  0  0  0  0
   17.0062   -6.1835   -7.8781 O   0  0  0  0  0  0  0  0  0  0  0  0
   16.3019   -5.7092   -8.9672 C   0  0  0  0  0  0  0  0  0  0  0  0
   16.1713   -6.7914  -10.0154 C   0  0  2  0  0  0  0  0  0  0  0  0
   15.5816   -7.9424   -9.3670 N   0  0  0  0  0  0  0  0  0  0  0  0
   17.4724   -7.1866  -10.5835 C   0  0  0  0  0  0  0  0  0  0  0  0
   18.2325   -8.0077  -10.0174 O   0  0  0  0  0  0  0  0  0  0  0  0
   17.8987   -6.6337  -11.8078 N   0  0  0  0  0  0  0  0  0  0  0  0
   19.0971   -7.1606  -12.4317 C   0  0  1  0  0  0  0  0  0  0  0  0
   18.8587   -8.4292  -13.1649 C   0  0  0  0  0  0  0  0  0  0  0  0
   20.1028   -8.8730  -13.8313 C   0  0  0  0  0  0  0  0  0  0  0  0
   21.3547   -8.2416  -13.7738 C   0  0  0  0  0  0  0  0  0  0  0  0
   22.2282   -8.9416  -14.5041 N   0  0  0  0  0  0  0  0  0  0  0  0
   21.6030   -9.9848  -15.0247 C   0  0  0  0  0  0  0  0  0  0  0  0
   20.3242   -9.9454  -14.6212 N   0  0  0  0  0  0  0  0  0  0  0  0
   19.6073   -6.1309  -13.3633 C   0  0  0  0  0  0  0  0  0  0  0  0
   18.8929   -5.3174  -13.9691 O   0  0  0  0  0  0  0  0  0  0  0  0
   20.9944   -6.0507  -13.5927 O   0  0  0  0  0  0  0  0  0  0  0  0
  1  2  1  0
  3  2  1  0
  3  5  1  0
  3  4  1  6
  5  6  2  0
  7  8  1  0
  9  8  1  1
  9 11  1  0
 10  9  1  0
 10  5  1  0
 11 13  1  0
 12 11  2  0
 13 14  1  0
 14 15  1  6
 15 16  1  0
 16 17  2  0
 16 20  1  0
 17 18  1  0
 18 19  1  0
 20 19  2  0
 21 23  1  0
 21 14  1  0
 22 21  2  0
M  END
$$$$
