SSH.pdb
     RDKit          3D

 23 23  0  0  1  0  0  0  0  0999 V2000
   22.9695  -15.0796  -20.0740 O   0  0  0  0  0  0  0  0  0  0  0  0
   22.7234  -13.9235  -19.3124 C   0  0  0  0  0  0  0  0  0  0  0  0
   24.0387  -13.5753  -18.6354 C   0  0  2  0  0  0  0  0  0  0  0  0
   24.3393  -14.5917  -17.6667 N   0  0  0  0  0  0  0  0  0  0  0  0
   23.8647  -12.2860  -17.9359 C   0  0  0  0  0  0  0  0  0  0  0  0
   23.1957  -12.2070  -16.8858 O   0  0  0  0  0  0  0  0  0  0  0  0
   26.5669   -9.0557  -18.1097 O   0  0  0  0  0  0  0  0  0  0  0  0
   25.2396   -8.8241  -18.4128 C   0  0  0  0  0  0  0  0  0  0  0  0
   24.3586   -9.8189  -17.6910 C   0  0  2  0  0  0  0  0  0  0  0  0
   24.4458  -11.0681  -18.4154 N   0  0  0  0  0  0  0  0  0  0  0  0
   22.9473   -9.3965  -17.6496 C   0  0  0  0  0  0  0  0  0  0  0  0
   22.2364   -9.3226  -18.6798 O   0  0  0  0  0  0  0  0  0  0  0  0
   22.3536   -9.0584  -16.4169 N   0  0  0  0  0  0  0  0  0  0  0  0
   20.9749   -8.6091  -16.4063 C   0  0  1  0  0  0  0  0  0  0  0  0
   20.1111   -9.4109  -15.5037 C   0  0  0  0  0  0  0  0  0  0  0  0
   18.7175   -8.9179  -15.5630 C   0  0  0  0  0  0  0  0  0  0  0  0
   18.0815   -8.3357  -16.6701 C   0  0  0  0  0  0  0  0  0  0  0  0
   16.8268   -8.0206  -16.3343 N   0  0  0  0  0  0  0  0  0  0  0  0
   16.6267   -8.3695  -15.0740 C   0  0  0  0  0  0  0  0  0  0  0  0
   17.7629   -8.9095  -14.6081 N   0  0  0  0  0  0  0  0  0  0  0  0
   20.9681   -7.1926  -15.9798 C   0  0  0  0  0  0  0  0  0  0  0  0
   21.8988   -6.6377  -15.3755 O   0  0  0  0  0  0  0  0  0  0  0  0
   19.8392   -6.4021  -16.2688 O   0  0  0  0  0  0  0  0  0  0  0  0
  1  2  1  0
  3  2  1  0
  3  5  1  0
  3  4  1  1
  5  6  2  0
  7  8  1  0
  9  8  1  6
  9 11  1  0
 10  9  1  0
 10  5  1  0
 11 13  1  0
 12 11  2  0
 13 14  1  0
 14 15  1  1
 15 16  1  0
 16 17  2  0
 16 20  1  0
 17 18  1  0
 18 19  1  0
 20 19  2  0
 21 23  1  0
 21 14  1  0
 22 21  2  0
M  END
$$$$
