SSH.pdb
     RDKit          3D

 23 23  0  0  1  0  0  0  0  0999 V2000
   18.8626  -11.4249  -19.5854 O   0  0  0  0  0  0  0  0  0  0  0  0
   20.2244  -11.6871  -19.3532 C   0  0  0  0  0  0  0  0  0  0  0  0
   20.2980  -12.3730  -17.9990 C   0  0  2  0  0  0  0  0  0  0  0  0
   19.4022  -13.4952  -18.0038 N   0  0  0  0  0  0  0  0  0  0  0  0
   19.8494  -11.4088  -16.9739 C   0  0  0  0  0  0  0  0  0  0  0  0
   18.6886  -11.4453  -16.5180 O   0  0  0  0  0  0  0  0  0  0  0  0
   22.5453   -9.0776  -15.0315 O   0  0  0  0  0  0  0  0  0  0  0  0
   21.2937   -9.2154  -14.4643 C   0  0  0  0  0  0  0  0  0  0  0  0
   20.2451   -9.3619  -15.5441 C   0  0  2  0  0  0  0  0  0  0  0  0
   20.7087  -10.3897  -16.4505 N   0  0  0  0  0  0  0  0  0  0  0  0
   20.0436   -8.1175  -16.3073 C   0  0  0  0  0  0  0  0  0  0  0  0
   20.6527   -7.8777  -17.3768 O   0  0  0  0  0  0  0  0  0  0  0  0
   19.1371   -7.1464  -15.8364 N   0  0  0  0  0  0  0  0  0  0  0  0
   18.9768   -5.9178  -16.5900 C   0  0  1  0  0  0  0  0  0  0  0  0
   17.6588   -5.2710  -16.3701 C   0  0  0  0  0  0  0  0  0  0  0  0
   17.4870   -4.1365  -17.3040 C   0  0  0  0  0  0  0  0  0  0  0  0
   18.2970   -3.8307  -18.4083 C   0  0  0  0  0  0  0  0  0  0  0  0
   17.8221   -2.7329  -19.0047 N   0  0  0  0  0  0  0  0  0  0  0  0
   16.7538   -2.3210  -18.3420 C   0  0  0  0  0  0  0  0  0  0  0  0
   16.5504   -3.1640  -17.3185 N   0  0  0  0  0  0  0  0  0  0  0  0
   20.0614   -4.9977  -16.1834 C   0  0  0  0  0  0  0  0  0  0  0  0
   20.7422   -5.1273  -15.1543 O   0  0  0  0  0  0  0  0  0  0  0  0
   20.3583   -3.8933  -17.0051 O   0  0  0  0  0  0  0  0  0  0  0  0
  1  2  1  0
  3  2  1  0
  3  5  1  0
  3  4  1  6
  5  6  2  0
  7  8  1  0
  9  8  1  1
  9 11  1  0
 10  9  1  0
 10  5  1  0
 11 13  1  0
 12 11  2  0
 13 14  1  0
 14 15  1  1
 15 16  1  0
 16 17  2  0
 16 20  1  0
 17 18  1  0
 18 19  1  0
 20 19  2  0
 21 23  1  0
 21 14  1  0
 22 21  2  0
M  END
$$$$
