SSH.pdb
     RDKit          3D

 23 23  0  0  1  0  0  0  0  0999 V2000
   17.9776  -11.0910  -19.3476 O   0  0  0  0  0  0  0  0  0  0  0  0
   18.0321  -10.8139  -17.9702 C   0  0  0  0  0  0  0  0  0  0  0  0
   19.4493  -11.1405  -17.5289 C   0  0  2  0  0  0  0  0  0  0  0  0
   19.5200  -12.5389  -17.2110 N   0  0  0  0  0  0  0  0  0  0  0  0
   19.7394  -10.3588  -16.3097 C   0  0  0  0  0  0  0  0  0  0  0  0
   19.0722  -10.5177  -15.2675 O   0  0  0  0  0  0  0  0  0  0  0  0
   22.9258   -8.3088  -13.5574 O   0  0  0  0  0  0  0  0  0  0  0  0
   22.5149   -9.0480  -14.6492 C   0  0  0  0  0  0  0  0  0  0  0  0
   21.1123   -8.6498  -15.0507 C   0  0  2  0  0  0  0  0  0  0  0  0
   20.7890   -9.3862  -16.2532 N   0  0  0  0  0  0  0  0  0  0  0  0
   20.9947   -7.2087  -15.3354 C   0  0  0  0  0  0  0  0  0  0  0  0
   21.3081   -6.7139  -16.4442 O   0  0  0  0  0  0  0  0  0  0  0  0
   20.5144   -6.3351  -14.3391 N   0  0  0  0  0  0  0  0  0  0  0  0
   20.5287   -4.9080  -14.5964 C   0  0  1  0  0  0  0  0  0  0  0  0
   19.3572   -4.2032  -14.0180 C   0  0  0  0  0  0  0  0  0  0  0  0
   19.4080   -2.7653  -14.3620 C   0  0  0  0  0  0  0  0  0  0  0  0
   19.0721   -2.1869  -15.5957 C   0  0  0  0  0  0  0  0  0  0  0  0
   19.2473   -0.8642  -15.5174 N   0  0  0  0  0  0  0  0  0  0  0  0
   19.6763   -0.5663  -14.3021 C   0  0  0  0  0  0  0  0  0  0  0  0
   19.7737   -1.7085  -13.6053 N   0  0  0  0  0  0  0  0  0  0  0  0
   21.7773   -4.3613  -14.0215 C   0  0  0  0  0  0  0  0  0  0  0  0
   22.3285   -4.7975  -12.9991 O   0  0  0  0  0  0  0  0  0  0  0  0
   22.3994   -3.2723  -14.6618 O   0  0  0  0  0  0  0  0  0  0  0  0
  1  2  1  0
  3  2  1  0
  3  5  1  0
  3  4  1  1
  5  6  2  0
  7  8  1  0
  9  8  1  6
  9 11  1  0
 10  9  1  0
 10  5  1  0
 11 13  1  0
 12 11  2  0
 13 14  1  0
 14 15  1  1
 15 16  1  0
 16 17  2  0
 16 20  1  0
 17 18  1  0
 18 19  1  0
 20 19  2  0
 21 23  1  0
 21 14  1  0
 22 21  2  0
M  END
$$$$
