SSH.pdb
     RDKit          3D

 23 23  0  0  1  0  0  0  0  0999 V2000
   28.2462  -14.6930  -18.3878 O   0  0  0  0  0  0  0  0  0  0  0  0
   27.4539  -14.7476  -19.5481 C   0  0  0  0  0  0  0  0  0  0  0  0
   28.3837  -14.4386  -20.7099 C   0  0  2  0  0  0  0  0  0  0  0  0
   29.4742  -15.3724  -20.6857 N   0  0  0  0  0  0  0  0  0  0  0  0
   28.9186  -13.0754  -20.5164 C   0  0  0  0  0  0  0  0  0  0  0  0
   30.1463  -12.8546  -20.5417 O   0  0  0  0  0  0  0  0  0  0  0  0
   27.7645   -8.3517  -20.1993 O   0  0  0  0  0  0  0  0  0  0  0  0
   27.3638   -9.6731  -20.1793 C   0  0  0  0  0  0  0  0  0  0  0  0
   28.5675  -10.5845  -20.2661 C   0  0  2  0  0  0  0  0  0  0  0  0
   28.0711  -11.9432  -20.2915 N   0  0  0  0  0  0  0  0  0  0  0  0
   29.4721  -10.4356  -19.1123 C   0  0  0  0  0  0  0  0  0  0  0  0
   29.3366  -11.1041  -18.0601 O   0  0  0  0  0  0  0  0  0  0  0  0
   30.5362   -9.5133  -19.1714 N   0  0  0  0  0  0  0  0  0  0  0  0
   31.3767   -9.3418  -18.0022 C   0  0  1  0  0  0  0  0  0  0  0  0
   32.8225   -9.5001  -18.2997 C   0  0  0  0  0  0  0  0  0  0  0  0
   33.6238   -9.2323  -17.0853 C   0  0  0  0  0  0  0  0  0  0  0  0
   33.9282  -10.1458  -16.0644 C   0  0  0  0  0  0  0  0  0  0  0  0
   34.6718   -9.5314  -15.1392 N   0  0  0  0  0  0  0  0  0  0  0  0
   34.8589   -8.2763  -15.5130 C   0  0  0  0  0  0  0  0  0  0  0  0
   34.2293   -8.0942  -16.6836 N   0  0  0  0  0  0  0  0  0  0  0  0
   31.1210   -7.9891  -17.4607 C   0  0  0  0  0  0  0  0  0  0  0  0
   31.3976   -7.6324  -16.3050 O   0  0  0  0  0  0  0  0  0  0  0  0
   30.5240   -7.0253  -18.2960 O   0  0  0  0  0  0  0  0  0  0  0  0
  1  2  1  0
  3  2  1  0
  3  5  1  0
  3  4  1  1
  5  6  2  0
  7  8  1  0
  9  8  1  1
  9 11  1  0
 10  9  1  0
 10  5  1  0
 11 13  1  0
 12 11  2  0
 13 14  1  0
 14 15  1  6
 15 16  1  0
 16 17  2  0
 16 20  1  0
 17 18  1  0
 18 19  1  0
 20 19  2  0
 21 23  1  0
 21 14  1  0
 22 21  2  0
M  END
$$$$
