SSH.pdb
     RDKit          3D

 23 23  0  0  1  0  0  0  0  0999 V2000
   15.9124  -10.2692  -16.0654 O   0  0  0  0  0  0  0  0  0  0  0  0
   16.9295  -10.3918  -17.0285 C   0  0  0  0  0  0  0  0  0  0  0  0
   18.0594  -11.1534  -16.3555 C   0  0  2  0  0  0  0  0  0  0  0  0
   17.5124  -12.3189  -15.7199 N   0  0  0  0  0  0  0  0  0  0  0  0
   18.6478  -10.2779  -15.3216 C   0  0  0  0  0  0  0  0  0  0  0  0
   18.0793  -10.1026  -14.2249 O   0  0  0  0  0  0  0  0  0  0  0  0
   22.5447   -9.5509  -15.3349 O   0  0  0  0  0  0  0  0  0  0  0  0
   21.8355   -9.3070  -14.1752 C   0  0  0  0  0  0  0  0  0  0  0  0
   20.4758   -8.7338  -14.5061 C   0  0  2  0  0  0  0  0  0  0  0  0
   19.8881   -9.5885  -15.5146 N   0  0  0  0  0  0  0  0  0  0  0  0
   20.5563   -7.3627  -15.0401 C   0  0  0  0  0  0  0  0  0  0  0  0
   20.6714   -7.1233  -16.2656 O   0  0  0  0  0  0  0  0  0  0  0  0
   20.5041   -6.2639  -14.1589 N   0  0  0  0  0  0  0  0  0  0  0  0
   20.6767   -4.9286  -14.6975 C   0  0  1  0  0  0  0  0  0  0  0  0
   20.1221   -3.8717  -13.8149 C   0  0  0  0  0  0  0  0  0  0  0  0
   20.2761   -2.5451  -14.4513 C   0  0  0  0  0  0  0  0  0  0  0  0
   21.2255   -1.5647  -14.1247 C   0  0  0  0  0  0  0  0  0  0  0  0
   21.0473   -0.5054  -14.9201 N   0  0  0  0  0  0  0  0  0  0  0  0
   20.0367   -0.7554  -15.7363 C   0  0  0  0  0  0  0  0  0  0  0  0
   19.5713   -1.9820  -15.4559 N   0  0  0  0  0  0  0  0  0  0  0  0
   22.1262   -4.7084  -14.8943 C   0  0  0  0  0  0  0  0  0  0  0  0
   22.9986   -4.9933  -14.0594 O   0  0  0  0  0  0  0  0  0  0  0  0
   22.5681   -4.1381  -16.1036 O   0  0  0  0  0  0  0  0  0  0  0  0
  1  2  1  0
  3  2  1  0
  3  5  1  0
  3  4  1  1
  5  6  2  0
  7  8  1  0
  9  8  1  6
  9 11  1  0
 10  9  1  0
 10  5  1  0
 11 13  1  0
 12 11  2  0
 13 14  1  0
 14 15  1  1
 15 16  1  0
 16 17  2  0
 16 20  1  0
 17 18  1  0
 18 19  1  0
 20 19  2  0
 21 23  1  0
 21 14  1  0
 22 21  2  0
M  END
$$$$
