SSH.pdb
     RDKit          3D

 23 23  0  0  1  0  0  0  0  0999 V2000
   27.8585  -14.7296  -18.6866 O   0  0  0  0  0  0  0  0  0  0  0  0
   26.9651  -13.7749  -19.2037 C   0  0  0  0  0  0  0  0  0  0  0  0
   26.7431  -12.7595  -18.0949 C   0  0  2  0  0  0  0  0  0  0  0  0
   28.0142  -12.2113  -17.7135 N   0  0  0  0  0  0  0  0  0  0  0  0
   26.1623  -13.4682  -16.9364 C   0  0  0  0  0  0  0  0  0  0  0  0
   26.8592  -13.7617  -15.9440 O   0  0  0  0  0  0  0  0  0  0  0  0
   22.4675  -12.8070  -15.6838 O   0  0  0  0  0  0  0  0  0  0  0  0
   23.5072  -13.3360  -14.9445 C   0  0  0  0  0  0  0  0  0  0  0  0
   24.1798  -14.4508  -15.7138 C   0  0  2  0  0  0  0  0  0  0  0  0
   24.7843  -13.8546  -16.8851 N   0  0  0  0  0  0  0  0  0  0  0  0
   23.2287  -15.4880  -16.1513 C   0  0  0  0  0  0  0  0  0  0  0  0
   22.5802  -15.3985  -17.2208 O   0  0  0  0  0  0  0  0  0  0  0  0
   23.0245  -16.6319  -15.3538 N   0  0  0  0  0  0  0  0  0  0  0  0
   22.1054  -17.6524  -15.8196 C   0  0  1  0  0  0  0  0  0  0  0  0
   22.6258  -19.0300  -15.6321 C   0  0  0  0  0  0  0  0  0  0  0  0
   23.6933  -19.3090  -16.6176 C   0  0  0  0  0  0  0  0  0  0  0  0
   24.1453  -18.4476  -17.6290 C   0  0  0  0  0  0  0  0  0  0  0  0
   25.1191  -19.0551  -18.3139 N   0  0  0  0  0  0  0  0  0  0  0  0
   25.3136  -20.2566  -17.7956 C   0  0  0  0  0  0  0  0  0  0  0  0
   24.4569  -20.4114  -16.7750 N   0  0  0  0  0  0  0  0  0  0  0  0
   20.8383  -17.4887  -15.0739 C   0  0  0  0  0  0  0  0  0  0  0  0
   19.8207  -18.1733  -15.2616 O   0  0  0  0  0  0  0  0  0  0  0  0
   20.7595  -16.4950  -14.0794 O   0  0  0  0  0  0  0  0  0  0  0  0
  1  2  1  0
  3  2  1  0
  3  5  1  0
  3  4  1  1
  5  6  2  0
  7  8  1  0
  9  8  1  6
  9 11  1  0
 10  9  1  0
 10  5  1  0
 11 13  1  0
 12 11  2  0
 13 14  1  0
 14 15  1  1
 15 16  1  0
 16 17  2  0
 16 20  1  0
 17 18  1  0
 18 19  1  0
 20 19  2  0
 21 23  1  0
 21 14  1  0
 22 21  2  0
M  END
$$$$
