SSH.pdb
     RDKit          3D

 23 23  0  0  1  0  0  0  0  0999 V2000
   26.5476  -17.8577  -15.7505 O   0  0  0  0  0  0  0  0  0  0  0  0
   27.4292  -17.9972  -14.6641 C   0  0  0  0  0  0  0  0  0  0  0  0
   27.8572  -19.4554  -14.6515 C   0  0  2  0  0  0  0  0  0  0  0  0
   28.1926  -19.8468  -15.9916 N   0  0  0  0  0  0  0  0  0  0  0  0
   26.7100  -20.2639  -14.1913 C   0  0  0  0  0  0  0  0  0  0  0  0
   25.9977  -20.8922  -15.0003 O   0  0  0  0  0  0  0  0  0  0  0  0
   25.5379  -20.0567  -10.2703 O   0  0  0  0  0  0  0  0  0  0  0  0
   25.3734  -21.3004  -10.8477 C   0  0  0  0  0  0  0  0  0  0  0  0
   25.2338  -21.1648  -12.3474 C   0  0  2  0  0  0  0  0  0  0  0  0
   26.3529  -20.3724  -12.8087 N   0  0  0  0  0  0  0  0  0  0  0  0
   23.9848  -20.4878  -12.7387 C   0  0  0  0  0  0  0  0  0  0  0  0
   23.8524  -19.2416  -12.6948 O   0  0  0  0  0  0  0  0  0  0  0  0
   22.8849  -21.2494  -13.1822 N   0  0  0  0  0  0  0  0  0  0  0  0
   21.6424  -20.5675  -13.4894 C   0  0  1  0  0  0  0  0  0  0  0  0
   21.0891  -20.9408  -14.8154 C   0  0  0  0  0  0  0  0  0  0  0  0
   21.8334  -20.2484  -15.8902 C   0  0  0  0  0  0  0  0  0  0  0  0
   22.8216  -19.2657  -15.7257 C   0  0  0  0  0  0  0  0  0  0  0  0
   23.2579  -18.8825  -16.9295 N   0  0  0  0  0  0  0  0  0  0  0  0
   22.6029  -19.5663  -17.8534 C   0  0  0  0  0  0  0  0  0  0  0  0
   21.7454  -20.3885  -17.2303 N   0  0  0  0  0  0  0  0  0  0  0  0
   20.6706  -20.9061  -12.4268 C   0  0  0  0  0  0  0  0  0  0  0  0
   19.6973  -20.2020  -12.1161 O   0  0  0  0  0  0  0  0  0  0  0  0
   20.8424  -22.1038  -11.7063 O   0  0  0  0  0  0  0  0  0  0  0  0
  1  2  1  0
  3  2  1  0
  3  5  1  0
  3  4  1  6
  5  6  2  0
  7  8  1  0
  9  8  1  1
  9 11  1  0
 10  9  1  0
 10  5  1  0
 11 13  1  0
 12 11  2  0
 13 14  1  0
 14 15  1  6
 15 16  1  0
 16 17  2  0
 16 20  1  0
 17 18  1  0
 18 19  1  0
 20 19  2  0
 21 23  1  0
 21 14  1  0
 22 21  2  0
M  END
$$$$
