MHC.pdb
     RDKit          3D

 25 25  0  0  1  0  0  0  0  0999 V2000
   20.9350  -27.4874  -10.9898 C   0  0  0  0  0  0  0  0  0  0  0  0
   21.1977  -28.8912   -9.8950 S   0  0  0  0  0  0  0  0  0  0  0  0
   22.3207  -30.0854  -10.6471 C   0  0  0  0  0  0  0  0  0  0  0  0
   22.6803  -31.1958   -9.6784 C   0  0  0  0  0  0  0  0  0  0  0  0
   23.6535  -32.1647  -10.3472 C   0  0  2  0  0  0  0  0  0  0  0  0
   22.9326  -32.9466  -11.3341 N   0  0  0  0  0  0  0  0  0  0  0  0
   24.2735  -33.0378   -9.3112 C   0  0  0  0  0  0  0  0  0  0  0  0
   23.5772  -34.0175   -8.8929 O   0  0  0  0  0  0  0  0  0  0  0  0
   25.5727  -32.7742   -8.8291 N   0  0  0  0  0  0  0  0  0  0  0  0
   26.1101  -33.6238   -7.7810 C   0  0  1  0  0  0  0  0  0  0  0  0
   27.5394  -33.9720   -8.0347 C   0  0  0  0  0  0  0  0  0  0  0  0
   27.7343  -34.9131   -9.1518 C   0  0  0  0  0  0  0  0  0  0  0  0
   26.7703  -35.6395   -9.8463 C   0  0  0  0  0  0  0  0  0  0  0  0
   27.3752  -36.3853  -10.7625 N   0  0  0  0  0  0  0  0  0  0  0  0
   28.6960  -36.1864  -10.7066 C   0  0  0  0  0  0  0  0  0  0  0  0
   28.9131  -35.2924   -9.7285 N   0  0  0  0  0  0  0  0  0  0  0  0
   25.9571  -33.0056   -6.4483 C   0  0  0  0  0  0  0  0  0  0  0  0
   26.3286  -31.8270   -6.2680 O   0  0  0  0  0  0  0  0  0  0  0  0
   25.3982  -33.7005   -5.3477 N   0  0  0  0  0  0  0  0  0  0  0  0
   25.2176  -33.0147   -4.1003 C   0  0  1  0  0  0  0  0  0  0  0  0
   23.7645  -32.8783   -3.7077 C   0  0  0  0  0  0  0  0  0  0  0  0
   23.0782  -34.5525   -3.5634 S   0  0  0  0  0  0  0  0  0  0  0  0
   26.0179  -33.6551   -3.0294 C   0  0  0  0  0  0  0  0  0  0  0  0
   26.6647  -34.8514   -3.2233 O   0  0  0  0  0  0  0  0  0  0  0  0
   26.1138  -33.0965   -1.9103 O   0  0  0  0  0  0  0  0  0  0  0  0
  2  1  1  0
  2  3  1  0
  3  4  1  0
  4  5  1  0
  5  7  1  0
  5  6  1  6
  7  9  1  0
  8  7  2  0
  9 10  1  0
 10 11  1  6
 11 12  1  0
 12 13  2  0
 12 16  1  0
 13 14  1  0
 14 15  1  0
 16 15  2  0
 17 19  1  0
 17 10  1  0
 18 17  2  0
 20 19  1  0
 20 23  1  0
 20 21  1  1
 22 21  1  0
 23 24  1  0
 25 23  2  0
M  END
$$$$
