MHC.pdb
     RDKit          3D

 25 25  0  0  1  0  0  0  0  0999 V2000
   27.5833  -11.3925  -15.5274 C   0  0  0  0  0  0  0  0  0  0  0  0
   26.4671  -12.6835  -14.9568 S   0  0  0  0  0  0  0  0  0  0  0  0
   25.1425  -12.9548  -16.1504 C   0  0  0  0  0  0  0  0  0  0  0  0
   24.2523  -11.7334  -16.2790 C   0  0  0  0  0  0  0  0  0  0  0  0
   22.7939  -12.1718  -16.3978 C   0  0  2  0  0  0  0  0  0  0  0  0
   22.6406  -12.9690  -17.6003 N   0  0  0  0  0  0  0  0  0  0  0  0
   21.9161  -10.9684  -16.4293 C   0  0  0  0  0  0  0  0  0  0  0  0
   21.9160  -10.2844  -17.5025 O   0  0  0  0  0  0  0  0  0  0  0  0
   21.1293  -10.6199  -15.3115 N   0  0  0  0  0  0  0  0  0  0  0  0
   20.2870   -9.4398  -15.3960 C   0  0  1  0  0  0  0  0  0  0  0  0
   18.9426   -9.6799  -14.7929 C   0  0  0  0  0  0  0  0  0  0  0  0
   18.0572  -10.5149  -15.6238 C   0  0  0  0  0  0  0  0  0  0  0  0
   18.2703  -10.9721  -16.9218 C   0  0  0  0  0  0  0  0  0  0  0  0
   17.2117  -11.6738  -17.3067 N   0  0  0  0  0  0  0  0  0  0  0  0
   16.3067  -11.7024  -16.3231 C   0  0  0  0  0  0  0  0  0  0  0  0
   16.8209  -10.9985  -15.3017 N   0  0  0  0  0  0  0  0  0  0  0  0
   20.9316   -8.2662  -14.7723 C   0  0  0  0  0  0  0  0  0  0  0  0
   21.7359   -8.4310  -13.8313 O   0  0  0  0  0  0  0  0  0  0  0  0
   20.6747   -6.9408  -15.2009 N   0  0  0  0  0  0  0  0  0  0  0  0
   21.4215   -5.8582  -14.6271 C   0  0  1  0  0  0  0  0  0  0  0  0
   22.6525   -5.5017  -15.4282 C   0  0  0  0  0  0  0  0  0  0  0  0
   23.3516   -3.9880  -14.7110 S   0  0  0  0  0  0  0  0  0  0  0  0
   20.5501   -4.6796  -14.4057 C   0  0  0  0  0  0  0  0  0  0  0  0
   20.7687   -3.7986  -13.3746 O   0  0  0  0  0  0  0  0  0  0  0  0
   19.5826   -4.4717  -15.1766 O   0  0  0  0  0  0  0  0  0  0  0  0
  2  1  1  0
  2  3  1  0
  3  4  1  0
  4  5  1  0
  5  7  1  0
  5  6  1  6
  7  9  1  0
  8  7  2  0
  9 10  1  0
 10 11  1  1
 11 12  1  0
 12 13  2  0
 12 16  1  0
 13 14  1  0
 14 15  1  0
 16 15  2  0
 17 19  1  0
 17 10  1  0
 18 17  2  0
 20 19  1  0
 20 23  1  0
 20 21  1  6
 22 21  1  0
 23 24  1  0
 25 23  2  0
M  END
$$$$
