MHC.pdb
     RDKit          3D

 25 25  0  0  1  0  0  0  0  0999 V2000
   28.3442  -11.1792  -16.1383 C   0  0  0  0  0  0  0  0  0  0  0  0
   28.0899  -12.8702  -15.5779 S   0  0  0  0  0  0  0  0  0  0  0  0
   26.3439  -13.3144  -15.6626 C   0  0  0  0  0  0  0  0  0  0  0  0
   25.4717  -12.0955  -15.8961 C   0  0  0  0  0  0  0  0  0  0  0  0
   24.0168  -12.5302  -16.0622 C   0  0  2  0  0  0  0  0  0  0  0  0
   23.9149  -13.3918  -17.2250 N   0  0  0  0  0  0  0  0  0  0  0  0
   23.1528  -11.3246  -16.2033 C   0  0  0  0  0  0  0  0  0  0  0  0
   23.1878  -10.7196  -17.3224 O   0  0  0  0  0  0  0  0  0  0  0  0
   22.3412  -10.8896  -15.1346 N   0  0  0  0  0  0  0  0  0  0  0  0
   21.4563   -9.7584  -15.3504 C   0  0  1  0  0  0  0  0  0  0  0  0
   20.0843  -10.0261  -14.8263 C   0  0  0  0  0  0  0  0  0  0  0  0
   19.3697  -11.0952  -15.5457 C   0  0  0  0  0  0  0  0  0  0  0  0
   19.1861  -11.2380  -16.9188 C   0  0  0  0  0  0  0  0  0  0  0  0
   18.4638  -12.3287  -17.1421 N   0  0  0  0  0  0  0  0  0  0  0  0
   18.1601  -12.9152  -15.9797 C   0  0  0  0  0  0  0  0  0  0  0  0
   18.7106  -12.1657  -15.0111 N   0  0  0  0  0  0  0  0  0  0  0  0
   22.0033   -8.5201  -14.7595 C   0  0  0  0  0  0  0  0  0  0  0  0
   22.2956   -8.4919  -13.5457 O   0  0  0  0  0  0  0  0  0  0  0  0
   22.2152   -7.3441  -15.5202 N   0  0  0  0  0  0  0  0  0  0  0  0
   22.8100   -6.1982  -14.8939 C   0  0  1  0  0  0  0  0  0  0  0  0
   23.8747   -5.5471  -15.7463 C   0  0  0  0  0  0  0  0  0  0  0  0
   24.6448   -6.8500  -16.7482 S   0  0  0  0  0  0  0  0  0  0  0  0
   21.7689   -5.2279  -14.4794 C   0  0  0  0  0  0  0  0  0  0  0  0
   20.4531   -5.3741  -14.8460 O   0  0  0  0  0  0  0  0  0  0  0  0
   22.0882   -4.2414  -13.7734 O   0  0  0  0  0  0  0  0  0  0  0  0
  2  1  1  0
  2  3  1  0
  3  4  1  0
  4  5  1  0
  5  7  1  0
  5  6  1  6
  7  9  1  0
  8  7  2  0
  9 10  1  0
 10 11  1  1
 11 12  1  0
 12 13  2  0
 12 16  1  0
 13 14  1  0
 14 15  1  0
 16 15  2  0
 17 19  1  0
 17 10  1  0
 18 17  2  0
 20 19  1  0
 20 23  1  0
 20 21  1  6
 22 21  1  0
 23 24  1  0
 25 23  2  0
M  END
$$$$
