MHC.pdb
     RDKit          3D

 25 25  0  0  1  0  0  0  0  0999 V2000
   28.1970  -17.8958   -6.2326 C   0  0  0  0  0  0  0  0  0  0  0  0
   28.6177  -19.5579   -6.7792 S   0  0  0  0  0  0  0  0  0  0  0  0
   27.1289  -20.4933   -7.1806 C   0  0  0  0  0  0  0  0  0  0  0  0
   26.4480  -19.9475   -8.4213 C   0  0  0  0  0  0  0  0  0  0  0  0
   26.2400  -21.0752   -9.4304 C   0  0  2  0  0  0  0  0  0  0  0  0
   27.5299  -21.6497   -9.7638 N   0  0  0  0  0  0  0  0  0  0  0  0
   25.5569  -20.5374  -10.6403 C   0  0  0  0  0  0  0  0  0  0  0  0
   24.5526  -19.7804  -10.4450 O   0  0  0  0  0  0  0  0  0  0  0  0
   26.0166  -20.8638  -11.9334 N   0  0  0  0  0  0  0  0  0  0  0  0
   25.3817  -20.2313  -13.0763 C   0  0  1  0  0  0  0  0  0  0  0  0
   26.2221  -20.3458  -14.3048 C   0  0  0  0  0  0  0  0  0  0  0  0
   25.6534  -19.6652  -15.4815 C   0  0  0  0  0  0  0  0  0  0  0  0
   25.6159  -18.3001  -15.7544 C   0  0  0  0  0  0  0  0  0  0  0  0
   24.9921  -18.1126  -16.9107 N   0  0  0  0  0  0  0  0  0  0  0  0
   24.6143  -19.2911  -17.4164 C   0  0  0  0  0  0  0  0  0  0  0  0
   25.0163  -20.2331  -16.5481 N   0  0  0  0  0  0  0  0  0  0  0  0
   24.0318  -20.7791  -13.3201 C   0  0  0  0  0  0  0  0  0  0  0  0
   23.8092  -21.9897  -13.1087 O   0  0  0  0  0  0  0  0  0  0  0  0
   22.9607  -19.9800  -13.7901 N   0  0  0  0  0  0  0  0  0  0  0  0
   21.6785  -20.5834  -14.0155 C   0  0  1  0  0  0  0  0  0  0  0  0
   21.0113  -21.0435  -12.7398 C   0  0  0  0  0  0  0  0  0  0  0  0
   20.6335  -19.5650  -11.7570 S   0  0  0  0  0  0  0  0  0  0  0  0
   20.8032  -19.6779  -14.7972 C   0  0  0  0  0  0  0  0  0  0  0  0
   19.5779  -20.0814  -15.2692 O   0  0  0  0  0  0  0  0  0  0  0  0
   21.1831  -18.5073  -15.0402 O   0  0  0  0  0  0  0  0  0  0  0  0
  2  1  1  0
  2  3  1  0
  3  4  1  0
  4  5  1  0
  5  7  1  0
  5  6  1  6
  7  9  1  0
  8  7  2  0
  9 10  1  0
 10 11  1  6
 11 12  1  0
 12 13  2  0
 12 16  1  0
 13 14  1  0
 14 15  1  0
 16 15  2  0
 17 19  1  0
 17 10  1  0
 18 17  2  0
 20 19  1  0
 20 23  1  0
 20 21  1  1
 22 21  1  0
 23 24  1  0
 25 23  2  0
M  END
$$$$
