MHC.pdb
     RDKit          3D

 25 25  0  0  1  0  0  0  0  0999 V2000
   29.5507  -13.8088  -18.2487 C   0  0  0  0  0  0  0  0  0  0  0  0
   29.6566  -15.5735  -17.9133 S   0  0  0  0  0  0  0  0  0  0  0  0
   28.0616  -16.3710  -18.1836 C   0  0  0  0  0  0  0  0  0  0  0  0
   27.1984  -16.3224  -16.9372 C   0  0  0  0  0  0  0  0  0  0  0  0
   25.8337  -16.9411  -17.2341 C   0  0  2  0  0  0  0  0  0  0  0  0
   24.9728  -15.9241  -17.8080 N   0  0  0  0  0  0  0  0  0  0  0  0
   25.2565  -17.4938  -15.9767 C   0  0  0  0  0  0  0  0  0  0  0  0
   24.7181  -16.6629  -15.1770 O   0  0  0  0  0  0  0  0  0  0  0  0
   25.3142  -18.8765  -15.7031 N   0  0  0  0  0  0  0  0  0  0  0  0
   24.6380  -19.3792  -14.5201 C   0  0  1  0  0  0  0  0  0  0  0  0
   23.5160  -20.2970  -14.8768 C   0  0  0  0  0  0  0  0  0  0  0  0
   22.3634  -19.6174  -15.4943 C   0  0  0  0  0  0  0  0  0  0  0  0
   21.2082  -19.1445  -14.8768 C   0  0  0  0  0  0  0  0  0  0  0  0
   20.4140  -18.6194  -15.8014 N   0  0  0  0  0  0  0  0  0  0  0  0
   20.9901  -18.7229  -17.0034 C   0  0  0  0  0  0  0  0  0  0  0  0
   22.1736  -19.3289  -16.8159 N   0  0  0  0  0  0  0  0  0  0  0  0
   25.5796  -20.0470  -13.5986 C   0  0  0  0  0  0  0  0  0  0  0  0
   26.4907  -20.7655  -14.0605 O   0  0  0  0  0  0  0  0  0  0  0  0
   25.4945  -19.9065  -12.1916 N   0  0  0  0  0  0  0  0  0  0  0  0
   26.4596  -20.5652  -11.3588 C   0  0  1  0  0  0  0  0  0  0  0  0
   26.6243  -19.9026  -10.0104 C   0  0  0  0  0  0  0  0  0  0  0  0
   25.0463  -20.0611   -9.1276 S   0  0  0  0  0  0  0  0  0  0  0  0
   26.1412  -22.0069  -11.2270 C   0  0  0  0  0  0  0  0  0  0  0  0
   27.0489  -22.9079  -10.7255 O   0  0  0  0  0  0  0  0  0  0  0  0
   25.0132  -22.4264  -11.5806 O   0  0  0  0  0  0  0  0  0  0  0  0
  2  1  1  0
  2  3  1  0
  3  4  1  0
  4  5  1  0
  5  7  1  0
  5  6  1  1
  7  9  1  0
  8  7  2  0
  9 10  1  0
 10 11  1  6
 11 12  1  0
 12 13  2  0
 12 16  1  0
 13 14  1  0
 14 15  1  0
 16 15  2  0
 17 19  1  0
 17 10  1  0
 18 17  2  0
 20 19  1  0
 20 23  1  0
 20 21  1  1
 22 21  1  0
 23 24  1  0
 25 23  2  0
M  END
$$$$
