MHC.pdb
     RDKit          3D

 25 25  0  0  1  0  0  0  0  0999 V2000
   27.3549  -13.3790  -14.6278 C   0  0  0  0  0  0  0  0  0  0  0  0
   28.0749  -12.0552  -15.6113 S   0  0  0  0  0  0  0  0  0  0  0  0
   27.1529  -11.8256  -17.1443 C   0  0  0  0  0  0  0  0  0  0  0  0
   26.0259  -10.8254  -16.9697 C   0  0  0  0  0  0  0  0  0  0  0  0
   24.6819  -11.5430  -17.0785 C   0  0  2  0  0  0  0  0  0  0  0  0
   24.5804  -12.1518  -18.3915 N   0  0  0  0  0  0  0  0  0  0  0  0
   23.5797  -10.5678  -16.8463 C   0  0  0  0  0  0  0  0  0  0  0  0
   23.1450   -9.9380  -17.8632 O   0  0  0  0  0  0  0  0  0  0  0  0
   23.0558  -10.3659  -15.5522 N   0  0  0  0  0  0  0  0  0  0  0  0
   21.9802   -9.4052  -15.3805 C   0  0  1  0  0  0  0  0  0  0  0  0
   20.8767   -9.9598  -14.5418 C   0  0  0  0  0  0  0  0  0  0  0  0
   20.0057  -10.9103  -15.2555 C   0  0  0  0  0  0  0  0  0  0  0  0
   20.0500  -11.2813  -16.5970 C   0  0  0  0  0  0  0  0  0  0  0  0
   19.0707  -12.1453  -16.8338 N   0  0  0  0  0  0  0  0  0  0  0  0
   18.3795  -12.3635  -15.7105 C   0  0  0  0  0  0  0  0  0  0  0  0
   18.9478  -11.6133  -14.7528 N   0  0  0  0  0  0  0  0  0  0  0  0
   22.4726   -8.1337  -14.8126 C   0  0  0  0  0  0  0  0  0  0  0  0
   23.1044   -8.1423  -13.7354 O   0  0  0  0  0  0  0  0  0  0  0  0
   22.2575   -6.8848  -15.4455 N   0  0  0  0  0  0  0  0  0  0  0  0
   22.8971   -5.7114  -14.9229 C   0  0  1  0  0  0  0  0  0  0  0  0
   23.4614   -4.8174  -16.0029 C   0  0  0  0  0  0  0  0  0  0  0  0
   24.7192   -5.7708  -16.8993 S   0  0  0  0  0  0  0  0  0  0  0  0
   21.9812   -4.9727  -14.0214 C   0  0  0  0  0  0  0  0  0  0  0  0
   22.4356   -4.0040  -13.1598 O   0  0  0  0  0  0  0  0  0  0  0  0
   20.7540   -5.2319  -14.0381 O   0  0  0  0  0  0  0  0  0  0  0  0
  2  1  1  0
  2  3  1  0
  3  4  1  0
  4  5  1  0
  5  7  1  0
  5  6  1  6
  7  9  1  0
  8  7  2  0
  9 10  1  0
 10 11  1  1
 11 12  1  0
 12 13  2  0
 12 16  1  0
 13 14  1  0
 14 15  1  0
 16 15  2  0
 17 19  1  0
 17 10  1  0
 18 17  2  0
 20 19  1  0
 20 23  1  0
 20 21  1  6
 22 21  1  0
 23 24  1  0
 25 23  2  0
M  END
$$$$
