MHC.pdb
     RDKit          3D

 25 25  0  0  1  0  0  0  0  0999 V2000
   25.4596  -25.6516  -21.1928 C   0  0  0  0  0  0  0  0  0  0  0  0
   24.5351  -25.1317  -19.7391 S   0  0  0  0  0  0  0  0  0  0  0  0
   25.0266  -26.0917  -18.2936 C   0  0  0  0  0  0  0  0  0  0  0  0
   24.3181  -25.6116  -17.0412 C   0  0  0  0  0  0  0  0  0  0  0  0
   24.9104  -24.2755  -16.5971 C   0  0  2  0  0  0  0  0  0  0  0  0
   26.2561  -24.5002  -16.1035 N   0  0  0  0  0  0  0  0  0  0  0  0
   24.0414  -23.6729  -15.5477 C   0  0  0  0  0  0  0  0  0  0  0  0
   23.7605  -24.4034  -14.5441 O   0  0  0  0  0  0  0  0  0  0  0  0
   23.5619  -22.3527  -15.6785 N   0  0  0  0  0  0  0  0  0  0  0  0
   22.6820  -21.8281  -14.6490 C   0  0  1  0  0  0  0  0  0  0  0  0
   22.9408  -20.3808  -14.3900 C   0  0  0  0  0  0  0  0  0  0  0  0
   22.1100  -19.8098  -13.3153 C   0  0  0  0  0  0  0  0  0  0  0  0
   22.1954  -20.0391  -11.9443 C   0  0  0  0  0  0  0  0  0  0  0  0
   21.2428  -19.3444  -11.3349 N   0  0  0  0  0  0  0  0  0  0  0  0
   20.5300  -18.6653  -12.2394 C   0  0  0  0  0  0  0  0  0  0  0  0
   21.0572  -18.9485  -13.4415 N   0  0  0  0  0  0  0  0  0  0  0  0
   21.2606  -22.0473  -14.9854 C   0  0  0  0  0  0  0  0  0  0  0  0
   20.8857  -21.9541  -16.1730 O   0  0  0  0  0  0  0  0  0  0  0  0
   20.2878  -22.3643  -14.0057 N   0  0  0  0  0  0  0  0  0  0  0  0
   18.9154  -22.5107  -14.3981 C   0  0  1  0  0  0  0  0  0  0  0  0
   18.2513  -23.7190  -13.7790 C   0  0  0  0  0  0  0  0  0  0  0  0
   16.5188  -23.7275  -14.3203 S   0  0  0  0  0  0  0  0  0  0  0  0
   18.1565  -21.2670  -14.1252 C   0  0  0  0  0  0  0  0  0  0  0  0
   17.3994  -20.6515  -15.0921 O   0  0  0  0  0  0  0  0  0  0  0  0
   18.2003  -20.7537  -12.9814 O   0  0  0  0  0  0  0  0  0  0  0  0
  2  1  1  0
  2  3  1  0
  3  4  1  0
  4  5  1  0
  5  7  1  0
  5  6  1  1
  7  9  1  0
  8  7  2  0
  9 10  1  0
 10 11  1  6
 11 12  1  0
 12 13  2  0
 12 16  1  0
 13 14  1  0
 14 15  1  0
 16 15  2  0
 17 19  1  0
 17 10  1  0
 18 17  2  0
 20 19  1  0
 20 23  1  0
 20 21  1  1
 22 21  1  0
 23 24  1  0
 25 23  2  0
M  END
$$$$
