MHC.pdb
     RDKit          3D

 25 25  0  0  1  0  0  0  0  0999 V2000
   31.3891  -21.1826  -11.0755 C   0  0  0  0  0  0  0  0  0  0  0  0
   30.0854  -21.9833  -10.1280 S   0  0  0  0  0  0  0  0  0  0  0  0
   28.9748  -20.7576   -9.4089 C   0  0  0  0  0  0  0  0  0  0  0  0
   27.9943  -20.2260  -10.4370 C   0  0  0  0  0  0  0  0  0  0  0  0
   27.0011  -21.3236  -10.8140 C   0  0  2  0  0  0  0  0  0  0  0  0
   27.7052  -22.3634  -11.5407 N   0  0  0  0  0  0  0  0  0  0  0  0
   25.9032  -20.7378  -11.6333 C   0  0  0  0  0  0  0  0  0  0  0  0
   25.2132  -19.8143  -11.0943 O   0  0  0  0  0  0  0  0  0  0  0  0
   25.6556  -21.1990  -12.9432 N   0  0  0  0  0  0  0  0  0  0  0  0
   24.5195  -20.6566  -13.6673 C   0  0  1  0  0  0  0  0  0  0  0  0
   24.7650  -20.6369  -15.1398 C   0  0  0  0  0  0  0  0  0  0  0  0
   23.7477  -19.8932  -15.9036 C   0  0  0  0  0  0  0  0  0  0  0  0
   22.6159  -19.2388  -15.4239 C   0  0  0  0  0  0  0  0  0  0  0  0
   21.9569  -18.7166  -16.4507 N   0  0  0  0  0  0  0  0  0  0  0  0
   22.6003  -18.9952  -17.5891 C   0  0  0  0  0  0  0  0  0  0  0  0
   23.6874  -19.7095  -17.2559 N   0  0  0  0  0  0  0  0  0  0  0  0
   23.2769  -21.3935  -13.3598 C   0  0  0  0  0  0  0  0  0  0  0  0
   23.3435  -22.5655  -12.9337 O   0  0  0  0  0  0  0  0  0  0  0  0
   21.9922  -20.8212  -13.5288 N   0  0  0  0  0  0  0  0  0  0  0  0
   20.9343  -21.1888  -12.6318 C   0  0  1  0  0  0  0  0  0  0  0  0
   21.2925  -20.9749  -11.1791 C   0  0  0  0  0  0  0  0  0  0  0  0
   19.8806  -21.5274  -10.1813 S   0  0  0  0  0  0  0  0  0  0  0  0
   19.6750  -20.4961  -12.9945 C   0  0  0  0  0  0  0  0  0  0  0  0
   19.6195  -19.1346  -13.1688 O   0  0  0  0  0  0  0  0  0  0  0  0
   18.6241  -21.1634  -13.1493 O   0  0  0  0  0  0  0  0  0  0  0  0
  2  1  1  0
  2  3  1  0
  3  4  1  0
  4  5  1  0
  5  7  1  0
  5  6  1  6
  7  9  1  0
  8  7  2  0
  9 10  1  0
 10 11  1  6
 11 12  1  0
 12 13  2  0
 12 16  1  0
 13 14  1  0
 14 15  1  0
 16 15  2  0
 17 19  1  0
 17 10  1  0
 18 17  2  0
 20 19  1  0
 20 23  1  0
 20 21  1  1
 22 21  1  0
 23 24  1  0
 25 23  2  0
M  END
$$$$
