MHC.pdb
     RDKit          3D

 25 25  0  0  1  0  0  0  0  0999 V2000
   29.1900  -20.0694   -7.3568 C   0  0  0  0  0  0  0  0  0  0  0  0
   27.7388  -19.1817   -6.7699 S   0  0  0  0  0  0  0  0  0  0  0  0
   26.2717  -19.6751   -7.6956 C   0  0  0  0  0  0  0  0  0  0  0  0
   26.6294  -20.1494   -9.0913 C   0  0  0  0  0  0  0  0  0  0  0  0
   25.3626  -20.5846   -9.8255 C   0  0  2  0  0  0  0  0  0  0  0  0
   24.9235  -21.8587   -9.2879 N   0  0  0  0  0  0  0  0  0  0  0  0
   25.6444  -20.6802  -11.2853 C   0  0  0  0  0  0  0  0  0  0  0  0
   26.6463  -21.3838  -11.6329 O   0  0  0  0  0  0  0  0  0  0  0  0
   24.8274  -20.0144  -12.2229 N   0  0  0  0  0  0  0  0  0  0  0  0
   25.1107  -20.1866  -13.6369 C   0  0  1  0  0  0  0  0  0  0  0  0
   24.0501  -20.9881  -14.3162 C   0  0  0  0  0  0  0  0  0  0  0  0
   24.2936  -22.4412  -14.2914 C   0  0  0  0  0  0  0  0  0  0  0  0
   25.4254  -23.1190  -13.8453 C   0  0  0  0  0  0  0  0  0  0  0  0
   25.2405  -24.4214  -14.0214 N   0  0  0  0  0  0  0  0  0  0  0  0
   24.0379  -24.6376  -14.5639 C   0  0  0  0  0  0  0  0  0  0  0  0
   23.4637  -23.4348  -14.7274 N   0  0  0  0  0  0  0  0  0  0  0  0
   25.2928  -18.8880  -14.3168 C   0  0  0  0  0  0  0  0  0  0  0  0
   24.5667  -17.9208  -14.0053 O   0  0  0  0  0  0  0  0  0  0  0  0
   26.2702  -18.6869  -15.3222 N   0  0  0  0  0  0  0  0  0  0  0  0
   26.3904  -17.3969  -15.9391 C   0  0  1  0  0  0  0  0  0  0  0  0
   27.5428  -16.5869  -15.3912 C   0  0  0  0  0  0  0  0  0  0  0  0
   27.2199  -14.8441  -15.7820 S   0  0  0  0  0  0  0  0  0  0  0  0
   26.4620  -17.5259  -17.4140 C   0  0  0  0  0  0  0  0  0  0  0  0
   26.4849  -18.7508  -18.0354 O   0  0  0  0  0  0  0  0  0  0  0  0
   26.5032  -16.4927  -18.1243 O   0  0  0  0  0  0  0  0  0  0  0  0
  2  1  1  0
  2  3  1  0
  3  4  1  0
  4  5  1  0
  5  7  1  0
  5  6  1  1
  7  9  1  0
  8  7  2  0
  9 10  1  0
 10 11  1  6
 11 12  1  0
 12 13  2  0
 12 16  1  0
 13 14  1  0
 14 15  1  0
 16 15  2  0
 17 19  1  0
 17 10  1  0
 18 17  2  0
 20 19  1  0
 20 23  1  0
 20 21  1  1
 22 21  1  0
 23 24  1  0
 25 23  2  0
M  END
$$$$
