MHC.pdb
     RDKit          3D

 25 25  0  0  1  0  0  0  0  0999 V2000
   23.5409  -12.3347  -23.6212 C   0  0  0  0  0  0  0  0  0  0  0  0
   23.0379  -10.6069  -23.6168 S   0  0  0  0  0  0  0  0  0  0  0  0
   23.6947   -9.7549  -22.1692 C   0  0  0  0  0  0  0  0  0  0  0  0
   22.5868   -9.1309  -21.3421 C   0  0  0  0  0  0  0  0  0  0  0  0
   22.2180  -10.0648  -20.1910 C   0  0  2  0  0  0  0  0  0  0  0  0
   21.3331  -11.0996  -20.6919 N   0  0  0  0  0  0  0  0  0  0  0  0
   21.5716   -9.2784  -19.1031 C   0  0  0  0  0  0  0  0  0  0  0  0
   20.4428   -8.7528  -19.3659 O   0  0  0  0  0  0  0  0  0  0  0  0
   22.1977   -9.1344  -17.8472 N   0  0  0  0  0  0  0  0  0  0  0  0
   21.4623   -8.4876  -16.7747 C   0  0  1  0  0  0  0  0  0  0  0  0
   21.2675   -9.4033  -15.6119 C   0  0  0  0  0  0  0  0  0  0  0  0
   20.3009  -10.4871  -15.8621 C   0  0  0  0  0  0  0  0  0  0  0  0
   20.5600  -11.8184  -16.1781 C   0  0  0  0  0  0  0  0  0  0  0  0
   19.4050  -12.4503  -16.3453 N   0  0  0  0  0  0  0  0  0  0  0  0
   18.3923  -11.5985  -16.1547 C   0  0  0  0  0  0  0  0  0  0  0  0
   18.9373  -10.4068  -15.8614 N   0  0  0  0  0  0  0  0  0  0  0  0
   22.1182   -7.2363  -16.3436 C   0  0  0  0  0  0  0  0  0  0  0  0
   23.3550   -7.2149  -16.1721 O   0  0  0  0  0  0  0  0  0  0  0  0
   21.3957   -6.0400  -16.1128 N   0  0  0  0  0  0  0  0  0  0  0  0
   22.1012   -4.8594  -15.7033 C   0  0  1  0  0  0  0  0  0  0  0  0
   22.0163   -3.7411  -16.7164 C   0  0  0  0  0  0  0  0  0  0  0  0
   22.7491   -2.2625  -15.9605 S   0  0  0  0  0  0  0  0  0  0  0  0
   21.6523   -4.4196  -14.3608 C   0  0  0  0  0  0  0  0  0  0  0  0
   22.4264   -3.6099  -13.5657 O   0  0  0  0  0  0  0  0  0  0  0  0
   20.5349   -4.7919  -13.9292 O   0  0  0  0  0  0  0  0  0  0  0  0
  2  1  1  0
  2  3  1  0
  3  4  1  0
  4  5  1  0
  5  7  1  0
  5  6  1  6
  7  9  1  0
  8  7  2  0
  9 10  1  0
 10 11  1  1
 11 12  1  0
 12 13  2  0
 12 16  1  0
 13 14  1  0
 14 15  1  0
 16 15  2  0
 17 19  1  0
 17 10  1  0
 18 17  2  0
 20 19  1  0
 20 23  1  0
 20 21  1  6
 22 21  1  0
 23 24  1  0
 25 23  2  0
M  END
$$$$
