MHC.pdb
     RDKit          3D

 25 25  0  0  1  0  0  0  0  0999 V2000
   28.2131  -20.9258   -9.1732 C   0  0  0  0  0  0  0  0  0  0  0  0
   29.5046  -21.7175  -10.1445 S   0  0  0  0  0  0  0  0  0  0  0  0
   29.5046  -21.0919  -11.8361 C   0  0  0  0  0  0  0  0  0  0  0  0
   28.2496  -20.2933  -12.1326 C   0  0  0  0  0  0  0  0  0  0  0  0
   27.2577  -21.1635  -12.9022 C   0  0  2  0  0  0  0  0  0  0  0  0
   27.8757  -21.5940  -14.1422 N   0  0  0  0  0  0  0  0  0  0  0  0
   26.0123  -20.3869  -13.1579 C   0  0  0  0  0  0  0  0  0  0  0  0
   25.4430  -19.8634  -12.1472 O   0  0  0  0  0  0  0  0  0  0  0  0
   25.5034  -20.2499  -14.4665 N   0  0  0  0  0  0  0  0  0  0  0  0
   24.2834  -19.4863  -14.6607 C   0  0  1  0  0  0  0  0  0  0  0  0
   24.2180  -18.8937  -16.0294 C   0  0  0  0  0  0  0  0  0  0  0  0
   25.2032  -17.8231  -16.2630 C   0  0  0  0  0  0  0  0  0  0  0  0
   26.0401  -17.2037  -15.3382 C   0  0  0  0  0  0  0  0  0  0  0  0
   26.7539  -16.2754  -15.9626 N   0  0  0  0  0  0  0  0  0  0  0  0
   26.4281  -16.2511  -17.2590 C   0  0  0  0  0  0  0  0  0  0  0  0
   25.4866  -17.1912  -17.4405 N   0  0  0  0  0  0  0  0  0  0  0  0
   23.0824  -20.3033  -14.3929 C   0  0  0  0  0  0  0  0  0  0  0  0
   23.1271  -21.5401  -14.5604 O   0  0  0  0  0  0  0  0  0  0  0  0
   21.8626  -19.7381  -13.9467 N   0  0  0  0  0  0  0  0  0  0  0  0
   20.7599  -20.6011  -13.6332 C   0  0  1  0  0  0  0  0  0  0  0  0
   20.1318  -20.2917  -12.2938 C   0  0  0  0  0  0  0  0  0  0  0  0
   18.7463  -21.4410  -12.0616 S   0  0  0  0  0  0  0  0  0  0  0  0
   19.7579  -20.5892  -14.7254 C   0  0  0  0  0  0  0  0  0  0  0  0
   19.0219  -21.7035  -15.0476 O   0  0  0  0  0  0  0  0  0  0  0  0
   19.5689  -19.5362  -15.3805 O   0  0  0  0  0  0  0  0  0  0  0  0
  2  1  1  0
  2  3  1  0
  3  4  1  0
  4  5  1  0
  5  7  1  0
  5  6  1  6
  7  9  1  0
  8  7  2  0
  9 10  1  0
 10 11  1  6
 11 12  1  0
 12 13  2  0
 12 16  1  0
 13 14  1  0
 14 15  1  0
 16 15  2  0
 17 19  1  0
 17 10  1  0
 18 17  2  0
 20 19  1  0
 20 23  1  0
 20 21  1  1
 22 21  1  0
 23 24  1  0
 25 23  2  0
M  END
$$$$
