IVY.pdb
     RDKit          3D

 28 28  0  0  1  0  0  0  0  0999 V2000
   27.0963  -27.6539  -17.5486 C   0  0  0  0  0  0  0  0  0  0  0  0
   25.9127  -26.7800  -17.7880 C   0  0  0  0  0  0  0  0  0  0  0  0
   26.0492  -25.4445  -17.1307 C   0  0  2  0  0  0  0  0  0  0  0  0
   26.1924  -25.5977  -15.6330 C   0  0  0  0  0  0  0  0  0  0  0  0
   24.9557  -24.4745  -17.4889 C   0  0  2  0  0  0  0  0  0  0  0  0
   25.1807  -24.0939  -18.9079 N   0  0  0  0  0  0  0  0  0  0  0  0
   24.9892  -23.2116  -16.7208 C   0  0  0  0  0  0  0  0  0  0  0  0
   25.8905  -22.3519  -16.9809 O   0  0  0  0  0  0  0  0  0  0  0  0
   22.4894  -20.5309  -16.5872 C   0  0  0  0  0  0  0  0  0  0  0  0
   22.7825  -20.9217  -15.1728 C   0  0  2  0  0  0  0  0  0  0  0  0
   22.6615  -19.6894  -14.3029 C   0  0  0  0  0  0  0  0  0  0  0  0
   24.1434  -21.5647  -15.0090 C   0  0  2  0  0  0  0  0  0  0  0  0
   24.0926  -22.8413  -15.6907 N   0  0  0  0  0  0  0  0  0  0  0  0
   24.5144  -21.7125  -13.5821 C   0  0  0  0  0  0  0  0  0  0  0  0
   23.8253  -22.4696  -12.8455 O   0  0  0  0  0  0  0  0  0  0  0  0
   27.9074  -20.1084   -5.6088 O   0  0  0  0  0  0  0  0  0  0  0  0
   27.6881  -20.1170   -6.9891 C   0  0  0  0  0  0  0  0  0  0  0  0
   26.8732  -19.1997   -7.6116 C   0  0  0  0  0  0  0  0  0  0  0  0
   26.6771  -19.2394   -8.9984 C   0  0  0  0  0  0  0  0  0  0  0  0
   27.2925  -20.1939   -9.7694 C   0  0  0  0  0  0  0  0  0  0  0  0
   27.0879  -20.2385  -11.2201 C   0  0  0  0  0  0  0  0  0  0  0  0
   25.8541  -20.9984  -11.5555 C   0  0  2  0  0  0  0  0  0  0  0  0
   25.6187  -21.0363  -12.9988 N   0  0  0  0  0  0  0  0  0  0  0  0
   24.6949  -20.5259  -10.8208 C   0  0  0  0  0  0  0  0  0  0  0  0
   24.1571  -21.0600   -9.6727 O   0  0  0  0  0  0  0  0  0  0  0  0
   28.1011  -21.0998   -9.1317 C   0  0  0  0  0  0  0  0  0  0  0  0
   28.3060  -21.0740   -7.7580 C   0  0  0  0  0  0  0  0  0  0  0  0
   24.0866  -19.4973  -11.2768 O   0  0  0  0  0  0  0  0  0  0  0  0
  1  2  1  0
  2  3  1  0
  3  5  1  0
  3  4  1  1
  5  6  1  6
  5  7  1  0
  7  8  2  0
  7 13  1  0
 10 11  1  1
 10  9  1  0
 12 10  1  0
 12 13  1  1
 14 12  1  0
 14 15  2  0
 16 17  1  0
 17 27  2  0
 18 17  1  0
 18 19  2  0
 19 20  1  0
 20 26  2  0
 20 21  1  0
 22 23  1  0
 22 21  1  6
 23 14  1  0
 24 22  1  0
 25 24  1  0
 27 26  1  0
 28 24  2  0
M  END
$$$$
