IVY.pdb
     RDKit          3D

 28 28  0  0  1  0  0  0  0  0999 V2000
   21.7280  -16.1827  -18.1000 C   0  0  0  0  0  0  0  0  0  0  0  0
   22.6192  -16.2627  -16.9078 C   0  0  0  0  0  0  0  0  0  0  0  0
   22.7267  -17.6532  -16.3700 C   0  0  2  0  0  0  0  0  0  0  0  0
   21.3545  -18.2557  -16.1672 C   0  0  0  0  0  0  0  0  0  0  0  0
   23.5717  -17.7631  -15.1296 C   0  0  2  0  0  0  0  0  0  0  0  0
   24.8806  -17.1398  -15.4570 N   0  0  0  0  0  0  0  0  0  0  0  0
   23.8751  -19.1519  -14.7230 C   0  0  0  0  0  0  0  0  0  0  0  0
   22.9279  -19.9014  -14.3229 O   0  0  0  0  0  0  0  0  0  0  0  0
   25.6603  -21.9051  -16.5988 C   0  0  0  0  0  0  0  0  0  0  0  0
   26.2956  -21.7845  -15.2494 C   0  0  2  0  0  0  0  0  0  0  0  0
   26.6779  -23.1704  -14.7769 C   0  0  0  0  0  0  0  0  0  0  0  0
   25.4032  -21.0979  -14.2371 C   0  0  2  0  0  0  0  0  0  0  0  0
   25.1524  -19.7606  -14.7330 N   0  0  0  0  0  0  0  0  0  0  0  0
   26.0124  -21.0832  -12.8864 C   0  0  0  0  0  0  0  0  0  0  0  0
   27.2689  -21.0571  -12.7817 O   0  0  0  0  0  0  0  0  0  0  0  0
   28.8280  -19.5095   -4.9637 O   0  0  0  0  0  0  0  0  0  0  0  0
   28.2911  -19.5716   -6.2526 C   0  0  0  0  0  0  0  0  0  0  0  0
   27.1885  -18.8391   -6.6278 C   0  0  0  0  0  0  0  0  0  0  0  0
   26.6782  -18.9271   -7.9298 C   0  0  0  0  0  0  0  0  0  0  0  0
   27.2654  -19.7457   -8.8623 C   0  0  0  0  0  0  0  0  0  0  0  0
   26.7327  -19.8407  -10.2244 C   0  0  0  0  0  0  0  0  0  0  0  0
   25.8411  -21.0233  -10.3608 C   0  0  2  0  0  0  0  0  0  0  0  0
   25.2421  -21.0973  -11.6933 N   0  0  0  0  0  0  0  0  0  0  0  0
   24.8468  -21.0927   -9.3055 C   0  0  0  0  0  0  0  0  0  0  0  0
   25.0125  -21.5826   -8.0307 O   0  0  0  0  0  0  0  0  0  0  0  0
   28.3634  -20.4682   -8.4703 C   0  0  0  0  0  0  0  0  0  0  0  0
   28.8816  -20.3922   -7.1837 C   0  0  0  0  0  0  0  0  0  0  0  0
   23.6742  -20.6560   -9.5704 O   0  0  0  0  0  0  0  0  0  0  0  0
  1  2  1  0
  2  3  1  0
  3  5  1  0
  3  4  1  1
  5  6  1  6
  5  7  1  0
  7  8  2  0
  7 13  1  0
 10 11  1  1
 10  9  1  0
 12 10  1  0
 12 13  1  6
 14 12  1  0
 14 15  2  0
 16 17  1  0
 17 27  2  0
 18 17  1  0
 18 19  2  0
 19 20  1  0
 20 26  2  0
 20 21  1  0
 22 23  1  0
 22 21  1  6
 23 14  1  0
 24 22  1  0
 25 24  1  0
 27 26  1  0
 28 24  2  0
M  END
$$$$
