IVY.pdb
     RDKit          3D

 28 28  0  0  1  0  0  0  0  0999 V2000
   18.7661  -16.4232  -13.4120 C   0  0  0  0  0  0  0  0  0  0  0  0
   19.2275  -17.4410  -14.3985 C   0  0  0  0  0  0  0  0  0  0  0  0
   20.1684  -18.4331  -13.7946 C   0  0  2  0  0  0  0  0  0  0  0  0
   21.3160  -17.7304  -13.1044 C   0  0  0  0  0  0  0  0  0  0  0  0
   20.6563  -19.4773  -14.7623 C   0  0  2  0  0  0  0  0  0  0  0  0
   19.4662  -20.2783  -15.1506 N   0  0  0  0  0  0  0  0  0  0  0  0
   21.6197  -20.4381  -14.1836 C   0  0  0  0  0  0  0  0  0  0  0  0
   21.1920  -21.3574  -13.4148 O   0  0  0  0  0  0  0  0  0  0  0  0
   23.8593  -22.8847  -15.8404 C   0  0  0  0  0  0  0  0  0  0  0  0
   24.7028  -22.0421  -14.9364 C   0  0  2  0  0  0  0  0  0  0  0  0
   25.8268  -22.8996  -14.3969 C   0  0  0  0  0  0  0  0  0  0  0  0
   23.9125  -21.4171  -13.8061 C   0  0  2  0  0  0  0  0  0  0  0  0
   23.0176  -20.4470  -14.4020 N   0  0  0  0  0  0  0  0  0  0  0  0
   24.7979  -20.8032  -12.7888 C   0  0  0  0  0  0  0  0  0  0  0  0
   25.4232  -19.7470  -13.0786 O   0  0  0  0  0  0  0  0  0  0  0  0
   29.0980  -18.6738   -5.4711 O   0  0  0  0  0  0  0  0  0  0  0  0
   28.2625  -19.3212   -6.3854 C   0  0  0  0  0  0  0  0  0  0  0  0
   27.0603  -18.7888   -6.7904 C   0  0  0  0  0  0  0  0  0  0  0  0
   26.2487  -19.4672   -7.7094 C   0  0  0  0  0  0  0  0  0  0  0  0
   26.6329  -20.6787   -8.2278 C   0  0  0  0  0  0  0  0  0  0  0  0
   25.7852  -21.3910   -9.1881 C   0  0  0  0  0  0  0  0  0  0  0  0
   26.0122  -20.8855  -10.5684 C   0  0  2  0  0  0  0  0  0  0  0  0
   24.9778  -21.3522  -11.4915 N   0  0  0  0  0  0  0  0  0  0  0  0
   27.3508  -21.1724  -11.0508 C   0  0  0  0  0  0  0  0  0  0  0  0
   28.3728  -20.2768  -11.2653 O   0  0  0  0  0  0  0  0  0  0  0  0
   27.8344  -21.1940   -7.8126 C   0  0  0  0  0  0  0  0  0  0  0  0
   28.6504  -20.5342   -6.9025 C   0  0  0  0  0  0  0  0  0  0  0  0
   27.6338  -22.3913  -11.3155 O   0  0  0  0  0  0  0  0  0  0  0  0
  1  2  1  0
  2  3  1  0
  3  5  1  0
  3  4  1  6
  5  6  1  1
  5  7  1  0
  7  8  2  0
  7 13  1  0
 10 11  1  1
 10  9  1  0
 12 10  1  0
 12 13  1  6
 14 12  1  0
 14 15  2  0
 16 17  1  0
 17 27  2  0
 18 17  1  0
 18 19  2  0
 19 20  1  0
 20 26  2  0
 20 21  1  0
 22 23  1  0
 22 21  1  1
 23 14  1  0
 24 22  1  0
 25 24  1  0
 27 26  1  0
 28 24  2  0
M  END
$$$$
