IVY.pdb
     RDKit          3D

 28 28  0  0  1  0  0  0  0  0999 V2000
   11.3252  -13.5710  -11.0064 C   0  0  0  0  0  0  0  0  0  0  0  0
   11.5718  -12.6958   -9.8252 C   0  0  0  0  0  0  0  0  0  0  0  0
   12.3506  -11.4698  -10.1780 C   0  0  2  0  0  0  0  0  0  0  0  0
   13.6478  -11.8388  -10.8626 C   0  0  0  0  0  0  0  0  0  0  0  0
   12.5788  -10.5381   -9.0184 C   0  0  2  0  0  0  0  0  0  0  0  0
   11.2332  -10.1591   -8.5137 N   0  0  0  0  0  0  0  0  0  0  0  0
   13.2472   -9.2701   -9.3810 C   0  0  0  0  0  0  0  0  0  0  0  0
   12.6493   -8.4528  -10.1515 O   0  0  0  0  0  0  0  0  0  0  0  0
   13.9027   -6.2658   -7.6809 C   0  0  0  0  0  0  0  0  0  0  0  0
   15.2429   -6.7169   -8.1700 C   0  0  2  0  0  0  0  0  0  0  0  0
   16.0771   -5.4913   -8.4732 C   0  0  0  0  0  0  0  0  0  0  0  0
   15.1545   -7.6209   -9.3814 C   0  0  2  0  0  0  0  0  0  0  0  0
   14.5267   -8.8511   -8.9459 N   0  0  0  0  0  0  0  0  0  0  0  0
   16.4852   -7.8617   -9.9871 C   0  0  0  0  0  0  0  0  0  0  0  0
   17.3867   -8.4018   -9.2897 O   0  0  0  0  0  0  0  0  0  0  0  0
   23.4472   -9.3554  -14.9355 O   0  0  0  0  0  0  0  0  0  0  0  0
   22.1519   -9.2307  -14.4258 C   0  0  0  0  0  0  0  0  0  0  0  0
   21.0716   -8.9314  -15.2236 C   0  0  0  0  0  0  0  0  0  0  0  0
   19.7868   -8.8142  -14.6767 C   0  0  0  0  0  0  0  0  0  0  0  0
   19.5746   -8.9950  -13.3327 C   0  0  0  0  0  0  0  0  0  0  0  0
   18.2319   -8.8717  -12.7580 C   0  0  0  0  0  0  0  0  0  0  0  0
   18.1358   -7.6627  -11.8970 C   0  0  2  0  0  0  0  0  0  0  0  0
   16.7971   -7.5104  -11.3273 N   0  0  0  0  0  0  0  0  0  0  0  0
   18.5852   -6.4611  -12.5762 C   0  0  0  0  0  0  0  0  0  0  0  0
   17.8131   -5.5394  -13.2447 O   0  0  0  0  0  0  0  0  0  0  0  0
   20.6631   -9.2927  -12.5530 C   0  0  0  0  0  0  0  0  0  0  0  0
   21.9430   -9.4124  -13.0796 C   0  0  0  0  0  0  0  0  0  0  0  0
   19.8397   -6.2125  -12.5666 O   0  0  0  0  0  0  0  0  0  0  0  0
  1  2  1  0
  2  3  1  0
  3  5  1  0
  3  4  1  1
  5  6  1  6
  5  7  1  0
  7  8  2  0
  7 13  1  0
 10 11  1  6
 10  9  1  0
 12 10  1  0
 12 13  1  1
 14 12  1  0
 14 15  2  0
 16 17  1  0
 17 27  2  0
 18 17  1  0
 18 19  2  0
 19 20  1  0
 20 26  2  0
 20 21  1  0
 22 23  1  0
 22 21  1  6
 23 14  1  0
 24 22  1  0
 25 24  1  0
 27 26  1  0
 28 24  2  0
M  END
$$$$
