IVY.pdb
     RDKit          3D

 28 28  0  0  1  0  0  0  0  0999 V2000
   28.0198  -17.7778  -17.7512 C   0  0  0  0  0  0  0  0  0  0  0  0
   28.4685  -18.8224  -16.7872 C   0  0  0  0  0  0  0  0  0  0  0  0
   27.3580  -19.3000  -15.9080 C   0  0  2  0  0  0  0  0  0  0  0  0
   26.6737  -18.1341  -15.2299 C   0  0  0  0  0  0  0  0  0  0  0  0
   27.7752  -20.3532  -14.9173 C   0  0  2  0  0  0  0  0  0  0  0  0
   28.2821  -21.5010  -15.7137 N   0  0  0  0  0  0  0  0  0  0  0  0
   26.6672  -20.8875  -14.0969 C   0  0  0  0  0  0  0  0  0  0  0  0
   25.8935  -21.7653  -14.5969 O   0  0  0  0  0  0  0  0  0  0  0  0
   25.8698  -19.9359   -9.8526 C   0  0  0  0  0  0  0  0  0  0  0  0
   25.8095  -21.2481  -10.5691 C   0  0  2  0  0  0  0  0  0  0  0  0
   27.1895  -21.8686  -10.5443 C   0  0  0  0  0  0  0  0  0  0  0  0
   25.3019  -21.1209  -11.9900 C   0  0  2  0  0  0  0  0  0  0  0  0
   26.3643  -20.5156  -12.7658 N   0  0  0  0  0  0  0  0  0  0  0  0
   24.0480  -20.3343  -12.0583 C   0  0  0  0  0  0  0  0  0  0  0  0
   24.0891  -19.0953  -11.8266 O   0  0  0  0  0  0  0  0  0  0  0  0
   18.4186  -17.0205  -17.5207 O   0  0  0  0  0  0  0  0  0  0  0  0
   19.3921  -17.6557  -16.7448 C   0  0  0  0  0  0  0  0  0  0  0  0
   19.9479  -17.0667  -15.6325 C   0  0  0  0  0  0  0  0  0  0  0  0
   20.9220  -17.7345  -14.8786 C   0  0  0  0  0  0  0  0  0  0  0  0
   21.3455  -18.9918  -15.2310 C   0  0  0  0  0  0  0  0  0  0  0  0
   22.3654  -19.6919  -14.4449 C   0  0  0  0  0  0  0  0  0  0  0  0
   21.7836  -20.2310  -13.1867 C   0  0  2  0  0  0  0  0  0  0  0  0
   22.7908  -20.9140  -12.3751 N   0  0  0  0  0  0  0  0  0  0  0  0
   20.6155  -21.0587  -13.4261 C   0  0  0  0  0  0  0  0  0  0  0  0
   20.5903  -22.3788  -13.8125 O   0  0  0  0  0  0  0  0  0  0  0  0
   20.7804  -19.5631  -16.3425 C   0  0  0  0  0  0  0  0  0  0  0  0
   19.8137  -18.9145  -17.1005 C   0  0  0  0  0  0  0  0  0  0  0  0
   19.4671  -20.5182  -13.2680 O   0  0  0  0  0  0  0  0  0  0  0  0
  1  2  1  0
  2  3  1  0
  3  5  1  0
  3  4  1  1
  5  6  1  6
  5  7  1  0
  7  8  2  0
  7 13  1  0
 10 11  1  6
 10  9  1  0
 12 10  1  0
 12 13  1  6
 14 12  1  0
 14 15  2  0
 16 17  1  0
 17 27  2  0
 18 17  1  0
 18 19  2  0
 19 20  1  0
 20 26  2  0
 20 21  1  0
 22 23  1  0
 22 21  1  6
 23 14  1  0
 24 22  1  0
 25 24  1  0
 27 26  1  0
 28 24  2  0
M  END
$$$$
