IVY.pdb
     RDKit          3D

 28 28  0  0  1  0  0  0  0  0999 V2000
   20.6183  -16.4007  -16.9773 C   0  0  0  0  0  0  0  0  0  0  0  0
   21.9063  -16.8126  -17.6045 C   0  0  0  0  0  0  0  0  0  0  0  0
   22.6583  -17.7960  -16.7668 C   0  0  2  0  0  0  0  0  0  0  0  0
   22.8340  -17.2744  -15.3581 C   0  0  0  0  0  0  0  0  0  0  0  0
   23.9680  -18.2315  -17.3665 C   0  0  2  0  0  0  0  0  0  0  0  0
   23.6448  -18.8402  -18.6833 N   0  0  0  0  0  0  0  0  0  0  0  0
   24.6690  -19.2811  -16.5964 C   0  0  0  0  0  0  0  0  0  0  0  0
   24.1242  -20.4238  -16.4684 O   0  0  0  0  0  0  0  0  0  0  0  0
   27.9746  -20.8922  -17.1172 C   0  0  0  0  0  0  0  0  0  0  0  0
   27.9472  -20.3834  -15.7103 C   0  0  2  0  0  0  0  0  0  0  0  0
   28.7286  -21.3441  -14.8407 C   0  0  0  0  0  0  0  0  0  0  0  0
   26.5418  -20.1972  -15.1783 C   0  0  2  0  0  0  0  0  0  0  0  0
   25.9279  -19.1474  -15.9645 N   0  0  0  0  0  0  0  0  0  0  0  0
   26.5386  -19.8800  -13.7309 C   0  0  0  0  0  0  0  0  0  0  0  0
   26.8157  -18.7067  -13.3605 O   0  0  0  0  0  0  0  0  0  0  0  0
   19.9148  -21.3028  -11.8926 O   0  0  0  0  0  0  0  0  0  0  0  0
   21.2129  -20.8462  -11.6481 C   0  0  0  0  0  0  0  0  0  0  0  0
   21.6932  -20.6374  -10.3758 C   0  0  0  0  0  0  0  0  0  0  0  0
   23.0010  -20.1788  -10.1693 C   0  0  0  0  0  0  0  0  0  0  0  0
   23.8345  -19.9267  -11.2305 C   0  0  0  0  0  0  0  0  0  0  0  0
   25.2024  -19.4455  -11.0173 C   0  0  0  0  0  0  0  0  0  0  0  0
   26.1902  -20.5194  -11.3057 C   0  0  2  0  0  0  0  0  0  0  0  0
   26.2357  -20.8427  -12.7316 N   0  0  0  0  0  0  0  0  0  0  0  0
   25.9867  -21.6961  -10.4805 C   0  0  0  0  0  0  0  0  0  0  0  0
   25.9538  -21.7591   -9.1066 O   0  0  0  0  0  0  0  0  0  0  0  0
   23.3385  -20.1404  -12.4913 C   0  0  0  0  0  0  0  0  0  0  0  0
   22.0446  -20.5948  -12.7129 C   0  0  0  0  0  0  0  0  0  0  0  0
   25.8192  -22.8141  -11.0786 O   0  0  0  0  0  0  0  0  0  0  0  0
  1  2  1  0
  2  3  1  0
  3  5  1  0
  3  4  1  1
  5  6  1  6
  5  7  1  0
  7  8  2  0
  7 13  1  0
 10 11  1  1
 10  9  1  0
 12 10  1  0
 12 13  1  6
 14 12  1  0
 14 15  2  0
 16 17  1  0
 17 27  2  0
 18 17  1  0
 18 19  2  0
 19 20  1  0
 20 26  2  0
 20 21  1  0
 22 23  1  0
 22 21  1  6
 23 14  1  0
 24 22  1  0
 25 24  1  0
 27 26  1  0
 28 24  2  0
M  END
$$$$
