IVY.pdb
     RDKit          3D

 28 28  0  0  1  0  0  0  0  0999 V2000
   21.0954  -16.1051  -16.6975 C   0  0  0  0  0  0  0  0  0  0  0  0
   22.1719  -16.7814  -17.4757 C   0  0  0  0  0  0  0  0  0  0  0  0
   22.9555  -17.7451  -16.6441 C   0  0  2  0  0  0  0  0  0  0  0  0
   23.3946  -17.0996  -15.3488 C   0  0  0  0  0  0  0  0  0  0  0  0
   24.1118  -18.3771  -17.3709 C   0  0  2  0  0  0  0  0  0  0  0  0
   23.5369  -19.0646  -18.5565 N   0  0  0  0  0  0  0  0  0  0  0  0
   24.8157  -19.4230  -16.5983 C   0  0  0  0  0  0  0  0  0  0  0  0
   24.2209  -20.5220  -16.3585 O   0  0  0  0  0  0  0  0  0  0  0  0
   28.1074  -21.1366  -17.2065 C   0  0  0  0  0  0  0  0  0  0  0  0
   28.1234  -20.6027  -15.8088 C   0  0  2  0  0  0  0  0  0  0  0  0
   28.8852  -21.5758  -14.9355 C   0  0  0  0  0  0  0  0  0  0  0  0
   26.7354  -20.3563  -15.2562 C   0  0  2  0  0  0  0  0  0  0  0  0
   26.1286  -19.3308  -16.0791 N   0  0  0  0  0  0  0  0  0  0  0  0
   26.7726  -19.9698  -13.8262 C   0  0  0  0  0  0  0  0  0  0  0  0
   27.1970  -18.8243  -13.5125 O   0  0  0  0  0  0  0  0  0  0  0  0
   20.0562  -20.9528  -12.0807 O   0  0  0  0  0  0  0  0  0  0  0  0
   21.3678  -20.5496  -11.8156 C   0  0  0  0  0  0  0  0  0  0  0  0
   21.8222  -20.3124  -10.5388 C   0  0  0  0  0  0  0  0  0  0  0  0
   23.1448  -19.9092  -10.3116 C   0  0  0  0  0  0  0  0  0  0  0  0
   24.0189  -19.7409  -11.3565 C   0  0  0  0  0  0  0  0  0  0  0  0
   25.4024  -19.3178  -11.1216 C   0  0  0  0  0  0  0  0  0  0  0  0
   26.3468  -20.4386  -11.3746 C   0  0  2  0  0  0  0  0  0  0  0  0
   26.3497  -20.8352  -12.7826 N   0  0  0  0  0  0  0  0  0  0  0  0
   26.1223  -21.5641  -10.4859 C   0  0  0  0  0  0  0  0  0  0  0  0
   26.0444  -21.5434   -9.1126 O   0  0  0  0  0  0  0  0  0  0  0  0
   23.5484  -19.9818  -12.6221 C   0  0  0  0  0  0  0  0  0  0  0  0
   22.2404  -20.3821  -12.8642 C   0  0  0  0  0  0  0  0  0  0  0  0
   25.9805  -22.7178  -11.0196 O   0  0  0  0  0  0  0  0  0  0  0  0
  1  2  1  0
  2  3  1  0
  3  5  1  0
  3  4  1  1
  5  6  1  6
  5  7  1  0
  7  8  2  0
  7 13  1  0
 10 11  1  1
 10  9  1  0
 12 10  1  0
 12 13  1  6
 14 12  1  0
 14 15  2  0
 16 17  1  0
 17 27  2  0
 18 17  1  0
 18 19  2  0
 19 20  1  0
 20 26  2  0
 20 21  1  0
 22 23  1  0
 22 21  1  6
 23 14  1  0
 24 22  1  0
 25 24  1  0
 27 26  1  0
 28 24  2  0
M  END
$$$$
