IVY.pdb
     RDKit          3D

 28 28  0  0  1  0  0  0  0  0999 V2000
   19.9249  -24.3142  -14.5379 C   0  0  0  0  0  0  0  0  0  0  0  0
   21.0041  -23.7652  -15.4072 C   0  0  0  0  0  0  0  0  0  0  0  0
   22.2472  -23.4486  -14.6399 C   0  0  2  0  0  0  0  0  0  0  0  0
   21.9290  -22.5876  -13.4379 C   0  0  0  0  0  0  0  0  0  0  0  0
   23.3449  -22.8506  -15.4779 C   0  0  2  0  0  0  0  0  0  0  0  0
   23.7454  -23.8975  -16.4538 N   0  0  0  0  0  0  0  0  0  0  0  0
   24.5696  -22.5121  -14.7219 C   0  0  0  0  0  0  0  0  0  0  0  0
   25.2729  -23.4509  -14.2289 O   0  0  0  0  0  0  0  0  0  0  0  0
   27.3424  -19.8047  -15.6223 C   0  0  0  0  0  0  0  0  0  0  0  0
   26.8558  -19.6636  -14.2143 C   0  0  2  0  0  0  0  0  0  0  0  0
   28.0176  -19.2234  -13.3503 C   0  0  0  0  0  0  0  0  0  0  0  0
   26.2356  -20.9353  -13.6750 C   0  0  2  0  0  0  0  0  0  0  0  0
   25.0633  -21.2083  -14.4802 N   0  0  0  0  0  0  0  0  0  0  0  0
   25.9046  -20.8188  -12.2353 C   0  0  0  0  0  0  0  0  0  0  0  0
   24.8892  -20.1539  -11.8923 O   0  0  0  0  0  0  0  0  0  0  0  0
   27.8697  -18.9996   -3.9230 O   0  0  0  0  0  0  0  0  0  0  0  0
   27.8361  -19.6199   -5.1749 C   0  0  0  0  0  0  0  0  0  0  0  0
   27.1232  -20.7735   -5.4069 C   0  0  0  0  0  0  0  0  0  0  0  0
   27.1130  -21.3673   -6.6761 C   0  0  0  0  0  0  0  0  0  0  0  0
   27.8135  -20.8129   -7.7183 C   0  0  0  0  0  0  0  0  0  0  0  0
   27.8055  -21.4328   -9.0465 C   0  0  0  0  0  0  0  0  0  0  0  0
   26.5919  -21.0332   -9.8077 C   0  0  2  0  0  0  0  0  0  0  0  0
   26.6829  -21.4255  -11.2140 N   0  0  0  0  0  0  0  0  0  0  0  0
   26.2757  -19.6255   -9.6481 C   0  0  0  0  0  0  0  0  0  0  0  0
   25.2273  -19.0779   -8.9455 O   0  0  0  0  0  0  0  0  0  0  0  0
   28.5182  -19.6630   -7.4685 C   0  0  0  0  0  0  0  0  0  0  0  0
   28.5386  -19.0621   -6.2162 C   0  0  0  0  0  0  0  0  0  0  0  0
   27.0457  -18.7795  -10.2201 O   0  0  0  0  0  0  0  0  0  0  0  0
  1  2  1  0
  2  3  1  0
  3  5  1  0
  3  4  1  1
  5  6  1  6
  5  7  1  0
  7  8  2  0
  7 13  1  0
 10 11  1  1
 10  9  1  0
 12 10  1  0
 12 13  1  6
 14 12  1  0
 14 15  2  0
 16 17  1  0
 17 27  2  0
 18 17  1  0
 18 19  2  0
 19 20  1  0
 20 26  2  0
 20 21  1  0
 22 23  1  0
 22 21  1  1
 23 14  1  0
 24 22  1  0
 25 24  1  0
 27 26  1  0
 28 24  2  0
M  END
$$$$
