IVY.pdb
     RDKit          3D

 28 28  0  0  1  0  0  0  0  0999 V2000
   27.7470  -17.5849  -18.0808 C   0  0  0  0  0  0  0  0  0  0  0  0
   28.3651  -18.4417  -17.0293 C   0  0  0  0  0  0  0  0  0  0  0  0
   27.3491  -19.0277  -16.1028 C   0  0  2  0  0  0  0  0  0  0  0  0
   26.5012  -17.9401  -15.4820 C   0  0  0  0  0  0  0  0  0  0  0  0
   27.9317  -19.9428  -15.0597 C   0  0  2  0  0  0  0  0  0  0  0  0
   28.5775  -21.0608  -15.7958 N   0  0  0  0  0  0  0  0  0  0  0  0
   26.9280  -20.5687  -14.1726 C   0  0  0  0  0  0  0  0  0  0  0  0
   26.2475  -21.5533  -14.6044 O   0  0  0  0  0  0  0  0  0  0  0  0
   27.3884  -21.2775  -10.2873 C   0  0  0  0  0  0  0  0  0  0  0  0
   26.0619  -20.6513  -10.5827 C   0  0  2  0  0  0  0  0  0  0  0  0
   25.0356  -21.2415   -9.6402 C   0  0  0  0  0  0  0  0  0  0  0  0
   25.6340  -20.8294  -12.0242 C   0  0  2  0  0  0  0  0  0  0  0  0
   26.6329  -20.1773  -12.8452 N   0  0  0  0  0  0  0  0  0  0  0  0
   24.2766  -20.2870  -12.2667 C   0  0  0  0  0  0  0  0  0  0  0  0
   24.0764  -19.0503  -12.1209 O   0  0  0  0  0  0  0  0  0  0  0  0
   17.0981  -17.6035  -16.0513 O   0  0  0  0  0  0  0  0  0  0  0  0
   18.3289  -18.0778  -15.5894 C   0  0  0  0  0  0  0  0  0  0  0  0
   19.0057  -17.4814  -14.5504 C   0  0  0  0  0  0  0  0  0  0  0  0
   20.2382  -17.9853  -14.1143 C   0  0  0  0  0  0  0  0  0  0  0  0
   20.8005  -19.0854  -14.7125 C   0  0  0  0  0  0  0  0  0  0  0  0
   22.0903  -19.6136  -14.2592 C   0  0  0  0  0  0  0  0  0  0  0  0
   21.9056  -20.5475  -13.1164 C   0  0  2  0  0  0  0  0  0  0  0  0
   23.1804  -21.1002  -12.6590 N   0  0  0  0  0  0  0  0  0  0  0  0
   20.9264  -21.5814  -13.3979 C   0  0  0  0  0  0  0  0  0  0  0  0
   21.1140  -22.7370  -14.1204 O   0  0  0  0  0  0  0  0  0  0  0  0
   20.1116  -19.6667  -15.7464 C   0  0  0  0  0  0  0  0  0  0  0  0
   18.8889  -19.1795  -16.1906 C   0  0  0  0  0  0  0  0  0  0  0  0
   19.7463  -21.4186  -12.9325 O   0  0  0  0  0  0  0  0  0  0  0  0
  1  2  1  0
  2  3  1  0
  3  5  1  0
  3  4  1  1
  5  6  1  6
  5  7  1  0
  7  8  2  0
  7 13  1  0
 10 11  1  1
 10  9  1  0
 12 10  1  0
 12 13  1  6
 14 12  1  0
 14 15  2  0
 16 17  1  0
 17 27  2  0
 18 17  1  0
 18 19  2  0
 19 20  1  0
 20 26  2  0
 20 21  1  0
 22 23  1  0
 22 21  1  6
 23 14  1  0
 24 22  1  0
 25 24  1  0
 27 26  1  0
 28 24  2  0
M  END
$$$$
