IVY.pdb
     RDKit          3D

 28 28  0  0  1  0  0  0  0  0999 V2000
   27.1636  -20.3716   -7.2779 C   0  0  0  0  0  0  0  0  0  0  0  0
   27.3881  -21.0615   -8.5801 C   0  0  0  0  0  0  0  0  0  0  0  0
   26.3277  -20.7415   -9.5838 C   0  0  2  0  0  0  0  0  0  0  0  0
   24.9537  -21.0230   -9.0182 C   0  0  0  0  0  0  0  0  0  0  0  0
   26.5287  -21.4105  -10.9168 C   0  0  2  0  0  0  0  0  0  0  0  0
   27.8792  -21.0078  -11.3890 N   0  0  0  0  0  0  0  0  0  0  0  0
   25.5848  -20.9692  -11.9658 C   0  0  0  0  0  0  0  0  0  0  0  0
   25.6036  -19.7548  -12.3451 O   0  0  0  0  0  0  0  0  0  0  0  0
   23.7980  -23.5222  -14.7382 C   0  0  0  0  0  0  0  0  0  0  0  0
   23.9708  -22.0439  -14.8923 C   0  0  2  0  0  0  0  0  0  0  0  0
   25.3745  -21.7775  -15.3907 C   0  0  0  0  0  0  0  0  0  0  0  0
   23.7006  -21.2824  -13.6118 C   0  0  2  0  0  0  0  0  0  0  0  0
   24.6286  -21.7823  -12.6188 N   0  0  0  0  0  0  0  0  0  0  0  0
   22.2918  -21.4227  -13.1745 C   0  0  0  0  0  0  0  0  0  0  0  0
   21.9841  -22.3638  -12.3932 O   0  0  0  0  0  0  0  0  0  0  0  0
   13.7530  -20.2213  -11.5505 O   0  0  0  0  0  0  0  0  0  0  0  0
   15.1021  -20.0282  -11.8599 C   0  0  0  0  0  0  0  0  0  0  0  0
   15.5178  -19.5647  -13.0868 C   0  0  0  0  0  0  0  0  0  0  0  0
   16.8799  -19.3833  -13.3610 C   0  0  0  0  0  0  0  0  0  0  0  0
   17.8323  -19.6635  -12.4130 C   0  0  0  0  0  0  0  0  0  0  0  0
   19.2577  -19.4760  -12.6978 C   0  0  0  0  0  0  0  0  0  0  0  0
   19.8577  -20.7274  -13.2328 C   0  0  2  0  0  0  0  0  0  0  0  0
   21.2622  -20.5404  -13.5967 N   0  0  0  0  0  0  0  0  0  0  0  0
   19.0788  -21.2960  -14.3177 C   0  0  0  0  0  0  0  0  0  0  0  0
   18.0404  -22.1932  -14.2215 O   0  0  0  0  0  0  0  0  0  0  0  0
   17.3993  -20.1245  -11.1959 C   0  0  0  0  0  0  0  0  0  0  0  0
   16.0530  -20.3097  -10.9083 C   0  0  0  0  0  0  0  0  0  0  0  0
   19.3767  -20.9374  -15.5087 O   0  0  0  0  0  0  0  0  0  0  0  0
  1  2  1  0
  2  3  1  0
  3  5  1  0
  3  4  1  1
  5  6  1  6
  5  7  1  0
  7  8  2  0
  7 13  1  0
 10 11  1  1
 10  9  1  0
 12 10  1  0
 12 13  1  1
 14 12  1  0
 14 15  2  0
 16 17  1  0
 17 27  2  0
 18 17  1  0
 18 19  2  0
 19 20  1  0
 20 26  2  0
 20 21  1  0
 22 23  1  0
 22 21  1  6
 23 14  1  0
 24 22  1  0
 25 24  1  0
 27 26  1  0
 28 24  2  0
M  END
$$$$
