IVY.pdb
     RDKit          3D

 28 28  0  0  1  0  0  0  0  0999 V2000
   29.3155  -17.9125  -16.4284 C   0  0  0  0  0  0  0  0  0  0  0  0
   28.3808  -18.1529  -17.5644 C   0  0  0  0  0  0  0  0  0  0  0  0
   27.0853  -18.7507  -17.1187 C   0  0  2  0  0  0  0  0  0  0  0  0
   26.2435  -17.7237  -16.3949 C   0  0  0  0  0  0  0  0  0  0  0  0
   27.2416  -20.0111  -16.3114 C   0  0  2  0  0  0  0  0  0  0  0  0
   28.0310  -20.9509  -17.1494 N   0  0  0  0  0  0  0  0  0  0  0  0
   25.9693  -20.7037  -16.0152 C   0  0  0  0  0  0  0  0  0  0  0  0
   25.2281  -21.0773  -16.9795 O   0  0  0  0  0  0  0  0  0  0  0  0
   25.3820  -23.8499  -14.3448 C   0  0  0  0  0  0  0  0  0  0  0  0
   24.4567  -22.8868  -13.6702 C   0  0  2  0  0  0  0  0  0  0  0  0
   23.1656  -23.6093  -13.3523 C   0  0  0  0  0  0  0  0  0  0  0  0
   24.1901  -21.6474  -14.4981 C   0  0  2  0  0  0  0  0  0  0  0  0
   25.4695  -21.0088  -14.7271 N   0  0  0  0  0  0  0  0  0  0  0  0
   23.2275  -20.7378  -13.8334 C   0  0  0  0  0  0  0  0  0  0  0  0
   23.6470  -19.9428  -12.9488 O   0  0  0  0  0  0  0  0  0  0  0  0
   21.7395  -17.8108  -19.6931 O   0  0  0  0  0  0  0  0  0  0  0  0
   21.6894  -17.9375  -18.3021 C   0  0  0  0  0  0  0  0  0  0  0  0
   22.8203  -18.1010  -17.5358 C   0  0  0  0  0  0  0  0  0  0  0  0
   22.7311  -18.2247  -16.1429 C   0  0  0  0  0  0  0  0  0  0  0  0
   21.5140  -18.1858  -15.5092 C   0  0  0  0  0  0  0  0  0  0  0  0
   21.4178  -18.3163  -14.0526 C   0  0  0  0  0  0  0  0  0  0  0  0
   20.9361  -19.6719  -13.6752 C   0  0  2  0  0  0  0  0  0  0  0  0
   21.8426  -20.7183  -14.1476 N   0  0  0  0  0  0  0  0  0  0  0  0
   19.5634  -19.9065  -14.0847 C   0  0  0  0  0  0  0  0  0  0  0  0
   19.1107  -20.8159  -15.0124 O   0  0  0  0  0  0  0  0  0  0  0  0
   20.3977  -18.0222  -16.2892 C   0  0  0  0  0  0  0  0  0  0  0  0
   20.4692  -17.8981  -17.6709 C   0  0  0  0  0  0  0  0  0  0  0  0
   18.6540  -19.1952  -13.5343 O   0  0  0  0  0  0  0  0  0  0  0  0
  1  2  1  0
  2  3  1  0
  3  5  1  0
  3  4  1  1
  5  6  1  6
  5  7  1  0
  7  8  2  0
  7 13  1  0
 10 11  1  6
 10  9  1  0
 12 10  1  0
 12 13  1  1
 14 12  1  0
 14 15  2  0
 16 17  1  0
 17 27  2  0
 18 17  1  0
 18 19  2  0
 19 20  1  0
 20 26  2  0
 20 21  1  0
 22 23  1  0
 22 21  1  6
 23 14  1  0
 24 22  1  0
 25 24  1  0
 27 26  1  0
 28 24  2  0
M  END
$$$$
