LMC.pdb
     RDKit          3D

 23 22  0  0  1  0  0  0  0  0999 V2000
    8.8642  -12.3649   18.4884 C   0  0  0  0  0  0  0  0  0  0  0  0
    8.2288  -13.3044   19.4822 C   0  0  2  0  0  0  0  0  0  0  0  0
    6.8747  -12.8083   19.8653 C   0  0  0  0  0  0  0  0  0  0  0  0
    9.1276  -13.4902   20.7098 C   0  0  0  0  0  0  0  0  0  0  0  0
    8.8783  -14.9027   21.2181 C   0  0  2  0  0  0  0  0  0  0  0  0
    7.5118  -15.2394   20.8647 N   0  0  0  0  0  0  0  0  0  0  0  0
    9.0864  -15.0321   22.6609 C   0  0  0  0  0  0  0  0  0  0  0  0
   10.2638  -14.8547   23.1259 O   0  0  0  0  0  0  0  0  0  0  0  0
    7.4401  -11.6692   27.9431 C   0  0  0  0  0  0  0  0  0  0  0  0
    6.4114  -12.0814   26.5331 S   0  0  0  0  0  0  0  0  0  0  0  0
    7.3227  -13.0680   25.2992 C   0  0  0  0  0  0  0  0  0  0  0  0
    7.3448  -14.4783   25.7869 C   0  0  0  0  0  0  0  0  0  0  0  0
    8.3074  -15.3712   25.0485 C   0  0  2  0  0  0  0  0  0  0  0  0
    8.1009  -15.3394   23.6161 N   0  0  0  0  0  0  0  0  0  0  0  0
    8.3857  -16.7169   25.6047 C   0  0  0  0  0  0  0  0  0  0  0  0
    7.6409  -17.6693   25.2631 O   0  0  0  0  0  0  0  0  0  0  0  0
    9.3551  -17.0114   26.6010 N   0  0  0  0  0  0  0  0  0  0  0  0
   10.0751  -18.2858   26.6318 C   0  0  1  0  0  0  0  0  0  0  0  0
   10.8173  -18.3957   25.3002 C   0  0  0  0  0  0  0  0  0  0  0  0
   11.7284  -19.9647   25.2710 S   0  0  0  0  0  0  0  0  0  0  0  0
   10.9779  -18.3804   27.7750 C   0  0  0  0  0  0  0  0  0  0  0  0
   11.1972  -19.5911   28.3987 O   0  0  0  0  0  0  0  0  0  0  0  0
   11.5633  -17.3624   28.2019 O   0  0  0  0  0  0  0  0  0  0  0  0
  2  1  1  6
  3  2  1  0
  4  2  1  0
  5  4  1  0
  5  6  1  1
  7  8  2  0
  7  5  1  0
  9 10  1  0
 11 10  1  0
 12 11  1  0
 13 12  1  1
 13 14  1  0
 14  7  1  0
 15 13  1  0
 15 17  1  0
 16 15  2  0
 18 17  1  0
 18 21  1  0
 18 19  1  6
 20 19  1  0
 21 22  1  0
 23 21  2  0
M  END
$$$$
