LMC.pdb
     RDKit          3D

 23 22  0  0  1  0  0  0  0  0999 V2000
    9.0604  -14.7859   18.2522 C   0  0  0  0  0  0  0  0  0  0  0  0
    7.7869  -14.2821   18.8837 C   0  0  2  0  0  0  0  0  0  0  0  0
    7.1407  -13.2689   17.9993 C   0  0  0  0  0  0  0  0  0  0  0  0
    8.0576  -13.7168   20.2824 C   0  0  0  0  0  0  0  0  0  0  0  0
    8.6638  -14.8504   21.0968 C   0  0  2  0  0  0  0  0  0  0  0  0
    7.7750  -15.9886   20.9558 N   0  0  0  0  0  0  0  0  0  0  0  0
    8.8415  -14.5043   22.5075 C   0  0  0  0  0  0  0  0  0  0  0  0
    9.6321  -13.5450   22.8056 O   0  0  0  0  0  0  0  0  0  0  0  0
    7.3807  -10.8879   27.2037 C   0  0  0  0  0  0  0  0  0  0  0  0
    6.1641  -12.1766   26.9293 S   0  0  0  0  0  0  0  0  0  0  0  0
    6.9265  -13.8336   26.9251 C   0  0  0  0  0  0  0  0  0  0  0  0
    6.9131  -14.3249   25.5161 C   0  0  0  0  0  0  0  0  0  0  0  0
    8.2737  -14.6734   24.9715 C   0  0  2  0  0  0  0  0  0  0  0  0
    8.2174  -15.1328   23.6000 N   0  0  0  0  0  0  0  0  0  0  0  0
    9.0414  -15.5430   25.8553 C   0  0  0  0  0  0  0  0  0  0  0  0
    8.5742  -16.5554   26.4342 O   0  0  0  0  0  0  0  0  0  0  0  0
   10.4117  -15.2609   26.1039 N   0  0  0  0  0  0  0  0  0  0  0  0
   11.1936  -16.0127   27.0871 C   0  0  1  0  0  0  0  0  0  0  0  0
   10.4777  -15.8471   28.4273 C   0  0  0  0  0  0  0  0  0  0  0  0
   10.6698  -14.1293   28.9798 S   0  0  0  0  0  0  0  0  0  0  0  0
   11.3450  -17.4157   26.7133 C   0  0  0  0  0  0  0  0  0  0  0  0
   12.0718  -18.2795   27.5063 O   0  0  0  0  0  0  0  0  0  0  0  0
   10.8164  -17.8502   25.6679 O   0  0  0  0  0  0  0  0  0  0  0  0
  2  1  1  6
  3  2  1  0
  4  2  1  0
  5  4  1  0
  5  6  1  1
  7  8  2  0
  7  5  1  0
  9 10  1  0
 11 10  1  0
 12 11  1  0
 13 12  1  1
 13 14  1  0
 14  7  1  0
 15 13  1  0
 15 17  1  0
 16 15  2  0
 18 17  1  0
 18 21  1  0
 18 19  1  1
 20 19  1  0
 21 22  1  0
 23 21  2  0
M  END
$$$$
