LMC.pdb
     RDKit          3D

 23 22  0  0  1  0  0  0  0  0999 V2000
    8.3896  -14.5808   18.4440 C   0  0  0  0  0  0  0  0  0  0  0  0
    7.6842  -13.7797   19.5093 C   0  0  2  0  0  0  0  0  0  0  0  0
    7.2193  -12.4771   18.9494 C   0  0  0  0  0  0  0  0  0  0  0  0
    8.5899  -13.5764   20.7290 C   0  0  0  0  0  0  0  0  0  0  0  0
    8.7731  -14.9470   21.3645 C   0  0  2  0  0  0  0  0  0  0  0  0
    7.5251  -15.6638   21.1800 N   0  0  0  0  0  0  0  0  0  0  0  0
    9.1223  -14.8729   22.7837 C   0  0  0  0  0  0  0  0  0  0  0  0
   10.2636  -14.3967   23.1072 O   0  0  0  0  0  0  0  0  0  0  0  0
    5.0214  -11.9169   26.9477 C   0  0  0  0  0  0  0  0  0  0  0  0
    6.6646  -12.3679   27.5068 S   0  0  0  0  0  0  0  0  0  0  0  0
    7.7127  -12.9395   26.1279 C   0  0  0  0  0  0  0  0  0  0  0  0
    7.5410  -14.4182   26.0231 C   0  0  0  0  0  0  0  0  0  0  0  0
    8.6374  -15.1138   25.2594 C   0  0  2  0  0  0  0  0  0  0  0  0
    8.3127  -15.2815   23.8587 N   0  0  0  0  0  0  0  0  0  0  0  0
    9.1056  -16.3332   25.9078 C   0  0  0  0  0  0  0  0  0  0  0  0
    9.1190  -16.5144   27.1510 O   0  0  0  0  0  0  0  0  0  0  0  0
    9.5862  -17.4111   25.1166 N   0  0  0  0  0  0  0  0  0  0  0  0
   10.0774  -18.6544   25.7136 C   0  0  1  0  0  0  0  0  0  0  0  0
    9.9664  -19.7276   24.6311 C   0  0  0  0  0  0  0  0  0  0  0  0
   10.9244  -19.1949   23.1849 S   0  0  0  0  0  0  0  0  0  0  0  0
   11.4404  -18.5210   26.2193 C   0  0  0  0  0  0  0  0  0  0  0  0
   12.0037  -19.5159   26.9913 O   0  0  0  0  0  0  0  0  0  0  0  0
   12.1130  -17.5012   25.9573 O   0  0  0  0  0  0  0  0  0  0  0  0
  2  1  1  6
  3  2  1  0
  4  2  1  0
  5  4  1  0
  5  6  1  1
  7  8  2  0
  7  5  1  0
  9 10  1  0
 11 10  1  0
 12 11  1  0
 13 12  1  1
 13 14  1  0
 14  7  1  0
 15 13  1  0
 15 17  1  0
 16 15  2  0
 18 17  1  0
 18 21  1  0
 18 19  1  6
 20 19  1  0
 21 22  1  0
 23 21  2  0
M  END
$$$$
