LMC.pdb
     RDKit          3D

 23 22  0  0  1  0  0  0  0  0999 V2000
    7.0519  -18.9540   19.7658 C   0  0  0  0  0  0  0  0  0  0  0  0
    8.4272  -19.4700   20.1068 C   0  0  2  0  0  0  0  0  0  0  0  0
    8.3867  -20.9481   20.3065 C   0  0  0  0  0  0  0  0  0  0  0  0
    8.9902  -18.7514   21.3381 C   0  0  0  0  0  0  0  0  0  0  0  0
    8.9395  -17.2620   21.0299 C   0  0  2  0  0  0  0  0  0  0  0  0
    9.9307  -17.0140   19.9996 N   0  0  0  0  0  0  0  0  0  0  0  0
    9.1963  -16.4297   22.2059 C   0  0  0  0  0  0  0  0  0  0  0  0
   10.4005  -16.3100   22.6176 O   0  0  0  0  0  0  0  0  0  0  0  0
    6.3479  -11.2677   27.5796 C   0  0  0  0  0  0  0  0  0  0  0  0
    6.1213  -12.3422   26.1617 S   0  0  0  0  0  0  0  0  0  0  0  0
    7.5781  -13.4027   25.8797 C   0  0  0  0  0  0  0  0  0  0  0  0
    7.3558  -14.1303   24.5958 C   0  0  0  0  0  0  0  0  0  0  0  0
    8.4728  -15.0669   24.2163 C   0  0  2  0  0  0  0  0  0  0  0  0
    8.2318  -15.7285   22.9515 N   0  0  0  0  0  0  0  0  0  0  0  0
    8.8552  -15.9723   25.2936 C   0  0  0  0  0  0  0  0  0  0  0  0
    8.1734  -16.9604   25.6643 O   0  0  0  0  0  0  0  0  0  0  0  0
   10.0719  -15.7572   25.9952 N   0  0  0  0  0  0  0  0  0  0  0  0
   10.5549  -16.6886   27.0164 C   0  0  1  0  0  0  0  0  0  0  0  0
   11.9063  -17.2065   26.5251 C   0  0  0  0  0  0  0  0  0  0  0  0
   12.9936  -15.7874   26.2138 S   0  0  0  0  0  0  0  0  0  0  0  0
   10.6501  -16.0623   28.3315 C   0  0  0  0  0  0  0  0  0  0  0  0
   10.3470  -14.7267   28.4972 O   0  0  0  0  0  0  0  0  0  0  0  0
   11.0084  -16.7314   29.3240 O   0  0  0  0  0  0  0  0  0  0  0  0
  2  1  1  1
  3  2  1  0
  4  2  1  0
  5  4  1  0
  5  6  1  6
  7  8  2  0
  7  5  1  0
  9 10  1  0
 11 10  1  0
 12 11  1  0
 13 12  1  1
 13 14  1  0
 14  7  1  0
 15 13  1  0
 15 17  1  0
 16 15  2  0
 18 17  1  0
 18 21  1  0
 18 19  1  6
 20 19  1  0
 21 22  1  0
 23 21  2  0
M  END
$$$$
