LMC.pdb
     RDKit          3D

 23 22  0  0  1  0  0  0  0  0999 V2000
    9.5237  -13.1591   19.4783 C   0  0  0  0  0  0  0  0  0  0  0  0
    8.1402  -13.7083   19.2361 C   0  0  2  0  0  0  0  0  0  0  0  0
    7.3098  -12.7060   18.5067 C   0  0  0  0  0  0  0  0  0  0  0  0
    7.4822  -14.1312   20.5543 C   0  0  0  0  0  0  0  0  0  0  0  0
    8.4742  -15.0454   21.2586 C   0  0  2  0  0  0  0  0  0  0  0  0
    7.9916  -16.4023   21.0810 N   0  0  0  0  0  0  0  0  0  0  0  0
    8.6252  -14.7318   22.6800 C   0  0  0  0  0  0  0  0  0  0  0  0
    9.4848  -13.8498   23.0224 O   0  0  0  0  0  0  0  0  0  0  0  0
    6.0732  -10.4243   26.8448 C   0  0  0  0  0  0  0  0  0  0  0  0
    6.3744  -12.1752   27.0893 S   0  0  0  0  0  0  0  0  0  0  0  0
    6.6883  -13.0323   25.5102 C   0  0  0  0  0  0  0  0  0  0  0  0
    6.9271  -14.4712   25.8259 C   0  0  0  0  0  0  0  0  0  0  0  0
    8.1347  -15.0599   25.1446 C   0  0  2  0  0  0  0  0  0  0  0  0
    7.9049  -15.3143   23.7382 N   0  0  0  0  0  0  0  0  0  0  0  0
    8.7064  -16.1919   25.8645 C   0  0  0  0  0  0  0  0  0  0  0  0
    8.9530  -16.1967   27.0964 O   0  0  0  0  0  0  0  0  0  0  0  0
    9.0194  -17.3870   25.1625 N   0  0  0  0  0  0  0  0  0  0  0  0
    9.5723  -18.5625   25.8377 C   0  0  1  0  0  0  0  0  0  0  0  0
    8.5146  -19.6606   25.7303 C   0  0  0  0  0  0  0  0  0  0  0  0
    6.9877  -19.0751   26.5170 S   0  0  0  0  0  0  0  0  0  0  0  0
   10.8522  -18.9730   25.2682 C   0  0  0  0  0  0  0  0  0  0  0  0
   11.4847  -20.1156   25.7127 O   0  0  0  0  0  0  0  0  0  0  0  0
   11.3899  -18.2916   24.3695 O   0  0  0  0  0  0  0  0  0  0  0  0
  2  1  1  1
  3  2  1  0
  4  2  1  0
  5  4  1  0
  5  6  1  1
  7  8  2  0
  7  5  1  0
  9 10  1  0
 11 10  1  0
 12 11  1  0
 13 12  1  1
 13 14  1  0
 14  7  1  0
 15 13  1  0
 15 17  1  0
 16 15  2  0
 18 17  1  0
 18 21  1  0
 18 19  1  6
 20 19  1  0
 21 22  1  0
 23 21  2  0
M  END
$$$$
