LMC.pdb
     RDKit          3D

 23 22  0  0  1  0  0  0  0  0999 V2000
    8.7068  -14.8037   17.7902 C   0  0  0  0  0  0  0  0  0  0  0  0
    7.7263  -13.9984   18.6052 C   0  0  2  0  0  0  0  0  0  0  0  0
    7.3413  -12.7592   17.8687 C   0  0  0  0  0  0  0  0  0  0  0  0
    8.3022  -13.6745   19.9883 C   0  0  0  0  0  0  0  0  0  0  0  0
    8.5664  -15.0094   20.6697 C   0  0  2  0  0  0  0  0  0  0  0  0
    7.3488  -15.7893   20.5481 N   0  0  0  0  0  0  0  0  0  0  0  0
    8.9495  -14.8638   22.0746 C   0  0  0  0  0  0  0  0  0  0  0  0
   10.1325  -14.4627   22.3460 O   0  0  0  0  0  0  0  0  0  0  0  0
    6.7861  -11.7485   28.8109 C   0  0  0  0  0  0  0  0  0  0  0  0
    6.4448  -12.3908   27.1716 S   0  0  0  0  0  0  0  0  0  0  0  0
    7.7360  -13.5556   26.6215 C   0  0  0  0  0  0  0  0  0  0  0  0
    7.4174  -13.9397   25.2150 C   0  0  0  0  0  0  0  0  0  0  0  0
    8.4616  -14.8060   24.5607 C   0  0  2  0  0  0  0  0  0  0  0  0
    8.1314  -15.1259   23.1881 N   0  0  0  0  0  0  0  0  0  0  0  0
    8.8339  -15.9644   25.3646 C   0  0  0  0  0  0  0  0  0  0  0  0
    8.0883  -16.9551   25.5677 O   0  0  0  0  0  0  0  0  0  0  0  0
   10.1158  -16.0146   25.9755 N   0  0  0  0  0  0  0  0  0  0  0  0
   10.6033  -17.2129   26.6609 C   0  0  1  0  0  0  0  0  0  0  0  0
   12.0811  -17.3491   26.2959 C   0  0  0  0  0  0  0  0  0  0  0  0
   12.9165  -15.7802   26.6614 S   0  0  0  0  0  0  0  0  0  0  0  0
   10.3966  -17.1436   28.1044 C   0  0  0  0  0  0  0  0  0  0  0  0
   10.6687  -18.2328   28.9061 O   0  0  0  0  0  0  0  0  0  0  0  0
    9.9698  -16.0937   28.6305 O   0  0  0  0  0  0  0  0  0  0  0  0
  2  1  1  6
  3  2  1  0
  4  2  1  0
  5  4  1  0
  5  6  1  1
  7  8  2  0
  7  5  1  0
  9 10  1  0
 11 10  1  0
 12 11  1  0
 13 12  1  1
 13 14  1  0
 14  7  1  0
 15 13  1  0
 15 17  1  0
 16 15  2  0
 18 17  1  0
 18 21  1  0
 18 19  1  1
 20 19  1  0
 21 22  1  0
 23 21  2  0
M  END
$$$$
