RFD.pdb
     RDKit          3D

 31 31  0  0  1  0  0  0  0  0999 V2000
    8.9342  -15.0238   17.3011 N   0  0  0  0  0  0  0  0  0  0  0  0
    8.4440  -13.7554   16.8901 C   0  0  0  0  0  0  0  0  0  0  0  0
    8.1353  -13.5535   15.6683 N   0  0  0  0  0  0  0  0  0  0  0  0
    8.2813  -12.6617   17.8410 N   0  0  0  0  0  0  0  0  0  0  0  0
    8.6748  -12.8357   19.1996 C   0  0  0  0  0  0  0  0  0  0  0  0
    8.0322  -13.9291   19.9365 C   0  0  0  0  0  0  0  0  0  0  0  0
    8.3592  -14.1886   21.3428 C   0  0  0  0  0  0  0  0  0  0  0  0
    9.1087  -15.3883   21.7443 C   0  0  2  0  0  0  0  0  0  0  0  0
    8.7122  -16.4954   20.8493 N   0  0  0  0  0  0  0  0  0  0  0  0
    8.7945  -15.8135   23.1566 C   0  0  0  0  0  0  0  0  0  0  0  0
    8.0134  -16.7408   23.4434 O   0  0  0  0  0  0  0  0  0  0  0  0
    7.7871  -12.6305   15.3384 N   0  0  0  0  0  0  0  0  0  0  0  0
    9.4003  -15.1484   24.2633 C   0  0  2  0  0  0  0  0  0  0  0  0
    9.1489  -15.5057   25.6569 C   0  0  0  0  0  0  0  0  0  0  0  0
    7.6705  -15.4436   25.9382 C   0  0  0  0  0  0  0  0  0  0  0  0
    7.0947  -14.1231   26.1145 C   0  0  0  0  0  0  0  0  0  0  0  0
    7.5502  -13.3378   27.1592 C   0  0  0  0  0  0  0  0  0  0  0  0
    7.0513  -12.0604   27.3730 C   0  0  0  0  0  0  0  0  0  0  0  0
    6.0916  -11.5486   26.5482 C   0  0  0  0  0  0  0  0  0  0  0  0
    5.6264  -12.3016   25.5121 C   0  0  0  0  0  0  0  0  0  0  0  0
    6.1263  -13.5672   25.3068 C   0  0  0  0  0  0  0  0  0  0  0  0
    9.6101  -16.8842   25.9428 O   0  0  0  0  0  0  0  0  0  0  0  0
    9.4087  -17.3407   27.0936 N   0  0  0  0  0  0  0  0  0  0  0  0
   10.2597  -17.7054   24.9943 C   0  0  1  0  0  0  0  0  0  0  0  0
   10.7435  -18.9985   25.4265 C   0  0  0  0  0  0  0  0  0  0  0  0
   11.1848  -19.8922   24.3061 C   0  0  0  0  0  0  0  0  0  0  0  0
   11.7304  -21.1668   24.7926 O   0  0  0  0  0  0  0  0  0  0  0  0
   11.1026  -21.8270   25.6442 C   0  0  0  0  0  0  0  0  0  0  0  0
   11.9269  -18.8509   26.3333 O   0  0  0  0  0  0  0  0  0  0  0  0
   12.0437  -19.5028   27.5376 O   0  0  0  0  0  0  0  0  0  0  0  0
   12.9333  -21.6523   24.3226 O   0  0  0  0  0  0  0  0  0  0  0  0
  2  3  2  0
  2  1  1  0
  4  2  1  0
  5  4  1  0
  6  5  1  0
  7  6  1  0
  8  9  1  6
  8 10  1  0
  8  7  1  0
 10 11  2  0
 12 13  1  0
 12 10  1  0
 13 21  1  0
 13 14  1  1
 15 14  1  0
 16 15  2  0
 17 16  1  0
 18 17  2  0
 18 19  1  0
 19 20  2  0
 20 15  1  0
 21 23  1  0
 21 22  2  0
 23 24  1  0
 24 28  1  0
 24 25  1  1
 26 25  1  0
 26 27  2  0
 28 31  2  0
 28 29  1  0
 30 26  1  0
M  END
$$$$
