RFD.pdb
     RDKit          3D

 31 31  0  0  1  0  0  0  0  0999 V2000
    8.6154  -13.0820   16.1766 N   0  0  0  0  0  0  0  0  0  0  0  0
    7.7727  -14.0052   15.5016 C   0  0  0  0  0  0  0  0  0  0  0  0
    6.9870  -13.6001   14.5811 N   0  0  0  0  0  0  0  0  0  0  0  0
    7.7816  -15.4244   15.8372 N   0  0  0  0  0  0  0  0  0  0  0  0
    8.7620  -15.9369   16.7358 C   0  0  0  0  0  0  0  0  0  0  0  0
    8.9857  -15.1764   17.9699 C   0  0  0  0  0  0  0  0  0  0  0  0
   10.0112  -15.5857   18.9355 C   0  0  0  0  0  0  0  0  0  0  0  0
    9.7027  -16.5201   20.0282 C   0  0  2  0  0  0  0  0  0  0  0  0
    8.2910  -16.9345   19.8900 N   0  0  0  0  0  0  0  0  0  0  0  0
    9.8564  -15.8833   21.3865 C   0  0  0  0  0  0  0  0  0  0  0  0
   10.9105  -15.3550   21.7888 O   0  0  0  0  0  0  0  0  0  0  0  0
    6.3748  -14.2579   14.0572 N   0  0  0  0  0  0  0  0  0  0  0  0
    8.7619  -15.8578   22.3006 C   0  0  1  0  0  0  0  0  0  0  0  0
    8.7958  -15.1583   23.5823 C   0  0  0  0  0  0  0  0  0  0  0  0
    7.4760  -14.4730   23.8217 C   0  0  0  0  0  0  0  0  0  0  0  0
    7.3454  -13.7217   25.0565 C   0  0  0  0  0  0  0  0  0  0  0  0
    6.5230  -14.2222   26.0507 C   0  0  0  0  0  0  0  0  0  0  0  0
    6.3669  -13.5597   27.2602 C   0  0  0  0  0  0  0  0  0  0  0  0
    7.0285  -12.3890   27.4949 C   0  0  0  0  0  0  0  0  0  0  0  0
    7.8445  -11.8750   26.5322 C   0  0  0  0  0  0  0  0  0  0  0  0
    7.9940  -12.5381   25.3357 C   0  0  0  0  0  0  0  0  0  0  0  0
    9.0270  -16.1052   24.6978 O   0  0  0  0  0  0  0  0  0  0  0  0
    8.1832  -17.0162   24.8752 N   0  0  0  0  0  0  0  0  0  0  0  0
   10.1397  -16.0367   25.5656 C   0  0  1  0  0  0  0  0  0  0  0  0
   10.2653  -17.0429   26.5975 C   0  0  0  0  0  0  0  0  0  0  0  0
   11.5675  -17.7862   26.5718 C   0  0  0  0  0  0  0  0  0  0  0  0
   11.7583  -18.5317   25.3200 O   0  0  0  0  0  0  0  0  0  0  0  0
   10.8438  -19.2590   24.8841 C   0  0  0  0  0  0  0  0  0  0  0  0
   10.1630  -16.4276   27.9596 O   0  0  0  0  0  0  0  0  0  0  0  0
   10.0835  -17.1627   29.1182 O   0  0  0  0  0  0  0  0  0  0  0  0
   12.9385  -18.4428   24.6109 O   0  0  0  0  0  0  0  0  0  0  0  0
  2  3  2  0
  2  1  1  0
  4  2  1  0
  5  4  1  0
  6  5  1  0
  7  6  1  0
  8  9  1  6
  8 10  1  0
  8  7  1  0
 10 11  2  0
 12 13  1  0
 12 10  1  0
 13 21  1  0
 13 14  1  6
 15 14  1  0
 16 15  2  0
 17 16  1  0
 18 17  2  0
 18 19  1  0
 19 20  2  0
 20 15  1  0
 21 23  1  0
 21 22  2  0
 23 24  1  0
 24 28  1  0
 24 25  1  1
 26 25  1  0
 26 27  2  0
 28 31  2  0
 28 29  1  0
 30 26  1  0
M  END
$$$$
