RFD.pdb
     RDKit          3D

 31 31  0  0  1  0  0  0  0  0999 V2000
    8.8158  -15.1935   16.2525 N   0  0  0  0  0  0  0  0  0  0  0  0
    8.2067  -13.9152   16.1387 C   0  0  0  0  0  0  0  0  0  0  0  0
    8.2764  -13.2683   15.0408 N   0  0  0  0  0  0  0  0  0  0  0  0
    7.4931  -13.3136   17.2592 N   0  0  0  0  0  0  0  0  0  0  0  0
    7.2155  -14.0870   18.4237 C   0  0  0  0  0  0  0  0  0  0  0  0
    8.3728  -14.5935   19.1691 C   0  0  0  0  0  0  0  0  0  0  0  0
    8.4192  -14.5237   20.6336 C   0  0  0  0  0  0  0  0  0  0  0  0
    8.7535  -15.7037   21.4448 C   0  0  2  0  0  0  0  0  0  0  0  0
    7.5025  -16.4436   21.7119 N   0  0  0  0  0  0  0  0  0  0  0  0
    9.3522  -15.3310   22.7777 C   0  0  0  0  0  0  0  0  0  0  0  0
   10.4180  -14.6990   22.9061 O   0  0  0  0  0  0  0  0  0  0  0  0
    7.8862  -12.3087   14.9467 N   0  0  0  0  0  0  0  0  0  0  0  0
    8.6997  -15.6995   23.9913 C   0  0  1  0  0  0  0  0  0  0  0  0
    9.2030  -15.3509   25.3173 C   0  0  0  0  0  0  0  0  0  0  0  0
    8.0493  -15.1923   26.2727 C   0  0  0  0  0  0  0  0  0  0  0  0
    7.3642  -13.9129   26.2617 C   0  0  0  0  0  0  0  0  0  0  0  0
    8.1243  -12.7564   26.2712 C   0  0  0  0  0  0  0  0  0  0  0  0
    7.5306  -11.5020   26.2466 C   0  0  0  0  0  0  0  0  0  0  0  0
    6.1711  -11.3838   26.2122 C   0  0  0  0  0  0  0  0  0  0  0  0
    5.4001  -12.5074   26.2021 C   0  0  0  0  0  0  0  0  0  0  0  0
    5.9965  -13.7473   26.2265 C   0  0  0  0  0  0  0  0  0  0  0  0
   10.0892  -16.4142   25.8450 O   0  0  0  0  0  0  0  0  0  0  0  0
   10.5573  -16.2652   26.9991 N   0  0  0  0  0  0  0  0  0  0  0  0
   10.4321  -17.5785   25.1220 C   0  0  1  0  0  0  0  0  0  0  0  0
   11.3994  -18.4841   25.7027 C   0  0  0  0  0  0  0  0  0  0  0  0
   10.8783  -19.8716   25.9307 C   0  0  0  0  0  0  0  0  0  0  0  0
   10.2063  -20.0073   27.2303 O   0  0  0  0  0  0  0  0  0  0  0  0
   10.1858  -19.0447   28.0229 C   0  0  0  0  0  0  0  0  0  0  0  0
   12.5969  -18.6290   24.8141 O   0  0  0  0  0  0  0  0  0  0  0  0
   13.7020  -19.3746   25.1488 O   0  0  0  0  0  0  0  0  0  0  0  0
    9.5923  -21.1878   27.5948 O   0  0  0  0  0  0  0  0  0  0  0  0
  2  3  2  0
  2  1  1  0
  4  2  1  0
  5  4  1  0
  6  5  1  0
  7  6  1  0
  8  9  1  1
  8 10  1  0
  8  7  1  0
 10 11  2  0
 12 13  1  0
 12 10  1  0
 13 21  1  0
 13 14  1  1
 15 14  1  0
 16 15  2  0
 17 16  1  0
 18 17  2  0
 18 19  1  0
 19 20  2  0
 20 15  1  0
 21 23  1  0
 21 22  2  0
 23 24  1  0
 24 28  1  0
 24 25  1  1
 26 25  1  0
 26 27  2  0
 28 31  2  0
 28 29  1  0
 30 26  1  0
M  END
$$$$
