RFD.pdb
     RDKit          3D

 31 31  0  0  1  0  0  0  0  0999 V2000
    7.9341  -12.9192   16.1239 N   0  0  0  0  0  0  0  0  0  0  0  0
    8.2731  -14.0110   15.2806 C   0  0  0  0  0  0  0  0  0  0  0  0
    8.5727  -13.8059   14.0571 N   0  0  0  0  0  0  0  0  0  0  0  0
    8.2885  -15.3800   15.7829 N   0  0  0  0  0  0  0  0  0  0  0  0
    7.6130  -15.7003   16.9963 C   0  0  0  0  0  0  0  0  0  0  0  0
    8.0610  -14.9991   18.2043 C   0  0  0  0  0  0  0  0  0  0  0  0
    9.2511  -15.4419   18.9387 C   0  0  0  0  0  0  0  0  0  0  0  0
    9.1398  -16.2944   20.1315 C   0  0  2  0  0  0  0  0  0  0  0  0
    7.7655  -16.8355   20.1797 N   0  0  0  0  0  0  0  0  0  0  0  0
    9.3682  -15.5251   21.4083 C   0  0  0  0  0  0  0  0  0  0  0  0
   10.4403  -14.9582   21.6933 O   0  0  0  0  0  0  0  0  0  0  0  0
    8.7301  -14.5920   13.3943 N   0  0  0  0  0  0  0  0  0  0  0  0
    8.3288  -15.4099   22.3782 C   0  0  1  0  0  0  0  0  0  0  0  0
    8.4559  -14.6364   23.6106 C   0  0  0  0  0  0  0  0  0  0  0  0
    7.0874  -14.3115   24.1494 C   0  0  0  0  0  0  0  0  0  0  0  0
    7.0357  -13.5164   25.3625 C   0  0  0  0  0  0  0  0  0  0  0  0
    6.0582  -13.8033   26.2993 C   0  0  0  0  0  0  0  0  0  0  0  0
    5.9643  -13.0901   27.4863 C   0  0  0  0  0  0  0  0  0  0  0  0
    6.8436  -12.0812   27.7554 C   0  0  0  0  0  0  0  0  0  0  0  0
    7.8154  -11.7790   26.8492 C   0  0  0  0  0  0  0  0  0  0  0  0
    7.9019  -12.4910   25.6748 C   0  0  0  0  0  0  0  0  0  0  0  0
    9.1835  -15.4052   24.6470 O   0  0  0  0  0  0  0  0  0  0  0  0
    9.5522  -14.7926   25.6776 N   0  0  0  0  0  0  0  0  0  0  0  0
    9.4813  -16.7818   24.5364 C   0  0  2  0  0  0  0  0  0  0  0  0
   10.2427  -17.4042   25.5975 C   0  0  0  0  0  0  0  0  0  0  0  0
   11.6187  -16.8359   25.7775 C   0  0  0  0  0  0  0  0  0  0  0  0
   12.5134  -17.1807   24.6640 O   0  0  0  0  0  0  0  0  0  0  0  0
   12.2792  -18.1884   23.9677 C   0  0  0  0  0  0  0  0  0  0  0  0
    9.5502  -17.2457   26.9165 O   0  0  0  0  0  0  0  0  0  0  0  0
    8.3648  -16.5678   27.0724 O   0  0  0  0  0  0  0  0  0  0  0  0
   13.6166  -16.4059   24.3706 O   0  0  0  0  0  0  0  0  0  0  0  0
  2  3  2  0
  2  1  1  0
  4  2  1  0
  5  4  1  0
  6  5  1  0
  7  6  1  0
  8  9  1  1
  8 10  1  0
  8  7  1  0
 10 11  2  0
 12 13  1  0
 12 10  1  0
 13 21  1  0
 13 14  1  1
 15 14  1  0
 16 15  2  0
 17 16  1  0
 18 17  2  0
 18 19  1  0
 19 20  2  0
 20 15  1  0
 21 23  1  0
 21 22  2  0
 23 24  1  0
 24 28  1  0
 24 25  1  6
 26 25  1  0
 26 27  2  0
 28 31  2  0
 28 29  1  0
 30 26  1  0
M  END
$$$$
