RFD.pdb
     RDKit          3D

 31 31  0  0  1  0  0  0  0  0999 V2000
    8.8158  -15.7446   16.3590 N   0  0  0  0  0  0  0  0  0  0  0  0
    7.7085  -14.8908   16.1078 C   0  0  0  0  0  0  0  0  0  0  0  0
    7.4187  -14.5534   14.9116 N   0  0  0  0  0  0  0  0  0  0  0  0
    6.8818  -14.3823   17.1962 N   0  0  0  0  0  0  0  0  0  0  0  0
    7.2671  -13.1978   17.8888 C   0  0  0  0  0  0  0  0  0  0  0  0
    8.4455  -13.2962   18.7567 C   0  0  0  0  0  0  0  0  0  0  0  0
    8.3184  -13.6937   20.1629 C   0  0  0  0  0  0  0  0  0  0  0  0
    8.8211  -14.9910   20.6389 C   0  0  2  0  0  0  0  0  0  0  0  0
    7.7296  -15.9789   20.5103 N   0  0  0  0  0  0  0  0  0  0  0  0
    9.2258  -14.9503   22.0910 C   0  0  0  0  0  0  0  0  0  0  0  0
   10.2081  -14.3149   22.5189 O   0  0  0  0  0  0  0  0  0  0  0  0
    6.5655  -14.0005   14.6917 N   0  0  0  0  0  0  0  0  0  0  0  0
    8.4735  -15.6630   23.0710 C   0  0  1  0  0  0  0  0  0  0  0  0
    8.6988  -15.5406   24.5088 C   0  0  0  0  0  0  0  0  0  0  0  0
    7.3943  -15.2513   25.2042 C   0  0  0  0  0  0  0  0  0  0  0  0
    7.2564  -13.9415   25.8140 C   0  0  0  0  0  0  0  0  0  0  0  0
    8.1184  -13.5964   26.8402 C   0  0  0  0  0  0  0  0  0  0  0  0
    8.0485  -12.3539   27.4549 C   0  0  0  0  0  0  0  0  0  0  0  0
    7.1181  -11.4387   27.0546 C   0  0  0  0  0  0  0  0  0  0  0  0
    6.2577  -11.7540   26.0461 C   0  0  0  0  0  0  0  0  0  0  0  0
    6.3336  -12.9880   25.4418 C   0  0  0  0  0  0  0  0  0  0  0  0
    9.2454  -16.7981   25.0694 O   0  0  0  0  0  0  0  0  0  0  0  0
    8.4637  -17.7714   25.1922 N   0  0  0  0  0  0  0  0  0  0  0  0
   10.5909  -16.9576   25.4697 C   0  0  1  0  0  0  0  0  0  0  0  0
   10.9927  -18.2314   26.0255 C   0  0  0  0  0  0  0  0  0  0  0  0
   12.4448  -18.5521   25.8326 C   0  0  0  0  0  0  0  0  0  0  0  0
   12.6511  -19.6396   24.8662 O   0  0  0  0  0  0  0  0  0  0  0  0
   13.2275  -19.4090   23.7846 C   0  0  0  0  0  0  0  0  0  0  0  0
   10.7496  -18.2706   27.5033 O   0  0  0  0  0  0  0  0  0  0  0  0
   10.3096  -19.3899   28.1686 O   0  0  0  0  0  0  0  0  0  0  0  0
   12.2166  -20.9216   25.1331 O   0  0  0  0  0  0  0  0  0  0  0  0
  2  3  2  0
  2  1  1  0
  4  2  1  0
  5  4  1  0
  6  5  1  0
  7  6  1  0
  8  9  1  1
  8 10  1  0
  8  7  1  0
 10 11  2  0
 12 13  1  0
 12 10  1  0
 13 21  1  0
 13 14  1  6
 15 14  1  0
 16 15  2  0
 17 16  1  0
 18 17  2  0
 18 19  1  0
 19 20  2  0
 20 15  1  0
 21 23  1  0
 21 22  2  0
 23 24  1  0
 24 28  1  0
 24 25  1  1
 26 25  1  0
 26 27  2  0
 28 31  2  0
 28 29  1  0
 30 26  1  0
M  END
$$$$
