RFD.pdb
     RDKit          3D

 31 31  0  0  1  0  0  0  0  0999 V2000
    8.9808  -14.8834   15.5576 N   0  0  0  0  0  0  0  0  0  0  0  0
    8.4444  -13.5735   15.6779 C   0  0  0  0  0  0  0  0  0  0  0  0
    8.0094  -12.9624   14.6454 N   0  0  0  0  0  0  0  0  0  0  0  0
    8.3761  -12.8984   16.9688 N   0  0  0  0  0  0  0  0  0  0  0  0
    8.0009  -13.6279   18.1342 C   0  0  0  0  0  0  0  0  0  0  0  0
    8.0204  -15.0908   18.0302 C   0  0  0  0  0  0  0  0  0  0  0  0
    9.0666  -15.8822   18.6866 C   0  0  0  0  0  0  0  0  0  0  0  0
    8.7807  -16.6801   19.8882 C   0  0  2  0  0  0  0  0  0  0  0  0
    7.3360  -16.9906   19.8973 N   0  0  0  0  0  0  0  0  0  0  0  0
    9.0905  -15.9310   21.1599 C   0  0  0  0  0  0  0  0  0  0  0  0
   10.2224  -15.5006   21.4522 O   0  0  0  0  0  0  0  0  0  0  0  0
    7.6160  -12.0014   14.7049 N   0  0  0  0  0  0  0  0  0  0  0  0
    8.0635  -15.6740   22.1156 C   0  0  1  0  0  0  0  0  0  0  0  0
    8.2903  -14.9730   23.3766 C   0  0  0  0  0  0  0  0  0  0  0  0
    7.0270  -14.2716   23.8019 C   0  0  0  0  0  0  0  0  0  0  0  0
    7.0727  -13.5518   25.0614 C   0  0  0  0  0  0  0  0  0  0  0  0
    7.9878  -12.5231   25.2016 C   0  0  0  0  0  0  0  0  0  0  0  0
    8.0718  -11.7863   26.3749 C   0  0  0  0  0  0  0  0  0  0  0  0
    7.2445  -12.0653   27.4243 C   0  0  0  0  0  0  0  0  0  0  0  0
    6.3345  -13.0733   27.3115 C   0  0  0  0  0  0  0  0  0  0  0  0
    6.2576  -13.7990   26.1448 C   0  0  0  0  0  0  0  0  0  0  0  0
    8.6692  -15.9210   24.4501 O   0  0  0  0  0  0  0  0  0  0  0  0
    7.9024  -16.8883   24.6727 N   0  0  0  0  0  0  0  0  0  0  0  0
    9.8401  -15.7936   25.2303 C   0  0  1  0  0  0  0  0  0  0  0  0
   10.3199  -16.9599   25.9391 C   0  0  0  0  0  0  0  0  0  0  0  0
   11.6965  -17.3973   25.5361 C   0  0  0  0  0  0  0  0  0  0  0  0
   12.1599  -18.5587   26.3078 O   0  0  0  0  0  0  0  0  0  0  0  0
   11.4235  -19.0583   27.1814 C   0  0  0  0  0  0  0  0  0  0  0  0
   10.3790  -16.7027   27.4138 O   0  0  0  0  0  0  0  0  0  0  0  0
   10.1171  -15.4778   27.9796 O   0  0  0  0  0  0  0  0  0  0  0  0
   13.4035  -19.1125   26.0837 O   0  0  0  0  0  0  0  0  0  0  0  0
  2  3  2  0
  2  1  1  0
  4  2  1  0
  5  4  1  0
  6  5  1  0
  7  6  1  0
  8  9  1  1
  8 10  1  0
  8  7  1  0
 10 11  2  0
 12 13  1  0
 12 10  1  0
 13 21  1  0
 13 14  1  1
 15 14  1  0
 16 15  2  0
 17 16  1  0
 18 17  2  0
 18 19  1  0
 19 20  2  0
 20 15  1  0
 21 23  1  0
 21 22  2  0
 23 24  1  0
 24 28  1  0
 24 25  1  1
 26 25  1  0
 26 27  2  0
 28 31  2  0
 28 29  1  0
 30 26  1  0
M  END
$$$$
