RFD.pdb
     RDKit          3D

 31 31  0  0  1  0  0  0  0  0999 V2000
    6.7293  -14.3445   17.2477 N   0  0  0  0  0  0  0  0  0  0  0  0
    7.8709  -14.1920   16.4161 C   0  0  0  0  0  0  0  0  0  0  0  0
    7.7433  -13.7375   15.2304 N   0  0  0  0  0  0  0  0  0  0  0  0
    9.2047  -14.5458   16.8882 N   0  0  0  0  0  0  0  0  0  0  0  0
    9.4232  -14.8089   18.2717 C   0  0  0  0  0  0  0  0  0  0  0  0
    9.0004  -13.7680   19.2148 C   0  0  0  0  0  0  0  0  0  0  0  0
    9.2234  -13.9177   20.6568 C   0  0  0  0  0  0  0  0  0  0  0  0
    9.3016  -15.2452   21.2844 C   0  0  2  0  0  0  0  0  0  0  0  0
    7.9951  -15.9124   21.1061 N   0  0  0  0  0  0  0  0  0  0  0  0
    9.5692  -15.1631   22.7662 C   0  0  0  0  0  0  0  0  0  0  0  0
   10.5672  -14.6044   23.2601 O   0  0  0  0  0  0  0  0  0  0  0  0
    8.5629  -13.6125   14.6024 N   0  0  0  0  0  0  0  0  0  0  0  0
    8.6580  -15.7420   23.6982 C   0  0  1  0  0  0  0  0  0  0  0  0
    8.7943  -15.6150   25.1468 C   0  0  0  0  0  0  0  0  0  0  0  0
    7.4511  -15.3145   25.7587 C   0  0  0  0  0  0  0  0  0  0  0  0
    7.1082  -13.9141   25.9246 C   0  0  0  0  0  0  0  0  0  0  0  0
    7.7716  -13.1817   26.8936 C   0  0  0  0  0  0  0  0  0  0  0  0
    7.5008  -11.8351   27.0924 C   0  0  0  0  0  0  0  0  0  0  0  0
    6.5649  -11.2003   26.3278 C   0  0  0  0  0  0  0  0  0  0  0  0
    5.8977  -11.8991   25.3668 C   0  0  0  0  0  0  0  0  0  0  0  0
    6.1722  -13.2339   25.1759 C   0  0  0  0  0  0  0  0  0  0  0  0
    9.2968  -16.8736   25.7450 O   0  0  0  0  0  0  0  0  0  0  0  0
    9.6397  -16.8510   26.9513 N   0  0  0  0  0  0  0  0  0  0  0  0
    9.4089  -18.0889   25.0335 C   0  0  2  0  0  0  0  0  0  0  0  0
   10.5735  -18.9144   25.2690 C   0  0  0  0  0  0  0  0  0  0  0  0
   11.8589  -18.3101   24.7881 C   0  0  0  0  0  0  0  0  0  0  0  0
   13.0112  -19.1902   25.0264 O   0  0  0  0  0  0  0  0  0  0  0  0
   12.8579  -20.2603   25.6482 C   0  0  0  0  0  0  0  0  0  0  0  0
   10.7569  -19.1751   26.7328 O   0  0  0  0  0  0  0  0  0  0  0  0
   10.0262  -18.5448   27.7114 O   0  0  0  0  0  0  0  0  0  0  0  0
   14.2700  -18.8542   24.5725 O   0  0  0  0  0  0  0  0  0  0  0  0
  2  3  2  0
  2  1  1  0
  4  2  1  0
  5  4  1  0
  6  5  1  0
  7  6  1  0
  8  9  1  1
  8 10  1  0
  8  7  1  0
 10 11  2  0
 12 13  1  0
 12 10  1  0
 13 21  1  0
 13 14  1  1
 15 14  1  0
 16 15  2  0
 17 16  1  0
 18 17  2  0
 18 19  1  0
 19 20  2  0
 20 15  1  0
 21 23  1  0
 21 22  2  0
 23 24  1  0
 24 28  1  0
 24 25  1  6
 26 25  1  0
 26 27  2  0
 28 31  2  0
 28 29  1  0
 30 26  1  0
M  END
$$$$
