RFD.pdb
     RDKit          3D

 31 31  0  0  1  0  0  0  0  0999 V2000
    9.1904  -14.4860   16.2429 N   0  0  0  0  0  0  0  0  0  0  0  0
    7.7875  -14.3825   16.4408 C   0  0  0  0  0  0  0  0  0  0  0  0
    6.9836  -14.9801   15.6501 N   0  0  0  0  0  0  0  0  0  0  0  0
    7.2332  -13.6002   17.5397 N   0  0  0  0  0  0  0  0  0  0  0  0
    8.1049  -12.9529   18.4628 C   0  0  0  0  0  0  0  0  0  0  0  0
    9.1484  -13.7819   19.0755 C   0  0  0  0  0  0  0  0  0  0  0  0
    9.2015  -13.9804   20.5280 C   0  0  0  0  0  0  0  0  0  0  0  0
    9.3532  -15.3217   21.1110 C   0  0  2  0  0  0  0  0  0  0  0  0
    8.0796  -16.0476   20.9243 N   0  0  0  0  0  0  0  0  0  0  0  0
    9.6338  -15.2738   22.5919 C   0  0  0  0  0  0  0  0  0  0  0  0
   10.7105  -14.8817   23.0808 O   0  0  0  0  0  0  0  0  0  0  0  0
    5.9525  -14.8731   15.7363 N   0  0  0  0  0  0  0  0  0  0  0  0
    8.6424  -15.6900   23.5290 C   0  0  1  0  0  0  0  0  0  0  0  0
    8.7674  -15.5063   24.9725 C   0  0  0  0  0  0  0  0  0  0  0  0
    7.4084  -15.2567   25.5721 C   0  0  0  0  0  0  0  0  0  0  0  0
    6.9977  -13.8709   25.7035 C   0  0  0  0  0  0  0  0  0  0  0  0
    7.1787  -13.0230   24.6247 C   0  0  0  0  0  0  0  0  0  0  0  0
    6.7936  -11.6907   24.6808 C   0  0  0  0  0  0  0  0  0  0  0  0
    6.2229  -11.1857   25.8133 C   0  0  0  0  0  0  0  0  0  0  0  0
    6.0337  -11.9999   26.8896 C   0  0  0  0  0  0  0  0  0  0  0  0
    6.4181  -13.3196   26.8258 C   0  0  0  0  0  0  0  0  0  0  0  0
    9.3339  -16.7153   25.6143 O   0  0  0  0  0  0  0  0  0  0  0  0
    9.3504  -16.7581   26.8678 N   0  0  0  0  0  0  0  0  0  0  0  0
    9.8524  -17.8145   24.8940 C   0  0  1  0  0  0  0  0  0  0  0  0
   10.4083  -18.9213   25.6417 C   0  0  0  0  0  0  0  0  0  0  0  0
    9.9776  -20.2703   25.1484 C   0  0  0  0  0  0  0  0  0  0  0  0
   10.6270  -21.3650   25.8827 O   0  0  0  0  0  0  0  0  0  0  0  0
   10.6183  -21.3679   27.1298 C   0  0  0  0  0  0  0  0  0  0  0  0
   11.9051  -18.9120   25.5773 O   0  0  0  0  0  0  0  0  0  0  0  0
   12.6221  -18.0805   24.7506 O   0  0  0  0  0  0  0  0  0  0  0  0
   11.2514  -22.3984   25.2152 O   0  0  0  0  0  0  0  0  0  0  0  0
  2  3  2  0
  2  1  1  0
  4  2  1  0
  5  4  1  0
  6  5  1  0
  7  6  1  0
  8  9  1  1
  8 10  1  0
  8  7  1  0
 10 11  2  0
 12 13  1  0
 12 10  1  0
 13 21  1  0
 13 14  1  6
 15 14  1  0
 16 15  2  0
 17 16  1  0
 18 17  2  0
 18 19  1  0
 19 20  2  0
 20 15  1  0
 21 23  1  0
 21 22  2  0
 23 24  1  0
 24 28  1  0
 24 25  1  1
 26 25  1  0
 26 27  2  0
 28 31  2  0
 28 29  1  0
 30 26  1  0
M  END
$$$$
