RFD.pdb
     RDKit          3D

 31 31  0  0  1  0  0  0  0  0999 V2000
    8.2740  -15.2244   13.6430 N   0  0  0  0  0  0  0  0  0  0  0  0
    8.2511  -13.8713   14.0752 C   0  0  0  0  0  0  0  0  0  0  0  0
    8.0625  -12.9328   13.2312 N   0  0  0  0  0  0  0  0  0  0  0  0
    8.4399  -13.5209   15.4781 N   0  0  0  0  0  0  0  0  0  0  0  0
    8.9567  -14.4871   16.3895 C   0  0  0  0  0  0  0  0  0  0  0  0
    8.1024  -14.8416   17.5279 C   0  0  0  0  0  0  0  0  0  0  0  0
    8.5144  -14.5456   18.9042 C   0  0  0  0  0  0  0  0  0  0  0  0
    8.9954  -15.6055   19.8028 C   0  0  2  0  0  0  0  0  0  0  0  0
    7.9262  -16.6179   19.9284 N   0  0  0  0  0  0  0  0  0  0  0  0
    9.2950  -15.0896   21.1878 C   0  0  0  0  0  0  0  0  0  0  0  0
   10.3657  -14.5372   21.5047 O   0  0  0  0  0  0  0  0  0  0  0  0
    8.0546  -11.9332   13.5188 N   0  0  0  0  0  0  0  0  0  0  0  0
    8.3304  -15.2168   22.2306 C   0  0  1  0  0  0  0  0  0  0  0  0
    8.5159  -14.6734   23.5735 C   0  0  0  0  0  0  0  0  0  0  0  0
    7.2436  -14.0111   24.0334 C   0  0  0  0  0  0  0  0  0  0  0  0
    7.2606  -13.4126   25.3555 C   0  0  0  0  0  0  0  0  0  0  0  0
    7.5402  -12.0616   25.4655 C   0  0  0  0  0  0  0  0  0  0  0  0
    7.5572  -11.4260   26.6993 C   0  0  0  0  0  0  0  0  0  0  0  0
    7.2957  -12.1286   27.8400 C   0  0  0  0  0  0  0  0  0  0  0  0
    7.0174  -13.4601   27.7587 C   0  0  0  0  0  0  0  0  0  0  0  0
    7.0024  -14.0829   26.5316 C   0  0  0  0  0  0  0  0  0  0  0  0
    8.8463  -15.7468   24.5394 O   0  0  0  0  0  0  0  0  0  0  0  0
    8.1868  -16.8119   24.4773 N   0  0  0  0  0  0  0  0  0  0  0  0
    9.8578  -15.6346   25.5194 C   0  0  1  0  0  0  0  0  0  0  0  0
   10.3096  -16.8414   26.1772 C   0  0  0  0  0  0  0  0  0  0  0  0
   11.6680  -17.3035   25.7416 C   0  0  0  0  0  0  0  0  0  0  0  0
   11.6057  -18.5241   24.9259 O   0  0  0  0  0  0  0  0  0  0  0  0
   10.5010  -19.0380   24.6598 C   0  0  0  0  0  0  0  0  0  0  0  0
   10.3919  -16.6433   27.6600 O   0  0  0  0  0  0  0  0  0  0  0  0
   10.1607  -15.4369   28.2765 O   0  0  0  0  0  0  0  0  0  0  0  0
   12.7539  -19.1181   24.4441 O   0  0  0  0  0  0  0  0  0  0  0  0
  2  3  2  0
  2  1  1  0
  4  2  1  0
  5  4  1  0
  6  5  1  0
  7  6  1  0
  8  9  1  1
  8 10  1  0
  8  7  1  0
 10 11  2  0
 12 13  1  0
 12 10  1  0
 13 21  1  0
 13 14  1  1
 15 14  1  0
 16 15  2  0
 17 16  1  0
 18 17  2  0
 18 19  1  0
 19 20  2  0
 20 15  1  0
 21 23  1  0
 21 22  2  0
 23 24  1  0
 24 28  1  0
 24 25  1  1
 26 25  1  0
 26 27  2  0
 28 31  2  0
 28 29  1  0
 30 26  1  0
M  END
$$$$
