RFD.pdb
     RDKit          3D

 31 31  0  0  1  0  0  0  0  0999 V2000
    6.7377  -20.7490   18.5747 N   0  0  0  0  0  0  0  0  0  0  0  0
    7.8424  -21.4700   18.0476 C   0  0  0  0  0  0  0  0  0  0  0  0
    7.6912  -22.6738   17.6517 N   0  0  0  0  0  0  0  0  0  0  0  0
    9.1642  -20.8624   17.9451 N   0  0  0  0  0  0  0  0  0  0  0  0
    9.4676  -19.6883   18.6938 C   0  0  0  0  0  0  0  0  0  0  0  0
    8.8232  -19.5586   20.0050 C   0  0  0  0  0  0  0  0  0  0  0  0
    9.1764  -18.4652   20.9168 C   0  0  0  0  0  0  0  0  0  0  0  0
    9.0368  -17.0581   20.5132 C   0  0  2  0  0  0  0  0  0  0  0  0
   10.0242  -16.7886   19.4473 N   0  0  0  0  0  0  0  0  0  0  0  0
    9.3237  -16.1061   21.6470 C   0  0  0  0  0  0  0  0  0  0  0  0
   10.4186  -15.5351   21.8119 O   0  0  0  0  0  0  0  0  0  0  0  0
    6.7608  -23.0427   17.3686 N   0  0  0  0  0  0  0  0  0  0  0  0
    8.3174  -15.8084   22.6128 C   0  0  2  0  0  0  0  0  0  0  0  0
    8.5001  -14.8521   23.7015 C   0  0  0  0  0  0  0  0  0  0  0  0
    7.1829  -14.1997   24.0305 C   0  0  0  0  0  0  0  0  0  0  0  0
    7.1760  -13.2687   25.1438 C   0  0  0  0  0  0  0  0  0  0  0  0
    6.3218  -13.5139   26.2048 C   0  0  0  0  0  0  0  0  0  0  0  0
    6.2779  -12.6705   27.3062 C   0  0  0  0  0  0  0  0  0  0  0  0
    7.0850  -11.5712   27.3648 C   0  0  0  0  0  0  0  0  0  0  0  0
    7.9352  -11.3075   26.3330 C   0  0  0  0  0  0  0  0  0  0  0  0
    7.9728  -12.1488   25.2446 C   0  0  0  0  0  0  0  0  0  0  0  0
    8.9924  -15.5278   24.9244 O   0  0  0  0  0  0  0  0  0  0  0  0
    9.2637  -14.8123   25.9182 N   0  0  0  0  0  0  0  0  0  0  0  0
    9.1708  -16.9254   25.0293 C   0  0  2  0  0  0  0  0  0  0  0  0
   10.0744  -17.4254   26.0424 C   0  0  0  0  0  0  0  0  0  0  0  0
   11.5236  -17.1821   25.7433 C   0  0  0  0  0  0  0  0  0  0  0  0
   12.0609  -18.1452   24.7724 O   0  0  0  0  0  0  0  0  0  0  0  0
   11.3712  -19.1224   24.4194 C   0  0  0  0  0  0  0  0  0  0  0  0
    9.8067  -16.7756   27.3655 O   0  0  0  0  0  0  0  0  0  0  0  0
    8.8998  -15.7576   27.5391 O   0  0  0  0  0  0  0  0  0  0  0  0
   13.3235  -17.9893   24.2385 O   0  0  0  0  0  0  0  0  0  0  0  0
  2  3  2  0
  2  1  1  0
  4  2  1  0
  5  4  1  0
  6  5  1  0
  7  6  1  0
  8  9  1  6
  8 10  1  0
  8  7  1  0
 10 11  2  0
 12 13  1  0
 12 10  1  0
 13 21  1  0
 13 14  1  6
 15 14  1  0
 16 15  2  0
 17 16  1  0
 18 17  2  0
 18 19  1  0
 19 20  2  0
 20 15  1  0
 21 23  1  0
 21 22  2  0
 23 24  1  0
 24 28  1  0
 24 25  1  6
 26 25  1  0
 26 27  2  0
 28 31  2  0
 28 29  1  0
 30 26  1  0
M  END
$$$$
