RFD.pdb
     RDKit          3D

 31 31  0  0  1  0  0  0  0  0999 V2000
    6.9524  -13.2382   16.9834 N   0  0  0  0  0  0  0  0  0  0  0  0
    7.9717  -14.2032   16.7647 C   0  0  0  0  0  0  0  0  0  0  0  0
    8.6496  -14.1847   15.6835 N   0  0  0  0  0  0  0  0  0  0  0  0
    8.2687  -15.2296   17.7572 N   0  0  0  0  0  0  0  0  0  0  0  0
    7.4891  -15.3153   18.9472 C   0  0  0  0  0  0  0  0  0  0  0  0
    7.7768  -14.3304   19.9953 C   0  0  0  0  0  0  0  0  0  0  0  0
    8.9659  -14.4552   20.8452 C   0  0  0  0  0  0  0  0  0  0  0  0
    9.1840  -15.6425   21.6848 C   0  0  2  0  0  0  0  0  0  0  0  0
    7.9025  -16.3715   21.7868 N   0  0  0  0  0  0  0  0  0  0  0  0
    9.6124  -15.2826   23.0851 C   0  0  0  0  0  0  0  0  0  0  0  0
   10.5869  -14.5514   23.3451 O   0  0  0  0  0  0  0  0  0  0  0  0
    9.4050  -14.8760   15.5008 N   0  0  0  0  0  0  0  0  0  0  0  0
    8.8938  -15.7819   24.2115 C   0  0  1  0  0  0  0  0  0  0  0  0
    9.2817  -15.5250   25.5959 C   0  0  0  0  0  0  0  0  0  0  0  0
    8.0516  -15.2875   26.4321 C   0  0  0  0  0  0  0  0  0  0  0  0
    7.5488  -13.9269   26.4813 C   0  0  0  0  0  0  0  0  0  0  0  0
    8.3839  -12.9308   26.9563 C   0  0  0  0  0  0  0  0  0  0  0  0
    7.9688  -11.6076   27.0150 C   0  0  0  0  0  0  0  0  0  0  0  0
    6.7155  -11.2598   26.6009 C   0  0  0  0  0  0  0  0  0  0  0  0
    5.8738  -12.2220   26.1288 C   0  0  0  0  0  0  0  0  0  0  0  0
    6.2931  -13.5315   26.0738 C   0  0  0  0  0  0  0  0  0  0  0  0
   10.0053  -16.6841   26.1681 O   0  0  0  0  0  0  0  0  0  0  0  0
   10.4042  -16.5963   27.3540 N   0  0  0  0  0  0  0  0  0  0  0  0
   10.2675  -17.8743   25.4536 C   0  0  1  0  0  0  0  0  0  0  0  0
   10.9888  -18.9319   26.1276 C   0  0  0  0  0  0  0  0  0  0  0  0
   10.3841  -20.2929   25.9519 C   0  0  0  0  0  0  0  0  0  0  0  0
    9.9169  -20.8628   27.2231 O   0  0  0  0  0  0  0  0  0  0  0  0
   10.0619  -20.2210   28.2825 C   0  0  0  0  0  0  0  0  0  0  0  0
   12.3938  -19.0305   25.6170 O   0  0  0  0  0  0  0  0  0  0  0  0
   13.3325  -19.8848   26.1442 O   0  0  0  0  0  0  0  0  0  0  0  0
    9.3160  -22.1038   27.2692 O   0  0  0  0  0  0  0  0  0  0  0  0
  2  3  2  0
  2  1  1  0
  4  2  1  0
  5  4  1  0
  6  5  1  0
  7  6  1  0
  8  9  1  1
  8 10  1  0
  8  7  1  0
 10 11  2  0
 12 13  1  0
 12 10  1  0
 13 21  1  0
 13 14  1  1
 15 14  1  0
 16 15  2  0
 17 16  1  0
 18 17  2  0
 18 19  1  0
 19 20  2  0
 20 15  1  0
 21 23  1  0
 21 22  2  0
 23 24  1  0
 24 28  1  0
 24 25  1  6
 26 25  1  0
 26 27  2  0
 28 31  2  0
 28 29  1  0
 30 26  1  0
M  END
$$$$
