RFD.pdb
     RDKit          3D

 31 31  0  0  1  0  0  0  0  0999 V2000
    9.1629  -13.8111   16.8123 N   0  0  0  0  0  0  0  0  0  0  0  0
    7.8037  -13.4853   16.5583 C   0  0  0  0  0  0  0  0  0  0  0  0
    7.4783  -12.8973   15.4734 N   0  0  0  0  0  0  0  0  0  0  0  0
    6.7548  -13.8099   17.5181 N   0  0  0  0  0  0  0  0  0  0  0  0
    7.0720  -14.5444   18.6975 C   0  0  0  0  0  0  0  0  0  0  0  0
    8.1891  -14.0429   19.5050 C   0  0  0  0  0  0  0  0  0  0  0  0
    8.1977  -14.1975   20.9637 C   0  0  0  0  0  0  0  0  0  0  0  0
    8.5355  -15.4822   21.5942 C   0  0  2  0  0  0  0  0  0  0  0  0
    7.3449  -16.3545   21.5200 N   0  0  0  0  0  0  0  0  0  0  0  0
    8.8936  -15.3284   23.0509 C   0  0  0  0  0  0  0  0  0  0  0  0
    9.3075  -14.2666   23.5542 O   0  0  0  0  0  0  0  0  0  0  0  0
    6.5086  -12.5609   15.3042 N   0  0  0  0  0  0  0  0  0  0  0  0
    8.7688  -16.4317   23.9461 C   0  0  1  0  0  0  0  0  0  0  0  0
    8.7939  -16.2989   25.4004 C   0  0  0  0  0  0  0  0  0  0  0  0
    7.4456  -15.8412   25.8917 C   0  0  0  0  0  0  0  0  0  0  0  0
    7.2253  -14.4079   25.9522 C   0  0  0  0  0  0  0  0  0  0  0  0
    7.9186  -13.6722   26.8974 C   0  0  0  0  0  0  0  0  0  0  0  0
    7.7641  -12.2965   26.9971 C   0  0  0  0  0  0  0  0  0  0  0  0
    6.9163  -11.6357   26.1558 C   0  0  0  0  0  0  0  0  0  0  0  0
    6.2220  -12.3371   25.2161 C   0  0  0  0  0  0  0  0  0  0  0  0
    6.3809  -13.7009   25.1237 C   0  0  0  0  0  0  0  0  0  0  0  0
    9.0983  -17.5967   26.0466 O   0  0  0  0  0  0  0  0  0  0  0  0
    8.3040  -18.5475   25.8505 N   0  0  0  0  0  0  0  0  0  0  0  0
   10.2278  -17.8180   26.8658 C   0  0  1  0  0  0  0  0  0  0  0  0
   10.9939  -19.0283   26.6622 C   0  0  0  0  0  0  0  0  0  0  0  0
   11.5535  -19.1724   25.2784 C   0  0  0  0  0  0  0  0  0  0  0  0
   11.6643  -20.5785   24.8664 O   0  0  0  0  0  0  0  0  0  0  0  0
   11.2807  -21.4832   25.6342 C   0  0  0  0  0  0  0  0  0  0  0  0
   12.1658  -19.0825   27.5938 O   0  0  0  0  0  0  0  0  0  0  0  0
   13.2082  -18.1876   27.5518 O   0  0  0  0  0  0  0  0  0  0  0  0
   12.1884  -20.9212   23.6370 O   0  0  0  0  0  0  0  0  0  0  0  0
  2  3  2  0
  2  1  1  0
  4  2  1  0
  5  4  1  0
  6  5  1  0
  7  6  1  0
  8  9  1  1
  8 10  1  0
  8  7  1  0
 10 11  2  0
 12 13  1  0
 12 10  1  0
 13 21  1  0
 13 14  1  1
 15 14  1  0
 16 15  2  0
 17 16  1  0
 18 17  2  0
 18 19  1  0
 19 20  2  0
 20 15  1  0
 21 23  1  0
 21 22  2  0
 23 24  1  0
 24 28  1  0
 24 25  1  1
 26 25  1  0
 26 27  2  0
 28 31  2  0
 28 29  1  0
 30 26  1  0
M  END
$$$$
