RFD.pdb
     RDKit          3D

 31 31  0  0  1  0  0  0  0  0999 V2000
    7.3865  -15.3314   15.6313 N   0  0  0  0  0  0  0  0  0  0  0  0
    8.2379  -14.2541   15.2673 C   0  0  0  0  0  0  0  0  0  0  0  0
    8.7316  -14.1971   14.0919 N   0  0  0  0  0  0  0  0  0  0  0  0
    8.5675  -13.1956   16.2148 N   0  0  0  0  0  0  0  0  0  0  0  0
    7.9264  -13.1545   17.4870 C   0  0  0  0  0  0  0  0  0  0  0  0
    8.0333  -14.3587   18.3175 C   0  0  0  0  0  0  0  0  0  0  0  0
    9.2072  -14.5911   19.1659 C   0  0  0  0  0  0  0  0  0  0  0  0
    9.2517  -15.7095   20.1195 C   0  0  2  0  0  0  0  0  0  0  0  0
    7.9361  -16.3822   20.0962 N   0  0  0  0  0  0  0  0  0  0  0  0
    9.4982  -15.2467   21.5334 C   0  0  0  0  0  0  0  0  0  0  0  0
   10.5722  -14.7496   21.9224 O   0  0  0  0  0  0  0  0  0  0  0  0
    9.4391  -13.4807   13.8309 N   0  0  0  0  0  0  0  0  0  0  0  0
    8.4751  -15.3625   22.5204 C   0  0  1  0  0  0  0  0  0  0  0  0
    8.5021  -14.6568   23.7988 C   0  0  0  0  0  0  0  0  0  0  0  0
    7.1554  -14.0370   24.0652 C   0  0  0  0  0  0  0  0  0  0  0  0
    7.0588  -13.1545   25.2132 C   0  0  0  0  0  0  0  0  0  0  0  0
    6.0576  -13.3841   26.1408 C   0  0  0  0  0  0  0  0  0  0  0  0
    5.9206  -12.5858   27.2679 C   0  0  0  0  0  0  0  0  0  0  0  0
    6.7798  -11.5476   27.4854 C   0  0  0  0  0  0  0  0  0  0  0  0
    7.7743  -11.3005   26.5872 C   0  0  0  0  0  0  0  0  0  0  0  0
    7.9035  -12.0968   25.4723 C   0  0  0  0  0  0  0  0  0  0  0  0
    8.8046  -15.5863   24.9119 O   0  0  0  0  0  0  0  0  0  0  0  0
    8.8476  -15.1132   26.0728 N   0  0  0  0  0  0  0  0  0  0  0  0
    9.0452  -16.9672   24.7358 C   0  0  1  0  0  0  0  0  0  0  0  0
    9.3254  -17.7676   25.9079 C   0  0  0  0  0  0  0  0  0  0  0  0
    8.6658  -19.1143   25.9009 C   0  0  0  0  0  0  0  0  0  0  0  0
    7.1999  -19.0161   25.8838 O   0  0  0  0  0  0  0  0  0  0  0  0
    6.6513  -17.8974   25.9364 C   0  0  0  0  0  0  0  0  0  0  0  0
   10.7954  -18.0238   26.0416 O   0  0  0  0  0  0  0  0  0  0  0  0
   11.3505  -18.7183   27.0897 O   0  0  0  0  0  0  0  0  0  0  0  0
    6.4111  -20.1457   25.8101 O   0  0  0  0  0  0  0  0  0  0  0  0
  2  3  2  0
  2  1  1  0
  4  2  1  0
  5  4  1  0
  6  5  1  0
  7  6  1  0
  8  9  1  1
  8 10  1  0
  8  7  1  0
 10 11  2  0
 12 13  1  0
 12 10  1  0
 13 21  1  0
 13 14  1  1
 15 14  1  0
 16 15  2  0
 17 16  1  0
 18 17  2  0
 18 19  1  0
 19 20  2  0
 20 15  1  0
 21 23  1  0
 21 22  2  0
 23 24  1  0
 24 28  1  0
 24 25  1  1
 26 25  1  0
 26 27  2  0
 28 31  2  0
 28 29  1  0
 30 26  1  0
M  END
$$$$
