RFD.pdb
     RDKit          3D

 31 31  0  0  1  0  0  0  0  0999 V2000
   10.2247  -13.2652   18.3093 N   0  0  0  0  0  0  0  0  0  0  0  0
    8.8377  -12.9859   18.1819 C   0  0  0  0  0  0  0  0  0  0  0  0
    8.3875  -11.8293   18.4791 N   0  0  0  0  0  0  0  0  0  0  0  0
    7.9005  -14.0004   17.7133 N   0  0  0  0  0  0  0  0  0  0  0  0
    8.2838  -15.3730   17.7042 C   0  0  0  0  0  0  0  0  0  0  0  0
    8.2340  -16.0792   18.9888 C   0  0  0  0  0  0  0  0  0  0  0  0
    9.4139  -16.7717   19.5179 C   0  0  0  0  0  0  0  0  0  0  0  0
    9.3575  -17.5214   20.7815 C   0  0  2  0  0  0  0  0  0  0  0  0
    8.0370  -18.1798   20.8635 N   0  0  0  0  0  0  0  0  0  0  0  0
    9.4912  -16.6240   21.9861 C   0  0  0  0  0  0  0  0  0  0  0  0
   10.5452  -16.0393   22.3008 O   0  0  0  0  0  0  0  0  0  0  0  0
    7.3803  -11.5917   18.3738 N   0  0  0  0  0  0  0  0  0  0  0  0
    8.3762  -16.3985   22.8465 C   0  0  1  0  0  0  0  0  0  0  0  0
    8.4504  -15.6142   24.0763 C   0  0  0  0  0  0  0  0  0  0  0  0
    7.2781  -14.6711   24.1484 C   0  0  0  0  0  0  0  0  0  0  0  0
    7.1845  -13.8359   25.3315 C   0  0  0  0  0  0  0  0  0  0  0  0
    7.3780  -12.4723   25.1947 C   0  0  0  0  0  0  0  0  0  0  0  0
    7.2873  -11.6172   26.2841 C   0  0  0  0  0  0  0  0  0  0  0  0
    7.0024  -12.1100   27.5249 C   0  0  0  0  0  0  0  0  0  0  0  0
    6.8073  -13.4489   27.6863 C   0  0  0  0  0  0  0  0  0  0  0  0
    6.8989  -14.2900   26.6010 C   0  0  0  0  0  0  0  0  0  0  0  0
    8.4038  -16.4917   25.2689 O   0  0  0  0  0  0  0  0  0  0  0  0
    7.5759  -17.4339   25.2691 N   0  0  0  0  0  0  0  0  0  0  0  0
    9.2369  -16.3242   26.3976 C   0  0  1  0  0  0  0  0  0  0  0  0
   10.0129  -17.4586   26.8493 C   0  0  0  0  0  0  0  0  0  0  0  0
   10.9253  -18.0301   25.8054 C   0  0  0  0  0  0  0  0  0  0  0  0
   11.6830  -19.1872   26.3015 O   0  0  0  0  0  0  0  0  0  0  0  0
   11.0930  -20.1019   26.9101 C   0  0  0  0  0  0  0  0  0  0  0  0
   10.8869  -17.0820   28.0063 O   0  0  0  0  0  0  0  0  0  0  0  0
   10.9524  -15.8101   28.5229 O   0  0  0  0  0  0  0  0  0  0  0  0
   13.0454  -19.2833   26.1062 O   0  0  0  0  0  0  0  0  0  0  0  0
  2  3  2  0
  2  1  1  0
  4  2  1  0
  5  4  1  0
  6  5  1  0
  7  6  1  0
  8  9  1  1
  8 10  1  0
  8  7  1  0
 10 11  2  0
 12 13  1  0
 12 10  1  0
 13 21  1  0
 13 14  1  1
 15 14  1  0
 16 15  2  0
 17 16  1  0
 18 17  2  0
 18 19  1  0
 19 20  2  0
 20 15  1  0
 21 23  1  0
 21 22  2  0
 23 24  1  0
 24 28  1  0
 24 25  1  1
 26 25  1  0
 26 27  2  0
 28 31  2  0
 28 29  1  0
 30 26  1  0
M  END
$$$$
