DYM.pdb
     RDKit          3D

 29 29  0  0  1  0  0  0  0  0999 V2000
    9.8891  -18.1615   18.1435 N   0  0  0  0  0  0  0  0  0  0  0  0
    8.9170  -17.0881   18.3286 C   0  0  1  0  0  0  0  0  0  0  0  0
    7.7908  -17.3392   17.3580 C   0  0  0  0  0  0  0  0  0  0  0  0
    8.3370  -17.5457   16.0004 C   0  0  0  0  0  0  0  0  0  0  0  0
    9.5639  -17.7561   15.7540 O   0  0  0  0  0  0  0  0  0  0  0  0
    8.4717  -17.0317   19.7461 C   0  0  0  0  0  0  0  0  0  0  0  0
    7.5290  -16.3017   20.1399 O   0  0  0  0  0  0  0  0  0  0  0  0
    7.4620  -17.5088   14.9238 O   0  0  0  0  0  0  0  0  0  0  0  0
   14.4353  -20.6056   22.2734 O   0  0  0  0  0  0  0  0  0  0  0  0
   13.0791  -20.2614   22.4254 C   0  0  0  0  0  0  0  0  0  0  0  0
   12.5779  -19.8293   23.6281 C   0  0  0  0  0  0  0  0  0  0  0  0
   11.2222  -19.4990   23.7283 C   0  0  0  0  0  0  0  0  0  0  0  0
   10.3842  -19.6004   22.6420 C   0  0  0  0  0  0  0  0  0  0  0  0
    8.9770  -19.2596   22.7451 C   0  0  0  0  0  0  0  0  0  0  0  0
    8.6185  -17.9303   22.1112 C   0  0  2  0  0  0  0  0  0  0  0  0
    9.1018  -17.8201   20.7648 N   0  0  0  0  0  0  0  0  0  0  0  0
    9.1224  -16.7926   22.9506 C   0  0  0  0  0  0  0  0  0  0  0  0
   10.1302  -16.1286   22.6049 O   0  0  0  0  0  0  0  0  0  0  0  0
   10.9054  -20.0346   21.4484 C   0  0  0  0  0  0  0  0  0  0  0  0
   12.2497  -20.3671   21.3306 C   0  0  0  0  0  0  0  0  0  0  0  0
    6.9113  -10.7057   27.3605 C   0  0  0  0  0  0  0  0  0  0  0  0
    6.6491  -12.0099   26.1547 S   0  0  0  0  0  0  0  0  0  0  0  0
    7.9439  -13.2243   26.1182 C   0  0  0  0  0  0  0  0  0  0  0  0
    7.8444  -14.3124   25.1136 C   0  0  0  0  0  0  0  0  0  0  0  0
    8.9373  -15.3016   24.9899 C   0  0  2  0  0  0  0  0  0  0  0  0
    8.4825  -16.4360   24.1461 N   0  0  0  0  0  0  0  0  0  0  0  0
    9.4549  -15.8352   26.2359 C   0  0  0  0  0  0  0  0  0  0  0  0
   10.2361  -14.9664   27.0498 O   0  0  0  0  0  0  0  0  0  0  0  0
    9.2963  -16.9928   26.6954 O   0  0  0  0  0  0  0  0  0  0  0  0
  2  1  1  1
  2  3  1  0
  3  4  1  0
  4  5  2  0
  4  8  1  0
  6  7  2  0
  6  2  1  0
  9 10  1  0
 10 11  2  0
 11 12  1  0
 13 12  2  0
 13 14  1  0
 15 14  1  1
 15 16  1  0
 16  6  1  0
 17 18  2  0
 17 15  1  0
 19 13  1  0
 20 10  1  0
 20 19  2  0
 21 22  1  0
 23 22  1  0
 24 23  1  0
 25 24  1  1
 25 26  1  0
 26 17  1  0
 27 25  1  0
 28 27  1  0
 29 27  2  0
M  END
$$$$
