DYM.pdb
     RDKit          3D

 29 29  0  0  1  0  0  0  0  0999 V2000
    9.4192  -16.3190   19.2248 N   0  0  0  0  0  0  0  0  0  0  0  0
    8.2463  -15.5432   19.6169 C   0  0  1  0  0  0  0  0  0  0  0  0
    7.2103  -15.7319   18.5378 C   0  0  0  0  0  0  0  0  0  0  0  0
    7.8624  -15.7258   17.2115 C   0  0  0  0  0  0  0  0  0  0  0  0
    9.1189  -15.7682   17.0388 O   0  0  0  0  0  0  0  0  0  0  0  0
    7.7764  -15.9606   20.9644 C   0  0  0  0  0  0  0  0  0  0  0  0
    6.7552  -15.4787   21.5139 O   0  0  0  0  0  0  0  0  0  0  0  0
    7.0594  -15.6704   16.0810 O   0  0  0  0  0  0  0  0  0  0  0  0
    7.4015  -20.3938   28.6589 O   0  0  0  0  0  0  0  0  0  0  0  0
    7.6237  -19.9937   27.3280 C   0  0  0  0  0  0  0  0  0  0  0  0
    6.5826  -19.7669   26.4626 C   0  0  0  0  0  0  0  0  0  0  0  0
    6.8554  -19.3705   25.1490 C   0  0  0  0  0  0  0  0  0  0  0  0
    8.1491  -19.2046   24.7112 C   0  0  0  0  0  0  0  0  0  0  0  0
    8.4336  -18.7950   23.3480 C   0  0  0  0  0  0  0  0  0  0  0  0
    8.1100  -17.3420   23.0627 C   0  0  2  0  0  0  0  0  0  0  0  0
    8.4717  -16.9542   21.7296 N   0  0  0  0  0  0  0  0  0  0  0  0
    8.7674  -16.4470   24.0724 C   0  0  0  0  0  0  0  0  0  0  0  0
   10.0113  -16.2774   24.0759 O   0  0  0  0  0  0  0  0  0  0  0  0
    9.1758  -19.4366   25.5926 C   0  0  0  0  0  0  0  0  0  0  0  0
    8.9233  -19.8310   26.9012 C   0  0  0  0  0  0  0  0  0  0  0  0
    6.0042   -9.9992   26.0619 C   0  0  0  0  0  0  0  0  0  0  0  0
    5.9735  -11.7285   26.5438 S   0  0  0  0  0  0  0  0  0  0  0  0
    7.5001  -12.5841   26.2443 C   0  0  0  0  0  0  0  0  0  0  0  0
    7.5841  -14.0109   26.6446 C   0  0  0  0  0  0  0  0  0  0  0  0
    8.6277  -14.8795   26.0574 C   0  0  2  0  0  0  0  0  0  0  0  0
    8.0124  -15.7723   25.0423 N   0  0  0  0  0  0  0  0  0  0  0  0
    9.3749  -15.6969   26.9946 C   0  0  0  0  0  0  0  0  0  0  0  0
   10.7447  -15.3704   27.2062 O   0  0  0  0  0  0  0  0  0  0  0  0
    8.9549  -16.6777   27.6564 O   0  0  0  0  0  0  0  0  0  0  0  0
  2  1  1  6
  2  3  1  0
  3  4  1  0
  4  5  2  0
  4  8  1  0
  6  7  2  0
  6  2  1  0
  9 10  1  0
 10 11  2  0
 11 12  1  0
 13 12  2  0
 13 14  1  0
 15 14  1  1
 15 16  1  0
 16  6  1  0
 17 18  2  0
 17 15  1  0
 19 13  1  0
 20 10  1  0
 20 19  2  0
 21 22  1  0
 23 22  1  0
 24 23  1  0
 25 24  1  1
 25 26  1  0
 26 17  1  0
 27 25  1  0
 28 27  1  0
 29 27  2  0
M  END
$$$$
