DYM.pdb
     RDKit          3D

 29 29  0  0  1  0  0  0  0  0999 V2000
    9.1490  -18.8770   20.4833 N   0  0  0  0  0  0  0  0  0  0  0  0
   10.3367  -18.1999   19.9711 C   0  0  1  0  0  0  0  0  0  0  0  0
   10.2127  -18.1654   18.4688 C   0  0  0  0  0  0  0  0  0  0  0  0
   10.5879  -19.4792   17.9055 C   0  0  0  0  0  0  0  0  0  0  0  0
   11.0078  -20.4548   18.5999 O   0  0  0  0  0  0  0  0  0  0  0  0
   10.4678  -16.8510   20.5827 C   0  0  0  0  0  0  0  0  0  0  0  0
   11.4645  -16.1094   20.3997 O   0  0  0  0  0  0  0  0  0  0  0  0
   10.4774  -19.6659   16.5348 O   0  0  0  0  0  0  0  0  0  0  0  0
    7.3487  -13.4353   15.9893 O   0  0  0  0  0  0  0  0  0  0  0  0
    7.5519  -13.6102   17.3709 C   0  0  0  0  0  0  0  0  0  0  0  0
    8.2059  -12.6687   18.1258 C   0  0  0  0  0  0  0  0  0  0  0  0
    8.3829  -12.8889   19.4959 C   0  0  0  0  0  0  0  0  0  0  0  0
    7.9125  -14.0330   20.0981 C   0  0  0  0  0  0  0  0  0  0  0  0
    8.0969  -14.2636   21.5193 C   0  0  0  0  0  0  0  0  0  0  0  0
    9.4077  -14.9407   21.8669 C   0  0  2  0  0  0  0  0  0  0  0  0
    9.4481  -16.3071   21.4315 N   0  0  0  0  0  0  0  0  0  0  0  0
    9.6764  -14.8452   23.3404 C   0  0  0  0  0  0  0  0  0  0  0  0
   10.2793  -13.8572   23.8268 O   0  0  0  0  0  0  0  0  0  0  0  0
    7.2612  -14.9621   19.3251 C   0  0  0  0  0  0  0  0  0  0  0  0
    7.0764  -14.7598   17.9625 C   0  0  0  0  0  0  0  0  0  0  0  0
    6.0995  -12.0324   28.6222 C   0  0  0  0  0  0  0  0  0  0  0  0
    6.7069  -12.4732   26.9911 S   0  0  0  0  0  0  0  0  0  0  0  0
    6.9217  -14.2196   26.7532 C   0  0  0  0  0  0  0  0  0  0  0  0
    7.5923  -14.6714   25.5085 C   0  0  0  0  0  0  0  0  0  0  0  0
    8.7636  -15.5712   25.5890 C   0  0  2  0  0  0  0  0  0  0  0  0
    9.2618  -15.8561   24.2191 N   0  0  0  0  0  0  0  0  0  0  0  0
    8.5488  -16.8338   26.2708 C   0  0  0  0  0  0  0  0  0  0  0  0
    8.8052  -18.0285   25.5397 O   0  0  0  0  0  0  0  0  0  0  0  0
    8.1561  -17.0076   27.4506 O   0  0  0  0  0  0  0  0  0  0  0  0
  2  1  1  1
  2  3  1  0
  3  4  1  0
  4  5  2  0
  4  8  1  0
  6  7  2  0
  6  2  1  0
  9 10  1  0
 10 11  2  0
 11 12  1  0
 13 12  2  0
 13 14  1  0
 15 14  1  1
 15 16  1  0
 16  6  1  0
 17 18  2  0
 17 15  1  0
 19 13  1  0
 20 10  1  0
 20 19  2  0
 21 22  1  0
 23 22  1  0
 24 23  1  0
 25 24  1  6
 25 26  1  0
 26 17  1  0
 27 25  1  0
 28 27  1  0
 29 27  2  0
M  END
$$$$
