DYM.pdb
     RDKit          3D

 29 29  0  0  1  0  0  0  0  0999 V2000
   10.0225  -18.7197   19.0994 N   0  0  0  0  0  0  0  0  0  0  0  0
   10.1668  -19.0192   20.5209 C   0  0  1  0  0  0  0  0  0  0  0  0
   11.2392  -20.0719   20.6444 C   0  0  0  0  0  0  0  0  0  0  0  0
   10.8249  -21.2949   19.9256 C   0  0  0  0  0  0  0  0  0  0  0  0
    9.7747  -21.3805   19.2183 O   0  0  0  0  0  0  0  0  0  0  0  0
   10.4682  -17.7788   21.2834 C   0  0  0  0  0  0  0  0  0  0  0  0
   11.6362  -17.3605   21.4780 O   0  0  0  0  0  0  0  0  0  0  0  0
   11.6272  -22.4229   20.0245 O   0  0  0  0  0  0  0  0  0  0  0  0
    5.7467  -13.4596   26.9685 O   0  0  0  0  0  0  0  0  0  0  0  0
    6.4252  -13.7531   25.7708 C   0  0  0  0  0  0  0  0  0  0  0  0
    7.2395  -12.8310   25.1619 C   0  0  0  0  0  0  0  0  0  0  0  0
    7.8923  -13.1708   23.9721 C   0  0  0  0  0  0  0  0  0  0  0  0
    7.7313  -14.4130   23.4033 C   0  0  0  0  0  0  0  0  0  0  0  0
    8.4066  -14.7663   22.1680 C   0  0  0  0  0  0  0  0  0  0  0  0
    9.6245  -15.6472   22.3637 C   0  0  2  0  0  0  0  0  0  0  0  0
    9.4271  -16.9726   21.8511 N   0  0  0  0  0  0  0  0  0  0  0  0
   10.0165  -15.6914   23.8118 C   0  0  0  0  0  0  0  0  0  0  0  0
   10.3523  -14.6484   24.4246 O   0  0  0  0  0  0  0  0  0  0  0  0
    6.9124  -15.3206   24.0283 C   0  0  0  0  0  0  0  0  0  0  0  0
    6.2560  -15.0002   25.2107 C   0  0  0  0  0  0  0  0  0  0  0  0
   10.9614  -12.2623   28.6794 C   0  0  0  0  0  0  0  0  0  0  0  0
    9.9907  -13.7575   28.4652 S   0  0  0  0  0  0  0  0  0  0  0  0
   10.7905  -14.9967   27.4767 C   0  0  0  0  0  0  0  0  0  0  0  0
    9.9307  -15.9692   26.7568 C   0  0  0  0  0  0  0  0  0  0  0  0
   10.5495  -17.0105   25.9076 C   0  0  2  0  0  0  0  0  0  0  0  0
   10.0190  -16.8986   24.5249 N   0  0  0  0  0  0  0  0  0  0  0  0
   10.3780  -18.3798   26.3554 C   0  0  0  0  0  0  0  0  0  0  0  0
    9.5376  -19.2262   25.5777 O   0  0  0  0  0  0  0  0  0  0  0  0
   10.8893  -18.9228   27.3654 O   0  0  0  0  0  0  0  0  0  0  0  0
  2  1  1  6
  2  3  1  0
  3  4  1  0
  4  5  2  0
  4  8  1  0
  6  7  2  0
  6  2  1  0
  9 10  1  0
 10 11  2  0
 11 12  1  0
 13 12  2  0
 13 14  1  0
 15 14  1  1
 15 16  1  0
 16  6  1  0
 17 18  2  0
 17 15  1  0
 19 13  1  0
 20 10  1  0
 20 19  2  0
 21 22  1  0
 23 22  1  0
 24 23  1  0
 25 24  1  1
 25 26  1  0
 26 17  1  0
 27 25  1  0
 28 27  1  0
 29 27  2  0
M  END
$$$$
