DYM.pdb
     RDKit          3D

 29 29  0  0  1  0  0  0  0  0999 V2000
    9.8518  -18.4471   20.4696 N   0  0  0  0  0  0  0  0  0  0  0  0
   11.0594  -17.6324   20.3727 C   0  0  1  0  0  0  0  0  0  0  0  0
   11.3952  -17.5120   18.9077 C   0  0  0  0  0  0  0  0  0  0  0  0
   11.9273  -18.7974   18.4090 C   0  0  0  0  0  0  0  0  0  0  0  0
   11.8850  -19.8840   19.0631 O   0  0  0  0  0  0  0  0  0  0  0  0
   10.8532  -16.3197   21.0398 C   0  0  0  0  0  0  0  0  0  0  0  0
   11.7356  -15.4273   21.0843 O   0  0  0  0  0  0  0  0  0  0  0  0
   12.5102  -18.8270   17.1500 O   0  0  0  0  0  0  0  0  0  0  0  0
    7.0175  -13.4063   16.3877 O   0  0  0  0  0  0  0  0  0  0  0  0
    7.2261  -13.6489   17.7582 C   0  0  0  0  0  0  0  0  0  0  0  0
    6.9041  -14.8537   18.3318 C   0  0  0  0  0  0  0  0  0  0  0  0
    7.1306  -15.0460   19.6988 C   0  0  0  0  0  0  0  0  0  0  0  0
    7.6704  -14.0478   20.4767 C   0  0  0  0  0  0  0  0  0  0  0  0
    7.9044  -14.2454   21.8956 C   0  0  0  0  0  0  0  0  0  0  0  0
    9.3123  -14.6968   22.2292 C   0  0  2  0  0  0  0  0  0  0  0  0
    9.6149  -15.9883   21.6825 N   0  0  0  0  0  0  0  0  0  0  0  0
    9.5327  -14.6841   23.7138 C   0  0  0  0  0  0  0  0  0  0  0  0
    9.2676  -13.6667   24.3998 O   0  0  0  0  0  0  0  0  0  0  0  0
    7.9853  -12.8504   19.8835 C   0  0  0  0  0  0  0  0  0  0  0  0
    7.7671  -12.6418   18.5269 C   0  0  0  0  0  0  0  0  0  0  0  0
   11.0431  -13.8057   29.3911 C   0  0  0  0  0  0  0  0  0  0  0  0
    9.4231  -13.7615   28.6184 S   0  0  0  0  0  0  0  0  0  0  0  0
    8.8881  -15.3308   27.9831 C   0  0  0  0  0  0  0  0  0  0  0  0
    8.9330  -15.5344   26.5135 C   0  0  0  0  0  0  0  0  0  0  0  0
   10.2184  -15.8528   25.8540 C   0  0  2  0  0  0  0  0  0  0  0  0
   10.0407  -15.8084   24.3801 N   0  0  0  0  0  0  0  0  0  0  0  0
   10.8139  -17.1281   26.2060 C   0  0  0  0  0  0  0  0  0  0  0  0
   10.9128  -18.1132   25.1826 O   0  0  0  0  0  0  0  0  0  0  0  0
   11.2623  -17.4788   27.3251 O   0  0  0  0  0  0  0  0  0  0  0  0
  2  1  1  6
  2  3  1  0
  3  4  1  0
  4  5  2  0
  4  8  1  0
  6  7  2  0
  6  2  1  0
  9 10  1  0
 10 11  2  0
 11 12  1  0
 13 12  2  0
 13 14  1  0
 15 14  1  1
 15 16  1  0
 16  6  1  0
 17 18  2  0
 17 15  1  0
 19 13  1  0
 20 10  1  0
 20 19  2  0
 21 22  1  0
 23 22  1  0
 24 23  1  0
 25 24  1  1
 25 26  1  0
 26 17  1  0
 27 25  1  0
 28 27  1  0
 29 27  2  0
M  END
$$$$
