DYM.pdb
     RDKit          3D

 29 29  0  0  1  0  0  0  0  0999 V2000
    9.7274  -18.4605   20.6719 N   0  0  0  0  0  0  0  0  0  0  0  0
   10.9767  -17.7152   20.7956 C   0  0  1  0  0  0  0  0  0  0  0  0
   11.6864  -17.8185   19.4693 C   0  0  0  0  0  0  0  0  0  0  0  0
   11.4373  -19.1466   18.8707 C   0  0  0  0  0  0  0  0  0  0  0  0
   10.8554  -20.0989   19.4747 O   0  0  0  0  0  0  0  0  0  0  0  0
   10.7044  -16.3136   21.2106 C   0  0  0  0  0  0  0  0  0  0  0  0
   11.5407  -15.3858   21.0815 O   0  0  0  0  0  0  0  0  0  0  0  0
   11.8624  -19.3747   17.5695 O   0  0  0  0  0  0  0  0  0  0  0  0
    7.5438  -13.8189   16.0193 O   0  0  0  0  0  0  0  0  0  0  0  0
    7.5878  -13.9349   17.4212 C   0  0  0  0  0  0  0  0  0  0  0  0
    7.1701  -15.0751   18.0613 C   0  0  0  0  0  0  0  0  0  0  0  0
    7.2335  -15.1416   19.4572 C   0  0  0  0  0  0  0  0  0  0  0  0
    7.7073  -14.0835   20.1979 C   0  0  0  0  0  0  0  0  0  0  0  0
    7.7721  -14.1504   21.6465 C   0  0  0  0  0  0  0  0  0  0  0  0
    9.1203  -14.5902   22.1816 C   0  0  2  0  0  0  0  0  0  0  0  0
    9.4508  -15.9309   21.7921 N   0  0  0  0  0  0  0  0  0  0  0  0
    9.1684  -14.4443   23.6747 C   0  0  0  0  0  0  0  0  0  0  0  0
    9.1826  -13.3113   24.2152 O   0  0  0  0  0  0  0  0  0  0  0  0
    8.1199  -12.9523   19.5383 C   0  0  0  0  0  0  0  0  0  0  0  0
    8.0640  -12.8688   18.1521 C   0  0  0  0  0  0  0  0  0  0  0  0
    6.5010  -11.7004   27.1767 C   0  0  0  0  0  0  0  0  0  0  0  0
    7.2478  -12.9044   28.2796 S   0  0  0  0  0  0  0  0  0  0  0  0
    7.2526  -14.5597   27.6375 C   0  0  0  0  0  0  0  0  0  0  0  0
    7.7122  -14.7588   26.2402 C   0  0  0  0  0  0  0  0  0  0  0  0
    8.9756  -15.4820   25.9774 C   0  0  2  0  0  0  0  0  0  0  0  0
    9.1983  -15.5689   24.5115 N   0  0  0  0  0  0  0  0  0  0  0  0
    9.0708  -16.8176   26.5359 C   0  0  0  0  0  0  0  0  0  0  0  0
    9.1623  -16.9338   27.9521 O   0  0  0  0  0  0  0  0  0  0  0  0
    9.0831  -17.9072   25.9122 O   0  0  0  0  0  0  0  0  0  0  0  0
  2  1  1  6
  2  3  1  0
  3  4  1  0
  4  5  2  0
  4  8  1  0
  6  7  2  0
  6  2  1  0
  9 10  1  0
 10 11  2  0
 11 12  1  0
 13 12  2  0
 13 14  1  0
 15 14  1  1
 15 16  1  0
 16  6  1  0
 17 18  2  0
 17 15  1  0
 19 13  1  0
 20 10  1  0
 20 19  2  0
 21 22  1  0
 23 22  1  0
 24 23  1  0
 25 24  1  6
 25 26  1  0
 26 17  1  0
 27 25  1  0
 28 27  1  0
 29 27  2  0
M  END
$$$$
