DYM.pdb
     RDKit          3D

 29 29  0  0  1  0  0  0  0  0999 V2000
   12.8374  -16.6270   18.8922 N   0  0  0  0  0  0  0  0  0  0  0  0
   13.3885  -15.4537   19.5638 C   0  0  1  0  0  0  0  0  0  0  0  0
   13.6839  -14.4310   18.4961 C   0  0  0  0  0  0  0  0  0  0  0  0
   14.8731  -14.8447   17.7222 C   0  0  0  0  0  0  0  0  0  0  0  0
   15.8055  -15.5689   18.1878 O   0  0  0  0  0  0  0  0  0  0  0  0
   12.4470  -14.9634   20.6050 C   0  0  0  0  0  0  0  0  0  0  0  0
   12.6625  -13.9368   21.2953 O   0  0  0  0  0  0  0  0  0  0  0  0
   14.9851  -14.4200   16.4058 O   0  0  0  0  0  0  0  0  0  0  0  0
    7.6468  -12.3318   16.7999 O   0  0  0  0  0  0  0  0  0  0  0  0
    7.9460  -13.0551   17.9695 C   0  0  0  0  0  0  0  0  0  0  0  0
    8.1600  -12.4239   19.1696 C   0  0  0  0  0  0  0  0  0  0  0  0
    8.4545  -13.1874   20.3042 C   0  0  0  0  0  0  0  0  0  0  0  0
    8.5330  -14.5592   20.2366 C   0  0  0  0  0  0  0  0  0  0  0  0
    8.8401  -15.3525   21.4127 C   0  0  0  0  0  0  0  0  0  0  0  0
   10.2747  -15.2222   21.8843 C   0  0  2  0  0  0  0  0  0  0  0  0
   11.2169  -15.6439   20.8879 N   0  0  0  0  0  0  0  0  0  0  0  0
   10.4805  -15.9800   23.1635 C   0  0  0  0  0  0  0  0  0  0  0  0
   11.1274  -17.0557   23.1828 O   0  0  0  0  0  0  0  0  0  0  0  0
    8.3157  -15.1708   19.0268 C   0  0  0  0  0  0  0  0  0  0  0  0
    8.0220  -14.4282   17.8893 C   0  0  0  0  0  0  0  0  0  0  0  0
    9.0866  -13.2796   29.6594 C   0  0  0  0  0  0  0  0  0  0  0  0
   10.3539  -14.5302   29.4278 S   0  0  0  0  0  0  0  0  0  0  0  0
    9.9543  -15.7354   28.1867 C   0  0  0  0  0  0  0  0  0  0  0  0
    9.8445  -15.2714   26.7811 C   0  0  0  0  0  0  0  0  0  0  0  0
   10.2207  -16.1791   25.6753 C   0  0  2  0  0  0  0  0  0  0  0  0
    9.9572  -15.5093   24.3762 N   0  0  0  0  0  0  0  0  0  0  0  0
    9.5651  -17.4734   25.6653 C   0  0  0  0  0  0  0  0  0  0  0  0
   10.1804  -18.5284   26.3974 O   0  0  0  0  0  0  0  0  0  0  0  0
    8.4999  -17.7856   25.0786 O   0  0  0  0  0  0  0  0  0  0  0  0
  2  1  1  6
  2  3  1  0
  3  4  1  0
  4  5  2  0
  4  8  1  0
  6  7  2  0
  6  2  1  0
  9 10  1  0
 10 11  2  0
 11 12  1  0
 13 12  2  0
 13 14  1  0
 15 14  1  6
 15 16  1  0
 16  6  1  0
 17 18  2  0
 17 15  1  0
 19 13  1  0
 20 10  1  0
 20 19  2  0
 21 22  1  0
 23 22  1  0
 24 23  1  0
 25 24  1  1
 25 26  1  0
 26 17  1  0
 27 25  1  0
 28 27  1  0
 29 27  2  0
M  END
$$$$
