DYM.pdb
     RDKit          3D

 29 29  0  0  1  0  0  0  0  0999 V2000
    9.9695  -17.4518   19.8481 N   0  0  0  0  0  0  0  0  0  0  0  0
    8.8316  -16.5446   19.9653 C   0  0  1  0  0  0  0  0  0  0  0  0
    7.8099  -16.9830   18.9468 C   0  0  0  0  0  0  0  0  0  0  0  0
    8.3557  -16.8104   17.5843 C   0  0  0  0  0  0  0  0  0  0  0  0
    9.4030  -17.3888   17.1613 O   0  0  0  0  0  0  0  0  0  0  0  0
    8.3120  -16.5433   21.3584 C   0  0  0  0  0  0  0  0  0  0  0  0
    7.3043  -15.8835   21.7135 O   0  0  0  0  0  0  0  0  0  0  0  0
    7.6886  -15.9663   16.7077 O   0  0  0  0  0  0  0  0  0  0  0  0
    4.8305  -22.3345   21.7639 O   0  0  0  0  0  0  0  0  0  0  0  0
    5.7671  -21.4706   22.3615 C   0  0  0  0  0  0  0  0  0  0  0  0
    7.0388  -21.3340   21.8631 C   0  0  0  0  0  0  0  0  0  0  0  0
    7.9334  -20.4622   22.4929 C   0  0  0  0  0  0  0  0  0  0  0  0
    7.5594  -19.7404   23.6028 C   0  0  0  0  0  0  0  0  0  0  0  0
    8.4871  -18.8367   24.2583 C   0  0  0  0  0  0  0  0  0  0  0  0
    8.4339  -17.4153   23.7348 C   0  0  2  0  0  0  0  0  0  0  0  0
    8.9399  -17.3076   22.3966 N   0  0  0  0  0  0  0  0  0  0  0  0
    9.1686  -16.4858   24.6563 C   0  0  0  0  0  0  0  0  0  0  0  0
   10.4060  -16.3059   24.5441 O   0  0  0  0  0  0  0  0  0  0  0  0
    6.2830  -19.8916   24.0853 C   0  0  0  0  0  0  0  0  0  0  0  0
    5.3810  -20.7532   23.4723 C   0  0  0  0  0  0  0  0  0  0  0  0
    5.7038  -10.6773   25.7812 C   0  0  0  0  0  0  0  0  0  0  0  0
    6.1969  -12.0376   26.8443 S   0  0  0  0  0  0  0  0  0  0  0  0
    7.7273  -12.8017   26.3685 C   0  0  0  0  0  0  0  0  0  0  0  0
    8.2235  -13.9307   27.1946 C   0  0  0  0  0  0  0  0  0  0  0  0
    9.1941  -14.8895   26.6229 C   0  0  2  0  0  0  0  0  0  0  0  0
    8.4955  -15.7895   25.6701 N   0  0  0  0  0  0  0  0  0  0  0  0
    9.9180  -15.7064   27.5788 C   0  0  0  0  0  0  0  0  0  0  0  0
    9.6058  -17.0948   27.6277 O   0  0  0  0  0  0  0  0  0  0  0  0
   10.8044  -15.3331   28.3858 O   0  0  0  0  0  0  0  0  0  0  0  0
  2  1  1  1
  2  3  1  0
  3  4  1  0
  4  5  2  0
  4  8  1  0
  6  7  2  0
  6  2  1  0
  9 10  1  0
 10 11  2  0
 11 12  1  0
 13 12  2  0
 13 14  1  0
 15 14  1  1
 15 16  1  0
 16  6  1  0
 17 18  2  0
 17 15  1  0
 19 13  1  0
 20 10  1  0
 20 19  2  0
 21 22  1  0
 23 22  1  0
 24 23  1  0
 25 24  1  1
 25 26  1  0
 26 17  1  0
 27 25  1  0
 28 27  1  0
 29 27  2  0
M  END
$$$$
