DYM.pdb
     RDKit          3D

 29 29  0  0  1  0  0  0  0  0999 V2000
   11.4170  -17.1707   18.3597 N   0  0  0  0  0  0  0  0  0  0  0  0
   10.5252  -17.8026   19.3275 C   0  0  1  0  0  0  0  0  0  0  0  0
   11.0793  -19.1765   19.6083 C   0  0  0  0  0  0  0  0  0  0  0  0
   10.7575  -20.0844   18.4875 C   0  0  0  0  0  0  0  0  0  0  0  0
    9.5800  -20.3045   18.0687 O   0  0  0  0  0  0  0  0  0  0  0  0
   10.3998  -16.9577   20.5446 C   0  0  0  0  0  0  0  0  0  0  0  0
   11.3552  -16.2969   21.0216 O   0  0  0  0  0  0  0  0  0  0  0  0
   11.8003  -20.7404   17.8486 O   0  0  0  0  0  0  0  0  0  0  0  0
    6.6100  -11.9603   26.7845 O   0  0  0  0  0  0  0  0  0  0  0  0
    6.8266  -12.8541   25.7192 C   0  0  0  0  0  0  0  0  0  0  0  0
    6.4503  -14.1718   25.7990 C   0  0  0  0  0  0  0  0  0  0  0  0
    6.6874  -15.0207   24.7127 C   0  0  0  0  0  0  0  0  0  0  0  0
    7.2910  -14.5565   23.5668 C   0  0  0  0  0  0  0  0  0  0  0  0
    7.5392  -15.4367   22.4396 C   0  0  0  0  0  0  0  0  0  0  0  0
    8.9551  -15.9743   22.3798 C   0  0  2  0  0  0  0  0  0  0  0  0
    9.1611  -16.8448   21.2581 N   0  0  0  0  0  0  0  0  0  0  0  0
    9.3105  -16.6684   23.6623 C   0  0  0  0  0  0  0  0  0  0  0  0
    8.4523  -17.3207   24.3058 O   0  0  0  0  0  0  0  0  0  0  0  0
    7.6596  -13.2353   23.5075 C   0  0  0  0  0  0  0  0  0  0  0  0
    7.4318  -12.3776   24.5771 C   0  0  0  0  0  0  0  0  0  0  0  0
    9.8827  -13.1130   29.9193 C   0  0  0  0  0  0  0  0  0  0  0  0
    9.7445  -13.3659   28.1471 S   0  0  0  0  0  0  0  0  0  0  0  0
   10.3123  -14.9578   27.6030 C   0  0  0  0  0  0  0  0  0  0  0  0
   10.3408  -15.2205   26.1424 C   0  0  0  0  0  0  0  0  0  0  0  0
   10.8899  -16.4970   25.6352 C   0  0  2  0  0  0  0  0  0  0  0  0
   10.6119  -16.6101   24.1807 N   0  0  0  0  0  0  0  0  0  0  0  0
   10.4089  -17.6996   26.2891 C   0  0  0  0  0  0  0  0  0  0  0  0
   11.3268  -18.4143   27.1102 O   0  0  0  0  0  0  0  0  0  0  0  0
    9.2592  -18.1993   26.2191 O   0  0  0  0  0  0  0  0  0  0  0  0
  2  1  1  6
  2  3  1  0
  3  4  1  0
  4  5  2  0
  4  8  1  0
  6  7  2  0
  6  2  1  0
  9 10  1  0
 10 11  2  0
 11 12  1  0
 13 12  2  0
 13 14  1  0
 15 14  1  1
 15 16  1  0
 16  6  1  0
 17 18  2  0
 17 15  1  0
 19 13  1  0
 20 10  1  0
 20 19  2  0
 21 22  1  0
 23 22  1  0
 24 23  1  0
 25 24  1  1
 25 26  1  0
 26 17  1  0
 27 25  1  0
 28 27  1  0
 29 27  2  0
M  END
$$$$
