DYM.pdb
     RDKit          3D

 29 29  0  0  1  0  0  0  0  0999 V2000
    9.9025  -18.3475   19.4667 N   0  0  0  0  0  0  0  0  0  0  0  0
   11.1146  -17.6545   19.8930 C   0  0  1  0  0  0  0  0  0  0  0  0
   11.6007  -16.8485   18.7151 C   0  0  0  0  0  0  0  0  0  0  0  0
   11.8414  -17.7419   17.5626 C   0  0  0  0  0  0  0  0  0  0  0  0
   12.4127  -18.8717   17.6484 O   0  0  0  0  0  0  0  0  0  0  0  0
   10.8419  -16.8292   21.0994 C   0  0  0  0  0  0  0  0  0  0  0  0
   11.6720  -16.0161   21.5757 O   0  0  0  0  0  0  0  0  0  0  0  0
   11.4203  -17.3278   16.3068 O   0  0  0  0  0  0  0  0  0  0  0  0
    6.2477  -12.4426   27.2630 O   0  0  0  0  0  0  0  0  0  0  0  0
    6.6432  -13.2327   26.1675 C   0  0  0  0  0  0  0  0  0  0  0  0
    7.2970  -12.6902   25.0893 C   0  0  0  0  0  0  0  0  0  0  0  0
    7.6695  -13.5175   24.0245 C   0  0  0  0  0  0  0  0  0  0  0  0
    7.3911  -14.8647   24.0407 C   0  0  0  0  0  0  0  0  0  0  0  0
    7.7754  -15.7240   22.9357 C   0  0  0  0  0  0  0  0  0  0  0  0
    9.2465  -16.0890   22.9240 C   0  0  2  0  0  0  0  0  0  0  0  0
    9.5951  -16.9133   21.8027 N   0  0  0  0  0  0  0  0  0  0  0  0
    9.6356  -16.7535   24.2123 C   0  0  0  0  0  0  0  0  0  0  0  0
    9.0933  -17.8248   24.5788 O   0  0  0  0  0  0  0  0  0  0  0  0
    6.7363  -15.3873   25.1284 C   0  0  0  0  0  0  0  0  0  0  0  0
    6.3588  -14.5803   26.1951 C   0  0  0  0  0  0  0  0  0  0  0  0
   10.1790  -11.9169   28.0324 C   0  0  0  0  0  0  0  0  0  0  0  0
   11.0738  -13.2721   28.7983 S   0  0  0  0  0  0  0  0  0  0  0  0
   11.5395  -14.5563   27.6640 C   0  0  0  0  0  0  0  0  0  0  0  0
   10.5554  -15.6351   27.3978 C   0  0  0  0  0  0  0  0  0  0  0  0
   10.8758  -16.6982   26.4203 C   0  0  2  0  0  0  0  0  0  0  0  0
   10.6170  -16.1986   25.0458 N   0  0  0  0  0  0  0  0  0  0  0  0
   10.1690  -17.9534   26.5928 C   0  0  0  0  0  0  0  0  0  0  0  0
   10.8652  -19.0184   27.2322 O   0  0  0  0  0  0  0  0  0  0  0  0
    8.9945  -18.2233   26.2406 O   0  0  0  0  0  0  0  0  0  0  0  0
  2  1  1  6
  2  3  1  0
  3  4  1  0
  4  5  2  0
  4  8  1  0
  6  7  2  0
  6  2  1  0
  9 10  1  0
 10 11  2  0
 11 12  1  0
 13 12  2  0
 13 14  1  0
 15 14  1  1
 15 16  1  0
 16  6  1  0
 17 18  2  0
 17 15  1  0
 19 13  1  0
 20 10  1  0
 20 19  2  0
 21 22  1  0
 23 22  1  0
 24 23  1  0
 25 24  1  1
 25 26  1  0
 26 17  1  0
 27 25  1  0
 28 27  1  0
 29 27  2  0
M  END
$$$$
