DYM.pdb
     RDKit          3D

 29 29  0  0  1  0  0  0  0  0999 V2000
   11.5401  -18.3139   19.2961 N   0  0  0  0  0  0  0  0  0  0  0  0
   12.4165  -17.2108   19.6790 C   0  0  1  0  0  0  0  0  0  0  0  0
   12.7824  -16.4770   18.4137 C   0  0  0  0  0  0  0  0  0  0  0  0
   13.8839  -17.1830   17.7265 C   0  0  0  0  0  0  0  0  0  0  0  0
   14.2352  -16.9537   16.5288 O   0  0  0  0  0  0  0  0  0  0  0  0
   11.7502  -16.3472   20.6895 C   0  0  0  0  0  0  0  0  0  0  0  0
   12.2941  -15.3311   21.1883 O   0  0  0  0  0  0  0  0  0  0  0  0
   14.5817  -18.1575   18.4259 O   0  0  0  0  0  0  0  0  0  0  0  0
    7.1089  -12.9209   17.0082 O   0  0  0  0  0  0  0  0  0  0  0  0
    7.3985  -13.5845   18.2150 C   0  0  0  0  0  0  0  0  0  0  0  0
    7.8004  -12.8981   19.3338 C   0  0  0  0  0  0  0  0  0  0  0  0
    8.0766  -13.6035   20.5099 C   0  0  0  0  0  0  0  0  0  0  0  0
    7.9521  -14.9726   20.5631 C   0  0  0  0  0  0  0  0  0  0  0  0
    8.2400  -15.7058   21.7822 C   0  0  0  0  0  0  0  0  0  0  0  0
    9.7178  -15.8073   22.1038 C   0  0  2  0  0  0  0  0  0  0  0  0
   10.4258  -16.6267   21.1627 N   0  0  0  0  0  0  0  0  0  0  0  0
    9.9199  -16.3109   23.5032 C   0  0  0  0  0  0  0  0  0  0  0  0
   10.2092  -17.5123   23.7244 O   0  0  0  0  0  0  0  0  0  0  0  0
    7.5489  -15.6399   19.4330 C   0  0  0  0  0  0  0  0  0  0  0  0
    7.2703  -14.9554   18.2559 C   0  0  0  0  0  0  0  0  0  0  0  0
   11.8442  -13.6240   30.2984 C   0  0  0  0  0  0  0  0  0  0  0  0
   10.2791  -13.5681   29.4203 S   0  0  0  0  0  0  0  0  0  0  0  0
    9.9835  -14.9835   28.3899 C   0  0  0  0  0  0  0  0  0  0  0  0
    9.9065  -14.7682   26.9233 C   0  0  0  0  0  0  0  0  0  0  0  0
    9.9242  -15.9297   26.0074 C   0  0  2  0  0  0  0  0  0  0  0  0
    9.7925  -15.4548   24.6063 N   0  0  0  0  0  0  0  0  0  0  0  0
    8.9123  -16.9418   26.2458 C   0  0  0  0  0  0  0  0  0  0  0  0
    7.7414  -16.9052   25.4364 O   0  0  0  0  0  0  0  0  0  0  0  0
    8.9414  -17.8656   27.0955 O   0  0  0  0  0  0  0  0  0  0  0  0
  2  1  1  6
  2  3  1  0
  3  4  1  0
  4  5  2  0
  4  8  1  0
  6  7  2  0
  6  2  1  0
  9 10  1  0
 10 11  2  0
 11 12  1  0
 13 12  2  0
 13 14  1  0
 15 14  1  6
 15 16  1  0
 16  6  1  0
 17 18  2  0
 17 15  1  0
 19 13  1  0
 20 10  1  0
 20 19  2  0
 21 22  1  0
 23 22  1  0
 24 23  1  0
 25 24  1  1
 25 26  1  0
 26 17  1  0
 27 25  1  0
 28 27  1  0
 29 27  2  0
M  END
$$$$
