DYM.pdb
     RDKit          3D

 29 29  0  0  1  0  0  0  0  0999 V2000
   11.4253  -17.2430   18.4790 N   0  0  0  0  0  0  0  0  0  0  0  0
   11.0083  -17.9115   19.7080 C   0  0  1  0  0  0  0  0  0  0  0  0
   12.1317  -18.8316   20.1140 C   0  0  0  0  0  0  0  0  0  0  0  0
   12.2006  -19.9779   19.1837 C   0  0  0  0  0  0  0  0  0  0  0  0
   13.2706  -20.3814   18.6337 O   0  0  0  0  0  0  0  0  0  0  0  0
   10.6614  -16.9094   20.7503 C   0  0  0  0  0  0  0  0  0  0  0  0
   11.4263  -15.9693   21.0788 O   0  0  0  0  0  0  0  0  0  0  0  0
   11.0288  -20.6600   18.8882 O   0  0  0  0  0  0  0  0  0  0  0  0
    5.9263  -11.8390   26.1970 O   0  0  0  0  0  0  0  0  0  0  0  0
    6.3133  -12.8495   25.2971 C   0  0  0  0  0  0  0  0  0  0  0  0
    6.0971  -14.1771   25.5713 C   0  0  0  0  0  0  0  0  0  0  0  0
    6.5001  -15.1443   24.6444 C   0  0  0  0  0  0  0  0  0  0  0  0
    7.1091  -14.7866   23.4638 C   0  0  0  0  0  0  0  0  0  0  0  0
    7.5293  -15.7892   22.5019 C   0  0  0  0  0  0  0  0  0  0  0  0
    9.0268  -16.0221   22.4716 C   0  0  2  0  0  0  0  0  0  0  0  0
    9.4129  -16.9568   21.4540 N   0  0  0  0  0  0  0  0  0  0  0  0
    9.5184  -16.4696   23.8173 C   0  0  0  0  0  0  0  0  0  0  0  0
    9.4817  -17.6791   24.1516 O   0  0  0  0  0  0  0  0  0  0  0  0
    7.3161  -13.4535   23.2089 C   0  0  0  0  0  0  0  0  0  0  0  0
    6.9222  -12.4791   24.1183 C   0  0  0  0  0  0  0  0  0  0  0  0
   11.6962  -13.8765   31.0544 C   0  0  0  0  0  0  0  0  0  0  0  0
   10.6832  -13.7585   29.5767 S   0  0  0  0  0  0  0  0  0  0  0  0
   10.9466  -15.0786   28.4189 C   0  0  0  0  0  0  0  0  0  0  0  0
   10.4617  -14.8875   27.0292 C   0  0  0  0  0  0  0  0  0  0  0  0
   10.6372  -15.9677   26.0338 C   0  0  2  0  0  0  0  0  0  0  0  0
   10.0345  -15.5507   24.7420 N   0  0  0  0  0  0  0  0  0  0  0  0
   10.0914  -17.2617   26.3981 C   0  0  0  0  0  0  0  0  0  0  0  0
    8.7010  -17.4752   26.1778 O   0  0  0  0  0  0  0  0  0  0  0  0
   10.7060  -18.2376   26.8944 O   0  0  0  0  0  0  0  0  0  0  0  0
  2  1  1  6
  2  3  1  0
  3  4  1  0
  4  5  2  0
  4  8  1  0
  6  7  2  0
  6  2  1  0
  9 10  1  0
 10 11  2  0
 11 12  1  0
 13 12  2  0
 13 14  1  0
 15 14  1  1
 15 16  1  0
 16  6  1  0
 17 18  2  0
 17 15  1  0
 19 13  1  0
 20 10  1  0
 20 19  2  0
 21 22  1  0
 23 22  1  0
 24 23  1  0
 25 24  1  1
 25 26  1  0
 26 17  1  0
 27 25  1  0
 28 27  1  0
 29 27  2  0
M  END
$$$$
