AYD.pdb
     RDKit          3D

 26 26  0  0  1  0  0  0  0  0999 V2000
   19.1662  -13.3712  -16.4630 C   0  0  0  0  0  0  0  0  0  0  0  0
   18.9420  -11.9801  -16.9973 C   0  0  2  0  0  0  0  0  0  0  0  0
   19.6398  -11.7284  -18.2147 N   0  0  0  0  0  0  0  0  0  0  0  0
   19.2041  -10.9300  -16.0050 C   0  0  0  0  0  0  0  0  0  0  0  0
   18.5042  -10.9815  -14.9319 O   0  0  0  0  0  0  0  0  0  0  0  0
   23.0887   -3.0287  -13.9152 O   0  0  0  0  0  0  0  0  0  0  0  0
   22.7210   -4.3500  -14.1742 C   0  0  0  0  0  0  0  0  0  0  0  0
   22.1261   -5.1457  -13.2196 C   0  0  0  0  0  0  0  0  0  0  0  0
   21.7635   -6.4502  -13.4767 C   0  0  0  0  0  0  0  0  0  0  0  0
   21.9831   -7.0353  -14.7288 C   0  0  0  0  0  0  0  0  0  0  0  0
   21.6268   -8.4369  -15.0022 C   0  0  0  0  0  0  0  0  0  0  0  0
   20.1968   -8.7440  -15.2508 C   0  0  2  0  0  0  0  0  0  0  0  0
   20.1596   -9.8988  -16.1705 N   0  0  0  0  0  0  0  0  0  0  0  0
   19.4103   -7.6804  -15.8967 C   0  0  0  0  0  0  0  0  0  0  0  0
   19.4851   -7.4925  -17.1663 O   0  0  0  0  0  0  0  0  0  0  0  0
   22.5784   -6.2225  -15.6673 C   0  0  0  0  0  0  0  0  0  0  0  0
   22.9410   -4.9181  -15.4104 C   0  0  0  0  0  0  0  0  0  0  0  0
   18.5176   -6.7819  -15.2474 N   0  0  0  0  0  0  0  0  0  0  0  0
   17.7976   -5.7516  -15.9681 C   0  0  1  0  0  0  0  0  0  0  0  0
   16.3341   -5.7182  -15.5678 C   0  0  0  0  0  0  0  0  0  0  0  0
   15.5321   -4.7698  -16.3377 C   0  0  0  0  0  0  0  0  0  0  0  0
   16.0234   -4.0679  -17.2470 O   0  0  0  0  0  0  0  0  0  0  0  0
   18.4104   -4.4219  -15.9085 C   0  0  0  0  0  0  0  0  0  0  0  0
   18.5572   -3.8551  -14.8020 O   0  0  0  0  0  0  0  0  0  0  0  0
   14.1853   -4.6396  -16.0562 O   0  0  0  0  0  0  0  0  0  0  0  0
   18.8522   -3.7254  -17.0197 O   0  0  0  0  0  0  0  0  0  0  0  0
  2  1  1  1
  2  3  1  0
  4  2  1  0
  5  4  2  0
  6  7  1  0
  7  8  2  0
  8  9  1  0
 10 11  1  0
 10  9  2  0
 12 11  1  6
 12 13  1  0
 13  4  1  0
 14 12  1  0
 14 15  2  0
 16 10  1  0
 17 16  2  0
 17  7  1  0
 18 14  1  0
 19 18  1  0
 19 20  1  1
 20 21  1  0
 21 22  2  0
 21 25  1  0
 23 19  1  0
 24 23  2  0
 26 23  1  0
M  END
$$$$
