AYD.pdb
     RDKit          3D

 26 26  0  0  1  0  0  0  0  0999 V2000
   27.5738  -19.7461  -18.4032 C   0  0  0  0  0  0  0  0  0  0  0  0
   28.1767  -20.8158  -17.5298 C   0  0  2  0  0  0  0  0  0  0  0  0
   28.4990  -22.0067  -18.2444 N   0  0  0  0  0  0  0  0  0  0  0  0
   27.3726  -21.1103  -16.3370 C   0  0  0  0  0  0  0  0  0  0  0  0
   26.5482  -22.0869  -16.4403 O   0  0  0  0  0  0  0  0  0  0  0  0
   24.7328  -20.6919   -7.6966 O   0  0  0  0  0  0  0  0  0  0  0  0
   25.3700  -20.6093   -8.9358 C   0  0  0  0  0  0  0  0  0  0  0  0
   25.6516  -21.7269   -9.6909 C   0  0  0  0  0  0  0  0  0  0  0  0
   26.2808  -21.6440  -10.9142 C   0  0  0  0  0  0  0  0  0  0  0  0
   26.6674  -20.4121  -11.4538 C   0  0  0  0  0  0  0  0  0  0  0  0
   27.3670  -20.3173  -12.7452 C   0  0  0  0  0  0  0  0  0  0  0  0
   26.6368  -20.7707  -13.9546 C   0  0  2  0  0  0  0  0  0  0  0  0
   27.4608  -20.3924  -15.1202 N   0  0  0  0  0  0  0  0  0  0  0  0
   25.3130  -20.1657  -14.1748 C   0  0  0  0  0  0  0  0  0  0  0  0
   25.1972  -19.0747  -14.8450 O   0  0  0  0  0  0  0  0  0  0  0  0
   26.3764  -19.3091  -10.6828 C   0  0  0  0  0  0  0  0  0  0  0  0
   25.7473  -19.3918   -9.4595 C   0  0  0  0  0  0  0  0  0  0  0  0
   24.0675  -20.6757  -13.7119 N   0  0  0  0  0  0  0  0  0  0  0  0
   22.7992  -20.1058  -14.1193 C   0  0  1  0  0  0  0  0  0  0  0  0
   22.6440  -20.1270  -15.6288 C   0  0  0  0  0  0  0  0  0  0  0  0
   21.3612  -19.6085  -16.0987 C   0  0  0  0  0  0  0  0  0  0  0  0
   20.6501  -20.2330  -16.9144 O   0  0  0  0  0  0  0  0  0  0  0  0
   21.6291  -20.6712  -13.4422 C   0  0  0  0  0  0  0  0  0  0  0  0
   21.6219  -21.8814  -13.1220 O   0  0  0  0  0  0  0  0  0  0  0  0
   20.9135  -18.3880  -15.6298 O   0  0  0  0  0  0  0  0  0  0  0  0
   20.4970  -19.9432  -13.1209 O   0  0  0  0  0  0  0  0  0  0  0  0
  2  1  1  6
  2  3  1  0
  4  2  1  0
  5  4  2  0
  6  7  1  0
  7  8  2  0
  8  9  1  0
 10 11  1  0
 10  9  2  0
 12 11  1  1
 12 13  1  0
 13  4  1  0
 14 12  1  0
 14 15  2  0
 16 10  1  0
 17 16  2  0
 17  7  1  0
 18 14  1  0
 19 18  1  0
 19 20  1  6
 20 21  1  0
 21 22  2  0
 21 25  1  0
 23 19  1  0
 24 23  2  0
 26 23  1  0
M  END
$$$$
