AYD.pdb
     RDKit          3D

 26 26  0  0  1  0  0  0  0  0999 V2000
   21.4077  -10.2022  -19.9280 C   0  0  0  0  0  0  0  0  0  0  0  0
   22.6960  -10.4790  -19.1967 C   0  0  2  0  0  0  0  0  0  0  0  0
   22.8039  -11.8262  -18.7427 N   0  0  0  0  0  0  0  0  0  0  0  0
   22.9609   -9.5270  -18.1106 C   0  0  0  0  0  0  0  0  0  0  0  0
   22.2895   -9.7013  -17.0322 O   0  0  0  0  0  0  0  0  0  0  0  0
   28.5205  -12.2768  -15.7446 O   0  0  0  0  0  0  0  0  0  0  0  0
   27.8076  -11.1118  -16.0326 C   0  0  0  0  0  0  0  0  0  0  0  0
   27.7961  -10.5522  -17.2915 C   0  0  0  0  0  0  0  0  0  0  0  0
   27.0917   -9.4019  -17.5746 C   0  0  0  0  0  0  0  0  0  0  0  0
   26.3482   -8.7409  -16.5906 C   0  0  0  0  0  0  0  0  0  0  0  0
   25.6181   -7.4955  -16.8771 C   0  0  0  0  0  0  0  0  0  0  0  0
   24.1455   -7.5854  -17.0338 C   0  0  2  0  0  0  0  0  0  0  0  0
   23.8902   -8.4625  -18.1940 N   0  0  0  0  0  0  0  0  0  0  0  0
   23.4472   -6.3203  -17.3149 C   0  0  0  0  0  0  0  0  0  0  0  0
   23.6421   -5.6995  -18.4237 O   0  0  0  0  0  0  0  0  0  0  0  0
   26.3737   -9.3173  -15.3404 C   0  0  0  0  0  0  0  0  0  0  0  0
   27.0779  -10.4674  -15.0572 C   0  0  0  0  0  0  0  0  0  0  0  0
   22.5209   -5.6622  -16.4578 N   0  0  0  0  0  0  0  0  0  0  0  0
   21.7706   -4.4967  -16.8797 C   0  0  1  0  0  0  0  0  0  0  0  0
   20.7679   -4.8483  -17.9634 C   0  0  0  0  0  0  0  0  0  0  0  0
   19.9052   -3.7356  -18.3543 C   0  0  0  0  0  0  0  0  0  0  0  0
   20.3353   -2.5677  -18.4642 O   0  0  0  0  0  0  0  0  0  0  0  0
   21.1518   -3.7399  -15.7882 C   0  0  0  0  0  0  0  0  0  0  0  0
   20.8225   -4.3284  -14.7335 O   0  0  0  0  0  0  0  0  0  0  0  0
   18.5689   -3.9754  -18.6125 O   0  0  0  0  0  0  0  0  0  0  0  0
   20.8970   -2.3806  -15.8394 O   0  0  0  0  0  0  0  0  0  0  0  0
  2  1  1  1
  2  3  1  0
  4  2  1  0
  5  4  2  0
  6  7  1  0
  7  8  2  0
  8  9  1  0
 10 11  1  0
 10  9  2  0
 12 11  1  6
 12 13  1  0
 13  4  1  0
 14 12  1  0
 14 15  2  0
 16 10  1  0
 17 16  2  0
 17  7  1  0
 18 14  1  0
 19 18  1  0
 19 20  1  6
 20 21  1  0
 21 22  2  0
 21 25  1  0
 23 19  1  0
 24 23  2  0
 26 23  1  0
M  END
$$$$
