AYD.pdb
     RDKit          3D

 26 26  0  0  1  0  0  0  0  0999 V2000
   29.4673  -22.0965  -17.4440 C   0  0  0  0  0  0  0  0  0  0  0  0
   28.1954  -21.2979  -17.3195 C   0  0  2  0  0  0  0  0  0  0  0  0
   28.3988  -19.8943  -17.4649 N   0  0  0  0  0  0  0  0  0  0  0  0
   27.4371  -21.6037  -16.0998 C   0  0  0  0  0  0  0  0  0  0  0  0
   27.0550  -22.8202  -15.9641 O   0  0  0  0  0  0  0  0  0  0  0  0
   24.2821  -20.6175   -7.7404 O   0  0  0  0  0  0  0  0  0  0  0  0
   24.9488  -20.5491   -8.9648 C   0  0  0  0  0  0  0  0  0  0  0  0
   24.4165  -19.8934  -10.0534 C   0  0  0  0  0  0  0  0  0  0  0  0
   25.0759  -19.8266  -11.2617 C   0  0  0  0  0  0  0  0  0  0  0  0
   26.3273  -20.4257  -11.4441 C   0  0  0  0  0  0  0  0  0  0  0  0
   27.0242  -20.3852  -12.7398 C   0  0  0  0  0  0  0  0  0  0  0  0
   26.3640  -21.0445  -13.8934 C   0  0  2  0  0  0  0  0  0  0  0  0
   27.1186  -20.6528  -15.1008 N   0  0  0  0  0  0  0  0  0  0  0  0
   24.9646  -20.6613  -14.1425 C   0  0  0  0  0  0  0  0  0  0  0  0
   24.6788  -19.4944  -14.6002 O   0  0  0  0  0  0  0  0  0  0  0  0
   26.8401  -21.0753  -10.3437 C   0  0  0  0  0  0  0  0  0  0  0  0
   26.1810  -21.1421   -9.1354 C   0  0  0  0  0  0  0  0  0  0  0  0
   23.8183  -21.4778  -13.9301 N   0  0  0  0  0  0  0  0  0  0  0  0
   22.4700  -20.9807  -14.1153 C   0  0  1  0  0  0  0  0  0  0  0  0
   21.7404  -21.7543  -15.1981 C   0  0  0  0  0  0  0  0  0  0  0  0
   20.3860  -21.2719  -15.4589 C   0  0  0  0  0  0  0  0  0  0  0  0
   19.3853  -21.7611  -14.8929 O   0  0  0  0  0  0  0  0  0  0  0  0
   21.6792  -20.8854  -12.8853 C   0  0  0  0  0  0  0  0  0  0  0  0
   21.8363  -21.7345  -11.9791 O   0  0  0  0  0  0  0  0  0  0  0  0
   20.1981  -20.2409  -16.3599 O   0  0  0  0  0  0  0  0  0  0  0  0
   20.7428  -19.8953  -12.6450 O   0  0  0  0  0  0  0  0  0  0  0  0
  2  1  1  1
  2  3  1  0
  4  2  1  0
  5  4  2  0
  6  7  1  0
  7  8  2  0
  8  9  1  0
 10 11  1  0
 10  9  2  0
 12 11  1  1
 12 13  1  0
 13  4  1  0
 14 12  1  0
 14 15  2  0
 16 10  1  0
 17 16  2  0
 17  7  1  0
 18 14  1  0
 19 18  1  0
 19 20  1  6
 20 21  1  0
 21 22  2  0
 21 25  1  0
 23 19  1  0
 24 23  2  0
 26 23  1  0
M  END
$$$$
