AYD.pdb
     RDKit          3D

 26 26  0  0  1  0  0  0  0  0999 V2000
   24.8608  -13.6131  -17.1140 C   0  0  0  0  0  0  0  0  0  0  0  0
   24.7737  -12.2523  -16.4724 C   0  0  2  0  0  0  0  0  0  0  0  0
   25.1372  -12.2587  -15.0939 N   0  0  0  0  0  0  0  0  0  0  0  0
   23.4759  -11.5972  -16.6791 C   0  0  0  0  0  0  0  0  0  0  0  0
   23.1190  -11.4259  -17.8987 O   0  0  0  0  0  0  0  0  0  0  0  0
   18.8742  -15.1378  -19.6870 O   0  0  0  0  0  0  0  0  0  0  0  0
   19.2033  -14.2145  -18.6933 C   0  0  0  0  0  0  0  0  0  0  0  0
   18.9538  -12.8667  -18.8337 C   0  0  0  0  0  0  0  0  0  0  0  0
   19.2793  -11.9561  -17.8518 C   0  0  0  0  0  0  0  0  0  0  0  0
   19.8834  -12.3580  -16.6552 C   0  0  0  0  0  0  0  0  0  0  0  0
   20.2619  -11.3885  -15.6146 C   0  0  0  0  0  0  0  0  0  0  0  0
   21.3680  -10.4491  -15.9234 C   0  0  2  0  0  0  0  0  0  0  0  0
   22.6289  -11.1605  -15.6324 N   0  0  0  0  0  0  0  0  0  0  0  0
   21.4039   -9.2099  -15.1296 C   0  0  0  0  0  0  0  0  0  0  0  0
   21.6657   -9.2480  -13.8714 O   0  0  0  0  0  0  0  0  0  0  0  0
   20.1234  -13.7086  -16.5362 C   0  0  0  0  0  0  0  0  0  0  0  0
   19.7981  -14.6193  -17.5179 C   0  0  0  0  0  0  0  0  0  0  0  0
   21.1751   -7.8921  -15.6162 N   0  0  0  0  0  0  0  0  0  0  0  0
   21.1841   -6.7340  -14.7455 C   0  0  1  0  0  0  0  0  0  0  0  0
   22.1773   -5.6913  -15.2244 C   0  0  0  0  0  0  0  0  0  0  0  0
   22.1933   -4.4744  -14.4154 C   0  0  0  0  0  0  0  0  0  0  0  0
   22.2546   -4.5061  -13.1680 O   0  0  0  0  0  0  0  0  0  0  0  0
   19.8639   -6.1527  -14.4877 C   0  0  0  0  0  0  0  0  0  0  0  0
   19.0137   -6.1116  -15.4056 O   0  0  0  0  0  0  0  0  0  0  0  0
   22.1392   -3.2449  -15.0440 O   0  0  0  0  0  0  0  0  0  0  0  0
   19.4763   -5.6298  -13.2664 O   0  0  0  0  0  0  0  0  0  0  0  0
  2  1  1  1
  2  3  1  0
  4  2  1  0
  5  4  2  0
  6  7  1  0
  7  8  2  0
  8  9  1  0
 10 11  1  0
 10  9  2  0
 12 11  1  1
 12 13  1  0
 13  4  1  0
 14 12  1  0
 14 15  2  0
 16 10  1  0
 17 16  2  0
 17  7  1  0
 18 14  1  0
 19 18  1  0
 19 20  1  6
 20 21  1  0
 21 22  2  0
 21 25  1  0
 23 19  1  0
 24 23  2  0
 26 23  1  0
M  END
$$$$
