AYD.pdb
     RDKit          3D

 26 26  0  0  1  0  0  0  0  0999 V2000
   19.2330  -10.8225  -22.2030 C   0  0  0  0  0  0  0  0  0  0  0  0
   20.1091  -11.3402  -21.0915 C   0  0  2  0  0  0  0  0  0  0  0  0
   20.0832  -12.7608  -20.9734 N   0  0  0  0  0  0  0  0  0  0  0  0
   19.8485  -10.6925  -19.7998 C   0  0  0  0  0  0  0  0  0  0  0  0
   18.7143  -10.9491  -19.2595 O   0  0  0  0  0  0  0  0  0  0  0  0
   21.0165   -7.3637  -11.6457 O   0  0  0  0  0  0  0  0  0  0  0  0
   21.1189   -7.9225  -12.9207 C   0  0  0  0  0  0  0  0  0  0  0  0
   21.9284   -7.3809  -13.8953 C   0  0  0  0  0  0  0  0  0  0  0  0
   22.0286   -7.9336  -15.1538 C   0  0  0  0  0  0  0  0  0  0  0  0
   21.3082   -9.0802  -15.5065 C   0  0  0  0  0  0  0  0  0  0  0  0
   21.3861   -9.6590  -16.8575 C   0  0  0  0  0  0  0  0  0  0  0  0
   20.4044   -9.1843  -17.8636 C   0  0  2  0  0  0  0  0  0  0  0  0
   20.7579   -9.8279  -19.1448 N   0  0  0  0  0  0  0  0  0  0  0  0
   20.3937   -7.7352  -18.1222 C   0  0  0  0  0  0  0  0  0  0  0  0
   21.3108   -7.1937  -18.8423 O   0  0  0  0  0  0  0  0  0  0  0  0
   20.5060   -9.6045  -14.5178 C   0  0  0  0  0  0  0  0  0  0  0  0
   20.4057   -9.0519  -13.2594 C   0  0  0  0  0  0  0  0  0  0  0  0
   19.4288   -6.8030  -17.6469 N   0  0  0  0  0  0  0  0  0  0  0  0
   19.5715   -5.3746  -17.8435 C   0  0  1  0  0  0  0  0  0  0  0  0
   18.2495   -4.7355  -18.2269 C   0  0  0  0  0  0  0  0  0  0  0  0
   18.3349   -3.2957  -18.4620 C   0  0  0  0  0  0  0  0  0  0  0  0
   19.4055   -2.6640  -18.3370 O   0  0  0  0  0  0  0  0  0  0  0  0
   20.2193   -4.6667  -16.7360 C   0  0  0  0  0  0  0  0  0  0  0  0
   20.6536   -3.5057  -16.9108 O   0  0  0  0  0  0  0  0  0  0  0  0
   17.1983   -2.6038  -18.8353 O   0  0  0  0  0  0  0  0  0  0  0  0
   20.3915   -5.2041  -15.4724 O   0  0  0  0  0  0  0  0  0  0  0  0
  2  1  1  6
  2  3  1  0
  4  2  1  0
  5  4  2  0
  6  7  1  0
  7  8  2  0
  8  9  1  0
 10 11  1  0
 10  9  2  0
 12 11  1  1
 12 13  1  0
 13  4  1  0
 14 12  1  0
 14 15  2  0
 16 10  1  0
 17 16  2  0
 17  7  1  0
 18 14  1  0
 19 18  1  0
 19 20  1  1
 20 21  1  0
 21 22  2  0
 21 25  1  0
 23 19  1  0
 24 23  2  0
 26 23  1  0
M  END
$$$$
