AYD.pdb
     RDKit          3D

 26 26  0  0  1  0  0  0  0  0999 V2000
   29.1821  -22.0882  -17.5893 C   0  0  0  0  0  0  0  0  0  0  0  0
   27.9518  -21.2501  -17.3549 C   0  0  2  0  0  0  0  0  0  0  0  0
   28.1954  -19.8508  -17.4785 N   0  0  0  0  0  0  0  0  0  0  0  0
   27.2699  -21.5637  -16.0929 C   0  0  0  0  0  0  0  0  0  0  0  0
   26.8595  -22.7711  -15.9592 O   0  0  0  0  0  0  0  0  0  0  0  0
   24.9554  -20.6663   -7.4224 O   0  0  0  0  0  0  0  0  0  0  0  0
   25.4854  -20.6100   -8.7125 C   0  0  0  0  0  0  0  0  0  0  0  0
   26.1014  -21.6937   -9.2995 C   0  0  0  0  0  0  0  0  0  0  0  0
   26.6243  -21.6368  -10.5733 C   0  0  0  0  0  0  0  0  0  0  0  0
   26.5548  -20.4675  -11.3390 C   0  0  0  0  0  0  0  0  0  0  0  0
   27.1376  -20.3892  -12.6882 C   0  0  0  0  0  0  0  0  0  0  0  0
   26.3898  -21.0338  -13.7957 C   0  0  2  0  0  0  0  0  0  0  0  0
   27.0512  -20.6291  -15.0525 N   0  0  0  0  0  0  0  0  0  0  0  0
   24.9765  -20.6455  -13.9329 C   0  0  0  0  0  0  0  0  0  0  0  0
   24.6595  -19.4777  -14.3673 O   0  0  0  0  0  0  0  0  0  0  0  0
   25.9354  -19.3975  -10.7330 C   0  0  0  0  0  0  0  0  0  0  0  0
   25.4125  -19.4542   -9.4593 C   0  0  0  0  0  0  0  0  0  0  0  0
   23.8477  -21.4576  -13.6294 N   0  0  0  0  0  0  0  0  0  0  0  0
   22.4883  -20.9804  -13.7830 C   0  0  1  0  0  0  0  0  0  0  0  0
   21.7709  -21.7092  -14.9044 C   0  0  0  0  0  0  0  0  0  0  0  0
   21.8839  -21.0515  -16.2044 C   0  0  0  0  0  0  0  0  0  0  0  0
   22.4818  -19.9641  -16.3496 O   0  0  0  0  0  0  0  0  0  0  0  0
   21.7008  -20.9697  -12.5473 C   0  0  0  0  0  0  0  0  0  0  0  0
   21.9197  -21.8296  -11.6643 O   0  0  0  0  0  0  0  0  0  0  0  0
   21.3131  -21.6458  -17.3138 O   0  0  0  0  0  0  0  0  0  0  0  0
   20.7024  -20.0505  -12.2767 O   0  0  0  0  0  0  0  0  0  0  0  0
  2  1  1  1
  2  3  1  0
  4  2  1  0
  5  4  2  0
  6  7  1  0
  7  8  2  0
  8  9  1  0
 10 11  1  0
 10  9  2  0
 12 11  1  1
 12 13  1  0
 13  4  1  0
 14 12  1  0
 14 15  2  0
 16 10  1  0
 17 16  2  0
 17  7  1  0
 18 14  1  0
 19 18  1  0
 19 20  1  6
 20 21  1  0
 21 22  2  0
 21 25  1  0
 23 19  1  0
 24 23  2  0
 26 23  1  0
M  END
$$$$
