AYD.pdb
     RDKit          3D

 26 26  0  0  1  0  0  0  0  0999 V2000
   27.7618  -21.8430  -18.7717 C   0  0  0  0  0  0  0  0  0  0  0  0
   28.5745  -22.1289  -17.5354 C   0  0  2  0  0  0  0  0  0  0  0  0
   29.4938  -23.2051  -17.7059 N   0  0  0  0  0  0  0  0  0  0  0  0
   27.7527  -22.3144  -16.3327 C   0  0  0  0  0  0  0  0  0  0  0  0
   27.4639  -23.5262  -16.0292 O   0  0  0  0  0  0  0  0  0  0  0  0
   23.7571  -20.6663   -8.4741 O   0  0  0  0  0  0  0  0  0  0  0  0
   24.4928  -20.6230   -9.6594 C   0  0  0  0  0  0  0  0  0  0  0  0
   23.9715  -20.1101  -10.8271 C   0  0  0  0  0  0  0  0  0  0  0  0
   24.6990  -20.0679  -11.9969 C   0  0  0  0  0  0  0  0  0  0  0  0
   26.0124  -20.5471  -12.0569 C   0  0  0  0  0  0  0  0  0  0  0  0
   26.7855  -20.5337  -13.3092 C   0  0  0  0  0  0  0  0  0  0  0  0
   26.4178  -21.5233  -14.3517 C   0  0  2  0  0  0  0  0  0  0  0  0
   27.2803  -21.2560  -15.5202 N   0  0  0  0  0  0  0  0  0  0  0  0
   25.0314  -21.4597  -14.8426 C   0  0  0  0  0  0  0  0  0  0  0  0
   24.6856  -20.5750  -15.7090 O   0  0  0  0  0  0  0  0  0  0  0  0
   26.5131  -21.0549  -10.8791 C   0  0  0  0  0  0  0  0  0  0  0  0
   25.7858  -21.0973   -9.7094 C   0  0  0  0  0  0  0  0  0  0  0  0
   23.9616  -22.3146  -14.4548 N   0  0  0  0  0  0  0  0  0  0  0  0
   22.5965  -22.0886  -14.8847 C   0  0  1  0  0  0  0  0  0  0  0  0
   21.8979  -23.3952  -15.2133 C   0  0  0  0  0  0  0  0  0  0  0  0
   20.5822  -23.2244  -15.8258 C   0  0  0  0  0  0  0  0  0  0  0  0
   20.1002  -22.0962  -16.0622 O   0  0  0  0  0  0  0  0  0  0  0  0
   21.8002  -21.2564  -13.9788 C   0  0  0  0  0  0  0  0  0  0  0  0
   21.7044  -21.5702  -12.7707 O   0  0  0  0  0  0  0  0  0  0  0  0
   19.8411  -24.3429  -16.1570 O   0  0  0  0  0  0  0  0  0  0  0  0
   21.1256  -20.1143  -14.3731 O   0  0  0  0  0  0  0  0  0  0  0  0
  2  1  1  6
  2  3  1  0
  4  2  1  0
  5  4  2  0
  6  7  1  0
  7  8  2  0
  8  9  1  0
 10 11  1  0
 10  9  2  0
 12 11  1  1
 12 13  1  0
 13  4  1  0
 14 12  1  0
 14 15  2  0
 16 10  1  0
 17 16  2  0
 17  7  1  0
 18 14  1  0
 19 18  1  0
 19 20  1  1
 20 21  1  0
 21 22  2  0
 21 25  1  0
 23 19  1  0
 24 23  2  0
 26 23  1  0
M  END
$$$$
