AYD.pdb
     RDKit          3D

 26 26  0  0  1  0  0  0  0  0999 V2000
   22.6083  -25.9930  -14.9853 C   0  0  0  0  0  0  0  0  0  0  0  0
   23.6822  -24.9964  -15.3379 C   0  0  2  0  0  0  0  0  0  0  0  0
   24.9566  -25.5986  -15.5523 N   0  0  0  0  0  0  0  0  0  0  0  0
   23.7720  -23.8816  -14.3865 C   0  0  0  0  0  0  0  0  0  0  0  0
   22.7073  -23.1834  -14.2345 O   0  0  0  0  0  0  0  0  0  0  0  0
   26.7184  -18.4751   -7.8366 O   0  0  0  0  0  0  0  0  0  0  0  0
   26.4910  -19.4867   -8.7711 C   0  0  0  0  0  0  0  0  0  0  0  0
   25.4309  -20.3599   -8.6622 C   0  0  0  0  0  0  0  0  0  0  0  0
   25.2074  -21.3583   -9.5856 C   0  0  0  0  0  0  0  0  0  0  0  0
   26.0521  -21.5357  -10.6871 C   0  0  0  0  0  0  0  0  0  0  0  0
   25.8382  -22.6183  -11.6610 C   0  0  0  0  0  0  0  0  0  0  0  0
   25.0038  -22.3151  -12.8498 C   0  0  2  0  0  0  0  0  0  0  0  0
   24.9376  -23.5518  -13.6541 N   0  0  0  0  0  0  0  0  0  0  0  0
   25.5165  -21.2685  -13.7491 C   0  0  0  0  0  0  0  0  0  0  0  0
   26.5051  -21.5096  -14.5348 O   0  0  0  0  0  0  0  0  0  0  0  0
   27.1045  -20.6524  -10.7761 C   0  0  0  0  0  0  0  0  0  0  0  0
   27.3281  -19.6540   -9.8529 C   0  0  0  0  0  0  0  0  0  0  0  0
   25.0168  -19.9409  -13.8658 N   0  0  0  0  0  0  0  0  0  0  0  0
   25.2329  -19.1348  -15.0503 C   0  0  1  0  0  0  0  0  0  0  0  0
   24.9604  -19.9282  -16.3150 C   0  0  0  0  0  0  0  0  0  0  0  0
   25.1536  -19.1640  -17.5455 C   0  0  0  0  0  0  0  0  0  0  0  0
   25.8247  -18.1106  -17.5755 O   0  0  0  0  0  0  0  0  0  0  0  0
   24.5311  -17.8485  -15.0508 C   0  0  0  0  0  0  0  0  0  0  0  0
   23.3554  -17.7827  -14.6260 O   0  0  0  0  0  0  0  0  0  0  0  0
   24.5780  -19.6152  -18.7181 O   0  0  0  0  0  0  0  0  0  0  0  0
   25.0899  -16.6649  -15.5002 O   0  0  0  0  0  0  0  0  0  0  0  0
  2  1  1  1
  2  3  1  0
  4  2  1  0
  5  4  2  0
  6  7  1  0
  7  8  2  0
  8  9  1  0
 10 11  1  0
 10  9  2  0
 12 11  1  1
 12 13  1  0
 13  4  1  0
 14 12  1  0
 14 15  2  0
 16 10  1  0
 17 16  2  0
 17  7  1  0
 18 14  1  0
 19 18  1  0
 19 20  1  6
 20 21  1  0
 21 22  2  0
 21 25  1  0
 23 19  1  0
 24 23  2  0
 26 23  1  0
M  END
$$$$
