AYD.pdb
     RDKit          3D

 26 26  0  0  1  0  0  0  0  0999 V2000
   26.8902  -17.9317  -14.6407 C   0  0  0  0  0  0  0  0  0  0  0  0
   27.8170  -18.7499  -13.7790 C   0  0  2  0  0  0  0  0  0  0  0  0
   28.9897  -19.1782  -14.4674 N   0  0  0  0  0  0  0  0  0  0  0  0
   27.1471  -19.8751  -13.1148 C   0  0  0  0  0  0  0  0  0  0  0  0
   27.5582  -21.0459  -13.4380 O   0  0  0  0  0  0  0  0  0  0  0  0
   29.1215  -19.7180   -6.3100 O   0  0  0  0  0  0  0  0  0  0  0  0
   28.1212  -19.9280   -7.2605 C   0  0  0  0  0  0  0  0  0  0  0  0
   28.1862  -20.9534   -8.1785 C   0  0  0  0  0  0  0  0  0  0  0  0
   27.1978  -21.1596   -9.1166 C   0  0  0  0  0  0  0  0  0  0  0  0
   26.0714  -20.3320   -9.1836 C   0  0  0  0  0  0  0  0  0  0  0  0
   25.0265  -20.5267  -10.2016 C   0  0  0  0  0  0  0  0  0  0  0  0
   25.4626  -20.9194  -11.5642 C   0  0  2  0  0  0  0  0  0  0  0  0
   26.1050  -19.7344  -12.1673 N   0  0  0  0  0  0  0  0  0  0  0  0
   24.3944  -21.3237  -12.4930 C   0  0  0  0  0  0  0  0  0  0  0  0
   23.6796  -20.4381  -13.0912 O   0  0  0  0  0  0  0  0  0  0  0  0
   26.0270  -19.3142   -8.2572 C   0  0  0  0  0  0  0  0  0  0  0  0
   27.0152  -19.1079   -7.3193 C   0  0  0  0  0  0  0  0  0  0  0  0
   24.0375  -22.6584  -12.8350 N   0  0  0  0  0  0  0  0  0  0  0  0
   22.9993  -22.9580  -13.8002 C   0  0  1  0  0  0  0  0  0  0  0  0
   23.1440  -24.3662  -14.3472 C   0  0  0  0  0  0  0  0  0  0  0  0
   24.2500  -24.5239  -15.2891 C   0  0  0  0  0  0  0  0  0  0  0  0
   24.8815  -23.5460  -15.7429 O   0  0  0  0  0  0  0  0  0  0  0  0
   21.6359  -22.6905  -13.3345 C   0  0  0  0  0  0  0  0  0  0  0  0
   21.4028  -22.6158  -12.1069 O   0  0  0  0  0  0  0  0  0  0  0  0
   24.6149  -25.7934  -15.6957 O   0  0  0  0  0  0  0  0  0  0  0  0
   20.5542  -22.5090  -14.1782 O   0  0  0  0  0  0  0  0  0  0  0  0
  2  1  1  6
  2  3  1  0
  4  2  1  0
  5  4  2  0
  6  7  1  0
  7  8  2  0
  8  9  1  0
 10 11  1  0
 10  9  2  0
 12 11  1  1
 12 13  1  0
 13  4  1  0
 14 12  1  0
 14 15  2  0
 16 10  1  0
 17 16  2  0
 17  7  1  0
 18 14  1  0
 19 18  1  0
 19 20  1  1
 20 21  1  0
 21 22  2  0
 21 25  1  0
 23 19  1  0
 24 23  2  0
 26 23  1  0
M  END
$$$$
