AYD.pdb
     RDKit          3D

 26 26  0  0  1  0  0  0  0  0999 V2000
   27.7577  -20.9732  -16.8318 C   0  0  0  0  0  0  0  0  0  0  0  0
   26.3552  -20.4631  -17.0412 C   0  0  2  0  0  0  0  0  0  0  0  0
   26.2886  -19.3628  -17.9453 N   0  0  0  0  0  0  0  0  0  0  0  0
   25.6543  -20.1654  -15.7858 C   0  0  0  0  0  0  0  0  0  0  0  0
   25.7575  -18.9624  -15.3544 O   0  0  0  0  0  0  0  0  0  0  0  0
   18.8707  -18.7999  -17.1565 O   0  0  0  0  0  0  0  0  0  0  0  0
   19.8441  -19.4217  -16.3727 C   0  0  0  0  0  0  0  0  0  0  0  0
   20.5321  -20.5344  -16.8049 C   0  0  0  0  0  0  0  0  0  0  0  0
   21.4929  -21.1474  -16.0300 C   0  0  0  0  0  0  0  0  0  0  0  0
   21.8196  -20.6665  -14.7571 C   0  0  0  0  0  0  0  0  0  0  0  0
   22.8225  -21.3331  -13.9110 C   0  0  0  0  0  0  0  0  0  0  0  0
   24.1695  -20.7163  -13.8302 C   0  0  2  0  0  0  0  0  0  0  0  0
   24.8959  -21.1104  -15.0539 N   0  0  0  0  0  0  0  0  0  0  0  0
   25.0092  -21.1440  -12.6993 C   0  0  0  0  0  0  0  0  0  0  0  0
   25.7263  -22.2077  -12.7844 O   0  0  0  0  0  0  0  0  0  0  0  0
   21.1202  -19.5542  -14.3455 C   0  0  0  0  0  0  0  0  0  0  0  0
   20.1594  -18.9412  -15.1202 C   0  0  0  0  0  0  0  0  0  0  0  0
   25.1361  -20.4796  -11.4471 N   0  0  0  0  0  0  0  0  0  0  0  0
   25.9627  -20.9990  -10.3764 C   0  0  1  0  0  0  0  0  0  0  0  0
   27.3910  -20.4987  -10.4896 C   0  0  0  0  0  0  0  0  0  0  0  0
   28.2781  -21.0007   -9.4424 C   0  0  0  0  0  0  0  0  0  0  0  0
   28.3289  -20.4798   -8.3079 O   0  0  0  0  0  0  0  0  0  0  0  0
   25.4185  -20.7972   -9.0309 C   0  0  0  0  0  0  0  0  0  0  0  0
   25.9946  -21.3101   -8.0450 O   0  0  0  0  0  0  0  0  0  0  0  0
   29.0902  -22.0868   -9.7086 O   0  0  0  0  0  0  0  0  0  0  0  0
   24.2795  -20.0586   -8.7622 O   0  0  0  0  0  0  0  0  0  0  0  0
  2  1  1  1
  2  3  1  0
  4  2  1  0
  5  4  2  0
  6  7  1  0
  7  8  2  0
  8  9  1  0
 10 11  1  0
 10  9  2  0
 12 11  1  1
 12 13  1  0
 13  4  1  0
 14 12  1  0
 14 15  2  0
 16 10  1  0
 17 16  2  0
 17  7  1  0
 18 14  1  0
 19 18  1  0
 19 20  1  1
 20 21  1  0
 21 22  2  0
 21 25  1  0
 23 19  1  0
 24 23  2  0
 26 23  1  0
M  END
$$$$
