AYD.pdb
     RDKit          3D

 26 26  0  0  1  0  0  0  0  0999 V2000
   19.5249  -10.6494  -18.1622 C   0  0  0  0  0  0  0  0  0  0  0  0
   20.3575  -10.7925  -16.9143 C   0  0  2  0  0  0  0  0  0  0  0  0
   20.2364  -12.0754  -16.3043 N   0  0  0  0  0  0  0  0  0  0  0  0
   20.1323   -9.7157  -15.9418 C   0  0  0  0  0  0  0  0  0  0  0  0
   18.9435   -9.6215  -15.4706 O   0  0  0  0  0  0  0  0  0  0  0  0
   19.6626   -5.2725   -8.6705 O   0  0  0  0  0  0  0  0  0  0  0  0
   20.1406   -5.9134   -9.8147 C   0  0  0  0  0  0  0  0  0  0  0  0
   21.0017   -5.2955  -10.6950 C   0  0  0  0  0  0  0  0  0  0  0  0
   21.4729   -5.9294  -11.8244 C   0  0  0  0  0  0  0  0  0  0  0  0
   21.0975   -7.2412  -12.1350 C   0  0  0  0  0  0  0  0  0  0  0  0
   21.5719   -7.9145  -13.3547 C   0  0  0  0  0  0  0  0  0  0  0  0
   20.8017   -7.6926  -14.6033 C   0  0  2  0  0  0  0  0  0  0  0  0
   21.1304   -8.8077  -15.5140 N   0  0  0  0  0  0  0  0  0  0  0  0
   21.1094   -6.4566  -15.3411 C   0  0  0  0  0  0  0  0  0  0  0  0
   22.1263   -6.4006  -16.1258 O   0  0  0  0  0  0  0  0  0  0  0  0
   20.2369   -7.8392  -11.2421 C   0  0  0  0  0  0  0  0  0  0  0  0
   19.7656   -7.2056  -10.1128 C   0  0  0  0  0  0  0  0  0  0  0  0
   20.3694   -5.2417  -15.2929 N   0  0  0  0  0  0  0  0  0  0  0  0
   20.7837   -4.0549  -16.0133 C   0  0  1  0  0  0  0  0  0  0  0  0
   19.8434   -3.7523  -17.1655 C   0  0  0  0  0  0  0  0  0  0  0  0
   20.1972   -2.5502  -17.9174 C   0  0  0  0  0  0  0  0  0  0  0  0
   19.6551   -1.4459  -17.6992 O   0  0  0  0  0  0  0  0  0  0  0  0
   21.0125   -2.8774  -15.1716 C   0  0  0  0  0  0  0  0  0  0  0  0
   20.3045   -2.6936  -14.1557 O   0  0  0  0  0  0  0  0  0  0  0  0
   21.1621   -2.6301  -18.9035 O   0  0  0  0  0  0  0  0  0  0  0  0
   21.9834   -1.9246  -15.4253 O   0  0  0  0  0  0  0  0  0  0  0  0
  2  1  1  6
  2  3  1  0
  4  2  1  0
  5  4  2  0
  6  7  1  0
  7  8  2  0
  8  9  1  0
 10 11  1  0
 10  9  2  0
 12 11  1  1
 12 13  1  0
 13  4  1  0
 14 12  1  0
 14 15  2  0
 16 10  1  0
 17 16  2  0
 17  7  1  0
 18 14  1  0
 19 18  1  0
 19 20  1  6
 20 21  1  0
 21 22  2  0
 21 25  1  0
 23 19  1  0
 24 23  2  0
 26 23  1  0
M  END
$$$$
