AYD.pdb
     RDKit          3D

 26 26  0  0  1  0  0  0  0  0999 V2000
   24.1282   -9.3559  -20.4098 C   0  0  0  0  0  0  0  0  0  0  0  0
   23.9803  -10.3990  -19.3323 C   0  0  2  0  0  0  0  0  0  0  0  0
   23.7631  -11.7102  -19.8481 N   0  0  0  0  0  0  0  0  0  0  0  0
   22.9732  -10.0491  -18.3226 C   0  0  0  0  0  0  0  0  0  0  0  0
   21.7496  -10.1187  -18.6996 O   0  0  0  0  0  0  0  0  0  0  0  0
   20.3674  -15.5674  -16.2176 O   0  0  0  0  0  0  0  0  0  0  0  0
   20.8216  -14.2853  -15.9044 C   0  0  0  0  0  0  0  0  0  0  0  0
   20.0169  -13.1733  -16.0240 C   0  0  0  0  0  0  0  0  0  0  0  0
   20.4665  -11.9079  -15.7145 C   0  0  0  0  0  0  0  0  0  0  0  0
   21.7717  -11.6882  -15.2601 C   0  0  0  0  0  0  0  0  0  0  0  0
   22.2692  -10.3367  -14.9566 C   0  0  0  0  0  0  0  0  0  0  0  0
   22.2045   -9.3239  -16.0388 C   0  0  2  0  0  0  0  0  0  0  0  0
   23.2778   -9.6523  -16.9984 N   0  0  0  0  0  0  0  0  0  0  0  0
   22.4319   -7.9277  -15.6316 C   0  0  0  0  0  0  0  0  0  0  0  0
   23.6118   -7.5222  -15.3209 O   0  0  0  0  0  0  0  0  0  0  0  0
   22.5581  -12.8129  -15.1482 C   0  0  0  0  0  0  0  0  0  0  0  0
   22.1087  -14.0783  -15.4577 C   0  0  0  0  0  0  0  0  0  0  0  0
   21.4444   -6.9069  -15.5389 N   0  0  0  0  0  0  0  0  0  0  0  0
   21.7643   -5.5577  -15.1187 C   0  0  1  0  0  0  0  0  0  0  0  0
   20.8681   -4.5402  -15.8006 C   0  0  0  0  0  0  0  0  0  0  0  0
   21.1591   -3.1560  -15.4338 C   0  0  0  0  0  0  0  0  0  0  0  0
   22.2557   -2.8151  -14.9414 O   0  0  0  0  0  0  0  0  0  0  0  0
   21.8053   -5.3630  -13.6670 C   0  0  0  0  0  0  0  0  0  0  0  0
   21.0489   -6.0341  -12.9291 O   0  0  0  0  0  0  0  0  0  0  0  0
   20.1946   -2.1869  -15.6351 O   0  0  0  0  0  0  0  0  0  0  0  0
   22.6446   -4.4640  -13.0325 O   0  0  0  0  0  0  0  0  0  0  0  0
  2  1  1  6
  2  3  1  0
  4  2  1  0
  5  4  2  0
  6  7  1  0
  7  8  2  0
  8  9  1  0
 10 11  1  0
 10  9  2  0
 12 11  1  1
 12 13  1  0
 13  4  1  0
 14 12  1  0
 14 15  2  0
 16 10  1  0
 17 16  2  0
 17  7  1  0
 18 14  1  0
 19 18  1  0
 19 20  1  6
 20 21  1  0
 21 22  2  0
 21 25  1  0
 23 19  1  0
 24 23  2  0
 26 23  1  0
M  END
$$$$
