AYD.pdb
     RDKit          3D

 26 26  0  0  1  0  0  0  0  0999 V2000
   17.4060  -11.9724  -17.2305 C   0  0  0  0  0  0  0  0  0  0  0  0
   18.5675  -12.9320  -17.2629 C   0  0  2  0  0  0  0  0  0  0  0  0
   18.2545  -14.2090  -16.7116 N   0  0  0  0  0  0  0  0  0  0  0  0
   19.7913  -12.3796  -16.6685 C   0  0  0  0  0  0  0  0  0  0  0  0
   19.9067  -12.5050  -15.3976 O   0  0  0  0  0  0  0  0  0  0  0  0
   28.4433  -10.1898  -16.1052 O   0  0  0  0  0  0  0  0  0  0  0  0
   27.1600  -10.6078  -16.4611 C   0  0  0  0  0  0  0  0  0  0  0  0
   26.4843  -10.0674  -17.5333 C   0  0  0  0  0  0  0  0  0  0  0  0
   25.2172  -10.4810  -17.8837 C   0  0  0  0  0  0  0  0  0  0  0  0
   24.5495  -11.4773  -17.1626 C   0  0  0  0  0  0  0  0  0  0  0  0
   23.1846  -11.9032  -17.5114 C   0  0  0  0  0  0  0  0  0  0  0  0
   22.0633  -11.3007  -16.7491 C   0  0  2  0  0  0  0  0  0  0  0  0
   20.8147  -11.7372  -17.4058 N   0  0  0  0  0  0  0  0  0  0  0  0
   22.0185   -9.8296  -16.7201 C   0  0  0  0  0  0  0  0  0  0  0  0
   21.5753   -9.1699  -17.7307 O   0  0  0  0  0  0  0  0  0  0  0  0
   25.2430  -12.0032  -16.0956 C   0  0  0  0  0  0  0  0  0  0  0  0
   26.5099  -11.5897  -15.7452 C   0  0  0  0  0  0  0  0  0  0  0  0
   22.4265   -8.9967  -15.6406 N   0  0  0  0  0  0  0  0  0  0  0  0
   22.3907   -7.5506  -15.7234 C   0  0  1  0  0  0  0  0  0  0  0  0
   21.9436   -6.9335  -14.4110 C   0  0  0  0  0  0  0  0  0  0  0  0
   21.8025   -5.4798  -14.4589 C   0  0  0  0  0  0  0  0  0  0  0  0
   22.7879   -4.7139  -14.4009 O   0  0  0  0  0  0  0  0  0  0  0  0
   23.6234   -6.9361  -16.2237 C   0  0  0  0  0  0  0  0  0  0  0  0
   24.7261   -7.2689  -15.7335 O   0  0  0  0  0  0  0  0  0  0  0  0
   20.5409   -4.9271  -14.5718 O   0  0  0  0  0  0  0  0  0  0  0  0
   23.6588   -5.9859  -17.2291 O   0  0  0  0  0  0  0  0  0  0  0  0
  2  1  1  1
  2  3  1  0
  4  2  1  0
  5  4  2  0
  6  7  1  0
  7  8  2  0
  8  9  1  0
 10 11  1  0
 10  9  2  0
 12 11  1  6
 12 13  1  0
 13  4  1  0
 14 12  1  0
 14 15  2  0
 16 10  1  0
 17 16  2  0
 17  7  1  0
 18 14  1  0
 19 18  1  0
 19 20  1  1
 20 21  1  0
 21 22  2  0
 21 25  1  0
 23 19  1  0
 24 23  2  0
 26 23  1  0
M  END
$$$$
