AYD.pdb
     RDKit          3D

 26 26  0  0  1  0  0  0  0  0999 V2000
   23.2995   -8.2997  -19.9151 C   0  0  0  0  0  0  0  0  0  0  0  0
   23.0948   -9.2567  -18.7693 C   0  0  2  0  0  0  0  0  0  0  0  0
   23.0037  -10.6173  -19.1853 N   0  0  0  0  0  0  0  0  0  0  0  0
   21.9695   -8.8877  -17.9011 C   0  0  0  0  0  0  0  0  0  0  0  0
   20.8211   -8.8166  -18.4669 O   0  0  0  0  0  0  0  0  0  0  0  0
   17.8154  -13.8260  -16.4393 O   0  0  0  0  0  0  0  0  0  0  0  0
   18.5003  -12.6884  -16.0092 C   0  0  0  0  0  0  0  0  0  0  0  0
   17.8788  -11.4662  -15.8741 C   0  0  0  0  0  0  0  0  0  0  0  0
   18.5562  -10.3437  -15.4493 C   0  0  0  0  0  0  0  0  0  0  0  0
   19.9183  -10.3900  -15.1319 C   0  0  0  0  0  0  0  0  0  0  0  0
   20.6560   -9.1895  -14.7068 C   0  0  0  0  0  0  0  0  0  0  0  0
   20.9254   -8.1522  -15.7328 C   0  0  2  0  0  0  0  0  0  0  0  0
   22.0876   -8.6159  -16.5169 N   0  0  0  0  0  0  0  0  0  0  0  0
   21.2806   -6.8172  -15.2242 C   0  0  0  0  0  0  0  0  0  0  0  0
   22.4992   -6.5345  -14.9277 O   0  0  0  0  0  0  0  0  0  0  0  0
   20.5190  -11.6208  -15.2739 C   0  0  0  0  0  0  0  0  0  0  0  0
   19.8419  -12.7432  -15.6987 C   0  0  0  0  0  0  0  0  0  0  0  0
   20.3845   -5.7319  -15.0122 N   0  0  0  0  0  0  0  0  0  0  0  0
   20.8397   -4.4272  -14.5766 C   0  0  1  0  0  0  0  0  0  0  0  0
   22.0177   -3.9486  -15.4053 C   0  0  0  0  0  0  0  0  0  0  0  0
   22.4441   -2.5858  -15.0950 C   0  0  0  0  0  0  0  0  0  0  0  0
   22.1508   -2.0265  -14.0169 O   0  0  0  0  0  0  0  0  0  0  0  0
   19.7875   -3.4114  -14.4858 C   0  0  0  0  0  0  0  0  0  0  0  0
   18.8276   -3.4386  -15.2888 O   0  0  0  0  0  0  0  0  0  0  0  0
   23.1967   -1.8867  -16.0195 O   0  0  0  0  0  0  0  0  0  0  0  0
   19.7769   -2.3931  -13.5488 O   0  0  0  0  0  0  0  0  0  0  0  0
  2  1  1  6
  2  3  1  0
  4  2  1  0
  5  4  2  0
  6  7  1  0
  7  8  2  0
  8  9  1  0
 10 11  1  0
 10  9  2  0
 12 11  1  1
 12 13  1  0
 13  4  1  0
 14 12  1  0
 14 15  2  0
 16 10  1  0
 17 16  2  0
 17  7  1  0
 18 14  1  0
 19 18  1  0
 19 20  1  6
 20 21  1  0
 21 22  2  0
 21 25  1  0
 23 19  1  0
 24 23  2  0
 26 23  1  0
M  END
$$$$
