AYD.pdb
     RDKit          3D

 26 26  0  0  1  0  0  0  0  0999 V2000
   19.5807  -29.3709   -9.3916 C   0  0  0  0  0  0  0  0  0  0  0  0
   20.7379  -29.6056  -10.3281 C   0  0  2  0  0  0  0  0  0  0  0  0
   20.3875  -29.4500  -11.7013 N   0  0  0  0  0  0  0  0  0  0  0  0
   21.4223  -30.8833  -10.0934 C   0  0  0  0  0  0  0  0  0  0  0  0
   20.7358  -31.9411  -10.3254 O   0  0  0  0  0  0  0  0  0  0  0  0
   27.5339  -37.2292  -10.5263 O   0  0  0  0  0  0  0  0  0  0  0  0
   26.7829  -36.0527  -10.5292 C   0  0  0  0  0  0  0  0  0  0  0  0
   27.2511  -34.8831   -9.9711 C   0  0  0  0  0  0  0  0  0  0  0  0
   26.5086  -33.7221   -9.9747 C   0  0  0  0  0  0  0  0  0  0  0  0
   25.2335  -33.6732  -10.5492 C   0  0  0  0  0  0  0  0  0  0  0  0
   24.4217  -32.4457  -10.5302 C   0  0  0  0  0  0  0  0  0  0  0  0
   23.3899  -32.3234   -9.4711 C   0  0  2  0  0  0  0  0  0  0  0  0
   22.7578  -30.9994   -9.6389 N   0  0  0  0  0  0  0  0  0  0  0  0
   23.8793  -32.3710   -8.0836 C   0  0  0  0  0  0  0  0  0  0  0  0
   24.5422  -31.3857   -7.5910 O   0  0  0  0  0  0  0  0  0  0  0  0
   24.7857  -34.8527  -11.1007 C   0  0  0  0  0  0  0  0  0  0  0  0
   25.5280  -36.0137  -11.0973 C   0  0  0  0  0  0  0  0  0  0  0  0
   23.6921  -33.4391   -7.1617 N   0  0  0  0  0  0  0  0  0  0  0  0
   24.2627  -33.4199   -5.8300 C   0  0  1  0  0  0  0  0  0  0  0  0
   23.3992  -34.1908   -4.8485 C   0  0  0  0  0  0  0  0  0  0  0  0
   23.8381  -34.0776   -3.4592 C   0  0  0  0  0  0  0  0  0  0  0  0
   24.8117  -33.3696   -3.1251 O   0  0  0  0  0  0  0  0  0  0  0  0
   25.6676  -33.8307   -5.7608 C   0  0  0  0  0  0  0  0  0  0  0  0
   26.0516  -34.8385   -6.3963 O   0  0  0  0  0  0  0  0  0  0  0  0
   23.1586  -34.7737   -2.4775 O   0  0  0  0  0  0  0  0  0  0  0  0
   26.6303  -33.1658   -5.0218 O   0  0  0  0  0  0  0  0  0  0  0  0
  2  1  1  1
  2  3  1  0
  4  2  1  0
  5  4  2  0
  6  7  1  0
  7  8  2  0
  8  9  1  0
 10 11  1  0
 10  9  2  0
 12 11  1  6
 12 13  1  0
 13  4  1  0
 14 12  1  0
 14 15  2  0
 16 10  1  0
 17 16  2  0
 17  7  1  0
 18 14  1  0
 19 18  1  0
 19 20  1  1
 20 21  1  0
 21 22  2  0
 21 25  1  0
 23 19  1  0
 24 23  2  0
 26 23  1  0
M  END
$$$$
