TLY.pdb
     RDKit          3D

 28 28  0  0  1  0  0  0  0  0999 V2000
    6.5870  -17.8439   22.3956 C   0  0  0  0  0  0  0  0  0  0  0  0
    7.7150  -17.6326   21.4427 C   0  0  1  0  0  0  0  0  0  0  0  0
    7.4613  -18.1889   20.1842 O   0  0  0  0  0  0  0  0  0  0  0  0
    8.1032  -16.1951   21.2424 C   0  0  2  0  0  0  0  0  0  0  0  0
    9.0282  -16.0399   20.1545 N   0  0  0  0  0  0  0  0  0  0  0  0
    8.5601  -15.5345   22.4802 C   0  0  0  0  0  0  0  0  0  0  0  0
    9.7377  -15.6290   22.9135 O   0  0  0  0  0  0  0  0  0  0  0  0
    8.0332  -11.3573   26.2591 C   0  0  0  0  0  0  0  0  0  0  0  0
    7.0289  -12.4427   26.1206 C   0  0  1  0  0  0  0  0  0  0  0  0
    5.6634  -11.8562   26.4716 C   0  0  0  0  0  0  0  0  0  0  0  0
    6.9119  -13.1103   24.8182 C   0  0  0  0  0  0  0  0  0  0  0  0
    7.9438  -14.1388   24.4813 C   0  0  2  0  0  0  0  0  0  0  0  0
    7.6519  -14.7648   23.2146 N   0  0  0  0  0  0  0  0  0  0  0  0
    8.1650  -15.1045   25.5791 C   0  0  0  0  0  0  0  0  0  0  0  0
    7.2954  -15.9824   25.7846 O   0  0  0  0  0  0  0  0  0  0  0  0
   11.0717  -22.0073   29.6787 O   0  0  0  0  0  0  0  0  0  0  0  0
   10.7495  -20.8953   28.9160 C   0  0  0  0  0  0  0  0  0  0  0  0
   10.4376  -19.6799   29.4838 C   0  0  0  0  0  0  0  0  0  0  0  0
   10.1277  -18.6184   28.6725 C   0  0  0  0  0  0  0  0  0  0  0  0
   10.1096  -18.6998   27.2778 C   0  0  0  0  0  0  0  0  0  0  0  0
    9.7609  -17.5250   26.4441 C   0  0  0  0  0  0  0  0  0  0  0  0
    9.6792  -16.2547   27.2538 C   0  0  2  0  0  0  0  0  0  0  0  0
    9.2989  -15.1203   26.4337 N   0  0  0  0  0  0  0  0  0  0  0  0
   10.9110  -15.9126   27.9812 C   0  0  0  0  0  0  0  0  0  0  0  0
   11.8502  -15.3646   27.3588 O   0  0  0  0  0  0  0  0  0  0  0  0
   10.4253  -19.9264   26.7432 C   0  0  0  0  0  0  0  0  0  0  0  0
   10.7401  -21.0070   27.5385 C   0  0  0  0  0  0  0  0  0  0  0  0
   11.1102  -16.1569   29.3313 O   0  0  0  0  0  0  0  0  0  0  0  0
  2  1  1  1
  2  3  1  0
  2  4  1  0
  4  5  1  6
  6  4  1  0
  6  7  2  0
  9  8  1  6
  9 11  1  0
  9 10  1  0
 12 11  1  1
 12 13  1  0
 13  6  1  0
 14 12  1  0
 15 14  2  0
 16 17  1  0
 17 27  2  0
 17 18  1  0
 18 19  2  0
 19 20  1  0
 20 21  1  0
 22 21  1  6
 22 23  1  0
 22 24  1  0
 23 14  1  0
 24 28  1  0
 25 24  2  0
 26 20  2  0
 27 26  1  0
M  END
$$$$
