TLY.pdb
     RDKit          3D

 28 28  0  0  1  0  0  0  0  0999 V2000
   10.6326  -20.3268   17.0098 C   0  0  0  0  0  0  0  0  0  0  0  0
   10.5940  -18.9601   17.6063 C   0  0  1  0  0  0  0  0  0  0  0  0
    9.7206  -18.1054   16.9250 O   0  0  0  0  0  0  0  0  0  0  0  0
   10.2320  -18.9242   19.0639 C   0  0  2  0  0  0  0  0  0  0  0  0
    8.9756  -19.5728   19.3168 N   0  0  0  0  0  0  0  0  0  0  0  0
   10.3067  -17.5729   19.6523 C   0  0  0  0  0  0  0  0  0  0  0  0
   11.3573  -16.8804   19.6484 O   0  0  0  0  0  0  0  0  0  0  0  0
    8.5304  -12.6157   20.7881 C   0  0  0  0  0  0  0  0  0  0  0  0
    7.6305  -13.7179   21.2138 C   0  0  1  0  0  0  0  0  0  0  0  0
    6.1960  -13.2800   20.9270 C   0  0  0  0  0  0  0  0  0  0  0  0
    7.8279  -15.0407   20.6084 C   0  0  0  0  0  0  0  0  0  0  0  0
    9.1154  -15.7423   20.9019 C   0  0  2  0  0  0  0  0  0  0  0  0
    9.1637  -17.0256   20.2443 N   0  0  0  0  0  0  0  0  0  0  0  0
    9.4098  -15.8102   22.3495 C   0  0  0  0  0  0  0  0  0  0  0  0
    8.6698  -16.5133   23.0756 O   0  0  0  0  0  0  0  0  0  0  0  0
   10.4617  -15.3622   30.8118 O   0  0  0  0  0  0  0  0  0  0  0  0
   10.2257  -15.2692   29.4489 C   0  0  0  0  0  0  0  0  0  0  0  0
    9.9172  -16.3693   28.6797 C   0  0  0  0  0  0  0  0  0  0  0  0
    9.6949  -16.2091   27.3358 C   0  0  0  0  0  0  0  0  0  0  0  0
    9.7644  -14.9722   26.6898 C   0  0  0  0  0  0  0  0  0  0  0  0
    9.5226  -14.8519   25.2324 C   0  0  0  0  0  0  0  0  0  0  0  0
   10.7419  -15.2115   24.4201 C   0  0  2  0  0  0  0  0  0  0  0  0
   10.4785  -15.1344   22.9958 N   0  0  0  0  0  0  0  0  0  0  0  0
   11.3074  -16.5359   24.7191 C   0  0  0  0  0  0  0  0  0  0  0  0
   10.7505  -17.5537   24.2460 O   0  0  0  0  0  0  0  0  0  0  0  0
   10.0745  -13.8951   27.4858 C   0  0  0  0  0  0  0  0  0  0  0  0
   10.3018  -14.0317   28.8382 C   0  0  0  0  0  0  0  0  0  0  0  0
   12.4338  -16.7422   25.5005 O   0  0  0  0  0  0  0  0  0  0  0  0
  2  1  1  6
  2  3  1  0
  2  4  1  0
  4  5  1  6
  6  4  1  0
  6  7  2  0
  9  8  1  6
  9 11  1  0
  9 10  1  0
 12 11  1  1
 12 13  1  0
 13  6  1  0
 14 12  1  0
 15 14  2  0
 16 17  1  0
 17 27  2  0
 17 18  1  0
 18 19  2  0
 19 20  1  0
 20 21  1  0
 22 21  1  1
 22 23  1  0
 22 24  1  0
 23 14  1  0
 24 28  1  0
 25 24  2  0
 26 20  2  0
 27 26  1  0
M  END
$$$$
