TLY.pdb
     RDKit          3D

 28 28  0  0  1  0  0  0  0  0999 V2000
    6.1978  -17.8641   23.0977 C   0  0  0  0  0  0  0  0  0  0  0  0
    6.5659  -17.1847   21.8217 C   0  0  1  0  0  0  0  0  0  0  0  0
    5.7958  -17.6271   20.7406 O   0  0  0  0  0  0  0  0  0  0  0  0
    6.4824  -15.6853   21.8652 C   0  0  2  0  0  0  0  0  0  0  0  0
    6.4755  -15.1138   20.5475 N   0  0  0  0  0  0  0  0  0  0  0  0
    7.4889  -15.0686   22.7508 C   0  0  0  0  0  0  0  0  0  0  0  0
    8.6887  -14.8990   22.4117 O   0  0  0  0  0  0  0  0  0  0  0  0
    5.6852  -11.5892   26.7745 C   0  0  0  0  0  0  0  0  0  0  0  0
    6.5561  -12.2252   25.7533 C   0  0  1  0  0  0  0  0  0  0  0  0
    7.5938  -11.1912   25.3223 C   0  0  0  0  0  0  0  0  0  0  0  0
    7.2701  -13.4528   26.1256 C   0  0  0  0  0  0  0  0  0  0  0  0
    8.0114  -14.1686   25.0419 C   0  0  2  0  0  0  0  0  0  0  0  0
    7.1039  -14.6490   24.0284 N   0  0  0  0  0  0  0  0  0  0  0  0
    8.9168  -15.2138   25.5658 C   0  0  0  0  0  0  0  0  0  0  0  0
    8.5476  -15.8771   26.5622 O   0  0  0  0  0  0  0  0  0  0  0  0
    7.8785  -20.2664   29.7269 O   0  0  0  0  0  0  0  0  0  0  0  0
    8.4514  -19.7127   28.5924 C   0  0  0  0  0  0  0  0  0  0  0  0
    9.8091  -19.5103   28.4787 C   0  0  0  0  0  0  0  0  0  0  0  0
   10.3125  -18.9578   27.3288 C   0  0  0  0  0  0  0  0  0  0  0  0
    9.5137  -18.5813   26.2461 C   0  0  0  0  0  0  0  0  0  0  0  0
   10.1053  -17.9810   25.0268 C   0  0  0  0  0  0  0  0  0  0  0  0
   10.9195  -16.7489   25.3348 C   0  0  2  0  0  0  0  0  0  0  0  0
   10.1903  -15.5339   25.0252 N   0  0  0  0  0  0  0  0  0  0  0  0
   12.2254  -16.6942   24.6603 C   0  0  0  0  0  0  0  0  0  0  0  0
   12.3418  -16.0063   23.6196 O   0  0  0  0  0  0  0  0  0  0  0  0
    8.1637  -18.7964   26.3919 C   0  0  0  0  0  0  0  0  0  0  0  0
    7.6351  -19.3502   27.5378 C   0  0  0  0  0  0  0  0  0  0  0  0
   13.3576  -17.3610   25.1026 O   0  0  0  0  0  0  0  0  0  0  0  0
  2  1  1  1
  2  3  1  0
  2  4  1  0
  4  5  1  6
  6  4  1  0
  6  7  2  0
  9  8  1  1
  9 11  1  0
  9 10  1  0
 12 11  1  1
 12 13  1  0
 13  6  1  0
 14 12  1  0
 15 14  2  0
 16 17  1  0
 17 27  2  0
 17 18  1  0
 18 19  2  0
 19 20  1  0
 20 21  1  0
 22 21  1  6
 22 23  1  0
 22 24  1  0
 23 14  1  0
 24 28  1  0
 25 24  2  0
 26 20  2  0
 27 26  1  0
M  END
$$$$
