TLY.pdb
     RDKit          3D

 28 28  0  0  1  0  0  0  0  0999 V2000
    6.3549  -17.7037   19.2354 C   0  0  0  0  0  0  0  0  0  0  0  0
    7.2226  -17.1631   20.3217 C   0  0  1  0  0  0  0  0  0  0  0  0
    8.4793  -17.7771   20.3556 O   0  0  0  0  0  0  0  0  0  0  0  0
    7.4360  -15.6768   20.2699 C   0  0  2  0  0  0  0  0  0  0  0  0
    7.9478  -15.2563   18.9954 N   0  0  0  0  0  0  0  0  0  0  0  0
    8.2274  -15.1595   21.4030 C   0  0  0  0  0  0  0  0  0  0  0  0
    9.4370  -14.8284   21.3001 O   0  0  0  0  0  0  0  0  0  0  0  0
    5.7750  -12.5699   26.0228 C   0  0  0  0  0  0  0  0  0  0  0  0
    6.7056  -12.9260   24.9214 C   0  0  1  0  0  0  0  0  0  0  0  0
    7.8429  -11.9071   24.9299 C   0  0  0  0  0  0  0  0  0  0  0  0
    7.3018  -14.2676   24.9304 C   0  0  0  0  0  0  0  0  0  0  0  0
    8.2880  -14.5855   23.8522 C   0  0  2  0  0  0  0  0  0  0  0  0
    7.6160  -15.0263   22.6540 N   0  0  0  0  0  0  0  0  0  0  0  0
    9.3501  -15.5087   24.3061 C   0  0  0  0  0  0  0  0  0  0  0  0
    9.1640  -16.7408   24.1767 O   0  0  0  0  0  0  0  0  0  0  0  0
    9.9701  -15.6037   31.3637 O   0  0  0  0  0  0  0  0  0  0  0  0
   10.5892  -15.5439   30.1247 C   0  0  0  0  0  0  0  0  0  0  0  0
   10.5166  -14.4285   29.3199 C   0  0  0  0  0  0  0  0  0  0  0  0
   11.1521  -14.4338   28.1045 C   0  0  0  0  0  0  0  0  0  0  0  0
   11.8822  -15.5249   27.6264 C   0  0  0  0  0  0  0  0  0  0  0  0
   12.5457  -15.4843   26.3017 C   0  0  0  0  0  0  0  0  0  0  0  0
   11.6626  -16.0247   25.2044 C   0  0  2  0  0  0  0  0  0  0  0  0
   10.5835  -15.1094   24.8856 N   0  0  0  0  0  0  0  0  0  0  0  0
   11.0851  -17.3490   25.4803 C   0  0  0  0  0  0  0  0  0  0  0  0
   11.8136  -18.3625   25.3717 O   0  0  0  0  0  0  0  0  0  0  0  0
   11.9347  -16.6217   28.4535 C   0  0  0  0  0  0  0  0  0  0  0  0
   11.3043  -16.6394   29.6789 C   0  0  0  0  0  0  0  0  0  0  0  0
    9.7684  -17.5595   25.8598 O   0  0  0  0  0  0  0  0  0  0  0  0
  2  1  1  6
  2  3  1  0
  2  4  1  0
  4  5  1  6
  6  4  1  0
  6  7  2  0
  9  8  1  1
  9 11  1  0
  9 10  1  0
 12 11  1  1
 12 13  1  0
 13  6  1  0
 14 12  1  0
 15 14  2  0
 16 17  1  0
 17 27  2  0
 17 18  1  0
 18 19  2  0
 19 20  1  0
 20 21  1  0
 22 21  1  1
 22 23  1  0
 22 24  1  0
 23 14  1  0
 24 28  1  0
 25 24  2  0
 26 20  2  0
 27 26  1  0
M  END
$$$$
