TLY.pdb
     RDKit          3D

 28 28  0  0  1  0  0  0  0  0999 V2000
    6.5494  -17.7433   20.5699 C   0  0  0  0  0  0  0  0  0  0  0  0
    7.3648  -17.0330   21.5974 C   0  0  1  0  0  0  0  0  0  0  0  0
    8.6276  -17.6107   21.7686 O   0  0  0  0  0  0  0  0  0  0  0  0
    7.5594  -15.5663   21.3367 C   0  0  2  0  0  0  0  0  0  0  0  0
    8.0206  -15.3198   19.9989 N   0  0  0  0  0  0  0  0  0  0  0  0
    8.3848  -14.8948   22.3591 C   0  0  0  0  0  0  0  0  0  0  0  0
    9.5594  -14.4996   22.1410 O   0  0  0  0  0  0  0  0  0  0  0  0
    5.4964  -12.3537   26.2582 C   0  0  0  0  0  0  0  0  0  0  0  0
    6.6014  -12.6782   25.3204 C   0  0  1  0  0  0  0  0  0  0  0  0
    7.2662  -11.3639   24.9173 C   0  0  0  0  0  0  0  0  0  0  0  0
    7.6528  -13.5916   25.7849 C   0  0  0  0  0  0  0  0  0  0  0  0
    8.5828  -14.1457   24.7532 C   0  0  2  0  0  0  0  0  0  0  0  0
    7.8481  -14.6816   23.6330 N   0  0  0  0  0  0  0  0  0  0  0  0
    9.5647  -15.0937   25.3221 C   0  0  0  0  0  0  0  0  0  0  0  0
    9.9005  -14.9558   26.5210 O   0  0  0  0  0  0  0  0  0  0  0  0
   11.4099  -14.7446   31.1564 O   0  0  0  0  0  0  0  0  0  0  0  0
   11.1952  -15.5093   30.0202 C   0  0  0  0  0  0  0  0  0  0  0  0
   11.2124  -16.8863   30.0470 C   0  0  0  0  0  0  0  0  0  0  0  0
   10.9924  -17.5842   28.8871 C   0  0  0  0  0  0  0  0  0  0  0  0
   10.7474  -16.9684   27.6571 C   0  0  0  0  0  0  0  0  0  0  0  0
   10.5224  -17.7674   26.4291 C   0  0  0  0  0  0  0  0  0  0  0  0
   11.1012  -17.1051   25.2034 C   0  0  2  0  0  0  0  0  0  0  0  0
   10.1686  -16.1649   24.6118 N   0  0  0  0  0  0  0  0  0  0  0  0
   11.5497  -18.0378   24.1583 C   0  0  0  0  0  0  0  0  0  0  0  0
   12.7646  -18.3374   24.0940 O   0  0  0  0  0  0  0  0  0  0  0  0
   10.7371  -15.5937   27.6648 C   0  0  0  0  0  0  0  0  0  0  0  0
   10.9554  -14.8713   28.8179 C   0  0  0  0  0  0  0  0  0  0  0  0
   10.7086  -18.6205   23.2229 O   0  0  0  0  0  0  0  0  0  0  0  0
  2  1  1  6
  2  3  1  0
  2  4  1  0
  4  5  1  6
  6  4  1  0
  6  7  2  0
  9  8  1  1
  9 11  1  0
  9 10  1  0
 12 11  1  1
 12 13  1  0
 13  6  1  0
 14 12  1  0
 15 14  2  0
 16 17  1  0
 17 27  2  0
 17 18  1  0
 18 19  2  0
 19 20  1  0
 20 21  1  0
 22 21  1  1
 22 23  1  0
 22 24  1  0
 23 14  1  0
 24 28  1  0
 25 24  2  0
 26 20  2  0
 27 26  1  0
M  END
$$$$
