TLY.pdb
     RDKit          3D

 28 28  0  0  1  0  0  0  0  0999 V2000
    6.7980  -17.5298   19.4585 C   0  0  0  0  0  0  0  0  0  0  0  0
    7.4384  -17.0884   20.7314 C   0  0  1  0  0  0  0  0  0  0  0  0
    8.3290  -18.0409   21.2385 O   0  0  0  0  0  0  0  0  0  0  0  0
    8.1658  -15.7768   20.6432 C   0  0  2  0  0  0  0  0  0  0  0  0
    9.1563  -15.7861   19.6031 N   0  0  0  0  0  0  0  0  0  0  0  0
    8.7014  -15.3165   21.9389 C   0  0  0  0  0  0  0  0  0  0  0  0
    9.9334  -15.2356   22.1820 O   0  0  0  0  0  0  0  0  0  0  0  0
    6.9436  -11.2586   26.1279 C   0  0  0  0  0  0  0  0  0  0  0  0
    7.6712  -12.5193   25.8326 C   0  0  1  0  0  0  0  0  0  0  0  0
    7.4117  -13.4838   26.9877 C   0  0  0  0  0  0  0  0  0  0  0  0
    7.3560  -13.2192   24.5811 C   0  0  0  0  0  0  0  0  0  0  0  0
    8.1973  -14.4044   24.2293 C   0  0  2  0  0  0  0  0  0  0  0  0
    7.8087  -14.9501   22.9515 N   0  0  0  0  0  0  0  0  0  0  0  0
    8.2431  -15.4114   25.3112 C   0  0  0  0  0  0  0  0  0  0  0  0
    7.7370  -15.1190   26.4192 O   0  0  0  0  0  0  0  0  0  0  0  0
   12.7564  -18.6754   20.2839 O   0  0  0  0  0  0  0  0  0  0  0  0
   12.3922  -18.1019   21.4923 C   0  0  0  0  0  0  0  0  0  0  0  0
   12.3411  -16.7373   21.6725 C   0  0  0  0  0  0  0  0  0  0  0  0
   11.9728  -16.2337   22.8938 C   0  0  0  0  0  0  0  0  0  0  0  0
   11.6404  -17.0391   23.9860 C   0  0  0  0  0  0  0  0  0  0  0  0
   11.2553  -16.4462   25.2888 C   0  0  0  0  0  0  0  0  0  0  0  0
   10.0358  -17.1096   25.8794 C   0  0  2  0  0  0  0  0  0  0  0  0
    8.8219  -16.7031   25.1974 N   0  0  0  0  0  0  0  0  0  0  0  0
    9.8571  -16.8876   27.3223 C   0  0  0  0  0  0  0  0  0  0  0  0
   10.7865  -17.1984   28.1031 O   0  0  0  0  0  0  0  0  0  0  0  0
   11.7017  -18.3958   23.7730 C   0  0  0  0  0  0  0  0  0  0  0  0
   12.0689  -18.9248   22.5546 C   0  0  0  0  0  0  0  0  0  0  0  0
    8.7132  -16.3484   27.8905 O   0  0  0  0  0  0  0  0  0  0  0  0
  2  1  1  6
  2  3  1  0
  2  4  1  0
  4  5  1  6
  6  4  1  0
  6  7  2  0
  9  8  1  1
  9 11  1  0
  9 10  1  0
 12 11  1  1
 12 13  1  0
 13  6  1  0
 14 12  1  0
 15 14  2  0
 16 17  1  0
 17 27  2  0
 17 18  1  0
 18 19  2  0
 19 20  1  0
 20 21  1  0
 22 21  1  6
 22 23  1  0
 22 24  1  0
 23 14  1  0
 24 28  1  0
 25 24  2  0
 26 20  2  0
 27 26  1  0
M  END
$$$$
