TLY.pdb
     RDKit          3D

 28 28  0  0  1  0  0  0  0  0999 V2000
    7.4533  -18.4346   20.4424 C   0  0  0  0  0  0  0  0  0  0  0  0
    7.8596  -17.4877   21.5211 C   0  0  1  0  0  0  0  0  0  0  0  0
    9.0474  -17.8748   22.1509 O   0  0  0  0  0  0  0  0  0  0  0  0
    8.0170  -16.0619   21.0746 C   0  0  2  0  0  0  0  0  0  0  0  0
    8.8251  -15.9604   19.8915 N   0  0  0  0  0  0  0  0  0  0  0  0
    8.4637  -15.1574   22.1517 C   0  0  0  0  0  0  0  0  0  0  0  0
    9.6496  -14.7502   22.2575 O   0  0  0  0  0  0  0  0  0  0  0  0
    7.1497  -10.9969   25.6706 C   0  0  0  0  0  0  0  0  0  0  0  0
    6.6903  -12.3837   25.9381 C   0  0  1  0  0  0  0  0  0  0  0  0
    5.3307  -12.2950   26.6278 C   0  0  0  0  0  0  0  0  0  0  0  0
    6.5582  -13.2975   24.7966 C   0  0  0  0  0  0  0  0  0  0  0  0
    7.8208  -13.7822   24.1585 C   0  0  2  0  0  0  0  0  0  0  0  0
    7.5356  -14.7256   23.1049 N   0  0  0  0  0  0  0  0  0  0  0  0
    8.8030  -14.2798   25.1455 C   0  0  0  0  0  0  0  0  0  0  0  0
    8.8208  -13.7573   26.2839 O   0  0  0  0  0  0  0  0  0  0  0  0
   12.3632  -17.3506   31.9277 O   0  0  0  0  0  0  0  0  0  0  0  0
   11.6738  -17.1721   30.7382 C   0  0  0  0  0  0  0  0  0  0  0  0
   10.9754  -18.1935   30.1332 C   0  0  0  0  0  0  0  0  0  0  0  0
   10.3140  -17.9508   28.9564 C   0  0  0  0  0  0  0  0  0  0  0  0
   10.3074  -16.7050   28.3241 C   0  0  0  0  0  0  0  0  0  0  0  0
    9.5826  -16.4948   27.0483 C   0  0  0  0  0  0  0  0  0  0  0  0
   10.4894  -15.9898   25.9534 C   0  0  2  0  0  0  0  0  0  0  0  0
    9.7428  -15.3174   24.9073 N   0  0  0  0  0  0  0  0  0  0  0  0
   11.3343  -17.0222   25.3340 C   0  0  0  0  0  0  0  0  0  0  0  0
   12.2424  -17.5517   26.0158 O   0  0  0  0  0  0  0  0  0  0  0  0
   11.0138  -15.7078   28.9535 C   0  0  0  0  0  0  0  0  0  0  0  0
   11.6859  -15.9280   30.1364 C   0  0  0  0  0  0  0  0  0  0  0  0
   11.1943  -17.4599   24.0260 O   0  0  0  0  0  0  0  0  0  0  0  0
  2  1  1  6
  2  3  1  0
  2  4  1  0
  4  5  1  6
  6  4  1  0
  6  7  2  0
  9  8  1  6
  9 11  1  0
  9 10  1  0
 12 11  1  1
 12 13  1  0
 13  6  1  0
 14 12  1  0
 15 14  2  0
 16 17  1  0
 17 27  2  0
 17 18  1  0
 18 19  2  0
 19 20  1  0
 20 21  1  0
 22 21  1  1
 22 23  1  0
 22 24  1  0
 23 14  1  0
 24 28  1  0
 25 24  2  0
 26 20  2  0
 27 26  1  0
M  END
$$$$
