KET.pdb
     RDKit          3D

 26 25  0  0  1  0  0  0  0  0999 V2000
    6.4785  -16.6138   21.2756 N   0  0  0  0  0  0  0  0  0  0  0  0
    7.5475  -15.7695   21.7145 C   0  0  1  0  0  0  0  0  0  0  0  0
    6.9937  -14.3440   21.8656 C   0  0  0  0  0  0  0  0  0  0  0  0
    7.0556  -13.7271   20.5102 C   0  0  0  0  0  0  0  0  0  0  0  0
    8.4073  -13.3621   20.0132 C   0  0  0  0  0  0  0  0  0  0  0  0
    8.4552  -12.5663   18.7564 C   0  0  0  0  0  0  0  0  0  0  0  0
    9.7708  -12.2501   18.2924 N   0  0  0  0  0  0  0  0  0  0  0  0
    8.1366  -16.2161   23.0044 C   0  0  0  0  0  0  0  0  0  0  0  0
    7.4006  -16.3521   24.0125 O   0  0  0  0  0  0  0  0  0  0  0  0
    9.5055  -16.4923   23.1272 N   0  0  0  0  0  0  0  0  0  0  0  0
   10.1443  -16.9650   24.3316 C   0  0  1  0  0  0  0  0  0  0  0  0
   11.4386  -17.7025   24.0200 C   0  0  0  0  0  0  0  0  0  0  0  0
   12.0465  -18.2908   25.2753 C   0  0  0  0  0  0  0  0  0  0  0  0
   13.3422  -18.9301   24.9364 C   0  0  0  0  0  0  0  0  0  0  0  0
   14.1351  -18.3824   24.1056 O   0  0  0  0  0  0  0  0  0  0  0  0
   10.3993  -15.8464   25.2858 C   0  0  0  0  0  0  0  0  0  0  0  0
   11.0001  -14.8134   24.8953 O   0  0  0  0  0  0  0  0  0  0  0  0
   13.7336  -20.1216   25.4970 O   0  0  0  0  0  0  0  0  0  0  0  0
    8.5115  -13.3514   26.5924 C   0  0  0  0  0  0  0  0  0  0  0  0
    8.8963  -14.1284   27.8247 C   0  0  1  0  0  0  0  0  0  0  0  0
    7.8600  -14.9673   28.1662 O   0  0  0  0  0  0  0  0  0  0  0  0
   10.1826  -14.9082   27.5736 C   0  0  2  0  0  0  0  0  0  0  0  0
    9.9509  -15.9762   26.6332 N   0  0  0  0  0  0  0  0  0  0  0  0
   10.7369  -15.4544   28.8217 C   0  0  0  0  0  0  0  0  0  0  0  0
   10.9347  -16.8121   28.9694 O   0  0  0  0  0  0  0  0  0  0  0  0
   11.0464  -14.7083   29.7876 O   0  0  0  0  0  0  0  0  0  0  0  0
  2  1  1  1
  2  3  1  0
  3  4  1  0
  5  6  1  0
  5  4  1  0
  7  6  1  0
  8  2  1  0
  9  8  2  0
 10  8  1  0
 11 10  1  0
 11 12  1  6
 13 12  1  0
 14 18  1  0
 14 13  1  0
 15 14  2  0
 16 11  1  0
 16 17  2  0
 20 19  1  6
 20 22  1  0
 20 21  1  0
 22 23  1  6
 23 16  1  0
 24 22  1  0
 25 24  1  0
 26 24  2  0
M  END
$$$$
