KET.pdb
     RDKit          3D

 26 25  0  0  1  0  0  0  0  0999 V2000
    7.2360  -17.3619   20.0614 N   0  0  0  0  0  0  0  0  0  0  0  0
    8.1719  -16.4572   20.6563 C   0  0  1  0  0  0  0  0  0  0  0  0
    7.8271  -15.0376   20.1794 C   0  0  0  0  0  0  0  0  0  0  0  0
    8.1091  -15.0096   18.7161 C   0  0  0  0  0  0  0  0  0  0  0  0
    7.8810  -13.7140   18.0256 C   0  0  0  0  0  0  0  0  0  0  0  0
    8.2443  -13.6626   16.5832 C   0  0  0  0  0  0  0  0  0  0  0  0
    8.1225  -12.3732   15.9760 N   0  0  0  0  0  0  0  0  0  0  0  0
    8.1484  -16.5047   22.1420 C   0  0  0  0  0  0  0  0  0  0  0  0
    7.0619  -16.6906   22.7432 O   0  0  0  0  0  0  0  0  0  0  0  0
    9.3183  -16.3461   22.8980 N   0  0  0  0  0  0  0  0  0  0  0  0
    9.3930  -16.4710   24.3336 C   0  0  1  0  0  0  0  0  0  0  0  0
   10.6391  -17.2338   24.7597 C   0  0  0  0  0  0  0  0  0  0  0  0
   11.3909  -17.7646   23.5579 C   0  0  0  0  0  0  0  0  0  0  0  0
   12.5811  -18.5201   24.0217 C   0  0  0  0  0  0  0  0  0  0  0  0
   12.4532  -19.4950   24.8292 O   0  0  0  0  0  0  0  0  0  0  0  0
    9.3478  -15.1355   24.9978 C   0  0  0  0  0  0  0  0  0  0  0  0
   10.0676  -14.1975   24.5704 O   0  0  0  0  0  0  0  0  0  0  0  0
   13.8512  -18.2033   23.6049 O   0  0  0  0  0  0  0  0  0  0  0  0
    6.7826  -12.6906   25.0995 C   0  0  0  0  0  0  0  0  0  0  0  0
    6.9846  -13.0738   26.5427 C   0  0  1  0  0  0  0  0  0  0  0  0
    6.0085  -13.9729   26.9076 O   0  0  0  0  0  0  0  0  0  0  0  0
    8.3796  -13.6572   26.7410 C   0  0  2  0  0  0  0  0  0  0  0  0
    8.4798  -14.9518   26.1142 N   0  0  0  0  0  0  0  0  0  0  0  0
    8.7232  -13.7658   28.1669 C   0  0  0  0  0  0  0  0  0  0  0  0
    9.0584  -14.9850   28.7195 O   0  0  0  0  0  0  0  0  0  0  0  0
    8.7230  -12.7593   28.9236 O   0  0  0  0  0  0  0  0  0  0  0  0
  2  1  1  6
  2  3  1  0
  3  4  1  0
  5  6  1  0
  5  4  1  0
  7  6  1  0
  8  2  1  0
  9  8  2  0
 10  8  1  0
 11 10  1  0
 11 12  1  6
 13 12  1  0
 14 18  1  0
 14 13  1  0
 15 14  2  0
 16 11  1  0
 16 17  2  0
 20 19  1  6
 20 22  1  0
 20 21  1  0
 22 23  1  1
 23 16  1  0
 24 22  1  0
 25 24  1  0
 26 24  2  0
M  END
$$$$
