KET.pdb
     RDKit          3D

 26 25  0  0  1  0  0  0  0  0999 V2000
    6.9770  -17.3092   20.3543 N   0  0  0  0  0  0  0  0  0  0  0  0
    8.0526  -16.4223   20.6780 C   0  0  1  0  0  0  0  0  0  0  0  0
    7.4449  -15.0794   21.1124 C   0  0  0  0  0  0  0  0  0  0  0  0
    7.0388  -14.3812   19.8597 C   0  0  0  0  0  0  0  0  0  0  0  0
    8.0626  -13.5074   19.2307 C   0  0  0  0  0  0  0  0  0  0  0  0
    7.6469  -12.7881   17.9958 C   0  0  0  0  0  0  0  0  0  0  0  0
    8.6768  -12.0161   17.3717 N   0  0  0  0  0  0  0  0  0  0  0  0
    8.9233  -16.9505   21.7612 C   0  0  0  0  0  0  0  0  0  0  0  0
    8.4195  -17.6213   22.6953 O   0  0  0  0  0  0  0  0  0  0  0  0
   10.3057  -16.7176   21.7682 N   0  0  0  0  0  0  0  0  0  0  0  0
   11.2038  -17.1297   22.8197 C   0  0  1  0  0  0  0  0  0  0  0  0
   12.6349  -16.7037   22.5254 C   0  0  0  0  0  0  0  0  0  0  0  0
   13.5694  -17.1266   23.6385 C   0  0  0  0  0  0  0  0  0  0  0  0
   14.9620  -16.7731   23.2670 C   0  0  0  0  0  0  0  0  0  0  0  0
   15.5203  -15.7417   23.7603 O   0  0  0  0  0  0  0  0  0  0  0  0
   10.7660  -16.6023   24.1453 C   0  0  0  0  0  0  0  0  0  0  0  0
   11.0531  -15.4243   24.4777 O   0  0  0  0  0  0  0  0  0  0  0  0
   15.6954  -17.5331   22.3885 O   0  0  0  0  0  0  0  0  0  0  0  0
    7.7805  -15.5576   25.5543 C   0  0  0  0  0  0  0  0  0  0  0  0
    8.1517  -16.7446   26.4050 C   0  0  1  0  0  0  0  0  0  0  0  0
    7.4379  -17.8413   25.9785 O   0  0  0  0  0  0  0  0  0  0  0  0
    9.6540  -16.9958   26.3294 C   0  0  2  0  0  0  0  0  0  0  0  0
   10.0240  -17.4557   25.0139 N   0  0  0  0  0  0  0  0  0  0  0  0
   10.0914  -17.9711   27.3397 C   0  0  0  0  0  0  0  0  0  0  0  0
    9.9382  -17.7074   28.6855 O   0  0  0  0  0  0  0  0  0  0  0  0
   10.6152  -19.0686   27.0131 O   0  0  0  0  0  0  0  0  0  0  0  0
  2  1  1  1
  2  3  1  0
  3  4  1  0
  5  6  1  0
  5  4  1  0
  7  6  1  0
  8  2  1  0
  9  8  2  0
 10  8  1  0
 11 10  1  0
 11 12  1  6
 13 12  1  0
 14 18  1  0
 14 13  1  0
 15 14  2  0
 16 11  1  0
 16 17  2  0
 20 19  1  6
 20 22  1  0
 20 21  1  0
 22 23  1  6
 23 16  1  0
 24 22  1  0
 25 24  1  0
 26 24  2  0
M  END
$$$$
