KET.pdb
     RDKit          3D

 26 25  0  0  1  0  0  0  0  0999 V2000
    7.7770  -17.8896   19.0984 N   0  0  0  0  0  0  0  0  0  0  0  0
    8.9078  -17.0570   19.3747 C   0  0  1  0  0  0  0  0  0  0  0  0
    8.4527  -15.5925   19.2776 C   0  0  0  0  0  0  0  0  0  0  0  0
    8.3034  -15.2980   17.8241 C   0  0  0  0  0  0  0  0  0  0  0  0
    7.8721  -13.9206   17.4716 C   0  0  0  0  0  0  0  0  0  0  0  0
    7.7125  -13.6307   16.0205 C   0  0  0  0  0  0  0  0  0  0  0  0
    7.1645  -12.3443   15.7191 N   0  0  0  0  0  0  0  0  0  0  0  0
    9.4908  -17.3111   20.7185 C   0  0  0  0  0  0  0  0  0  0  0  0
    8.7467  -17.6724   21.6631 O   0  0  0  0  0  0  0  0  0  0  0  0
   10.8626  -17.1569   20.9624 N   0  0  0  0  0  0  0  0  0  0  0  0
   11.5175  -17.4761   22.2079 C   0  0  1  0  0  0  0  0  0  0  0  0
   13.0309  -17.3791   22.0795 C   0  0  0  0  0  0  0  0  0  0  0  0
   13.7131  -17.7510   23.3786 C   0  0  0  0  0  0  0  0  0  0  0  0
   15.1836  -17.6602   23.2007 C   0  0  0  0  0  0  0  0  0  0  0  0
   15.9692  -18.2719   23.9928 O   0  0  0  0  0  0  0  0  0  0  0  0
   11.0321  -16.6024   23.3160 C   0  0  0  0  0  0  0  0  0  0  0  0
   11.4670  -15.4278   23.4252 O   0  0  0  0  0  0  0  0  0  0  0  0
   15.7494  -16.9231   22.1889 O   0  0  0  0  0  0  0  0  0  0  0  0
    8.0567  -14.9447   24.0884 C   0  0  0  0  0  0  0  0  0  0  0  0
    8.2080  -15.9147   25.2315 C   0  0  1  0  0  0  0  0  0  0  0  0
    7.3905  -16.9994   25.0090 O   0  0  0  0  0  0  0  0  0  0  0  0
    9.6665  -16.3379   25.3718 C   0  0  2  0  0  0  0  0  0  0  0  0
   10.0759  -17.1252   24.2355 N   0  0  0  0  0  0  0  0  0  0  0  0
    9.8933  -17.0961   26.6115 C   0  0  0  0  0  0  0  0  0  0  0  0
   10.3899  -18.3828   26.5689 O   0  0  0  0  0  0  0  0  0  0  0  0
    9.6441  -16.6008   27.7421 O   0  0  0  0  0  0  0  0  0  0  0  0
  2  1  1  1
  2  3  1  0
  3  4  1  0
  5  6  1  0
  5  4  1  0
  7  6  1  0
  8  2  1  0
  9  8  2  0
 10  8  1  0
 11 10  1  0
 11 12  1  6
 13 12  1  0
 14 18  1  0
 14 13  1  0
 15 14  2  0
 16 11  1  0
 16 17  2  0
 20 19  1  6
 20 22  1  0
 20 21  1  0
 22 23  1  6
 23 16  1  0
 24 22  1  0
 25 24  1  0
 26 24  2  0
M  END
$$$$
