KET.pdb
     RDKit          3D

 26 25  0  0  1  0  0  0  0  0999 V2000
    6.6168  -16.4924   19.9460 N   0  0  0  0  0  0  0  0  0  0  0  0
    7.8284  -15.7924   20.2467 C   0  0  1  0  0  0  0  0  0  0  0  0
    7.4618  -14.3439   20.6058 C   0  0  0  0  0  0  0  0  0  0  0  0
    7.0766  -13.6823   19.3269 C   0  0  0  0  0  0  0  0  0  0  0  0
    8.0916  -13.7032   18.2421 C   0  0  0  0  0  0  0  0  0  0  0  0
    7.7628  -12.9257   17.0164 C   0  0  0  0  0  0  0  0  0  0  0  0
    8.7461  -12.9899   15.9795 N   0  0  0  0  0  0  0  0  0  0  0  0
    8.5824  -16.4100   21.3693 C   0  0  0  0  0  0  0  0  0  0  0  0
    7.9608  -16.8918   22.3480 O   0  0  0  0  0  0  0  0  0  0  0  0
    9.9830  -16.4698   21.3651 N   0  0  0  0  0  0  0  0  0  0  0  0
   10.7824  -17.0998   22.3879 C   0  0  1  0  0  0  0  0  0  0  0  0
   12.2642  -17.0469   22.0447 C   0  0  0  0  0  0  0  0  0  0  0  0
   13.0850  -17.8237   23.0518 C   0  0  0  0  0  0  0  0  0  0  0  0
   14.5088  -17.8122   22.6334 C   0  0  0  0  0  0  0  0  0  0  0  0
   15.2628  -18.8068   22.8804 O   0  0  0  0  0  0  0  0  0  0  0  0
   10.5356  -16.4852   23.7251 C   0  0  0  0  0  0  0  0  0  0  0  0
   11.1351  -15.4291   24.0504 O   0  0  0  0  0  0  0  0  0  0  0  0
   15.0636  -16.7435   21.9721 O   0  0  0  0  0  0  0  0  0  0  0  0
    7.5497  -15.0420   25.1980 C   0  0  0  0  0  0  0  0  0  0  0  0
    7.9097  -16.1987   26.0940 C   0  0  1  0  0  0  0  0  0  0  0  0
    7.0942  -17.2665   25.7953 O   0  0  0  0  0  0  0  0  0  0  0  0
    9.3816  -16.5585   25.9216 C   0  0  2  0  0  0  0  0  0  0  0  0
    9.6156  -17.1166   24.6129 N   0  0  0  0  0  0  0  0  0  0  0  0
    9.8325  -17.5036   26.9544 C   0  0  0  0  0  0  0  0  0  0  0  0
    9.7851  -17.1618   28.2905 O   0  0  0  0  0  0  0  0  0  0  0  0
   10.2727  -18.6451   26.6565 O   0  0  0  0  0  0  0  0  0  0  0  0
  2  1  1  1
  2  3  1  0
  3  4  1  0
  5  6  1  0
  5  4  1  0
  7  6  1  0
  8  2  1  0
  9  8  2  0
 10  8  1  0
 11 10  1  0
 11 12  1  6
 13 12  1  0
 14 18  1  0
 14 13  1  0
 15 14  2  0
 16 11  1  0
 16 17  2  0
 20 19  1  6
 20 22  1  0
 20 21  1  0
 22 23  1  6
 23 16  1  0
 24 22  1  0
 25 24  1  0
 26 24  2  0
M  END
$$$$
