KET.pdb
     RDKit          3D

 26 25  0  0  1  0  0  0  0  0999 V2000
    6.3479  -15.7023   20.5303 N   0  0  0  0  0  0  0  0  0  0  0  0
    7.5945  -15.1604   20.9782 C   0  0  1  0  0  0  0  0  0  0  0  0
    7.5031  -13.6288   20.8934 C   0  0  0  0  0  0  0  0  0  0  0  0
    7.3805  -13.2982   19.4452 C   0  0  0  0  0  0  0  0  0  0  0  0
    8.4068  -13.8859   18.5458 C   0  0  0  0  0  0  0  0  0  0  0  0
    8.2915  -13.5444   17.1018 C   0  0  0  0  0  0  0  0  0  0  0  0
    9.2236  -14.2133   16.2475 N   0  0  0  0  0  0  0  0  0  0  0  0
    7.9271  -15.5649   22.3697 C   0  0  0  0  0  0  0  0  0  0  0  0
    7.0292  -15.5775   23.2472 O   0  0  0  0  0  0  0  0  0  0  0  0
    9.2293  -15.9363   22.7325 N   0  0  0  0  0  0  0  0  0  0  0  0
    9.6056  -16.4598   24.0234 C   0  0  1  0  0  0  0  0  0  0  0  0
   10.8169  -17.3753   23.9189 C   0  0  0  0  0  0  0  0  0  0  0  0
   11.2013  -17.9275   25.2749 C   0  0  0  0  0  0  0  0  0  0  0  0
   12.3568  -18.8454   25.1180 C   0  0  0  0  0  0  0  0  0  0  0  0
   12.7185  -19.2372   23.9627 O   0  0  0  0  0  0  0  0  0  0  0  0
    9.8660  -15.3615   24.9996 C   0  0  0  0  0  0  0  0  0  0  0  0
   10.7113  -14.4706   24.7309 O   0  0  0  0  0  0  0  0  0  0  0  0
   13.0733  -19.3034   26.1969 O   0  0  0  0  0  0  0  0  0  0  0  0
    8.1257  -12.5171   26.1430 C   0  0  0  0  0  0  0  0  0  0  0  0
    8.2480  -13.3861   27.3679 C   0  0  1  0  0  0  0  0  0  0  0  0
    7.0685  -14.0719   27.5493 O   0  0  0  0  0  0  0  0  0  0  0  0
    9.4283  -14.3403   27.2193 C   0  0  2  0  0  0  0  0  0  0  0  0
    9.1422  -15.3476   26.2282 N   0  0  0  0  0  0  0  0  0  0  0  0
    9.7700  -14.9819   28.4979 C   0  0  0  0  0  0  0  0  0  0  0  0
    9.7308  -16.3549   28.6293 O   0  0  0  0  0  0  0  0  0  0  0  0
   10.1066  -14.3058   29.5055 O   0  0  0  0  0  0  0  0  0  0  0  0
  2  1  1  1
  2  3  1  0
  3  4  1  0
  5  6  1  0
  5  4  1  0
  7  6  1  0
  8  2  1  0
  9  8  2  0
 10  8  1  0
 11 10  1  0
 11 12  1  6
 13 12  1  0
 14 18  1  0
 14 13  1  0
 15 14  2  0
 16 11  1  0
 16 17  2  0
 20 19  1  6
 20 22  1  0
 20 21  1  0
 22 23  1  6
 23 16  1  0
 24 22  1  0
 25 24  1  0
 26 24  2  0
M  END
$$$$
