KET.pdb
     RDKit          3D

 26 25  0  0  1  0  0  0  0  0999 V2000
    8.4512  -17.6880   18.5578 N   0  0  0  0  0  0  0  0  0  0  0  0
    9.0381  -16.7269   19.4410 C   0  0  1  0  0  0  0  0  0  0  0  0
    7.9945  -15.6315   19.7101 C   0  0  0  0  0  0  0  0  0  0  0  0
    7.7353  -14.9717   18.3990 C   0  0  0  0  0  0  0  0  0  0  0  0
    8.3194  -13.6180   18.2155 C   0  0  0  0  0  0  0  0  0  0  0  0
    7.9562  -12.9079   16.9589 C   0  0  0  0  0  0  0  0  0  0  0  0
    6.6286  -13.1560   16.4879 N   0  0  0  0  0  0  0  0  0  0  0  0
    9.4768  -17.3264   20.7289 C   0  0  0  0  0  0  0  0  0  0  0  0
    8.7013  -18.0860   21.3597 O   0  0  0  0  0  0  0  0  0  0  0  0
   10.7458  -17.0639   21.2637 N   0  0  0  0  0  0  0  0  0  0  0  0
   11.2325  -17.5828   22.5191 C   0  0  1  0  0  0  0  0  0  0  0  0
   12.7402  -17.7880   22.4871 C   0  0  0  0  0  0  0  0  0  0  0  0
   13.1165  -18.9210   21.5566 C   0  0  0  0  0  0  0  0  0  0  0  0
   14.5947  -18.9896   21.4444 C   0  0  0  0  0  0  0  0  0  0  0  0
   15.1726  -18.7172   20.3440 O   0  0  0  0  0  0  0  0  0  0  0  0
   10.8520  -16.6959   23.6572 C   0  0  0  0  0  0  0  0  0  0  0  0
   11.4257  -15.5873   23.8077 O   0  0  0  0  0  0  0  0  0  0  0  0
   15.3888  -19.3447   22.5077 O   0  0  0  0  0  0  0  0  0  0  0  0
    7.9471  -14.8327   24.3360 C   0  0  0  0  0  0  0  0  0  0  0  0
    8.0232  -15.7940   25.4937 C   0  0  1  0  0  0  0  0  0  0  0  0
    7.1520  -16.8354   25.2684 O   0  0  0  0  0  0  0  0  0  0  0  0
    9.4534  -16.2941   25.6682 C   0  0  2  0  0  0  0  0  0  0  0  0
    9.8354  -17.1306   24.5577 N   0  0  0  0  0  0  0  0  0  0  0  0
    9.6184  -17.0332   26.9290 C   0  0  0  0  0  0  0  0  0  0  0  0
    9.3201  -16.4386   28.1379 O   0  0  0  0  0  0  0  0  0  0  0  0
   10.0336  -18.2219   26.9467 O   0  0  0  0  0  0  0  0  0  0  0  0
  2  1  1  6
  2  3  1  0
  3  4  1  0
  5  6  1  0
  5  4  1  0
  7  6  1  0
  8  2  1  0
  9  8  2  0
 10  8  1  0
 11 10  1  0
 11 12  1  6
 13 12  1  0
 14 18  1  0
 14 13  1  0
 15 14  2  0
 16 11  1  0
 16 17  2  0
 20 19  1  6
 20 22  1  0
 20 21  1  0
 22 23  1  6
 23 16  1  0
 24 22  1  0
 25 24  1  0
 26 24  2  0
M  END
$$$$
