KET.pdb
     RDKit          3D

 26 25  0  0  1  0  0  0  0  0999 V2000
    6.1258  -16.6862   21.3316 N   0  0  0  0  0  0  0  0  0  0  0  0
    7.4664  -16.2221   21.5202 C   0  0  1  0  0  0  0  0  0  0  0  0
    7.4963  -14.7189   21.2026 C   0  0  0  0  0  0  0  0  0  0  0  0
    7.8642  -14.6045   19.7627 C   0  0  0  0  0  0  0  0  0  0  0  0
    8.0293  -13.2266   19.2321 C   0  0  0  0  0  0  0  0  0  0  0  0
    8.2558  -13.1073   17.7660 C   0  0  0  0  0  0  0  0  0  0  0  0
    8.2326  -11.7700   17.2588 N   0  0  0  0  0  0  0  0  0  0  0  0
    7.9616  -16.4505   22.9033 C   0  0  0  0  0  0  0  0  0  0  0  0
    7.1676  -16.3658   23.8722 O   0  0  0  0  0  0  0  0  0  0  0  0
    9.3047  -16.7612   23.1579 N   0  0  0  0  0  0  0  0  0  0  0  0
    9.8541  -17.0258   24.4656 C   0  0  1  0  0  0  0  0  0  0  0  0
   11.1751  -17.7755   24.3709 C   0  0  0  0  0  0  0  0  0  0  0  0
   11.7454  -18.0509   25.7458 C   0  0  0  0  0  0  0  0  0  0  0  0
   13.0211  -18.7957   25.6045 C   0  0  0  0  0  0  0  0  0  0  0  0
   13.0235  -20.0663   25.5381 O   0  0  0  0  0  0  0  0  0  0  0  0
   10.0253  -15.7664   25.2475 C   0  0  0  0  0  0  0  0  0  0  0  0
   10.7408  -14.8380   24.7927 O   0  0  0  0  0  0  0  0  0  0  0  0
   14.2343  -18.1543   25.5405 O   0  0  0  0  0  0  0  0  0  0  0  0
    8.0436  -13.0092   25.9856 C   0  0  0  0  0  0  0  0  0  0  0  0
    8.2963  -13.6174   27.3408 C   0  0  1  0  0  0  0  0  0  0  0  0
    7.2024  -14.3692   27.7047 O   0  0  0  0  0  0  0  0  0  0  0  0
    9.5654  -14.4624   27.3090 C   0  0  2  0  0  0  0  0  0  0  0  0
    9.3664  -15.6433   26.5061 N   0  0  0  0  0  0  0  0  0  0  0  0
    9.9943  -14.8463   28.6625 C   0  0  0  0  0  0  0  0  0  0  0  0
   10.3203  -13.8848   29.5970 O   0  0  0  0  0  0  0  0  0  0  0  0
   10.0775  -16.0537   29.0100 O   0  0  0  0  0  0  0  0  0  0  0  0
  2  1  1  1
  2  3  1  0
  3  4  1  0
  5  6  1  0
  5  4  1  0
  7  6  1  0
  8  2  1  0
  9  8  2  0
 10  8  1  0
 11 10  1  0
 11 12  1  6
 13 12  1  0
 14 18  1  0
 14 13  1  0
 15 14  2  0
 16 11  1  0
 16 17  2  0
 20 19  1  6
 20 22  1  0
 20 21  1  0
 22 23  1  6
 23 16  1  0
 24 22  1  0
 25 24  1  0
 26 24  2  0
M  END
$$$$
