KET.pdb
     RDKit          3D

 26 25  0  0  1  0  0  0  0  0999 V2000
    9.1551  -16.7203   18.5992 N   0  0  0  0  0  0  0  0  0  0  0  0
    9.2099  -15.6272   19.5214 C   0  0  1  0  0  0  0  0  0  0  0  0
    8.3373  -14.4922   18.9630 C   0  0  0  0  0  0  0  0  0  0  0  0
    8.3559  -14.6432   17.4803 C   0  0  0  0  0  0  0  0  0  0  0  0
    7.6069  -13.6213   16.7043 C   0  0  0  0  0  0  0  0  0  0  0  0
    7.7439  -13.6864   15.2237 C   0  0  0  0  0  0  0  0  0  0  0  0
    7.1240  -12.6112   14.5127 N   0  0  0  0  0  0  0  0  0  0  0  0
    8.7351  -16.0005   20.8799 C   0  0  0  0  0  0  0  0  0  0  0  0
    7.5379  -16.3376   21.0516 O   0  0  0  0  0  0  0  0  0  0  0  0
    9.5965  -15.9862   21.9859 N   0  0  0  0  0  0  0  0  0  0  0  0
    9.2274  -16.3903   23.3210 C   0  0  1  0  0  0  0  0  0  0  0  0
   10.0858  -17.5492   23.8069 C   0  0  0  0  0  0  0  0  0  0  0  0
   11.5589  -17.2140   23.7113 C   0  0  0  0  0  0  0  0  0  0  0  0
   12.3557  -18.3916   24.1361 C   0  0  0  0  0  0  0  0  0  0  0  0
   12.6740  -18.5498   25.3578 O   0  0  0  0  0  0  0  0  0  0  0  0
    9.3081  -15.2466   24.2761 C   0  0  0  0  0  0  0  0  0  0  0  0
   10.2776  -14.4481   24.2183 O   0  0  0  0  0  0  0  0  0  0  0  0
   12.7765  -19.3457   23.2417 O   0  0  0  0  0  0  0  0  0  0  0  0
    7.0539  -12.3179   24.8882 C   0  0  0  0  0  0  0  0  0  0  0  0
    7.0660  -13.1621   26.1362 C   0  0  1  0  0  0  0  0  0  0  0  0
    5.9422  -13.9566   26.1498 O   0  0  0  0  0  0  0  0  0  0  0  0
    8.3393  -13.9997   26.1914 C   0  0  2  0  0  0  0  0  0  0  0  0
    8.2727  -15.0836   25.2429 N   0  0  0  0  0  0  0  0  0  0  0  0
    8.5787  -14.5325   27.5412 C   0  0  0  0  0  0  0  0  0  0  0  0
    8.7054  -13.6829   28.6212 O   0  0  0  0  0  0  0  0  0  0  0  0
    8.6752  -15.7698   27.7540 O   0  0  0  0  0  0  0  0  0  0  0  0
  2  1  1  6
  2  3  1  0
  3  4  1  0
  5  6  1  0
  5  4  1  0
  7  6  1  0
  8  2  1  0
  9  8  2  0
 10  8  1  0
 11 10  1  0
 11 12  1  1
 13 12  1  0
 14 18  1  0
 14 13  1  0
 15 14  2  0
 16 11  1  0
 16 17  2  0
 20 19  1  6
 20 22  1  0
 20 21  1  0
 22 23  1  6
 23 16  1  0
 24 22  1  0
 25 24  1  0
 26 24  2  0
M  END
$$$$
