KET.pdb
     RDKit          3D

 26 25  0  0  1  0  0  0  0  0999 V2000
    9.9443  -15.6651   17.9306 N   0  0  0  0  0  0  0  0  0  0  0  0
   10.8658  -15.3472   18.9784 C   0  0  1  0  0  0  0  0  0  0  0  0
   10.6432  -13.8796   19.3760 C   0  0  0  0  0  0  0  0  0  0  0  0
    9.7057  -13.3118   18.3658 C   0  0  0  0  0  0  0  0  0  0  0  0
    8.2612  -13.3527   18.7109 C   0  0  0  0  0  0  0  0  0  0  0  0
    7.3433  -12.6233   17.7941 C   0  0  0  0  0  0  0  0  0  0  0  0
    5.9514  -12.7796   18.0841 N   0  0  0  0  0  0  0  0  0  0  0  0
   10.6987  -16.2189   20.1712 C   0  0  0  0  0  0  0  0  0  0  0  0
    9.6393  -16.8760   20.3201 O   0  0  0  0  0  0  0  0  0  0  0  0
   11.7021  -16.3284   21.1440 N   0  0  0  0  0  0  0  0  0  0  0  0
   11.6568  -17.2233   22.2751 C   0  0  1  0  0  0  0  0  0  0  0  0
   13.0229  -17.8327   22.5552 C   0  0  0  0  0  0  0  0  0  0  0  0
   12.9615  -18.7954   23.7217 C   0  0  0  0  0  0  0  0  0  0  0  0
   14.3062  -19.3841   23.9396 C   0  0  0  0  0  0  0  0  0  0  0  0
   14.7051  -19.6670   25.1142 O   0  0  0  0  0  0  0  0  0  0  0  0
   11.1347  -16.5346   23.4916 C   0  0  0  0  0  0  0  0  0  0  0  0
   11.7913  -15.5975   24.0124 O   0  0  0  0  0  0  0  0  0  0  0  0
   15.1635  -19.6443   22.8981 O   0  0  0  0  0  0  0  0  0  0  0  0
    7.9615  -14.6847   23.9161 C   0  0  0  0  0  0  0  0  0  0  0  0
    7.9354  -15.8011   24.9277 C   0  0  1  0  0  0  0  0  0  0  0  0
    7.1344  -16.8152   24.4540 O   0  0  0  0  0  0  0  0  0  0  0  0
    9.3521  -16.2944   25.2023 C   0  0  2  0  0  0  0  0  0  0  0  0
    9.8896  -16.9597   24.0415 N   0  0  0  0  0  0  0  0  0  0  0  0
    9.3951  -17.2001   26.3604 C   0  0  0  0  0  0  0  0  0  0  0  0
    9.8998  -18.4783   26.2363 O   0  0  0  0  0  0  0  0  0  0  0  0
    8.9766  -16.8423   27.4928 O   0  0  0  0  0  0  0  0  0  0  0  0
  2  1  1  6
  2  3  1  0
  3  4  1  0
  5  6  1  0
  5  4  1  0
  7  6  1  0
  8  2  1  0
  9  8  2  0
 10  8  1  0
 11 10  1  0
 11 12  1  1
 13 12  1  0
 14 18  1  0
 14 13  1  0
 15 14  2  0
 16 11  1  0
 16 17  2  0
 20 19  1  6
 20 22  1  0
 20 21  1  0
 22 23  1  6
 23 16  1  0
 24 22  1  0
 25 24  1  0
 26 24  2  0
M  END
$$$$
