KET.pdb
     RDKit          3D

 26 25  0  0  1  0  0  0  0  0999 V2000
    7.2018  -17.7869   19.9439 N   0  0  0  0  0  0  0  0  0  0  0  0
    6.4611  -17.6284   21.1581 C   0  0  1  0  0  0  0  0  0  0  0  0
    5.7197  -18.9454   21.4361 C   0  0  0  0  0  0  0  0  0  0  0  0
    5.0092  -19.2980   20.1741 C   0  0  0  0  0  0  0  0  0  0  0  0
    3.5366  -19.4686   20.2724 C   0  0  0  0  0  0  0  0  0  0  0  0
    2.8267  -19.8113   19.0100 C   0  0  0  0  0  0  0  0  0  0  0  0
    1.4031  -19.8938   19.1217 N   0  0  0  0  0  0  0  0  0  0  0  0
    7.3282  -17.2888   22.3171 C   0  0  0  0  0  0  0  0  0  0  0  0
    6.8090  -17.0394   23.4327 O   0  0  0  0  0  0  0  0  0  0  0  0
    8.7240  -17.2391   22.1972 N   0  0  0  0  0  0  0  0  0  0  0  0
    9.6230  -16.7901   23.2328 C   0  0  1  0  0  0  0  0  0  0  0  0
   11.0525  -16.6886   22.7206 C   0  0  0  0  0  0  0  0  0  0  0  0
   11.9848  -16.1868   23.8024 C   0  0  0  0  0  0  0  0  0  0  0  0
   13.3351  -15.9766   23.2238 C   0  0  0  0  0  0  0  0  0  0  0  0
   13.8374  -14.8091   23.1633 O   0  0  0  0  0  0  0  0  0  0  0  0
    9.1817  -15.4850   23.8063 C   0  0  0  0  0  0  0  0  0  0  0  0
    9.3252  -14.4272   23.1422 O   0  0  0  0  0  0  0  0  0  0  0  0
   14.0876  -17.0177   22.7368 O   0  0  0  0  0  0  0  0  0  0  0  0
    6.7579  -13.1814   24.4422 C   0  0  0  0  0  0  0  0  0  0  0  0
    7.0994  -13.6832   25.8214 C   0  0  1  0  0  0  0  0  0  0  0  0
    6.1867  -14.6469   26.1855 O   0  0  0  0  0  0  0  0  0  0  0  0
    8.5231  -14.2296   25.8439 C   0  0  2  0  0  0  0  0  0  0  0  0
    8.6012  -15.4674   25.1086 N   0  0  0  0  0  0  0  0  0  0  0  0
    9.0022  -14.4356   27.2191 C   0  0  0  0  0  0  0  0  0  0  0  0
    9.3884  -15.6883   27.6499 O   0  0  0  0  0  0  0  0  0  0  0  0
    9.0751  -13.4845   28.0412 O   0  0  0  0  0  0  0  0  0  0  0  0
  2  1  1  6
  2  3  1  0
  3  4  1  0
  5  6  1  0
  5  4  1  0
  7  6  1  0
  8  2  1  0
  9  8  2  0
 10  8  1  0
 11 10  1  0
 11 12  1  6
 13 12  1  0
 14 18  1  0
 14 13  1  0
 15 14  2  0
 16 11  1  0
 16 17  2  0
 20 19  1  6
 20 22  1  0
 20 21  1  0
 22 23  1  6
 23 16  1  0
 24 22  1  0
 25 24  1  0
 26 24  2  0
M  END
$$$$
