KET.pdb
     RDKit          3D

 26 25  0  0  1  0  0  0  0  0999 V2000
    8.7964  -19.7929   18.6434 N   0  0  0  0  0  0  0  0  0  0  0  0
    8.6227  -18.4620   19.1402 C   0  0  1  0  0  0  0  0  0  0  0  0
    7.1149  -18.1718   19.2005 C   0  0  0  0  0  0  0  0  0  0  0  0
    6.4785  -19.0617   18.1882 C   0  0  0  0  0  0  0  0  0  0  0  0
    5.0029  -18.9552   18.0517 C   0  0  0  0  0  0  0  0  0  0  0  0
    4.3686  -19.8420   17.0386 C   0  0  0  0  0  0  0  0  0  0  0  0
    2.9413  -19.7671   16.9805 N   0  0  0  0  0  0  0  0  0  0  0  0
    9.2226  -18.2712   20.4871 C   0  0  0  0  0  0  0  0  0  0  0  0
    8.6096  -18.6748   21.5058 O   0  0  0  0  0  0  0  0  0  0  0  0
   10.4667  -17.6467   20.6525 N   0  0  0  0  0  0  0  0  0  0  0  0
   11.1056  -17.4105   21.9245 C   0  0  1  0  0  0  0  0  0  0  0  0
   12.5810  -17.0794   21.7510 C   0  0  0  0  0  0  0  0  0  0  0  0
   13.2295  -16.7661   23.0824 C   0  0  0  0  0  0  0  0  0  0  0  0
   14.6632  -16.4510   22.8644 C   0  0  0  0  0  0  0  0  0  0  0  0
   15.0541  -15.2428   22.7835 O   0  0  0  0  0  0  0  0  0  0  0  0
   10.4155  -16.3285   22.6861 C   0  0  0  0  0  0  0  0  0  0  0  0
   10.4745  -15.1400   22.2803 O   0  0  0  0  0  0  0  0  0  0  0  0
   15.6137  -17.4353   22.7429 O   0  0  0  0  0  0  0  0  0  0  0  0
    7.4060  -14.9323   23.0540 C   0  0  0  0  0  0  0  0  0  0  0  0
    7.6409  -15.4886   24.4345 C   0  0  1  0  0  0  0  0  0  0  0  0
    6.9949  -16.6990   24.5449 O   0  0  0  0  0  0  0  0  0  0  0  0
    9.1365  -15.6314   24.6960 C   0  0  2  0  0  0  0  0  0  0  0  0
    9.6972  -16.6711   23.8693 N   0  0  0  0  0  0  0  0  0  0  0  0
    9.4138  -15.9164   26.1120 C   0  0  0  0  0  0  0  0  0  0  0  0
    8.9721  -15.0623   27.1017 O   0  0  0  0  0  0  0  0  0  0  0  0
   10.0576  -16.9395   26.4647 O   0  0  0  0  0  0  0  0  0  0  0  0
  2  1  1  1
  2  3  1  0
  3  4  1  0
  5  6  1  0
  5  4  1  0
  7  6  1  0
  8  2  1  0
  9  8  2  0
 10  8  1  0
 11 10  1  0
 11 12  1  6
 13 12  1  0
 14 18  1  0
 14 13  1  0
 15 14  2  0
 16 11  1  0
 16 17  2  0
 20 19  1  6
 20 22  1  0
 20 21  1  0
 22 23  1  6
 23 16  1  0
 24 22  1  0
 25 24  1  0
 26 24  2  0
M  END
$$$$
