KET.pdb
     RDKit          3D

 26 25  0  0  1  0  0  0  0  0999 V2000
    6.4346  -16.3972   19.9750 N   0  0  0  0  0  0  0  0  0  0  0  0
    7.7189  -15.8210   20.2335 C   0  0  1  0  0  0  0  0  0  0  0  0
    7.5100  -14.3438   20.6018 C   0  0  0  0  0  0  0  0  0  0  0  0
    7.1776  -13.6404   19.3304 C   0  0  0  0  0  0  0  0  0  0  0  0
    8.2173  -13.6702   18.2694 C   0  0  0  0  0  0  0  0  0  0  0  0
    7.8904  -12.9553   17.0056 C   0  0  0  0  0  0  0  0  0  0  0  0
    8.8454  -13.1223   15.9538 N   0  0  0  0  0  0  0  0  0  0  0  0
    8.4454  -16.5118   21.3314 C   0  0  0  0  0  0  0  0  0  0  0  0
    7.8171  -16.9031   22.3456 O   0  0  0  0  0  0  0  0  0  0  0  0
    9.8268  -16.7406   21.2646 N   0  0  0  0  0  0  0  0  0  0  0  0
   10.5954  -17.4329   22.2707 C   0  0  1  0  0  0  0  0  0  0  0  0
   12.0495  -17.5876   21.8488 C   0  0  0  0  0  0  0  0  0  0  0  0
   12.8384  -18.3592   22.8848 C   0  0  0  0  0  0  0  0  0  0  0  0
   14.2374  -18.5161   22.4153 C   0  0  0  0  0  0  0  0  0  0  0  0
   14.5786  -19.5320   21.7293 O   0  0  0  0  0  0  0  0  0  0  0  0
   10.5071  -16.7433   23.5911 C   0  0  0  0  0  0  0  0  0  0  0  0
   11.1132  -15.6570   23.7734 O   0  0  0  0  0  0  0  0  0  0  0  0
   15.2077  -17.5853   22.6972 O   0  0  0  0  0  0  0  0  0  0  0  0
    7.9274  -15.0019   25.0603 C   0  0  0  0  0  0  0  0  0  0  0  0
    8.1623  -16.1195   26.0433 C   0  0  1  0  0  0  0  0  0  0  0  0
    7.2229  -17.1035   25.8347 O   0  0  0  0  0  0  0  0  0  0  0  0
    9.5792  -16.6630   25.8920 C   0  0  2  0  0  0  0  0  0  0  0  0
    9.7290  -17.3387   24.6272 N   0  0  0  0  0  0  0  0  0  0  0  0
    9.9285  -17.5771   26.9900 C   0  0  0  0  0  0  0  0  0  0  0  0
    9.9639  -17.1293   28.2947 O   0  0  0  0  0  0  0  0  0  0  0  0
   10.2043  -18.7873   26.7777 O   0  0  0  0  0  0  0  0  0  0  0  0
  2  1  1  1
  2  3  1  0
  3  4  1  0
  5  6  1  0
  5  4  1  0
  7  6  1  0
  8  2  1  0
  9  8  2  0
 10  8  1  0
 11 10  1  0
 11 12  1  6
 13 12  1  0
 14 18  1  0
 14 13  1  0
 15 14  2  0
 16 11  1  0
 16 17  2  0
 20 19  1  6
 20 22  1  0
 20 21  1  0
 22 23  1  6
 23 16  1  0
 24 22  1  0
 25 24  1  0
 26 24  2  0
M  END
$$$$
