MSY.pdb
     RDKit          3D

 27 27  0  0  1  0  0  0  0  0999 V2000
    9.0121  -12.0397   19.3959 C   0  0  0  0  0  0  0  0  0  0  0  0
    7.8961  -12.7845   18.2098 S   0  0  0  0  0  0  0  0  0  0  0  0
    8.0011  -14.5721   18.1289 C   0  0  0  0  0  0  0  0  0  0  0  0
    9.1249  -15.1774   18.8949 C   0  0  0  0  0  0  0  0  0  0  0  0
    9.1581  -16.6711   18.8980 C   0  0  2  0  0  0  0  0  0  0  0  0
    7.8973  -17.2241   18.4237 N   0  0  0  0  0  0  0  0  0  0  0  0
    9.3204  -17.1384   20.3123 C   0  0  0  0  0  0  0  0  0  0  0  0
    8.3437  -17.2036   21.1204 O   0  0  0  0  0  0  0  0  0  0  0  0
   13.1702  -17.4054   22.2104 O   0  0  0  0  0  0  0  0  0  0  0  0
   12.1922  -18.3489   22.5011 C   0  0  0  0  0  0  0  0  0  0  0  0
   10.7936  -17.8402   22.2262 C   0  0  2  0  0  0  0  0  0  0  0  0
   10.5866  -17.5378   20.8315 N   0  0  0  0  0  0  0  0  0  0  0  0
   10.5972  -16.6507   23.0942 C   0  0  0  0  0  0  0  0  0  0  0  0
   10.6014  -15.5191   22.5461 O   0  0  0  0  0  0  0  0  0  0  0  0
    5.9897  -11.2113   27.6682 O   0  0  0  0  0  0  0  0  0  0  0  0
    6.6115  -12.2423   26.9914 C   0  0  0  0  0  0  0  0  0  0  0  0
    7.5738  -13.0253   27.5942 C   0  0  0  0  0  0  0  0  0  0  0  0
    8.1511  -14.0363   26.8573 C   0  0  0  0  0  0  0  0  0  0  0  0
    7.7651  -14.2582   25.5276 C   0  0  0  0  0  0  0  0  0  0  0  0
    8.4025  -15.3276   24.7311 C   0  0  0  0  0  0  0  0  0  0  0  0
    9.8000  -15.5656   25.2239 C   0  0  2  0  0  0  0  0  0  0  0  0
   10.4060  -16.6985   24.4893 N   0  0  0  0  0  0  0  0  0  0  0  0
    9.8603  -15.9042   26.6524 C   0  0  0  0  0  0  0  0  0  0  0  0
    9.5859  -17.1760   27.1186 O   0  0  0  0  0  0  0  0  0  0  0  0
    6.7965  -13.4637   24.9328 C   0  0  0  0  0  0  0  0  0  0  0  0
    6.2219  -12.4540   25.6739 C   0  0  0  0  0  0  0  0  0  0  0  0
   10.1642  -15.0409   27.5101 O   0  0  0  0  0  0  0  0  0  0  0  0
  2  1  1  0
  3  2  1  0
  4  3  1  0
  5  7  1  0
  5  4  1  0
  5  6  1  1
  7  8  2  0
  9 10  1  0
 11 10  1  6
 11 12  1  0
 12  7  1  0
 13 11  1  0
 14 13  2  0
 16 15  1  0
 16 26  2  0
 17 16  1  0
 18 17  2  0
 18 19  1  0
 19 25  2  0
 20 19  1  0
 21 20  1  6
 21 22  1  0
 22 13  1  0
 23 24  1  0
 23 21  1  0
 25 26  1  0
 27 23  2  0
M  END
$$$$
