MSY.pdb
     RDKit          3D

 27 27  0  0  1  0  0  0  0  0999 V2000
    6.7371  -12.6487   26.7742 C   0  0  0  0  0  0  0  0  0  0  0  0
    7.4740  -12.4073   25.1599 S   0  0  0  0  0  0  0  0  0  0  0  0
    7.3139  -13.8169   24.0644 C   0  0  0  0  0  0  0  0  0  0  0  0
    7.8626  -13.6220   22.6944 C   0  0  0  0  0  0  0  0  0  0  0  0
    7.6811  -14.7800   21.7680 C   0  0  2  0  0  0  0  0  0  0  0  0
    6.2957  -15.2281   21.7546 N   0  0  0  0  0  0  0  0  0  0  0  0
    8.4933  -15.9295   22.2819 C   0  0  0  0  0  0  0  0  0  0  0  0
    7.9983  -16.8279   23.0297 O   0  0  0  0  0  0  0  0  0  0  0  0
   12.6727  -16.4500   21.3031 O   0  0  0  0  0  0  0  0  0  0  0  0
   11.7975  -17.5183   21.4570 C   0  0  0  0  0  0  0  0  0  0  0  0
   10.6579  -17.2046   22.4023 C   0  0  2  0  0  0  0  0  0  0  0  0
    9.8735  -16.0791   21.9579 N   0  0  0  0  0  0  0  0  0  0  0  0
   11.2665  -16.9731   23.7376 C   0  0  0  0  0  0  0  0  0  0  0  0
   11.4707  -15.7834   24.0895 O   0  0  0  0  0  0  0  0  0  0  0  0
    9.8497  -12.7827   29.4745 O   0  0  0  0  0  0  0  0  0  0  0  0
    9.8705  -13.9135   28.6818 C   0  0  0  0  0  0  0  0  0  0  0  0
    9.1845  -13.9704   27.4865 C   0  0  0  0  0  0  0  0  0  0  0  0
    9.2511  -15.1319   26.7481 C   0  0  0  0  0  0  0  0  0  0  0  0
    9.9997  -16.2254   27.2066 C   0  0  0  0  0  0  0  0  0  0  0  0
   10.0505  -17.4788   26.4250 C   0  0  0  0  0  0  0  0  0  0  0  0
   11.4758  -17.8198   26.1015 C   0  0  2  0  0  0  0  0  0  0  0  0
   11.6322  -17.9917   24.6399 N   0  0  0  0  0  0  0  0  0  0  0  0
   11.9284  -19.0697   26.7274 C   0  0  0  0  0  0  0  0  0  0  0  0
   12.3251  -20.1636   25.9817 O   0  0  0  0  0  0  0  0  0  0  0  0
   10.6848  -16.1556   28.4103 C   0  0  0  0  0  0  0  0  0  0  0  0
   10.6153  -14.9919   29.1451 C   0  0  0  0  0  0  0  0  0  0  0  0
   11.9693  -19.1910   27.9752 O   0  0  0  0  0  0  0  0  0  0  0  0
  2  1  1  0
  3  2  1  0
  4  3  1  0
  5  7  1  0
  5  4  1  0
  5  6  1  1
  7  8  2  0
  9 10  1  0
 11 10  1  6
 11 12  1  0
 12  7  1  0
 13 11  1  0
 14 13  2  0
 16 15  1  0
 16 26  2  0
 17 16  1  0
 18 17  2  0
 18 19  1  0
 19 25  2  0
 20 19  1  0
 21 20  1  6
 21 22  1  0
 22 13  1  0
 23 24  1  0
 23 21  1  0
 25 26  1  0
 27 23  2  0
M  END
$$$$
