MSY.pdb
     RDKit          3D

 27 27  0  0  1  0  0  0  0  0999 V2000
    7.7335  -11.5911   20.1509 C   0  0  0  0  0  0  0  0  0  0  0  0
    8.2036  -12.6917   18.8186 S   0  0  0  0  0  0  0  0  0  0  0  0
    7.1197  -14.1054   18.6207 C   0  0  0  0  0  0  0  0  0  0  0  0
    7.7803  -15.3495   18.1389 C   0  0  0  0  0  0  0  0  0  0  0  0
    9.1632  -15.5746   18.6575 C   0  0  2  0  0  0  0  0  0  0  0  0
    9.7525  -16.7722   18.0755 N   0  0  0  0  0  0  0  0  0  0  0  0
    9.0820  -15.8169   20.1339 C   0  0  0  0  0  0  0  0  0  0  0  0
    8.6017  -14.9580   20.9358 O   0  0  0  0  0  0  0  0  0  0  0  0
    9.9041  -19.6316   21.8993 O   0  0  0  0  0  0  0  0  0  0  0  0
    9.1006  -18.6684   22.4973 C   0  0  0  0  0  0  0  0  0  0  0  0
    9.5245  -17.2584   22.1468 C   0  0  2  0  0  0  0  0  0  0  0  0
    9.5415  -17.0311   20.7229 N   0  0  0  0  0  0  0  0  0  0  0  0
   10.8595  -17.0514   22.7648 C   0  0  0  0  0  0  0  0  0  0  0  0
   11.6532  -18.0264   22.7840 O   0  0  0  0  0  0  0  0  0  0  0  0
   10.4921  -15.2031   30.9940 O   0  0  0  0  0  0  0  0  0  0  0  0
   10.3893  -15.2295   29.6169 C   0  0  0  0  0  0  0  0  0  0  0  0
   10.2354  -14.0725   28.8818 C   0  0  0  0  0  0  0  0  0  0  0  0
   10.1397  -14.1757   27.5111 C   0  0  0  0  0  0  0  0  0  0  0  0
   10.1980  -15.4292   26.8854 C   0  0  0  0  0  0  0  0  0  0  0  0
   10.0711  -15.5401   25.4171 C   0  0  0  0  0  0  0  0  0  0  0  0
   11.4311  -15.6760   24.7972 C   0  0  2  0  0  0  0  0  0  0  0  0
   11.3016  -15.8397   23.3320 N   0  0  0  0  0  0  0  0  0  0  0  0
   12.1785  -16.8409   25.2907 C   0  0  0  0  0  0  0  0  0  0  0  0
   13.3393  -16.7104   26.0293 O   0  0  0  0  0  0  0  0  0  0  0  0
   10.3528  -16.5851   27.6359 C   0  0  0  0  0  0  0  0  0  0  0  0
   10.4482  -16.4768   29.0063 C   0  0  0  0  0  0  0  0  0  0  0  0
   11.7865  -18.0088   25.0548 O   0  0  0  0  0  0  0  0  0  0  0  0
  2  1  1  0
  3  2  1  0
  4  3  1  0
  5  7  1  0
  5  4  1  0
  5  6  1  6
  7  8  2  0
  9 10  1  0
 11 10  1  6
 11 12  1  0
 12  7  1  0
 13 11  1  0
 14 13  2  0
 16 15  1  0
 16 26  2  0
 17 16  1  0
 18 17  2  0
 18 19  1  0
 19 25  2  0
 20 19  1  0
 21 20  1  1
 21 22  1  0
 22 13  1  0
 23 24  1  0
 23 21  1  0
 25 26  1  0
 27 23  2  0
M  END
$$$$
