MSY.pdb
     RDKit          3D

 27 27  0  0  1  0  0  0  0  0999 V2000
    8.4442  -11.7837   19.6708 C   0  0  0  0  0  0  0  0  0  0  0  0
    7.4077  -13.1323   19.1100 S   0  0  0  0  0  0  0  0  0  0  0  0
    6.3630  -13.8319   20.3874 C   0  0  0  0  0  0  0  0  0  0  0  0
    7.0619  -14.6989   21.3752 C   0  0  0  0  0  0  0  0  0  0  0  0
    7.5576  -16.0014   20.8367 C   0  0  2  0  0  0  0  0  0  0  0  0
    6.4500  -16.8828   20.4954 N   0  0  0  0  0  0  0  0  0  0  0  0
    8.3343  -16.6947   21.9143 C   0  0  0  0  0  0  0  0  0  0  0  0
    7.8073  -17.0326   23.0186 O   0  0  0  0  0  0  0  0  0  0  0  0
   12.0879  -18.4826   21.2643 O   0  0  0  0  0  0  0  0  0  0  0  0
   11.3446  -18.7298   22.4121 C   0  0  0  0  0  0  0  0  0  0  0  0
   10.5174  -17.5359   22.8375 C   0  0  2  0  0  0  0  0  0  0  0  0
    9.7147  -17.0152   21.7586 N   0  0  0  0  0  0  0  0  0  0  0  0
   11.4708  -16.5267   23.3662 C   0  0  0  0  0  0  0  0  0  0  0  0
   11.8187  -15.5924   22.6001 O   0  0  0  0  0  0  0  0  0  0  0  0
   10.2592  -16.7587   30.5626 O   0  0  0  0  0  0  0  0  0  0  0  0
   10.7329  -16.1607   29.4113 C   0  0  0  0  0  0  0  0  0  0  0  0
    9.9709  -15.2567   28.7010 C   0  0  0  0  0  0  0  0  0  0  0  0
   10.5091  -14.6998   27.5613 C   0  0  0  0  0  0  0  0  0  0  0  0
   11.8003  -15.0481   27.1397 C   0  0  0  0  0  0  0  0  0  0  0  0
   12.3668  -14.4680   25.9040 C   0  0  0  0  0  0  0  0  0  0  0  0
   13.0236  -15.5446   25.0905 C   0  0  2  0  0  0  0  0  0  0  0  0
   12.0143  -16.5404   24.6661 N   0  0  0  0  0  0  0  0  0  0  0  0
   14.0598  -16.2782   25.8300 C   0  0  0  0  0  0  0  0  0  0  0  0
   13.9530  -17.6295   26.0996 O   0  0  0  0  0  0  0  0  0  0  0  0
   12.5563  -15.9586   27.8627 C   0  0  0  0  0  0  0  0  0  0  0  0
   12.0138  -16.5127   29.0018 C   0  0  0  0  0  0  0  0  0  0  0  0
   15.0893  -15.6974   26.2498 O   0  0  0  0  0  0  0  0  0  0  0  0
  2  1  1  0
  3  2  1  0
  4  3  1  0
  5  7  1  0
  5  4  1  0
  5  6  1  1
  7  8  2  0
  9 10  1  0
 11 10  1  6
 11 12  1  0
 12  7  1  0
 13 11  1  0
 14 13  2  0
 16 15  1  0
 16 26  2  0
 17 16  1  0
 18 17  2  0
 18 19  1  0
 19 25  2  0
 20 19  1  0
 21 20  1  1
 21 22  1  0
 22 13  1  0
 23 24  1  0
 23 21  1  0
 25 26  1  0
 27 23  2  0
M  END
$$$$
