MSY.pdb
     RDKit          3D

 27 27  0  0  1  0  0  0  0  0999 V2000
    7.9582  -11.0357   20.3667 C   0  0  0  0  0  0  0  0  0  0  0  0
    7.5956  -12.2148   21.6650 S   0  0  0  0  0  0  0  0  0  0  0  0
    8.2462  -13.8576   21.3639 C   0  0  0  0  0  0  0  0  0  0  0  0
    7.4221  -14.7121   20.4657 C   0  0  0  0  0  0  0  0  0  0  0  0
    7.9872  -16.0663   20.1847 C   0  0  2  0  0  0  0  0  0  0  0  0
    7.1098  -16.8284   19.3075 N   0  0  0  0  0  0  0  0  0  0  0  0
    8.0608  -16.8258   21.4743 C   0  0  0  0  0  0  0  0  0  0  0  0
    7.0347  -17.3387   22.0178 O   0  0  0  0  0  0  0  0  0  0  0  0
   11.6964  -18.3561   22.7872 O   0  0  0  0  0  0  0  0  0  0  0  0
   10.4852  -18.8887   23.2118 C   0  0  0  0  0  0  0  0  0  0  0  0
    9.4030  -17.8390   23.3444 C   0  0  2  0  0  0  0  0  0  0  0  0
    9.2930  -17.0158   22.1656 N   0  0  0  0  0  0  0  0  0  0  0  0
    9.7300  -17.0443   24.5562 C   0  0  0  0  0  0  0  0  0  0  0  0
   10.5152  -16.0712   24.4237 O   0  0  0  0  0  0  0  0  0  0  0  0
    6.1490  -11.6884   25.1819 O   0  0  0  0  0  0  0  0  0  0  0  0
    6.6955  -12.7944   25.8028 C   0  0  0  0  0  0  0  0  0  0  0  0
    6.1350  -14.0477   25.6702 C   0  0  0  0  0  0  0  0  0  0  0  0
    6.7351  -15.1051   26.3187 C   0  0  0  0  0  0  0  0  0  0  0  0
    7.8871  -14.9048   27.0927 C   0  0  0  0  0  0  0  0  0  0  0  0
    8.5156  -16.0359   27.8069 C   0  0  0  0  0  0  0  0  0  0  0  0
    9.6926  -16.5412   27.0249 C   0  0  2  0  0  0  0  0  0  0  0  0
    9.2233  -17.3021   25.8454 N   0  0  0  0  0  0  0  0  0  0  0  0
   10.5563  -17.4445   27.7975 C   0  0  0  0  0  0  0  0  0  0  0  0
   11.3162  -17.0017   28.8636 O   0  0  0  0  0  0  0  0  0  0  0  0
    8.4408  -13.6396   27.2182 C   0  0  0  0  0  0  0  0  0  0  0  0
    7.8371  -12.5853   26.5678 C   0  0  0  0  0  0  0  0  0  0  0  0
   10.6376  -18.6633   27.5127 O   0  0  0  0  0  0  0  0  0  0  0  0
  2  1  1  0
  3  2  1  0
  4  3  1  0
  5  7  1  0
  5  4  1  0
  5  6  1  6
  7  8  2  0
  9 10  1  0
 11 10  1  6
 11 12  1  0
 12  7  1  0
 13 11  1  0
 14 13  2  0
 16 15  1  0
 16 26  2  0
 17 16  1  0
 18 17  2  0
 18 19  1  0
 19 25  2  0
 20 19  1  0
 21 20  1  1
 21 22  1  0
 22 13  1  0
 23 24  1  0
 23 21  1  0
 25 26  1  0
 27 23  2  0
M  END
$$$$
