MSY.pdb
     RDKit          3D

 27 27  0  0  1  0  0  0  0  0999 V2000
    6.9709  -12.1186   18.5924 C   0  0  0  0  0  0  0  0  0  0  0  0
    8.2810  -13.3180   18.3636 S   0  0  0  0  0  0  0  0  0  0  0  0
    7.7296  -15.0227   18.4170 C   0  0  0  0  0  0  0  0  0  0  0  0
    8.8148  -16.0416   18.4071 C   0  0  0  0  0  0  0  0  0  0  0  0
    8.3708  -17.4433   18.6723 C   0  0  2  0  0  0  0  0  0  0  0  0
    6.9526  -17.6067   18.3857 N   0  0  0  0  0  0  0  0  0  0  0  0
    8.5431  -17.7263   20.1336 C   0  0  0  0  0  0  0  0  0  0  0  0
    7.5882  -17.6146   20.9624 O   0  0  0  0  0  0  0  0  0  0  0  0
   12.3799  -17.8978   21.9970 O   0  0  0  0  0  0  0  0  0  0  0  0
   11.4058  -18.8002   22.4065 C   0  0  0  0  0  0  0  0  0  0  0  0
   10.0037  -18.3249   22.0916 C   0  0  2  0  0  0  0  0  0  0  0  0
    9.7949  -18.1388   20.6770 N   0  0  0  0  0  0  0  0  0  0  0  0
    9.7994  -17.0699   22.8597 C   0  0  0  0  0  0  0  0  0  0  0  0
    9.5382  -16.0238   22.2129 O   0  0  0  0  0  0  0  0  0  0  0  0
    6.1621  -11.1922   27.7972 O   0  0  0  0  0  0  0  0  0  0  0  0
    6.6040  -12.2221   26.9899 C   0  0  0  0  0  0  0  0  0  0  0  0
    6.5917  -12.1180   25.6146 C   0  0  0  0  0  0  0  0  0  0  0  0
    7.0480  -13.1860   24.8731 C   0  0  0  0  0  0  0  0  0  0  0  0
    7.5121  -14.3471   25.5076 C   0  0  0  0  0  0  0  0  0  0  0  0
    7.9787  -15.5008   24.7104 C   0  0  0  0  0  0  0  0  0  0  0  0
    9.4364  -15.7441   24.9714 C   0  0  2  0  0  0  0  0  0  0  0  0
    9.8769  -16.9665   24.2628 N   0  0  0  0  0  0  0  0  0  0  0  0
    9.7444  -15.9432   26.3942 C   0  0  0  0  0  0  0  0  0  0  0  0
   10.2648  -14.9339   27.1819 O   0  0  0  0  0  0  0  0  0  0  0  0
    7.5191  -14.4395   26.8913 C   0  0  0  0  0  0  0  0  0  0  0  0
    7.0619  -13.3687   27.6285 C   0  0  0  0  0  0  0  0  0  0  0  0
    9.5459  -17.0496   26.9508 O   0  0  0  0  0  0  0  0  0  0  0  0
  2  1  1  0
  3  2  1  0
  4  3  1  0
  5  7  1  0
  5  4  1  0
  5  6  1  1
  7  8  2  0
  9 10  1  0
 11 10  1  6
 11 12  1  0
 12  7  1  0
 13 11  1  0
 14 13  2  0
 16 15  1  0
 16 26  2  0
 17 16  1  0
 18 17  2  0
 18 19  1  0
 19 25  2  0
 20 19  1  0
 21 20  1  1
 21 22  1  0
 22 13  1  0
 23 24  1  0
 23 21  1  0
 25 26  1  0
 27 23  2  0
M  END
$$$$
