MSY.pdb
     RDKit          3D

 27 27  0  0  1  0  0  0  0  0999 V2000
    8.0703  -11.3432   20.7037 C   0  0  0  0  0  0  0  0  0  0  0  0
    6.8862  -12.3391   19.8018 S   0  0  0  0  0  0  0  0  0  0  0  0
    7.4428  -14.0086   19.4619 C   0  0  0  0  0  0  0  0  0  0  0  0
    7.9995  -14.7428   20.6312 C   0  0  0  0  0  0  0  0  0  0  0  0
    8.3923  -16.1590   20.3621 C   0  0  2  0  0  0  0  0  0  0  0  0
    7.2633  -16.9294   19.8600 N   0  0  0  0  0  0  0  0  0  0  0  0
    8.7951  -16.7933   21.6585 C   0  0  0  0  0  0  0  0  0  0  0  0
    7.9489  -17.3069   22.4530 O   0  0  0  0  0  0  0  0  0  0  0  0
   12.7678  -16.5538   23.1549 O   0  0  0  0  0  0  0  0  0  0  0  0
   12.0792  -17.7508   23.3104 C   0  0  0  0  0  0  0  0  0  0  0  0
   10.5777  -17.5692   23.2541 C   0  0  2  0  0  0  0  0  0  0  0  0
   10.1575  -16.8557   22.0735 N   0  0  0  0  0  0  0  0  0  0  0  0
   10.1888  -16.8662   24.5037 C   0  0  0  0  0  0  0  0  0  0  0  0
    9.9060  -15.6437   24.4237 O   0  0  0  0  0  0  0  0  0  0  0  0
    6.9631  -11.1980   25.8648 O   0  0  0  0  0  0  0  0  0  0  0  0
    7.2509  -12.5225   26.1301 C   0  0  0  0  0  0  0  0  0  0  0  0
    6.4690  -13.5449   25.6343 C   0  0  0  0  0  0  0  0  0  0  0  0
    6.8170  -14.8426   25.9402 C   0  0  0  0  0  0  0  0  0  0  0  0
    7.9398  -15.1100   26.7365 C   0  0  0  0  0  0  0  0  0  0  0  0
    8.2977  -16.5014   27.0834 C   0  0  0  0  0  0  0  0  0  0  0  0
    9.7840  -16.6848   26.9840 C   0  0  2  0  0  0  0  0  0  0  0  0
   10.1137  -17.4709   25.7741 N   0  0  0  0  0  0  0  0  0  0  0  0
   10.3560  -17.4065   28.1289 C   0  0  0  0  0  0  0  0  0  0  0  0
   10.5235  -16.8103   29.3644 O   0  0  0  0  0  0  0  0  0  0  0  0
    8.7178  -14.0731   27.2291 C   0  0  0  0  0  0  0  0  0  0  0  0
    8.3658  -12.7770   26.9204 C   0  0  0  0  0  0  0  0  0  0  0  0
   10.7191  -18.6026   28.0242 O   0  0  0  0  0  0  0  0  0  0  0  0
  2  1  1  0
  3  2  1  0
  4  3  1  0
  5  7  1  0
  5  4  1  0
  5  6  1  1
  7  8  2  0
  9 10  1  0
 11 10  1  6
 11 12  1  0
 12  7  1  0
 13 11  1  0
 14 13  2  0
 16 15  1  0
 16 26  2  0
 17 16  1  0
 18 17  2  0
 18 19  1  0
 19 25  2  0
 20 19  1  0
 21 20  1  1
 21 22  1  0
 22 13  1  0
 23 24  1  0
 23 21  1  0
 25 26  1  0
 27 23  2  0
M  END
$$$$
