MSY.pdb
     RDKit          3D

 27 27  0  0  1  0  0  0  0  0999 V2000
    6.5255  -11.7365   18.8928 C   0  0  0  0  0  0  0  0  0  0  0  0
    8.1249  -12.4792   19.2057 S   0  0  0  0  0  0  0  0  0  0  0  0
    8.0439  -14.0759   20.0163 C   0  0  0  0  0  0  0  0  0  0  0  0
    9.3546  -14.7515   20.2203 C   0  0  0  0  0  0  0  0  0  0  0  0
    9.2791  -16.1049   20.8487 C   0  0  2  0  0  0  0  0  0  0  0  0
    7.9200  -16.6258   20.8092 N   0  0  0  0  0  0  0  0  0  0  0  0
    9.6415  -15.9756   22.2969 C   0  0  0  0  0  0  0  0  0  0  0  0
   10.7940  -15.6027   22.6760 O   0  0  0  0  0  0  0  0  0  0  0  0
    6.7280  -16.5495   25.3086 O   0  0  0  0  0  0  0  0  0  0  0  0
    7.8450  -15.7677   25.5775 C   0  0  0  0  0  0  0  0  0  0  0  0
    9.0406  -16.1520   24.7328 C   0  0  2  0  0  0  0  0  0  0  0  0
    8.7076  -16.2655   23.3343 N   0  0  0  0  0  0  0  0  0  0  0  0
    9.5620  -17.4260   25.2914 C   0  0  0  0  0  0  0  0  0  0  0  0
    9.0238  -18.4962   24.9095 O   0  0  0  0  0  0  0  0  0  0  0  0
   15.7631  -16.4515   23.3088 O   0  0  0  0  0  0  0  0  0  0  0  0
   14.7370  -17.2155   23.8294 C   0  0  0  0  0  0  0  0  0  0  0  0
   13.4915  -17.2515   23.2379 C   0  0  0  0  0  0  0  0  0  0  0  0
   12.5160  -18.0365   23.8132 C   0  0  0  0  0  0  0  0  0  0  0  0
   12.7897  -18.7779   24.9715 C   0  0  0  0  0  0  0  0  0  0  0  0
   11.7354  -19.6006   25.6008 C   0  0  0  0  0  0  0  0  0  0  0  0
   11.0896  -18.8336   26.7175 C   0  0  2  0  0  0  0  0  0  0  0  0
   10.6177  -17.5222   26.2196 N   0  0  0  0  0  0  0  0  0  0  0  0
   12.0026  -18.5603   27.8358 C   0  0  0  0  0  0  0  0  0  0  0  0
   12.6972  -19.5664   28.4803 O   0  0  0  0  0  0  0  0  0  0  0  0
   14.0461  -18.7329   25.5568 C   0  0  0  0  0  0  0  0  0  0  0  0
   15.0184  -17.9465   24.9777 C   0  0  0  0  0  0  0  0  0  0  0  0
   12.1847  -17.3911   28.2519 O   0  0  0  0  0  0  0  0  0  0  0  0
  2  1  1  0
  3  2  1  0
  4  3  1  0
  5  7  1  0
  5  4  1  0
  5  6  1  1
  7  8  2  0
  9 10  1  0
 11 10  1  1
 11 12  1  0
 12  7  1  0
 13 11  1  0
 14 13  2  0
 16 15  1  0
 16 26  2  0
 17 16  1  0
 18 17  2  0
 18 19  1  0
 19 25  2  0
 20 19  1  0
 21 20  1  6
 21 22  1  0
 22 13  1  0
 23 24  1  0
 23 21  1  0
 25 26  1  0
 27 23  2  0
M  END
$$$$
