MSY.pdb
     RDKit          3D

 27 27  0  0  1  0  0  0  0  0999 V2000
    8.6483  -12.7229   17.1579 C   0  0  0  0  0  0  0  0  0  0  0  0
    7.2196  -13.4111   17.9900 S   0  0  0  0  0  0  0  0  0  0  0  0
    7.6160  -14.6639   19.2090 C   0  0  0  0  0  0  0  0  0  0  0  0
    8.9517  -15.3021   19.0524 C   0  0  0  0  0  0  0  0  0  0  0  0
    9.3219  -16.2704   20.1283 C   0  0  2  0  0  0  0  0  0  0  0  0
    8.3006  -17.2968   20.2834 N   0  0  0  0  0  0  0  0  0  0  0  0
    9.3814  -15.5317   21.4305 C   0  0  0  0  0  0  0  0  0  0  0  0
   10.3143  -14.7155   21.7042 O   0  0  0  0  0  0  0  0  0  0  0  0
    6.7646  -16.5054   24.5867 O   0  0  0  0  0  0  0  0  0  0  0  0
    7.1500  -15.1738   24.4902 C   0  0  0  0  0  0  0  0  0  0  0  0
    8.4239  -14.9936   23.6931 C   0  0  2  0  0  0  0  0  0  0  0  0
    8.3890  -15.7049   22.4392 N   0  0  0  0  0  0  0  0  0  0  0  0
    9.5373  -15.4472   24.5657 C   0  0  0  0  0  0  0  0  0  0  0  0
    9.7592  -14.7956   25.6179 O   0  0  0  0  0  0  0  0  0  0  0  0
    9.6644  -13.1028   29.8443 O   0  0  0  0  0  0  0  0  0  0  0  0
    9.9894  -14.1843   29.0491 C   0  0  0  0  0  0  0  0  0  0  0  0
   11.2571  -14.7276   29.0516 C   0  0  0  0  0  0  0  0  0  0  0  0
   11.5086  -15.8064   28.2320 C   0  0  0  0  0  0  0  0  0  0  0  0
   10.4959  -16.3338   27.4181 C   0  0  0  0  0  0  0  0  0  0  0  0
   10.7739  -17.4758   26.5219 C   0  0  0  0  0  0  0  0  0  0  0  0
   11.4105  -16.9853   25.2544 C   0  0  2  0  0  0  0  0  0  0  0  0
   10.3642  -16.5566   24.2995 N   0  0  0  0  0  0  0  0  0  0  0  0
   12.2120  -18.0119   24.5743 C   0  0  0  0  0  0  0  0  0  0  0  0
   13.3501  -18.5519   25.1426 O   0  0  0  0  0  0  0  0  0  0  0  0
    9.2253  -15.7782   27.4245 C   0  0  0  0  0  0  0  0  0  0  0  0
    8.9786  -14.6996   28.2459 C   0  0  0  0  0  0  0  0  0  0  0  0
   11.8895  -18.4384   23.4396 O   0  0  0  0  0  0  0  0  0  0  0  0
  2  1  1  0
  3  2  1  0
  4  3  1  0
  5  7  1  0
  5  4  1  0
  5  6  1  1
  7  8  2  0
  9 10  1  0
 11 10  1  1
 11 12  1  0
 12  7  1  0
 13 11  1  0
 14 13  2  0
 16 15  1  0
 16 26  2  0
 17 16  1  0
 18 17  2  0
 18 19  1  0
 19 25  2  0
 20 19  1  0
 21 20  1  1
 21 22  1  0
 22 13  1  0
 23 24  1  0
 23 21  1  0
 25 26  1  0
 27 23  2  0
M  END
$$$$
