MSY.pdb
     RDKit          3D

 27 27  0  0  1  0  0  0  0  0999 V2000
    8.5240  -12.3628   21.0009 C   0  0  0  0  0  0  0  0  0  0  0  0
    6.9777  -13.0723   20.4417 S   0  0  0  0  0  0  0  0  0  0  0  0
    6.7460  -14.7859   20.9136 C   0  0  0  0  0  0  0  0  0  0  0  0
    7.9825  -15.5025   21.3301 C   0  0  0  0  0  0  0  0  0  0  0  0
    7.7702  -16.8927   21.8345 C   0  0  2  0  0  0  0  0  0  0  0  0
    6.7574  -16.9216   22.8803 N   0  0  0  0  0  0  0  0  0  0  0  0
    9.0438  -17.3677   22.4649 C   0  0  0  0  0  0  0  0  0  0  0  0
    9.7451  -18.2965   21.9582 O   0  0  0  0  0  0  0  0  0  0  0  0
   11.8688  -15.1603   23.0357 O   0  0  0  0  0  0  0  0  0  0  0  0
   11.9377  -16.5366   23.2146 C   0  0  0  0  0  0  0  0  0  0  0  0
   10.8751  -17.0540   24.1601 C   0  0  2  0  0  0  0  0  0  0  0  0
    9.5413  -16.8002   23.6744 N   0  0  0  0  0  0  0  0  0  0  0  0
   11.1269  -16.4086   25.4743 C   0  0  0  0  0  0  0  0  0  0  0  0
   12.2806  -15.9598   25.6945 O   0  0  0  0  0  0  0  0  0  0  0  0
    6.5642  -12.1472   24.8906 O   0  0  0  0  0  0  0  0  0  0  0  0
    7.3011  -12.8668   25.8108 C   0  0  0  0  0  0  0  0  0  0  0  0
    8.4360  -12.3441   26.3948 C   0  0  0  0  0  0  0  0  0  0  0  0
    9.1207  -13.1199   27.3048 C   0  0  0  0  0  0  0  0  0  0  0  0
    8.6692  -14.4083   27.6246 C   0  0  0  0  0  0  0  0  0  0  0  0
    9.4181  -15.2482   28.5827 C   0  0  0  0  0  0  0  0  0  0  0  0
   10.5567  -15.9294   27.8813 C   0  0  2  0  0  0  0  0  0  0  0  0
   10.1650  -16.2625   26.4935 N   0  0  0  0  0  0  0  0  0  0  0  0
   10.9618  -17.1878   28.5225 C   0  0  0  0  0  0  0  0  0  0  0  0
   10.7569  -18.4168   27.9243 O   0  0  0  0  0  0  0  0  0  0  0  0
    7.5266  -14.9226   27.0302 C   0  0  0  0  0  0  0  0  0  0  0  0
    6.8452  -14.1429   26.1209 C   0  0  0  0  0  0  0  0  0  0  0  0
   11.5124  -17.1922   29.6495 O   0  0  0  0  0  0  0  0  0  0  0  0
  2  1  1  0
  3  2  1  0
  4  3  1  0
  5  7  1  0
  5  4  1  0
  5  6  1  1
  7  8  2  0
  9 10  1  0
 11 10  1  6
 11 12  1  0
 12  7  1  0
 13 11  1  0
 14 13  2  0
 16 15  1  0
 16 26  2  0
 17 16  1  0
 18 17  2  0
 18 19  1  0
 19 25  2  0
 20 19  1  0
 21 20  1  1
 21 22  1  0
 22 13  1  0
 23 24  1  0
 23 21  1  0
 25 26  1  0
 27 23  2  0
M  END
$$$$
