MSY.pdb
     RDKit          3D

 27 27  0  0  1  0  0  0  0  0999 V2000
    8.1020  -11.3259   26.5073 C   0  0  0  0  0  0  0  0  0  0  0  0
    6.3828  -11.7559   26.7660 S   0  0  0  0  0  0  0  0  0  0  0  0
    5.9822  -13.4524   26.3485 C   0  0  0  0  0  0  0  0  0  0  0  0
    7.0655  -14.2108   25.6651 C   0  0  0  0  0  0  0  0  0  0  0  0
    6.6510  -15.5231   25.0833 C   0  0  2  0  0  0  0  0  0  0  0  0
    6.1221  -16.4082   26.1114 N   0  0  0  0  0  0  0  0  0  0  0  0
    7.8664  -16.1994   24.5262 C   0  0  0  0  0  0  0  0  0  0  0  0
    8.6759  -16.8481   25.2578 O   0  0  0  0  0  0  0  0  0  0  0  0
    9.0897  -15.3260   20.6431 O   0  0  0  0  0  0  0  0  0  0  0  0
    9.4668  -16.5863   21.0909 C   0  0  0  0  0  0  0  0  0  0  0  0
    9.3967  -16.7131   22.5974 C   0  0  2  0  0  0  0  0  0  0  0  0
    8.1828  -16.1520   23.1369 N   0  0  0  0  0  0  0  0  0  0  0  0
   10.6109  -16.0476   23.1356 C   0  0  0  0  0  0  0  0  0  0  0  0
   10.6247  -14.7907   23.1660 O   0  0  0  0  0  0  0  0  0  0  0  0
    8.9498  -15.0797   29.0257 O   0  0  0  0  0  0  0  0  0  0  0  0
    9.9605  -15.4801   28.1738 C   0  0  0  0  0  0  0  0  0  0  0  0
   10.0231  -16.7673   27.6821 C   0  0  0  0  0  0  0  0  0  0  0  0
   11.0604  -17.0953   26.8364 C   0  0  0  0  0  0  0  0  0  0  0  0
   12.0252  -16.1391   26.4884 C   0  0  0  0  0  0  0  0  0  0  0  0
   13.1504  -16.4991   25.6004 C   0  0  0  0  0  0  0  0  0  0  0  0
   12.8877  -15.9897   24.2134 C   0  0  2  0  0  0  0  0  0  0  0  0
   11.7502  -16.7238   23.6152 N   0  0  0  0  0  0  0  0  0  0  0  0
   14.0304  -16.1644   23.3065 C   0  0  0  0  0  0  0  0  0  0  0  0
   13.9828  -17.0168   22.2197 O   0  0  0  0  0  0  0  0  0  0  0  0
   11.9511  -14.8481   26.9898 C   0  0  0  0  0  0  0  0  0  0  0  0
   10.9118  -14.5249   27.8350 C   0  0  0  0  0  0  0  0  0  0  0  0
   15.1032  -15.5406   23.4893 O   0  0  0  0  0  0  0  0  0  0  0  0
  2  1  1  0
  3  2  1  0
  4  3  1  0
  5  7  1  0
  5  4  1  0
  5  6  1  1
  7  8  2  0
  9 10  1  0
 11 10  1  6
 11 12  1  0
 12  7  1  0
 13 11  1  0
 14 13  2  0
 16 15  1  0
 16 26  2  0
 17 16  1  0
 18 17  2  0
 18 19  1  0
 19 25  2  0
 20 19  1  0
 21 20  1  1
 21 22  1  0
 22 13  1  0
 23 24  1  0
 23 21  1  0
 25 26  1  0
 27 23  2  0
M  END
$$$$
