EAN.pdb
     RDKit          3D

 23 22  0  0  1  0  0  0  0  0999 V2000
    9.9917  -15.2643   15.5959 N   0  0  0  0  0  0  0  0  0  0  0  0
   10.4156  -16.4940   16.2505 C   0  0  1  0  0  0  0  0  0  0  0  0
   11.8939  -16.6331   16.0679 C   0  0  0  0  0  0  0  0  0  0  0  0
   12.3275  -16.9442   14.6704 C   0  0  0  0  0  0  0  0  0  0  0  0
   13.7745  -17.2356   14.5407 C   0  0  0  0  0  0  0  0  0  0  0  0
   14.2955  -17.4441   13.4300 O   0  0  0  0  0  0  0  0  0  0  0  0
   10.1739  -16.3864   17.7341 C   0  0  0  0  0  0  0  0  0  0  0  0
   10.5626  -15.3512   18.3281 O   0  0  0  0  0  0  0  0  0  0  0  0
   14.6123  -17.2889   15.6521 O   0  0  0  0  0  0  0  0  0  0  0  0
    8.4717  -18.5165   20.3843 C   0  0  0  0  0  0  0  0  0  0  0  0
    9.3354  -17.3746   19.8960 C   0  0  2  0  0  0  0  0  0  0  0  0
    9.5349  -17.3894   18.4826 N   0  0  0  0  0  0  0  0  0  0  0  0
   10.5960  -17.3850   20.6651 C   0  0  0  0  0  0  0  0  0  0  0  0
   11.5157  -18.2086   20.4363 O   0  0  0  0  0  0  0  0  0  0  0  0
   13.0096  -13.9171   20.2971 N   0  0  0  0  0  0  0  0  0  0  0  0
   13.3935  -14.9951   21.1328 C   0  0  0  0  0  0  0  0  0  0  0  0
   14.2734  -15.7739   20.7004 O   0  0  0  0  0  0  0  0  0  0  0  0
   12.7856  -15.1970   22.4577 C   0  0  0  0  0  0  0  0  0  0  0  0
   12.0222  -16.5040   22.5368 C   0  0  2  0  0  0  0  0  0  0  0  0
   10.8316  -16.4389   21.7265 N   0  0  0  0  0  0  0  0  0  0  0  0
   11.6886  -16.8540   23.9218 C   0  0  0  0  0  0  0  0  0  0  0  0
   10.3902  -16.9296   24.4031 O   0  0  0  0  0  0  0  0  0  0  0  0
   12.6085  -17.1035   24.7375 O   0  0  0  0  0  0  0  0  0  0  0  0
  2  1  1  6
  3  2  1  0
  4  3  1  0
  4  5  1  0
  5  6  2  0
  7  2  1  0
  8  7  2  0
  9  5  1  0
 11 10  1  1
 11 12  1  0
 11 13  1  0
 12  7  1  0
 13 20  1  0
 14 13  2  0
 16 17  2  0
 16 15  1  0
 18 16  1  0
 19 18  1  1
 19 21  1  0
 20 19  1  0
 21 23  2  0
 21 22  1  0
M  END
$$$$
