EAN.pdb
     RDKit          3D

 23 22  0  0  1  0  0  0  0  0999 V2000
    7.1905  -13.7852   14.7076 N   0  0  0  0  0  0  0  0  0  0  0  0
    7.8983  -14.8377   15.4227 C   0  0  1  0  0  0  0  0  0  0  0  0
    9.0234  -15.3126   14.5587 C   0  0  0  0  0  0  0  0  0  0  0  0
    9.0195  -16.7811   14.2736 C   0  0  0  0  0  0  0  0  0  0  0  0
   10.1714  -17.2390   13.4619 C   0  0  0  0  0  0  0  0  0  0  0  0
   10.8682  -18.2074   13.8158 O   0  0  0  0  0  0  0  0  0  0  0  0
    8.5246  -14.2689   16.6699 C   0  0  0  0  0  0  0  0  0  0  0  0
    9.6152  -13.6567   16.5635 O   0  0  0  0  0  0  0  0  0  0  0  0
   10.5240  -16.6081   12.2712 O   0  0  0  0  0  0  0  0  0  0  0  0
    7.5551  -13.7697   20.2848 C   0  0  0  0  0  0  0  0  0  0  0  0
    8.5566  -14.0105   19.1770 C   0  0  2  0  0  0  0  0  0  0  0  0
    7.9458  -14.3917   17.9444 N   0  0  0  0  0  0  0  0  0  0  0  0
    9.5572  -14.9833   19.6598 C   0  0  0  0  0  0  0  0  0  0  0  0
    9.4568  -16.2153   19.4397 O   0  0  0  0  0  0  0  0  0  0  0  0
   13.5496  -14.1378   18.6125 N   0  0  0  0  0  0  0  0  0  0  0  0
   13.4637  -15.2556   19.4790 C   0  0  0  0  0  0  0  0  0  0  0  0
   13.7750  -16.3737   19.0093 O   0  0  0  0  0  0  0  0  0  0  0  0
   13.0266  -15.1146   20.8771 C   0  0  0  0  0  0  0  0  0  0  0  0
   11.5757  -15.5133   21.0592 C   0  0  2  0  0  0  0  0  0  0  0  0
   10.7087  -14.5583   20.4150 N   0  0  0  0  0  0  0  0  0  0  0  0
   11.2268  -15.6569   22.4769 C   0  0  0  0  0  0  0  0  0  0  0  0
   10.2361  -14.9151   23.1026 O   0  0  0  0  0  0  0  0  0  0  0  0
   11.8421  -16.4889   23.1860 O   0  0  0  0  0  0  0  0  0  0  0  0
  2  1  1  6
  3  2  1  0
  4  3  1  0
  4  5  1  0
  5  6  2  0
  7  2  1  0
  8  7  2  0
  9  5  1  0
 11 10  1  1
 11 12  1  0
 11 13  1  0
 12  7  1  0
 13 20  1  0
 14 13  2  0
 16 17  2  0
 16 15  1  0
 18 16  1  0
 19 18  1  1
 19 21  1  0
 20 19  1  0
 21 23  2  0
 21 22  1  0
M  END
$$$$
