EAN.pdb
     RDKit          3D

 23 22  0  0  1  0  0  0  0  0999 V2000
    8.6009  -14.8534   13.9749 N   0  0  0  0  0  0  0  0  0  0  0  0
    8.0424  -15.3184   15.2367 C   0  0  1  0  0  0  0  0  0  0  0  0
    8.2899  -16.7901   15.3413 C   0  0  0  0  0  0  0  0  0  0  0  0
    7.6497  -17.6124   14.2680 C   0  0  0  0  0  0  0  0  0  0  0  0
    7.7956  -19.0739   14.4628 C   0  0  0  0  0  0  0  0  0  0  0  0
    8.5713  -19.7462   13.7592 O   0  0  0  0  0  0  0  0  0  0  0  0
    8.7797  -14.6760   16.3835 C   0  0  0  0  0  0  0  0  0  0  0  0
   10.0346  -14.6751   16.3598 O   0  0  0  0  0  0  0  0  0  0  0  0
    7.0738  -19.7575   15.4383 O   0  0  0  0  0  0  0  0  0  0  0  0
    7.7947  -12.9521   19.6294 C   0  0  0  0  0  0  0  0  0  0  0  0
    8.7632  -13.5895   18.6578 C   0  0  2  0  0  0  0  0  0  0  0  0
    8.1288  -14.0790   17.4763 N   0  0  0  0  0  0  0  0  0  0  0  0
    9.5321  -14.6228   19.3802 C   0  0  0  0  0  0  0  0  0  0  0  0
    9.1793  -15.8275   19.4056 O   0  0  0  0  0  0  0  0  0  0  0  0
   13.9667  -13.4525   19.2649 N   0  0  0  0  0  0  0  0  0  0  0  0
   13.5890  -14.7248   19.7613 C   0  0  0  0  0  0  0  0  0  0  0  0
   13.8698  -15.7233   19.0598 O   0  0  0  0  0  0  0  0  0  0  0  0
   12.8939  -14.8736   21.0498 C   0  0  0  0  0  0  0  0  0  0  0  0
   11.4462  -15.2838   20.8677 C   0  0  2  0  0  0  0  0  0  0  0  0
   10.7374  -14.2921   20.0977 N   0  0  0  0  0  0  0  0  0  0  0  0
   10.7817  -15.5133   22.1553 C   0  0  0  0  0  0  0  0  0  0  0  0
   11.2047  -16.4561   23.0801 O   0  0  0  0  0  0  0  0  0  0  0  0
    9.7731  -14.8337   22.4627 O   0  0  0  0  0  0  0  0  0  0  0  0
  2  1  1  6
  3  2  1  0
  4  3  1  0
  4  5  1  0
  5  6  2  0
  7  2  1  0
  8  7  2  0
  9  5  1  0
 11 10  1  1
 11 12  1  0
 11 13  1  0
 12  7  1  0
 13 20  1  0
 14 13  2  0
 16 17  2  0
 16 15  1  0
 18 16  1  0
 19 18  1  1
 19 21  1  0
 20 19  1  0
 21 23  2  0
 21 22  1  0
M  END
$$$$
