EAN.pdb
     RDKit          3D

 23 22  0  0  1  0  0  0  0  0999 V2000
    8.0326  -13.2602   15.3139 N   0  0  0  0  0  0  0  0  0  0  0  0
    7.4046  -14.0628   16.3539 C   0  0  1  0  0  0  0  0  0  0  0  0
    7.4499  -15.4960   15.9272 C   0  0  0  0  0  0  0  0  0  0  0  0
    8.6940  -15.8952   15.1988 C   0  0  0  0  0  0  0  0  0  0  0  0
    8.6439  -17.2614   14.6272 C   0  0  0  0  0  0  0  0  0  0  0  0
    9.4613  -17.6326   13.7655 O   0  0  0  0  0  0  0  0  0  0  0  0
    8.2111  -13.9666   17.6234 C   0  0  0  0  0  0  0  0  0  0  0  0
    9.4629  -14.0035   17.5388 O   0  0  0  0  0  0  0  0  0  0  0  0
    7.6832  -18.1870   15.0278 O   0  0  0  0  0  0  0  0  0  0  0  0
    7.4232  -13.5482   21.3226 C   0  0  0  0  0  0  0  0  0  0  0  0
    8.3371  -13.6918   20.1258 C   0  0  2  0  0  0  0  0  0  0  0  0
    7.6282  -13.8378   18.8954 N   0  0  0  0  0  0  0  0  0  0  0  0
    9.2803  -14.7963   20.3924 C   0  0  0  0  0  0  0  0  0  0  0  0
    9.0749  -15.9672   19.9885 O   0  0  0  0  0  0  0  0  0  0  0  0
   13.3553  -13.4216   19.4892 N   0  0  0  0  0  0  0  0  0  0  0  0
   13.1186  -14.7760   19.8319 C   0  0  0  0  0  0  0  0  0  0  0  0
   13.1510  -15.6184   18.9061 O   0  0  0  0  0  0  0  0  0  0  0  0
   12.8448  -15.1830   21.2193 C   0  0  0  0  0  0  0  0  0  0  0  0
   11.4161  -15.6562   21.3987 C   0  0  2  0  0  0  0  0  0  0  0  0
   10.4946  -14.5786   21.1374 N   0  0  0  0  0  0  0  0  0  0  0  0
   11.1942  -16.2155   22.7366 C   0  0  0  0  0  0  0  0  0  0  0  0
   11.8789  -17.3149   23.2323 O   0  0  0  0  0  0  0  0  0  0  0  0
   10.3444  -15.6905   23.4954 O   0  0  0  0  0  0  0  0  0  0  0  0
  2  1  1  6
  3  2  1  0
  4  3  1  0
  4  5  1  0
  5  6  2  0
  7  2  1  0
  8  7  2  0
  9  5  1  0
 11 10  1  1
 11 12  1  0
 11 13  1  0
 12  7  1  0
 13 20  1  0
 14 13  2  0
 16 17  2  0
 16 15  1  0
 18 16  1  0
 19 18  1  1
 19 21  1  0
 20 19  1  0
 21 23  2  0
 21 22  1  0
M  END
$$$$
