EAN.pdb
     RDKit          3D

 23 22  0  0  1  0  0  0  0  0999 V2000
    8.6305  -13.2735   16.9545 N   0  0  0  0  0  0  0  0  0  0  0  0
    9.1837  -14.1857   17.9455 C   0  0  1  0  0  0  0  0  0  0  0  0
   10.6746  -14.1548   17.8259 C   0  0  0  0  0  0  0  0  0  0  0  0
   11.3978  -15.0860   18.7466 C   0  0  0  0  0  0  0  0  0  0  0  0
   12.8622  -15.1329   18.5257 C   0  0  0  0  0  0  0  0  0  0  0  0
   13.6298  -14.3445   19.1067 O   0  0  0  0  0  0  0  0  0  0  0  0
    8.8531  -13.6899   19.3297 C   0  0  0  0  0  0  0  0  0  0  0  0
    9.4192  -12.6478   19.7409 O   0  0  0  0  0  0  0  0  0  0  0  0
   13.4422  -16.0582   17.6610 O   0  0  0  0  0  0  0  0  0  0  0  0
    6.3229  -14.5089   22.0151 C   0  0  0  0  0  0  0  0  0  0  0  0
    7.6463  -13.9637   21.5256 C   0  0  2  0  0  0  0  0  0  0  0  0
    7.9422  -14.3388   20.1804 N   0  0  0  0  0  0  0  0  0  0  0  0
    8.6948  -14.3588   22.4875 C   0  0  0  0  0  0  0  0  0  0  0  0
    8.5658  -14.1969   23.7259 O   0  0  0  0  0  0  0  0  0  0  0  0
   12.3092  -17.1180   24.7833 N   0  0  0  0  0  0  0  0  0  0  0  0
   10.9601  -17.5000   24.5790 C   0  0  0  0  0  0  0  0  0  0  0  0
   10.5461  -18.5060   25.1990 O   0  0  0  0  0  0  0  0  0  0  0  0
   10.0751  -16.7481   23.6750 C   0  0  0  0  0  0  0  0  0  0  0  0
   10.8100  -15.6277   22.9665 C   0  0  2  0  0  0  0  0  0  0  0  0
    9.9294  -14.9555   22.0438 N   0  0  0  0  0  0  0  0  0  0  0  0
   12.0087  -16.1168   22.2766 C   0  0  0  0  0  0  0  0  0  0  0  0
   12.0062  -17.1946   21.4041 O   0  0  0  0  0  0  0  0  0  0  0  0
   13.1102  -15.5477   22.4678 O   0  0  0  0  0  0  0  0  0  0  0  0
  2  1  1  6
  3  2  1  0
  4  3  1  0
  4  5  1  0
  5  6  2  0
  7  2  1  0
  8  7  2  0
  9  5  1  0
 11 10  1  1
 11 12  1  0
 11 13  1  0
 12  7  1  0
 13 20  1  0
 14 13  2  0
 16 17  2  0
 16 15  1  0
 18 16  1  0
 19 18  1  6
 19 21  1  0
 20 19  1  0
 21 23  2  0
 21 22  1  0
M  END
$$$$
