EAN.pdb
     RDKit          3D

 23 22  0  0  1  0  0  0  0  0999 V2000
   10.2092  -19.1098   21.2866 N   0  0  0  0  0  0  0  0  0  0  0  0
   10.8816  -17.8264   21.4313 C   0  0  1  0  0  0  0  0  0  0  0  0
   11.2034  -17.3124   20.0637 C   0  0  0  0  0  0  0  0  0  0  0  0
   11.4343  -18.3718   19.0330 C   0  0  0  0  0  0  0  0  0  0  0  0
   11.6904  -17.8420   17.6732 C   0  0  0  0  0  0  0  0  0  0  0  0
   12.8124  -17.4149   17.3459 O   0  0  0  0  0  0  0  0  0  0  0  0
    9.9392  -16.8290   22.0545 C   0  0  0  0  0  0  0  0  0  0  0  0
   10.3766  -15.6842   22.3260 O   0  0  0  0  0  0  0  0  0  0  0  0
   10.6903  -17.7987   16.7047 O   0  0  0  0  0  0  0  0  0  0  0  0
    6.2761  -16.3343   22.4836 C   0  0  0  0  0  0  0  0  0  0  0  0
    7.6854  -16.2582   23.0281 C   0  0  2  0  0  0  0  0  0  0  0  0
    8.5957  -17.1202   22.3455 N   0  0  0  0  0  0  0  0  0  0  0  0
    7.6333  -16.4970   24.4844 C   0  0  0  0  0  0  0  0  0  0  0  0
    6.8321  -15.8897   25.2365 O   0  0  0  0  0  0  0  0  0  0  0  0
    6.5605  -20.4206   25.1884 N   0  0  0  0  0  0  0  0  0  0  0  0
    6.7589  -19.5501   26.2887 C   0  0  0  0  0  0  0  0  0  0  0  0
    5.7388  -19.0916   26.8516 O   0  0  0  0  0  0  0  0  0  0  0  0
    8.1083  -19.1951   26.7564 C   0  0  0  0  0  0  0  0  0  0  0  0
    8.4187  -17.7292   26.5286 C   0  0  2  0  0  0  0  0  0  0  0  0
    8.5103  -17.4497   25.1172 N   0  0  0  0  0  0  0  0  0  0  0  0
    9.6472  -17.3215   27.2190 C   0  0  0  0  0  0  0  0  0  0  0  0
   10.8190  -16.9777   26.5619 O   0  0  0  0  0  0  0  0  0  0  0  0
    9.6673  -17.2722   28.4723 O   0  0  0  0  0  0  0  0  0  0  0  0
  2  1  1  6
  3  2  1  0
  4  3  1  0
  4  5  1  0
  5  6  2  0
  7  2  1  0
  8  7  2  0
  9  5  1  0
 11 10  1  6
 11 12  1  0
 11 13  1  0
 12  7  1  0
 13 20  1  0
 14 13  2  0
 16 17  2  0
 16 15  1  0
 18 16  1  0
 19 18  1  6
 19 21  1  0
 20 19  1  0
 21 23  2  0
 21 22  1  0
M  END
$$$$
