EAN.pdb
     RDKit          3D

 23 22  0  0  1  0  0  0  0  0999 V2000
    8.7537  -14.9360   13.7731 N   0  0  0  0  0  0  0  0  0  0  0  0
    8.0399  -15.2568   15.0011 C   0  0  1  0  0  0  0  0  0  0  0  0
    8.0061  -16.7455   15.1448 C   0  0  0  0  0  0  0  0  0  0  0  0
    9.3098  -17.4313   14.8842 C   0  0  0  0  0  0  0  0  0  0  0  0
    9.2586  -18.9028   15.0495 C   0  0  0  0  0  0  0  0  0  0  0  0
   10.1984  -19.5282   15.5731 O   0  0  0  0  0  0  0  0  0  0  0  0
    8.8077  -14.7280   16.1852 C   0  0  0  0  0  0  0  0  0  0  0  0
   10.0618  -14.7664   16.1483 O   0  0  0  0  0  0  0  0  0  0  0  0
    8.1603  -19.6484   14.6277 O   0  0  0  0  0  0  0  0  0  0  0  0
    7.9141  -13.1760   19.5419 C   0  0  0  0  0  0  0  0  0  0  0  0
    8.8534  -13.5696   18.4234 C   0  0  2  0  0  0  0  0  0  0  0  0
    8.1862  -14.1947   17.3271 N   0  0  0  0  0  0  0  0  0  0  0  0
    9.9368  -14.3936   18.9961 C   0  0  0  0  0  0  0  0  0  0  0  0
    9.9211  -15.6483   18.9523 O   0  0  0  0  0  0  0  0  0  0  0  0
   15.6319  -14.9649   19.7786 N   0  0  0  0  0  0  0  0  0  0  0  0
   14.5970  -14.5337   20.6453 C   0  0  0  0  0  0  0  0  0  0  0  0
   14.6951  -14.8386   21.8557 O   0  0  0  0  0  0  0  0  0  0  0  0
   13.4495  -13.7578   20.1484 C   0  0  0  0  0  0  0  0  0  0  0  0
   12.1805  -14.5858   20.1107 C   0  0  2  0  0  0  0  0  0  0  0  0
   11.0757  -13.7885   19.6392 N   0  0  0  0  0  0  0  0  0  0  0  0
   11.8759  -15.1711   21.4209 C   0  0  0  0  0  0  0  0  0  0  0  0
   10.8799  -14.6965   22.2609 O   0  0  0  0  0  0  0  0  0  0  0  0
   12.5370  -16.1559   21.8292 O   0  0  0  0  0  0  0  0  0  0  0  0
  2  1  1  6
  3  2  1  0
  4  3  1  0
  4  5  1  0
  5  6  2  0
  7  2  1  0
  8  7  2  0
  9  5  1  0
 11 10  1  1
 11 12  1  0
 11 13  1  0
 12  7  1  0
 13 20  1  0
 14 13  2  0
 16 17  2  0
 16 15  1  0
 18 16  1  0
 19 18  1  1
 19 21  1  0
 20 19  1  0
 21 23  2  0
 21 22  1  0
M  END
$$$$
