EAN.pdb
     RDKit          3D

 23 22  0  0  1  0  0  0  0  0999 V2000
    9.8234  -15.9109   20.7799 N   0  0  0  0  0  0  0  0  0  0  0  0
    8.9056  -16.2411   21.8610 C   0  0  1  0  0  0  0  0  0  0  0  0
    8.9170  -17.7257   22.0445 C   0  0  0  0  0  0  0  0  0  0  0  0
   10.2761  -18.3504   22.0251 C   0  0  0  0  0  0  0  0  0  0  0  0
   10.2593  -19.8294   22.1139 C   0  0  0  0  0  0  0  0  0  0  0  0
    9.6125  -20.5188   21.3048 O   0  0  0  0  0  0  0  0  0  0  0  0
    9.4078  -15.6447   23.1508 C   0  0  0  0  0  0  0  0  0  0  0  0
   10.6476  -15.5393   23.3162 O   0  0  0  0  0  0  0  0  0  0  0  0
   10.9641  -20.5108   23.1034 O   0  0  0  0  0  0  0  0  0  0  0  0
    7.8276  -13.8506   26.0894 C   0  0  0  0  0  0  0  0  0  0  0  0
    8.9642  -14.5507   25.3778 C   0  0  2  0  0  0  0  0  0  0  0  0
    8.5543  -15.2017   24.1754 N   0  0  0  0  0  0  0  0  0  0  0  0
    9.6243  -15.4573   26.3385 C   0  0  0  0  0  0  0  0  0  0  0  0
    9.1574  -16.5869   26.6258 O   0  0  0  0  0  0  0  0  0  0  0  0
   14.0245  -15.0791   25.7263 N   0  0  0  0  0  0  0  0  0  0  0  0
   13.4763  -16.1063   26.5338 C   0  0  0  0  0  0  0  0  0  0  0  0
   13.4309  -17.2591   26.0471 O   0  0  0  0  0  0  0  0  0  0  0  0
   12.9782  -15.8355   27.8918 C   0  0  0  0  0  0  0  0  0  0  0  0
   11.4688  -15.9460   27.9733 C   0  0  2  0  0  0  0  0  0  0  0  0
   10.8496  -15.0830   26.9985 N   0  0  0  0  0  0  0  0  0  0  0  0
   10.9752  -15.6441   29.3214 C   0  0  0  0  0  0  0  0  0  0  0  0
   11.2757  -16.4093   30.4382 O   0  0  0  0  0  0  0  0  0  0  0  0
   10.2389  -14.6448   29.5031 O   0  0  0  0  0  0  0  0  0  0  0  0
  2  1  1  6
  3  2  1  0
  4  3  1  0
  4  5  1  0
  5  6  2  0
  7  2  1  0
  8  7  2  0
  9  5  1  0
 11 10  1  1
 11 12  1  0
 11 13  1  0
 12  7  1  0
 13 20  1  0
 14 13  2  0
 16 17  2  0
 16 15  1  0
 18 16  1  0
 19 18  1  1
 19 21  1  0
 20 19  1  0
 21 23  2  0
 21 22  1  0
M  END
$$$$
