EAN.pdb
     RDKit          3D

 23 22  0  0  1  0  0  0  0  0999 V2000
   10.1545  -18.7326   20.4554 N   0  0  0  0  0  0  0  0  0  0  0  0
   11.2956  -17.9176   20.8478 C   0  0  1  0  0  0  0  0  0  0  0  0
   11.9485  -17.4011   19.6047 C   0  0  0  0  0  0  0  0  0  0  0  0
   11.5865  -18.1365   18.3534 C   0  0  0  0  0  0  0  0  0  0  0  0
   12.5397  -17.9303   17.2378 C   0  0  0  0  0  0  0  0  0  0  0  0
   13.5417  -17.2041   17.3688 O   0  0  0  0  0  0  0  0  0  0  0  0
   10.8164  -16.7119   21.6144 C   0  0  0  0  0  0  0  0  0  0  0  0
   11.6731  -15.9158   22.0703 O   0  0  0  0  0  0  0  0  0  0  0  0
   12.3570  -18.5380   15.9979 O   0  0  0  0  0  0  0  0  0  0  0  0
    7.6028  -14.8553   22.1160 C   0  0  0  0  0  0  0  0  0  0  0  0
    8.9446  -15.3487   22.6103 C   0  0  2  0  0  0  0  0  0  0  0  0
    9.4573  -16.4375   21.8426 N   0  0  0  0  0  0  0  0  0  0  0  0
    8.8250  -15.6531   24.0504 C   0  0  0  0  0  0  0  0  0  0  0  0
    8.3957  -14.8148   24.8807 O   0  0  0  0  0  0  0  0  0  0  0  0
    6.2576  -17.1515   26.0621 N   0  0  0  0  0  0  0  0  0  0  0  0
    6.8676  -18.4258   26.1708 C   0  0  0  0  0  0  0  0  0  0  0  0
    6.1128  -19.4168   26.2970 O   0  0  0  0  0  0  0  0  0  0  0  0
    8.3303  -18.5849   26.1373 C   0  0  0  0  0  0  0  0  0  0  0  0
    9.0404  -17.2559   25.9734 C   0  0  2  0  0  0  0  0  0  0  0  0
    9.1998  -16.9419   24.5754 N   0  0  0  0  0  0  0  0  0  0  0  0
   10.3376  -17.2463   26.6584 C   0  0  0  0  0  0  0  0  0  0  0  0
   10.4781  -17.3018   28.0370 O   0  0  0  0  0  0  0  0  0  0  0  0
   11.3942  -17.1851   25.9852 O   0  0  0  0  0  0  0  0  0  0  0  0
  2  1  1  6
  3  2  1  0
  4  3  1  0
  4  5  1  0
  5  6  2  0
  7  2  1  0
  8  7  2  0
  9  5  1  0
 11 10  1  6
 11 12  1  0
 11 13  1  0
 12  7  1  0
 13 20  1  0
 14 13  2  0
 16 17  2  0
 16 15  1  0
 18 16  1  0
 19 18  1  6
 19 21  1  0
 20 19  1  0
 21 23  2  0
 21 22  1  0
M  END
$$$$
