EAN.pdb
     RDKit          3D

 23 22  0  0  1  0  0  0  0  0999 V2000
    8.9899  -14.9282   15.2629 N   0  0  0  0  0  0  0  0  0  0  0  0
    8.2824  -15.5259   16.3865 C   0  0  1  0  0  0  0  0  0  0  0  0
    8.5063  -17.0045   16.3445 C   0  0  0  0  0  0  0  0  0  0  0  0
    7.4259  -17.7841   15.6642 C   0  0  0  0  0  0  0  0  0  0  0  0
    6.8858  -18.8987   16.4774 C   0  0  0  0  0  0  0  0  0  0  0  0
    7.5427  -19.9382   16.6678 O   0  0  0  0  0  0  0  0  0  0  0  0
    8.8821  -15.0369   17.6798 C   0  0  0  0  0  0  0  0  0  0  0  0
   10.1204  -15.1569   17.8459 O   0  0  0  0  0  0  0  0  0  0  0  0
    5.6235  -18.8324   17.0626 O   0  0  0  0  0  0  0  0  0  0  0  0
    7.5634  -13.3666   20.8340 C   0  0  0  0  0  0  0  0  0  0  0  0
    8.6250  -14.0021   19.9637 C   0  0  2  0  0  0  0  0  0  0  0  0
    8.1209  -14.4538   18.7069 N   0  0  0  0  0  0  0  0  0  0  0  0
    9.2891  -15.0653   20.7443 C   0  0  0  0  0  0  0  0  0  0  0  0
    8.9731  -16.2755   20.6354 O   0  0  0  0  0  0  0  0  0  0  0  0
   13.9061  -14.1555   21.0069 N   0  0  0  0  0  0  0  0  0  0  0  0
   13.2415  -15.3425   21.4031 C   0  0  0  0  0  0  0  0  0  0  0  0
   13.3363  -16.3356   20.6465 O   0  0  0  0  0  0  0  0  0  0  0  0
   12.4687  -15.4119   22.6536 C   0  0  0  0  0  0  0  0  0  0  0  0
   11.0249  -15.8006   22.4056 C   0  0  2  0  0  0  0  0  0  0  0  0
   10.3432  -14.7591   21.6782 N   0  0  0  0  0  0  0  0  0  0  0  0
   10.3225  -16.1043   23.6572 C   0  0  0  0  0  0  0  0  0  0  0  0
    9.1562  -15.4691   24.0566 O   0  0  0  0  0  0  0  0  0  0  0  0
   10.7796  -16.9823   24.4278 O   0  0  0  0  0  0  0  0  0  0  0  0
  2  1  1  6
  3  2  1  0
  4  3  1  0
  4  5  1  0
  5  6  2  0
  7  2  1  0
  8  7  2  0
  9  5  1  0
 11 10  1  1
 11 12  1  0
 11 13  1  0
 12  7  1  0
 13 20  1  0
 14 13  2  0
 16 17  2  0
 16 15  1  0
 18 16  1  0
 19 18  1  1
 19 21  1  0
 20 19  1  0
 21 23  2  0
 21 22  1  0
M  END
$$$$
