EAN.pdb
     RDKit          3D

 23 22  0  0  1  0  0  0  0  0999 V2000
    8.5394  -16.3026   16.1339 N   0  0  0  0  0  0  0  0  0  0  0  0
    7.8008  -16.5801   17.3577 C   0  0  1  0  0  0  0  0  0  0  0  0
    7.8349  -18.0564   17.5976 C   0  0  0  0  0  0  0  0  0  0  0  0
    7.2712  -18.8860   16.4878 C   0  0  0  0  0  0  0  0  0  0  0  0
    7.2293  -20.3373   16.7837 C   0  0  0  0  0  0  0  0  0  0  0  0
    6.1811  -20.8902   17.1633 O   0  0  0  0  0  0  0  0  0  0  0  0
    8.5011  -15.9382   18.5277 C   0  0  0  0  0  0  0  0  0  0  0  0
    9.7373  -16.1160   18.6535 O   0  0  0  0  0  0  0  0  0  0  0  0
    8.3570  -21.1438   16.6505 O   0  0  0  0  0  0  0  0  0  0  0  0
    7.4542  -13.7574   21.4651 C   0  0  0  0  0  0  0  0  0  0  0  0
    8.4301  -14.5709   20.6440 C   0  0  2  0  0  0  0  0  0  0  0  0
    7.8359  -15.1511   19.4829 N   0  0  0  0  0  0  0  0  0  0  0  0
    9.0692  -15.5626   21.5321 C   0  0  0  0  0  0  0  0  0  0  0  0
    8.5988  -16.7143   21.7015 O   0  0  0  0  0  0  0  0  0  0  0  0
   13.5931  -14.8501   21.4627 N   0  0  0  0  0  0  0  0  0  0  0  0
   13.0764  -15.9984   22.1125 C   0  0  0  0  0  0  0  0  0  0  0  0
   13.2792  -17.1079   21.5688 O   0  0  0  0  0  0  0  0  0  0  0  0
   12.3301  -15.8976   23.3769 C   0  0  0  0  0  0  0  0  0  0  0  0
   10.8542  -16.1856   23.1872 C   0  0  2  0  0  0  0  0  0  0  0  0
   10.2770  -15.2506   22.2539 N   0  0  0  0  0  0  0  0  0  0  0  0
   10.1288  -16.1609   24.4620 C   0  0  0  0  0  0  0  0  0  0  0  0
    9.1644  -15.2159   24.7783 O   0  0  0  0  0  0  0  0  0  0  0  0
   10.3742  -17.0303   25.3324 O   0  0  0  0  0  0  0  0  0  0  0  0
  2  1  1  6
  3  2  1  0
  4  3  1  0
  4  5  1  0
  5  6  2  0
  7  2  1  0
  8  7  2  0
  9  5  1  0
 11 10  1  1
 11 12  1  0
 11 13  1  0
 12  7  1  0
 13 20  1  0
 14 13  2  0
 16 17  2  0
 16 15  1  0
 18 16  1  0
 19 18  1  1
 19 21  1  0
 20 19  1  0
 21 23  2  0
 21 22  1  0
M  END
$$$$
