EAN.pdb
     RDKit          3D

 23 22  0  0  1  0  0  0  0  0999 V2000
    7.1904  -15.2948   19.7895 N   0  0  0  0  0  0  0  0  0  0  0  0
    8.4729  -14.6054   19.7955 C   0  0  1  0  0  0  0  0  0  0  0  0
    8.3185  -13.3279   19.0324 C   0  0  0  0  0  0  0  0  0  0  0  0
    7.5020  -13.4371   17.7838 C   0  0  0  0  0  0  0  0  0  0  0  0
    8.1025  -14.3088   16.7470 C   0  0  0  0  0  0  0  0  0  0  0  0
    8.9975  -13.8915   15.9899 O   0  0  0  0  0  0  0  0  0  0  0  0
    8.8344  -14.2218   21.2073 C   0  0  0  0  0  0  0  0  0  0  0  0
    9.8922  -13.5732   21.3968 O   0  0  0  0  0  0  0  0  0  0  0  0
    7.6933  -15.6290   16.5747 O   0  0  0  0  0  0  0  0  0  0  0  0
    7.1356  -13.8296   24.4799 C   0  0  0  0  0  0  0  0  0  0  0  0
    8.3491  -14.2502   23.6806 C   0  0  2  0  0  0  0  0  0  0  0  0
    8.0438  -14.5557   22.3200 N   0  0  0  0  0  0  0  0  0  0  0  0
    9.0131  -15.3592   24.3947 C   0  0  0  0  0  0  0  0  0  0  0  0
    9.4084  -15.2526   25.5816 O   0  0  0  0  0  0  0  0  0  0  0  0
   13.7160  -18.0292   22.9836 N   0  0  0  0  0  0  0  0  0  0  0  0
   12.8931  -17.3880   23.9426 C   0  0  0  0  0  0  0  0  0  0  0  0
   13.2556  -17.4407   25.1399 O   0  0  0  0  0  0  0  0  0  0  0  0
   11.6597  -16.6862   23.5530 C   0  0  0  0  0  0  0  0  0  0  0  0
   10.4195  -17.4105   24.0374 C   0  0  2  0  0  0  0  0  0  0  0  0
    9.2407  -16.6301   23.7546 N   0  0  0  0  0  0  0  0  0  0  0  0
   10.5008  -17.7277   25.4674 C   0  0  0  0  0  0  0  0  0  0  0  0
   10.3566  -16.7834   26.4727 O   0  0  0  0  0  0  0  0  0  0  0  0
   10.7114  -18.9102   25.8296 O   0  0  0  0  0  0  0  0  0  0  0  0
  2  1  1  1
  3  2  1  0
  4  3  1  0
  4  5  1  0
  5  6  2  0
  7  2  1  0
  8  7  2  0
  9  5  1  0
 11 10  1  1
 11 12  1  0
 11 13  1  0
 12  7  1  0
 13 20  1  0
 14 13  2  0
 16 17  2  0
 16 15  1  0
 18 16  1  0
 19 18  1  1
 19 21  1  0
 20 19  1  0
 21 23  2  0
 21 22  1  0
M  END
$$$$
