EAN.pdb
     RDKit          3D

 23 22  0  0  1  0  0  0  0  0999 V2000
    9.3351  -16.5403   18.6893 N   0  0  0  0  0  0  0  0  0  0  0  0
    8.8225  -16.9338   19.9941 C   0  0  1  0  0  0  0  0  0  0  0  0
    9.5211  -18.1898   20.4095 C   0  0  0  0  0  0  0  0  0  0  0  0
    9.9986  -19.0458   19.2795 C   0  0  0  0  0  0  0  0  0  0  0  0
   10.6205  -20.3195   19.7113 C   0  0  0  0  0  0  0  0  0  0  0  0
   11.7227  -20.6855   19.2644 O   0  0  0  0  0  0  0  0  0  0  0  0
    9.1803  -15.8850   21.0155 C   0  0  0  0  0  0  0  0  0  0  0  0
   10.3802  -15.5282   21.1087 O   0  0  0  0  0  0  0  0  0  0  0  0
   10.0013  -21.1602   20.6331 O   0  0  0  0  0  0  0  0  0  0  0  0
    7.2816  -13.7396   23.5130 C   0  0  0  0  0  0  0  0  0  0  0  0
    8.5237  -14.3577   22.9102 C   0  0  2  0  0  0  0  0  0  0  0  0
    8.2351  -15.2886   21.8672 N   0  0  0  0  0  0  0  0  0  0  0  0
    9.3314  -14.9353   24.0032 C   0  0  0  0  0  0  0  0  0  0  0  0
    9.5492  -14.3191   25.0753 O   0  0  0  0  0  0  0  0  0  0  0  0
   10.1812  -19.1776   27.7069 N   0  0  0  0  0  0  0  0  0  0  0  0
   10.3832  -17.8605   27.2250 C   0  0  0  0  0  0  0  0  0  0  0  0
   11.1878  -17.1348   27.8524 O   0  0  0  0  0  0  0  0  0  0  0  0
    9.6781  -17.3594   26.0344 C   0  0  0  0  0  0  0  0  0  0  0  0
   10.6399  -16.8438   24.9825 C   0  0  2  0  0  0  0  0  0  0  0  0
    9.9139  -16.2485   23.8884 N   0  0  0  0  0  0  0  0  0  0  0  0
   11.5320  -17.9027   24.4980 C   0  0  0  0  0  0  0  0  0  0  0  0
   11.2207  -18.7450   23.4412 O   0  0  0  0  0  0  0  0  0  0  0  0
   12.6440  -18.0786   25.0515 O   0  0  0  0  0  0  0  0  0  0  0  0
  2  1  1  6
  3  2  1  0
  4  3  1  0
  4  5  1  0
  5  6  2  0
  7  2  1  0
  8  7  2  0
  9  5  1  0
 11 10  1  1
 11 12  1  0
 11 13  1  0
 12  7  1  0
 13 20  1  0
 14 13  2  0
 16 17  2  0
 16 15  1  0
 18 16  1  0
 19 18  1  1
 19 21  1  0
 20 19  1  0
 21 23  2  0
 21 22  1  0
M  END
$$$$
