EAN.pdb
     RDKit          3D

 23 22  0  0  1  0  0  0  0  0999 V2000
   11.0582  -17.4934   17.2627 N   0  0  0  0  0  0  0  0  0  0  0  0
   10.9899  -17.7544   18.6935 C   0  0  1  0  0  0  0  0  0  0  0  0
   12.3767  -18.0272   19.1839 C   0  0  0  0  0  0  0  0  0  0  0  0
   13.4368  -17.9767   18.1296 C   0  0  0  0  0  0  0  0  0  0  0  0
   14.7936  -18.3069   18.6250 C   0  0  0  0  0  0  0  0  0  0  0  0
   14.9981  -19.3114   19.3305 O   0  0  0  0  0  0  0  0  0  0  0  0
   10.5158  -16.5170   19.4114 C   0  0  0  0  0  0  0  0  0  0  0  0
   11.2474  -15.4973   19.3888 O   0  0  0  0  0  0  0  0  0  0  0  0
   15.8960  -17.5106   18.3240 O   0  0  0  0  0  0  0  0  0  0  0  0
    7.3241  -15.3897   21.1068 C   0  0  0  0  0  0  0  0  0  0  0  0
    8.8105  -15.3243   20.8336 C   0  0  2  0  0  0  0  0  0  0  0  0
    9.2949  -16.4515   20.1039 N   0  0  0  0  0  0  0  0  0  0  0  0
    9.5091  -15.1140   22.1175 C   0  0  0  0  0  0  0  0  0  0  0  0
    9.0524  -14.3652   23.0159 O   0  0  0  0  0  0  0  0  0  0  0  0
   10.2713  -16.5911   26.7926 N   0  0  0  0  0  0  0  0  0  0  0  0
   10.3974  -17.4852   25.7005 C   0  0  0  0  0  0  0  0  0  0  0  0
   10.8014  -18.6440   25.9486 O   0  0  0  0  0  0  0  0  0  0  0  0
   10.0681  -17.0740   24.3264 C   0  0  0  0  0  0  0  0  0  0  0  0
   11.1191  -16.1493   23.7453 C   0  0  2  0  0  0  0  0  0  0  0  0
   10.7623  -15.7664   22.4019 N   0  0  0  0  0  0  0  0  0  0  0  0
   12.4531  -16.7589   23.7740 C   0  0  0  0  0  0  0  0  0  0  0  0
   13.4779  -16.3246   24.6013 O   0  0  0  0  0  0  0  0  0  0  0  0
   12.7088  -17.7278   23.0193 O   0  0  0  0  0  0  0  0  0  0  0  0
  2  1  1  6
  3  2  1  0
  4  3  1  0
  4  5  1  0
  5  6  2  0
  7  2  1  0
  8  7  2  0
  9  5  1  0
 11 10  1  1
 11 12  1  0
 11 13  1  0
 12  7  1  0
 13 20  1  0
 14 13  2  0
 16 17  2  0
 16 15  1  0
 18 16  1  0
 19 18  1  6
 19 21  1  0
 20 19  1  0
 21 23  2  0
 21 22  1  0
M  END
$$$$
