EAN.pdb
     RDKit          3D

 23 22  0  0  1  0  0  0  0  0999 V2000
    8.0903  -12.8734   16.8713 N   0  0  0  0  0  0  0  0  0  0  0  0
    7.9150  -14.1543   17.5411 C   0  0  1  0  0  0  0  0  0  0  0  0
    8.7292  -15.1762   16.8124 C   0  0  0  0  0  0  0  0  0  0  0  0
    8.1897  -15.5709   15.4741 C   0  0  0  0  0  0  0  0  0  0  0  0
    9.0754  -16.4842   14.7145 C   0  0  0  0  0  0  0  0  0  0  0  0
    9.7848  -16.0689   13.7803 O   0  0  0  0  0  0  0  0  0  0  0  0
    8.4747  -14.0754   18.9382 C   0  0  0  0  0  0  0  0  0  0  0  0
    9.6775  -13.7461   19.0810 O   0  0  0  0  0  0  0  0  0  0  0  0
    9.1528  -17.8428   15.0115 O   0  0  0  0  0  0  0  0  0  0  0  0
    7.0817  -14.3810   22.4566 C   0  0  0  0  0  0  0  0  0  0  0  0
    8.1920  -14.3152   21.4313 C   0  0  2  0  0  0  0  0  0  0  0  0
    7.7142  -14.3527   20.0867 N   0  0  0  0  0  0  0  0  0  0  0  0
    9.1679  -15.3809   21.7357 C   0  0  0  0  0  0  0  0  0  0  0  0
    9.2307  -16.4440   21.0706 O   0  0  0  0  0  0  0  0  0  0  0  0
   14.0049  -17.6328   22.3345 N   0  0  0  0  0  0  0  0  0  0  0  0
   13.5064  -16.7197   23.2966 C   0  0  0  0  0  0  0  0  0  0  0  0
   13.9713  -16.7946   24.4567 O   0  0  0  0  0  0  0  0  0  0  0  0
   12.4826  -15.7203   22.9520 C   0  0  0  0  0  0  0  0  0  0  0  0
   11.0793  -16.2735   23.1007 C   0  0  2  0  0  0  0  0  0  0  0  0
   10.1044  -15.2483   22.8230 N   0  0  0  0  0  0  0  0  0  0  0  0
   10.8618  -16.8492   24.4323 C   0  0  0  0  0  0  0  0  0  0  0  0
   11.3291  -18.0977   24.8146 O   0  0  0  0  0  0  0  0  0  0  0  0
   10.2213  -16.1985   25.2925 O   0  0  0  0  0  0  0  0  0  0  0  0
  2  1  1  6
  3  2  1  0
  4  3  1  0
  4  5  1  0
  5  6  2  0
  7  2  1  0
  8  7  2  0
  9  5  1  0
 11 10  1  1
 11 12  1  0
 11 13  1  0
 12  7  1  0
 13 20  1  0
 14 13  2  0
 16 17  2  0
 16 15  1  0
 18 16  1  0
 19 18  1  1
 19 21  1  0
 20 19  1  0
 21 23  2  0
 21 22  1  0
M  END
$$$$
