HNL.pdb
     RDKit          3D

 27 27  0  0  1  0  0  0  0  0999 V2000
   20.8787  -11.9635  -21.3333 N   0  0  0  0  0  0  0  0  0  0  0  0
   21.8025  -11.6786  -20.2569 C   0  0  1  0  0  0  0  0  0  0  0  0
   22.7201  -10.5801  -20.7833 C   0  0  0  0  0  0  0  0  0  0  0  0
   23.6515  -11.1956  -21.7644 C   0  0  0  0  0  0  0  0  0  0  0  0
   24.9169  -11.7034  -21.4890 C   0  0  0  0  0  0  0  0  0  0  0  0
   25.4627  -12.1738  -22.6237 N   0  0  0  0  0  0  0  0  0  0  0  0
   24.5867  -11.9846  -23.6254 C   0  0  0  0  0  0  0  0  0  0  0  0
   23.4948  -11.3937  -23.1010 N   0  0  0  0  0  0  0  0  0  0  0  0
   21.0214  -11.1508  -19.0865 C   0  0  0  0  0  0  0  0  0  0  0  0
   20.4503  -10.0621  -19.2708 O   0  0  0  0  0  0  0  0  0  0  0  0
   18.5623  -12.9304  -17.8596 N   0  0  0  0  0  0  0  0  0  0  0  0
   18.7628  -13.2172  -16.4611 C   0  0  0  0  0  0  0  0  0  0  0  0
   18.1020  -14.1444  -15.8977 O   0  0  0  0  0  0  0  0  0  0  0  0
   19.7438  -12.4019  -15.7469 C   0  0  0  0  0  0  0  0  0  0  0  0
   20.3795  -11.3906  -16.6718 C   0  0  2  0  0  0  0  0  0  0  0  0
   20.9400  -11.8292  -17.8755 N   0  0  0  0  0  0  0  0  0  0  0  0
   21.0544  -10.3777  -15.8882 C   0  0  0  0  0  0  0  0  0  0  0  0
   20.4470   -9.9372  -14.8626 O   0  0  0  0  0  0  0  0  0  0  0  0
   24.9182  -10.8344  -14.1355 C   0  0  0  0  0  0  0  0  0  0  0  0
   25.0188  -10.1760  -15.5141 C   0  0  2  0  0  0  0  0  0  0  0  0
   26.5042  -10.1172  -15.8410 C   0  0  0  0  0  0  0  0  0  0  0  0
   24.4224   -8.7963  -15.4791 C   0  0  0  0  0  0  0  0  0  0  0  0
   22.9577   -8.8569  -15.2545 C   0  0  2  0  0  0  0  0  0  0  0  0
   22.3127   -9.8266  -16.1376 N   0  0  0  0  0  0  0  0  0  0  0  0
   22.3291   -7.5615  -15.5519 C   0  0  0  0  0  0  0  0  0  0  0  0
   22.3493   -6.4330  -14.7483 O   0  0  0  0  0  0  0  0  0  0  0  0
   21.6799   -7.4093  -16.6559 O   0  0  0  0  0  0  0  0  0  0  0  0
  2  1  1  6
  2  3  1  0
  4  3  1  0
  5  4  2  0
  6  5  1  0
  7  6  1  0
  7  8  2  0
  8  4  1  0
  9  2  1  0
 10  9  2  0
 12 14  1  0
 12 11  1  0
 13 12  2  0
 15 14  1  1
 15 16  1  0
 16  9  1  0
 17 15  1  0
 17 18  2  0
 20 19  1  1
 20 22  1  0
 20 21  1  0
 23 22  1  6
 23 24  1  0
 24 17  1  0
 25 23  1  0
 26 25  1  0
 27 25  2  0
M  END
$$$$
