HNL.pdb
     RDKit          3D

 27 27  0  0  1  0  0  0  0  0999 V2000
   20.5721  -14.5139  -19.8937 N   0  0  0  0  0  0  0  0  0  0  0  0
   20.8237  -14.2939  -18.4861 C   0  0  1  0  0  0  0  0  0  0  0  0
   22.2595  -14.7503  -18.2493 C   0  0  0  0  0  0  0  0  0  0  0  0
   22.2872  -16.2334  -18.3407 C   0  0  0  0  0  0  0  0  0  0  0  0
   21.1952  -17.0850  -18.2100 C   0  0  0  0  0  0  0  0  0  0  0  0
   21.6059  -18.3574  -18.3482 N   0  0  0  0  0  0  0  0  0  0  0  0
   22.9324  -18.3534  -18.5645 C   0  0  0  0  0  0  0  0  0  0  0  0
   23.3387  -17.0683  -18.5590 N   0  0  0  0  0  0  0  0  0  0  0  0
   20.7219  -12.8203  -18.2090 C   0  0  0  0  0  0  0  0  0  0  0  0
   21.3994  -12.0878  -18.9505 O   0  0  0  0  0  0  0  0  0  0  0  0
   18.3970  -10.8248  -19.0816 N   0  0  0  0  0  0  0  0  0  0  0  0
   17.6585  -10.4218  -17.9110 C   0  0  0  0  0  0  0  0  0  0  0  0
   16.4345  -10.0959  -18.0083 O   0  0  0  0  0  0  0  0  0  0  0  0
   18.3790  -10.4096  -16.6391 C   0  0  0  0  0  0  0  0  0  0  0  0
   19.7722  -10.9700  -16.8038 C   0  0  2  0  0  0  0  0  0  0  0  0
   19.9260  -12.3045  -17.1922 N   0  0  0  0  0  0  0  0  0  0  0  0
   20.6409  -10.4084  -15.7910 C   0  0  0  0  0  0  0  0  0  0  0  0
   20.4903  -10.8268  -14.6006 O   0  0  0  0  0  0  0  0  0  0  0  0
   24.5548  -10.9464  -14.4760 C   0  0  0  0  0  0  0  0  0  0  0  0
   24.4564  -10.0023  -15.6773 C   0  0  2  0  0  0  0  0  0  0  0  0
   25.8831   -9.8013  -16.1681 C   0  0  0  0  0  0  0  0  0  0  0  0
   23.8419   -8.6936  -15.2645 C   0  0  0  0  0  0  0  0  0  0  0  0
   22.4182   -8.8709  -14.8889 C   0  0  2  0  0  0  0  0  0  0  0  0
   21.6366   -9.4484  -15.9806 N   0  0  0  0  0  0  0  0  0  0  0  0
   21.7918   -7.5753  -14.5872 C   0  0  0  0  0  0  0  0  0  0  0  0
   20.8296   -6.9296  -15.3467 O   0  0  0  0  0  0  0  0  0  0  0  0
   22.1398   -6.9341  -13.5237 O   0  0  0  0  0  0  0  0  0  0  0  0
  2  1  1  6
  2  3  1  0
  4  3  1  0
  5  4  2  0
  6  5  1  0
  7  6  1  0
  7  8  2  0
  8  4  1  0
  9  2  1  0
 10  9  2  0
 12 14  1  0
 12 11  1  0
 13 12  2  0
 15 14  1  1
 15 16  1  0
 16  9  1  0
 17 15  1  0
 17 18  2  0
 20 19  1  1
 20 22  1  0
 20 21  1  0
 23 22  1  6
 23 24  1  0
 24 17  1  0
 25 23  1  0
 26 25  1  0
 27 25  2  0
M  END
$$$$
