HNL.pdb
     RDKit          3D

 27 27  0  0  1  0  0  0  0  0999 V2000
   44.5801  -14.2301   -8.4111 N   0  0  0  0  0  0  0  0  0  0  0  0
   44.2487  -12.8970   -8.8652 C   0  0  1  0  0  0  0  0  0  0  0  0
   43.4813  -13.0865  -10.1695 C   0  0  0  0  0  0  0  0  0  0  0  0
   44.4727  -13.1688  -11.2736 C   0  0  0  0  0  0  0  0  0  0  0  0
   45.5855  -12.3512  -11.4412 C   0  0  0  0  0  0  0  0  0  0  0  0
   46.2441  -12.7207  -12.5532 N   0  0  0  0  0  0  0  0  0  0  0  0
   45.5891  -13.7539  -13.1099 C   0  0  0  0  0  0  0  0  0  0  0  0
   44.5203  -14.0204  -12.3333 N   0  0  0  0  0  0  0  0  0  0  0  0
   43.3445  -12.2589   -7.8485 C   0  0  0  0  0  0  0  0  0  0  0  0
   42.3387  -12.9197   -7.5365 O   0  0  0  0  0  0  0  0  0  0  0  0
   45.4470  -10.1988   -4.2924 N   0  0  0  0  0  0  0  0  0  0  0  0
   44.0107  -10.2676   -4.3937 C   0  0  0  0  0  0  0  0  0  0  0  0
   43.3540  -11.0546   -3.6433 O   0  0  0  0  0  0  0  0  0  0  0  0
   43.3695   -9.4031   -5.3829 C   0  0  0  0  0  0  0  0  0  0  0  0
   42.7690  -10.2195   -6.5032 C   0  0  2  0  0  0  0  0  0  0  0  0
   43.6087  -11.0128   -7.2912 N   0  0  0  0  0  0  0  0  0  0  0  0
   41.6927   -9.4735   -7.1204 C   0  0  0  0  0  0  0  0  0  0  0  0
   41.9029   -9.0065   -8.2832 O   0  0  0  0  0  0  0  0  0  0  0  0
   35.9868   -7.1920   -6.1403 C   0  0  0  0  0  0  0  0  0  0  0  0
   37.1912   -7.3661   -7.0695 C   0  0  2  0  0  0  0  0  0  0  0  0
   36.6248   -7.8275   -8.4048 C   0  0  0  0  0  0  0  0  0  0  0  0
   38.1409   -8.3876   -6.5082 C   0  0  0  0  0  0  0  0  0  0  0  0
   39.4499   -8.3334   -7.2032 C   0  0  2  0  0  0  0  0  0  0  0  0
   40.4360   -9.2090   -6.5729 N   0  0  0  0  0  0  0  0  0  0  0  0
   40.0182   -6.9786   -7.1430 C   0  0  0  0  0  0  0  0  0  0  0  0
   40.7629   -6.4439   -6.1042 O   0  0  0  0  0  0  0  0  0  0  0  0
   39.8311   -6.1673   -8.1279 O   0  0  0  0  0  0  0  0  0  0  0  0
  2  1  1  1
  2  3  1  0
  4  3  1  0
  5  4  2  0
  6  5  1  0
  7  6  1  0
  7  8  2  0
  8  4  1  0
  9  2  1  0
 10  9  2  0
 12 14  1  0
 12 11  1  0
 13 12  2  0
 15 14  1  6
 15 16  1  0
 16  9  1  0
 17 15  1  0
 17 18  2  0
 20 19  1  1
 20 22  1  0
 20 21  1  0
 23 22  1  1
 23 24  1  0
 24 17  1  0
 25 23  1  0
 26 25  1  0
 27 25  2  0
M  END
$$$$
