HNL.pdb
     RDKit          3D

 27 27  0  0  1  0  0  0  0  0999 V2000
   21.1929  -15.2101  -19.0603 N   0  0  0  0  0  0  0  0  0  0  0  0
   20.8963  -14.7578  -17.7185 C   0  0  1  0  0  0  0  0  0  0  0  0
   21.9443  -15.4113  -16.8238 C   0  0  0  0  0  0  0  0  0  0  0  0
   21.6406  -16.8644  -16.7527 C   0  0  0  0  0  0  0  0  0  0  0  0
   20.5405  -17.4441  -16.1292 C   0  0  0  0  0  0  0  0  0  0  0  0
   20.6049  -18.7796  -16.2678 N   0  0  0  0  0  0  0  0  0  0  0  0
   21.7152  -19.0804  -16.9629 C   0  0  0  0  0  0  0  0  0  0  0  0
   22.3369  -17.9204  -17.2532 N   0  0  0  0  0  0  0  0  0  0  0  0
   21.0673  -13.2655  -17.6706 C   0  0  0  0  0  0  0  0  0  0  0  0
   22.1344  -12.8333  -18.1398 O   0  0  0  0  0  0  0  0  0  0  0  0
   19.1046  -11.1929  -19.5166 N   0  0  0  0  0  0  0  0  0  0  0  0
   18.2930  -10.4497  -18.5854 C   0  0  0  0  0  0  0  0  0  0  0  0
   17.1658   -9.9885  -18.9465 O   0  0  0  0  0  0  0  0  0  0  0  0
   18.8268  -10.2618  -17.2375 C   0  0  0  0  0  0  0  0  0  0  0  0
   20.1192  -11.0234  -17.0588 C   0  0  2  0  0  0  0  0  0  0  0  0
   20.1013  -12.4194  -17.1374 N   0  0  0  0  0  0  0  0  0  0  0  0
   20.9309  -10.3673  -16.0557 C   0  0  0  0  0  0  0  0  0  0  0  0
   20.5252  -10.4243  -14.8529 O   0  0  0  0  0  0  0  0  0  0  0  0
   24.8508  -10.8939  -14.1917 C   0  0  0  0  0  0  0  0  0  0  0  0
   24.8705  -10.2092  -15.5610 C   0  0  2  0  0  0  0  0  0  0  0  0
   26.3350  -10.1340  -15.9689 C   0  0  0  0  0  0  0  0  0  0  0  0
   24.2689   -8.8345  -15.4666 C   0  0  0  0  0  0  0  0  0  0  0  0
   22.8078   -8.9102  -15.2243 C   0  0  2  0  0  0  0  0  0  0  0  0
   22.1234   -9.6726  -16.2668 N   0  0  0  0  0  0  0  0  0  0  0  0
   22.2043   -7.5696  -15.2444 C   0  0  0  0  0  0  0  0  0  0  0  0
   21.3468   -7.0675  -16.2100 O   0  0  0  0  0  0  0  0  0  0  0  0
   22.4697   -6.7395  -14.2938 O   0  0  0  0  0  0  0  0  0  0  0  0
  2  1  1  6
  2  3  1  0
  4  3  1  0
  5  4  2  0
  6  5  1  0
  7  6  1  0
  7  8  2  0
  8  4  1  0
  9  2  1  0
 10  9  2  0
 12 14  1  0
 12 11  1  0
 13 12  2  0
 15 14  1  1
 15 16  1  0
 16  9  1  0
 17 15  1  0
 17 18  2  0
 20 19  1  1
 20 22  1  0
 20 21  1  0
 23 22  1  6
 23 24  1  0
 24 17  1  0
 25 23  1  0
 26 25  1  0
 27 25  2  0
M  END
$$$$
