HNL.pdb
     RDKit          3D

 27 27  0  0  1  0  0  0  0  0999 V2000
   17.7634  -12.7741  -15.5944 N   0  0  0  0  0  0  0  0  0  0  0  0
   18.8434  -12.1550  -16.3314 C   0  0  1  0  0  0  0  0  0  0  0  0
   18.7429  -12.7079  -17.7492 C   0  0  0  0  0  0  0  0  0  0  0  0
   19.1465  -14.1378  -17.7103 C   0  0  0  0  0  0  0  0  0  0  0  0
   18.3863  -15.1927  -17.2162 C   0  0  0  0  0  0  0  0  0  0  0  0
   19.0799  -16.3371  -17.3436 N   0  0  0  0  0  0  0  0  0  0  0  0
   20.2671  -16.0526  -17.9058 C   0  0  0  0  0  0  0  0  0  0  0  0
   20.3021  -14.7232  -18.1251 N   0  0  0  0  0  0  0  0  0  0  0  0
   18.6090  -10.6709  -16.3625 C   0  0  0  0  0  0  0  0  0  0  0  0
   17.6036  -10.3004  -16.9931 O   0  0  0  0  0  0  0  0  0  0  0  0
   17.9866   -5.5231  -16.2829 N   0  0  0  0  0  0  0  0  0  0  0  0
   18.1036   -6.3323  -15.0957 C   0  0  0  0  0  0  0  0  0  0  0  0
   18.2897   -5.7847  -13.9647 O   0  0  0  0  0  0  0  0  0  0  0  0
   17.9988   -7.7809  -15.2627 C   0  0  0  0  0  0  0  0  0  0  0  0
   19.3330   -8.3769  -15.6458 C   0  0  2  0  0  0  0  0  0  0  0  0
   19.4565   -9.7672  -15.7314 N   0  0  0  0  0  0  0  0  0  0  0  0
   20.3983   -7.5925  -15.0579 C   0  0  0  0  0  0  0  0  0  0  0  0
   20.7834   -7.9188  -13.8918 O   0  0  0  0  0  0  0  0  0  0  0  0
   24.4491   -7.1449  -16.7416 C   0  0  0  0  0  0  0  0  0  0  0  0
   23.4690   -6.0882  -17.2584 C   0  0  2  0  0  0  0  0  0  0  0  0
   24.2200   -5.3111  -18.3302 C   0  0  0  0  0  0  0  0  0  0  0  0
   23.0407   -5.1806  -16.1388 C   0  0  0  0  0  0  0  0  0  0  0  0
   22.2900   -5.9323  -15.1040 C   0  0  2  0  0  0  0  0  0  0  0  0
   21.0564   -6.5064  -15.6379 N   0  0  0  0  0  0  0  0  0  0  0  0
   21.8784   -5.0434  -14.0075 C   0  0  0  0  0  0  0  0  0  0  0  0
   22.5863   -4.7897  -12.8438 O   0  0  0  0  0  0  0  0  0  0  0  0
   20.7541   -4.4164  -14.0864 O   0  0  0  0  0  0  0  0  0  0  0  0
  2  1  1  1
  2  3  1  0
  4  3  1  0
  5  4  2  0
  6  5  1  0
  7  6  1  0
  7  8  2  0
  8  4  1  0
  9  2  1  0
 10  9  2  0
 12 14  1  0
 12 11  1  0
 13 12  2  0
 15 14  1  1
 15 16  1  0
 16  9  1  0
 17 15  1  0
 17 18  2  0
 20 19  1  1
 20 22  1  0
 20 21  1  0
 23 22  1  6
 23 24  1  0
 24 17  1  0
 25 23  1  0
 26 25  1  0
 27 25  2  0
M  END
$$$$
