HNL.pdb
     RDKit          3D

 27 27  0  0  1  0  0  0  0  0999 V2000
   21.1205  -25.0465  -15.8239 N   0  0  0  0  0  0  0  0  0  0  0  0
   20.2225  -24.4092  -14.8855 C   0  0  1  0  0  0  0  0  0  0  0  0
   19.0276  -23.9446  -15.7115 C   0  0  0  0  0  0  0  0  0  0  0  0
   19.5022  -22.8928  -16.6481 C   0  0  0  0  0  0  0  0  0  0  0  0
   20.3213  -21.8155  -16.3266 C   0  0  0  0  0  0  0  0  0  0  0  0
   20.5346  -21.0760  -17.4287 N   0  0  0  0  0  0  0  0  0  0  0  0
   19.8768  -21.6441  -18.4539 C   0  0  0  0  0  0  0  0  0  0  0  0
   19.2551  -22.7407  -17.9771 N   0  0  0  0  0  0  0  0  0  0  0  0
   19.7649  -25.4383  -13.8906 C   0  0  0  0  0  0  0  0  0  0  0  0
   18.5380  -25.4867  -13.6959 O   0  0  0  0  0  0  0  0  0  0  0  0
   19.4487  -29.4420  -11.0322 N   0  0  0  0  0  0  0  0  0  0  0  0
   20.8767  -29.4256  -11.2287 C   0  0  0  0  0  0  0  0  0  0  0  0
   21.5896  -30.3932  -10.8172 O   0  0  0  0  0  0  0  0  0  0  0  0
   21.4430  -28.2630  -11.9105 C   0  0  0  0  0  0  0  0  0  0  0  0
   20.3590  -27.2844  -12.2971 C   0  0  2  0  0  0  0  0  0  0  0  0
   20.6493  -26.2820  -13.2279 N   0  0  0  0  0  0  0  0  0  0  0  0
   19.5484  -26.9794  -11.1372 C   0  0  0  0  0  0  0  0  0  0  0  0
   19.9735  -26.0733  -10.3543 O   0  0  0  0  0  0  0  0  0  0  0  0
   16.0242  -28.1209  -11.7417 C   0  0  0  0  0  0  0  0  0  0  0  0
   15.3457  -27.1932  -10.7301 C   0  0  2  0  0  0  0  0  0  0  0  0
   14.3898  -26.3249  -11.5358 C   0  0  0  0  0  0  0  0  0  0  0  0
   16.3713  -26.3497  -10.0248 C   0  0  0  0  0  0  0  0  0  0  0  0
   17.5443  -27.1644   -9.6251 C   0  0  2  0  0  0  0  0  0  0  0  0
   18.3379  -27.5770  -10.7810 N   0  0  0  0  0  0  0  0  0  0  0  0
   17.1175  -28.4073   -8.9657 C   0  0  0  0  0  0  0  0  0  0  0  0
   17.4986  -29.6943   -9.3097 O   0  0  0  0  0  0  0  0  0  0  0  0
   16.3061  -28.3489   -7.9650 O   0  0  0  0  0  0  0  0  0  0  0  0
  2  1  1  6
  2  3  1  0
  4  3  1  0
  5  4  2  0
  6  5  1  0
  7  6  1  0
  7  8  2  0
  8  4  1  0
  9  2  1  0
 10  9  2  0
 12 14  1  0
 12 11  1  0
 13 12  2  0
 15 14  1  1
 15 16  1  0
 16  9  1  0
 17 15  1  0
 17 18  2  0
 20 19  1  6
 20 22  1  0
 20 21  1  0
 23 22  1  6
 23 24  1  0
 24 17  1  0
 25 23  1  0
 26 25  1  0
 27 25  2  0
M  END
$$$$
