HNL.pdb
     RDKit          3D

 27 27  0  0  1  0  0  0  0  0999 V2000
   17.5260  -12.5261  -16.3890 N   0  0  0  0  0  0  0  0  0  0  0  0
   17.4238  -11.3140  -17.1721 C   0  0  1  0  0  0  0  0  0  0  0  0
   15.9401  -11.1513  -17.4853 C   0  0  0  0  0  0  0  0  0  0  0  0
   15.5491  -12.2407  -18.4176 C   0  0  0  0  0  0  0  0  0  0  0  0
   16.1383  -12.5218  -19.6459 C   0  0  0  0  0  0  0  0  0  0  0  0
   15.5165  -13.5738  -20.2057 N   0  0  0  0  0  0  0  0  0  0  0  0
   14.5417  -13.9812  -19.3749 C   0  0  0  0  0  0  0  0  0  0  0  0
   14.5657  -13.1729  -18.2967 N   0  0  0  0  0  0  0  0  0  0  0  0
   17.8789  -10.1597  -16.3243 C   0  0  0  0  0  0  0  0  0  0  0  0
   17.1053   -9.8298  -15.4086 O   0  0  0  0  0  0  0  0  0  0  0  0
   20.1354   -6.0958  -14.6073 N   0  0  0  0  0  0  0  0  0  0  0  0
   21.1099   -7.1475  -14.4576 C   0  0  0  0  0  0  0  0  0  0  0  0
   22.1044   -6.9917  -13.6826 O   0  0  0  0  0  0  0  0  0  0  0  0
   20.8945   -8.3711  -15.2279 C   0  0  0  0  0  0  0  0  0  0  0  0
   19.5585   -8.3361  -15.9322 C   0  0  2  0  0  0  0  0  0  0  0  0
   19.0828   -9.4998  -16.5445 N   0  0  0  0  0  0  0  0  0  0  0  0
   19.3921   -7.0560  -16.5874 C   0  0  0  0  0  0  0  0  0  0  0  0
   20.0812   -6.8461  -17.6342 O   0  0  0  0  0  0  0  0  0  0  0  0
   17.3869   -4.8471  -19.8043 C   0  0  0  0  0  0  0  0  0  0  0  0
   16.6865   -5.3620  -18.5439 C   0  0  2  0  0  0  0  0  0  0  0  0
   15.1948   -5.2960  -18.8389 C   0  0  0  0  0  0  0  0  0  0  0  0
   17.0380   -4.5013  -17.3622 C   0  0  0  0  0  0  0  0  0  0  0  0
   18.4302   -4.7533  -16.9176 C   0  0  2  0  0  0  0  0  0  0  0  0
   18.5482   -6.0165  -16.1919 N   0  0  0  0  0  0  0  0  0  0  0  0
   18.8778   -3.7095  -15.9837 C   0  0  0  0  0  0  0  0  0  0  0  0
   19.2792   -3.8969  -14.6709 O   0  0  0  0  0  0  0  0  0  0  0  0
   18.9161   -2.4813  -16.3752 O   0  0  0  0  0  0  0  0  0  0  0  0
  2  1  1  1
  2  3  1  0
  4  3  1  0
  5  4  2  0
  6  5  1  0
  7  6  1  0
  7  8  2  0
  8  4  1  0
  9  2  1  0
 10  9  2  0
 12 14  1  0
 12 11  1  0
 13 12  2  0
 15 14  1  6
 15 16  1  0
 16  9  1  0
 17 15  1  0
 17 18  2  0
 20 19  1  6
 20 22  1  0
 20 21  1  0
 23 22  1  1
 23 24  1  0
 24 17  1  0
 25 23  1  0
 26 25  1  0
 27 25  2  0
M  END
$$$$
