HNL.pdb
     RDKit          3D

 27 27  0  0  1  0  0  0  0  0999 V2000
   17.7889  -10.2900  -16.3065 N   0  0  0  0  0  0  0  0  0  0  0  0
   18.6455   -9.4714  -17.1366 C   0  0  1  0  0  0  0  0  0  0  0  0
   17.8332   -9.1677  -18.3911 C   0  0  0  0  0  0  0  0  0  0  0  0
   17.7691  -10.4099  -19.2044 C   0  0  0  0  0  0  0  0  0  0  0  0
   16.8251  -11.4242  -19.0820 C   0  0  0  0  0  0  0  0  0  0  0  0
   17.0889  -12.3867  -19.9824 N   0  0  0  0  0  0  0  0  0  0  0  0
   18.1767  -12.0243  -20.6837 C   0  0  0  0  0  0  0  0  0  0  0  0
   18.5834  -10.8300  -20.2098 N   0  0  0  0  0  0  0  0  0  0  0  0
   18.9282   -8.1875  -16.4085 C   0  0  0  0  0  0  0  0  0  0  0  0
   17.9297   -7.5850  -15.9777 O   0  0  0  0  0  0  0  0  0  0  0  0
   20.9387   -4.2712  -14.1943 N   0  0  0  0  0  0  0  0  0  0  0  0
   21.8855   -5.3141  -13.8877 C   0  0  0  0  0  0  0  0  0  0  0  0
   22.7268   -5.1576  -12.9487 O   0  0  0  0  0  0  0  0  0  0  0  0
   21.8244   -6.5298  -14.6972 C   0  0  0  0  0  0  0  0  0  0  0  0
   20.6161   -6.5131  -15.6038 C   0  0  2  0  0  0  0  0  0  0  0  0
   20.2176   -7.7001  -16.2264 N   0  0  0  0  0  0  0  0  0  0  0  0
   20.5812   -5.2660  -16.3381 C   0  0  0  0  0  0  0  0  0  0  0  0
   20.8996   -5.3075  -17.5675 O   0  0  0  0  0  0  0  0  0  0  0  0
   19.5484   -0.8558  -18.2478 C   0  0  0  0  0  0  0  0  0  0  0  0
   18.6110   -2.0165  -18.5915 C   0  0  2  0  0  0  0  0  0  0  0  0
   17.1986   -1.4619  -18.4718 C   0  0  0  0  0  0  0  0  0  0  0  0
   18.8213   -3.1586  -17.6365 C   0  0  0  0  0  0  0  0  0  0  0  0
   19.9228   -2.8618  -16.6888 C   0  0  2  0  0  0  0  0  0  0  0  0
   20.2317   -4.0099  -15.8387 N   0  0  0  0  0  0  0  0  0  0  0  0
   19.5466   -1.7737  -15.7742 C   0  0  0  0  0  0  0  0  0  0  0  0
   19.9696   -0.4562  -15.8444 O   0  0  0  0  0  0  0  0  0  0  0  0
   18.7486   -2.0181  -14.7909 O   0  0  0  0  0  0  0  0  0  0  0  0
  2  1  1  1
  2  3  1  0
  4  3  1  0
  5  4  2  0
  6  5  1  0
  7  6  1  0
  7  8  2  0
  8  4  1  0
  9  2  1  0
 10  9  2  0
 12 14  1  0
 12 11  1  0
 13 12  2  0
 15 14  1  6
 15 16  1  0
 16  9  1  0
 17 15  1  0
 17 18  2  0
 20 19  1  1
 20 22  1  0
 20 21  1  0
 23 22  1  6
 23 24  1  0
 24 17  1  0
 25 23  1  0
 26 25  1  0
 27 25  2  0
M  END
$$$$
