YWK.pdb
     RDKit          3D

 36 38  0  0  1  0  0  0  0  0999 V2000
   11.3092  -22.1441   15.4015 O   0  0  0  0  0  0  0  0  0  0  0  0
   11.2326  -21.2746   16.5066 C   0  0  0  0  0  0  0  0  0  0  0  0
   12.2720  -20.4294   16.8279 C   0  0  0  0  0  0  0  0  0  0  0  0
   12.2213  -19.5716   17.9013 C   0  0  0  0  0  0  0  0  0  0  0  0
   11.1037  -19.5394   18.6956 C   0  0  0  0  0  0  0  0  0  0  0  0
   10.9792  -18.6371   19.8732 C   0  0  0  0  0  0  0  0  0  0  0  0
   10.1289  -17.4249   19.5757 C   0  0  2  0  0  0  0  0  0  0  0  0
   10.7082  -16.6109   18.5531 N   0  0  0  0  0  0  0  0  0  0  0  0
   10.0053  -16.6736   20.8688 C   0  0  0  0  0  0  0  0  0  0  0  0
   10.9441  -16.0458   21.3756 O   0  0  0  0  0  0  0  0  0  0  0  0
   10.0567  -20.3792   18.3859 C   0  0  0  0  0  0  0  0  0  0  0  0
   10.1125  -21.2376   17.3084 C   0  0  0  0  0  0  0  0  0  0  0  0
    8.7632  -16.6845   21.5348 N   0  0  0  0  0  0  0  0  0  0  0  0
    8.5300  -16.0735   22.8265 C   0  0  1  0  0  0  0  0  0  0  0  0
    7.1213  -15.6157   23.0074 C   0  0  0  0  0  0  0  0  0  0  0  0
    6.9303  -15.2002   24.4195 C   0  0  0  0  0  0  0  0  0  0  0  0
    6.4744  -15.9695   25.4943 C   0  0  0  0  0  0  0  0  0  0  0  0
    6.4371  -15.2254   26.6094 N   0  0  0  0  0  0  0  0  0  0  0  0
    6.8503  -13.9853   26.3260 C   0  0  0  0  0  0  0  0  0  0  0  0
    6.9923  -12.8639   27.1131 C   0  0  0  0  0  0  0  0  0  0  0  0
    7.4430  -11.6602   26.6142 C   0  0  0  0  0  0  0  0  0  0  0  0
    7.7505  -11.6341   25.2614 C   0  0  0  0  0  0  0  0  0  0  0  0
    7.6089  -12.7643   24.4615 C   0  0  0  0  0  0  0  0  0  0  0  0
    7.1610  -13.9402   24.9832 C   0  0  0  0  0  0  0  0  0  0  0  0
    9.0043  -16.9368   23.9376 C   0  0  0  0  0  0  0  0  0  0  0  0
    8.5130  -18.0765   24.1442 O   0  0  0  0  0  0  0  0  0  0  0  0
   10.0320  -16.5442   24.8347 N   0  0  0  0  0  0  0  0  0  0  0  0
   10.7179  -17.5241   25.7156 C   0  0  1  0  0  0  0  0  0  0  0  0
   12.1746  -17.5424   25.4041 C   0  0  0  0  0  0  0  0  0  0  0  0
   12.9200  -18.4931   26.2813 C   0  0  0  0  0  0  0  0  0  0  0  0
   14.3792  -18.4609   25.8026 C   0  0  0  0  0  0  0  0  0  0  0  0
   15.2289  -19.3952   26.6339 C   0  0  0  0  0  0  0  0  0  0  0  0
   16.5760  -19.4590   26.1249 N   0  0  0  0  0  0  0  0  0  0  0  0
   10.4717  -17.0667   27.0848 C   0  0  0  0  0  0  0  0  0  0  0  0
   10.8516  -17.7055   28.0856 O   0  0  0  0  0  0  0  0  0  0  0  0
    9.7951  -15.8851   27.3209 O   0  0  0  0  0  0  0  0  0  0  0  0
  2  1  1  0
  2 12  2  0
  3  2  1  0
  4  3  2  0
  4  5  1  0
  5 11  2  0
  6  5  1  0
  7  6  1  0
  7  8  1  6
  9 13  1  0
  9  7  1  0
 10  9  2  0
 11 12  1  0
 14 15  1  1
 14 13  1  0
 16 15  1  0
 17 16  2  0
 18 17  1  0
 19 24  2  0
 19 18  1  0
 20 19  1  0
 21 20  2  0
 21 22  1  0
 22 23  2  0
 23 24  1  0
 24 16  1  0
 25 14  1  0
 25 27  1  0
 26 25  2  0
 28 27  1  0
 28 29  1  6
 30 29  1  0
 31 32  1  0
 31 30  1  0
 32 33  1  0
 34 28  1  0
 35 34  2  0
 36 34  1  0
M  END
$$$$
