YWK.pdb
     RDKit          3D

 36 38  0  0  1  0  0  0  0  0999 V2000
    6.9645  -13.9594   15.5431 O   0  0  0  0  0  0  0  0  0  0  0  0
    7.3408  -14.0053   16.8994 C   0  0  0  0  0  0  0  0  0  0  0  0
    7.1374  -12.9306   17.7371 C   0  0  0  0  0  0  0  0  0  0  0  0
    7.4959  -12.9508   19.0643 C   0  0  0  0  0  0  0  0  0  0  0  0
    8.0794  -14.0725   19.5956 C   0  0  0  0  0  0  0  0  0  0  0  0
    8.4932  -14.1653   21.0226 C   0  0  0  0  0  0  0  0  0  0  0  0
    9.1407  -15.4915   21.3438 C   0  0  2  0  0  0  0  0  0  0  0  0
    8.2182  -16.5758   21.2121 N   0  0  0  0  0  0  0  0  0  0  0  0
    9.6531  -15.3766   22.7495 C   0  0  0  0  0  0  0  0  0  0  0  0
   10.4013  -14.4633   23.1214 O   0  0  0  0  0  0  0  0  0  0  0  0
    8.2886  -15.1546   18.7693 C   0  0  0  0  0  0  0  0  0  0  0  0
    7.9274  -15.1293   17.4390 C   0  0  0  0  0  0  0  0  0  0  0  0
    9.2636  -16.3540   23.6873 N   0  0  0  0  0  0  0  0  0  0  0  0
    9.7937  -16.4451   25.0316 C   0  0  1  0  0  0  0  0  0  0  0  0
    8.7579  -16.8113   26.0414 C   0  0  0  0  0  0  0  0  0  0  0  0
    7.6691  -15.8034   25.9980 C   0  0  0  0  0  0  0  0  0  0  0  0
    6.3339  -15.9867   25.6257 C   0  0  0  0  0  0  0  0  0  0  0  0
    5.6678  -14.8263   25.7160 N   0  0  0  0  0  0  0  0  0  0  0  0
    6.5034  -13.8696   26.1346 C   0  0  0  0  0  0  0  0  0  0  0  0
    6.3112  -12.5284   26.3826 C   0  0  0  0  0  0  0  0  0  0  0  0
    7.3257  -11.7019   26.8168 C   0  0  0  0  0  0  0  0  0  0  0  0
    8.5670  -12.2963   26.9942 C   0  0  0  0  0  0  0  0  0  0  0  0
    8.7667  -13.6511   26.7452 C   0  0  0  0  0  0  0  0  0  0  0  0
    7.7444  -14.4428   26.3167 C   0  0  0  0  0  0  0  0  0  0  0  0
   10.9938  -17.3173   25.0923 C   0  0  0  0  0  0  0  0  0  0  0  0
   11.0628  -18.3918   24.4415 O   0  0  0  0  0  0  0  0  0  0  0  0
   12.1344  -17.0063   25.8782 N   0  0  0  0  0  0  0  0  0  0  0  0
   12.9067  -18.0588   26.5869 C   0  0  1  0  0  0  0  0  0  0  0  0
   11.9719  -18.9532   27.3255 C   0  0  0  0  0  0  0  0  0  0  0  0
   11.9027  -18.6104   28.7770 C   0  0  0  0  0  0  0  0  0  0  0  0
   10.9858  -19.6614   29.4204 C   0  0  0  0  0  0  0  0  0  0  0  0
   10.7713  -19.3503   30.8845 C   0  0  0  0  0  0  0  0  0  0  0  0
    9.9040  -20.3246   31.4979 N   0  0  0  0  0  0  0  0  0  0  0  0
   13.6307  -18.7892   25.5444 C   0  0  0  0  0  0  0  0  0  0  0  0
   14.8755  -18.8173   25.4841 O   0  0  0  0  0  0  0  0  0  0  0  0
   12.9447  -19.4884   24.5696 O   0  0  0  0  0  0  0  0  0  0  0  0
  2  1  1  0
  2 12  2  0
  3  2  1  0
  4  3  2  0
  4  5  1  0
  5 11  2  0
  6  5  1  0
  7  6  1  0
  7  8  1  1
  9 13  1  0
  9  7  1  0
 10  9  2  0
 11 12  1  0
 14 15  1  1
 14 13  1  0
 16 15  1  0
 17 16  2  0
 18 17  1  0
 19 24  2  0
 19 18  1  0
 20 19  1  0
 21 20  2  0
 21 22  1  0
 22 23  2  0
 23 24  1  0
 24 16  1  0
 25 14  1  0
 25 27  1  0
 26 25  2  0
 28 27  1  0
 28 29  1  6
 30 29  1  0
 31 32  1  0
 31 30  1  0
 32 33  1  0
 34 28  1  0
 35 34  2  0
 36 34  1  0
M  END
$$$$
