YWK.pdb
     RDKit          3D

 36 38  0  0  1  0  0  0  0  0999 V2000
   10.8228  -20.9323   15.6259 O   0  0  0  0  0  0  0  0  0  0  0  0
   10.8221  -20.3848   16.9234 C   0  0  0  0  0  0  0  0  0  0  0  0
   11.9576  -19.8247   17.4663 C   0  0  0  0  0  0  0  0  0  0  0  0
   11.9824  -19.2839   18.7303 C   0  0  0  0  0  0  0  0  0  0  0  0
   10.8454  -19.2916   19.4971 C   0  0  0  0  0  0  0  0  0  0  0  0
   10.7989  -18.7248   20.8729 C   0  0  0  0  0  0  0  0  0  0  0  0
   10.0448  -17.4172   20.9259 C   0  0  2  0  0  0  0  0  0  0  0  0
   10.6297  -16.4345   20.0679 N   0  0  0  0  0  0  0  0  0  0  0  0
   10.0720  -16.9771   22.3603 C   0  0  0  0  0  0  0  0  0  0  0  0
   11.0649  -16.4587   22.8873 O   0  0  0  0  0  0  0  0  0  0  0  0
    9.7026  -19.8486   18.9667 C   0  0  0  0  0  0  0  0  0  0  0  0
    9.6830  -20.3896   17.6987 C   0  0  0  0  0  0  0  0  0  0  0  0
    8.9135  -17.1632   23.1411 N   0  0  0  0  0  0  0  0  0  0  0  0
    8.8016  -16.7759   24.5316 C   0  0  1  0  0  0  0  0  0  0  0  0
    7.4408  -16.2787   24.8891 C   0  0  0  0  0  0  0  0  0  0  0  0
    7.3575  -14.8334   24.5612 C   0  0  0  0  0  0  0  0  0  0  0  0
    7.4508  -14.2235   23.3065 C   0  0  0  0  0  0  0  0  0  0  0  0
    7.3302  -12.8937   23.4314 N   0  0  0  0  0  0  0  0  0  0  0  0
    7.1593  -12.5857   24.7218 C   0  0  0  0  0  0  0  0  0  0  0  0
    6.9902  -11.3777   25.3614 C   0  0  0  0  0  0  0  0  0  0  0  0
    6.8277  -11.2782   26.7269 C   0  0  0  0  0  0  0  0  0  0  0  0
    6.8432  -12.4717   27.4345 C   0  0  0  0  0  0  0  0  0  0  0  0
    7.0137  -13.6951   26.7932 C   0  0  0  0  0  0  0  0  0  0  0  0
    7.1719  -13.7617   25.4418 C   0  0  0  0  0  0  0  0  0  0  0  0
    9.2834  -17.8457   25.4416 C   0  0  0  0  0  0  0  0  0  0  0  0
    8.6891  -18.9507   25.5347 O   0  0  0  0  0  0  0  0  0  0  0  0
   10.4336  -17.7011   26.2611 N   0  0  0  0  0  0  0  0  0  0  0  0
   10.9213  -18.8056   27.1265 C   0  0  1  0  0  0  0  0  0  0  0  0
   12.3204  -19.1540   26.7517 C   0  0  0  0  0  0  0  0  0  0  0  0
   12.8737  -20.2408   27.6130 C   0  0  0  0  0  0  0  0  0  0  0  0
   14.3115  -20.4795   27.1278 C   0  0  0  0  0  0  0  0  0  0  0  0
   14.9722  -21.5654   27.9465 C   0  0  0  0  0  0  0  0  0  0  0  0
   16.3630  -21.7040   27.5943 N   0  0  0  0  0  0  0  0  0  0  0  0
   10.8481  -18.2967   28.4977 C   0  0  0  0  0  0  0  0  0  0  0  0
   10.6250  -17.0984   28.7592 O   0  0  0  0  0  0  0  0  0  0  0  0
   11.0275  -19.1453   29.5736 O   0  0  0  0  0  0  0  0  0  0  0  0
  2  1  1  0
  2 12  2  0
  3  2  1  0
  4  3  2  0
  4  5  1  0
  5 11  2  0
  6  5  1  0
  7  6  1  0
  7  8  1  6
  9 13  1  0
  9  7  1  0
 10  9  2  0
 11 12  1  0
 14 15  1  1
 14 13  1  0
 16 15  1  0
 17 16  2  0
 18 17  1  0
 19 24  2  0
 19 18  1  0
 20 19  1  0
 21 20  2  0
 21 22  1  0
 22 23  2  0
 23 24  1  0
 24 16  1  0
 25 14  1  0
 25 27  1  0
 26 25  2  0
 28 27  1  0
 28 29  1  6
 30 29  1  0
 31 32  1  0
 31 30  1  0
 32 33  1  0
 34 28  1  0
 35 34  2  0
 36 34  1  0
M  END
$$$$
