YWK.pdb
     RDKit          3D

 36 38  0  0  1  0  0  0  0  0999 V2000
    6.1414  -12.3671   17.4258 O   0  0  0  0  0  0  0  0  0  0  0  0
    7.3020  -13.0699   17.8029 C   0  0  0  0  0  0  0  0  0  0  0  0
    8.0960  -12.6382   18.8428 C   0  0  0  0  0  0  0  0  0  0  0  0
    9.2335  -13.3065   19.2299 C   0  0  0  0  0  0  0  0  0  0  0  0
    9.6110  -14.4481   18.5702 C   0  0  0  0  0  0  0  0  0  0  0  0
   10.8293  -15.2223   18.9342 C   0  0  0  0  0  0  0  0  0  0  0  0
   10.4986  -16.4725   19.7146 C   0  0  2  0  0  0  0  0  0  0  0  0
    9.3418  -17.1308   19.1929 N   0  0  0  0  0  0  0  0  0  0  0  0
   10.2857  -16.0349   21.1341 C   0  0  0  0  0  0  0  0  0  0  0  0
   11.1633  -15.4779   21.8063 O   0  0  0  0  0  0  0  0  0  0  0  0
    8.8263  -14.8912   17.5283 C   0  0  0  0  0  0  0  0  0  0  0  0
    7.6865  -14.2173   17.1440 C   0  0  0  0  0  0  0  0  0  0  0  0
    9.0287  -16.2695   21.7269 N   0  0  0  0  0  0  0  0  0  0  0  0
    8.7010  -15.9290   23.0954 C   0  0  1  0  0  0  0  0  0  0  0  0
    7.2864  -15.4839   23.2611 C   0  0  0  0  0  0  0  0  0  0  0  0
    7.0751  -15.0747   24.6722 C   0  0  0  0  0  0  0  0  0  0  0  0
    6.6564  -15.8625   25.7487 C   0  0  0  0  0  0  0  0  0  0  0  0
    6.5830  -15.1185   26.8621 N   0  0  0  0  0  0  0  0  0  0  0  0
    6.9363  -13.8606   26.5758 C   0  0  0  0  0  0  0  0  0  0  0  0
    7.0240  -12.7319   27.3603 C   0  0  0  0  0  0  0  0  0  0  0  0
    7.4165  -11.5091   26.8587 C   0  0  0  0  0  0  0  0  0  0  0  0
    7.7228  -11.4713   25.5058 C   0  0  0  0  0  0  0  0  0  0  0  0
    7.6359  -12.6089   24.7086 C   0  0  0  0  0  0  0  0  0  0  0  0
    7.2449  -13.8038   25.2330 C   0  0  0  0  0  0  0  0  0  0  0  0
    9.0804  -17.0117   24.0381 C   0  0  0  0  0  0  0  0  0  0  0  0
    8.5952  -18.1687   23.9446 O   0  0  0  0  0  0  0  0  0  0  0  0
   10.0051  -16.8223   25.0984 N   0  0  0  0  0  0  0  0  0  0  0  0
   10.6471  -17.9691   25.7907 C   0  0  1  0  0  0  0  0  0  0  0  0
   12.0915  -18.0255   25.4308 C   0  0  0  0  0  0  0  0  0  0  0  0
   12.7913  -19.1560   26.1100 C   0  0  0  0  0  0  0  0  0  0  0  0
   14.2460  -19.1145   25.6185 C   0  0  0  0  0  0  0  0  0  0  0  0
   15.0483  -20.2313   26.2471 C   0  0  0  0  0  0  0  0  0  0  0  0
   16.3526  -20.3342   25.6422 N   0  0  0  0  0  0  0  0  0  0  0  0
   10.4642  -17.7208   27.2223 C   0  0  0  0  0  0  0  0  0  0  0  0
   10.5432  -18.6250   28.0770 O   0  0  0  0  0  0  0  0  0  0  0  0
   10.1919  -16.4480   27.6865 O   0  0  0  0  0  0  0  0  0  0  0  0
  2  1  1  0
  2 12  2  0
  3  2  1  0
  4  3  2  0
  4  5  1  0
  5 11  2  0
  6  5  1  0
  7  6  1  0
  7  8  1  6
  9 13  1  0
  9  7  1  0
 10  9  2  0
 11 12  1  0
 14 15  1  6
 14 13  1  0
 16 15  1  0
 17 16  2  0
 18 17  1  0
 19 24  2  0
 19 18  1  0
 20 19  1  0
 21 20  2  0
 21 22  1  0
 22 23  2  0
 23 24  1  0
 24 16  1  0
 25 14  1  0
 25 27  1  0
 26 25  2  0
 28 27  1  0
 28 29  1  1
 30 29  1  0
 31 32  1  0
 31 30  1  0
 32 33  1  0
 34 28  1  0
 35 34  2  0
 36 34  1  0
M  END
$$$$
