YWK.pdb
     RDKit          3D

 36 38  0  0  1  0  0  0  0  0999 V2000
    7.3885  -12.9256   15.9579 O   0  0  0  0  0  0  0  0  0  0  0  0
    7.7468  -13.2292   17.2856 C   0  0  0  0  0  0  0  0  0  0  0  0
    6.8713  -13.0247   18.3295 C   0  0  0  0  0  0  0  0  0  0  0  0
    7.1973  -13.3131   19.6338 C   0  0  0  0  0  0  0  0  0  0  0  0
    8.4350  -13.8243   19.9298 C   0  0  0  0  0  0  0  0  0  0  0  0
    8.8563  -14.1594   21.3177 C   0  0  0  0  0  0  0  0  0  0  0  0
    8.9920  -15.6488   21.5289 C   0  0  2  0  0  0  0  0  0  0  0  0
    7.7734  -16.3372   21.2373 N   0  0  0  0  0  0  0  0  0  0  0  0
    9.3947  -15.8325   22.9627 C   0  0  0  0  0  0  0  0  0  0  0  0
   10.4283  -15.3464   23.4399 O   0  0  0  0  0  0  0  0  0  0  0  0
    9.3204  -14.0340   18.8955 C   0  0  0  0  0  0  0  0  0  0  0  0
    8.9886  -13.7431   17.5893 C   0  0  0  0  0  0  0  0  0  0  0  0
    8.5565  -16.5932   23.8026 N   0  0  0  0  0  0  0  0  0  0  0  0
    8.8486  -16.8860   25.1901 C   0  0  1  0  0  0  0  0  0  0  0  0
    7.6441  -16.8051   26.0674 C   0  0  0  0  0  0  0  0  0  0  0  0
    7.0393  -15.4569   25.9274 C   0  0  0  0  0  0  0  0  0  0  0  0
    5.8242  -15.1110   25.3283 C   0  0  0  0  0  0  0  0  0  0  0  0
    5.6365  -13.7851   25.4012 N   0  0  0  0  0  0  0  0  0  0  0  0
    6.6784  -13.2260   26.0263 C   0  0  0  0  0  0  0  0  0  0  0  0
    6.9606  -11.9163   26.3461 C   0  0  0  0  0  0  0  0  0  0  0  0
    8.1135  -11.5460   27.0053 C   0  0  0  0  0  0  0  0  0  0  0  0
    8.9875  -12.5721   27.3350 C   0  0  0  0  0  0  0  0  0  0  0  0
    8.7072  -13.8972   27.0142 C   0  0  0  0  0  0  0  0  0  0  0  0
    7.5591  -14.2325   26.3622 C   0  0  0  0  0  0  0  0  0  0  0  0
    9.5872  -18.1654   25.3392 C   0  0  0  0  0  0  0  0  0  0  0  0
    9.1472  -19.2418   24.8590 O   0  0  0  0  0  0  0  0  0  0  0  0
   10.8263  -18.2653   26.0248 N   0  0  0  0  0  0  0  0  0  0  0  0
   11.5896  -19.5385   26.0797 C   0  0  1  0  0  0  0  0  0  0  0  0
   12.6490  -19.5318   25.0325 C   0  0  0  0  0  0  0  0  0  0  0  0
   13.5321  -20.7320   25.1256 C   0  0  0  0  0  0  0  0  0  0  0  0
   14.6084  -20.5549   24.0441 C   0  0  0  0  0  0  0  0  0  0  0  0
   15.5339  -21.7503   24.0187 C   0  0  0  0  0  0  0  0  0  0  0  0
   16.5176  -21.6199   22.9732 N   0  0  0  0  0  0  0  0  0  0  0  0
   12.1691  -19.5958   27.4234 C   0  0  0  0  0  0  0  0  0  0  0  0
   12.8506  -20.5609   27.8210 O   0  0  0  0  0  0  0  0  0  0  0  0
   11.9769  -18.5596   28.3172 O   0  0  0  0  0  0  0  0  0  0  0  0
  2  1  1  0
  2 12  2  0
  3  2  1  0
  4  3  2  0
  4  5  1  0
  5 11  2  0
  6  5  1  0
  7  6  1  0
  7  8  1  1
  9 13  1  0
  9  7  1  0
 10  9  2  0
 11 12  1  0
 14 15  1  1
 14 13  1  0
 16 15  1  0
 17 16  2  0
 18 17  1  0
 19 24  2  0
 19 18  1  0
 20 19  1  0
 21 20  2  0
 21 22  1  0
 22 23  2  0
 23 24  1  0
 24 16  1  0
 25 14  1  0
 25 27  1  0
 26 25  2  0
 28 27  1  0
 28 29  1  6
 30 29  1  0
 31 32  1  0
 31 30  1  0
 32 33  1  0
 34 28  1  0
 35 34  2  0
 36 34  1  0
M  END
$$$$
