YWK.pdb
     RDKit          3D

 36 38  0  0  1  0  0  0  0  0999 V2000
   11.4037  -24.3171   18.8566 O   0  0  0  0  0  0  0  0  0  0  0  0
   11.3633  -23.0696   19.5088 C   0  0  0  0  0  0  0  0  0  0  0  0
   12.3645  -22.1386   19.3392 C   0  0  0  0  0  0  0  0  0  0  0  0
   12.3479  -20.9142   19.9647 C   0  0  0  0  0  0  0  0  0  0  0  0
   11.3052  -20.5862   20.7930 C   0  0  0  0  0  0  0  0  0  0  0  0
   11.2214  -19.2803   21.5026 C   0  0  0  0  0  0  0  0  0  0  0  0
   10.3273  -18.2973   20.7847 C   0  0  2  0  0  0  0  0  0  0  0  0
   10.8472  -17.9516   19.4985 N   0  0  0  0  0  0  0  0  0  0  0  0
   10.2283  -17.0943   21.6762 C   0  0  0  0  0  0  0  0  0  0  0  0
   10.9615  -16.1042   21.5558 O   0  0  0  0  0  0  0  0  0  0  0  0
   10.2971  -21.5078   20.9717 C   0  0  0  0  0  0  0  0  0  0  0  0
   10.3184  -22.7342   20.3422 C   0  0  0  0  0  0  0  0  0  0  0  0
    9.2556  -17.0936   22.6962 N   0  0  0  0  0  0  0  0  0  0  0  0
    9.0921  -16.0260   23.6604 C   0  0  1  0  0  0  0  0  0  0  0  0
    7.7841  -16.0844   24.3764 C   0  0  0  0  0  0  0  0  0  0  0  0
    7.2740  -14.7021   24.5555 C   0  0  0  0  0  0  0  0  0  0  0  0
    6.4334  -13.9729   23.7091 C   0  0  0  0  0  0  0  0  0  0  0  0
    6.2068  -12.7552   24.2233 N   0  0  0  0  0  0  0  0  0  0  0  0
    6.8626  -12.6373   25.3830 C   0  0  0  0  0  0  0  0  0  0  0  0
    6.9522  -11.5996   26.2842 C   0  0  0  0  0  0  0  0  0  0  0  0
    7.6968  -11.6848   27.4414 C   0  0  0  0  0  0  0  0  0  0  0  0
    8.3605  -12.8843   27.6562 C   0  0  0  0  0  0  0  0  0  0  0  0
    8.2734  -13.9362   26.7488 C   0  0  0  0  0  0  0  0  0  0  0  0
    7.5293  -13.8222   25.6134 C   0  0  0  0  0  0  0  0  0  0  0  0
   10.2521  -15.9347   24.5827 C   0  0  0  0  0  0  0  0  0  0  0  0
   10.6721  -14.8275   25.0079 O   0  0  0  0  0  0  0  0  0  0  0  0
   10.9616  -17.0741   25.0451 N   0  0  0  0  0  0  0  0  0  0  0  0
   12.1330  -16.9520   25.9504 C   0  0  1  0  0  0  0  0  0  0  0  0
   12.2121  -18.1515   26.8303 C   0  0  0  0  0  0  0  0  0  0  0  0
   11.5392  -17.9245   28.1436 C   0  0  0  0  0  0  0  0  0  0  0  0
   11.6012  -19.2644   28.8921 C   0  0  0  0  0  0  0  0  0  0  0  0
   11.0715  -19.1085   30.2996 C   0  0  0  0  0  0  0  0  0  0  0  0
   10.1739  -20.1851   30.6360 N   0  0  0  0  0  0  0  0  0  0  0  0
   13.3027  -16.8558   25.0745 C   0  0  0  0  0  0  0  0  0  0  0  0
   13.8871  -15.7779   24.8492 O   0  0  0  0  0  0  0  0  0  0  0  0
   13.8111  -17.9808   24.4536 O   0  0  0  0  0  0  0  0  0  0  0  0
  2  1  1  0
  2 12  2  0
  3  2  1  0
  4  3  2  0
  4  5  1  0
  5 11  2  0
  6  5  1  0
  7  6  1  0
  7  8  1  6
  9 13  1  0
  9  7  1  0
 10  9  2  0
 11 12  1  0
 14 15  1  1
 14 13  1  0
 16 15  1  0
 17 16  2  0
 18 17  1  0
 19 24  2  0
 19 18  1  0
 20 19  1  0
 21 20  2  0
 21 22  1  0
 22 23  2  0
 23 24  1  0
 24 16  1  0
 25 14  1  0
 25 27  1  0
 26 25  2  0
 28 27  1  0
 28 29  1  1
 30 29  1  0
 31 32  1  0
 31 30  1  0
 32 33  1  0
 34 28  1  0
 35 34  2  0
 36 34  1  0
M  END
$$$$
