YWK.pdb
     RDKit          3D

 36 38  0  0  1  0  0  0  0  0999 V2000
    8.6633  -27.3883   24.3756 O   0  0  0  0  0  0  0  0  0  0  0  0
    8.5373  -26.0011   24.1683 C   0  0  0  0  0  0  0  0  0  0  0  0
    8.6682  -25.1056   25.2071 C   0  0  0  0  0  0  0  0  0  0  0  0
    8.5496  -23.7472   25.0304 C   0  0  0  0  0  0  0  0  0  0  0  0
    8.2913  -23.2425   23.7816 C   0  0  0  0  0  0  0  0  0  0  0  0
    8.1500  -21.7845   23.5164 C   0  0  0  0  0  0  0  0  0  0  0  0
    7.0339  -21.1635   24.3227 C   0  0  2  0  0  0  0  0  0  0  0  0
    5.7548  -21.6672   23.9301 N   0  0  0  0  0  0  0  0  0  0  0  0
    7.1310  -19.6828   24.0994 C   0  0  0  0  0  0  0  0  0  0  0  0
    6.5672  -19.1044   23.1613 O   0  0  0  0  0  0  0  0  0  0  0  0
    8.1581  -24.1265   22.7336 C   0  0  0  0  0  0  0  0  0  0  0  0
    8.2779  -25.4878   22.9161 C   0  0  0  0  0  0  0  0  0  0  0  0
    7.8995  -18.9177   24.9998 N   0  0  0  0  0  0  0  0  0  0  0  0
    8.0496  -17.4799   24.9196 C   0  0  1  0  0  0  0  0  0  0  0  0
    8.2895  -16.8453   26.2487 C   0  0  0  0  0  0  0  0  0  0  0  0
    7.2381  -15.8255   26.4893 C   0  0  0  0  0  0  0  0  0  0  0  0
    5.8904  -16.0283   26.8013 C   0  0  0  0  0  0  0  0  0  0  0  0
    5.2672  -14.8486   26.9373 N   0  0  0  0  0  0  0  0  0  0  0  0
    6.1439  -13.8602   26.7290 C   0  0  0  0  0  0  0  0  0  0  0  0
    6.0037  -12.4902   26.7525 C   0  0  0  0  0  0  0  0  0  0  0  0
    7.0547  -11.6330   26.5046 C   0  0  0  0  0  0  0  0  0  0  0  0
    8.2775  -12.2270   26.2264 C   0  0  0  0  0  0  0  0  0  0  0  0
    8.4248  -13.6108   26.2014 C   0  0  0  0  0  0  0  0  0  0  0  0
    7.3673  -14.4325   26.4506 C   0  0  0  0  0  0  0  0  0  0  0  0
    9.0568  -17.0874   23.9016 C   0  0  0  0  0  0  0  0  0  0  0  0
   10.1901  -17.6314   23.8500 O   0  0  0  0  0  0  0  0  0  0  0  0
    8.8173  -16.0838   22.9266 N   0  0  0  0  0  0  0  0  0  0  0  0
    9.7770  -15.8195   21.8240 C   0  0  1  0  0  0  0  0  0  0  0  0
    9.1404  -14.9351   20.8082 C   0  0  0  0  0  0  0  0  0  0  0  0
   10.0452  -14.6766   19.6491 C   0  0  0  0  0  0  0  0  0  0  0  0
    9.2230  -13.8619   18.6393 C   0  0  0  0  0  0  0  0  0  0  0  0
   10.0266  -13.6112   17.3833 C   0  0  0  0  0  0  0  0  0  0  0  0
    9.2085  -13.0157   16.3568 N   0  0  0  0  0  0  0  0  0  0  0  0
   10.9300  -15.1684   22.4495 C   0  0  0  0  0  0  0  0  0  0  0  0
   12.0760  -15.2166   21.9614 O   0  0  0  0  0  0  0  0  0  0  0  0
   10.7851  -14.4620   23.6284 O   0  0  0  0  0  0  0  0  0  0  0  0
  2  1  1  0
  2 12  2  0
  3  2  1  0
  4  3  2  0
  4  5  1  0
  5 11  2  0
  6  5  1  0
  7  6  1  0
  7  8  1  6
  9 13  1  0
  9  7  1  0
 10  9  2  0
 11 12  1  0
 14 15  1  1
 14 13  1  0
 16 15  1  0
 17 16  2  0
 18 17  1  0
 19 24  2  0
 19 18  1  0
 20 19  1  0
 21 20  2  0
 21 22  1  0
 22 23  2  0
 23 24  1  0
 24 16  1  0
 25 14  1  0
 25 27  1  0
 26 25  2  0
 28 27  1  0
 28 29  1  6
 30 29  1  0
 31 32  1  0
 31 30  1  0
 32 33  1  0
 34 28  1  0
 35 34  2  0
 36 34  1  0
M  END
$$$$
