YWK.pdb
     RDKit          3D

 36 38  0  0  1  0  0  0  0  0999 V2000
    7.6415  -13.4660   15.9930 O   0  0  0  0  0  0  0  0  0  0  0  0
    8.0451  -13.6514   17.3293 C   0  0  0  0  0  0  0  0  0  0  0  0
    9.1846  -14.3594   17.6429 C   0  0  0  0  0  0  0  0  0  0  0  0
    9.5995  -14.5541   18.9393 C   0  0  0  0  0  0  0  0  0  0  0  0
    8.8669  -14.0327   19.9749 C   0  0  0  0  0  0  0  0  0  0  0  0
    9.2555  -14.2040   21.4017 C   0  0  0  0  0  0  0  0  0  0  0  0
    9.5364  -15.6473   21.7471 C   0  0  2  0  0  0  0  0  0  0  0  0
    8.4150  -16.4870   21.4619 N   0  0  0  0  0  0  0  0  0  0  0  0
    9.8782  -15.6683   23.2081 C   0  0  0  0  0  0  0  0  0  0  0  0
   10.8070  -15.0087   23.6924 O   0  0  0  0  0  0  0  0  0  0  0  0
    7.7252  -13.3225   19.6757 C   0  0  0  0  0  0  0  0  0  0  0  0
    7.3134  -13.1301   18.3741 C   0  0  0  0  0  0  0  0  0  0  0  0
    9.1052  -16.4763   24.0662 N   0  0  0  0  0  0  0  0  0  0  0  0
    9.4023  -16.6874   25.4674 C   0  0  1  0  0  0  0  0  0  0  0  0
    8.1793  -16.7276   26.3215 C   0  0  0  0  0  0  0  0  0  0  0  0
    7.3505  -15.5317   26.0278 C   0  0  0  0  0  0  0  0  0  0  0  0
    6.1432  -15.4662   25.3257 C   0  0  0  0  0  0  0  0  0  0  0  0
    5.7106  -14.1980   25.2719 N   0  0  0  0  0  0  0  0  0  0  0  0
    6.5805  -13.4079   25.9107 C   0  0  0  0  0  0  0  0  0  0  0  0
    6.5922  -12.0487   26.1334 C   0  0  0  0  0  0  0  0  0  0  0  0
    7.6028  -11.4202   26.8295 C   0  0  0  0  0  0  0  0  0  0  0  0
    8.6215  -12.2359   27.3009 C   0  0  0  0  0  0  0  0  0  0  0  0
    8.6146  -13.6099   27.0788 C   0  0  0  0  0  0  0  0  0  0  0  0
    7.6018  -14.2027   26.3871 C   0  0  0  0  0  0  0  0  0  0  0  0
   10.2886  -17.8611   25.6716 C   0  0  0  0  0  0  0  0  0  0  0  0
   10.5572  -18.6567   24.7347 O   0  0  0  0  0  0  0  0  0  0  0  0
   10.8887  -18.1663   26.9214 N   0  0  0  0  0  0  0  0  0  0  0  0
   11.4635  -19.5060   27.2069 C   0  0  1  0  0  0  0  0  0  0  0  0
   10.8445  -20.5179   26.3058 C   0  0  0  0  0  0  0  0  0  0  0  0
   11.4161  -21.8801   26.5218 C   0  0  0  0  0  0  0  0  0  0  0  0
   10.6857  -22.8099   25.5412 C   0  0  0  0  0  0  0  0  0  0  0  0
   11.1961  -24.2267   25.6764 C   0  0  0  0  0  0  0  0  0  0  0  0
   10.8685  -24.7726   26.9696 N   0  0  0  0  0  0  0  0  0  0  0  0
   12.9015  -19.3813   26.9597 C   0  0  0  0  0  0  0  0  0  0  0  0
   13.3634  -18.8287   25.9422 O   0  0  0  0  0  0  0  0  0  0  0  0
   13.8171  -19.8825   27.8653 O   0  0  0  0  0  0  0  0  0  0  0  0
  2  1  1  0
  2 12  2  0
  3  2  1  0
  4  3  2  0
  4  5  1  0
  5 11  2  0
  6  5  1  0
  7  6  1  0
  7  8  1  1
  9 13  1  0
  9  7  1  0
 10  9  2  0
 11 12  1  0
 14 15  1  1
 14 13  1  0
 16 15  1  0
 17 16  2  0
 18 17  1  0
 19 24  2  0
 19 18  1  0
 20 19  1  0
 21 20  2  0
 21 22  1  0
 22 23  2  0
 23 24  1  0
 24 16  1  0
 25 14  1  0
 25 27  1  0
 26 25  2  0
 28 27  1  0
 28 29  1  6
 30 29  1  0
 31 32  1  0
 31 30  1  0
 32 33  1  0
 34 28  1  0
 35 34  2  0
 36 34  1  0
M  END
$$$$
