YWK.pdb
     RDKit          3D

 36 38  0  0  1  0  0  0  0  0999 V2000
    6.2230  -14.6065   14.4156 O   0  0  0  0  0  0  0  0  0  0  0  0
    7.1053  -14.5710   15.5126 C   0  0  0  0  0  0  0  0  0  0  0  0
    7.4332  -15.7149   16.2069 C   0  0  0  0  0  0  0  0  0  0  0  0
    8.2918  -15.7062   17.2808 C   0  0  0  0  0  0  0  0  0  0  0  0
    8.8545  -14.5257   17.6939 C   0  0  0  0  0  0  0  0  0  0  0  0
    9.7914  -14.4412   18.8476 C   0  0  0  0  0  0  0  0  0  0  0  0
   10.0037  -15.7821   19.5095 C   0  0  2  0  0  0  0  0  0  0  0  0
    9.0563  -16.7517   19.0554 N   0  0  0  0  0  0  0  0  0  0  0  0
    9.8780  -15.5439   20.9858 C   0  0  0  0  0  0  0  0  0  0  0  0
   10.7398  -14.9520   21.6486 O   0  0  0  0  0  0  0  0  0  0  0  0
    8.5354  -13.3741   17.0086 C   0  0  0  0  0  0  0  0  0  0  0  0
    7.6739  -13.3881   15.9323 C   0  0  0  0  0  0  0  0  0  0  0  0
    8.7256  -16.0162   21.6456 N   0  0  0  0  0  0  0  0  0  0  0  0
    8.4781  -15.8531   23.0628 C   0  0  1  0  0  0  0  0  0  0  0  0
    7.0341  -15.6535   23.3817 C   0  0  0  0  0  0  0  0  0  0  0  0
    6.9090  -15.2510   24.8049 C   0  0  0  0  0  0  0  0  0  0  0  0
    6.5598  -16.0447   25.9017 C   0  0  0  0  0  0  0  0  0  0  0  0
    6.5530  -15.3056   27.0207 N   0  0  0  0  0  0  0  0  0  0  0  0
    6.8842  -14.0454   26.7189 C   0  0  0  0  0  0  0  0  0  0  0  0
    7.0167  -12.9197   27.5014 C   0  0  0  0  0  0  0  0  0  0  0  0
    7.3738  -11.6935   26.9820 C   0  0  0  0  0  0  0  0  0  0  0  0
    7.5961  -11.6491   25.6130 C   0  0  0  0  0  0  0  0  0  0  0  0
    7.4636  -12.7836   24.8176 C   0  0  0  0  0  0  0  0  0  0  0  0
    7.1093  -13.9819   25.3599 C   0  0  0  0  0  0  0  0  0  0  0  0
    9.1009  -16.9405   23.8593 C   0  0  0  0  0  0  0  0  0  0  0  0
    8.8026  -18.1487   23.6740 O   0  0  0  0  0  0  0  0  0  0  0  0
   10.0645  -16.6991   24.8734 N   0  0  0  0  0  0  0  0  0  0  0  0
   10.7581  -17.8103   25.5739 C   0  0  1  0  0  0  0  0  0  0  0  0
   12.2308  -17.6696   25.3992 C   0  0  0  0  0  0  0  0  0  0  0  0
   12.9809  -18.7558   26.0968 C   0  0  0  0  0  0  0  0  0  0  0  0
   14.4677  -18.5025   25.8057 C   0  0  0  0  0  0  0  0  0  0  0  0
   15.3220  -19.5697   26.4517 C   0  0  0  0  0  0  0  0  0  0  0  0
   16.7028  -19.4326   26.0615 N   0  0  0  0  0  0  0  0  0  0  0  0
   10.3750  -17.6916   26.9824 C   0  0  0  0  0  0  0  0  0  0  0  0
   10.0770  -16.6014   27.5085 O   0  0  0  0  0  0  0  0  0  0  0  0
   10.3291  -18.8079   27.7956 O   0  0  0  0  0  0  0  0  0  0  0  0
  2  1  1  0
  2 12  2  0
  3  2  1  0
  4  3  2  0
  4  5  1  0
  5 11  2  0
  6  5  1  0
  7  6  1  0
  7  8  1  6
  9 13  1  0
  9  7  1  0
 10  9  2  0
 11 12  1  0
 14 15  1  6
 14 13  1  0
 16 15  1  0
 17 16  2  0
 18 17  1  0
 19 24  2  0
 19 18  1  0
 20 19  1  0
 21 20  2  0
 21 22  1  0
 22 23  2  0
 23 24  1  0
 24 16  1  0
 25 14  1  0
 25 27  1  0
 26 25  2  0
 28 27  1  0
 28 29  1  1
 30 29  1  0
 31 32  1  0
 31 30  1  0
 32 33  1  0
 34 28  1  0
 35 34  2  0
 36 34  1  0
M  END
$$$$
