YWK.pdb
     RDKit          3D

 36 38  0  0  1  0  0  0  0  0999 V2000
    9.4527  -21.1158   14.8342 O   0  0  0  0  0  0  0  0  0  0  0  0
    9.5397  -20.4179   16.0543 C   0  0  0  0  0  0  0  0  0  0  0  0
    9.6213  -21.0840   17.2575 C   0  0  0  0  0  0  0  0  0  0  0  0
    9.7072  -20.4257   18.4616 C   0  0  0  0  0  0  0  0  0  0  0  0
    9.7134  -19.0545   18.4896 C   0  0  0  0  0  0  0  0  0  0  0  0
    9.8035  -18.2759   19.7552 C   0  0  0  0  0  0  0  0  0  0  0  0
    9.6883  -16.7885   19.5195 C   0  0  2  0  0  0  0  0  0  0  0  0
   10.7541  -16.2987   18.7021 N   0  0  0  0  0  0  0  0  0  0  0  0
    9.7008  -16.1482   20.8765 C   0  0  0  0  0  0  0  0  0  0  0  0
   10.7012  -15.5950   21.3514 O   0  0  0  0  0  0  0  0  0  0  0  0
    9.6324  -18.3756   17.2938 C   0  0  0  0  0  0  0  0  0  0  0  0
    9.5465  -19.0405   16.0890 C   0  0  0  0  0  0  0  0  0  0  0  0
    8.5188  -16.1790   21.6436 N   0  0  0  0  0  0  0  0  0  0  0  0
    8.4153  -15.6698   22.9950 C   0  0  1  0  0  0  0  0  0  0  0  0
    7.0343  -15.2255   23.3448 C   0  0  0  0  0  0  0  0  0  0  0  0
    6.9902  -14.8919   24.7905 C   0  0  0  0  0  0  0  0  0  0  0  0
    6.7897  -15.7546   25.8723 C   0  0  0  0  0  0  0  0  0  0  0  0
    6.8135  -15.0641   27.0218 N   0  0  0  0  0  0  0  0  0  0  0  0
    7.0224  -13.7703   26.7547 C   0  0  0  0  0  0  0  0  0  0  0  0
    7.1288  -12.6700   27.5764 C   0  0  0  0  0  0  0  0  0  0  0  0
    7.3491  -11.3993   27.0891 C   0  0  0  0  0  0  0  0  0  0  0  0
    7.4597  -11.2821   25.7108 C   0  0  0  0  0  0  0  0  0  0  0  0
    7.3530  -12.3906   24.8759 C   0  0  0  0  0  0  0  0  0  0  0  0
    7.1351  -13.6343   25.3870 C   0  0  0  0  0  0  0  0  0  0  0  0
    8.9858  -16.6173   23.9857 C   0  0  0  0  0  0  0  0  0  0  0  0
    8.5036  -17.7672   24.1533 O   0  0  0  0  0  0  0  0  0  0  0  0
   10.1012  -16.2988   24.8040 N   0  0  0  0  0  0  0  0  0  0  0  0
   10.7538  -17.3162   25.6676 C   0  0  1  0  0  0  0  0  0  0  0  0
   12.1959  -17.4245   25.3104 C   0  0  0  0  0  0  0  0  0  0  0  0
   12.4181  -17.2825   23.8408 C   0  0  0  0  0  0  0  0  0  0  0  0
   13.9403  -17.3005   23.6357 C   0  0  0  0  0  0  0  0  0  0  0  0
   14.2752  -17.2779   22.1614 C   0  0  0  0  0  0  0  0  0  0  0  0
   15.6932  -17.1206   21.9561 N   0  0  0  0  0  0  0  0  0  0  0  0
   10.5796  -16.8404   27.0416 C   0  0  0  0  0  0  0  0  0  0  0  0
   11.0090  -17.4676   28.0298 O   0  0  0  0  0  0  0  0  0  0  0  0
    9.9192  -15.6537   27.2970 O   0  0  0  0  0  0  0  0  0  0  0  0
  2  1  1  0
  2 12  2  0
  3  2  1  0
  4  3  2  0
  4  5  1  0
  5 11  2  0
  6  5  1  0
  7  6  1  0
  7  8  1  6
  9 13  1  0
  9  7  1  0
 10  9  2  0
 11 12  1  0
 14 15  1  1
 14 13  1  0
 16 15  1  0
 17 16  2  0
 18 17  1  0
 19 24  2  0
 19 18  1  0
 20 19  1  0
 21 20  2  0
 21 22  1  0
 22 23  2  0
 23 24  1  0
 24 16  1  0
 25 14  1  0
 25 27  1  0
 26 25  2  0
 28 27  1  0
 28 29  1  6
 30 29  1  0
 31 32  1  0
 31 30  1  0
 32 33  1  0
 34 28  1  0
 35 34  2  0
 36 34  1  0
M  END
$$$$
