KAG.pdb
     RDKit          3D

 19 18  0  0  1  0  0  0  0  0999 V2000
   18.8388  -13.3849  -16.1632 N   0  0  0  0  0  0  0  0  0  0  0  0
   19.5116  -12.1947  -16.5795 C   0  0  1  0  0  0  0  0  0  0  0  0
   18.6426  -11.3178  -17.4670 C   0  0  0  0  0  0  0  0  0  0  0  0
   18.1462  -12.0675  -18.6742 C   0  0  0  0  0  0  0  0  0  0  0  0
   17.3933  -11.1375  -19.5696 C   0  0  0  0  0  0  0  0  0  0  0  0
   16.8775  -11.7923  -20.8198 C   0  0  0  0  0  0  0  0  0  0  0  0
   16.0864  -10.8301  -21.5618 N   0  0  0  0  0  0  0  0  0  0  0  0
   20.1028  -11.4366  -15.4596 C   0  0  0  0  0  0  0  0  0  0  0  0
   19.3717  -11.1187  -14.4959 O   0  0  0  0  0  0  0  0  0  0  0  0
   23.4826  -10.6373  -14.0573 C   0  0  0  0  0  0  0  0  0  0  0  0
   22.0477  -10.2698  -14.3571 C   0  0  2  0  0  0  0  0  0  0  0  0
   21.4719  -11.0402  -15.4088 N   0  0  0  0  0  0  0  0  0  0  0  0
   21.9656   -8.8103  -14.5728 C   0  0  0  0  0  0  0  0  0  0  0  0
   22.3780   -8.0352  -13.6724 O   0  0  0  0  0  0  0  0  0  0  0  0
   21.4450   -8.1982  -15.7451 N   0  0  0  0  0  0  0  0  0  0  0  0
   21.3872   -6.7489  -15.8931 C   0  0  0  0  0  0  0  0  0  0  0  0
   20.0694   -6.2591  -15.4812 C   0  0  0  0  0  0  0  0  0  0  0  0
   19.7190   -4.9284  -15.5544 O   0  0  0  0  0  0  0  0  0  0  0  0
   19.2149   -7.0781  -15.0410 O   0  0  0  0  0  0  0  0  0  0  0  0
  2  1  1  1
  2  3  1  0
  4  3  1  0
  4  5  1  0
  6  5  1  0
  7  6  1  0
  8  2  1  0
  8 12  1  0
  9  8  2  0
 11 10  1  6
 11 12  1  0
 11 13  1  0
 13 15  1  0
 14 13  2  0
 15 16  1  0
 17 18  1  0
 17 16  1  0
 19 17  2  0
M  END
$$$$
