KAG.pdb
     RDKit          3D

 19 18  0  0  1  0  0  0  0  0999 V2000
   13.4298  -11.5080  -10.4538 N   0  0  0  0  0  0  0  0  0  0  0  0
   14.6256  -10.7441  -10.6248 C   0  0  1  0  0  0  0  0  0  0  0  0
   15.2828  -10.9903  -11.9736 C   0  0  0  0  0  0  0  0  0  0  0  0
   15.7467  -12.4153  -12.1143 C   0  0  0  0  0  0  0  0  0  0  0  0
   16.3382  -12.6203  -13.4714 C   0  0  0  0  0  0  0  0  0  0  0  0
   16.7330  -14.0438  -13.7466 C   0  0  0  0  0  0  0  0  0  0  0  0
   17.2204  -14.1409  -15.1087 N   0  0  0  0  0  0  0  0  0  0  0  0
   14.4429   -9.3053  -10.3514 C   0  0  0  0  0  0  0  0  0  0  0  0
   13.3807   -8.7540  -10.7146 O   0  0  0  0  0  0  0  0  0  0  0  0
   16.0135   -6.6469   -8.1905 C   0  0  0  0  0  0  0  0  0  0  0  0
   15.2488   -7.1093   -9.4092 C   0  0  2  0  0  0  0  0  0  0  0  0
   15.4145   -8.4965   -9.6910 N   0  0  0  0  0  0  0  0  0  0  0  0
   15.5843   -6.2255  -10.5449 C   0  0  0  0  0  0  0  0  0  0  0  0
   16.5840   -6.4984  -11.2572 O   0  0  0  0  0  0  0  0  0  0  0  0
   14.8491   -5.0637  -10.9048 N   0  0  0  0  0  0  0  0  0  0  0  0
   15.1993   -4.2652  -12.0734 C   0  0  0  0  0  0  0  0  0  0  0  0
   16.4527   -3.5476  -11.8279 C   0  0  0  0  0  0  0  0  0  0  0  0
   16.5494   -2.5189  -10.9161 O   0  0  0  0  0  0  0  0  0  0  0  0
   17.4894   -3.8756  -12.4700 O   0  0  0  0  0  0  0  0  0  0  0  0
  2  1  1  6
  2  3  1  0
  4  3  1  0
  4  5  1  0
  6  5  1  0
  7  6  1  0
  8  2  1  0
  8 12  1  0
  9  8  2  0
 11 10  1  1
 11 12  1  0
 11 13  1  0
 13 15  1  0
 14 13  2  0
 15 16  1  0
 17 18  1  0
 17 16  1  0
 19 17  2  0
M  END
$$$$
