KAG.pdb
     RDKit          3D

 19 18  0  0  1  0  0  0  0  0999 V2000
   19.6962  -15.1999  -19.0567 N   0  0  0  0  0  0  0  0  0  0  0  0
   19.7185  -14.5012  -17.8101 C   0  0  1  0  0  0  0  0  0  0  0  0
   20.5134  -15.2404  -16.7455 C   0  0  0  0  0  0  0  0  0  0  0  0
   19.9046  -16.5796  -16.4268 C   0  0  0  0  0  0  0  0  0  0  0  0
   20.6756  -17.2338  -15.3262 C   0  0  0  0  0  0  0  0  0  0  0  0
   20.1178  -18.5657  -14.9105 C   0  0  0  0  0  0  0  0  0  0  0  0
   20.9581  -19.1219  -13.8679 N   0  0  0  0  0  0  0  0  0  0  0  0
   20.1398  -13.0925  -17.9384 C   0  0  0  0  0  0  0  0  0  0  0  0
   21.1138  -12.8204  -18.6743 O   0  0  0  0  0  0  0  0  0  0  0  0
   18.7182   -9.7479  -17.8187 C   0  0  0  0  0  0  0  0  0  0  0  0
   19.8663  -10.6418  -17.4103 C   0  0  2  0  0  0  0  0  0  0  0  0
   19.4970  -12.0109  -17.2669 N   0  0  0  0  0  0  0  0  0  0  0  0
   20.5116  -10.0691  -16.2107 C   0  0  0  0  0  0  0  0  0  0  0  0
   20.2034  -10.5186  -15.0775 O   0  0  0  0  0  0  0  0  0  0  0  0
   21.4761   -9.0256  -16.2367 N   0  0  0  0  0  0  0  0  0  0  0  0
   22.1293   -8.5538  -15.0215 C   0  0  0  0  0  0  0  0  0  0  0  0
   21.2379   -7.6423  -14.2997 C   0  0  0  0  0  0  0  0  0  0  0  0
   21.5827   -7.0715  -13.0937 O   0  0  0  0  0  0  0  0  0  0  0  0
   20.1091   -7.3623  -14.7916 O   0  0  0  0  0  0  0  0  0  0  0  0
  2  1  1  6
  2  3  1  0
  4  3  1  0
  4  5  1  0
  6  5  1  0
  7  6  1  0
  8  2  1  0
  8 12  1  0
  9  8  2  0
 11 10  1  1
 11 12  1  0
 11 13  1  0
 13 15  1  0
 14 13  2  0
 15 16  1  0
 17 18  1  0
 17 16  1  0
 19 17  2  0
M  END
$$$$
