KAG.pdb
     RDKit          3D

 19 18  0  0  1  0  0  0  0  0999 V2000
   24.5664  -21.0775  -13.3803 N   0  0  0  0  0  0  0  0  0  0  0  0
   23.8220  -20.7890  -14.5658 C   0  0  1  0  0  0  0  0  0  0  0  0
   22.3204  -20.8721  -14.3420 C   0  0  0  0  0  0  0  0  0  0  0  0
   21.9324  -22.1467  -13.6416 C   0  0  0  0  0  0  0  0  0  0  0  0
   20.4438  -22.2310  -13.5383 C   0  0  0  0  0  0  0  0  0  0  0  0
   19.7780  -22.6888  -14.8052 C   0  0  0  0  0  0  0  0  0  0  0  0
   18.3469  -22.7612  -14.5838 N   0  0  0  0  0  0  0  0  0  0  0  0
   24.2174  -19.5208  -15.2088 C   0  0  0  0  0  0  0  0  0  0  0  0
   24.3414  -18.4990  -14.4982 O   0  0  0  0  0  0  0  0  0  0  0  0
   25.9052  -18.3375  -18.2995 C   0  0  0  0  0  0  0  0  0  0  0  0
   24.8361  -18.1677  -17.2450 C   0  0  2  0  0  0  0  0  0  0  0  0
   24.4693  -19.3878  -16.6062 N   0  0  0  0  0  0  0  0  0  0  0  0
   23.6958  -17.4379  -17.8370 C   0  0  0  0  0  0  0  0  0  0  0  0
   23.9138  -16.3741  -18.4712 O   0  0  0  0  0  0  0  0  0  0  0  0
   22.3396  -17.8527  -17.7443 N   0  0  0  0  0  0  0  0  0  0  0  0
   21.2644  -17.1122  -18.3935 C   0  0  0  0  0  0  0  0  0  0  0  0
   20.5180  -16.3421  -17.3955 C   0  0  0  0  0  0  0  0  0  0  0  0
   20.9389  -16.2207  -16.0889 O   0  0  0  0  0  0  0  0  0  0  0  0
   19.4476  -15.7638  -17.7341 O   0  0  0  0  0  0  0  0  0  0  0  0
  2  1  1  1
  2  3  1  0
  4  3  1  0
  4  5  1  0
  6  5  1  0
  7  6  1  0
  8  2  1  0
  8 12  1  0
  9  8  2  0
 11 10  1  6
 11 12  1  0
 11 13  1  0
 13 15  1  0
 14 13  2  0
 15 16  1  0
 17 18  1  0
 17 16  1  0
 19 17  2  0
M  END
$$$$
