KAG.pdb
     RDKit          3D

 19 18  0  0  1  0  0  0  0  0999 V2000
   20.9906  -20.0170  -10.0842 N   0  0  0  0  0  0  0  0  0  0  0  0
   21.4732  -20.3314  -11.3923 C   0  0  1  0  0  0  0  0  0  0  0  0
   20.7584  -19.5437  -12.4787 C   0  0  0  0  0  0  0  0  0  0  0  0
   20.1102  -20.4520  -13.4889 C   0  0  0  0  0  0  0  0  0  0  0  0
   20.3593  -21.8778  -13.1166 C   0  0  0  0  0  0  0  0  0  0  0  0
   19.7658  -22.8641  -14.0824 C   0  0  0  0  0  0  0  0  0  0  0  0
   20.1213  -24.2054  -13.6618 N   0  0  0  0  0  0  0  0  0  0  0  0
   22.9411  -20.2339  -11.5115 C   0  0  0  0  0  0  0  0  0  0  0  0
   23.4968  -19.1492  -11.2310 O   0  0  0  0  0  0  0  0  0  0  0  0
   25.9888  -22.3139  -11.5817 C   0  0  0  0  0  0  0  0  0  0  0  0
   25.1705  -21.1982  -12.1895 C   0  0  2  0  0  0  0  0  0  0  0  0
   23.7735  -21.3131  -11.9317 N   0  0  0  0  0  0  0  0  0  0  0  0
   25.5054  -21.0900  -13.6246 C   0  0  0  0  0  0  0  0  0  0  0  0
   26.7142  -21.0464  -13.9685 O   0  0  0  0  0  0  0  0  0  0  0  0
   24.5470  -21.0301  -14.6723 N   0  0  0  0  0  0  0  0  0  0  0  0
   24.9447  -20.9416  -16.0722 C   0  0  0  0  0  0  0  0  0  0  0  0
   24.3749  -19.7344  -16.6757 C   0  0  0  0  0  0  0  0  0  0  0  0
   23.5239  -18.8956  -15.9893 O   0  0  0  0  0  0  0  0  0  0  0  0
   24.6677  -19.4418  -17.8687 O   0  0  0  0  0  0  0  0  0  0  0  0
  2  1  1  1
  2  3  1  0
  4  3  1  0
  4  5  1  0
  6  5  1  0
  7  6  1  0
  8  2  1  0
  8 12  1  0
  9  8  2  0
 11 10  1  6
 11 12  1  0
 11 13  1  0
 13 15  1  0
 14 13  2  0
 15 16  1  0
 17 18  1  0
 17 16  1  0
 19 17  2  0
M  END
$$$$
