KAG.pdb
     RDKit          3D

 19 18  0  0  1  0  0  0  0  0999 V2000
   17.4142  -10.9413  -16.1238 N   0  0  0  0  0  0  0  0  0  0  0  0
   18.7513  -10.4482  -16.2326 C   0  0  1  0  0  0  0  0  0  0  0  0
   19.6474  -11.3756  -17.0379 C   0  0  0  0  0  0  0  0  0  0  0  0
   19.3058  -12.8224  -16.8016 C   0  0  0  0  0  0  0  0  0  0  0  0
   20.2709  -13.6941  -17.5380 C   0  0  0  0  0  0  0  0  0  0  0  0
   20.0675  -15.1618  -17.2879 C   0  0  0  0  0  0  0  0  0  0  0  0
   21.0577  -15.9079  -18.0396 N   0  0  0  0  0  0  0  0  0  0  0  0
   18.8218   -9.0543  -16.7126 C   0  0  0  0  0  0  0  0  0  0  0  0
   18.4080   -8.7927  -17.8635 O   0  0  0  0  0  0  0  0  0  0  0  0
   17.8087   -6.1483  -16.5284 C   0  0  0  0  0  0  0  0  0  0  0  0
   19.2317   -6.6011  -16.2962 C   0  0  2  0  0  0  0  0  0  0  0  0
   19.3386   -7.9758  -15.9356 N   0  0  0  0  0  0  0  0  0  0  0  0
   19.8729   -5.6804  -15.3347 C   0  0  0  0  0  0  0  0  0  0  0  0
   19.3850   -5.5640  -14.1815 O   0  0  0  0  0  0  0  0  0  0  0  0
   21.0249   -4.8972  -15.6164 N   0  0  0  0  0  0  0  0  0  0  0  0
   21.7041   -4.1303  -14.5789 C   0  0  0  0  0  0  0  0  0  0  0  0
   22.1500   -5.0267  -13.5094 C   0  0  0  0  0  0  0  0  0  0  0  0
   23.3242   -5.7440  -13.5872 O   0  0  0  0  0  0  0  0  0  0  0  0
   21.4399   -5.1547  -12.4731 O   0  0  0  0  0  0  0  0  0  0  0  0
  2  1  1  6
  2  3  1  0
  4  3  1  0
  4  5  1  0
  6  5  1  0
  7  6  1  0
  8  2  1  0
  8 12  1  0
  9  8  2  0
 11 10  1  1
 11 12  1  0
 11 13  1  0
 13 15  1  0
 14 13  2  0
 15 16  1  0
 17 18  1  0
 17 16  1  0
 19 17  2  0
M  END
$$$$
