KAG.pdb
     RDKit          3D

 19 18  0  0  1  0  0  0  0  0999 V2000
   21.4575  -19.4417  -15.8188 N   0  0  0  0  0  0  0  0  0  0  0  0
   22.5734  -19.0348  -15.0239 C   0  0  1  0  0  0  0  0  0  0  0  0
   23.2947  -20.2139  -14.3906 C   0  0  0  0  0  0  0  0  0  0  0  0
   23.6905  -21.2404  -15.4179 C   0  0  0  0  0  0  0  0  0  0  0  0
   25.1623  -21.4883  -15.3404 C   0  0  0  0  0  0  0  0  0  0  0  0
   25.6782  -22.3901  -16.4260 C   0  0  0  0  0  0  0  0  0  0  0  0
   27.0746  -22.6838  -16.1684 N   0  0  0  0  0  0  0  0  0  0  0  0
   23.5010  -18.1356  -15.7375 C   0  0  0  0  0  0  0  0  0  0  0  0
   23.6127  -18.2478  -16.9781 O   0  0  0  0  0  0  0  0  0  0  0  0
   25.6437  -15.0982  -14.8947 C   0  0  0  0  0  0  0  0  0  0  0  0
   25.1455  -16.2239  -15.7713 C   0  0  2  0  0  0  0  0  0  0  0  0
   24.2864  -17.1356  -15.0915 N   0  0  0  0  0  0  0  0  0  0  0  0
   26.3047  -16.8689  -16.4221 C   0  0  0  0  0  0  0  0  0  0  0  0
   26.8950  -17.8072  -15.8284 O   0  0  0  0  0  0  0  0  0  0  0  0
   26.8180  -16.5041  -17.6962 N   0  0  0  0  0  0  0  0  0  0  0  0
   27.8311  -17.3047  -18.3734 C   0  0  0  0  0  0  0  0  0  0  0  0
   28.3104  -16.5973  -19.5633 C   0  0  0  0  0  0  0  0  0  0  0  0
   29.6417  -16.5640  -19.9177 O   0  0  0  0  0  0  0  0  0  0  0  0
   27.4815  -15.9920  -20.2990 O   0  0  0  0  0  0  0  0  0  0  0  0
  2  1  1  6
  2  3  1  0
  4  3  1  0
  4  5  1  0
  6  5  1  0
  7  6  1  0
  8  2  1  0
  8 12  1  0
  9  8  2  0
 11 10  1  1
 11 12  1  0
 11 13  1  0
 13 15  1  0
 14 13  2  0
 15 16  1  0
 17 18  1  0
 17 16  1  0
 19 17  2  0
M  END
$$$$
