KAG.pdb
     RDKit          3D

 19 18  0  0  1  0  0  0  0  0999 V2000
   18.0665  -11.5186  -18.8016 N   0  0  0  0  0  0  0  0  0  0  0  0
   19.1066  -11.4156  -17.8267 C   0  0  1  0  0  0  0  0  0  0  0  0
   20.1210  -12.5425  -17.9401 C   0  0  0  0  0  0  0  0  0  0  0  0
   19.5361  -13.8622  -17.5134 C   0  0  0  0  0  0  0  0  0  0  0  0
   20.6083  -14.9030  -17.4879 C   0  0  0  0  0  0  0  0  0  0  0  0
   20.1068  -16.2743  -17.1327 C   0  0  0  0  0  0  0  0  0  0  0  0
   21.2282  -17.1932  -17.1108 N   0  0  0  0  0  0  0  0  0  0  0  0
   19.7525  -10.0888  -17.8007 C   0  0  0  0  0  0  0  0  0  0  0  0
   20.5599   -9.7947  -18.7094 O   0  0  0  0  0  0  0  0  0  0  0  0
   19.1753   -6.6894  -17.0294 C   0  0  0  0  0  0  0  0  0  0  0  0
   20.1286   -7.8279  -16.7486 C   0  0  2  0  0  0  0  0  0  0  0  0
   19.5093   -9.1109  -16.7914 N   0  0  0  0  0  0  0  0  0  0  0  0
   20.8408   -7.5511  -15.4839 C   0  0  0  0  0  0  0  0  0  0  0  0
   20.3370   -7.9429  -14.4004 O   0  0  0  0  0  0  0  0  0  0  0  0
   22.0797   -6.8607  -15.3926 N   0  0  0  0  0  0  0  0  0  0  0  0
   22.8030   -6.7455  -14.1319 C   0  0  0  0  0  0  0  0  0  0  0  0
   22.3764   -5.5369  -13.4224 C   0  0  0  0  0  0  0  0  0  0  0  0
   22.9177   -5.1597  -12.2125 O   0  0  0  0  0  0  0  0  0  0  0  0
   21.4800   -4.8060  -13.9292 O   0  0  0  0  0  0  0  0  0  0  0  0
  2  1  1  6
  2  3  1  0
  4  3  1  0
  4  5  1  0
  6  5  1  0
  7  6  1  0
  8  2  1  0
  8 12  1  0
  9  8  2  0
 11 10  1  1
 11 12  1  0
 11 13  1  0
 13 15  1  0
 14 13  2  0
 15 16  1  0
 17 18  1  0
 17 16  1  0
 19 17  2  0
M  END
$$$$
