KAG.pdb
     RDKit          3D

 19 18  0  0  1  0  0  0  0  0999 V2000
   23.5017  -10.3771  -14.7706 N   0  0  0  0  0  0  0  0  0  0  0  0
   22.6271   -9.3731  -15.2900 C   0  0  1  0  0  0  0  0  0  0  0  0
   21.1765   -9.8274  -15.3206 C   0  0  0  0  0  0  0  0  0  0  0  0
   20.9965  -11.0562  -16.1710 C   0  0  0  0  0  0  0  0  0  0  0  0
   19.5405  -11.3639  -16.3089 C   0  0  0  0  0  0  0  0  0  0  0  0
   19.2579  -12.5611  -17.1719 C   0  0  0  0  0  0  0  0  0  0  0  0
   17.8352  -12.8387  -17.1386 N   0  0  0  0  0  0  0  0  0  0  0  0
   22.7841   -8.0633  -14.6280 C   0  0  0  0  0  0  0  0  0  0  0  0
   22.9212   -8.0299  -13.3853 O   0  0  0  0  0  0  0  0  0  0  0  0
   23.6326   -4.5221  -15.5272 C   0  0  0  0  0  0  0  0  0  0  0  0
   22.8903   -5.5447  -14.6983 C   0  0  2  0  0  0  0  0  0  0  0  0
   22.7891   -6.8200  -15.3266 N   0  0  0  0  0  0  0  0  0  0  0  0
   21.5888   -4.9744  -14.2930 C   0  0  0  0  0  0  0  0  0  0  0  0
   21.5704   -3.9246  -13.6010 O   0  0  0  0  0  0  0  0  0  0  0  0
   20.3258   -5.5314  -14.6313 N   0  0  0  0  0  0  0  0  0  0  0  0
   19.0754   -4.8782  -14.2631 C   0  0  0  0  0  0  0  0  0  0  0  0
   18.5812   -4.0803  -15.3879 C   0  0  0  0  0  0  0  0  0  0  0  0
   17.3442   -4.2918  -15.9575 O   0  0  0  0  0  0  0  0  0  0  0  0
   19.3072   -3.1619  -15.8613 O   0  0  0  0  0  0  0  0  0  0  0  0
  2  1  1  1
  2  3  1  0
  4  3  1  0
  4  5  1  0
  6  5  1  0
  7  6  1  0
  8  2  1  0
  8 12  1  0
  9  8  2  0
 11 10  1  6
 11 12  1  0
 11 13  1  0
 13 15  1  0
 14 13  2  0
 15 16  1  0
 17 18  1  0
 17 16  1  0
 19 17  2  0
M  END
$$$$
