KAG.pdb
     RDKit          3D

 19 18  0  0  1  0  0  0  0  0999 V2000
   17.3804  -10.5305  -16.6957 N   0  0  0  0  0  0  0  0  0  0  0  0
   18.5137  -10.5410  -15.8249 C   0  0  1  0  0  0  0  0  0  0  0  0
   19.7900  -10.9560  -16.5394 C   0  0  0  0  0  0  0  0  0  0  0  0
   19.9597  -12.4516  -16.5505 C   0  0  0  0  0  0  0  0  0  0  0  0
   18.8753  -13.0751  -17.3684 C   0  0  0  0  0  0  0  0  0  0  0  0
   18.9685  -14.5727  -17.4492 C   0  0  0  0  0  0  0  0  0  0  0  0
   17.8426  -15.0726  -18.2139 N   0  0  0  0  0  0  0  0  0  0  0  0
   18.6834   -9.2822  -15.0732 C   0  0  0  0  0  0  0  0  0  0  0  0
   18.7042   -8.2026  -15.7044 O   0  0  0  0  0  0  0  0  0  0  0  0
   18.5745   -8.1825  -11.4443 C   0  0  0  0  0  0  0  0  0  0  0  0
   18.9131   -8.0113  -12.9072 C   0  0  2  0  0  0  0  0  0  0  0  0
   18.8267   -9.2211  -13.6556 N   0  0  0  0  0  0  0  0  0  0  0  0
   20.2220   -7.3343  -13.0164 C   0  0  0  0  0  0  0  0  0  0  0  0
   21.2651   -8.0312  -13.1035 O   0  0  0  0  0  0  0  0  0  0  0  0
   20.3998   -5.9244  -13.0312 N   0  0  0  0  0  0  0  0  0  0  0  0
   21.7126   -5.3184  -13.2193 C   0  0  0  0  0  0  0  0  0  0  0  0
   21.7657   -4.6399  -14.5166 C   0  0  0  0  0  0  0  0  0  0  0  0
   22.8305   -3.8513  -14.8956 O   0  0  0  0  0  0  0  0  0  0  0  0
   20.8057   -4.7757  -15.3256 O   0  0  0  0  0  0  0  0  0  0  0  0
  2  1  1  6
  2  3  1  0
  4  3  1  0
  4  5  1  0
  6  5  1  0
  7  6  1  0
  8  2  1  0
  8 12  1  0
  9  8  2  0
 11 10  1  1
 11 12  1  0
 11 13  1  0
 13 15  1  0
 14 13  2  0
 15 16  1  0
 17 18  1  0
 17 16  1  0
 19 17  2  0
M  END
$$$$
