KAG.pdb
     RDKit          3D

 19 18  0  0  1  0  0  0  0  0999 V2000
   29.8234  -28.2470  -21.8448 N   0  0  0  0  0  0  0  0  0  0  0  0
   29.8483  -27.2190  -20.8521 C   0  0  1  0  0  0  0  0  0  0  0  0
   28.9006  -26.0756  -21.1779 C   0  0  0  0  0  0  0  0  0  0  0  0
   28.7716  -25.8663  -22.6629 C   0  0  0  0  0  0  0  0  0  0  0  0
   27.8678  -24.7066  -22.9310 C   0  0  0  0  0  0  0  0  0  0  0  0
   27.7069  -24.3948  -24.3921 C   0  0  0  0  0  0  0  0  0  0  0  0
   26.8263  -23.2516  -24.5341 N   0  0  0  0  0  0  0  0  0  0  0  0
   29.6525  -27.7278  -19.4806 C   0  0  0  0  0  0  0  0  0  0  0  0
   29.2254  -28.8931  -19.3263 O   0  0  0  0  0  0  0  0  0  0  0  0
   30.8527  -26.9691  -16.0342 C   0  0  0  0  0  0  0  0  0  0  0  0
   29.7744  -27.4513  -16.9769 C   0  0  2  0  0  0  0  0  0  0  0  0
   29.9236  -26.9631  -18.3076 N   0  0  0  0  0  0  0  0  0  0  0  0
   28.4549  -27.1602  -16.3790 C   0  0  0  0  0  0  0  0  0  0  0  0
   28.2265  -27.5221  -15.1966 O   0  0  0  0  0  0  0  0  0  0  0  0
   27.3981  -26.4876  -17.0503 N   0  0  0  0  0  0  0  0  0  0  0  0
   26.1682  -26.1124  -16.3629 C   0  0  0  0  0  0  0  0  0  0  0  0
   25.2866  -25.3874  -17.2813 C   0  0  0  0  0  0  0  0  0  0  0  0
   24.1518  -25.9547  -17.8194 O   0  0  0  0  0  0  0  0  0  0  0  0
   25.5674  -24.1978  -17.5987 O   0  0  0  0  0  0  0  0  0  0  0  0
  2  1  1  6
  2  3  1  0
  4  3  1  0
  4  5  1  0
  6  5  1  0
  7  6  1  0
  8  2  1  0
  8 12  1  0
  9  8  2  0
 11 10  1  1
 11 12  1  0
 11 13  1  0
 13 15  1  0
 14 13  2  0
 15 16  1  0
 17 18  1  0
 17 16  1  0
 19 17  2  0
M  END
$$$$
