KAG.pdb
     RDKit          3D

 19 18  0  0  1  0  0  0  0  0999 V2000
   19.1678  -23.9424  -14.5060 N   0  0  0  0  0  0  0  0  0  0  0  0
   19.5788  -22.9288  -13.5860 C   0  0  1  0  0  0  0  0  0  0  0  0
   19.7891  -23.4717  -12.1814 C   0  0  0  0  0  0  0  0  0  0  0  0
   18.5476  -24.1374  -11.6510 C   0  0  0  0  0  0  0  0  0  0  0  0
   18.7737  -24.5717  -10.2389 C   0  0  0  0  0  0  0  0  0  0  0  0
   17.6492  -25.3937   -9.6752 C   0  0  0  0  0  0  0  0  0  0  0  0
   17.9715  -25.7557   -8.3086 N   0  0  0  0  0  0  0  0  0  0  0  0
   20.7389  -22.1480  -14.0580 C   0  0  0  0  0  0  0  0  0  0  0  0
   21.6046  -22.7195  -14.7569 O   0  0  0  0  0  0  0  0  0  0  0  0
   21.9814  -18.5450  -13.8025 C   0  0  0  0  0  0  0  0  0  0  0  0
   22.0480  -19.9981  -14.2124 C   0  0  2  0  0  0  0  0  0  0  0  0
   20.9352  -20.7667  -13.7626 N   0  0  0  0  0  0  0  0  0  0  0  0
   23.3571  -20.5481  -13.8038 C   0  0  0  0  0  0  0  0  0  0  0  0
   23.5205  -20.9163  -12.6126 O   0  0  0  0  0  0  0  0  0  0  0  0
   24.4731  -20.6976  -14.6711 N   0  0  0  0  0  0  0  0  0  0  0  0
   25.7184  -21.3081  -14.2211 C   0  0  0  0  0  0  0  0  0  0  0  0
   26.7078  -21.2734  -15.3010 C   0  0  0  0  0  0  0  0  0  0  0  0
   27.9986  -21.7269  -15.1361 O   0  0  0  0  0  0  0  0  0  0  0  0
   26.3764  -20.8128  -16.4291 O   0  0  0  0  0  0  0  0  0  0  0  0
  2  1  1  6
  2  3  1  0
  4  3  1  0
  4  5  1  0
  6  5  1  0
  7  6  1  0
  8  2  1  0
  8 12  1  0
  9  8  2  0
 11 10  1  1
 11 12  1  0
 11 13  1  0
 13 15  1  0
 14 13  2  0
 15 16  1  0
 17 18  1  0
 17 16  1  0
 19 17  2  0
M  END
$$$$
