YAP.pdb
     RDKit          3D

 25 26  0  0  1  0  0  0  0  0999 V2000
   21.9905  -21.3563   -7.9912 O   0  0  0  0  0  0  0  0  0  0  0  0
   22.9187  -21.0661   -8.9779 C   0  0  0  0  0  0  0  0  0  0  0  0
   24.2681  -20.9085   -8.6332 C   0  0  0  0  0  0  0  0  0  0  0  0
   25.1864  -20.6185   -9.6201 C   0  0  0  0  0  0  0  0  0  0  0  0
   24.8124  -20.4782  -10.9587 C   0  0  0  0  0  0  0  0  0  0  0  0
   25.7967  -20.1510  -12.0150 C   0  0  0  0  0  0  0  0  0  0  0  0
   25.8304  -21.2425  -13.0884 C   0  0  2  0  0  0  0  0  0  0  0  0
   26.3298  -22.4837  -12.4876 N   0  0  0  0  0  0  0  0  0  0  0  0
   26.7287  -20.8354  -14.2018 C   0  0  0  0  0  0  0  0  0  0  0  0
   27.8858  -20.4792  -13.9000 O   0  0  0  0  0  0  0  0  0  0  0  0
   23.4733  -20.6405  -11.2739 C   0  0  0  0  0  0  0  0  0  0  0  0
   22.5434  -20.9290  -10.2959 C   0  0  0  0  0  0  0  0  0  0  0  0
   26.8554  -21.1931  -17.8863 C   0  0  0  0  0  0  0  0  0  0  0  0
   27.1511  -20.3868  -16.6063 C   0  0  2  0  0  0  0  0  0  0  0  0
   26.2857  -20.8609  -15.5284 N   0  0  0  0  0  0  0  0  0  0  0  0
   26.9815  -18.9357  -16.8642 C   0  0  0  0  0  0  0  0  0  0  0  0
   25.9954  -18.2945  -16.3517 O   0  0  0  0  0  0  0  0  0  0  0  0
   27.8717  -18.2051  -17.6637 N   0  0  0  0  0  0  0  0  0  0  0  0
   28.9727  -18.7182  -18.4563 C   0  0  0  0  0  0  0  0  0  0  0  0
   29.9728  -17.5864  -18.5315 C   0  0  0  0  0  0  0  0  0  0  0  0
   29.3569  -16.4921  -17.6976 C   0  0  0  0  0  0  0  0  0  0  0  0
   27.8699  -16.7461  -17.8415 C   0  0  1  0  0  0  0  0  0  0  0  0
   27.5378  -16.4130  -19.2646 C   0  0  0  0  0  0  0  0  0  0  0  0
   27.5586  -17.2345  -20.2044 O   0  0  0  0  0  0  0  0  0  0  0  0
   27.1847  -15.0961  -19.5392 O   0  0  0  0  0  0  0  0  0  0  0  0
  2  1  1  0
  2 12  2  0
  3  2  1  0
  4  3  2  0
  4  5  1  0
  5 11  2  0
  6  5  1  0
  6  7  1  0
  7  8  1  1
  9 15  1  0
  9  7  1  0
 10  9  2  0
 11 12  1  0
 14 13  1  6
 14 16  1  0
 14 15  1  0
 16 17  2  0
 18 22  1  0
 18 16  1  0
 19 18  1  0
 20 19  1  0
 20 21  1  0
 21 22  1  0
 22 23  1  6
 23 24  2  0
 23 25  1  0
M  END
$$$$
