YAP.pdb
     RDKit          3D

 25 26  0  0  1  0  0  0  0  0999 V2000
   23.0920  -25.0152  -16.1174 O   0  0  0  0  0  0  0  0  0  0  0  0
   23.7858  -24.3902  -15.0941 C   0  0  0  0  0  0  0  0  0  0  0  0
   23.0814  -23.8572  -14.0058 C   0  0  0  0  0  0  0  0  0  0  0  0
   23.7781  -23.2354  -12.9913 C   0  0  0  0  0  0  0  0  0  0  0  0
   25.1702  -23.1214  -13.0135 C   0  0  0  0  0  0  0  0  0  0  0  0
   25.9159  -22.4395  -11.9315 C   0  0  0  0  0  0  0  0  0  0  0  0
   25.4211  -21.0022  -11.7476 C   0  0  2  0  0  0  0  0  0  0  0  0
   25.7524  -20.2289  -12.9489 N   0  0  0  0  0  0  0  0  0  0  0  0
   26.0777  -20.3841  -10.5647 C   0  0  0  0  0  0  0  0  0  0  0  0
   27.3221  -20.4510  -10.5031 O   0  0  0  0  0  0  0  0  0  0  0  0
   25.8434  -23.6578  -14.0988 C   0  0  0  0  0  0  0  0  0  0  0  0
   25.1584  -24.2811  -15.1220 C   0  0  0  0  0  0  0  0  0  0  0  0
   24.9025  -18.5936   -7.4559 C   0  0  0  0  0  0  0  0  0  0  0  0
   25.9667  -19.2400   -8.3646 C   0  0  2  0  0  0  0  0  0  0  0  0
   25.3217  -19.7517   -9.5721 N   0  0  0  0  0  0  0  0  0  0  0  0
   26.6954  -20.3003   -7.6262 C   0  0  0  0  0  0  0  0  0  0  0  0
   26.4436  -21.5386   -7.8481 O   0  0  0  0  0  0  0  0  0  0  0  0
   27.6772  -20.0102   -6.6682 N   0  0  0  0  0  0  0  0  0  0  0  0
   28.1932  -18.7061   -6.2986 C   0  0  0  0  0  0  0  0  0  0  0  0
   29.6026  -18.9571   -5.8116 C   0  0  0  0  0  0  0  0  0  0  0  0
   29.8008  -20.4395   -5.9994 C   0  0  0  0  0  0  0  0  0  0  0  0
   28.3988  -20.9952   -5.8500 C   0  0  1  0  0  0  0  0  0  0  0  0
   28.0409  -20.8092   -4.4064 C   0  0  0  0  0  0  0  0  0  0  0  0
   27.2921  -19.9078   -3.9761 O   0  0  0  0  0  0  0  0  0  0  0  0
   28.5882  -21.7098   -3.4990 O   0  0  0  0  0  0  0  0  0  0  0  0
  2  1  1  0
  2 12  2  0
  3  2  1  0
  4  3  2  0
  4  5  1  0
  5 11  2  0
  6  5  1  0
  6  7  1  0
  7  8  1  6
  9 15  1  0
  9  7  1  0
 10  9  2  0
 11 12  1  0
 14 13  1  1
 14 16  1  0
 14 15  1  0
 16 17  2  0
 18 22  1  0
 18 16  1  0
 19 18  1  0
 20 19  1  0
 20 21  1  0
 21 22  1  0
 22 23  1  1
 23 24  2  0
 23 25  1  0
M  END
$$$$
