YAP.pdb
     RDKit          3D

 25 26  0  0  1  0  0  0  0  0999 V2000
   34.9370   -8.5769   -6.2147 O   0  0  0  0  0  0  0  0  0  0  0  0
   36.2337   -8.9108   -6.5701 C   0  0  0  0  0  0  0  0  0  0  0  0
   36.7398   -8.4954   -7.8094 C   0  0  0  0  0  0  0  0  0  0  0  0
   38.0309   -8.8321   -8.1573 C   0  0  0  0  0  0  0  0  0  0  0  0
   38.8543   -9.5759   -7.3087 C   0  0  0  0  0  0  0  0  0  0  0  0
   40.2349   -9.9505   -7.6899 C   0  0  0  0  0  0  0  0  0  0  0  0
   41.2539   -8.9944   -7.0638 C   0  0  2  0  0  0  0  0  0  0  0  0
   41.0721   -7.6601   -7.6448 N   0  0  0  0  0  0  0  0  0  0  0  0
   42.6360   -9.4699   -7.3396 C   0  0  0  0  0  0  0  0  0  0  0  0
   42.9488   -9.6526   -8.5335 O   0  0  0  0  0  0  0  0  0  0  0  0
   38.3316   -9.9728   -6.0888 C   0  0  0  0  0  0  0  0  0  0  0  0
   37.0404   -9.6443   -5.7287 C   0  0  0  0  0  0  0  0  0  0  0  0
   45.8559   -9.6551   -5.5013 C   0  0  0  0  0  0  0  0  0  0  0  0
   44.8879  -10.1842   -6.5778 C   0  0  2  0  0  0  0  0  0  0  0  0
   43.5404   -9.6936   -6.2961 N   0  0  0  0  0  0  0  0  0  0  0  0
   44.9446  -11.6655   -6.6344 C   0  0  0  0  0  0  0  0  0  0  0  0
   44.0525  -12.3741   -6.0442 O   0  0  0  0  0  0  0  0  0  0  0  0
   45.9543  -12.3535   -7.3221 N   0  0  0  0  0  0  0  0  0  0  0  0
   47.0406  -11.7854   -8.0972 C   0  0  0  0  0  0  0  0  0  0  0  0
   47.3816  -12.8317   -9.1344 C   0  0  0  0  0  0  0  0  0  0  0  0
   46.3857  -13.9360   -8.8877 C   0  0  0  0  0  0  0  0  0  0  0  0
   46.0977  -13.8140   -7.4049 C   0  0  1  0  0  0  0  0  0  0  0  0
   47.3577  -14.2359   -6.7113 C   0  0  0  0  0  0  0  0  0  0  0  0
   47.6230  -15.4112   -6.3844 O   0  0  0  0  0  0  0  0  0  0  0  0
   48.2825  -13.2389   -6.4200 O   0  0  0  0  0  0  0  0  0  0  0  0
  2  1  1  0
  2 12  2  0
  3  2  1  0
  4  3  2  0
  4  5  1  0
  5 11  2  0
  6  5  1  0
  6  7  1  0
  7  8  1  6
  9 15  1  0
  9  7  1  0
 10  9  2  0
 11 12  1  0
 14 13  1  1
 14 16  1  0
 14 15  1  0
 16 17  2  0
 18 22  1  0
 18 16  1  0
 19 18  1  0
 20 19  1  0
 20 21  1  0
 21 22  1  0
 22 23  1  1
 23 24  2  0
 23 25  1  0
M  END
$$$$
