YAP.pdb
     RDKit          3D

 25 26  0  0  1  0  0  0  0  0999 V2000
   17.3035  -16.2791  -18.1163 O   0  0  0  0  0  0  0  0  0  0  0  0
   18.4420  -16.9669  -17.7289 C   0  0  0  0  0  0  0  0  0  0  0  0
   18.7808  -18.1633  -18.3756 C   0  0  0  0  0  0  0  0  0  0  0  0
   19.9146  -18.8434  -17.9843 C   0  0  0  0  0  0  0  0  0  0  0  0
   20.7407  -18.3741  -16.9603 C   0  0  0  0  0  0  0  0  0  0  0  0
   21.9491  -19.1133  -16.5301 C   0  0  0  0  0  0  0  0  0  0  0  0
   23.2188  -18.4439  -17.0635 C   0  0  2  0  0  0  0  0  0  0  0  0
   23.4056  -18.8303  -18.4659 N   0  0  0  0  0  0  0  0  0  0  0  0
   24.3979  -18.8803  -16.2688 C   0  0  0  0  0  0  0  0  0  0  0  0
   24.6444  -20.1031  -16.2382 O   0  0  0  0  0  0  0  0  0  0  0  0
   20.3854  -17.1885  -16.3380 C   0  0  0  0  0  0  0  0  0  0  0  0
   19.2523  -16.4986  -16.7185 C   0  0  0  0  0  0  0  0  0  0  0  0
   26.8349  -17.1592  -13.9571 C   0  0  0  0  0  0  0  0  0  0  0  0
   26.1640  -18.3920  -14.5943 C   0  0  2  0  0  0  0  0  0  0  0  0
   25.1935  -17.9491  -15.5931 N   0  0  0  0  0  0  0  0  0  0  0  0
   25.5425  -19.2368  -13.5451 C   0  0  0  0  0  0  0  0  0  0  0  0
   24.2674  -19.2700  -13.4068 O   0  0  0  0  0  0  0  0  0  0  0  0
   26.3005  -20.0268  -12.6692 N   0  0  0  0  0  0  0  0  0  0  0  0
   27.7453  -20.0818  -12.5546 C   0  0  0  0  0  0  0  0  0  0  0  0
   28.0533  -21.4722  -12.0459 C   0  0  0  0  0  0  0  0  0  0  0  0
   26.7054  -22.1410  -11.9571 C   0  0  0  0  0  0  0  0  0  0  0  0
   25.7643  -20.9835  -11.6907 C   0  0  1  0  0  0  0  0  0  0  0  0
   26.0814  -20.5146  -10.3027 C   0  0  0  0  0  0  0  0  0  0  0  0
   26.8361  -19.5563  -10.0374 O   0  0  0  0  0  0  0  0  0  0  0  0
   25.4867  -21.2044   -9.2518 O   0  0  0  0  0  0  0  0  0  0  0  0
  2  1  1  0
  2 12  2  0
  3  2  1  0
  4  3  2  0
  4  5  1  0
  5 11  2  0
  6  5  1  0
  6  7  1  0
  7  8  1  6
  9 15  1  0
  9  7  1  0
 10  9  2  0
 11 12  1  0
 14 13  1  1
 14 16  1  0
 14 15  1  0
 16 17  2  0
 18 22  1  0
 18 16  1  0
 19 18  1  0
 20 19  1  0
 20 21  1  0
 21 22  1  0
 22 23  1  1
 23 24  2  0
 23 25  1  0
M  END
$$$$
