YAP.pdb
     RDKit          3D

 25 26  0  0  1  0  0  0  0  0999 V2000
   15.6998  -20.6089  -14.8973 O   0  0  0  0  0  0  0  0  0  0  0  0
   16.6177  -19.5756  -14.8025 C   0  0  0  0  0  0  0  0  0  0  0  0
   16.1880  -18.2516  -14.9661 C   0  0  0  0  0  0  0  0  0  0  0  0
   17.1071  -17.2281  -14.8716 C   0  0  0  0  0  0  0  0  0  0  0  0
   18.4587  -17.4706  -14.6151 C   0  0  0  0  0  0  0  0  0  0  0  0
   19.4474  -16.3720  -14.5297 C   0  0  0  0  0  0  0  0  0  0  0  0
   20.2499  -16.2561  -15.8287 C   0  0  2  0  0  0  0  0  0  0  0  0
   21.1908  -17.3783  -15.9071 N   0  0  0  0  0  0  0  0  0  0  0  0
   21.0051  -14.9749  -15.8489 C   0  0  0  0  0  0  0  0  0  0  0  0
   21.9823  -14.8764  -15.0793 O   0  0  0  0  0  0  0  0  0  0  0  0
   18.8580  -18.7874  -14.4554 C   0  0  0  0  0  0  0  0  0  0  0  0
   17.9489  -19.8215  -14.5493 C   0  0  0  0  0  0  0  0  0  0  0  0
   20.9301  -11.8270  -17.9159 C   0  0  0  0  0  0  0  0  0  0  0  0
   21.3745  -12.6756  -16.7083 C   0  0  2  0  0  0  0  0  0  0  0  0
   20.6300  -13.9331  -16.7039 N   0  0  0  0  0  0  0  0  0  0  0  0
   21.1913  -11.9114  -15.4499 C   0  0  0  0  0  0  0  0  0  0  0  0
   20.1857  -12.1438  -14.6878 O   0  0  0  0  0  0  0  0  0  0  0  0
   22.0893  -10.9172  -15.0366 N   0  0  0  0  0  0  0  0  0  0  0  0
   23.2383  -10.4079  -15.7606 C   0  0  0  0  0  0  0  0  0  0  0  0
   24.2029   -9.9336  -14.6970 C   0  0  0  0  0  0  0  0  0  0  0  0
   23.5176  -10.2726  -13.3979 C   0  0  0  0  0  0  0  0  0  0  0  0
   22.0469  -10.1980  -13.7555 C   0  0  1  0  0  0  0  0  0  0  0  0
   21.7630   -8.7470  -14.0022 C   0  0  0  0  0  0  0  0  0  0  0  0
   21.5153   -7.9146  -13.1055 O   0  0  0  0  0  0  0  0  0  0  0  0
   21.7806   -8.3160  -15.3244 O   0  0  0  0  0  0  0  0  0  0  0  0
  2  1  1  0
  2 12  2  0
  3  2  1  0
  4  3  2  0
  4  5  1  0
  5 11  2  0
  6  5  1  0
  6  7  1  0
  7  8  1  1
  9 15  1  0
  9  7  1  0
 10  9  2  0
 11 12  1  0
 14 13  1  6
 14 16  1  0
 14 15  1  0
 16 17  2  0
 18 22  1  0
 18 16  1  0
 19 18  1  0
 20 19  1  0
 20 21  1  0
 21 22  1  0
 22 23  1  6
 23 24  2  0
 23 25  1  0
M  END
$$$$
