YAP.pdb
     RDKit          3D

 25 26  0  0  1  0  0  0  0  0999 V2000
   25.6648  -31.2670   -9.4288 O   0  0  0  0  0  0  0  0  0  0  0  0
   26.1479  -31.7509   -8.2240 C   0  0  0  0  0  0  0  0  0  0  0  0
   27.3975  -32.3844   -8.1842 C   0  0  0  0  0  0  0  0  0  0  0  0
   27.8717  -32.8647   -6.9818 C   0  0  0  0  0  0  0  0  0  0  0  0
   27.1432  -32.7374   -5.7967 C   0  0  0  0  0  0  0  0  0  0  0  0
   27.6462  -33.2677   -4.5093 C   0  0  0  0  0  0  0  0  0  0  0  0
   27.3669  -34.7684   -4.3891 C   0  0  2  0  0  0  0  0  0  0  0  0
   25.9201  -34.9734   -4.2638 N   0  0  0  0  0  0  0  0  0  0  0  0
   28.0505  -35.3199   -3.1888 C   0  0  0  0  0  0  0  0  0  0  0  0
   27.6493  -34.9291   -2.0738 O   0  0  0  0  0  0  0  0  0  0  0  0
   25.9120  -32.1059   -5.8620 C   0  0  0  0  0  0  0  0  0  0  0  0
   25.4245  -31.6222   -7.0591 C   0  0  0  0  0  0  0  0  0  0  0  0
   30.6856  -37.9445   -2.5647 C   0  0  0  0  0  0  0  0  0  0  0  0
   29.7049  -36.8376   -2.1299 C   0  0  2  0  0  0  0  0  0  0  0  0
   29.0943  -36.2424   -3.3168 N   0  0  0  0  0  0  0  0  0  0  0  0
   30.4057  -35.8309   -1.2955 C   0  0  0  0  0  0  0  0  0  0  0  0
   30.6946  -34.6761   -1.7742 O   0  0  0  0  0  0  0  0  0  0  0  0
   30.7800  -36.0837    0.0318 N   0  0  0  0  0  0  0  0  0  0  0  0
   30.5969  -37.3107    0.7832 C   0  0  0  0  0  0  0  0  0  0  0  0
   30.5022  -36.8829    2.2305 C   0  0  0  0  0  0  0  0  0  0  0  0
   30.5914  -35.3791    2.1787 C   0  0  0  0  0  0  0  0  0  0  0  0
   31.4277  -35.1270    0.9403 C   0  0  1  0  0  0  0  0  0  0  0  0
   32.8067  -35.6080    1.2777 C   0  0  0  0  0  0  0  0  0  0  0  0
   33.6542  -34.9374    1.9025 O   0  0  0  0  0  0  0  0  0  0  0  0
   33.1484  -36.8896    0.8594 O   0  0  0  0  0  0  0  0  0  0  0  0
  2  1  1  0
  2 12  2  0
  3  2  1  0
  4  3  2  0
  4  5  1  0
  5 11  2  0
  6  5  1  0
  6  7  1  0
  7  8  1  1
  9 15  1  0
  9  7  1  0
 10  9  2  0
 11 12  1  0
 14 13  1  6
 14 16  1  0
 14 15  1  0
 16 17  2  0
 18 22  1  0
 18 16  1  0
 19 18  1  0
 20 19  1  0
 20 21  1  0
 21 22  1  0
 22 23  1  1
 23 24  2  0
 23 25  1  0
M  END
$$$$
