YAP.pdb
     RDKit          3D

 25 26  0  0  1  0  0  0  0  0999 V2000
   15.8326  -18.7586  -17.0920 O   0  0  0  0  0  0  0  0  0  0  0  0
   17.0979  -19.1705  -16.7066 C   0  0  0  0  0  0  0  0  0  0  0  0
   17.9048  -18.3098  -15.9499 C   0  0  0  0  0  0  0  0  0  0  0  0
   19.1636  -18.7256  -15.5706 C   0  0  0  0  0  0  0  0  0  0  0  0
   19.6611  -19.9841  -15.9169 C   0  0  0  0  0  0  0  0  0  0  0  0
   21.0188  -20.4233  -15.5228 C   0  0  0  0  0  0  0  0  0  0  0  0
   22.0686  -19.9103  -16.5123 C   0  0  2  0  0  0  0  0  0  0  0  0
   21.9551  -20.6705  -17.7614 N   0  0  0  0  0  0  0  0  0  0  0  0
   23.4328  -20.0886  -15.9469 C   0  0  0  0  0  0  0  0  0  0  0  0
   23.8470  -21.2581  -15.8145 O   0  0  0  0  0  0  0  0  0  0  0  0
   18.8437  -20.8170  -16.6635 C   0  0  0  0  0  0  0  0  0  0  0  0
   17.5825  -20.4127  -17.0513 C   0  0  0  0  0  0  0  0  0  0  0  0
   25.9784  -17.7691  -14.4051 C   0  0  0  0  0  0  0  0  0  0  0  0
   25.3918  -19.1540  -14.7426 C   0  0  2  0  0  0  0  0  0  0  0  0
   24.2118  -18.9837  -15.5879 N   0  0  0  0  0  0  0  0  0  0  0  0
   25.0858  -19.8984  -13.4964 C   0  0  0  0  0  0  0  0  0  0  0  0
   23.8697  -20.0987  -13.1399 O   0  0  0  0  0  0  0  0  0  0  0  0
   26.0886  -20.4115  -12.6617 N   0  0  0  0  0  0  0  0  0  0  0  0
   27.5199  -20.2025  -12.7684 C   0  0  0  0  0  0  0  0  0  0  0  0
   28.1504  -21.4308  -12.1517 C   0  0  0  0  0  0  0  0  0  0  0  0
   26.9775  -22.2992  -11.7743 C   0  0  0  0  0  0  0  0  0  0  0  0
   25.8774  -21.2925  -11.5043 C   0  0  1  0  0  0  0  0  0  0  0  0
   26.2801  -20.5792  -10.2490 C   0  0  0  0  0  0  0  0  0  0  0  0
   26.9484  -19.5252  -10.2203 O   0  0  0  0  0  0  0  0  0  0  0  0
   25.8736  -21.1428   -9.0443 O   0  0  0  0  0  0  0  0  0  0  0  0
  2  1  1  0
  2 12  2  0
  3  2  1  0
  4  3  2  0
  4  5  1  0
  5 11  2  0
  6  5  1  0
  6  7  1  0
  7  8  1  6
  9 15  1  0
  9  7  1  0
 10  9  2  0
 11 12  1  0
 14 13  1  1
 14 16  1  0
 14 15  1  0
 16 17  2  0
 18 22  1  0
 18 16  1  0
 19 18  1  0
 20 19  1  0
 20 21  1  0
 21 22  1  0
 22 23  1  1
 23 24  2  0
 23 25  1  0
M  END
$$$$
