YAP.pdb
     RDKit          3D

 25 26  0  0  1  0  0  0  0  0999 V2000
   29.0636  -19.0277   -4.1525 O   0  0  0  0  0  0  0  0  0  0  0  0
   28.6877  -19.3401   -5.4488 C   0  0  0  0  0  0  0  0  0  0  0  0
   27.6845  -18.5902   -6.0778 C   0  0  0  0  0  0  0  0  0  0  0  0
   27.3144  -18.9073   -7.3676 C   0  0  0  0  0  0  0  0  0  0  0  0
   27.9121  -19.9560   -8.0707 C   0  0  0  0  0  0  0  0  0  0  0  0
   27.5029  -20.3058   -9.4498 C   0  0  0  0  0  0  0  0  0  0  0  0
   26.0967  -20.9117   -9.4662 C   0  0  2  0  0  0  0  0  0  0  0  0
   26.1334  -22.2146   -8.7938 N   0  0  0  0  0  0  0  0  0  0  0  0
   25.6352  -21.0916  -10.8687 C   0  0  0  0  0  0  0  0  0  0  0  0
   26.4701  -21.5131  -11.6944 O   0  0  0  0  0  0  0  0  0  0  0  0
   28.9023  -20.6809   -7.4280 C   0  0  0  0  0  0  0  0  0  0  0  0
   29.2811  -20.3754   -6.1365 C   0  0  0  0  0  0  0  0  0  0  0  0
   22.4141  -20.4980  -12.7452 C   0  0  0  0  0  0  0  0  0  0  0  0
   23.9251  -20.7846  -12.6416 C   0  0  2  0  0  0  0  0  0  0  0  0
   24.3159  -20.8029  -11.2335 N   0  0  0  0  0  0  0  0  0  0  0  0
   24.6914  -19.7830  -13.4229 C   0  0  0  0  0  0  0  0  0  0  0  0
   25.3123  -18.8303  -12.8286 O   0  0  0  0  0  0  0  0  0  0  0  0
   24.7756  -19.8251  -14.8218 N   0  0  0  0  0  0  0  0  0  0  0  0
   24.1881  -20.8067  -15.7133 C   0  0  0  0  0  0  0  0  0  0  0  0
   25.0870  -20.8314  -16.9290 C   0  0  0  0  0  0  0  0  0  0  0  0
   26.1883  -19.8578  -16.5950 C   0  0  0  0  0  0  0  0  0  0  0  0
   25.5057  -18.8714  -15.6690 C   0  0  1  0  0  0  0  0  0  0  0  0
   24.5362  -18.1151  -16.5262 C   0  0  0  0  0  0  0  0  0  0  0  0
   23.3122  -18.3534  -16.5850 O   0  0  0  0  0  0  0  0  0  0  0  0
   25.0514  -17.0820  -17.3016 O   0  0  0  0  0  0  0  0  0  0  0  0
  2  1  1  0
  2 12  2  0
  3  2  1  0
  4  3  2  0
  4  5  1  0
  5 11  2  0
  6  5  1  0
  6  7  1  0
  7  8  1  6
  9 15  1  0
  9  7  1  0
 10  9  2  0
 11 12  1  0
 14 13  1  1
 14 16  1  0
 14 15  1  0
 16 17  2  0
 18 22  1  0
 18 16  1  0
 19 18  1  0
 20 19  1  0
 20 21  1  0
 21 22  1  0
 22 23  1  6
 23 24  2  0
 23 25  1  0
M  END
$$$$
