YAP.pdb
     RDKit          3D

 25 26  0  0  1  0  0  0  0  0999 V2000
   18.1897  -19.5147  -11.9782 O   0  0  0  0  0  0  0  0  0  0  0  0
   19.4916  -19.9786  -11.8821 C   0  0  0  0  0  0  0  0  0  0  0  0
   20.4650  -19.1839  -11.2614 C   0  0  0  0  0  0  0  0  0  0  0  0
   21.7590  -19.6512  -11.1703 C   0  0  0  0  0  0  0  0  0  0  0  0
   22.1312  -20.8983  -11.6778 C   0  0  0  0  0  0  0  0  0  0  0  0
   23.5243  -21.3923  -11.5937 C   0  0  0  0  0  0  0  0  0  0  0  0
   24.3578  -20.8822  -12.7725 C   0  0  2  0  0  0  0  0  0  0  0  0
   23.8526  -21.4885  -14.0086 N   0  0  0  0  0  0  0  0  0  0  0  0
   25.7858  -21.2546  -12.5865 C   0  0  0  0  0  0  0  0  0  0  0  0
   26.0348  -22.4500  -12.3299 O   0  0  0  0  0  0  0  0  0  0  0  0
   21.1506  -21.6656  -12.2850 C   0  0  0  0  0  0  0  0  0  0  0  0
   19.8520  -21.2092  -12.3846 C   0  0  0  0  0  0  0  0  0  0  0  0
   28.8342  -19.0905  -12.0728 C   0  0  0  0  0  0  0  0  0  0  0  0
   27.9427  -20.3165  -11.7932 C   0  0  2  0  0  0  0  0  0  0  0  0
   26.7990  -20.2971  -12.7028 N   0  0  0  0  0  0  0  0  0  0  0  0
   27.5262  -20.3331  -10.3694 C   0  0  0  0  0  0  0  0  0  0  0  0
   26.2867  -20.2360  -10.0526 O   0  0  0  0  0  0  0  0  0  0  0  0
   28.4462  -20.4542   -9.3184 N   0  0  0  0  0  0  0  0  0  0  0  0
   29.8899  -20.5546   -9.4148 C   0  0  0  0  0  0  0  0  0  0  0  0
   30.3196  -21.3289   -8.1890 C   0  0  0  0  0  0  0  0  0  0  0  0
   29.0264  -21.6648   -7.4911 C   0  0  0  0  0  0  0  0  0  0  0  0
   28.1146  -20.5213   -7.8880 C   0  0  1  0  0  0  0  0  0  0  0  0
   28.6552  -19.3106   -7.1889 C   0  0  0  0  0  0  0  0  0  0  0  0
   28.4844  -19.0607   -5.9778 O   0  0  0  0  0  0  0  0  0  0  0  0
   29.3944  -18.4161   -7.9554 O   0  0  0  0  0  0  0  0  0  0  0  0
  2  1  1  0
  2 12  2  0
  3  2  1  0
  4  3  2  0
  4  5  1  0
  5 11  2  0
  6  5  1  0
  6  7  1  0
  7  8  1  6
  9 15  1  0
  9  7  1  0
 10  9  2  0
 11 12  1  0
 14 13  1  1
 14 16  1  0
 14 15  1  0
 16 17  2  0
 18 22  1  0
 18 16  1  0
 19 18  1  0
 20 19  1  0
 20 21  1  0
 21 22  1  0
 22 23  1  1
 23 24  2  0
 23 25  1  0
M  END
$$$$
