YAP.pdb
     RDKit          3D

 25 26  0  0  1  0  0  0  0  0999 V2000
   28.3914  -19.5669   -5.6542 O   0  0  0  0  0  0  0  0  0  0  0  0
   28.1160  -19.7202   -7.0033 C   0  0  0  0  0  0  0  0  0  0  0  0
   28.8135  -20.6822   -7.7466 C   0  0  0  0  0  0  0  0  0  0  0  0
   28.5352  -20.8288   -9.0891 C   0  0  0  0  0  0  0  0  0  0  0  0
   27.5742  -20.0462   -9.7338 C   0  0  0  0  0  0  0  0  0  0  0  0
   27.2875  -20.1934  -11.1787 C   0  0  0  0  0  0  0  0  0  0  0  0
   25.9137  -20.8317  -11.4016 C   0  0  2  0  0  0  0  0  0  0  0  0
   25.9527  -22.2194  -10.9286 N   0  0  0  0  0  0  0  0  0  0  0  0
   25.5708  -20.8118  -12.8488 C   0  0  0  0  0  0  0  0  0  0  0  0
   26.3591  -21.3823  -13.6298 O   0  0  0  0  0  0  0  0  0  0  0  0
   26.8973  -19.1039   -8.9770 C   0  0  0  0  0  0  0  0  0  0  0  0
   27.1672  -18.9454   -7.6329 C   0  0  0  0  0  0  0  0  0  0  0  0
   22.7148  -19.5462  -14.9541 C   0  0  0  0  0  0  0  0  0  0  0  0
   24.1658  -20.0177  -14.7349 C   0  0  2  0  0  0  0  0  0  0  0  0
   24.4072  -20.1819  -13.3029 N   0  0  0  0  0  0  0  0  0  0  0  0
   25.1147  -19.0620  -15.3571 C   0  0  0  0  0  0  0  0  0  0  0  0
   25.7600  -18.2213  -14.6339 O   0  0  0  0  0  0  0  0  0  0  0  0
   25.3510  -19.0292  -16.7387 N   0  0  0  0  0  0  0  0  0  0  0  0
   24.7117  -19.8316  -17.7639 C   0  0  0  0  0  0  0  0  0  0  0  0
   25.7272  -19.9386  -18.8792 C   0  0  0  0  0  0  0  0  0  0  0  0
   26.9323  -19.2003  -18.3548 C   0  0  0  0  0  0  0  0  0  0  0  0
   26.3255  -18.1690  -17.4248 C   0  0  1  0  0  0  0  0  0  0  0  0
   25.6041  -17.1989  -18.3110 C   0  0  0  0  0  0  0  0  0  0  0  0
   24.3781  -17.2338  -18.5439 O   0  0  0  0  0  0  0  0  0  0  0  0
   26.3665  -16.1993  -18.9056 O   0  0  0  0  0  0  0  0  0  0  0  0
  2  1  1  0
  2 12  2  0
  3  2  1  0
  4  3  2  0
  4  5  1  0
  5 11  2  0
  6  5  1  0
  6  7  1  0
  7  8  1  6
  9 15  1  0
  9  7  1  0
 10  9  2  0
 11 12  1  0
 14 13  1  1
 14 16  1  0
 14 15  1  0
 16 17  2  0
 18 22  1  0
 18 16  1  0
 19 18  1  0
 20 19  1  0
 20 21  1  0
 21 22  1  0
 22 23  1  6
 23 24  2  0
 23 25  1  0
M  END
$$$$
