YAP.pdb
     RDKit          3D

 25 26  0  0  1  0  0  0  0  0999 V2000
   28.8941  -18.8531   -3.5796 O   0  0  0  0  0  0  0  0  0  0  0  0
   28.4937  -19.3216   -4.8204 C   0  0  0  0  0  0  0  0  0  0  0  0
   28.4770  -20.7013   -5.0663 C   0  0  0  0  0  0  0  0  0  0  0  0
   28.0785  -21.1607   -6.3038 C   0  0  0  0  0  0  0  0  0  0  0  0
   27.6873  -20.2901   -7.3238 C   0  0  0  0  0  0  0  0  0  0  0  0
   27.2749  -20.7835   -8.6572 C   0  0  0  0  0  0  0  0  0  0  0  0
   25.9524  -20.1456   -9.0916 C   0  0  2  0  0  0  0  0  0  0  0  0
   24.8448  -20.8801   -8.4713 N   0  0  0  0  0  0  0  0  0  0  0  0
   25.8187  -20.2063  -10.5718 C   0  0  0  0  0  0  0  0  0  0  0  0
   25.3156  -21.2398  -11.0572 O   0  0  0  0  0  0  0  0  0  0  0  0
   27.7107  -18.9312   -7.0553 C   0  0  0  0  0  0  0  0  0  0  0  0
   28.1092  -18.4578   -5.8218 C   0  0  0  0  0  0  0  0  0  0  0  0
   26.7242  -17.9473  -13.4572 C   0  0  0  0  0  0  0  0  0  0  0  0
   26.1426  -19.2300  -12.8309 C   0  0  2  0  0  0  0  0  0  0  0  0
   26.2375  -19.1406  -11.3753 N   0  0  0  0  0  0  0  0  0  0  0  0
   26.8419  -20.4240  -13.3658 C   0  0  0  0  0  0  0  0  0  0  0  0
   27.7643  -20.9982  -12.6834 O   0  0  0  0  0  0  0  0  0  0  0  0
   26.5369  -20.9757  -14.6181 N   0  0  0  0  0  0  0  0  0  0  0  0
   25.5158  -20.5393  -15.5511 C   0  0  0  0  0  0  0  0  0  0  0  0
   25.1328  -21.7762  -16.3322 C   0  0  0  0  0  0  0  0  0  0  0  0
   25.9656  -22.8733  -15.7199 C   0  0  0  0  0  0  0  0  0  0  0  0
   27.1967  -22.1377  -15.2303 C   0  0  1  0  0  0  0  0  0  0  0  0
   27.9295  -21.7076  -16.4651 C   0  0  0  0  0  0  0  0  0  0  0  0
   28.7613  -22.4125  -17.0730 O   0  0  0  0  0  0  0  0  0  0  0  0
   27.6523  -20.4350  -16.9529 O   0  0  0  0  0  0  0  0  0  0  0  0
  2  1  1  0
  2 12  2  0
  3  2  1  0
  4  3  2  0
  4  5  1  0
  5 11  2  0
  6  5  1  0
  6  7  1  0
  7  8  1  1
  9 15  1  0
  9  7  1  0
 10  9  2  0
 11 12  1  0
 14 13  1  6
 14 16  1  0
 14 15  1  0
 16 17  2  0
 18 22  1  0
 18 16  1  0
 19 18  1  0
 20 19  1  0
 20 21  1  0
 21 22  1  0
 22 23  1  6
 23 24  2  0
 23 25  1  0
M  END
$$$$
