YAP.pdb
     RDKit          3D

 25 26  0  0  1  0  0  0  0  0999 V2000
   27.1912  -19.7759   -5.8128 O   0  0  0  0  0  0  0  0  0  0  0  0
   27.0312  -19.9820   -7.1734 C   0  0  0  0  0  0  0  0  0  0  0  0
   27.7015  -19.1518   -8.0821 C   0  0  0  0  0  0  0  0  0  0  0  0
   27.5368  -19.3617   -9.4349 C   0  0  0  0  0  0  0  0  0  0  0  0
   26.7207  -20.3816   -9.9300 C   0  0  0  0  0  0  0  0  0  0  0  0
   26.5320  -20.5960  -11.3827 C   0  0  0  0  0  0  0  0  0  0  0  0
   25.3449  -19.7828  -11.9061 C   0  0  2  0  0  0  0  0  0  0  0  0
   24.1201  -20.5732  -11.7445 N   0  0  0  0  0  0  0  0  0  0  0  0
   25.5408  -19.4627  -13.3453 C   0  0  0  0  0  0  0  0  0  0  0  0
   25.1982  -20.3299  -14.1744 O   0  0  0  0  0  0  0  0  0  0  0  0
   26.0706  -21.1897   -9.0117 C   0  0  0  0  0  0  0  0  0  0  0  0
   26.2251  -20.9895   -7.6549 C   0  0  0  0  0  0  0  0  0  0  0  0
   26.9172  -16.5402  -15.2984 C   0  0  0  0  0  0  0  0  0  0  0  0
   26.2676  -17.9310  -15.1585 C   0  0  2  0  0  0  0  0  0  0  0  0
   26.0819  -18.2349  -13.7411 N   0  0  0  0  0  0  0  0  0  0  0  0
   27.0925  -18.9535  -15.8475 C   0  0  0  0  0  0  0  0  0  0  0  0
   27.7697  -19.8077  -15.1707 O   0  0  0  0  0  0  0  0  0  0  0  0
   27.1724  -19.0382  -17.2447 N   0  0  0  0  0  0  0  0  0  0  0  0
   26.5384  -18.1723  -18.2203 C   0  0  0  0  0  0  0  0  0  0  0  0
   26.3473  -19.0294  -19.4514 C   0  0  0  0  0  0  0  0  0  0  0  0
   26.8634  -20.3853  -19.0422 C   0  0  0  0  0  0  0  0  0  0  0  0
   27.9163  -20.0533  -18.0041 C   0  0  1  0  0  0  0  0  0  0  0  0
   29.0352  -19.3989  -18.7567 C   0  0  0  0  0  0  0  0  0  0  0  0
   30.0267  -20.0044  -19.2135 O   0  0  0  0  0  0  0  0  0  0  0  0
   28.9472  -18.0245  -18.9503 O   0  0  0  0  0  0  0  0  0  0  0  0
  2  1  1  0
  2 12  2  0
  3  2  1  0
  4  3  2  0
  4  5  1  0
  5 11  2  0
  6  5  1  0
  6  7  1  0
  7  8  1  6
  9 15  1  0
  9  7  1  0
 10  9  2  0
 11 12  1  0
 14 13  1  1
 14 16  1  0
 14 15  1  0
 16 17  2  0
 18 22  1  0
 18 16  1  0
 19 18  1  0
 20 19  1  0
 20 21  1  0
 21 22  1  0
 22 23  1  6
 23 24  2  0
 23 25  1  0
M  END
$$$$
