YAP.pdb
     RDKit          3D

 25 26  0  0  1  0  0  0  0  0999 V2000
   29.1290  -19.8291   -3.4418 O   0  0  0  0  0  0  0  0  0  0  0  0
   28.4473  -19.8146   -4.6478 C   0  0  0  0  0  0  0  0  0  0  0  0
   28.3175  -18.6111   -5.3543 C   0  0  0  0  0  0  0  0  0  0  0  0
   27.6368  -18.6035   -6.5534 C   0  0  0  0  0  0  0  0  0  0  0  0
   27.0716  -19.7632   -7.0891 C   0  0  0  0  0  0  0  0  0  0  0  0
   26.3272  -19.7509   -8.3687 C   0  0  0  0  0  0  0  0  0  0  0  0
   26.9074  -20.7741   -9.3491 C   0  0  2  0  0  0  0  0  0  0  0  0
   28.3585  -20.5795   -9.4346 N   0  0  0  0  0  0  0  0  0  0  0  0
   26.3033  -20.5896  -10.6957 C   0  0  0  0  0  0  0  0  0  0  0  0
   26.2706  -19.4289  -11.1522 O   0  0  0  0  0  0  0  0  0  0  0  0
   27.2153  -20.9402   -6.3728 C   0  0  0  0  0  0  0  0  0  0  0  0
   27.8925  -20.9616   -5.1705 C   0  0  0  0  0  0  0  0  0  0  0  0
   25.1128  -22.7830  -13.4884 C   0  0  0  0  0  0  0  0  0  0  0  0
   25.0955  -21.4730  -12.6763 C   0  0  2  0  0  0  0  0  0  0  0  0
   25.8016  -21.6804  -11.4136 N   0  0  0  0  0  0  0  0  0  0  0  0
   23.6991  -21.0169  -12.4692 C   0  0  0  0  0  0  0  0  0  0  0  0
   23.1872  -21.0013  -11.2928 O   0  0  0  0  0  0  0  0  0  0  0  0
   22.8839  -20.5876  -13.5260 N   0  0  0  0  0  0  0  0  0  0  0  0
   23.1735  -20.6470  -14.9459 C   0  0  0  0  0  0  0  0  0  0  0  0
   22.3907  -19.5091  -15.5616 C   0  0  0  0  0  0  0  0  0  0  0  0
   21.7316  -18.8343  -14.3858 C   0  0  0  0  0  0  0  0  0  0  0  0
   21.5587  -19.9659  -13.3928 C   0  0  1  0  0  0  0  0  0  0  0  0
   20.5180  -20.8683  -13.9838 C   0  0  0  0  0  0  0  0  0  0  0  0
   20.7625  -21.8070  -14.7696 O   0  0  0  0  0  0  0  0  0  0  0  0
   19.1964  -20.6300  -13.6221 O   0  0  0  0  0  0  0  0  0  0  0  0
  2  1  1  0
  2 12  2  0
  3  2  1  0
  4  3  2  0
  4  5  1  0
  5 11  2  0
  6  5  1  0
  6  7  1  0
  7  8  1  6
  9 15  1  0
  9  7  1  0
 10  9  2  0
 11 12  1  0
 14 13  1  1
 14 16  1  0
 14 15  1  0
 16 17  2  0
 18 22  1  0
 18 16  1  0
 19 18  1  0
 20 19  1  0
 20 21  1  0
 21 22  1  0
 22 23  1  6
 23 24  2  0
 23 25  1  0
M  END
$$$$
