YAP.pdb
     RDKit          3D

 25 26  0  0  1  0  0  0  0  0999 V2000
   29.7836  -16.0082  -19.0523 O   0  0  0  0  0  0  0  0  0  0  0  0
   29.0171  -16.3430  -17.9479 C   0  0  0  0  0  0  0  0  0  0  0  0
   27.8757  -15.5886  -17.6438 C   0  0  0  0  0  0  0  0  0  0  0  0
   27.1180  -15.9266  -16.5425 C   0  0  0  0  0  0  0  0  0  0  0  0
   27.4529  -17.0033  -15.7179 C   0  0  0  0  0  0  0  0  0  0  0  0
   26.6477  -17.3555  -14.5266 C   0  0  0  0  0  0  0  0  0  0  0  0
   25.7627  -18.5736  -14.8050 C   0  0  2  0  0  0  0  0  0  0  0  0
   24.5960  -18.1446  -15.5833 N   0  0  0  0  0  0  0  0  0  0  0  0
   25.3080  -19.1772  -13.5239 C   0  0  0  0  0  0  0  0  0  0  0  0
   24.5259  -18.5045  -12.8221 O   0  0  0  0  0  0  0  0  0  0  0  0
   28.5844  -17.7344  -16.0407 C   0  0  0  0  0  0  0  0  0  0  0  0
   29.3528  -17.4059  -17.1390 C   0  0  0  0  0  0  0  0  0  0  0  0
   25.5330  -22.4511  -11.7409 C   0  0  0  0  0  0  0  0  0  0  0  0
   25.5457  -20.9099  -11.7623 C   0  0  2  0  0  0  0  0  0  0  0  0
   25.7411  -20.4494  -13.1355 N   0  0  0  0  0  0  0  0  0  0  0  0
   26.5900  -20.3932  -10.8440 C   0  0  0  0  0  0  0  0  0  0  0  0
   27.6828  -19.9072  -11.3086 O   0  0  0  0  0  0  0  0  0  0  0  0
   26.4397  -20.4082   -9.4502 N   0  0  0  0  0  0  0  0  0  0  0  0
   25.2907  -20.8617   -8.6901 C   0  0  0  0  0  0  0  0  0  0  0  0
   25.3247  -20.0690   -7.4027 C   0  0  0  0  0  0  0  0  0  0  0  0
   26.5113  -19.1533   -7.5630 C   0  0  0  0  0  0  0  0  0  0  0  0
   27.4328  -19.9409   -8.4725 C   0  0  1  0  0  0  0  0  0  0  0  0
   27.9168  -21.0995   -7.6539 C   0  0  0  0  0  0  0  0  0  0  0  0
   27.3966  -22.2343   -7.6613 O   0  0  0  0  0  0  0  0  0  0  0  0
   29.0203  -20.8783   -6.8370 O   0  0  0  0  0  0  0  0  0  0  0  0
  2  1  1  0
  2 12  2  0
  3  2  1  0
  4  3  2  0
  4  5  1  0
  5 11  2  0
  6  5  1  0
  6  7  1  0
  7  8  1  6
  9 15  1  0
  9  7  1  0
 10  9  2  0
 11 12  1  0
 14 13  1  6
 14 16  1  0
 14 15  1  0
 16 17  2  0
 18 22  1  0
 18 16  1  0
 19 18  1  0
 20 19  1  0
 20 21  1  0
 21 22  1  0
 22 23  1  1
 23 24  2  0
 23 25  1  0
M  END
$$$$
