HRY.pdb
     RDKit          3D

 34 35  0  0  1  0  0  0  0  0999 V2000
    6.2499  -16.0823   21.2062 N   0  0  0  0  0  0  0  0  0  0  0  0
    7.6247  -15.8397   21.5747 C   0  0  1  0  0  0  0  0  0  0  0  0
    7.8367  -14.3561   21.7671 C   0  0  0  0  0  0  0  0  0  0  0  0
    7.6334  -13.6623   20.4946 C   0  0  0  0  0  0  0  0  0  0  0  0
    7.3723  -14.2499   19.2756 C   0  0  0  0  0  0  0  0  0  0  0  0
    7.2442  -13.2937   18.3284 N   0  0  0  0  0  0  0  0  0  0  0  0
    7.4215  -12.1181   18.9384 C   0  0  0  0  0  0  0  0  0  0  0  0
    7.6558  -12.3374   20.2414 N   0  0  0  0  0  0  0  0  0  0  0  0
    7.9322  -16.6095   22.8005 C   0  0  0  0  0  0  0  0  0  0  0  0
    7.0282  -16.8687   23.6009 O   0  0  0  0  0  0  0  0  0  0  0  0
    9.4290  -18.7077   19.8103 N   0  0  0  0  0  0  0  0  0  0  0  0
   10.8087  -18.9373   19.5498 C   0  0  0  0  0  0  0  0  0  0  0  0
   11.2280  -18.7188   18.3448 N   0  0  0  0  0  0  0  0  0  0  0  0
   11.7096  -19.3878   20.5534 N   0  0  0  0  0  0  0  0  0  0  0  0
   11.5985  -18.8128   21.8600 C   0  0  0  0  0  0  0  0  0  0  0  0
   10.5089  -19.4654   22.6900 C   0  0  0  0  0  0  0  0  0  0  0  0
   10.6340  -18.8522   24.0917 C   0  0  0  0  0  0  0  0  0  0  0  0
    9.6198  -17.7721   24.3076 C   0  0  2  0  0  0  0  0  0  0  0  0
    9.2347  -17.0748   23.1119 N   0  0  0  0  0  0  0  0  0  0  0  0
   10.1345  -16.8578   25.3567 C   0  0  0  0  0  0  0  0  0  0  0  0
   10.9513  -15.9368   25.0806 O   0  0  0  0  0  0  0  0  0  0  0  0
   12.2073  -18.8526   18.0555 O   0  0  0  0  0  0  0  0  0  0  0  0
    7.2383  -11.2710   24.9629 C   0  0  0  0  0  0  0  0  0  0  0  0
    7.7230  -12.2641   25.8025 C   0  0  0  0  0  0  0  0  0  0  0  0
    8.8869  -12.1012   26.5184 C   0  0  0  0  0  0  0  0  0  0  0  0
    9.3213  -13.1251   27.3393 C   0  0  0  0  0  0  0  0  0  0  0  0
    8.6288  -14.3074   27.4671 C   0  0  0  0  0  0  0  0  0  0  0  0
    9.0947  -15.4018   28.3418 C   0  0  2  0  0  0  0  0  0  0  0  0
   10.2482  -16.1854   27.7777 N   0  0  0  0  0  0  0  0  0  0  0  0
    9.7037  -17.0159   26.7007 C   0  0  0  0  0  0  0  0  0  0  0  0
   10.8783  -17.1040   28.7554 O   0  0  0  0  0  0  0  0  0  0  0  0
   10.7518  -18.3557   28.6415 C   0  0  0  0  0  0  0  0  0  0  0  0
    7.4465  -14.4693   26.7381 C   0  0  0  0  0  0  0  0  0  0  0  0
    7.0177  -13.4372   25.9171 O   0  0  0  0  0  0  0  0  0  0  0  0
  2  1  1  1
  2  9  1  0
  2  3  1  0
  4  3  1  0
  4  5  2  0
  6  5  1  0
  7  8  2  0
  7  6  1  0
  8  4  1  0
  9 19  1  0
  9 10  2  0
 11 12  1  0
 12 14  1  0
 13 12  2  0
 15 14  1  0
 16 17  1  0
 16 15  1  0
 18 17  1  6
 19 18  1  0
 20 29  1  0
 20 18  1  0
 21 20  2  0
 22 23  1  0
 23 24  2  0
 24 25  1  0
 26 27  1  0
 26 25  2  0
 28 27  1  6
 28 30  1  0
 28 29  1  0
 30 34  1  0
 31 30  2  0
 32 26  1  0
 33 32  2  0
 33 23  1  0
M  END
$$$$
