HRY.pdb
     RDKit          3D

 34 35  0  0  1  0  0  0  0  0999 V2000
    9.3791  -16.4786   16.9860 N   0  0  0  0  0  0  0  0  0  0  0  0
    8.7894  -15.6385   18.0016 C   0  0  1  0  0  0  0  0  0  0  0  0
    7.3746  -15.2893   17.6023 C   0  0  0  0  0  0  0  0  0  0  0  0
    7.3937  -14.4896   16.3768 C   0  0  0  0  0  0  0  0  0  0  0  0
    7.8102  -13.1810   16.2609 C   0  0  0  0  0  0  0  0  0  0  0  0
    7.6848  -12.7761   14.9772 N   0  0  0  0  0  0  0  0  0  0  0  0
    7.1961  -13.8129   14.2902 C   0  0  0  0  0  0  0  0  0  0  0  0
    7.0203  -14.8445   15.1300 N   0  0  0  0  0  0  0  0  0  0  0  0
    8.8425  -16.3498   19.2981 C   0  0  0  0  0  0  0  0  0  0  0  0
    7.9556  -17.1593   19.5865 O   0  0  0  0  0  0  0  0  0  0  0  0
   11.5167  -23.1354   20.4376 N   0  0  0  0  0  0  0  0  0  0  0  0
   11.4043  -22.7939   21.8141 C   0  0  0  0  0  0  0  0  0  0  0  0
   11.1658  -23.7570   22.6454 N   0  0  0  0  0  0  0  0  0  0  0  0
   11.5440  -21.4586   22.2824 N   0  0  0  0  0  0  0  0  0  0  0  0
   11.6710  -20.4170   21.3081 C   0  0  0  0  0  0  0  0  0  0  0  0
   11.6990  -19.0361   21.9359 C   0  0  0  0  0  0  0  0  0  0  0  0
   11.3246  -18.0625   20.8097 C   0  0  0  0  0  0  0  0  0  0  0  0
   10.2885  -17.0797   21.2595 C   0  0  2  0  0  0  0  0  0  0  0  0
    9.8773  -16.1481   20.2459 N   0  0  0  0  0  0  0  0  0  0  0  0
   10.7920  -16.4037   22.4807 C   0  0  0  0  0  0  0  0  0  0  0  0
   11.8383  -15.6993   22.4560 O   0  0  0  0  0  0  0  0  0  0  0  0
   11.0657  -23.6141   23.6604 O   0  0  0  0  0  0  0  0  0  0  0  0
   10.9046  -14.4340   31.1656 C   0  0  0  0  0  0  0  0  0  0  0  0
   10.5553  -14.8456   29.8870 C   0  0  0  0  0  0  0  0  0  0  0  0
   10.6446  -16.1637   29.5020 C   0  0  0  0  0  0  0  0  0  0  0  0
   10.2828  -16.5151   28.2150 C   0  0  0  0  0  0  0  0  0  0  0  0
    9.8344  -15.5902   27.3001 C   0  0  0  0  0  0  0  0  0  0  0  0
    9.4507  -15.9655   25.9247 C   0  0  1  0  0  0  0  0  0  0  0  0
   10.5960  -15.9646   24.9495 N   0  0  0  0  0  0  0  0  0  0  0  0
   10.0874  -16.5475   23.7054 C   0  0  0  0  0  0  0  0  0  0  0  0
   11.7442  -16.7975   25.3792 O   0  0  0  0  0  0  0  0  0  0  0  0
   12.8125  -16.2636   25.7906 C   0  0  0  0  0  0  0  0  0  0  0  0
    9.7449  -14.2516   27.6950 C   0  0  0  0  0  0  0  0  0  0  0  0
   10.1098  -13.9076   28.9879 O   0  0  0  0  0  0  0  0  0  0  0  0
  2  1  1  6
  2  9  1  0
  2  3  1  0
  4  3  1  0
  4  5  2  0
  6  5  1  0
  7  8  2  0
  7  6  1  0
  8  4  1  0
  9 19  1  0
  9 10  2  0
 11 12  1  0
 12 14  1  0
 13 12  2  0
 15 14  1  0
 16 17  1  0
 16 15  1  0
 18 17  1  6
 19 18  1  0
 20 29  1  0
 20 18  1  0
 21 20  2  0
 22 23  1  0
 23 24  2  0
 24 25  1  0
 26 27  1  0
 26 25  2  0
 28 27  1  6
 28 30  1  0
 28 29  1  0
 30 34  1  0
 31 30  2  0
 32 26  1  0
 33 32  2  0
 33 23  1  0
M  END
$$$$
