HRY.pdb
     RDKit          3D

 34 35  0  0  1  0  0  0  0  0999 V2000
    8.9560  -16.3085   18.0607 N   0  0  0  0  0  0  0  0  0  0  0  0
    8.0942  -15.3126   18.6526 C   0  0  1  0  0  0  0  0  0  0  0  0
    6.9970  -14.9569   17.6765 C   0  0  0  0  0  0  0  0  0  0  0  0
    7.5833  -14.6383   16.3740 C   0  0  0  0  0  0  0  0  0  0  0  0
    8.0803  -15.5405   15.4583 C   0  0  0  0  0  0  0  0  0  0  0  0
    8.5393  -14.8795   14.3721 N   0  0  0  0  0  0  0  0  0  0  0  0
    8.3362  -13.5779   14.5963 C   0  0  0  0  0  0  0  0  0  0  0  0
    7.7613  -13.4305   15.7998 N   0  0  0  0  0  0  0  0  0  0  0  0
    7.5567  -15.8433   19.9250 C   0  0  0  0  0  0  0  0  0  0  0  0
    6.8392  -15.1270   20.6301 O   0  0  0  0  0  0  0  0  0  0  0  0
    9.1125  -21.1933   19.9690 N   0  0  0  0  0  0  0  0  0  0  0  0
    8.1397  -21.7590   19.0984 C   0  0  0  0  0  0  0  0  0  0  0  0
    8.5670  -22.2862   17.9962 N   0  0  0  0  0  0  0  0  0  0  0  0
    6.7509  -21.7580   19.4034 N   0  0  0  0  0  0  0  0  0  0  0  0
    6.3420  -21.2114   20.6620 C   0  0  0  0  0  0  0  0  0  0  0  0
    6.2558  -19.6969   20.6360 C   0  0  0  0  0  0  0  0  0  0  0  0
    7.2980  -19.2062   21.6506 C   0  0  0  0  0  0  0  0  0  0  0  0
    7.4059  -17.7128   21.6435 C   0  0  2  0  0  0  0  0  0  0  0  0
    7.8264  -17.1561   20.3875 N   0  0  0  0  0  0  0  0  0  0  0  0
    8.2865  -17.3077   22.7669 C   0  0  0  0  0  0  0  0  0  0  0  0
    9.4189  -16.7918   22.5591 O   0  0  0  0  0  0  0  0  0  0  0  0
    7.9556  -22.7891   17.3375 O   0  0  0  0  0  0  0  0  0  0  0  0
    6.9646  -10.8391   28.0795 C   0  0  0  0  0  0  0  0  0  0  0  0
    7.0560  -11.9160   27.2088 C   0  0  0  0  0  0  0  0  0  0  0  0
    8.1994  -12.1657   26.4850 C   0  0  0  0  0  0  0  0  0  0  0  0
    8.2327  -13.2536   25.6329 C   0  0  0  0  0  0  0  0  0  0  0  0
    7.1586  -14.1003   25.4811 C   0  0  0  0  0  0  0  0  0  0  0  0
    7.1937  -15.2605   24.5688 C   0  0  1  0  0  0  0  0  0  0  0  0
    7.9662  -16.4351   25.1040 N   0  0  0  0  0  0  0  0  0  0  0  0
    7.8531  -17.5010   24.1055 C   0  0  0  0  0  0  0  0  0  0  0  0
    7.4255  -16.9739   26.3745 O   0  0  0  0  0  0  0  0  0  0  0  0
    6.3781  -17.6799   26.3839 C   0  0  0  0  0  0  0  0  0  0  0  0
    5.9984  -13.8434   26.2183 C   0  0  0  0  0  0  0  0  0  0  0  0
    5.9733  -12.7500   27.0709 O   0  0  0  0  0  0  0  0  0  0  0  0
  2  1  1  6
  2  9  1  0
  2  3  1  0
  4  3  1  0
  4  5  2  0
  6  5  1  0
  7  8  2  0
  7  6  1  0
  8  4  1  0
  9 19  1  0
  9 10  2  0
 11 12  1  0
 12 14  1  0
 13 12  2  0
 15 14  1  0
 16 17  1  0
 16 15  1  0
 18 17  1  6
 19 18  1  0
 20 29  1  0
 20 18  1  0
 21 20  2  0
 22 23  1  0
 23 24  2  0
 24 25  1  0
 26 27  1  0
 26 25  2  0
 28 27  1  6
 28 30  1  0
 28 29  1  0
 30 34  1  0
 31 30  2  0
 32 26  1  0
 33 32  2  0
 33 23  1  0
M  END
$$$$
