HRY.pdb
     RDKit          3D

 34 35  0  0  1  0  0  0  0  0999 V2000
    9.6275  -14.8772   19.8271 N   0  0  0  0  0  0  0  0  0  0  0  0
    8.3150  -14.6756   20.3942 C   0  0  1  0  0  0  0  0  0  0  0  0
    7.2661  -15.0298   19.3659 C   0  0  0  0  0  0  0  0  0  0  0  0
    7.5797  -14.3701   18.0978 C   0  0  0  0  0  0  0  0  0  0  0  0
    7.7308  -13.0151   17.8965 C   0  0  0  0  0  0  0  0  0  0  0  0
    8.0167  -12.7778   16.5966 N   0  0  0  0  0  0  0  0  0  0  0  0
    8.0462  -13.9648   15.9837 C   0  0  0  0  0  0  0  0  0  0  0  0
    7.7836  -14.9239   16.8847 N   0  0  0  0  0  0  0  0  0  0  0  0
    8.1939  -15.4973   21.6188 C   0  0  0  0  0  0  0  0  0  0  0  0
    7.1308  -15.5027   22.2472 O   0  0  0  0  0  0  0  0  0  0  0  0
    9.3995  -22.8427   20.4537 N   0  0  0  0  0  0  0  0  0  0  0  0
    9.9624  -21.8069   19.6572 C   0  0  0  0  0  0  0  0  0  0  0  0
   10.0732  -22.0306   18.3871 N   0  0  0  0  0  0  0  0  0  0  0  0
   10.3926  -20.5689   20.2090 N   0  0  0  0  0  0  0  0  0  0  0  0
    9.7890  -20.1354   21.4329 C   0  0  0  0  0  0  0  0  0  0  0  0
   10.2758  -18.7652   21.8660 C   0  0  0  0  0  0  0  0  0  0  0  0
    9.5804  -18.4840   23.2053 C   0  0  0  0  0  0  0  0  0  0  0  0
    9.2471  -17.0318   23.3530 C   0  0  2  0  0  0  0  0  0  0  0  0
    9.2537  -16.2949   22.1196 N   0  0  0  0  0  0  0  0  0  0  0  0
   10.1601  -16.4488   24.3670 C   0  0  0  0  0  0  0  0  0  0  0  0
   11.3431  -16.8659   24.5009 O   0  0  0  0  0  0  0  0  0  0  0  0
   10.5063  -21.3637   17.7327 O   0  0  0  0  0  0  0  0  0  0  0  0
    6.1898  -10.1549   26.8021 C   0  0  0  0  0  0  0  0  0  0  0  0
    6.6160  -11.4753   26.8312 C   0  0  0  0  0  0  0  0  0  0  0  0
    5.7302  -12.5236   26.7307 C   0  0  0  0  0  0  0  0  0  0  0  0
    6.2126  -13.8185   26.7657 C   0  0  0  0  0  0  0  0  0  0  0  0
    7.5533  -14.0990   26.8980 C   0  0  0  0  0  0  0  0  0  0  0  0
    8.0678  -15.4823   26.9381 C   0  0  2  0  0  0  0  0  0  0  0  0
    9.5399  -15.5948   26.6500 N   0  0  0  0  0  0  0  0  0  0  0  0
    9.7005  -15.3999   25.2070 C   0  0  0  0  0  0  0  0  0  0  0  0
   10.1095  -16.9246   26.9725 O   0  0  0  0  0  0  0  0  0  0  0  0
   10.0985  -17.8570   26.1203 C   0  0  0  0  0  0  0  0  0  0  0  0
    8.4506  -13.0312   26.9998 C   0  0  0  0  0  0  0  0  0  0  0  0
    7.9583  -11.7353   26.9638 O   0  0  0  0  0  0  0  0  0  0  0  0
  2  1  1  6
  2  9  1  0
  2  3  1  0
  4  3  1  0
  4  5  2  0
  6  5  1  0
  7  8  2  0
  7  6  1  0
  8  4  1  0
  9 19  1  0
  9 10  2  0
 11 12  1  0
 12 14  1  0
 13 12  2  0
 15 14  1  0
 16 17  1  0
 16 15  1  0
 18 17  1  6
 19 18  1  0
 20 29  1  0
 20 18  1  0
 21 20  2  0
 22 23  1  0
 23 24  2  0
 24 25  1  0
 26 27  1  0
 26 25  2  0
 28 27  1  1
 28 30  1  0
 28 29  1  0
 30 34  1  0
 31 30  2  0
 32 26  1  0
 33 32  2  0
 33 23  1  0
M  END
$$$$
