HRY.pdb
     RDKit          3D

 34 35  0  0  1  0  0  0  0  0999 V2000
    6.5724  -20.7514   24.2625 N   0  0  0  0  0  0  0  0  0  0  0  0
    6.9089  -19.4963   24.8920 C   0  0  1  0  0  0  0  0  0  0  0  0
    7.7671  -19.7604   26.1072 C   0  0  0  0  0  0  0  0  0  0  0  0
    7.0115  -20.5522   27.0788 C   0  0  0  0  0  0  0  0  0  0  0  0
    5.6503  -20.5063   27.2891 C   0  0  0  0  0  0  0  0  0  0  0  0
    5.3116  -21.3782   28.2653 N   0  0  0  0  0  0  0  0  0  0  0  0
    6.4415  -21.9675   28.6672 C   0  0  0  0  0  0  0  0  0  0  0  0
    7.4652  -21.4723   27.9549 N   0  0  0  0  0  0  0  0  0  0  0  0
    7.5948  -18.6360   23.9025 C   0  0  0  0  0  0  0  0  0  0  0  0
    8.4516  -19.1245   23.1593 O   0  0  0  0  0  0  0  0  0  0  0  0
    7.6604  -14.9079   17.0281 N   0  0  0  0  0  0  0  0  0  0  0  0
    7.7523  -13.9369   18.0639 C   0  0  0  0  0  0  0  0  0  0  0  0
    7.3093  -12.7491   17.8028 N   0  0  0  0  0  0  0  0  0  0  0  0
    8.3033  -14.2338   19.3407 N   0  0  0  0  0  0  0  0  0  0  0  0
    7.5946  -13.7780   20.4983 C   0  0  0  0  0  0  0  0  0  0  0  0
    8.2999  -14.1429   21.7911 C   0  0  0  0  0  0  0  0  0  0  0  0
    7.3675  -15.1308   22.5060 C   0  0  0  0  0  0  0  0  0  0  0  0
    8.1277  -16.2953   23.0607 C   0  0  2  0  0  0  0  0  0  0  0  0
    7.3158  -17.2534   23.7587 N   0  0  0  0  0  0  0  0  0  0  0  0
    9.2320  -15.7688   23.9002 C   0  0  0  0  0  0  0  0  0  0  0  0
    9.0291  -14.8707   24.7626 O   0  0  0  0  0  0  0  0  0  0  0  0
    7.2523  -12.0008   18.5081 O   0  0  0  0  0  0  0  0  0  0  0  0
    8.7703  -14.6064   30.1229 C   0  0  0  0  0  0  0  0  0  0  0  0
    9.5137  -15.0543   29.0399 C   0  0  0  0  0  0  0  0  0  0  0  0
   10.0776  -14.1803   28.1389 C   0  0  0  0  0  0  0  0  0  0  0  0
   10.8080  -14.6842   27.0790 C   0  0  0  0  0  0  0  0  0  0  0  0
   10.9926  -16.0348   26.8910 C   0  0  0  0  0  0  0  0  0  0  0  0
   11.7704  -16.5727   25.7572 C   0  0  2  0  0  0  0  0  0  0  0  0
   11.6736  -15.7467   24.5038 N   0  0  0  0  0  0  0  0  0  0  0  0
   10.5464  -16.2811   23.7358 C   0  0  0  0  0  0  0  0  0  0  0  0
   12.8712  -15.8403   23.6355 O   0  0  0  0  0  0  0  0  0  0  0  0
   12.8201  -16.4414   22.5257 C   0  0  0  0  0  0  0  0  0  0  0  0
   10.4181  -16.9200   27.8087 C   0  0  0  0  0  0  0  0  0  0  0  0
    9.6870  -16.4061   28.8691 O   0  0  0  0  0  0  0  0  0  0  0  0
  2  1  1  6
  2  9  1  0
  2  3  1  0
  4  3  1  0
  4  5  2  0
  6  5  1  0
  7  8  2  0
  7  6  1  0
  8  4  1  0
  9 19  1  0
  9 10  2  0
 11 12  1  0
 12 14  1  0
 13 12  2  0
 15 14  1  0
 16 17  1  0
 16 15  1  0
 18 17  1  1
 19 18  1  0
 20 29  1  0
 20 18  1  0
 21 20  2  0
 22 23  1  0
 23 24  2  0
 24 25  1  0
 26 27  1  0
 26 25  2  0
 28 27  1  1
 28 30  1  0
 28 29  1  0
 30 34  1  0
 31 30  2  0
 32 26  1  0
 33 32  2  0
 33 23  1  0
M  END
$$$$
