HRY.pdb
     RDKit          3D

 34 35  0  0  1  0  0  0  0  0999 V2000
    8.4258  -18.7543   16.6319 N   0  0  0  0  0  0  0  0  0  0  0  0
    9.1615  -17.7283   17.3325 C   0  0  1  0  0  0  0  0  0  0  0  0
    8.7712  -16.3735   16.7891 C   0  0  0  0  0  0  0  0  0  0  0  0
    9.3943  -16.1717   15.4804 C   0  0  0  0  0  0  0  0  0  0  0  0
   10.2284  -17.0532   14.8273 C   0  0  0  0  0  0  0  0  0  0  0  0
   10.6088  -16.5256   13.6421 N   0  0  0  0  0  0  0  0  0  0  0  0
   10.0244  -15.3278   13.5460 C   0  0  0  0  0  0  0  0  0  0  0  0
    9.2934  -15.1128   14.6505 N   0  0  0  0  0  0  0  0  0  0  0  0
    8.8838  -17.8481   18.7811 C   0  0  0  0  0  0  0  0  0  0  0  0
    7.7171  -17.8075   19.1840 O   0  0  0  0  0  0  0  0  0  0  0  0
   13.2381  -22.2749   24.9373 N   0  0  0  0  0  0  0  0  0  0  0  0
   12.0170  -21.9162   25.5732 C   0  0  0  0  0  0  0  0  0  0  0  0
   11.7203  -22.5296   26.6738 N   0  0  0  0  0  0  0  0  0  0  0  0
   11.1421  -20.9289   25.0424 N   0  0  0  0  0  0  0  0  0  0  0  0
   11.4160  -20.4275   23.7295 C   0  0  0  0  0  0  0  0  0  0  0  0
   10.3450  -19.4714   23.2388 C   0  0  0  0  0  0  0  0  0  0  0  0
   10.7013  -19.1667   21.7771 C   0  0  0  0  0  0  0  0  0  0  0  0
    9.7087  -18.2332   21.1564 C   0  0  2  0  0  0  0  0  0  0  0  0
    9.9053  -18.0102   19.7507 N   0  0  0  0  0  0  0  0  0  0  0  0
    9.7104  -16.9713   21.9367 C   0  0  0  0  0  0  0  0  0  0  0  0
   10.6849  -16.1715   21.8880 O   0  0  0  0  0  0  0  0  0  0  0  0
   10.8608  -22.3426   27.2095 O   0  0  0  0  0  0  0  0  0  0  0  0
    6.5089  -10.7111   27.3675 C   0  0  0  0  0  0  0  0  0  0  0  0
    6.6729  -11.7938   26.5149 C   0  0  0  0  0  0  0  0  0  0  0  0
    6.6663  -13.0886   26.9808 C   0  0  0  0  0  0  0  0  0  0  0  0
    6.8343  -14.1275   26.0845 C   0  0  0  0  0  0  0  0  0  0  0  0
    7.0088  -13.9130   24.7365 C   0  0  0  0  0  0  0  0  0  0  0  0
    7.1910  -15.0228   23.7800 C   0  0  1  0  0  0  0  0  0  0  0  0
    8.6159  -15.4858   23.6460 N   0  0  0  0  0  0  0  0  0  0  0  0
    8.5964  -16.6499   22.7570 C   0  0  0  0  0  0  0  0  0  0  0  0
    9.2205  -15.9287   24.9248 O   0  0  0  0  0  0  0  0  0  0  0  0
    8.9352  -17.0555   25.4191 C   0  0  0  0  0  0  0  0  0  0  0  0
    7.0148  -12.5959   24.2667 C   0  0  0  0  0  0  0  0  0  0  0  0
    6.8456  -11.5595   25.1725 O   0  0  0  0  0  0  0  0  0  0  0  0
  2  1  1  6
  2  9  1  0
  2  3  1  0
  4  3  1  0
  4  5  2  0
  6  5  1  0
  7  8  2  0
  7  6  1  0
  8  4  1  0
  9 19  1  0
  9 10  2  0
 11 12  1  0
 12 14  1  0
 13 12  2  0
 15 14  1  0
 16 17  1  0
 16 15  1  0
 18 17  1  1
 19 18  1  0
 20 29  1  0
 20 18  1  0
 21 20  2  0
 22 23  1  0
 23 24  2  0
 24 25  1  0
 26 27  1  0
 26 25  2  0
 28 27  1  6
 28 30  1  0
 28 29  1  0
 30 34  1  0
 31 30  2  0
 32 26  1  0
 33 32  2  0
 33 23  1  0
M  END
$$$$
