HRY.pdb
     RDKit          3D

 34 35  0  0  1  0  0  0  0  0999 V2000
    6.8017  -16.3682   20.6867 N   0  0  0  0  0  0  0  0  0  0  0  0
    7.9742  -15.8574   21.3568 C   0  0  1  0  0  0  0  0  0  0  0  0
    7.8020  -14.3774   21.6078 C   0  0  0  0  0  0  0  0  0  0  0  0
    7.8451  -13.6557   20.3354 C   0  0  0  0  0  0  0  0  0  0  0  0
    8.0586  -14.2061   19.0901 C   0  0  0  0  0  0  0  0  0  0  0  0
    8.0301  -13.2328   18.1521 N   0  0  0  0  0  0  0  0  0  0  0  0
    7.8020  -12.0832   18.7939 C   0  0  0  0  0  0  0  0  0  0  0  0
    7.6904  -12.3351   20.1071 N   0  0  0  0  0  0  0  0  0  0  0  0
    8.1736  -16.6154   22.6120 C   0  0  0  0  0  0  0  0  0  0  0  0
    7.1986  -16.8980   23.3154 O   0  0  0  0  0  0  0  0  0  0  0  0
   11.1890  -20.3257   20.0732 N   0  0  0  0  0  0  0  0  0  0  0  0
   12.5796  -20.1027   20.2748 C   0  0  0  0  0  0  0  0  0  0  0  0
   13.3091  -19.9221   19.2209 N   0  0  0  0  0  0  0  0  0  0  0  0
   13.1677  -20.0747   21.5692 N   0  0  0  0  0  0  0  0  0  0  0  0
   12.2927  -20.0797   22.7025 C   0  0  0  0  0  0  0  0  0  0  0  0
   11.3841  -18.8652   22.7389 C   0  0  0  0  0  0  0  0  0  0  0  0
   10.6394  -18.9463   24.0788 C   0  0  0  0  0  0  0  0  0  0  0  0
    9.7190  -17.7798   24.2633 C   0  0  2  0  0  0  0  0  0  0  0  0
    9.4489  -17.0432   23.0596 N   0  0  0  0  0  0  0  0  0  0  0  0
   10.2702  -16.9223   25.3415 C   0  0  0  0  0  0  0  0  0  0  0  0
   11.3102  -16.2311   25.1624 O   0  0  0  0  0  0  0  0  0  0  0  0
   14.3256  -19.7612   19.2594 O   0  0  0  0  0  0  0  0  0  0  0  0
    6.6732  -11.4246   24.8583 C   0  0  0  0  0  0  0  0  0  0  0  0
    7.1970  -12.4043   25.6901 C   0  0  0  0  0  0  0  0  0  0  0  0
    6.5337  -13.5877   25.9206 C   0  0  0  0  0  0  0  0  0  0  0  0
    7.1042  -14.5271   26.7590 C   0  0  0  0  0  0  0  0  0  0  0  0
    8.3175  -14.3209   27.3746 C   0  0  0  0  0  0  0  0  0  0  0  0
    8.9252  -15.3234   28.2721 C   0  0  2  0  0  0  0  0  0  0  0  0
   10.1207  -16.0230   27.6857 N   0  0  0  0  0  0  0  0  0  0  0  0
    9.6194  -16.8730   26.6029 C   0  0  0  0  0  0  0  0  0  0  0  0
   10.8197  -16.9116   28.6443 O   0  0  0  0  0  0  0  0  0  0  0  0
   10.7634  -18.1675   28.5213 C   0  0  0  0  0  0  0  0  0  0  0  0
    8.9887  -13.1172   27.1379 C   0  0  0  0  0  0  0  0  0  0  0  0
    8.4094  -12.1802   26.2956 O   0  0  0  0  0  0  0  0  0  0  0  0
  2  1  1  1
  2  9  1  0
  2  3  1  0
  4  3  1  0
  4  5  2  0
  6  5  1  0
  7  8  2  0
  7  6  1  0
  8  4  1  0
  9 19  1  0
  9 10  2  0
 11 12  1  0
 12 14  1  0
 13 12  2  0
 15 14  1  0
 16 17  1  0
 16 15  1  0
 18 17  1  6
 19 18  1  0
 20 29  1  0
 20 18  1  0
 21 20  2  0
 22 23  1  0
 23 24  2  0
 24 25  1  0
 26 27  1  0
 26 25  2  0
 28 27  1  6
 28 30  1  0
 28 29  1  0
 30 34  1  0
 31 30  2  0
 32 26  1  0
 33 32  2  0
 33 23  1  0
M  END
$$$$
