HRY.pdb
     RDKit          3D

 34 35  0  0  1  0  0  0  0  0999 V2000
    6.9322  -16.5801   18.5542 N   0  0  0  0  0  0  0  0  0  0  0  0
    8.1140  -16.1497   19.2634 C   0  0  1  0  0  0  0  0  0  0  0  0
    8.2714  -14.6546   19.1120 C   0  0  0  0  0  0  0  0  0  0  0  0
    8.3305  -14.3089   17.6911 C   0  0  0  0  0  0  0  0  0  0  0  0
    7.4293  -13.5265   17.0019 C   0  0  0  0  0  0  0  0  0  0  0  0
    7.8096  -13.4275   15.7084 N   0  0  0  0  0  0  0  0  0  0  0  0
    8.9350  -14.1365   15.5802 C   0  0  0  0  0  0  0  0  0  0  0  0
    9.2502  -14.6675   16.7716 N   0  0  0  0  0  0  0  0  0  0  0  0
    7.9930  -16.5559   20.6812 C   0  0  0  0  0  0  0  0  0  0  0  0
    6.8986  -16.9241   21.1191 O   0  0  0  0  0  0  0  0  0  0  0  0
   11.0622  -21.1073   20.0649 N   0  0  0  0  0  0  0  0  0  0  0  0
   11.7012  -21.6724   21.2035 C   0  0  0  0  0  0  0  0  0  0  0  0
   12.8352  -22.2665   21.0119 N   0  0  0  0  0  0  0  0  0  0  0  0
   11.1387  -21.6010   22.5075 N   0  0  0  0  0  0  0  0  0  0  0  0
    9.9701  -20.7938   22.6895 C   0  0  0  0  0  0  0  0  0  0  0  0
   10.2779  -19.3089   22.6414 C   0  0  0  0  0  0  0  0  0  0  0  0
    8.9474  -18.6015   22.9343 C   0  0  0  0  0  0  0  0  0  0  0  0
    9.1020  -17.1126   22.9019 C   0  0  2  0  0  0  0  0  0  0  0  0
    9.0877  -16.5450   21.5820 N   0  0  0  0  0  0  0  0  0  0  0  0
   10.3284  -16.7586   23.6584 C   0  0  0  0  0  0  0  0  0  0  0  0
   11.1572  -17.6409   24.0134 O   0  0  0  0  0  0  0  0  0  0  0  0
   13.4155  -22.6347   21.7789 O   0  0  0  0  0  0  0  0  0  0  0  0
    5.3404  -11.7341   28.4886 C   0  0  0  0  0  0  0  0  0  0  0  0
    6.1553  -12.3725   27.5642 C   0  0  0  0  0  0  0  0  0  0  0  0
    7.5275  -12.3227   27.6537 C   0  0  0  0  0  0  0  0  0  0  0  0
    8.2885  -12.9781   26.7039 C   0  0  0  0  0  0  0  0  0  0  0  0
    7.7209  -13.6821   25.6667 C   0  0  0  0  0  0  0  0  0  0  0  0
    8.5340  -14.3796   24.6508 C   0  0  2  0  0  0  0  0  0  0  0  0
    9.9102  -14.7587   25.1253 N   0  0  0  0  0  0  0  0  0  0  0  0
   10.5814  -15.4018   23.9930 C   0  0  0  0  0  0  0  0  0  0  0  0
    9.9073  -15.7374   26.2384 O   0  0  0  0  0  0  0  0  0  0  0  0
    9.3839  -16.8781   26.0955 C   0  0  0  0  0  0  0  0  0  0  0  0
    6.3260  -13.7306   25.5790 C   0  0  0  0  0  0  0  0  0  0  0  0
    5.5701  -13.0704   26.5360 O   0  0  0  0  0  0  0  0  0  0  0  0
  2  1  1  6
  2  9  1  0
  2  3  1  0
  4  3  1  0
  4  5  2  0
  6  5  1  0
  7  8  2  0
  7  6  1  0
  8  4  1  0
  9 19  1  0
  9 10  2  0
 11 12  1  0
 12 14  1  0
 13 12  2  0
 15 14  1  0
 16 17  1  0
 16 15  1  0
 18 17  1  6
 19 18  1  0
 20 29  1  0
 20 18  1  0
 21 20  2  0
 22 23  1  0
 23 24  2  0
 24 25  1  0
 26 27  1  0
 26 25  2  0
 28 27  1  6
 28 30  1  0
 28 29  1  0
 30 34  1  0
 31 30  2  0
 32 26  1  0
 33 32  2  0
 33 23  1  0
M  END
$$$$
