HRY.pdb
     RDKit          3D

 34 35  0  0  1  0  0  0  0  0999 V2000
    8.4298  -17.4575   17.4805 N   0  0  0  0  0  0  0  0  0  0  0  0
    8.7145  -16.4059   18.4281 C   0  0  1  0  0  0  0  0  0  0  0  0
    7.7353  -15.2729   18.2270 C   0  0  0  0  0  0  0  0  0  0  0  0
    7.9646  -14.6520   16.9217 C   0  0  0  0  0  0  0  0  0  0  0  0
    8.7014  -13.5136   16.6760 C   0  0  0  0  0  0  0  0  0  0  0  0
    8.6906  -13.2423   15.3515 N   0  0  0  0  0  0  0  0  0  0  0  0
    7.9579  -14.1948   14.7672 C   0  0  0  0  0  0  0  0  0  0  0  0
    7.5202  -15.0438   15.7097 N   0  0  0  0  0  0  0  0  0  0  0  0
    8.6448  -16.9657   19.7961 C   0  0  0  0  0  0  0  0  0  0  0  0
    7.5535  -17.3127   20.2583 O   0  0  0  0  0  0  0  0  0  0  0  0
   14.8841  -17.4369   21.6320 N   0  0  0  0  0  0  0  0  0  0  0  0
   14.9541  -18.5055   20.6954 C   0  0  0  0  0  0  0  0  0  0  0  0
   15.8027  -18.3876   19.7250 N   0  0  0  0  0  0  0  0  0  0  0  0
   14.1374  -19.6649   20.7988 N   0  0  0  0  0  0  0  0  0  0  0  0
   13.0017  -19.6086   21.6690 C   0  0  0  0  0  0  0  0  0  0  0  0
   12.0299  -18.5090   21.2837 C   0  0  0  0  0  0  0  0  0  0  0  0
   10.8435  -18.6496   22.2477 C   0  0  0  0  0  0  0  0  0  0  0  0
    9.7902  -17.6223   21.9705 C   0  0  2  0  0  0  0  0  0  0  0  0
    9.7861  -17.1284   20.6213 N   0  0  0  0  0  0  0  0  0  0  0  0
    9.9291  -16.5361   22.9718 C   0  0  0  0  0  0  0  0  0  0  0  0
   10.5752  -15.4840   22.7125 O   0  0  0  0  0  0  0  0  0  0  0  0
   15.9435  -19.1131   19.0077 O   0  0  0  0  0  0  0  0  0  0  0  0
    6.2956  -10.7517   28.3244 C   0  0  0  0  0  0  0  0  0  0  0  0
    6.7164  -11.7387   27.4441 C   0  0  0  0  0  0  0  0  0  0  0  0
    7.8511  -11.5902   26.6799 C   0  0  0  0  0  0  0  0  0  0  0  0
    8.2216  -12.6071   25.8200 C   0  0  0  0  0  0  0  0  0  0  0  0
    7.4933  -13.7684   25.6997 C   0  0  0  0  0  0  0  0  0  0  0  0
    7.8879  -14.8532   24.7792 C   0  0  1  0  0  0  0  0  0  0  0  0
    9.1780  -15.5312   25.1517 N   0  0  0  0  0  0  0  0  0  0  0  0
    9.3253  -16.6760   24.2497 C   0  0  0  0  0  0  0  0  0  0  0  0
    9.1917  -16.0657   26.5341 O   0  0  0  0  0  0  0  0  0  0  0  0
    9.5997  -15.3576   27.4974 C   0  0  0  0  0  0  0  0  0  0  0  0
    6.3408  -13.9159   26.4780 C   0  0  0  0  0  0  0  0  0  0  0  0
    5.9763  -12.8910   27.3380 O   0  0  0  0  0  0  0  0  0  0  0  0
  2  1  1  6
  2  9  1  0
  2  3  1  0
  4  3  1  0
  4  5  2  0
  6  5  1  0
  7  8  2  0
  7  6  1  0
  8  4  1  0
  9 19  1  0
  9 10  2  0
 11 12  1  0
 12 14  1  0
 13 12  2  0
 15 14  1  0
 16 17  1  0
 16 15  1  0
 18 17  1  6
 19 18  1  0
 20 29  1  0
 20 18  1  0
 21 20  2  0
 22 23  1  0
 23 24  2  0
 24 25  1  0
 26 27  1  0
 26 25  2  0
 28 27  1  6
 28 30  1  0
 28 29  1  0
 30 34  1  0
 31 30  2  0
 32 26  1  0
 33 32  2  0
 33 23  1  0
M  END
$$$$
