HRY.pdb
     RDKit          3D

 34 35  0  0  1  0  0  0  0  0999 V2000
    5.4090  -15.3001   20.0585 N   0  0  0  0  0  0  0  0  0  0  0  0
    6.7126  -15.7972   20.4305 C   0  0  1  0  0  0  0  0  0  0  0  0
    7.7151  -14.6685   20.3673 C   0  0  0  0  0  0  0  0  0  0  0  0
    7.8500  -14.2088   18.9845 C   0  0  0  0  0  0  0  0  0  0  0  0
    7.5063  -12.9656   18.4989 C   0  0  0  0  0  0  0  0  0  0  0  0
    7.7729  -12.9053   17.1749 N   0  0  0  0  0  0  0  0  0  0  0  0
    8.2779  -14.0925   16.8271 C   0  0  0  0  0  0  0  0  0  0  0  0
    8.3251  -14.8781   17.9139 N   0  0  0  0  0  0  0  0  0  0  0  0
    6.6277  -16.3912   21.7831 C   0  0  0  0  0  0  0  0  0  0  0  0
    5.8595  -15.9019   22.6171 O   0  0  0  0  0  0  0  0  0  0  0  0
    4.1114  -22.7135   24.6225 N   0  0  0  0  0  0  0  0  0  0  0  0
    5.3970  -23.1548   24.2025 C   0  0  0  0  0  0  0  0  0  0  0  0
    5.5135  -24.3976   23.8598 N   0  0  0  0  0  0  0  0  0  0  0  0
    6.5224  -22.2870   24.1524 N   0  0  0  0  0  0  0  0  0  0  0  0
    6.4528  -21.0573   24.8824 C   0  0  0  0  0  0  0  0  0  0  0  0
    7.7404  -20.2591   24.7978 C   0  0  0  0  0  0  0  0  0  0  0  0
    7.7452  -19.6299   23.3976 C   0  0  0  0  0  0  0  0  0  0  0  0
    7.2998  -18.2010   23.4396 C   0  0  2  0  0  0  0  0  0  0  0  0
    7.3959  -17.5143   22.1813 N   0  0  0  0  0  0  0  0  0  0  0  0
    8.0507  -17.5144   24.5195 C   0  0  0  0  0  0  0  0  0  0  0  0
    8.0792  -17.9752   25.6935 O   0  0  0  0  0  0  0  0  0  0  0  0
    6.4041  -24.8186   23.5593 O   0  0  0  0  0  0  0  0  0  0  0  0
   10.9127  -14.5099   31.4392 C   0  0  0  0  0  0  0  0  0  0  0  0
   10.3246  -14.6863   30.1946 C   0  0  0  0  0  0  0  0  0  0  0  0
   10.1843  -13.6442   29.3068 C   0  0  0  0  0  0  0  0  0  0  0  0
    9.5904  -13.8794   28.0810 C   0  0  0  0  0  0  0  0  0  0  0  0
    9.1319  -15.1239   27.7142 C   0  0  0  0  0  0  0  0  0  0  0  0
    8.4951  -15.3741   26.4059 C   0  0  1  0  0  0  0  0  0  0  0  0
    9.4720  -15.5842   25.2815 N   0  0  0  0  0  0  0  0  0  0  0  0
    8.7541  -16.3142   24.2336 C   0  0  0  0  0  0  0  0  0  0  0  0
   10.6440  -16.4099   25.6579 O   0  0  0  0  0  0  0  0  0  0  0  0
   11.5688  -15.9321   26.3735 C   0  0  0  0  0  0  0  0  0  0  0  0
    9.2762  -16.1805   28.6189 C   0  0  0  0  0  0  0  0  0  0  0  0
    9.8732  -15.9360   29.8465 O   0  0  0  0  0  0  0  0  0  0  0  0
  2  1  1  1
  2  9  1  0
  2  3  1  0
  4  3  1  0
  4  5  2  0
  6  5  1  0
  7  8  2  0
  7  6  1  0
  8  4  1  0
  9 19  1  0
  9 10  2  0
 11 12  1  0
 12 14  1  0
 13 12  2  0
 15 14  1  0
 16 17  1  0
 16 15  1  0
 18 17  1  6
 19 18  1  0
 20 29  1  0
 20 18  1  0
 21 20  2  0
 22 23  1  0
 23 24  2  0
 24 25  1  0
 26 27  1  0
 26 25  2  0
 28 27  1  6
 28 30  1  0
 28 29  1  0
 30 34  1  0
 31 30  2  0
 32 26  1  0
 33 32  2  0
 33 23  1  0
M  END
$$$$
