TDN.pdb
     RDKit          3D

 24 23  0  0  1  0  0  0  0  0999 V2000
   26.3841  -17.4983  -14.8720 C   0  0  0  0  0  0  0  0  0  0  0  0
   27.0786  -18.6230  -15.5837 C   0  0  1  0  0  0  0  0  0  0  0  0
   28.2085  -18.0687  -16.1976 O   0  0  0  0  0  0  0  0  0  0  0  0
   27.5108  -19.7465  -14.6342 C   0  0  2  0  0  0  0  0  0  0  0  0
   28.1415  -20.7474  -15.5241 N   0  0  0  0  0  0  0  0  0  0  0  0
   26.3220  -20.3623  -14.0373 C   0  0  0  0  0  0  0  0  0  0  0  0
   25.6237  -21.1492  -14.7556 O   0  0  0  0  0  0  0  0  0  0  0  0
   25.8588  -20.1695  -12.7120 N   0  0  0  0  0  0  0  0  0  0  0  0
   24.7211  -20.8834  -12.2302 C   0  0  1  0  0  0  0  0  0  0  0  0
   24.5402  -20.7661  -10.7363 C   0  0  0  0  0  0  0  0  0  0  0  0
   25.7069  -21.2498   -9.9768 C   0  0  0  0  0  0  0  0  0  0  0  0
   26.4057  -22.1750  -10.4382 O   0  0  0  0  0  0  0  0  0  0  0  0
   23.4418  -20.3562  -12.8248 C   0  0  0  0  0  0  0  0  0  0  0  0
   23.2594  -19.1221  -12.7759 O   0  0  0  0  0  0  0  0  0  0  0  0
   26.0444  -20.6976   -8.7596 O   0  0  0  0  0  0  0  0  0  0  0  0
   19.1487  -19.8212  -15.3419 N   0  0  0  0  0  0  0  0  0  0  0  0
   19.9767  -20.6855  -16.1124 C   0  0  0  0  0  0  0  0  0  0  0  0
   19.6821  -21.0121  -17.2823 O   0  0  0  0  0  0  0  0  0  0  0  0
   21.2148  -21.1888  -15.4676 C   0  0  0  0  0  0  0  0  0  0  0  0
   21.2889  -20.7049  -14.0137 C   0  0  2  0  0  0  0  0  0  0  0  0
   22.4881  -21.2125  -13.4120 N   0  0  0  0  0  0  0  0  0  0  0  0
   20.0662  -21.1111  -13.2848 C   0  0  0  0  0  0  0  0  0  0  0  0
   19.9542  -22.3275  -12.6612 O   0  0  0  0  0  0  0  0  0  0  0  0
   19.0641  -20.3293  -13.2138 O   0  0  0  0  0  0  0  0  0  0  0  0
  2  1  1  1
  3  2  1  0
  4  2  1  0
  4  6  1  0
  4  5  1  6
  6  7  2  0
  8  9  1  0
  8  6  1  0
  9 13  1  0
  9 10  1  1
 11 10  1  0
 11 15  1  0
 12 11  2  0
 13 14  2  0
 17 16  1  0
 17 18  2  0
 19 17  1  0
 20 19  1  6
 21 20  1  0
 21 13  1  0
 22 23  1  0
 22 20  1  0
 24 22  2  0
M  END
$$$$
