TDN.pdb
     RDKit          3D

 24 23  0  0  1  0  0  0  0  0999 V2000
   16.8071  -11.1832  -10.7204 C   0  0  0  0  0  0  0  0  0  0  0  0
   15.3172  -11.0261  -10.8167 C   0  0  1  0  0  0  0  0  0  0  0  0
   14.7655  -12.2848  -10.5484 O   0  0  0  0  0  0  0  0  0  0  0  0
   14.7649  -10.0015   -9.8188 C   0  0  2  0  0  0  0  0  0  0  0  0
   13.3012  -10.0386  -10.0375 N   0  0  0  0  0  0  0  0  0  0  0  0
   15.2395   -8.6634  -10.1836 C   0  0  0  0  0  0  0  0  0  0  0  0
   14.8386   -8.1586  -11.2823 O   0  0  0  0  0  0  0  0  0  0  0  0
   16.1178   -7.8534   -9.4217 N   0  0  0  0  0  0  0  0  0  0  0  0
   16.5345   -6.5783   -9.9086 C   0  0  1  0  0  0  0  0  0  0  0  0
   16.4942   -5.5013   -8.8519 C   0  0  0  0  0  0  0  0  0  0  0  0
   15.1220   -5.1134   -8.4793 C   0  0  0  0  0  0  0  0  0  0  0  0
   14.2124   -5.1598   -9.3323 O   0  0  0  0  0  0  0  0  0  0  0  0
   17.9617   -6.6065  -10.3886 C   0  0  0  0  0  0  0  0  0  0  0  0
   18.8096   -7.1046   -9.6195 O   0  0  0  0  0  0  0  0  0  0  0  0
   14.8208   -4.6979   -7.1998 O   0  0  0  0  0  0  0  0  0  0  0  0
   21.3460   -7.9736  -11.1020 N   0  0  0  0  0  0  0  0  0  0  0  0
   20.7571   -8.3625  -12.3383 C   0  0  0  0  0  0  0  0  0  0  0  0
   20.9732   -9.4826  -12.8488 O   0  0  0  0  0  0  0  0  0  0  0  0
   19.8686   -7.3781  -13.0040 C   0  0  0  0  0  0  0  0  0  0  0  0
   19.6872   -6.1418  -12.1140 C   0  0  2  0  0  0  0  0  0  0  0  0
   18.3309   -6.0946  -11.6493 N   0  0  0  0  0  0  0  0  0  0  0  0
   20.0806   -4.9239  -12.8575 C   0  0  0  0  0  0  0  0  0  0  0  0
   21.3722   -4.4630  -12.8792 O   0  0  0  0  0  0  0  0  0  0  0  0
   19.2162   -4.2557  -13.5110 O   0  0  0  0  0  0  0  0  0  0  0  0
  2  1  1  1
  3  2  1  0
  4  2  1  0
  4  6  1  0
  4  5  1  6
  6  7  2  0
  8  9  1  0
  8  6  1  0
  9 13  1  0
  9 10  1  1
 11 10  1  0
 11 15  1  0
 12 11  2  0
 13 14  2  0
 17 16  1  0
 17 18  2  0
 19 17  1  0
 20 19  1  6
 21 20  1  0
 21 13  1  0
 22 23  1  0
 22 20  1  0
 24 22  2  0
M  END
$$$$
