TDN.pdb
     RDKit          3D

 24 23  0  0  1  0  0  0  0  0999 V2000
   20.5988  -13.3682  -16.5028 C   0  0  0  0  0  0  0  0  0  0  0  0
   19.9717  -13.6473  -17.8379 C   0  0  1  0  0  0  0  0  0  0  0  0
   20.5229  -14.8514  -18.2931 O   0  0  0  0  0  0  0  0  0  0  0  0
   18.4463  -13.7796  -17.7588 C   0  0  2  0  0  0  0  0  0  0  0  0
   18.0349  -14.0442  -19.1561 N   0  0  0  0  0  0  0  0  0  0  0  0
   17.8674  -12.4946  -17.3560 C   0  0  0  0  0  0  0  0  0  0  0  0
   17.9633  -11.5102  -18.1588 O   0  0  0  0  0  0  0  0  0  0  0  0
   17.1948  -12.2280  -16.1376 N   0  0  0  0  0  0  0  0  0  0  0  0
   16.6797  -10.9257  -15.8633 C   0  0  1  0  0  0  0  0  0  0  0  0
   15.5059  -10.9433  -14.9146 C   0  0  0  0  0  0  0  0  0  0  0  0
   14.9264   -9.6064  -14.6932 C   0  0  0  0  0  0  0  0  0  0  0  0
   14.8041   -8.8180  -15.6527 O   0  0  0  0  0  0  0  0  0  0  0  0
   17.7096  -10.0495  -15.2002 C   0  0  0  0  0  0  0  0  0  0  0  0
   18.5975  -10.6213  -14.5344 O   0  0  0  0  0  0  0  0  0  0  0  0
   14.5139   -9.2065  -13.4401 O   0  0  0  0  0  0  0  0  0  0  0  0
   20.7831   -6.2895  -14.0486 N   0  0  0  0  0  0  0  0  0  0  0  0
   21.1544   -7.3799  -14.8850 C   0  0  0  0  0  0  0  0  0  0  0  0
   22.3471   -7.6095  -15.1795 O   0  0  0  0  0  0  0  0  0  0  0  0
   20.0611   -8.2418  -15.3986 C   0  0  0  0  0  0  0  0  0  0  0  0
   18.7206   -7.8190  -14.7841 C   0  0  2  0  0  0  0  0  0  0  0  0
   17.6782   -8.6452  -15.3214 N   0  0  0  0  0  0  0  0  0  0  0  0
   18.4891   -6.3768  -15.0238 C   0  0  0  0  0  0  0  0  0  0  0  0
   17.4635   -5.9195  -15.8112 O   0  0  0  0  0  0  0  0  0  0  0  0
   19.2490   -5.5020  -14.4967 O   0  0  0  0  0  0  0  0  0  0  0  0
  2  1  1  1
  3  2  1  0
  4  2  1  0
  4  6  1  0
  4  5  1  6
  6  7  2  0
  8  9  1  0
  8  6  1  0
  9 13  1  0
  9 10  1  1
 11 10  1  0
 11 15  1  0
 12 11  2  0
 13 14  2  0
 17 16  1  0
 17 18  2  0
 19 17  1  0
 20 19  1  6
 21 20  1  0
 21 13  1  0
 22 23  1  0
 22 20  1  0
 24 22  2  0
M  END
$$$$
