TDN.pdb
     RDKit          3D

 24 23  0  0  1  0  0  0  0  0999 V2000
   21.8188  -11.1791  -19.5969 C   0  0  0  0  0  0  0  0  0  0  0  0
   21.4526  -10.0082  -18.7317 C   0  0  1  0  0  0  0  0  0  0  0  0
   20.1278   -9.6801  -19.0449 O   0  0  0  0  0  0  0  0  0  0  0  0
   21.5627  -10.3214  -17.2349 C   0  0  2  0  0  0  0  0  0  0  0  0
   20.4814  -11.3029  -16.9919 N   0  0  0  0  0  0  0  0  0  0  0  0
   21.2554   -9.1143  -16.4621 C   0  0  0  0  0  0  0  0  0  0  0  0
   20.0379   -8.8747  -16.1741 O   0  0  0  0  0  0  0  0  0  0  0  0
   22.1949   -8.1645  -15.9898 N   0  0  0  0  0  0  0  0  0  0  0  0
   21.7613   -7.0123  -15.2681 C   0  0  1  0  0  0  0  0  0  0  0  0
   22.7831   -6.5212  -14.2715 C   0  0  0  0  0  0  0  0  0  0  0  0
   22.2972   -5.3906  -13.4606 C   0  0  0  0  0  0  0  0  0  0  0  0
   21.5344   -5.6031  -12.4962 O   0  0  0  0  0  0  0  0  0  0  0  0
   21.5117   -5.8440  -16.1851 C   0  0  0  0  0  0  0  0  0  0  0  0
   22.0651   -5.8722  -17.3038 O   0  0  0  0  0  0  0  0  0  0  0  0
   22.6705   -4.0949  -13.7473 O   0  0  0  0  0  0  0  0  0  0  0  0
   19.6964   -1.9310  -18.5950 N   0  0  0  0  0  0  0  0  0  0  0  0
   19.3699   -3.2702  -18.9502 C   0  0  0  0  0  0  0  0  0  0  0  0
   18.8189   -3.5493  -20.0367 O   0  0  0  0  0  0  0  0  0  0  0  0
   19.7120   -4.3324  -17.9721 C   0  0  0  0  0  0  0  0  0  0  0  0
   20.3505   -3.7147  -16.7214 C   0  0  2  0  0  0  0  0  0  0  0  0
   20.6911   -4.7631  -15.8034 N   0  0  0  0  0  0  0  0  0  0  0  0
   19.4352   -2.7119  -16.1316 C   0  0  0  0  0  0  0  0  0  0  0  0
   19.6356   -1.3627  -16.2742 O   0  0  0  0  0  0  0  0  0  0  0  0
   18.4163   -3.0787  -15.4624 O   0  0  0  0  0  0  0  0  0  0  0  0
  2  1  1  6
  3  2  1  0
  4  2  1  0
  4  6  1  0
  4  5  1  1
  6  7  2  0
  8  9  1  0
  8  6  1  0
  9 13  1  0
  9 10  1  1
 11 10  1  0
 11 15  1  0
 12 11  2  0
 13 14  2  0
 17 16  1  0
 17 18  2  0
 19 17  1  0
 20 19  1  6
 21 20  1  0
 21 13  1  0
 22 23  1  0
 22 20  1  0
 24 22  2  0
M  END
$$$$
