TDN.pdb
     RDKit          3D

 24 23  0  0  1  0  0  0  0  0999 V2000
   15.3618   -5.0352   -9.1369 C   0  0  0  0  0  0  0  0  0  0  0  0
   15.0791   -6.0763   -8.0928 C   0  0  1  0  0  0  0  0  0  0  0  0
   14.1668   -5.5050   -7.1972 O   0  0  0  0  0  0  0  0  0  0  0  0
   14.4825   -7.3593   -8.6832 C   0  0  2  0  0  0  0  0  0  0  0  0
   14.4244   -8.2912   -7.5344 N   0  0  0  0  0  0  0  0  0  0  0  0
   15.4124   -7.9188   -9.6686 C   0  0  0  0  0  0  0  0  0  0  0  0
   16.4242   -8.5666   -9.2451 O   0  0  0  0  0  0  0  0  0  0  0  0
   15.2989   -7.8124  -11.0771 N   0  0  0  0  0  0  0  0  0  0  0  0
   16.2614   -8.4297  -11.9310 C   0  0  1  0  0  0  0  0  0  0  0  0
   15.6367   -9.1437  -13.1049 C   0  0  0  0  0  0  0  0  0  0  0  0
   16.6247   -9.8513  -13.9387 C   0  0  0  0  0  0  0  0  0  0  0  0
   16.6512   -9.6525  -15.1703 O   0  0  0  0  0  0  0  0  0  0  0  0
   17.1962   -7.4167  -12.5376 C   0  0  0  0  0  0  0  0  0  0  0  0
   16.6774   -6.4209  -13.0834 O   0  0  0  0  0  0  0  0  0  0  0  0
   17.5261  -10.7336  -13.3825 O   0  0  0  0  0  0  0  0  0  0  0  0
   21.3029   -4.8811  -13.9795 N   0  0  0  0  0  0  0  0  0  0  0  0
   21.8067   -5.7527  -12.9732 C   0  0  0  0  0  0  0  0  0  0  0  0
   22.9811   -5.6680  -12.5541 O   0  0  0  0  0  0  0  0  0  0  0  0
   20.8756   -6.7754  -12.4355 C   0  0  0  0  0  0  0  0  0  0  0  0
   19.4853   -6.6071  -13.0617 C   0  0  2  0  0  0  0  0  0  0  0  0
   18.5959   -7.5795  -12.4950 N   0  0  0  0  0  0  0  0  0  0  0  0
   19.5811   -6.7086  -14.5354 C   0  0  0  0  0  0  0  0  0  0  0  0
   19.1913   -7.8313  -15.2200 O   0  0  0  0  0  0  0  0  0  0  0  0
   20.0364   -5.7393  -15.2236 O   0  0  0  0  0  0  0  0  0  0  0  0
  2  1  1  6
  3  2  1  0
  4  2  1  0
  4  6  1  0
  4  5  1  1
  6  7  2  0
  8  9  1  0
  8  6  1  0
  9 13  1  0
  9 10  1  6
 11 10  1  0
 11 15  1  0
 12 11  2  0
 13 14  2  0
 17 16  1  0
 17 18  2  0
 19 17  1  0
 20 19  1  1
 21 20  1  0
 21 13  1  0
 22 23  1  0
 22 20  1  0
 24 22  2  0
M  END
$$$$
