TDN.pdb
     RDKit          3D

 24 23  0  0  1  0  0  0  0  0999 V2000
   15.2899  -10.5052  -16.7891 C   0  0  0  0  0  0  0  0  0  0  0  0
   16.5145   -9.9368  -16.1326 C   0  0  1  0  0  0  0  0  0  0  0  0
   16.1921   -9.7483  -14.7830 O   0  0  0  0  0  0  0  0  0  0  0  0
   17.7300  -10.8646  -16.2441 C   0  0  2  0  0  0  0  0  0  0  0  0
   17.4217  -11.9753  -15.3153 N   0  0  0  0  0  0  0  0  0  0  0  0
   18.9180  -10.1718  -15.7368 C   0  0  0  0  0  0  0  0  0  0  0  0
   19.3707  -10.5059  -14.5940 O   0  0  0  0  0  0  0  0  0  0  0  0
   19.6331   -9.1455  -16.4027 N   0  0  0  0  0  0  0  0  0  0  0  0
   20.8375   -8.6213  -15.8450 C   0  0  1  0  0  0  0  0  0  0  0  0
   22.0715   -9.0401  -16.6066 C   0  0  0  0  0  0  0  0  0  0  0  0
   22.6737  -10.2808  -16.0868 C   0  0  0  0  0  0  0  0  0  0  0  0
   23.0160  -10.3481  -14.8888 O   0  0  0  0  0  0  0  0  0  0  0  0
   20.8514   -7.1155  -15.8692 C   0  0  0  0  0  0  0  0  0  0  0  0
   20.6793   -6.5639  -16.9758 O   0  0  0  0  0  0  0  0  0  0  0  0
   22.8676  -11.3754  -16.9021 O   0  0  0  0  0  0  0  0  0  0  0  0
   18.6258   -4.3830  -15.5816 N   0  0  0  0  0  0  0  0  0  0  0  0
   18.8090   -4.1486  -14.1896 C   0  0  0  0  0  0  0  0  0  0  0  0
   17.8705   -3.7738  -13.4542 O   0  0  0  0  0  0  0  0  0  0  0  0
   20.1696   -4.3681  -13.6396 C   0  0  0  0  0  0  0  0  0  0  0  0
   21.0974   -4.9229  -14.7281 C   0  0  2  0  0  0  0  0  0  0  0  0
   21.0496   -6.3563  -14.6979 N   0  0  0  0  0  0  0  0  0  0  0  0
   22.4663   -4.3915  -14.5419 C   0  0  0  0  0  0  0  0  0  0  0  0
   22.8862   -3.2249  -15.1282 O   0  0  0  0  0  0  0  0  0  0  0  0
   23.3100   -5.0126  -13.8187 O   0  0  0  0  0  0  0  0  0  0  0  0
  2  1  1  6
  3  2  1  0
  4  2  1  0
  4  6  1  0
  4  5  1  1
  6  7  2  0
  8  9  1  0
  8  6  1  0
  9 13  1  0
  9 10  1  6
 11 10  1  0
 11 15  1  0
 12 11  2  0
 13 14  2  0
 17 16  1  0
 17 18  2  0
 19 17  1  0
 20 19  1  1
 21 20  1  0
 21 13  1  0
 22 23  1  0
 22 20  1  0
 24 22  2  0
M  END
$$$$
