TDN.pdb
     RDKit          3D

 24 23  0  0  1  0  0  0  0  0999 V2000
   11.3215  -11.4312   -8.9513 C   0  0  0  0  0  0  0  0  0  0  0  0
   12.7252  -10.9524   -9.1838 C   0  0  1  0  0  0  0  0  0  0  0  0
   13.2651  -11.7711  -10.1834 O   0  0  0  0  0  0  0  0  0  0  0  0
   12.7837   -9.4880   -9.6340 C   0  0  2  0  0  0  0  0  0  0  0  0
   12.0794   -9.4831  -10.9361 N   0  0  0  0  0  0  0  0  0  0  0  0
   14.1790   -9.1098   -9.8769 C   0  0  0  0  0  0  0  0  0  0  0  0
   14.9334   -8.9046   -8.8712 O   0  0  0  0  0  0  0  0  0  0  0  0
   14.7904   -8.9466  -11.1447 N   0  0  0  0  0  0  0  0  0  0  0  0
   16.1153   -8.4268  -11.2496 C   0  0  1  0  0  0  0  0  0  0  0  0
   16.7270   -8.6412  -12.6127 C   0  0  0  0  0  0  0  0  0  0  0  0
   17.0357  -10.0558  -12.8876 C   0  0  0  0  0  0  0  0  0  0  0  0
   16.1193  -10.8374  -13.2138 O   0  0  0  0  0  0  0  0  0  0  0  0
   16.1461   -6.9367  -11.0335 C   0  0  0  0  0  0  0  0  0  0  0  0
   15.2105   -6.2724  -11.5253 O   0  0  0  0  0  0  0  0  0  0  0  0
   18.3242  -10.5364  -12.7914 O   0  0  0  0  0  0  0  0  0  0  0  0
   18.4717   -2.6118   -7.8512 N   0  0  0  0  0  0  0  0  0  0  0  0
   17.2633   -3.1039   -8.4201 C   0  0  0  0  0  0  0  0  0  0  0  0
   16.3211   -2.3429   -8.7289 O   0  0  0  0  0  0  0  0  0  0  0  0
   17.1637   -4.5689   -8.6346 C   0  0  0  0  0  0  0  0  0  0  0  0
   17.2283   -4.8901  -10.1333 C   0  0  2  0  0  0  0  0  0  0  0  0
   17.1824   -6.3130  -10.3093 N   0  0  0  0  0  0  0  0  0  0  0  0
   18.4378   -4.2781  -10.7279 C   0  0  0  0  0  0  0  0  0  0  0  0
   19.4515   -5.0297  -11.2650 O   0  0  0  0  0  0  0  0  0  0  0  0
   18.5756   -3.0130  -10.7591 O   0  0  0  0  0  0  0  0  0  0  0  0
  2  1  1  6
  3  2  1  0
  4  2  1  0
  4  6  1  0
  4  5  1  6
  6  7  2  0
  8  9  1  0
  8  6  1  0
  9 13  1  0
  9 10  1  6
 11 10  1  0
 11 15  1  0
 12 11  2  0
 13 14  2  0
 17 16  1  0
 17 18  2  0
 19 17  1  0
 20 19  1  1
 21 20  1  0
 21 13  1  0
 22 23  1  0
 22 20  1  0
 24 22  2  0
M  END
$$$$
