TDN.pdb
     RDKit          3D

 24 23  0  0  1  0  0  0  0  0999 V2000
   24.6634   -8.8141  -15.9518 C   0  0  0  0  0  0  0  0  0  0  0  0
   23.7953   -9.5557  -16.9265 C   0  0  1  0  0  0  0  0  0  0  0  0
   24.5549  -10.6340  -17.3965 O   0  0  0  0  0  0  0  0  0  0  0  0
   22.5030  -10.0789  -16.2885 C   0  0  2  0  0  0  0  0  0  0  0  0
   21.8388  -10.8254  -17.3808 N   0  0  0  0  0  0  0  0  0  0  0  0
   21.6440   -8.9459  -15.9320 C   0  0  0  0  0  0  0  0  0  0  0  0
   21.0452   -8.3232  -16.8683 O   0  0  0  0  0  0  0  0  0  0  0  0
   21.4037   -8.4609  -14.6224 N   0  0  0  0  0  0  0  0  0  0  0  0
   20.5226   -7.3591  -14.4072 C   0  0  1  0  0  0  0  0  0  0  0  0
   19.8506   -7.3962  -13.0562 C   0  0  0  0  0  0  0  0  0  0  0  0
   18.8261   -8.4506  -12.9532 C   0  0  0  0  0  0  0  0  0  0  0  0
   18.2960   -8.9021  -13.9887 O   0  0  0  0  0  0  0  0  0  0  0  0
   21.2569   -6.0449  -14.4465 C   0  0  0  0  0  0  0  0  0  0  0  0
   22.3056   -5.9603  -13.7744 O   0  0  0  0  0  0  0  0  0  0  0  0
   18.4389   -8.9516  -11.7286 O   0  0  0  0  0  0  0  0  0  0  0  0
   23.1621   -1.6293  -15.5322 N   0  0  0  0  0  0  0  0  0  0  0  0
   23.4876   -2.6942  -16.4188 C   0  0  0  0  0  0  0  0  0  0  0  0
   24.4167   -2.6010  -17.2495 O   0  0  0  0  0  0  0  0  0  0  0  0
   22.6739   -3.9311  -16.3184 C   0  0  0  0  0  0  0  0  0  0  0  0
   21.5319   -3.7334  -15.3133 C   0  0  2  0  0  0  0  0  0  0  0  0
   20.7865   -4.9542  -15.2059 N   0  0  0  0  0  0  0  0  0  0  0  0
   20.6935   -2.5845  -15.7233 C   0  0  0  0  0  0  0  0  0  0  0  0
   20.7985   -1.3518  -15.1314 O   0  0  0  0  0  0  0  0  0  0  0  0
   19.8343   -2.7086  -16.6545 O   0  0  0  0  0  0  0  0  0  0  0  0
  2  1  1  1
  3  2  1  0
  4  2  1  0
  4  6  1  0
  4  5  1  6
  6  7  2  0
  8  9  1  0
  8  6  1  0
  9 13  1  0
  9 10  1  1
 11 10  1  0
 11 15  1  0
 12 11  2  0
 13 14  2  0
 17 16  1  0
 17 18  2  0
 19 17  1  0
 20 19  1  6
 21 20  1  0
 21 13  1  0
 22 23  1  0
 22 20  1  0
 24 22  2  0
M  END
$$$$
