TDN.pdb
     RDKit          3D

 24 23  0  0  1  0  0  0  0  0999 V2000
   14.3348   -8.4584  -13.1170 C   0  0  0  0  0  0  0  0  0  0  0  0
   14.3728   -8.7971  -11.6550 C   0  0  1  0  0  0  0  0  0  0  0  0
   13.1987   -9.5092  -11.3803 O   0  0  0  0  0  0  0  0  0  0  0  0
   15.5895   -9.6499  -11.2768 C   0  0  2  0  0  0  0  0  0  0  0  0
   15.5166   -9.7469   -9.8014 N   0  0  0  0  0  0  0  0  0  0  0  0
   16.8164   -8.9244  -11.6189 C   0  0  0  0  0  0  0  0  0  0  0  0
   17.1957   -7.9820  -10.8503 O   0  0  0  0  0  0  0  0  0  0  0  0
   17.6449   -9.1696  -12.7421 N   0  0  0  0  0  0  0  0  0  0  0  0
   18.7897   -8.3547  -12.9908 C   0  0  1  0  0  0  0  0  0  0  0  0
   19.9766   -9.1415  -13.4910 C   0  0  0  0  0  0  0  0  0  0  0  0
   21.1767   -8.3087  -13.6863 C   0  0  0  0  0  0  0  0  0  0  0  0
   22.1685   -8.7811  -14.2781 O   0  0  0  0  0  0  0  0  0  0  0  0
   18.5190   -7.3278  -14.0586 C   0  0  0  0  0  0  0  0  0  0  0  0
   17.7882   -7.6761  -15.0090 O   0  0  0  0  0  0  0  0  0  0  0  0
   21.2264   -7.0103  -13.2257 O   0  0  0  0  0  0  0  0  0  0  0  0
   18.4887   -3.3492  -17.0504 N   0  0  0  0  0  0  0  0  0  0  0  0
   18.5133   -4.7187  -17.4378 C   0  0  0  0  0  0  0  0  0  0  0  0
   18.3049   -5.0749  -18.6175 O   0  0  0  0  0  0  0  0  0  0  0  0
   18.7987   -5.7169  -16.3775 C   0  0  0  0  0  0  0  0  0  0  0  0
   18.7839   -5.0440  -14.9990 C   0  0  2  0  0  0  0  0  0  0  0  0
   19.0636   -6.0290  -13.9944 N   0  0  0  0  0  0  0  0  0  0  0  0
   17.4883   -4.3605  -14.7861 C   0  0  0  0  0  0  0  0  0  0  0  0
   16.2977   -5.0403  -14.7507 O   0  0  0  0  0  0  0  0  0  0  0  0
   17.4397   -3.0985  -14.6264 O   0  0  0  0  0  0  0  0  0  0  0  0
  2  1  1  6
  3  2  1  0
  4  2  1  0
  4  6  1  0
  4  5  1  1
  6  7  2  0
  8  9  1  0
  8  6  1  0
  9 13  1  0
  9 10  1  6
 11 10  1  0
 11 15  1  0
 12 11  2  0
 13 14  2  0
 17 16  1  0
 17 18  2  0
 19 17  1  0
 20 19  1  6
 21 20  1  0
 21 13  1  0
 22 23  1  0
 22 20  1  0
 24 22  2  0
M  END
$$$$
