TDN.pdb
     RDKit          3D

 24 23  0  0  1  0  0  0  0  0999 V2000
   15.4323   -8.8681  -15.4900 C   0  0  0  0  0  0  0  0  0  0  0  0
   15.7839  -10.3075  -15.2484 C   0  0  1  0  0  0  0  0  0  0  0  0
   15.1036  -11.0523  -16.2196 O   0  0  0  0  0  0  0  0  0  0  0  0
   17.2895  -10.5751  -15.3592 C   0  0  2  0  0  0  0  0  0  0  0  0
   17.4280  -12.0057  -15.0044 N   0  0  0  0  0  0  0  0  0  0  0  0
   17.9984   -9.7902  -14.3444 C   0  0  0  0  0  0  0  0  0  0  0  0
   17.8116  -10.0786  -13.1177 O   0  0  0  0  0  0  0  0  0  0  0  0
   18.8925   -8.7191  -14.5924 N   0  0  0  0  0  0  0  0  0  0  0  0
   19.4639   -7.9857  -13.5098 C   0  0  1  0  0  0  0  0  0  0  0  0
   20.5865   -7.0741  -13.9422 C   0  0  0  0  0  0  0  0  0  0  0  0
   21.2376   -6.3888  -12.8116 C   0  0  0  0  0  0  0  0  0  0  0  0
   20.8534   -6.6152  -11.6462 O   0  0  0  0  0  0  0  0  0  0  0  0
   18.4520   -7.0822  -12.8557 C   0  0  0  0  0  0  0  0  0  0  0  0
   17.6144   -6.5340  -13.6017 O   0  0  0  0  0  0  0  0  0  0  0  0
   22.2690   -5.4972  -13.0162 O   0  0  0  0  0  0  0  0  0  0  0  0
   15.4681   -4.7200   -9.6311 N   0  0  0  0  0  0  0  0  0  0  0  0
   15.0259   -5.8306  -10.4039 C   0  0  0  0  0  0  0  0  0  0  0  0
   13.8140   -6.1127  -10.5211 O   0  0  0  0  0  0  0  0  0  0  0  0
   16.0686   -6.6485  -11.0715 C   0  0  0  0  0  0  0  0  0  0  0  0
   17.4545   -6.0340  -10.8367 C   0  0  2  0  0  0  0  0  0  0  0  0
   18.4452   -6.8607  -11.4634 N   0  0  0  0  0  0  0  0  0  0  0  0
   17.6887   -5.8595   -9.3856 C   0  0  0  0  0  0  0  0  0  0  0  0
   17.1106   -4.8450   -8.6663 O   0  0  0  0  0  0  0  0  0  0  0  0
   18.4475   -6.6604   -8.7506 O   0  0  0  0  0  0  0  0  0  0  0  0
  2  1  1  6
  3  2  1  0
  4  2  1  0
  4  6  1  0
  4  5  1  1
  6  7  2  0
  8  9  1  0
  8  6  1  0
  9 13  1  0
  9 10  1  6
 11 10  1  0
 11 15  1  0
 12 11  2  0
 13 14  2  0
 17 16  1  0
 17 18  2  0
 19 17  1  0
 20 19  1  1
 21 20  1  0
 21 13  1  0
 22 23  1  0
 22 20  1  0
 24 22  2  0
M  END
$$$$
