TDN.pdb
     RDKit          3D

 24 23  0  0  1  0  0  0  0  0999 V2000
   27.0535  -10.0976  -15.3876 C   0  0  0  0  0  0  0  0  0  0  0  0
   26.6458  -11.0797  -16.4472 C   0  0  1  0  0  0  0  0  0  0  0  0
   27.6537  -12.0504  -16.4998 O   0  0  0  0  0  0  0  0  0  0  0  0
   25.3019  -11.7526  -16.1445 C   0  0  2  0  0  0  0  0  0  0  0  0
   25.1505  -12.7559  -17.2225 N   0  0  0  0  0  0  0  0  0  0  0  0
   24.2233  -10.7707  -16.2905 C   0  0  0  0  0  0  0  0  0  0  0  0
   24.0083  -10.2760  -17.4445 O   0  0  0  0  0  0  0  0  0  0  0  0
   23.3737  -10.3049  -15.2565 N   0  0  0  0  0  0  0  0  0  0  0  0
   22.3880   -9.3075  -15.5215 C   0  0  1  0  0  0  0  0  0  0  0  0
   21.1872   -9.4085  -14.6127 C   0  0  0  0  0  0  0  0  0  0  0  0
   20.3858  -10.6219  -14.8526 C   0  0  0  0  0  0  0  0  0  0  0  0
   20.4341  -11.1858  -15.9647 O   0  0  0  0  0  0  0  0  0  0  0  0
   22.9305   -7.9194  -15.3054 C   0  0  0  0  0  0  0  0  0  0  0  0
   24.1700   -7.8025  -15.2119 O   0  0  0  0  0  0  0  0  0  0  0  0
   19.5789  -11.1500  -13.8675 O   0  0  0  0  0  0  0  0  0  0  0  0
   23.7311   -3.0445  -15.2366 N   0  0  0  0  0  0  0  0  0  0  0  0
   23.9476   -3.8074  -16.4187 C   0  0  0  0  0  0  0  0  0  0  0  0
   24.5893   -3.3523  -17.3899 O   0  0  0  0  0  0  0  0  0  0  0  0
   23.3768   -5.1767  -16.4544 C   0  0  0  0  0  0  0  0  0  0  0  0
   22.6024   -5.4614  -15.1611 C   0  0  2  0  0  0  0  0  0  0  0  0
   22.0822   -6.7973  -15.2115 N   0  0  0  0  0  0  0  0  0  0  0  0
   21.5459   -4.4421  -14.9719 C   0  0  0  0  0  0  0  0  0  0  0  0
   21.5869   -3.5235  -13.9542 O   0  0  0  0  0  0  0  0  0  0  0  0
   20.5497   -4.3866  -15.7625 O   0  0  0  0  0  0  0  0  0  0  0  0
  2  1  1  1
  3  2  1  0
  4  2  1  0
  4  6  1  0
  4  5  1  6
  6  7  2  0
  8  9  1  0
  8  6  1  0
  9 13  1  0
  9 10  1  1
 11 10  1  0
 11 15  1  0
 12 11  2  0
 13 14  2  0
 17 16  1  0
 17 18  2  0
 19 17  1  0
 20 19  1  6
 21 20  1  0
 21 13  1  0
 22 23  1  0
 22 20  1  0
 24 22  2  0
M  END
$$$$
