TDN.pdb
     RDKit          3D

 24 23  0  0  1  0  0  0  0  0999 V2000
   18.5926   -9.1681  -19.0405 C   0  0  0  0  0  0  0  0  0  0  0  0
   18.7887  -10.4051  -18.2130 C   0  0  1  0  0  0  0  0  0  0  0  0
   18.7668  -11.4869  -19.1019 O   0  0  0  0  0  0  0  0  0  0  0  0
   20.1162  -10.3993  -17.4459 C   0  0  2  0  0  0  0  0  0  0  0  0
   20.0984  -11.6694  -16.6856 N   0  0  0  0  0  0  0  0  0  0  0  0
   20.1138   -9.2973  -16.4793 C   0  0  0  0  0  0  0  0  0  0  0  0
   19.2041   -9.2772  -15.5879 O   0  0  0  0  0  0  0  0  0  0  0  0
   21.0418   -8.2274  -16.4316 N   0  0  0  0  0  0  0  0  0  0  0  0
   20.8695   -7.1586  -15.5019 C   0  0  1  0  0  0  0  0  0  0  0  0
   22.1290   -6.3554  -15.2862 C   0  0  0  0  0  0  0  0  0  0  0  0
   21.9974   -5.3594  -14.2079 C   0  0  0  0  0  0  0  0  0  0  0  0
   20.9184   -5.2550  -13.5899 O   0  0  0  0  0  0  0  0  0  0  0  0
   19.8452   -6.1645  -15.9821 C   0  0  0  0  0  0  0  0  0  0  0  0
   19.7691   -5.9782  -17.2142 O   0  0  0  0  0  0  0  0  0  0  0  0
   23.0485   -4.5357  -13.8656 O   0  0  0  0  0  0  0  0  0  0  0  0
   15.9429   -3.1368  -16.4911 N   0  0  0  0  0  0  0  0  0  0  0  0
   15.8379   -4.5227  -16.7989 C   0  0  0  0  0  0  0  0  0  0  0  0
   14.8605   -4.9880  -17.4234 O   0  0  0  0  0  0  0  0  0  0  0  0
   16.9438   -5.4022  -16.3456 C   0  0  0  0  0  0  0  0  0  0  0  0
   17.9730   -4.5906  -15.5485 C   0  0  2  0  0  0  0  0  0  0  0  0
   19.0065   -5.4713  -15.0857 N   0  0  0  0  0  0  0  0  0  0  0  0
   17.2999   -3.8681  -14.4458 C   0  0  0  0  0  0  0  0  0  0  0  0
   16.9504   -2.5453  -14.5415 O   0  0  0  0  0  0  0  0  0  0  0  0
   17.0203   -4.4637  -13.3560 O   0  0  0  0  0  0  0  0  0  0  0  0
  2  1  1  6
  3  2  1  0
  4  2  1  0
  4  6  1  0
  4  5  1  1
  6  7  2  0
  8  9  1  0
  8  6  1  0
  9 13  1  0
  9 10  1  6
 11 10  1  0
 11 15  1  0
 12 11  2  0
 13 14  2  0
 17 16  1  0
 17 18  2  0
 19 17  1  0
 20 19  1  1
 21 20  1  0
 21 13  1  0
 22 23  1  0
 22 20  1  0
 24 22  2  0
M  END
$$$$
