TDN.pdb
     RDKit          3D

 24 23  0  0  1  0  0  0  0  0999 V2000
   15.4430  -10.0187  -15.2499 C   0  0  0  0  0  0  0  0  0  0  0  0
   15.2473  -11.4726  -15.5686 C   0  0  1  0  0  0  0  0  0  0  0  0
   13.9202  -11.6125  -15.9927 O   0  0  0  0  0  0  0  0  0  0  0  0
   16.1919  -11.9691  -16.6694 C   0  0  2  0  0  0  0  0  0  0  0  0
   15.9258  -13.4235  -16.7434 N   0  0  0  0  0  0  0  0  0  0  0  0
   17.5805  -11.7884  -16.2360 C   0  0  0  0  0  0  0  0  0  0  0  0
   18.3661  -12.7896  -16.2911 O   0  0  0  0  0  0  0  0  0  0  0  0
   18.1536  -10.5861  -15.7520 N   0  0  0  0  0  0  0  0  0  0  0  0
   19.5587  -10.4940  -15.5205 C   0  0  1  0  0  0  0  0  0  0  0  0
   20.3816  -10.8715  -16.7282 C   0  0  0  0  0  0  0  0  0  0  0  0
   20.9565  -12.2250  -16.6312 C   0  0  0  0  0  0  0  0  0  0  0  0
   21.7413  -12.4990  -15.7006 O   0  0  0  0  0  0  0  0  0  0  0  0
   19.9750   -9.0864  -15.1839 C   0  0  0  0  0  0  0  0  0  0  0  0
   19.6512   -8.1904  -15.9907 O   0  0  0  0  0  0  0  0  0  0  0  0
   20.6430  -13.2008  -17.5532 O   0  0  0  0  0  0  0  0  0  0  0  0
   22.9434   -4.6841  -15.3467 N   0  0  0  0  0  0  0  0  0  0  0  0
   22.5626   -5.5785  -14.3068 C   0  0  0  0  0  0  0  0  0  0  0  0
   22.6477   -5.2628  -13.1005 O   0  0  0  0  0  0  0  0  0  0  0  0
   22.0560   -6.9126  -14.7134 C   0  0  0  0  0  0  0  0  0  0  0  0
   21.0602   -7.4406  -13.6727 C   0  0  2  0  0  0  0  0  0  0  0  0
   20.6986   -8.7867  -14.0117 N   0  0  0  0  0  0  0  0  0  0  0  0
   19.8908   -6.5368  -13.5907 C   0  0  0  0  0  0  0  0  0  0  0  0
   19.3089   -6.1970  -12.3962 O   0  0  0  0  0  0  0  0  0  0  0  0
   19.3812   -6.0388  -14.6456 O   0  0  0  0  0  0  0  0  0  0  0  0
  2  1  1  6
  3  2  1  0
  4  2  1  0
  4  6  1  0
  4  5  1  1
  6  7  2  0
  8  9  1  0
  8  6  1  0
  9 13  1  0
  9 10  1  6
 11 10  1  0
 11 15  1  0
 12 11  2  0
 13 14  2  0
 17 16  1  0
 17 18  2  0
 19 17  1  0
 20 19  1  6
 21 20  1  0
 21 13  1  0
 22 23  1  0
 22 20  1  0
 24 22  2  0
M  END
$$$$
