TDN.pdb
     RDKit          3D

 24 23  0  0  1  0  0  0  0  0999 V2000
   24.8558  -23.0417  -14.4335 C   0  0  0  0  0  0  0  0  0  0  0  0
   25.0145  -22.6469  -12.9938 C   0  0  1  0  0  0  0  0  0  0  0  0
   25.7647  -23.6594  -12.3833 O   0  0  0  0  0  0  0  0  0  0  0  0
   25.7337  -21.3035  -12.8247 C   0  0  2  0  0  0  0  0  0  0  0  0
   25.7864  -21.1053  -11.3586 N   0  0  0  0  0  0  0  0  0  0  0  0
   24.9067  -20.2348  -13.3928 C   0  0  0  0  0  0  0  0  0  0  0  0
   24.0331  -19.6850  -12.6464 O   0  0  0  0  0  0  0  0  0  0  0  0
   24.9812  -19.7371  -14.7175 N   0  0  0  0  0  0  0  0  0  0  0  0
   23.9973  -18.8266  -15.2067 C   0  0  1  0  0  0  0  0  0  0  0  0
   24.3136  -18.3012  -16.5859 C   0  0  0  0  0  0  0  0  0  0  0  0
   25.6495  -17.6850  -16.6733 C   0  0  0  0  0  0  0  0  0  0  0  0
   25.9545  -16.7558  -15.8983 O   0  0  0  0  0  0  0  0  0  0  0  0
   22.6480  -19.4831  -15.3347 C   0  0  0  0  0  0  0  0  0  0  0  0
   22.6013  -20.7205  -15.1752 O   0  0  0  0  0  0  0  0  0  0  0  0
   26.5749  -18.1168  -17.5993 O   0  0  0  0  0  0  0  0  0  0  0  0
   18.3251  -19.0290  -12.0244 N   0  0  0  0  0  0  0  0  0  0  0  0
   18.8765  -19.7099  -13.1462 C   0  0  0  0  0  0  0  0  0  0  0  0
   18.2824  -20.6605  -13.6989 O   0  0  0  0  0  0  0  0  0  0  0  0
   20.1963  -19.2438  -13.6391 C   0  0  0  0  0  0  0  0  0  0  0  0
   20.1904  -19.1615  -15.1710 C   0  0  2  0  0  0  0  0  0  0  0  0
   21.4851  -18.7396  -15.6220 N   0  0  0  0  0  0  0  0  0  0  0  0
   19.1053  -18.2618  -15.6228 C   0  0  0  0  0  0  0  0  0  0  0  0
   19.0633  -16.9342  -15.2811 O   0  0  0  0  0  0  0  0  0  0  0  0
   18.1616  -18.7014  -16.3554 O   0  0  0  0  0  0  0  0  0  0  0  0
  2  1  1  6
  3  2  1  0
  4  2  1  0
  4  6  1  0
  4  5  1  1
  6  7  2  0
  8  9  1  0
  8  6  1  0
  9 13  1  0
  9 10  1  6
 11 10  1  0
 11 15  1  0
 12 11  2  0
 13 14  2  0
 17 16  1  0
 17 18  2  0
 19 17  1  0
 20 19  1  1
 21 20  1  0
 21 13  1  0
 22 23  1  0
 22 20  1  0
 24 22  2  0
M  END
$$$$
