CMW.pdb
     RDKit          3D

 29 30  0  0  1  0  0  0  0  0999 V2000
    9.5442  -19.2032   18.4543 N   0  0  0  0  0  0  0  0  0  0  0  0
    8.6314  -18.9106   19.5345 C   0  0  1  0  0  0  0  0  0  0  0  0
    8.7797  -20.0024   20.5857 C   0  0  0  0  0  0  0  0  0  0  0  0
   10.4863  -20.1986   21.1307 S   0  0  0  0  0  0  0  0  0  0  0  0
    9.0614  -17.6451   20.1980 C   0  0  0  0  0  0  0  0  0  0  0  0
   10.2046  -17.2200   19.9189 O   0  0  0  0  0  0  0  0  0  0  0  0
    8.4528  -11.6933   20.0414 C   0  0  0  0  0  0  0  0  0  0  0  0
    7.1447  -12.7637   19.4977 S   0  0  0  0  0  0  0  0  0  0  0  0
    7.2878  -14.4778   19.9365 C   0  0  0  0  0  0  0  0  0  0  0  0
    7.6148  -14.7028   21.3794 C   0  0  0  0  0  0  0  0  0  0  0  0
    8.7009  -15.6335   21.6374 C   0  0  2  0  0  0  0  0  0  0  0  0
    8.2200  -16.9522   21.1026 N   0  0  0  0  0  0  0  0  0  0  0  0
    9.1182  -15.9521   22.9935 C   0  0  0  0  0  0  0  0  0  0  0  0
    8.6886  -17.0740   23.4829 O   0  0  0  0  0  0  0  0  0  0  0  0
    9.9262  -15.2408   23.8925 N   0  0  0  0  0  0  0  0  0  0  0  0
   10.2431  -15.7165   25.2547 C   0  0  1  0  0  0  0  0  0  0  0  0
    9.0466  -16.3180   25.8859 C   0  0  0  0  0  0  0  0  0  0  0  0
    7.8841  -15.4234   25.8910 C   0  0  0  0  0  0  0  0  0  0  0  0
    6.5618  -15.7851   25.6347 C   0  0  0  0  0  0  0  0  0  0  0  0
    5.7568  -14.7144   25.6819 N   0  0  0  0  0  0  0  0  0  0  0  0
    6.5216  -13.6560   25.9650 C   0  0  0  0  0  0  0  0  0  0  0  0
    6.1173  -12.3253   26.1346 C   0  0  0  0  0  0  0  0  0  0  0  0
    7.1067  -11.4237   26.4485 C   0  0  0  0  0  0  0  0  0  0  0  0
    8.4214  -11.7996   26.5900 C   0  0  0  0  0  0  0  0  0  0  0  0
    8.7978  -13.1042   26.4197 C   0  0  0  0  0  0  0  0  0  0  0  0
    7.8366  -14.0415   26.1030 C   0  0  0  0  0  0  0  0  0  0  0  0
   11.3987  -16.6105   25.2863 C   0  0  0  0  0  0  0  0  0  0  0  0
   11.9819  -16.9096   24.2103 O   0  0  0  0  0  0  0  0  0  0  0  0
   11.8657  -17.1244   26.4623 O   0  0  0  0  0  0  0  0  0  0  0  0
  2  1  1  6
  3  4  1  0
  3  2  1  0
  5  2  1  0
  6  5  2  0
  7  8  1  0
  8  9  1  0
  9 10  1  0
 11 12  1  0
 11 10  1  1
 12  5  1  0
 13 11  1  0
 14 13  2  0
 15 13  1  0
 16 17  1  6
 16 15  1  0
 17 18  1  0
 18 19  2  0
 19 20  1  0
 21 22  2  0
 21 20  1  0
 23 22  1  0
 24 23  2  0
 25 24  1  0
 25 26  2  0
 26 18  1  0
 26 21  1  0
 27 29  1  0
 27 16  1  0
 28 27  2  0
M  END
$$$$
