CMW.pdb
     RDKit          3D

 29 30  0  0  1  0  0  0  0  0999 V2000
   10.3428  -19.6915   19.2465 N   0  0  0  0  0  0  0  0  0  0  0  0
    9.2135  -19.4125   20.1023 C   0  0  1  0  0  0  0  0  0  0  0  0
    9.3420  -20.2773   21.3492 C   0  0  0  0  0  0  0  0  0  0  0  0
   10.8580  -19.9378   22.2626 S   0  0  0  0  0  0  0  0  0  0  0  0
    9.3056  -18.0001   20.5749 C   0  0  0  0  0  0  0  0  0  0  0  0
   10.4336  -17.4606   20.5294 O   0  0  0  0  0  0  0  0  0  0  0  0
    7.8080  -11.2311   20.2595 C   0  0  0  0  0  0  0  0  0  0  0  0
    7.9069  -13.0030   20.3154 S   0  0  0  0  0  0  0  0  0  0  0  0
    6.9508  -13.8119   21.5735 C   0  0  0  0  0  0  0  0  0  0  0  0
    7.0220  -15.3055   21.5143 C   0  0  0  0  0  0  0  0  0  0  0  0
    8.3619  -15.8673   21.4742 C   0  0  2  0  0  0  0  0  0  0  0  0
    8.1731  -17.2969   21.0539 N   0  0  0  0  0  0  0  0  0  0  0  0
    9.1738  -15.9740   22.6760 C   0  0  0  0  0  0  0  0  0  0  0  0
   10.2467  -15.2461   22.7163 O   0  0  0  0  0  0  0  0  0  0  0  0
    8.9975  -16.7469   23.8329 N   0  0  0  0  0  0  0  0  0  0  0  0
    9.8748  -16.6515   25.0177 C   0  0  1  0  0  0  0  0  0  0  0  0
    9.6995  -15.3438   25.6893 C   0  0  0  0  0  0  0  0  0  0  0  0
    8.2947  -14.9388   25.8086 C   0  0  0  0  0  0  0  0  0  0  0  0
    7.1828  -15.7759   25.7194 C   0  0  0  0  0  0  0  0  0  0  0  0
    6.0468  -15.0736   25.8339 N   0  0  0  0  0  0  0  0  0  0  0  0
    6.3881  -13.7922   25.9976 C   0  0  0  0  0  0  0  0  0  0  0  0
    5.5377  -12.6937   26.1794 C   0  0  0  0  0  0  0  0  0  0  0  0
    6.1476  -11.4735   26.3513 C   0  0  0  0  0  0  0  0  0  0  0  0
    7.5150  -11.3315   26.3462 C   0  0  0  0  0  0  0  0  0  0  0  0
    8.3298  -12.4161   26.1662 C   0  0  0  0  0  0  0  0  0  0  0  0
    7.7589  -13.6593   25.9892 C   0  0  0  0  0  0  0  0  0  0  0  0
    9.7086  -17.7762   25.9358 C   0  0  0  0  0  0  0  0  0  0  0  0
    8.8333  -18.6499   25.6953 O   0  0  0  0  0  0  0  0  0  0  0  0
   10.4897  -17.9045   27.0487 O   0  0  0  0  0  0  0  0  0  0  0  0
  2  1  1  6
  3  4  1  0
  3  2  1  0
  5  2  1  0
  6  5  2  0
  7  8  1  0
  8  9  1  0
  9 10  1  0
 11 12  1  0
 11 10  1  1
 12  5  1  0
 13 11  1  0
 14 13  2  0
 15 13  1  0
 16 17  1  1
 16 15  1  0
 17 18  1  0
 18 19  2  0
 19 20  1  0
 21 22  2  0
 21 20  1  0
 23 22  1  0
 24 23  2  0
 25 24  1  0
 25 26  2  0
 26 18  1  0
 26 21  1  0
 27 29  1  0
 27 16  1  0
 28 27  2  0
M  END
$$$$
