CMW.pdb
     RDKit          3D

 29 30  0  0  1  0  0  0  0  0999 V2000
   11.1664  -17.9113   17.5177 N   0  0  0  0  0  0  0  0  0  0  0  0
   10.4215  -18.4611   18.6261 C   0  0  1  0  0  0  0  0  0  0  0  0
   11.2586  -19.5674   19.2541 C   0  0  0  0  0  0  0  0  0  0  0  0
   12.8306  -18.9572   19.8900 S   0  0  0  0  0  0  0  0  0  0  0  0
   10.2789  -17.4115   19.6773 C   0  0  0  0  0  0  0  0  0  0  0  0
   11.0840  -16.4547   19.6344 O   0  0  0  0  0  0  0  0  0  0  0  0
    7.2718  -11.7085   20.9843 C   0  0  0  0  0  0  0  0  0  0  0  0
    7.8035  -13.3689   20.6485 S   0  0  0  0  0  0  0  0  0  0  0  0
    7.0597  -14.6528   21.6230 C   0  0  0  0  0  0  0  0  0  0  0  0
    7.5499  -16.0251   21.2825 C   0  0  0  0  0  0  0  0  0  0  0  0
    8.9757  -16.2430   21.4617 C   0  0  2  0  0  0  0  0  0  0  0  0
    9.2812  -17.4886   20.6798 N   0  0  0  0  0  0  0  0  0  0  0  0
    9.5394  -16.5216   22.7729 C   0  0  0  0  0  0  0  0  0  0  0  0
   10.1571  -17.6542   22.9087 O   0  0  0  0  0  0  0  0  0  0  0  0
    9.5337  -15.7609   23.9512 N   0  0  0  0  0  0  0  0  0  0  0  0
   10.0928  -16.2392   25.2322 C   0  0  1  0  0  0  0  0  0  0  0  0
    9.7783  -15.2888   26.3228 C   0  0  0  0  0  0  0  0  0  0  0  0
    8.3857  -14.8278   26.3045 C   0  0  0  0  0  0  0  0  0  0  0  0
    7.2485  -15.6346   26.2733 C   0  0  0  0  0  0  0  0  0  0  0  0
    6.1360  -14.8886   26.2228 N   0  0  0  0  0  0  0  0  0  0  0  0
    6.5174  -13.6081   26.2213 C   0  0  0  0  0  0  0  0  0  0  0  0
    5.7017  -12.4693   26.1972 C   0  0  0  0  0  0  0  0  0  0  0  0
    6.3483  -11.2563   26.2274 C   0  0  0  0  0  0  0  0  0  0  0  0
    7.7187  -11.1586   26.2787 C   0  0  0  0  0  0  0  0  0  0  0  0
    8.4994  -12.2822   26.3008 C   0  0  0  0  0  0  0  0  0  0  0  0
    7.8909  -13.5198   26.2709 C   0  0  0  0  0  0  0  0  0  0  0  0
    9.6869  -17.6066   25.5503 C   0  0  0  0  0  0  0  0  0  0  0  0
    8.7386  -18.1371   24.9127 O   0  0  0  0  0  0  0  0  0  0  0  0
   10.3209  -18.3264   26.5225 O   0  0  0  0  0  0  0  0  0  0  0  0
  2  1  1  6
  3  4  1  0
  3  2  1  0
  5  2  1  0
  6  5  2  0
  7  8  1  0
  8  9  1  0
  9 10  1  0
 11 12  1  0
 11 10  1  1
 12  5  1  0
 13 11  1  0
 14 13  2  0
 15 13  1  0
 16 17  1  1
 16 15  1  0
 17 18  1  0
 18 19  2  0
 19 20  1  0
 21 22  2  0
 21 20  1  0
 23 22  1  0
 24 23  2  0
 25 24  1  0
 25 26  2  0
 26 18  1  0
 26 21  1  0
 27 29  1  0
 27 16  1  0
 28 27  2  0
M  END
$$$$
