CMW.pdb
     RDKit          3D

 29 30  0  0  1  0  0  0  0  0999 V2000
    6.6519  -16.6094   17.7099 N   0  0  0  0  0  0  0  0  0  0  0  0
    7.6588  -15.9531   18.5106 C   0  0  1  0  0  0  0  0  0  0  0  0
    7.5220  -14.4509   18.3014 C   0  0  0  0  0  0  0  0  0  0  0  0
    8.5933  -13.5078   19.4017 S   0  0  0  0  0  0  0  0  0  0  0  0
    7.3581  -16.1927   19.9525 C   0  0  0  0  0  0  0  0  0  0  0  0
    6.2498  -15.7926   20.3734 O   0  0  0  0  0  0  0  0  0  0  0  0
    6.4795  -18.2392   26.5300 C   0  0  0  0  0  0  0  0  0  0  0  0
    6.5473  -17.7087   24.8369 S   0  0  0  0  0  0  0  0  0  0  0  0
    7.0213  -18.9314   23.6405 C   0  0  0  0  0  0  0  0  0  0  0  0
    7.2703  -18.3707   22.2755 C   0  0  0  0  0  0  0  0  0  0  0  0
    7.8771  -17.0504   22.2422 C   0  0  2  0  0  0  0  0  0  0  0  0
    8.2795  -16.8421   20.8102 N   0  0  0  0  0  0  0  0  0  0  0  0
    9.0956  -16.7589   22.9804 C   0  0  0  0  0  0  0  0  0  0  0  0
   10.1229  -17.5071   22.7204 O   0  0  0  0  0  0  0  0  0  0  0  0
    9.3651  -15.7840   23.9519 N   0  0  0  0  0  0  0  0  0  0  0  0
   10.6612  -15.6676   24.6513 C   0  0  1  0  0  0  0  0  0  0  0  0
   10.7302  -14.3970   25.4080 C   0  0  0  0  0  0  0  0  0  0  0  0
    9.5968  -14.2043   26.3192 C   0  0  0  0  0  0  0  0  0  0  0  0
    9.4585  -14.7533   27.5938 C   0  0  0  0  0  0  0  0  0  0  0  0
    8.2830  -14.4069   28.1371 N   0  0  0  0  0  0  0  0  0  0  0  0
    7.6457  -13.6408   27.2471 C   0  0  0  0  0  0  0  0  0  0  0  0
    6.3921  -13.0298   27.3818 C   0  0  0  0  0  0  0  0  0  0  0  0
    5.9699  -12.2656   26.3197 C   0  0  0  0  0  0  0  0  0  0  0  0
    6.7301  -12.1053   25.1855 C   0  0  0  0  0  0  0  0  0  0  0  0
    7.9519  -12.7108   25.0714 C   0  0  0  0  0  0  0  0  0  0  0  0
    8.4133  -13.4874   26.1139 C   0  0  0  0  0  0  0  0  0  0  0  0
   10.9595  -16.8299   25.4854 C   0  0  0  0  0  0  0  0  0  0  0  0
   10.0500  -17.6657   25.7339 O   0  0  0  0  0  0  0  0  0  0  0  0
   12.2093  -17.0336   25.9969 O   0  0  0  0  0  0  0  0  0  0  0  0
  2  1  1  6
  3  4  1  0
  3  2  1  0
  5  2  1  0
  6  5  2  0
  7  8  1  0
  8  9  1  0
  9 10  1  0
 11 12  1  0
 11 10  1  6
 12  5  1  0
 13 11  1  0
 14 13  2  0
 15 13  1  0
 16 17  1  1
 16 15  1  0
 17 18  1  0
 18 19  2  0
 19 20  1  0
 21 22  2  0
 21 20  1  0
 23 22  1  0
 24 23  2  0
 25 24  1  0
 25 26  2  0
 26 18  1  0
 26 21  1  0
 27 29  1  0
 27 16  1  0
 28 27  2  0
M  END
$$$$
