CMW.pdb
     RDKit          3D

 29 30  0  0  1  0  0  0  0  0999 V2000
   11.7415  -18.6431   17.7705 N   0  0  0  0  0  0  0  0  0  0  0  0
   10.5743  -19.0135   18.5361 C   0  0  1  0  0  0  0  0  0  0  0  0
   10.9428  -20.2044   19.4108 C   0  0  0  0  0  0  0  0  0  0  0  0
   12.2890  -19.8263   20.5476 S   0  0  0  0  0  0  0  0  0  0  0  0
   10.2444  -17.9034   19.4772 C   0  0  0  0  0  0  0  0  0  0  0  0
   11.2019  -17.2214   19.9056 O   0  0  0  0  0  0  0  0  0  0  0  0
    8.5947  -12.4661   20.3576 C   0  0  0  0  0  0  0  0  0  0  0  0
    7.1451  -13.4643   20.1237 S   0  0  0  0  0  0  0  0  0  0  0  0
    6.9163  -14.8096   21.2592 C   0  0  0  0  0  0  0  0  0  0  0  0
    7.2941  -16.1428   20.6942 C   0  0  0  0  0  0  0  0  0  0  0  0
    8.6876  -16.5212   20.8606 C   0  0  2  0  0  0  0  0  0  0  0  0
    8.9118  -17.6289   19.8713 N   0  0  0  0  0  0  0  0  0  0  0  0
    9.1752  -17.0820   22.1105 C   0  0  0  0  0  0  0  0  0  0  0  0
   10.4548  -17.2763   22.1977 O   0  0  0  0  0  0  0  0  0  0  0  0
    8.4874  -17.4614   23.2724 N   0  0  0  0  0  0  0  0  0  0  0  0
    8.5934  -16.7362   24.5551 C   0  0  1  0  0  0  0  0  0  0  0  0
    8.2472  -15.3083   24.3742 C   0  0  0  0  0  0  0  0  0  0  0  0
    8.3422  -14.5287   25.6132 C   0  0  0  0  0  0  0  0  0  0  0  0
    9.1906  -14.7876   26.6895 C   0  0  0  0  0  0  0  0  0  0  0  0
    8.9922  -13.9027   27.6765 N   0  0  0  0  0  0  0  0  0  0  0  0
    8.0319  -13.0665   27.2718 C   0  0  0  0  0  0  0  0  0  0  0  0
    7.5042  -11.9669   27.9613 C   0  0  0  0  0  0  0  0  0  0  0  0
    6.5319  -11.2476   27.3073 C   0  0  0  0  0  0  0  0  0  0  0  0
    6.0970  -11.5825   26.0469 C   0  0  0  0  0  0  0  0  0  0  0  0
    6.6236  -12.6607   25.3891 C   0  0  0  0  0  0  0  0  0  0  0  0
    7.6011  -13.4105   26.0097 C   0  0  0  0  0  0  0  0  0  0  0  0
    7.8223  -17.3654   25.6253 C   0  0  0  0  0  0  0  0  0  0  0  0
    8.2891  -17.3899   26.7952 O   0  0  0  0  0  0  0  0  0  0  0  0
    6.5989  -17.9227   25.3844 O   0  0  0  0  0  0  0  0  0  0  0  0
  2  1  1  6
  3  4  1  0
  3  2  1  0
  5  2  1  0
  6  5  2  0
  7  8  1  0
  8  9  1  0
  9 10  1  0
 11 12  1  0
 11 10  1  1
 12  5  1  0
 13 11  1  0
 14 13  2  0
 15 13  1  0
 16 17  1  6
 16 15  1  0
 17 18  1  0
 18 19  2  0
 19 20  1  0
 21 22  2  0
 21 20  1  0
 23 22  1  0
 24 23  2  0
 25 24  1  0
 25 26  2  0
 26 18  1  0
 26 21  1  0
 27 29  1  0
 27 16  1  0
 28 27  2  0
M  END
$$$$
