CMW.pdb
     RDKit          3D

 29 30  0  0  1  0  0  0  0  0999 V2000
    6.3567  -20.6833   21.7345 N   0  0  0  0  0  0  0  0  0  0  0  0
    5.7920  -19.3855   22.0219 C   0  0  1  0  0  0  0  0  0  0  0  0
    5.3937  -19.3599   23.4915 C   0  0  0  0  0  0  0  0  0  0  0  0
    6.8246  -19.3260   24.5866 S   0  0  0  0  0  0  0  0  0  0  0  0
    6.8585  -18.3529   21.8708 C   0  0  0  0  0  0  0  0  0  0  0  0
    8.0376  -18.7643   21.7932 O   0  0  0  0  0  0  0  0  0  0  0  0
    8.6228  -11.3677   18.8528 C   0  0  0  0  0  0  0  0  0  0  0  0
    7.5158  -12.6580   19.3645 S   0  0  0  0  0  0  0  0  0  0  0  0
    8.1700  -13.8650   20.4899 C   0  0  0  0  0  0  0  0  0  0  0  0
    7.1683  -14.8906   20.9191 C   0  0  0  0  0  0  0  0  0  0  0  0
    7.7029  -16.0079   21.6796 C   0  0  2  0  0  0  0  0  0  0  0  0
    6.5574  -16.9698   21.8170 N   0  0  0  0  0  0  0  0  0  0  0  0
    8.1670  -15.8392   23.0473 C   0  0  0  0  0  0  0  0  0  0  0  0
    7.5918  -14.9076   23.7430 O   0  0  0  0  0  0  0  0  0  0  0  0
    9.1550  -16.5249   23.7688 N   0  0  0  0  0  0  0  0  0  0  0  0
   10.0932  -15.8617   24.6975 C   0  0  1  0  0  0  0  0  0  0  0  0
    9.5662  -15.8969   26.0805 C   0  0  0  0  0  0  0  0  0  0  0  0
    8.2377  -15.2882   26.2088 C   0  0  0  0  0  0  0  0  0  0  0  0
    7.0132  -15.9485   26.1110 C   0  0  0  0  0  0  0  0  0  0  0  0
    5.9949  -15.0860   26.2377 N   0  0  0  0  0  0  0  0  0  0  0  0
    6.5239  -13.8724   26.4180 C   0  0  0  0  0  0  0  0  0  0  0  0
    5.8472  -12.6618   26.6169 C   0  0  0  0  0  0  0  0  0  0  0  0
    6.6326  -11.5489   26.8038 C   0  0  0  0  0  0  0  0  0  0  0  0
    8.0058  -11.6127   26.7973 C   0  0  0  0  0  0  0  0  0  0  0  0
    8.6494  -12.8042   26.6005 C   0  0  0  0  0  0  0  0  0  0  0  0
    7.8991  -13.9456   26.4081 C   0  0  0  0  0  0  0  0  0  0  0  0
   11.4510  -16.3942   24.6048 C   0  0  0  0  0  0  0  0  0  0  0  0
   11.6791  -17.3876   23.8643 O   0  0  0  0  0  0  0  0  0  0  0  0
   12.4825  -15.8312   25.3006 O   0  0  0  0  0  0  0  0  0  0  0  0
  2  1  1  1
  3  4  1  0
  3  2  1  0
  5  2  1  0
  6  5  2  0
  7  8  1  0
  8  9  1  0
  9 10  1  0
 11 12  1  0
 11 10  1  1
 12  5  1  0
 13 11  1  0
 14 13  2  0
 15 13  1  0
 16 17  1  1
 16 15  1  0
 17 18  1  0
 18 19  2  0
 19 20  1  0
 21 22  2  0
 21 20  1  0
 23 22  1  0
 24 23  2  0
 25 24  1  0
 25 26  2  0
 26 18  1  0
 26 21  1  0
 27 29  1  0
 27 16  1  0
 28 27  2  0
M  END
$$$$
