CMW.pdb
     RDKit          3D

 29 30  0  0  1  0  0  0  0  0999 V2000
    8.2199  -16.3590   18.0368 N   0  0  0  0  0  0  0  0  0  0  0  0
    8.0157  -17.0511   19.2877 C   0  0  1  0  0  0  0  0  0  0  0  0
    8.7279  -18.3946   19.2047 C   0  0  0  0  0  0  0  0  0  0  0  0
    8.3222  -19.4697   20.5930 S   0  0  0  0  0  0  0  0  0  0  0  0
    8.7018  -16.2927   20.3744 C   0  0  0  0  0  0  0  0  0  0  0  0
    9.8649  -15.8956   20.1400 O   0  0  0  0  0  0  0  0  0  0  0  0
    5.8838  -13.8140   26.1931 C   0  0  0  0  0  0  0  0  0  0  0  0
    6.9945  -12.7413   25.3166 S   0  0  0  0  0  0  0  0  0  0  0  0
    8.2892  -13.5258   24.3895 C   0  0  0  0  0  0  0  0  0  0  0  0
    7.7928  -14.5270   23.3941 C   0  0  0  0  0  0  0  0  0  0  0  0
    8.8208  -15.2043   22.6215 C   0  0  2  0  0  0  0  0  0  0  0  0
    8.0717  -16.0310   21.6158 N   0  0  0  0  0  0  0  0  0  0  0  0
    9.7238  -16.1621   23.2394 C   0  0  0  0  0  0  0  0  0  0  0  0
    9.8380  -17.3127   22.6513 O   0  0  0  0  0  0  0  0  0  0  0  0
   10.5163  -16.0598   24.3920 N   0  0  0  0  0  0  0  0  0  0  0  0
   11.5438  -17.0536   24.7648 C   0  0  1  0  0  0  0  0  0  0  0  0
   12.4016  -16.5302   25.8520 C   0  0  0  0  0  0  0  0  0  0  0  0
   11.7033  -16.4202   27.1374 C   0  0  0  0  0  0  0  0  0  0  0  0
   11.6275  -17.4034   28.1236 C   0  0  0  0  0  0  0  0  0  0  0  0
   10.8776  -16.9883   29.1542 N   0  0  0  0  0  0  0  0  0  0  0  0
   10.4594  -15.7522   28.8671 C   0  0  0  0  0  0  0  0  0  0  0  0
    9.6661  -14.9092   29.6565 C   0  0  0  0  0  0  0  0  0  0  0  0
    9.3958  -13.6653   29.1371 C   0  0  0  0  0  0  0  0  0  0  0  0
    9.8739  -13.2639   27.9122 C   0  0  0  0  0  0  0  0  0  0  0  0
   10.6467  -14.1015   27.1547 C   0  0  0  0  0  0  0  0  0  0  0  0
   10.9413  -15.3593   27.6382 C   0  0  0  0  0  0  0  0  0  0  0  0
   10.9753  -18.3615   25.0841 C   0  0  0  0  0  0  0  0  0  0  0  0
   11.7362  -19.3601   25.1903 O   0  0  0  0  0  0  0  0  0  0  0  0
    9.6331  -18.5231   25.2777 O   0  0  0  0  0  0  0  0  0  0  0  0
  2  1  1  6
  3  4  1  0
  3  2  1  0
  5  2  1  0
  6  5  2  0
  7  8  1  0
  8  9  1  0
  9 10  1  0
 11 12  1  0
 11 10  1  1
 12  5  1  0
 13 11  1  0
 14 13  2  0
 15 13  1  0
 16 17  1  1
 16 15  1  0
 17 18  1  0
 18 19  2  0
 19 20  1  0
 21 22  2  0
 21 20  1  0
 23 22  1  0
 24 23  2  0
 25 24  1  0
 25 26  2  0
 26 18  1  0
 26 21  1  0
 27 29  1  0
 27 16  1  0
 28 27  2  0
M  END
$$$$
