CMW.pdb
     RDKit          3D

 29 30  0  0  1  0  0  0  0  0999 V2000
    7.3024  -19.8646   19.6346 N   0  0  0  0  0  0  0  0  0  0  0  0
    6.8703  -18.9228   20.6405 C   0  0  1  0  0  0  0  0  0  0  0  0
    6.8296  -19.6481   21.9788 C   0  0  0  0  0  0  0  0  0  0  0  0
    8.4698  -20.1437   22.5374 S   0  0  0  0  0  0  0  0  0  0  0  0
    7.9097  -17.8616   20.7837 C   0  0  0  0  0  0  0  0  0  0  0  0
    9.0079  -18.0655   20.2199 O   0  0  0  0  0  0  0  0  0  0  0  0
    8.7018  -11.6686   19.7204 C   0  0  0  0  0  0  0  0  0  0  0  0
    7.4764  -12.7983   19.1082 S   0  0  0  0  0  0  0  0  0  0  0  0
    7.2986  -14.3297   19.9884 C   0  0  0  0  0  0  0  0  0  0  0  0
    8.0708  -14.3789   21.2693 C   0  0  0  0  0  0  0  0  0  0  0  0
    8.7518  -15.6336   21.5419 C   0  0  2  0  0  0  0  0  0  0  0  0
    7.6710  -16.6765   21.5218 N   0  0  0  0  0  0  0  0  0  0  0  0
    9.4241  -15.8697   22.8096 C   0  0  0  0  0  0  0  0  0  0  0  0
   10.4663  -15.1380   23.0572 O   0  0  0  0  0  0  0  0  0  0  0  0
    9.1374  -16.7745   23.8421 N   0  0  0  0  0  0  0  0  0  0  0  0
    9.8569  -16.7928   25.1322 C   0  0  1  0  0  0  0  0  0  0  0  0
    9.6545  -15.5181   25.8574 C   0  0  0  0  0  0  0  0  0  0  0  0
    8.2436  -15.1304   25.9626 C   0  0  0  0  0  0  0  0  0  0  0  0
    7.1415  -15.9690   25.7972 C   0  0  0  0  0  0  0  0  0  0  0  0
    5.9971  -15.2823   25.9214 N   0  0  0  0  0  0  0  0  0  0  0  0
    6.3231  -14.0099   26.1661 C   0  0  0  0  0  0  0  0  0  0  0  0
    5.4589  -12.9295   26.3875 C   0  0  0  0  0  0  0  0  0  0  0  0
    6.0537  -11.7167   26.6439 C   0  0  0  0  0  0  0  0  0  0  0  0
    7.4195  -11.5650   26.6826 C   0  0  0  0  0  0  0  0  0  0  0  0
    8.2479  -12.6318   26.4629 C   0  0  0  0  0  0  0  0  0  0  0  0
    7.6924  -13.8670   26.2011 C   0  0  0  0  0  0  0  0  0  0  0  0
    9.5228  -17.9577   25.9490 C   0  0  0  0  0  0  0  0  0  0  0  0
    8.6366  -18.7606   25.5523 O   0  0  0  0  0  0  0  0  0  0  0  0
   10.1583  -18.1989   27.1335 O   0  0  0  0  0  0  0  0  0  0  0  0
  2  1  1  6
  3  4  1  0
  3  2  1  0
  5  2  1  0
  6  5  2  0
  7  8  1  0
  8  9  1  0
  9 10  1  0
 11 12  1  0
 11 10  1  1
 12  5  1  0
 13 11  1  0
 14 13  2  0
 15 13  1  0
 16 17  1  1
 16 15  1  0
 17 18  1  0
 18 19  2  0
 19 20  1  0
 21 22  2  0
 21 20  1  0
 23 22  1  0
 24 23  2  0
 25 24  1  0
 25 26  2  0
 26 18  1  0
 26 21  1  0
 27 29  1  0
 27 16  1  0
 28 27  2  0
M  END
$$$$
