CMW.pdb
     RDKit          3D

 29 30  0  0  1  0  0  0  0  0999 V2000
    8.1972  -17.0546   19.3484 N   0  0  0  0  0  0  0  0  0  0  0  0
    8.0574  -17.5946   20.6805 C   0  0  1  0  0  0  0  0  0  0  0  0
    9.1707  -18.6110   20.8963 C   0  0  0  0  0  0  0  0  0  0  0  0
    8.9016  -20.1277   19.9608 S   0  0  0  0  0  0  0  0  0  0  0  0
    8.3036  -16.5046   21.6694 C   0  0  0  0  0  0  0  0  0  0  0  0
    9.0801  -15.5879   21.3196 O   0  0  0  0  0  0  0  0  0  0  0  0
    6.4525  -11.3601   26.4558 C   0  0  0  0  0  0  0  0  0  0  0  0
    6.4616  -12.6699   25.2571 S   0  0  0  0  0  0  0  0  0  0  0  0
    6.8681  -14.2909   25.8559 C   0  0  0  0  0  0  0  0  0  0  0  0
    6.8278  -15.3490   24.7985 C   0  0  0  0  0  0  0  0  0  0  0  0
    7.9052  -15.3015   23.8240 C   0  0  2  0  0  0  0  0  0  0  0  0
    7.6904  -16.5014   22.9463 N   0  0  0  0  0  0  0  0  0  0  0  0
    9.2967  -15.4244   24.2279 C   0  0  0  0  0  0  0  0  0  0  0  0
    9.9020  -14.3265   24.5609 O   0  0  0  0  0  0  0  0  0  0  0  0
   10.1247  -16.5523   24.3240 N   0  0  0  0  0  0  0  0  0  0  0  0
   11.5339  -16.4931   24.7636 C   0  0  1  0  0  0  0  0  0  0  0  0
   11.7866  -17.4870   25.8313 C   0  0  0  0  0  0  0  0  0  0  0  0
   10.9803  -17.2598   27.0356 C   0  0  0  0  0  0  0  0  0  0  0  0
   10.2889  -18.2289   27.7622 C   0  0  0  0  0  0  0  0  0  0  0  0
    9.6216  -17.6733   28.7834 N   0  0  0  0  0  0  0  0  0  0  0  0
    9.8604  -16.3592   28.7444 C   0  0  0  0  0  0  0  0  0  0  0  0
    9.3914  -15.3750   29.6243 C   0  0  0  0  0  0  0  0  0  0  0  0
    9.8073  -14.0882   29.3760 C   0  0  0  0  0  0  0  0  0  0  0  0
   10.6371  -13.7772   28.3250 C   0  0  0  0  0  0  0  0  0  0  0  0
   11.0845  -14.7520   27.4753 C   0  0  0  0  0  0  0  0  0  0  0  0
   10.6905  -16.0568   27.6879 C   0  0  0  0  0  0  0  0  0  0  0  0
   12.4774  -16.6149   23.6543 C   0  0  0  0  0  0  0  0  0  0  0  0
   13.7132  -16.5102   23.8760 O   0  0  0  0  0  0  0  0  0  0  0  0
   12.0467  -16.8477   22.3794 O   0  0  0  0  0  0  0  0  0  0  0  0
  2  1  1  6
  3  4  1  0
  3  2  1  0
  5  2  1  0
  6  5  2  0
  7  8  1  0
  8  9  1  0
  9 10  1  0
 11 12  1  0
 11 10  1  1
 12  5  1  0
 13 11  1  0
 14 13  2  0
 15 13  1  0
 16 17  1  1
 16 15  1  0
 17 18  1  0
 18 19  2  0
 19 20  1  0
 21 22  2  0
 21 20  1  0
 23 22  1  0
 24 23  2  0
 25 24  1  0
 25 26  2  0
 26 18  1  0
 26 21  1  0
 27 29  1  0
 27 16  1  0
 28 27  2  0
M  END
$$$$
