CMW.pdb
     RDKit          3D

 29 30  0  0  1  0  0  0  0  0999 V2000
    9.0322  -19.4747   20.3049 N   0  0  0  0  0  0  0  0  0  0  0  0
   10.0905  -18.7554   19.6355 C   0  0  1  0  0  0  0  0  0  0  0  0
    9.6830  -18.5633   18.1808 C   0  0  0  0  0  0  0  0  0  0  0  0
    7.9900  -17.9672   18.0188 S   0  0  0  0  0  0  0  0  0  0  0  0
   10.1827  -17.3843   20.2173 C   0  0  0  0  0  0  0  0  0  0  0  0
   11.2282  -16.7387   19.9813 O   0  0  0  0  0  0  0  0  0  0  0  0
    8.3267  -11.9163   19.4395 C   0  0  0  0  0  0  0  0  0  0  0  0
    6.9774  -12.9954   19.8486 S   0  0  0  0  0  0  0  0  0  0  0  0
    7.3945  -14.6784   20.2293 C   0  0  0  0  0  0  0  0  0  0  0  0
    8.0250  -14.8507   21.5755 C   0  0  0  0  0  0  0  0  0  0  0  0
    9.3443  -15.4607   21.5754 C   0  0  2  0  0  0  0  0  0  0  0  0
    9.1393  -16.8333   21.0009 N   0  0  0  0  0  0  0  0  0  0  0  0
   10.0590  -15.7178   22.8155 C   0  0  0  0  0  0  0  0  0  0  0  0
   10.8185  -14.7624   23.2547 O   0  0  0  0  0  0  0  0  0  0  0  0
   10.0733  -16.8486   23.6451 N   0  0  0  0  0  0  0  0  0  0  0  0
    9.8127  -16.7960   25.0982 C   0  0  1  0  0  0  0  0  0  0  0  0
    8.4589  -16.2590   25.3636 C   0  0  0  0  0  0  0  0  0  0  0  0
    8.4611  -15.1094   26.2749 C   0  0  0  0  0  0  0  0  0  0  0  0
    9.2387  -14.9672   27.4239 C   0  0  0  0  0  0  0  0  0  0  0  0
    8.9637  -13.8120   28.0457 N   0  0  0  0  0  0  0  0  0  0  0  0
    8.0224  -13.1908   27.3293 C   0  0  0  0  0  0  0  0  0  0  0  0
    7.4360  -11.9433   27.5801 C   0  0  0  0  0  0  0  0  0  0  0  0
    6.5009  -11.5155   26.6675 C   0  0  0  0  0  0  0  0  0  0  0  0
    6.1554  -12.2647   25.5678 C   0  0  0  0  0  0  0  0  0  0  0  0
    6.7383  -13.4815   25.3396 C   0  0  0  0  0  0  0  0  0  0  0  0
    7.6813  -13.9490   26.2313 C   0  0  0  0  0  0  0  0  0  0  0  0
   10.0433  -18.0783   25.7603 C   0  0  0  0  0  0  0  0  0  0  0  0
   10.0277  -19.1393   25.0812 O   0  0  0  0  0  0  0  0  0  0  0  0
   10.2834  -18.1500   27.1028 O   0  0  0  0  0  0  0  0  0  0  0  0
  2  1  1  1
  3  4  1  0
  3  2  1  0
  5  2  1  0
  6  5  2  0
  7  8  1  0
  8  9  1  0
  9 10  1  0
 11 12  1  0
 11 10  1  1
 12  5  1  0
 13 11  1  0
 14 13  2  0
 15 13  1  0
 16 17  1  6
 16 15  1  0
 17 18  1  0
 18 19  2  0
 19 20  1  0
 21 22  2  0
 21 20  1  0
 23 22  1  0
 24 23  2  0
 25 24  1  0
 25 26  2  0
 26 18  1  0
 26 21  1  0
 27 29  1  0
 27 16  1  0
 28 27  2  0
M  END
$$$$
