CMW.pdb
     RDKit          3D

 29 30  0  0  1  0  0  0  0  0999 V2000
    9.1907  -19.7551   19.5267 N   0  0  0  0  0  0  0  0  0  0  0  0
    8.1061  -18.9909   20.0972 C   0  0  1  0  0  0  0  0  0  0  0  0
    7.6278  -19.7138   21.3493 C   0  0  0  0  0  0  0  0  0  0  0  0
    7.3478  -21.4702   21.0591 S   0  0  0  0  0  0  0  0  0  0  0  0
    8.6371  -17.6765   20.5633 C   0  0  0  0  0  0  0  0  0  0  0  0
    9.7411  -17.3153   20.0984 O   0  0  0  0  0  0  0  0  0  0  0  0
    7.9446  -12.7396   18.1593 C   0  0  0  0  0  0  0  0  0  0  0  0
    8.5043  -12.6700   19.8428 S   0  0  0  0  0  0  0  0  0  0  0  0
    7.3492  -13.1924   21.0855 C   0  0  0  0  0  0  0  0  0  0  0  0
    7.1700  -14.6766   21.1524 C   0  0  0  0  0  0  0  0  0  0  0  0
    8.3280  -15.4271   21.6087 C   0  0  2  0  0  0  0  0  0  0  0  0
    7.9296  -16.8704   21.4885 N   0  0  0  0  0  0  0  0  0  0  0  0
    8.8058  -15.3225   22.9781 C   0  0  0  0  0  0  0  0  0  0  0  0
    8.0348  -14.6987   23.8142 O   0  0  0  0  0  0  0  0  0  0  0  0
    9.9869  -15.7898   23.5727 N   0  0  0  0  0  0  0  0  0  0  0  0
   10.2156  -15.7993   25.0322 C   0  0  1  0  0  0  0  0  0  0  0  0
    9.1047  -16.4882   25.7271 C   0  0  0  0  0  0  0  0  0  0  0  0
    7.8872  -15.6749   25.8190 C   0  0  0  0  0  0  0  0  0  0  0  0
    6.5885  -16.0962   25.5345 C   0  0  0  0  0  0  0  0  0  0  0  0
    5.7170  -15.0887   25.6835 N   0  0  0  0  0  0  0  0  0  0  0  0
    6.4151  -14.0138   26.0610 C   0  0  0  0  0  0  0  0  0  0  0  0
    5.9279  -12.7333   26.3545 C   0  0  0  0  0  0  0  0  0  0  0  0
    6.8603  -11.8024   26.7475 C   0  0  0  0  0  0  0  0  0  0  0  0
    8.1977  -12.1040   26.8492 C   0  0  0  0  0  0  0  0  0  0  0  0
    8.6553  -13.3602   26.5575 C   0  0  0  0  0  0  0  0  0  0  0  0
    7.7532  -14.3245   26.1583 C   0  0  0  0  0  0  0  0  0  0  0  0
   11.5226  -16.3427   25.3958 C   0  0  0  0  0  0  0  0  0  0  0  0
   11.8485  -16.4157   26.6106 O   0  0  0  0  0  0  0  0  0  0  0  0
   12.3980  -16.7812   24.4437 O   0  0  0  0  0  0  0  0  0  0  0  0
  2  1  1  1
  3  4  1  0
  3  2  1  0
  5  2  1  0
  6  5  2  0
  7  8  1  0
  8  9  1  0
  9 10  1  0
 11 12  1  0
 11 10  1  1
 12  5  1  0
 13 11  1  0
 14 13  2  0
 15 13  1  0
 16 17  1  1
 16 15  1  0
 17 18  1  0
 18 19  2  0
 19 20  1  0
 21 22  2  0
 21 20  1  0
 23 22  1  0
 24 23  2  0
 25 24  1  0
 25 26  2  0
 26 18  1  0
 26 21  1  0
 27 29  1  0
 27 16  1  0
 28 27  2  0
M  END
$$$$
