CMW.pdb
     RDKit          3D

 29 30  0  0  1  0  0  0  0  0999 V2000
    6.8501  -20.4316   21.0663 N   0  0  0  0  0  0  0  0  0  0  0  0
    6.7672  -19.3865   22.0595 C   0  0  1  0  0  0  0  0  0  0  0  0
    7.2231  -19.9656   23.3922 C   0  0  0  0  0  0  0  0  0  0  0  0
    5.8644  -20.1347   24.5640 S   0  0  0  0  0  0  0  0  0  0  0  0
    7.7546  -18.3206   21.7194 C   0  0  0  0  0  0  0  0  0  0  0  0
    8.8420  -18.6933   21.2253 O   0  0  0  0  0  0  0  0  0  0  0  0
    6.8070  -12.5659   18.5340 C   0  0  0  0  0  0  0  0  0  0  0  0
    7.7746  -12.2800   19.9951 S   0  0  0  0  0  0  0  0  0  0  0  0
    8.6965  -13.6626   20.6195 C   0  0  0  0  0  0  0  0  0  0  0  0
    7.8368  -14.7870   21.1055 C   0  0  0  0  0  0  0  0  0  0  0  0
    8.5508  -15.9544   21.5953 C   0  0  2  0  0  0  0  0  0  0  0  0
    7.4802  -16.9490   21.9428 N   0  0  0  0  0  0  0  0  0  0  0  0
    9.3601  -15.8951   22.8020 C   0  0  0  0  0  0  0  0  0  0  0  0
   10.4254  -15.1568   22.7489 O   0  0  0  0  0  0  0  0  0  0  0  0
    9.1884  -16.5126   24.0494 N   0  0  0  0  0  0  0  0  0  0  0  0
   10.0974  -16.3017   25.1947 C   0  0  1  0  0  0  0  0  0  0  0  0
    9.3261  -16.1631   26.4507 C   0  0  0  0  0  0  0  0  0  0  0  0
    8.0501  -15.4618   26.2715 C   0  0  0  0  0  0  0  0  0  0  0  0
    6.8219  -16.0465   25.9635 C   0  0  0  0  0  0  0  0  0  0  0  0
    5.8692  -15.1128   25.8317 N   0  0  0  0  0  0  0  0  0  0  0  0
    6.4446  -13.9264   26.0476 C   0  0  0  0  0  0  0  0  0  0  0  0
    5.8383  -12.6634   26.0363 C   0  0  0  0  0  0  0  0  0  0  0  0
    6.6550  -11.5935   26.3166 C   0  0  0  0  0  0  0  0  0  0  0  0
    7.9929  -11.7467   26.5934 C   0  0  0  0  0  0  0  0  0  0  0  0
    8.5679  -12.9884   26.5990 C   0  0  0  0  0  0  0  0  0  0  0  0
    7.7843  -14.0894   26.3221 C   0  0  0  0  0  0  0  0  0  0  0  0
   11.1354  -17.3261   25.2883 C   0  0  0  0  0  0  0  0  0  0  0  0
   11.0481  -18.3649   24.5808 O   0  0  0  0  0  0  0  0  0  0  0  0
   12.2053  -17.1771   26.1239 O   0  0  0  0  0  0  0  0  0  0  0  0
  2  1  1  6
  3  4  1  0
  3  2  1  0
  5  2  1  0
  6  5  2  0
  7  8  1  0
  8  9  1  0
  9 10  1  0
 11 12  1  0
 11 10  1  1
 12  5  1  0
 13 11  1  0
 14 13  2  0
 15 13  1  0
 16 17  1  1
 16 15  1  0
 17 18  1  0
 18 19  2  0
 19 20  1  0
 21 22  2  0
 21 20  1  0
 23 22  1  0
 24 23  2  0
 25 24  1  0
 25 26  2  0
 26 18  1  0
 26 21  1  0
 27 29  1  0
 27 16  1  0
 28 27  2  0
M  END
$$$$
