CMW.pdb
     RDKit          3D

 29 30  0  0  1  0  0  0  0  0999 V2000
    6.3594  -20.8813   21.8132 N   0  0  0  0  0  0  0  0  0  0  0  0
    6.2241  -19.6796   22.6027 C   0  0  1  0  0  0  0  0  0  0  0  0
    6.4601  -20.0453   24.0620 C   0  0  0  0  0  0  0  0  0  0  0  0
    6.0337  -18.6987   25.1812 S   0  0  0  0  0  0  0  0  0  0  0  0
    7.3217  -18.7374   22.2362 C   0  0  0  0  0  0  0  0  0  0  0  0
    8.4432  -19.2395   22.0003 O   0  0  0  0  0  0  0  0  0  0  0  0
    6.4565  -12.1813   20.5572 C   0  0  0  0  0  0  0  0  0  0  0  0
    7.6032  -13.0455   19.5128 S   0  0  0  0  0  0  0  0  0  0  0  0
    8.4591  -14.4199   20.2406 C   0  0  0  0  0  0  0  0  0  0  0  0
    7.5651  -15.3509   20.9978 C   0  0  0  0  0  0  0  0  0  0  0  0
    8.2246  -16.4920   21.6107 C   0  0  2  0  0  0  0  0  0  0  0  0
    7.1109  -17.3389   22.1572 N   0  0  0  0  0  0  0  0  0  0  0  0
    9.1143  -16.3298   22.7494 C   0  0  0  0  0  0  0  0  0  0  0  0
   10.1580  -15.5814   22.5666 O   0  0  0  0  0  0  0  0  0  0  0  0
    9.0424  -16.8544   24.0481 N   0  0  0  0  0  0  0  0  0  0  0  0
   10.0272  -16.5484   25.1059 C   0  0  1  0  0  0  0  0  0  0  0  0
    9.8525  -15.1610   25.5920 C   0  0  0  0  0  0  0  0  0  0  0  0
    8.4466  -14.7873   25.7814 C   0  0  0  0  0  0  0  0  0  0  0  0
    7.3462  -15.6400   25.6964 C   0  0  0  0  0  0  0  0  0  0  0  0
    6.2039  -14.9643   25.8842 N   0  0  0  0  0  0  0  0  0  0  0  0
    6.5298  -13.6853   26.0920 C   0  0  0  0  0  0  0  0  0  0  0  0
    5.6687  -12.6116   26.3541 C   0  0  0  0  0  0  0  0  0  0  0  0
    6.2642  -11.3891   26.5574 C   0  0  0  0  0  0  0  0  0  0  0  0
    7.6279  -11.2221   26.5078 C   0  0  0  0  0  0  0  0  0  0  0  0
    8.4532  -12.2826   26.2495 C   0  0  0  0  0  0  0  0  0  0  0  0
    7.8968  -13.5270   26.0386 C   0  0  0  0  0  0  0  0  0  0  0  0
   10.0115  -17.5257   26.1923 C   0  0  0  0  0  0  0  0  0  0  0  0
    9.1515  -18.4464   26.1868 O   0  0  0  0  0  0  0  0  0  0  0  0
   10.9169  -17.4660   27.2130 O   0  0  0  0  0  0  0  0  0  0  0  0
  2  1  1  6
  3  4  1  0
  3  2  1  0
  5  2  1  0
  6  5  2  0
  7  8  1  0
  8  9  1  0
  9 10  1  0
 11 12  1  0
 11 10  1  1
 12  5  1  0
 13 11  1  0
 14 13  2  0
 15 13  1  0
 16 17  1  1
 16 15  1  0
 17 18  1  0
 18 19  2  0
 19 20  1  0
 21 22  2  0
 21 20  1  0
 23 22  1  0
 24 23  2  0
 25 24  1  0
 25 26  2  0
 26 18  1  0
 26 21  1  0
 27 29  1  0
 27 16  1  0
 28 27  2  0
M  END
$$$$
