CMW.pdb
     RDKit          3D

 29 30  0  0  1  0  0  0  0  0999 V2000
    7.7098  -20.6937   20.9805 N   0  0  0  0  0  0  0  0  0  0  0  0
    7.2261  -19.5452   21.7104 C   0  0  1  0  0  0  0  0  0  0  0  0
    6.9456  -19.9808   23.1424 C   0  0  0  0  0  0  0  0  0  0  0  0
    8.4578  -20.2079   24.0959 S   0  0  0  0  0  0  0  0  0  0  0  0
    8.3213  -18.5355   21.7988 C   0  0  0  0  0  0  0  0  0  0  0  0
    9.4793  -18.9327   21.5403 O   0  0  0  0  0  0  0  0  0  0  0  0
    7.9304  -11.6441   20.6756 C   0  0  0  0  0  0  0  0  0  0  0  0
    6.8984  -12.8657   21.4471 S   0  0  0  0  0  0  0  0  0  0  0  0
    7.7293  -14.1942   22.2815 C   0  0  0  0  0  0  0  0  0  0  0  0
    8.5747  -15.0353   21.3774 C   0  0  0  0  0  0  0  0  0  0  0  0
    9.1871  -16.1990   21.9965 C   0  0  2  0  0  0  0  0  0  0  0  0
    8.0689  -17.1887   22.1579 N   0  0  0  0  0  0  0  0  0  0  0  0
    9.7701  -16.1294   23.3269 C   0  0  0  0  0  0  0  0  0  0  0  0
   10.8599  -15.4359   23.4458 O   0  0  0  0  0  0  0  0  0  0  0  0
    9.3510  -16.6956   24.5396 N   0  0  0  0  0  0  0  0  0  0  0  0
   10.1537  -16.6523   25.7791 C   0  0  1  0  0  0  0  0  0  0  0  0
    9.3303  -16.1780   26.9143 C   0  0  0  0  0  0  0  0  0  0  0  0
    8.0405  -15.6164   26.4983 C   0  0  0  0  0  0  0  0  0  0  0  0
    6.9289  -16.3355   26.0597 C   0  0  0  0  0  0  0  0  0  0  0  0
    5.9299  -15.5087   25.7200 N   0  0  0  0  0  0  0  0  0  0  0  0
    6.3607  -14.2610   25.9269 C   0  0  0  0  0  0  0  0  0  0  0  0
    5.6560  -13.0659   25.7316 C   0  0  0  0  0  0  0  0  0  0  0  0
    6.3246  -11.9064   26.0459 C   0  0  0  0  0  0  0  0  0  0  0  0
    7.6129  -11.9116   26.5257 C   0  0  0  0  0  0  0  0  0  0  0  0
    8.2859  -13.0889   26.7092 C   0  0  0  0  0  0  0  0  0  0  0  0
    7.6521  -14.2758   26.4053 C   0  0  0  0  0  0  0  0  0  0  0  0
   10.8196  -17.9213   26.0656 C   0  0  0  0  0  0  0  0  0  0  0  0
   10.5666  -18.9297   25.3539 O   0  0  0  0  0  0  0  0  0  0  0  0
   11.7186  -18.0355   27.0872 O   0  0  0  0  0  0  0  0  0  0  0  0
  2  1  1  6
  3  4  1  0
  3  2  1  0
  5  2  1  0
  6  5  2  0
  7  8  1  0
  8  9  1  0
  9 10  1  0
 11 12  1  0
 11 10  1  1
 12  5  1  0
 13 11  1  0
 14 13  2  0
 15 13  1  0
 16 17  1  1
 16 15  1  0
 17 18  1  0
 18 19  2  0
 19 20  1  0
 21 22  2  0
 21 20  1  0
 23 22  1  0
 24 23  2  0
 25 24  1  0
 25 26  2  0
 26 18  1  0
 26 21  1  0
 27 29  1  0
 27 16  1  0
 28 27  2  0
M  END
$$$$
