RIF.pdb
     RDKit          3D

 31 31  0  0  1  0  0  0  0  0999 V2000
   31.0528  -26.2241  -17.5700 N   0  0  0  0  0  0  0  0  0  0  0  0
   29.8256  -26.6843  -16.9613 C   0  0  0  0  0  0  0  0  0  0  0  0
   29.8409  -27.6771  -16.1604 N   0  0  0  0  0  0  0  0  0  0  0  0
   28.5942  -26.0338  -17.2552 N   0  0  0  0  0  0  0  0  0  0  0  0
   28.5513  -24.9095  -18.1539 C   0  0  0  0  0  0  0  0  0  0  0  0
   28.4319  -23.6106  -17.4107 C   0  0  0  0  0  0  0  0  0  0  0  0
   27.5739  -23.6687  -16.1801 C   0  0  0  0  0  0  0  0  0  0  0  0
   26.7219  -22.4433  -16.1171 C   0  0  2  0  0  0  0  0  0  0  0  0
   27.5419  -21.2806  -15.9611 N   0  0  0  0  0  0  0  0  0  0  0  0
   25.7541  -22.5071  -14.9763 C   0  0  0  0  0  0  0  0  0  0  0  0
   24.8270  -23.3656  -14.9825 O   0  0  0  0  0  0  0  0  0  0  0  0
   28.9933  -27.9972  -15.6580 C   0  0  0  0  0  0  0  0  0  0  0  0
   25.3331  -20.8828   -8.9710 C   0  0  0  0  0  0  0  0  0  0  0  0
   24.6347  -21.1496  -10.2847 C   0  0  2  0  0  0  0  0  0  0  0  0
   25.5193  -21.2415  -11.4675 C   0  0  0  0  0  0  0  0  0  0  0  0
   26.2067  -19.8539  -11.5733 C   0  0  2  0  0  0  0  0  0  0  0  0
   24.9305  -21.4891  -12.7905 N   0  0  0  0  0  0  0  0  0  0  0  0
   25.8556  -21.6217  -13.8885 C   0  0  0  0  0  0  0  0  0  0  0  0
   23.6277  -20.8961  -13.1121 O   0  0  0  0  0  0  0  0  0  0  0  0
   23.5730  -19.8552  -13.8031 N   0  0  0  0  0  0  0  0  0  0  0  0
   22.4023  -21.4303  -12.6900 C   0  0  1  0  0  0  0  0  0  0  0  0
   21.1537  -21.2191  -13.4410 C   0  0  0  0  0  0  0  0  0  0  0  0
   20.6817  -22.4371  -14.1407 C   0  0  0  0  0  0  0  0  0  0  0  0
   19.4167  -22.2155  -14.8766 C   0  0  0  0  0  0  0  0  0  0  0  0
   19.3725  -21.5738  -16.1083 C   0  0  0  0  0  0  0  0  0  0  0  0
   18.2175  -21.3619  -16.7987 C   0  0  0  0  0  0  0  0  0  0  0  0
   17.0081  -21.8034  -16.2562 C   0  0  0  0  0  0  0  0  0  0  0  0
   17.0183  -22.4426  -15.0368 C   0  0  0  0  0  0  0  0  0  0  0  0
   18.2232  -22.6469  -14.3507 C   0  0  0  0  0  0  0  0  0  0  0  0
   20.0912  -20.6620  -12.5181 O   0  0  0  0  0  0  0  0  0  0  0  0
   19.1085  -20.0455  -12.9785 O   0  0  0  0  0  0  0  0  0  0  0  0
  2  1  1  0
  2  3  2  0
  4  2  1  0
  5  4  1  0
  6  5  1  0
  7  6  1  0
  8  7  1  0
  8  9  1  1
 10 11  2  0
 10  8  1  0
 13 14  1  0
 13 12  1  0
 14 15  1  6
 16 17  1  6
 16 14  1  0
 17 10  1  0
 18 16  1  0
 19 18  2  0
 20 18  1  0
 21 20  1  0
 21 22  1  1
 22 23  1  0
 23 24  2  0
 24 25  1  0
 26 25  2  0
 27 26  1  0
 28 27  2  0
 28 23  1  0
 29 21  1  0
 29 31  1  0
 30 29  2  0
M  END
$$$$
