RIF.pdb
     RDKit          3D

 31 31  0  0  1  0  0  0  0  0999 V2000
   29.3209  -18.6924  -18.4283 N   0  0  0  0  0  0  0  0  0  0  0  0
   28.2315  -18.0072  -19.0855 C   0  0  0  0  0  0  0  0  0  0  0  0
   28.4272  -16.8733  -19.6363 N   0  0  0  0  0  0  0  0  0  0  0  0
   26.9347  -18.5930  -19.1183 N   0  0  0  0  0  0  0  0  0  0  0  0
   26.5325  -19.5480  -18.1185 C   0  0  0  0  0  0  0  0  0  0  0  0
   26.3500  -20.9186  -18.7033 C   0  0  0  0  0  0  0  0  0  0  0  0
   25.8097  -21.9418  -17.7467 C   0  0  0  0  0  0  0  0  0  0  0  0
   26.4856  -21.7829  -16.4241 C   0  0  2  0  0  0  0  0  0  0  0  0
   27.5497  -22.7317  -16.2975 N   0  0  0  0  0  0  0  0  0  0  0  0
   25.5263  -21.9806  -15.2915 C   0  0  0  0  0  0  0  0  0  0  0  0
   24.4606  -22.6344  -15.4739 O   0  0  0  0  0  0  0  0  0  0  0  0
   27.6737  -16.3569  -20.1251 C   0  0  0  0  0  0  0  0  0  0  0  0
   25.3823  -20.9044   -9.0630 C   0  0  0  0  0  0  0  0  0  0  0  0
   24.6666  -21.2112  -10.3585 C   0  0  2  0  0  0  0  0  0  0  0  0
   25.5103  -21.1780  -11.5740 C   0  0  0  0  0  0  0  0  0  0  0  0
   26.0645  -19.7302  -11.6481 C   0  0  2  0  0  0  0  0  0  0  0  0
   24.8964  -21.4305  -12.8845 N   0  0  0  0  0  0  0  0  0  0  0  0
   25.7887  -21.4469  -14.0171 C   0  0  0  0  0  0  0  0  0  0  0  0
   23.5376  -20.9401  -13.1405 O   0  0  0  0  0  0  0  0  0  0  0  0
   23.3621  -19.7527  -13.4915 N   0  0  0  0  0  0  0  0  0  0  0  0
   22.3872  -21.7318  -13.0190 C   0  0  1  0  0  0  0  0  0  0  0  0
   21.0357  -21.1917  -13.2414 C   0  0  0  0  0  0  0  0  0  0  0  0
   20.0669  -22.2160  -13.6976 C   0  0  0  0  0  0  0  0  0  0  0  0
   18.7228  -21.6521  -13.9551 C   0  0  0  0  0  0  0  0  0  0  0  0
   17.7940  -21.4448  -12.9426 C   0  0  0  0  0  0  0  0  0  0  0  0
   16.5533  -20.9270  -13.1622 C   0  0  0  0  0  0  0  0  0  0  0  0
   16.1785  -20.5830  -14.4634 C   0  0  0  0  0  0  0  0  0  0  0  0
   17.0764  -20.7766  -15.4889 C   0  0  0  0  0  0  0  0  0  0  0  0
   18.3464  -21.3105  -15.2313 C   0  0  0  0  0  0  0  0  0  0  0  0
   20.5541  -20.4904  -11.9896 O   0  0  0  0  0  0  0  0  0  0  0  0
   20.6312  -21.0507  -10.8770 O   0  0  0  0  0  0  0  0  0  0  0  0
  2  1  1  0
  2  3  2  0
  4  2  1  0
  5  4  1  0
  6  5  1  0
  7  6  1  0
  8  7  1  0
  8  9  1  1
 10 11  2  0
 10  8  1  0
 13 14  1  0
 13 12  1  0
 14 15  1  6
 16 17  1  6
 16 14  1  0
 17 10  1  0
 18 16  1  0
 19 18  2  0
 20 18  1  0
 21 20  1  0
 21 22  1  1
 22 23  1  0
 23 24  2  0
 24 25  1  0
 26 25  2  0
 27 26  1  0
 28 27  2  0
 28 23  1  0
 29 21  1  0
 29 31  1  0
 30 29  2  0
M  END
$$$$
