RIF.pdb
     RDKit          3D

 31 31  0  0  1  0  0  0  0  0999 V2000
   28.0646  -19.5161  -21.4517 N   0  0  0  0  0  0  0  0  0  0  0  0
   27.0660  -18.5277  -21.1137 C   0  0  0  0  0  0  0  0  0  0  0  0
   26.4890  -17.8593  -22.0343 N   0  0  0  0  0  0  0  0  0  0  0  0
   26.7243  -18.2936  -19.7519 N   0  0  0  0  0  0  0  0  0  0  0  0
   27.3005  -19.0910  -18.7004 C   0  0  0  0  0  0  0  0  0  0  0  0
   26.9290  -20.5392  -18.8366 C   0  0  0  0  0  0  0  0  0  0  0  0
   25.9754  -21.0430  -17.7923 C   0  0  0  0  0  0  0  0  0  0  0  0
   26.7307  -21.3342  -16.5369 C   0  0  2  0  0  0  0  0  0  0  0  0
   27.7278  -22.3314  -16.7820 N   0  0  0  0  0  0  0  0  0  0  0  0
   25.8214  -21.8187  -15.4504 C   0  0  0  0  0  0  0  0  0  0  0  0
   25.1544  -22.8795  -15.6119 O   0  0  0  0  0  0  0  0  0  0  0  0
   25.8115  -17.1030  -21.8287 C   0  0  0  0  0  0  0  0  0  0  0  0
   25.1781  -21.3422   -9.2745 C   0  0  0  0  0  0  0  0  0  0  0  0
   24.5226  -21.5606  -10.6189 C   0  0  2  0  0  0  0  0  0  0  0  0
   25.3639  -21.2452  -11.7949 C   0  0  0  0  0  0  0  0  0  0  0  0
   25.6847  -19.7314  -11.6744 C   0  0  2  0  0  0  0  0  0  0  0  0
   24.8117  -21.4228  -13.1446 N   0  0  0  0  0  0  0  0  0  0  0  0
   25.6919  -21.1095  -14.2428 C   0  0  0  0  0  0  0  0  0  0  0  0
   23.3843  -21.1690  -13.3688 O   0  0  0  0  0  0  0  0  0  0  0  0
   22.9862  -20.0014  -13.5742 N   0  0  0  0  0  0  0  0  0  0  0  0
   22.4051  -22.1722  -13.3723 C   0  0  1  0  0  0  0  0  0  0  0  0
   20.9868  -21.8836  -13.6420 C   0  0  0  0  0  0  0  0  0  0  0  0
   20.2262  -23.0722  -14.0940 C   0  0  0  0  0  0  0  0  0  0  0  0
   18.8074  -22.7635  -14.3816 C   0  0  0  0  0  0  0  0  0  0  0  0
   17.7914  -23.0000  -13.4637 C   0  0  0  0  0  0  0  0  0  0  0  0
   16.4813  -22.7218  -13.7121 C   0  0  0  0  0  0  0  0  0  0  0  0
   16.1228  -22.1727  -14.9457 C   0  0  0  0  0  0  0  0  0  0  0  0
   17.1066  -21.9268  -15.8770 C   0  0  0  0  0  0  0  0  0  0  0  0
   18.4464  -22.2229  -15.5917 C   0  0  0  0  0  0  0  0  0  0  0  0
   20.3539  -21.2506  -12.4214 O   0  0  0  0  0  0  0  0  0  0  0  0
   20.5625  -21.7169  -11.2826 O   0  0  0  0  0  0  0  0  0  0  0  0
  2  1  1  0
  2  3  2  0
  4  2  1  0
  5  4  1  0
  6  5  1  0
  7  6  1  0
  8  7  1  0
  8  9  1  6
 10 11  2  0
 10  8  1  0
 13 14  1  0
 13 12  1  0
 14 15  1  6
 16 17  1  6
 16 14  1  0
 17 10  1  0
 18 16  1  0
 19 18  2  0
 20 18  1  0
 21 20  1  0
 21 22  1  1
 22 23  1  0
 23 24  2  0
 24 25  1  0
 26 25  2  0
 27 26  1  0
 28 27  2  0
 28 23  1  0
 29 21  1  0
 29 31  1  0
 30 29  2  0
M  END
$$$$
