RIF.pdb
     RDKit          3D

 31 31  0  0  1  0  0  0  0  0999 V2000
   30.7641  -20.0898  -18.8732 N   0  0  0  0  0  0  0  0  0  0  0  0
   30.2137  -18.7536  -18.8815 C   0  0  0  0  0  0  0  0  0  0  0  0
   30.4667  -17.9626  -19.8498 N   0  0  0  0  0  0  0  0  0  0  0  0
   29.3896  -18.3134  -17.8077 N   0  0  0  0  0  0  0  0  0  0  0  0
   28.4201  -19.1968  -17.2134 C   0  0  0  0  0  0  0  0  0  0  0  0
   28.6964  -19.4218  -15.7550 C   0  0  0  0  0  0  0  0  0  0  0  0
   27.7802  -18.6844  -14.8220 C   0  0  0  0  0  0  0  0  0  0  0  0
   26.4515  -19.3667  -14.7972 C   0  0  2  0  0  0  0  0  0  0  0  0
   25.5761  -18.7757  -15.7631 N   0  0  0  0  0  0  0  0  0  0  0  0
   25.8126  -19.2725  -13.4463 C   0  0  0  0  0  0  0  0  0  0  0  0
   25.5371  -18.1411  -12.9559 O   0  0  0  0  0  0  0  0  0  0  0  0
   30.1095  -16.9906  -19.8794 C   0  0  0  0  0  0  0  0  0  0  0  0
   21.7911  -20.9870  -13.2356 C   0  0  0  0  0  0  0  0  0  0  0  0
   22.4578  -20.2194  -12.1171 C   0  0  2  0  0  0  0  0  0  0  0  0
   23.4979  -20.9607  -11.3696 C   0  0  0  0  0  0  0  0  0  0  0  0
   23.0696  -20.8766   -9.8801 C   0  0  2  0  0  0  0  0  0  0  0  0
   24.8877  -20.4858  -11.4054 N   0  0  0  0  0  0  0  0  0  0  0  0
   25.5115  -20.4285  -12.7041 C   0  0  0  0  0  0  0  0  0  0  0  0
   25.7736  -20.7914  -10.2767 O   0  0  0  0  0  0  0  0  0  0  0  0
   26.3251  -21.9116  -10.2060 N   0  0  0  0  0  0  0  0  0  0  0  0
   26.0574  -19.8894   -9.2418 C   0  0  1  0  0  0  0  0  0  0  0  0
   26.8625  -20.2686   -8.0689 C   0  0  0  0  0  0  0  0  0  0  0  0
   27.5892  -19.1260   -7.4671 C   0  0  0  0  0  0  0  0  0  0  0  0
   28.3398  -19.5075   -6.2498 C   0  0  0  0  0  0  0  0  0  0  0  0
   29.3551  -20.4560   -6.2657 C   0  0  0  0  0  0  0  0  0  0  0  0
   30.0556  -20.8185   -5.1551 C   0  0  0  0  0  0  0  0  0  0  0  0
   29.7508  -20.2186   -3.9308 C   0  0  0  0  0  0  0  0  0  0  0  0
   28.7495  -19.2750   -3.8817 C   0  0  0  0  0  0  0  0  0  0  0  0
   28.0470  -18.9221   -5.0420 C   0  0  0  0  0  0  0  0  0  0  0  0
   25.9853  -20.9665   -7.0519 O   0  0  0  0  0  0  0  0  0  0  0  0
   24.7921  -20.6314   -6.9046 O   0  0  0  0  0  0  0  0  0  0  0  0
  2  1  1  0
  2  3  2  0
  4  2  1  0
  5  4  1  0
  6  5  1  0
  7  6  1  0
  8  7  1  0
  8  9  1  6
 10 11  2  0
 10  8  1  0
 13 14  1  0
 13 12  1  0
 14 15  1  6
 16 17  1  1
 16 14  1  0
 17 10  1  0
 18 16  1  0
 19 18  2  0
 20 18  1  0
 21 20  1  0
 21 22  1  1
 22 23  1  0
 23 24  2  0
 24 25  1  0
 26 25  2  0
 27 26  1  0
 28 27  2  0
 28 23  1  0
 29 21  1  0
 29 31  1  0
 30 29  2  0
M  END
$$$$
