RIF.pdb
     RDKit          3D

 31 31  0  0  1  0  0  0  0  0999 V2000
   31.0796  -26.2121  -15.7965 N   0  0  0  0  0  0  0  0  0  0  0  0
   31.2706  -25.6050  -17.0940 C   0  0  0  0  0  0  0  0  0  0  0  0
   31.3109  -26.3317  -18.1416 N   0  0  0  0  0  0  0  0  0  0  0  0
   31.4177  -24.1938  -17.2081 N   0  0  0  0  0  0  0  0  0  0  0  0
   30.5491  -23.3019  -16.4846 C   0  0  0  0  0  0  0  0  0  0  0  0
   29.1260  -23.4172  -16.9486 C   0  0  0  0  0  0  0  0  0  0  0  0
   28.1034  -23.3825  -15.8500 C   0  0  0  0  0  0  0  0  0  0  0  0
   27.8698  -21.9649  -15.4411 C   0  0  2  0  0  0  0  0  0  0  0  0
   29.0560  -21.4195  -14.8545 N   0  0  0  0  0  0  0  0  0  0  0  0
   26.7501  -21.8573  -14.4528 C   0  0  0  0  0  0  0  0  0  0  0  0
   25.6039  -22.3003  -14.7471 O   0  0  0  0  0  0  0  0  0  0  0  0
   31.5545  -25.9488  -19.0729 C   0  0  0  0  0  0  0  0  0  0  0  0
   28.2774  -20.6705   -9.0968 C   0  0  0  0  0  0  0  0  0  0  0  0
   27.6036  -21.3660  -10.2574 C   0  0  2  0  0  0  0  0  0  0  0  0
   26.4544  -20.6457  -10.8496 C   0  0  0  0  0  0  0  0  0  0  0  0
   25.2739  -20.8835   -9.8704 C   0  0  1  0  0  0  0  0  0  0  0  0
   25.9549  -21.0483  -12.1712 N   0  0  0  0  0  0  0  0  0  0  0  0
   26.9492  -21.2662  -13.1924 C   0  0  0  0  0  0  0  0  0  0  0  0
   24.6605  -20.5326  -12.6302 O   0  0  0  0  0  0  0  0  0  0  0  0
   24.5398  -19.3202  -12.9120 N   0  0  0  0  0  0  0  0  0  0  0  0
   23.5150  -21.3261  -12.7832 C   0  0  1  0  0  0  0  0  0  0  0  0
   22.2254  -20.7666  -13.2211 C   0  0  0  0  0  0  0  0  0  0  0  0
   21.8257  -21.2152  -14.5756 C   0  0  0  0  0  0  0  0  0  0  0  0
   20.4813  -20.7304  -14.9611 C   0  0  0  0  0  0  0  0  0  0  0  0
   19.3336  -21.4931  -14.7831 C   0  0  0  0  0  0  0  0  0  0  0  0
   18.0894  -21.0623  -15.1320 C   0  0  0  0  0  0  0  0  0  0  0  0
   17.9411  -19.7943  -15.6997 C   0  0  0  0  0  0  0  0  0  0  0  0
   19.0594  -19.0141  -15.8896 C   0  0  0  0  0  0  0  0  0  0  0  0
   20.3266  -19.4848  -15.5193 C   0  0  0  0  0  0  0  0  0  0  0  0
   21.1582  -21.0805  -12.1947 O   0  0  0  0  0  0  0  0  0  0  0  0
   20.1368  -20.3693  -12.1012 O   0  0  0  0  0  0  0  0  0  0  0  0
  2  1  1  0
  2  3  2  0
  4  2  1  0
  5  4  1  0
  6  5  1  0
  7  6  1  0
  8  7  1  0
  8  9  1  1
 10 11  2  0
 10  8  1  0
 13 14  1  0
 13 12  1  0
 14 15  1  6
 16 17  1  1
 16 14  1  0
 17 10  1  0
 18 16  1  0
 19 18  2  0
 20 18  1  0
 21 20  1  0
 21 22  1  1
 22 23  1  0
 23 24  2  0
 24 25  1  0
 26 25  2  0
 27 26  1  0
 28 27  2  0
 28 23  1  0
 29 21  1  0
 29 31  1  0
 30 29  2  0
M  END
$$$$
