RIF.pdb
     RDKit          3D

 31 31  0  0  1  0  0  0  0  0999 V2000
   27.7019  -16.8707  -17.6616 N   0  0  0  0  0  0  0  0  0  0  0  0
   27.9581  -17.8177  -18.7228 C   0  0  0  0  0  0  0  0  0  0  0  0
   27.5977  -17.5538  -19.9176 N   0  0  0  0  0  0  0  0  0  0  0  0
   28.6108  -19.0503  -18.4386 N   0  0  0  0  0  0  0  0  0  0  0  0
   28.9673  -19.4006  -17.0882 C   0  0  0  0  0  0  0  0  0  0  0  0
   28.0357  -18.7766  -16.0898 C   0  0  0  0  0  0  0  0  0  0  0  0
   26.8558  -19.6264  -15.7164 C   0  0  0  0  0  0  0  0  0  0  0  0
   27.2982  -20.6910  -14.7665 C   0  0  2  0  0  0  0  0  0  0  0  0
   27.7202  -21.8520  -15.4895 N   0  0  0  0  0  0  0  0  0  0  0  0
   26.1975  -21.0807  -13.8292 C   0  0  0  0  0  0  0  0  0  0  0  0
   25.3880  -21.9956  -14.1520 O   0  0  0  0  0  0  0  0  0  0  0  0
   27.8144  -18.1808  -20.7133 C   0  0  0  0  0  0  0  0  0  0  0  0
   26.9165  -20.3542   -8.3292 C   0  0  0  0  0  0  0  0  0  0  0  0
   26.5259  -20.9048   -9.6816 C   0  0  2  0  0  0  0  0  0  0  0  0
   25.2602  -20.3794  -10.2403 C   0  0  0  0  0  0  0  0  0  0  0  0
   24.1343  -21.1005   -9.4520 C   0  0  1  0  0  0  0  0  0  0  0  0
   24.9508  -20.6030  -11.6589 N   0  0  0  0  0  0  0  0  0  0  0  0
   26.0435  -20.4421  -12.5857 C   0  0  0  0  0  0  0  0  0  0  0  0
   23.6198  -20.2458  -12.1620 O   0  0  0  0  0  0  0  0  0  0  0  0
   23.3163  -19.0423  -12.3148 N   0  0  0  0  0  0  0  0  0  0  0  0
   22.6348  -21.1854  -12.4968 C   0  0  1  0  0  0  0  0  0  0  0  0
   21.3034  -20.7872  -12.9833 C   0  0  0  0  0  0  0  0  0  0  0  0
   20.9897  -21.3254  -14.3278 C   0  0  0  0  0  0  0  0  0  0  0  0
   19.6396  -20.9373  -14.7944 C   0  0  0  0  0  0  0  0  0  0  0  0
   18.5316  -21.7618  -14.6417 C   0  0  0  0  0  0  0  0  0  0  0  0
   17.2828  -21.4201  -15.0650 C   0  0  0  0  0  0  0  0  0  0  0  0
   17.0880  -20.1843  -15.6869 C   0  0  0  0  0  0  0  0  0  0  0  0
   18.1662  -19.3446  -15.8535 C   0  0  0  0  0  0  0  0  0  0  0  0
   19.4391  -19.7239  -15.4063 C   0  0  0  0  0  0  0  0  0  0  0  0
   20.2511  -21.1797  -11.9686 O   0  0  0  0  0  0  0  0  0  0  0  0
   19.3854  -20.3595  -11.6003 O   0  0  0  0  0  0  0  0  0  0  0  0
  2  1  1  0
  2  3  2  0
  4  2  1  0
  5  4  1  0
  6  5  1  0
  7  6  1  0
  8  7  1  0
  8  9  1  6
 10 11  2  0
 10  8  1  0
 13 14  1  0
 13 12  1  0
 14 15  1  6
 16 17  1  6
 16 14  1  0
 17 10  1  0
 18 16  1  0
 19 18  2  0
 20 18  1  0
 21 20  1  0
 21 22  1  1
 22 23  1  0
 23 24  2  0
 24 25  1  0
 26 25  2  0
 27 26  1  0
 28 27  2  0
 28 23  1  0
 29 21  1  0
 29 31  1  0
 30 29  2  0
M  END
$$$$
