RIF.pdb
     RDKit          3D

 31 31  0  0  1  0  0  0  0  0999 V2000
   18.4722  -24.5272  -11.3193 N   0  0  0  0  0  0  0  0  0  0  0  0
   18.9411  -23.4187  -10.5196 C   0  0  0  0  0  0  0  0  0  0  0  0
   19.0795  -23.5519   -9.2585 N   0  0  0  0  0  0  0  0  0  0  0  0
   19.2474  -22.1724  -11.1352 N   0  0  0  0  0  0  0  0  0  0  0  0
   19.0857  -21.9927  -12.5547 C   0  0  0  0  0  0  0  0  0  0  0  0
   20.3609  -22.2700  -13.2969 C   0  0  0  0  0  0  0  0  0  0  0  0
   21.3060  -21.1062  -13.3766 C   0  0  0  0  0  0  0  0  0  0  0  0
   22.4882  -21.4894  -14.2053 C   0  0  2  0  0  0  0  0  0  0  0  0
   22.1756  -22.6294  -15.0123 N   0  0  0  0  0  0  0  0  0  0  0  0
   23.6740  -21.8145  -13.3506 C   0  0  0  0  0  0  0  0  0  0  0  0
   23.8111  -22.9782  -12.8779 O   0  0  0  0  0  0  0  0  0  0  0  0
   19.3845  -22.7719   -8.6488 C   0  0  0  0  0  0  0  0  0  0  0  0
   27.4686  -18.1583  -12.9331 C   0  0  0  0  0  0  0  0  0  0  0  0
   27.1689  -19.3816  -13.7689 C   0  0  2  0  0  0  0  0  0  0  0  0
   27.1133  -20.6606  -13.0264 C   0  0  0  0  0  0  0  0  0  0  0  0
   27.3396  -21.7639  -14.0943 C   0  0  1  0  0  0  0  0  0  0  0  0
   25.8754  -21.0366  -12.3303 N   0  0  0  0  0  0  0  0  0  0  0  0
   24.6465  -20.8415  -13.0589 C   0  0  0  0  0  0  0  0  0  0  0  0
   25.7972  -20.8663  -10.8753 O   0  0  0  0  0  0  0  0  0  0  0  0
   24.7849  -20.3376  -10.3657 N   0  0  0  0  0  0  0  0  0  0  0  0
   26.8050  -21.2685   -9.9879 C   0  0  2  0  0  0  0  0  0  0  0  0
   26.8133  -20.8614   -8.5730 C   0  0  0  0  0  0  0  0  0  0  0  0
   28.0779  -21.1976   -7.8776 C   0  0  0  0  0  0  0  0  0  0  0  0
   28.1374  -20.6427   -6.5066 C   0  0  0  0  0  0  0  0  0  0  0  0
   27.7630  -21.3765   -5.3877 C   0  0  0  0  0  0  0  0  0  0  0  0
   27.8118  -20.8814   -4.1196 C   0  0  0  0  0  0  0  0  0  0  0  0
   28.2560  -19.5727   -3.9152 C   0  0  0  0  0  0  0  0  0  0  0  0
   28.6338  -18.8193   -5.0038 C   0  0  0  0  0  0  0  0  0  0  0  0
   28.5735  -19.3571   -6.2967 C   0  0  0  0  0  0  0  0  0  0  0  0
   26.4956  -19.3855   -8.4649 O   0  0  0  0  0  0  0  0  0  0  0  0
   27.0678  -18.5560   -9.2014 O   0  0  0  0  0  0  0  0  0  0  0  0
  2  1  1  0
  2  3  2  0
  4  2  1  0
  5  4  1  0
  6  5  1  0
  7  6  1  0
  8  7  1  0
  8  9  1  1
 10 11  2  0
 10  8  1  0
 13 14  1  0
 13 12  1  0
 14 15  1  1
 16 17  1  6
 16 14  1  0
 17 10  1  0
 18 16  1  0
 19 18  2  0
 20 18  1  0
 21 20  1  0
 21 22  1  6
 22 23  1  0
 23 24  2  0
 24 25  1  0
 26 25  2  0
 27 26  1  0
 28 27  2  0
 28 23  1  0
 29 21  1  0
 29 31  1  0
 30 29  2  0
M  END
$$$$
