RIF.pdb
     RDKit          3D

 31 31  0  0  1  0  0  0  0  0999 V2000
   32.0548  -27.1009  -17.5813 N   0  0  0  0  0  0  0  0  0  0  0  0
   31.2041  -28.0811  -18.2168 C   0  0  0  0  0  0  0  0  0  0  0  0
   31.6603  -29.2384  -18.4992 N   0  0  0  0  0  0  0  0  0  0  0  0
   29.8544  -27.7583  -18.5332 N   0  0  0  0  0  0  0  0  0  0  0  0
   29.3294  -26.4442  -18.2663 C   0  0  0  0  0  0  0  0  0  0  0  0
   28.5674  -26.4044  -16.9734 C   0  0  0  0  0  0  0  0  0  0  0  0
   27.8634  -25.1068  -16.7001 C   0  0  0  0  0  0  0  0  0  0  0  0
   28.8727  -24.0089  -16.6145 C   0  0  2  0  0  0  0  0  0  0  0  0
   30.0075  -24.4409  -15.8566 N   0  0  0  0  0  0  0  0  0  0  0  0
   28.2986  -22.7863  -15.9683 C   0  0  0  0  0  0  0  0  0  0  0  0
   28.1992  -22.7250  -14.7102 O   0  0  0  0  0  0  0  0  0  0  0  0
   31.1168  -29.9303  -19.0461 C   0  0  0  0  0  0  0  0  0  0  0  0
   29.5657  -18.5832  -18.4414 C   0  0  0  0  0  0  0  0  0  0  0  0
   29.1273  -18.9682  -17.0470 C   0  0  2  0  0  0  0  0  0  0  0  0
   27.6801  -19.2323  -16.8860 C   0  0  0  0  0  0  0  0  0  0  0  0
   27.1580  -18.1007  -15.9608 C   0  0  2  0  0  0  0  0  0  0  0  0
   27.2417  -20.4859  -16.2580 N   0  0  0  0  0  0  0  0  0  0  0  0
   27.8620  -21.6948  -16.7403 C   0  0  0  0  0  0  0  0  0  0  0  0
   25.8501  -20.6089  -15.8099 O   0  0  0  0  0  0  0  0  0  0  0  0
   25.0208  -21.2186  -16.5202 N   0  0  0  0  0  0  0  0  0  0  0  0
   25.3693  -20.0785  -14.6046 C   0  0  2  0  0  0  0  0  0  0  0  0
   23.9466  -20.1425  -14.2312 C   0  0  0  0  0  0  0  0  0  0  0  0
   23.7013  -19.7987  -12.8108 C   0  0  0  0  0  0  0  0  0  0  0  0
   22.2618  -19.8018  -12.4659 C   0  0  0  0  0  0  0  0  0  0  0  0
   21.6166  -20.9264  -11.9661 C   0  0  0  0  0  0  0  0  0  0  0  0
   20.2933  -20.9463  -11.6436 C   0  0  0  0  0  0  0  0  0  0  0  0
   19.5313  -19.7885  -11.8188 C   0  0  0  0  0  0  0  0  0  0  0  0
   20.1414  -18.6574  -12.3126 C   0  0  0  0  0  0  0  0  0  0  0  0
   21.5054  -18.6676  -12.6345 C   0  0  0  0  0  0  0  0  0  0  0  0
   23.1349  -19.2680  -15.1624 O   0  0  0  0  0  0  0  0  0  0  0  0
   23.5516  -18.1416  -15.5018 O   0  0  0  0  0  0  0  0  0  0  0  0
  2  1  1  0
  2  3  2  0
  4  2  1  0
  5  4  1  0
  6  5  1  0
  7  6  1  0
  8  7  1  0
  8  9  1  1
 10 11  2  0
 10  8  1  0
 13 14  1  0
 13 12  1  0
 14 15  1  6
 16 17  1  1
 16 14  1  0
 17 10  1  0
 18 16  1  0
 19 18  2  0
 20 18  1  0
 21 20  1  0
 21 22  1  6
 22 23  1  0
 23 24  2  0
 24 25  1  0
 26 25  2  0
 27 26  1  0
 28 27  2  0
 28 23  1  0
 29 21  1  0
 29 31  1  0
 30 29  2  0
M  END
$$$$
