RIF.pdb
     RDKit          3D

 31 31  0  0  1  0  0  0  0  0999 V2000
   21.9677  -21.8653  -15.6176 N   0  0  0  0  0  0  0  0  0  0  0  0
   21.9005  -20.8728  -16.6657 C   0  0  0  0  0  0  0  0  0  0  0  0
   20.7729  -20.5367  -17.1583 N   0  0  0  0  0  0  0  0  0  0  0  0
   23.0926  -20.2684  -17.1552 N   0  0  0  0  0  0  0  0  0  0  0  0
   24.3586  -20.5113  -16.5135 C   0  0  0  0  0  0  0  0  0  0  0  0
   24.5874  -19.5707  -15.3660 C   0  0  0  0  0  0  0  0  0  0  0  0
   24.2516  -20.1352  -14.0159 C   0  0  0  0  0  0  0  0  0  0  0  0
   25.5111  -20.3229  -13.2350 C   0  0  2  0  0  0  0  0  0  0  0  0
   26.4471  -21.1000  -13.9890 N   0  0  0  0  0  0  0  0  0  0  0  0
   25.2501  -21.0135  -11.9323 C   0  0  0  0  0  0  0  0  0  0  0  0
   25.2958  -22.2745  -11.8663 O   0  0  0  0  0  0  0  0  0  0  0  0
   20.6861  -19.8401  -17.9202 C   0  0  0  0  0  0  0  0  0  0  0  0
   26.5022  -20.2500   -6.0167 C   0  0  0  0  0  0  0  0  0  0  0  0
   25.4974  -20.7893   -7.0089 C   0  0  2  0  0  0  0  0  0  0  0  0
   25.6546  -20.3062   -8.3989 C   0  0  0  0  0  0  0  0  0  0  0  0
   25.4033  -18.7761   -8.3312 C   0  0  2  0  0  0  0  0  0  0  0  0
   24.7496  -20.8064   -9.4425 N   0  0  0  0  0  0  0  0  0  0  0  0
   24.9505  -20.2807  -10.7700 C   0  0  0  0  0  0  0  0  0  0  0  0
   23.3677  -21.1441   -9.0842 O   0  0  0  0  0  0  0  0  0  0  0  0
   22.4448  -20.3418   -9.3459 N   0  0  0  0  0  0  0  0  0  0  0  0
   22.9957  -22.3393   -8.4531 C   0  0  1  0  0  0  0  0  0  0  0  0
   21.6006  -22.6304   -8.0834 C   0  0  0  0  0  0  0  0  0  0  0  0
   21.4820  -23.4372   -6.8462 C   0  0  0  0  0  0  0  0  0  0  0  0
   20.0948  -23.8864   -6.5914 C   0  0  0  0  0  0  0  0  0  0  0  0
   19.3491  -23.4297   -5.5116 C   0  0  0  0  0  0  0  0  0  0  0  0
   18.0718  -23.8324   -5.2627 C   0  0  0  0  0  0  0  0  0  0  0  0
   17.4664  -24.7507   -6.1241 C   0  0  0  0  0  0  0  0  0  0  0  0
   18.1792  -25.2226   -7.2032 C   0  0  0  0  0  0  0  0  0  0  0  0
   19.4918  -24.7885   -7.4337 C   0  0  0  0  0  0  0  0  0  0  0  0
   20.8197  -21.3378   -7.9804 O   0  0  0  0  0  0  0  0  0  0  0  0
   19.7682  -21.1761   -8.6330 O   0  0  0  0  0  0  0  0  0  0  0  0
  2  1  1  0
  2  3  2  0
  4  2  1  0
  5  4  1  0
  6  5  1  0
  7  6  1  0
  8  7  1  0
  8  9  1  6
 10 11  2  0
 10  8  1  0
 13 14  1  0
 13 12  1  0
 14 15  1  6
 16 17  1  1
 16 14  1  0
 17 10  1  0
 18 16  1  0
 19 18  2  0
 20 18  1  0
 21 20  1  0
 21 22  1  1
 22 23  1  0
 23 24  2  0
 24 25  1  0
 26 25  2  0
 27 26  1  0
 28 27  2  0
 28 23  1  0
 29 21  1  0
 29 31  1  0
 30 29  2  0
M  END
$$$$
