RIF.pdb
     RDKit          3D

 31 31  0  0  1  0  0  0  0  0999 V2000
   18.2424  -19.3039  -13.3001 N   0  0  0  0  0  0  0  0  0  0  0  0
   18.4630  -18.1956  -14.2008 C   0  0  0  0  0  0  0  0  0  0  0  0
   17.7420  -17.1468  -14.1147 N   0  0  0  0  0  0  0  0  0  0  0  0
   19.4837  -18.2708  -15.1901 N   0  0  0  0  0  0  0  0  0  0  0  0
   20.7298  -18.9373  -14.9135 C   0  0  0  0  0  0  0  0  0  0  0  0
   21.2862  -18.5389  -13.5772 C   0  0  0  0  0  0  0  0  0  0  0  0
   21.5209  -19.6799  -12.6301 C   0  0  0  0  0  0  0  0  0  0  0  0
   22.3372  -20.7268  -13.3150 C   0  0  2  0  0  0  0  0  0  0  0  0
   21.5433  -21.8941  -13.5516 N   0  0  0  0  0  0  0  0  0  0  0  0
   23.5304  -21.1131  -12.4971 C   0  0  0  0  0  0  0  0  0  0  0  0
   23.4260  -22.0096  -11.6129 O   0  0  0  0  0  0  0  0  0  0  0  0
   17.8239  -16.3611  -14.7850 C   0  0  0  0  0  0  0  0  0  0  0  0
   28.8367  -21.1180  -14.4961 C   0  0  0  0  0  0  0  0  0  0  0  0
   27.4840  -21.3155  -13.8512 C   0  0  2  0  0  0  0  0  0  0  0  0
   27.2485  -20.5344  -12.6164 C   0  0  0  0  0  0  0  0  0  0  0  0
   28.3339  -21.0137  -11.6158 C   0  0  2  0  0  0  0  0  0  0  0  0
   25.9704  -20.6767  -11.9063 N   0  0  0  0  0  0  0  0  0  0  0  0
   24.7765  -20.4914  -12.6934 C   0  0  0  0  0  0  0  0  0  0  0  0
   25.8872  -20.2646  -10.5007 O   0  0  0  0  0  0  0  0  0  0  0  0
   25.3327  -19.1841  -10.2024 N   0  0  0  0  0  0  0  0  0  0  0  0
   26.3977  -21.0194   -9.4355 C   0  0  2  0  0  0  0  0  0  0  0  0
   26.6354  -20.4374   -8.1042 C   0  0  0  0  0  0  0  0  0  0  0  0
   27.2811  -21.3818   -7.1624 C   0  0  0  0  0  0  0  0  0  0  0  0
   27.6806  -20.7342   -5.8928 C   0  0  0  0  0  0  0  0  0  0  0  0
   26.8074  -20.5901   -4.8215 C   0  0  0  0  0  0  0  0  0  0  0  0
   27.1588  -19.9971   -3.6466 C   0  0  0  0  0  0  0  0  0  0  0  0
   28.4563  -19.5022   -3.4938 C   0  0  0  0  0  0  0  0  0  0  0  0
   29.3454  -19.6293   -4.5373 C   0  0  0  0  0  0  0  0  0  0  0  0
   28.9546  -20.2455   -5.7339 C   0  0  0  0  0  0  0  0  0  0  0  0
   27.4327  -19.1581   -8.2416 O   0  0  0  0  0  0  0  0  0  0  0  0
   28.4544  -19.1192   -8.9573 O   0  0  0  0  0  0  0  0  0  0  0  0
  2  1  1  0
  2  3  2  0
  4  2  1  0
  5  4  1  0
  6  5  1  0
  7  6  1  0
  8  7  1  0
  8  9  1  1
 10 11  2  0
 10  8  1  0
 13 14  1  0
 13 12  1  0
 14 15  1  6
 16 17  1  1
 16 14  1  0
 17 10  1  0
 18 16  1  0
 19 18  2  0
 20 18  1  0
 21 20  1  0
 21 22  1  6
 22 23  1  0
 23 24  2  0
 24 25  1  0
 26 25  2  0
 27 26  1  0
 28 27  2  0
 28 23  1  0
 29 21  1  0
 29 31  1  0
 30 29  2  0
M  END
$$$$
