RIF.pdb
     RDKit          3D

 31 31  0  0  1  0  0  0  0  0999 V2000
   30.1662  -22.4737  -19.1298 N   0  0  0  0  0  0  0  0  0  0  0  0
   30.5486  -21.1728  -19.6297 C   0  0  0  0  0  0  0  0  0  0  0  0
   31.3635  -21.0761  -20.6064 N   0  0  0  0  0  0  0  0  0  0  0  0
   30.0202  -19.9939  -19.0323 N   0  0  0  0  0  0  0  0  0  0  0  0
   29.0840  -20.0771  -17.9414 C   0  0  0  0  0  0  0  0  0  0  0  0
   27.7008  -20.4073  -18.4225 C   0  0  0  0  0  0  0  0  0  0  0  0
   26.7068  -20.6839  -17.3319 C   0  0  0  0  0  0  0  0  0  0  0  0
   27.3307  -21.5830  -16.3152 C   0  0  2  0  0  0  0  0  0  0  0  0
   27.6975  -22.8284  -16.9178 N   0  0  0  0  0  0  0  0  0  0  0  0
   26.3961  -21.8549  -15.1773 C   0  0  0  0  0  0  0  0  0  0  0  0
   25.3469  -22.5319  -15.3704 O   0  0  0  0  0  0  0  0  0  0  0  0
   31.7769  -20.1714  -20.8960 C   0  0  0  0  0  0  0  0  0  0  0  0
   24.5480  -21.5086   -9.8451 C   0  0  0  0  0  0  0  0  0  0  0  0
   25.3304  -20.3587  -10.4370 C   0  0  2  0  0  0  0  0  0  0  0  0
   26.2566  -20.7180  -11.5339 C   0  0  0  0  0  0  0  0  0  0  0  0
   27.0585  -19.4233  -11.8331 C   0  0  2  0  0  0  0  0  0  0  0  0
   25.7092  -21.1480  -12.8276 N   0  0  0  0  0  0  0  0  0  0  0  0
   26.6637  -21.3660  -13.8861 C   0  0  0  0  0  0  0  0  0  0  0  0
   24.3888  -20.6590  -13.2397 O   0  0  0  0  0  0  0  0  0  0  0  0
   24.2517  -19.4688  -13.5983 N   0  0  0  0  0  0  0  0  0  0  0  0
   23.2353  -21.4552  -13.2640 C   0  0  1  0  0  0  0  0  0  0  0  0
   21.9149  -20.9130  -13.6249 C   0  0  0  0  0  0  0  0  0  0  0  0
   21.3261  -21.5610  -14.8204 C   0  0  0  0  0  0  0  0  0  0  0  0
   19.9789  -21.0398  -15.1437 C   0  0  0  0  0  0  0  0  0  0  0  0
   18.8196  -21.5813  -14.6022 C   0  0  0  0  0  0  0  0  0  0  0  0
   17.5726  -21.1139  -14.8889 C   0  0  0  0  0  0  0  0  0  0  0  0
   17.4334  -20.0387  -15.7700 C   0  0  0  0  0  0  0  0  0  0  0  0
   18.5633  -19.4800  -16.3238 C   0  0  0  0  0  0  0  0  0  0  0  0
   19.8331  -19.9825  -16.0085 C   0  0  0  0  0  0  0  0  0  0  0  0
   20.9856  -20.9974  -12.4331 O   0  0  0  0  0  0  0  0  0  0  0  0
   20.8968  -22.0505  -11.7691 O   0  0  0  0  0  0  0  0  0  0  0  0
  2  1  1  0
  2  3  2  0
  4  2  1  0
  5  4  1  0
  6  5  1  0
  7  6  1  0
  8  7  1  0
  8  9  1  6
 10 11  2  0
 10  8  1  0
 13 14  1  0
 13 12  1  0
 14 15  1  6
 16 17  1  6
 16 14  1  0
 17 10  1  0
 18 16  1  0
 19 18  2  0
 20 18  1  0
 21 20  1  0
 21 22  1  1
 22 23  1  0
 23 24  2  0
 24 25  1  0
 26 25  2  0
 27 26  1  0
 28 27  2  0
 28 23  1  0
 29 21  1  0
 29 31  1  0
 30 29  2  0
M  END
$$$$
