IED.pdb
     RDKit          3D

 26 25  0  0  1  0  0  0  0  0999 V2000
   28.2203  -20.9882  -14.0116 C   0  0  0  0  0  0  0  0  0  0  0  0
   27.2602  -21.1315  -12.8541 C   0  0  0  0  0  0  0  0  0  0  0  0
   25.8296  -20.8504  -13.2214 C   0  0  2  0  0  0  0  0  0  0  0  0
   25.7780  -19.4366  -13.7882 C   0  0  0  0  0  0  0  0  0  0  0  0
   24.8716  -20.9992  -12.0749 C   0  0  2  0  0  0  0  0  0  0  0  0
   25.1499  -22.3377  -11.4953 N   0  0  0  0  0  0  0  0  0  0  0  0
   23.4373  -21.0089  -12.4707 C   0  0  0  0  0  0  0  0  0  0  0  0
   22.8993  -19.8836  -12.7552 O   0  0  0  0  0  0  0  0  0  0  0  0
   22.6203  -22.1395  -12.5642 N   0  0  0  0  0  0  0  0  0  0  0  0
   21.2657  -22.2343  -12.9794 C   0  0  1  0  0  0  0  0  0  0  0  0
   20.9905  -22.7059  -14.3821 C   0  0  0  0  0  0  0  0  0  0  0  0
   21.0187  -21.6738  -15.4439 C   0  0  0  0  0  0  0  0  0  0  0  0
   20.7671  -22.3892  -16.7489 C   0  0  0  0  0  0  0  0  0  0  0  0
   21.6906  -22.6510  -17.5589 O   0  0  0  0  0  0  0  0  0  0  0  0
   20.4435  -22.9591  -12.0231 C   0  0  0  0  0  0  0  0  0  0  0  0
   21.0165  -23.8419  -11.3021 O   0  0  0  0  0  0  0  0  0  0  0  0
   19.4805  -22.7907  -17.1071 O   0  0  0  0  0  0  0  0  0  0  0  0
   19.0639  -22.7829  -11.8098 N   0  0  0  0  0  0  0  0  0  0  0  0
   18.3098  -23.4335  -10.7557 C   0  0  1  0  0  0  0  0  0  0  0  0
   17.3086  -22.4452  -10.1451 C   0  0  0  0  0  0  0  0  0  0  0  0
   16.4799  -23.0820   -9.0977 C   0  0  0  0  0  0  0  0  0  0  0  0
   16.7062  -24.2517   -8.6678 O   0  0  0  0  0  0  0  0  0  0  0  0
   17.6361  -24.6147  -11.3404 C   0  0  0  0  0  0  0  0  0  0  0  0
   17.6541  -25.8613  -10.6907 O   0  0  0  0  0  0  0  0  0  0  0  0
   15.3912  -22.4360   -8.5113 O   0  0  0  0  0  0  0  0  0  0  0  0
   17.0123  -24.5961  -12.4339 O   0  0  0  0  0  0  0  0  0  0  0  0
  2  1  1  0
  2  3  1  0
  3  4  1  1
  5  3  1  0
  5  6  1  6
  7  5  1  0
  8  7  2  0
  9  7  1  0
 10  9  1  0
 11 12  1  0
 10 11  1  6
 12 13  1  0
 13 17  1  0
 14 13  2  0
 15 10  1  0
 15 18  1  0
 16 15  2  0
 19 23  1  0
 19 18  1  0
 20 21  1  0
 19 20  1  6
 21 22  2  0
 23 24  1  0
 25 21  1  0
 26 23  2  0
M  END
$$$$
