IED.pdb
     RDKit          3D

 26 25  0  0  1  0  0  0  0  0999 V2000
   28.5305  -11.7930  -16.1156 C   0  0  0  0  0  0  0  0  0  0  0  0
   27.1213  -12.3336  -16.0516 C   0  0  0  0  0  0  0  0  0  0  0  0
   26.0647  -11.2826  -16.2496 C   0  0  2  0  0  0  0  0  0  0  0  0
   26.1925  -10.2908  -15.0994 C   0  0  0  0  0  0  0  0  0  0  0  0
   24.6704  -11.8347  -16.3235 C   0  0  2  0  0  0  0  0  0  0  0  0
   24.6725  -12.7669  -17.4794 N   0  0  0  0  0  0  0  0  0  0  0  0
   23.6223  -10.8187  -16.6121 C   0  0  0  0  0  0  0  0  0  0  0  0
   23.7384  -10.1469  -17.6946 O   0  0  0  0  0  0  0  0  0  0  0  0
   22.5154  -10.5314  -15.8078 N   0  0  0  0  0  0  0  0  0  0  0  0
   21.4926   -9.5659  -16.0028 C   0  0  1  0  0  0  0  0  0  0  0  0
   20.0627  -10.0313  -15.9341 C   0  0  0  0  0  0  0  0  0  0  0  0
   19.0209   -8.9856  -16.0548 C   0  0  0  0  0  0  0  0  0  0  0  0
   17.6891   -9.6898  -15.9630 C   0  0  0  0  0  0  0  0  0  0  0  0
   17.2766  -10.2075  -14.8957 O   0  0  0  0  0  0  0  0  0  0  0  0
   21.6871   -8.3808  -15.1822 C   0  0  0  0  0  0  0  0  0  0  0  0
   22.0881   -8.5524  -13.9834 O   0  0  0  0  0  0  0  0  0  0  0  0
   16.8567   -9.7922  -17.0772 O   0  0  0  0  0  0  0  0  0  0  0  0
   21.4757   -7.0482  -15.5815 N   0  0  0  0  0  0  0  0  0  0  0  0
   21.5824   -5.9031  -14.6980 C   0  0  1  0  0  0  0  0  0  0  0  0
   22.4260   -4.8086  -15.3633 C   0  0  0  0  0  0  0  0  0  0  0  0
   22.5366   -3.6066  -14.5076 C   0  0  0  0  0  0  0  0  0  0  0  0
   22.0003   -2.5008  -14.8139 O   0  0  0  0  0  0  0  0  0  0  0  0
   20.2119   -5.4363  -14.3902 C   0  0  0  0  0  0  0  0  0  0  0  0
   19.0953   -5.9503  -15.0724 O   0  0  0  0  0  0  0  0  0  0  0  0
   23.2405   -3.6095  -13.3030 O   0  0  0  0  0  0  0  0  0  0  0  0
   19.9465   -4.5674  -13.5187 O   0  0  0  0  0  0  0  0  0  0  0  0
  2  1  1  0
  2  3  1  0
  3  4  1  1
  5  3  1  0
  5  6  1  6
  7  5  1  0
  8  7  2  0
  9  7  1  0
 10  9  1  0
 11 12  1  0
 10 11  1  1
 12 13  1  0
 13 17  1  0
 14 13  2  0
 15 10  1  0
 15 18  1  0
 16 15  2  0
 19 23  1  0
 19 18  1  0
 20 21  1  0
 19 20  1  6
 21 22  2  0
 23 24  1  0
 25 21  1  0
 26 23  2  0
M  END
$$$$
