IED.pdb
     RDKit          3D

 26 25  0  0  1  0  0  0  0  0999 V2000
   17.5804  -14.7977  -15.8093 C   0  0  0  0  0  0  0  0  0  0  0  0
   17.9902  -13.5586  -16.5701 C   0  0  0  0  0  0  0  0  0  0  0  0
   17.8649  -12.2925  -15.7691 C   0  0  2  0  0  0  0  0  0  0  0  0
   16.4029  -12.1593  -15.3597 C   0  0  0  0  0  0  0  0  0  0  0  0
   18.3258  -11.0661  -16.5025 C   0  0  2  0  0  0  0  0  0  0  0  0
   19.7292  -11.3442  -16.8998 N   0  0  0  0  0  0  0  0  0  0  0  0
   18.3669   -9.8327  -15.6711 C   0  0  0  0  0  0  0  0  0  0  0  0
   17.3215   -9.5483  -14.9908 O   0  0  0  0  0  0  0  0  0  0  0  0
   19.4486   -8.9537  -15.5614 N   0  0  0  0  0  0  0  0  0  0  0  0
   19.5154   -7.6917  -14.9140 C   0  0  1  0  0  0  0  0  0  0  0  0
   20.8758   -7.0907  -14.6816 C   0  0  0  0  0  0  0  0  0  0  0  0
   20.9181   -5.8334  -13.9002 C   0  0  0  0  0  0  0  0  0  0  0  0
   22.3743   -5.5386  -13.6341 C   0  0  0  0  0  0  0  0  0  0  0  0
   23.2934   -6.3089  -14.0075 O   0  0  0  0  0  0  0  0  0  0  0  0
   18.6178   -6.7154  -15.5114 C   0  0  0  0  0  0  0  0  0  0  0  0
   18.4753   -6.7429  -16.7788 O   0  0  0  0  0  0  0  0  0  0  0  0
   22.7566   -4.3830  -12.9535 O   0  0  0  0  0  0  0  0  0  0  0  0
   17.8816   -5.7323  -14.8249 N   0  0  0  0  0  0  0  0  0  0  0  0
   17.0344   -4.7469  -15.4686 C   0  0  1  0  0  0  0  0  0  0  0  0
   15.5693   -5.1948  -15.4000 C   0  0  0  0  0  0  0  0  0  0  0  0
   14.6549   -4.1605  -15.9325 C   0  0  0  0  0  0  0  0  0  0  0  0
   14.8777   -3.5486  -17.0189 O   0  0  0  0  0  0  0  0  0  0  0  0
   17.2495   -3.4489  -14.7903 C   0  0  0  0  0  0  0  0  0  0  0  0
   16.9235   -2.2342  -15.4184 O   0  0  0  0  0  0  0  0  0  0  0  0
   13.4832   -3.7884  -15.2730 O   0  0  0  0  0  0  0  0  0  0  0  0
   17.7275   -3.3344  -13.6312 O   0  0  0  0  0  0  0  0  0  0  0  0
  2  1  1  0
  2  3  1  0
  3  4  1  6
  5  3  1  0
  5  6  1  1
  7  5  1  0
  8  7  2  0
  9  7  1  0
 10  9  1  0
 11 12  1  0
 10 11  1  6
 12 13  1  0
 13 17  1  0
 14 13  2  0
 15 10  1  0
 15 18  1  0
 16 15  2  0
 19 23  1  0
 19 18  1  0
 20 21  1  0
 19 20  1  1
 21 22  2  0
 23 24  1  0
 25 21  1  0
 26 23  2  0
M  END
$$$$
