IED.pdb
     RDKit          3D

 26 25  0  0  1  0  0  0  0  0999 V2000
   26.4836  -15.7536  -16.2445 C   0  0  0  0  0  0  0  0  0  0  0  0
   25.3449  -15.0304  -15.5645 C   0  0  0  0  0  0  0  0  0  0  0  0
   25.2145  -13.5909  -15.9783 C   0  0  2  0  0  0  0  0  0  0  0  0
   26.4912  -12.8791  -15.5468 C   0  0  0  0  0  0  0  0  0  0  0  0
   24.0055  -12.9063  -15.4091 C   0  0  2  0  0  0  0  0  0  0  0  0
   22.8670  -13.8207  -15.6786 N   0  0  0  0  0  0  0  0  0  0  0  0
   23.6648  -11.6154  -16.0660 C   0  0  0  0  0  0  0  0  0  0  0  0
   24.4713  -10.6376  -15.8922 O   0  0  0  0  0  0  0  0  0  0  0  0
   22.5415  -11.3719  -16.8618 N   0  0  0  0  0  0  0  0  0  0  0  0
   22.1013  -10.1526  -17.4414 C   0  0  1  0  0  0  0  0  0  0  0  0
   21.1593  -10.2295  -18.6130 C   0  0  0  0  0  0  0  0  0  0  0  0
   20.7200   -8.9398  -19.1935 C   0  0  0  0  0  0  0  0  0  0  0  0
   19.7798   -9.2735  -20.3261 C   0  0  0  0  0  0  0  0  0  0  0  0
   18.5313   -9.2399  -20.1931 O   0  0  0  0  0  0  0  0  0  0  0  0
   21.6076   -9.2137  -16.4461 C   0  0  0  0  0  0  0  0  0  0  0  0
   21.5261   -9.6210  -15.2399 O   0  0  0  0  0  0  0  0  0  0  0  0
   20.2716   -9.6369  -21.5794 O   0  0  0  0  0  0  0  0  0  0  0  0
   21.2064   -7.8857  -16.6815 N   0  0  0  0  0  0  0  0  0  0  0  0
   21.0517   -6.8824  -15.6459 C   0  0  1  0  0  0  0  0  0  0  0  0
   22.3455   -6.7722  -14.8298 C   0  0  0  0  0  0  0  0  0  0  0  0
   22.2656   -5.6937  -13.8199 C   0  0  0  0  0  0  0  0  0  0  0  0
   21.5924   -5.8081  -12.7531 O   0  0  0  0  0  0  0  0  0  0  0  0
   20.6988   -5.6028  -16.3009 C   0  0  0  0  0  0  0  0  0  0  0  0
   19.9093   -4.6412  -15.6464 O   0  0  0  0  0  0  0  0  0  0  0  0
   22.9277   -4.4755  -13.9743 O   0  0  0  0  0  0  0  0  0  0  0  0
   21.0674   -5.2845  -17.4619 O   0  0  0  0  0  0  0  0  0  0  0  0
  2  1  1  0
  2  3  1  0
  3  4  1  1
  5  3  1  0
  5  6  1  6
  7  5  1  0
  8  7  2  0
  9  7  1  0
 10  9  1  0
 11 12  1  0
 10 11  1  6
 12 13  1  0
 13 17  1  0
 14 13  2  0
 15 10  1  0
 15 18  1  0
 16 15  2  0
 19 23  1  0
 19 18  1  0
 20 21  1  0
 19 20  1  6
 21 22  2  0
 23 24  1  0
 25 21  1  0
 26 23  2  0
M  END
$$$$
