IED.pdb
     RDKit          3D

 26 25  0  0  1  0  0  0  0  0999 V2000
   18.5873  -15.5565  -17.3152 C   0  0  0  0  0  0  0  0  0  0  0  0
   18.4830  -14.4952  -16.2452 C   0  0  0  0  0  0  0  0  0  0  0  0
   18.8401  -13.1171  -16.7286 C   0  0  2  0  0  0  0  0  0  0  0  0
   20.2887  -13.1645  -17.1998 C   0  0  0  0  0  0  0  0  0  0  0  0
   18.6524  -12.0465  -15.6927 C   0  0  2  0  0  0  0  0  0  0  0  0
   17.2199  -12.1127  -15.3074 N   0  0  0  0  0  0  0  0  0  0  0  0
   18.8845  -10.6635  -16.1902 C   0  0  0  0  0  0  0  0  0  0  0  0
   20.0943  -10.3184  -16.4222 O   0  0  0  0  0  0  0  0  0  0  0  0
   17.8978   -9.7029  -16.4317 N   0  0  0  0  0  0  0  0  0  0  0  0
   18.0459   -8.3307  -16.7658 C   0  0  1  0  0  0  0  0  0  0  0  0
   16.8484   -7.6083  -17.3224 C   0  0  0  0  0  0  0  0  0  0  0  0
   17.0476   -6.1891  -17.6961 C   0  0  0  0  0  0  0  0  0  0  0  0
   15.7283   -5.4926  -17.4672 C   0  0  0  0  0  0  0  0  0  0  0  0
   15.5506   -4.6876  -16.5196 O   0  0  0  0  0  0  0  0  0  0  0  0
   18.6557   -7.5627  -15.6915 C   0  0  0  0  0  0  0  0  0  0  0  0
   18.2185   -7.7531  -14.5083 O   0  0  0  0  0  0  0  0  0  0  0  0
   14.6431   -5.7220  -18.3125 O   0  0  0  0  0  0  0  0  0  0  0  0
   19.6915   -6.6200  -15.8265 N   0  0  0  0  0  0  0  0  0  0  0  0
   20.1743   -5.7759  -14.7506 C   0  0  1  0  0  0  0  0  0  0  0  0
   21.6180   -6.1551  -14.3987 C   0  0  0  0  0  0  0  0  0  0  0  0
   22.1849   -5.2561  -13.3692 C   0  0  0  0  0  0  0  0  0  0  0  0
   22.2661   -5.5842  -12.1485 O   0  0  0  0  0  0  0  0  0  0  0  0
   20.0631   -4.3674  -15.1921 C   0  0  0  0  0  0  0  0  0  0  0  0
   20.3047   -3.9997  -16.5273 O   0  0  0  0  0  0  0  0  0  0  0  0
   22.6693   -3.9837  -13.6736 O   0  0  0  0  0  0  0  0  0  0  0  0
   19.7526   -3.4158  -14.4285 O   0  0  0  0  0  0  0  0  0  0  0  0
  2  1  1  0
  2  3  1  0
  3  4  1  1
  5  3  1  0
  5  6  1  6
  7  5  1  0
  8  7  2  0
  9  7  1  0
 10  9  1  0
 11 12  1  0
 10 11  1  1
 12 13  1  0
 13 17  1  0
 14 13  2  0
 15 10  1  0
 15 18  1  0
 16 15  2  0
 19 23  1  0
 19 18  1  0
 20 21  1  0
 19 20  1  6
 21 22  2  0
 23 24  1  0
 25 21  1  0
 26 23  2  0
M  END
$$$$
