IED.pdb
     RDKit          3D

 26 25  0  0  1  0  0  0  0  0999 V2000
   22.4331  -15.0722  -18.4326 C   0  0  0  0  0  0  0  0  0  0  0  0
   22.0051  -14.3263  -17.1906 C   0  0  0  0  0  0  0  0  0  0  0  0
   21.7409  -12.8654  -17.4278 C   0  0  2  0  0  0  0  0  0  0  0  0
   23.0378  -12.2484  -17.9376 C   0  0  0  0  0  0  0  0  0  0  0  0
   21.2468  -12.1361  -16.2119 C   0  0  2  0  0  0  0  0  0  0  0  0
   20.0706  -12.9075  -15.7361 N   0  0  0  0  0  0  0  0  0  0  0  0
   20.7571  -10.7569  -16.4801 C   0  0  0  0  0  0  0  0  0  0  0  0
   21.6191   -9.8917  -16.8610 O   0  0  0  0  0  0  0  0  0  0  0  0
   19.4355  -10.3178  -16.3570 N   0  0  0  0  0  0  0  0  0  0  0  0
   18.9019   -9.0163  -16.5517 C   0  0  1  0  0  0  0  0  0  0  0  0
   17.4107   -8.8827  -16.7073 C   0  0  0  0  0  0  0  0  0  0  0  0
   16.7832   -9.6895  -17.7790 C   0  0  0  0  0  0  0  0  0  0  0  0
   15.3149   -9.7873  -17.4430 C   0  0  0  0  0  0  0  0  0  0  0  0
   14.4457   -9.0950  -18.0282 O   0  0  0  0  0  0  0  0  0  0  0  0
   19.4044   -8.0611  -15.5766 C   0  0  0  0  0  0  0  0  0  0  0  0
   19.4822   -8.4434  -14.3620 O   0  0  0  0  0  0  0  0  0  0  0  0
   14.8647  -10.6630  -16.4554 O   0  0  0  0  0  0  0  0  0  0  0  0
   19.8184   -6.7425  -15.8403 N   0  0  0  0  0  0  0  0  0  0  0  0
   20.2703   -5.8091  -14.8265 C   0  0  1  0  0  0  0  0  0  0  0  0
   21.7179   -6.1278  -14.4329 C   0  0  0  0  0  0  0  0  0  0  0  0
   22.2629   -5.1247  -13.4915 C   0  0  0  0  0  0  0  0  0  0  0  0
   22.0390   -5.1677  -12.2456 O   0  0  0  0  0  0  0  0  0  0  0  0
   20.1333   -4.4407  -15.3741 C   0  0  0  0  0  0  0  0  0  0  0  0
   20.0717   -3.3190  -14.5289 O   0  0  0  0  0  0  0  0  0  0  0  0
   23.0618   -4.0615  -13.9130 O   0  0  0  0  0  0  0  0  0  0  0  0
   20.0631   -4.1817  -16.6042 O   0  0  0  0  0  0  0  0  0  0  0  0
  2  1  1  0
  2  3  1  0
  3  4  1  1
  5  3  1  0
  5  6  1  6
  7  5  1  0
  8  7  2  0
  9  7  1  0
 10  9  1  0
 11 12  1  0
 10 11  1  1
 12 13  1  0
 13 17  1  0
 14 13  2  0
 15 10  1  0
 15 18  1  0
 16 15  2  0
 19 23  1  0
 19 18  1  0
 20 21  1  0
 19 20  1  6
 21 22  2  0
 23 24  1  0
 25 21  1  0
 26 23  2  0
M  END
$$$$
