IED.pdb
     RDKit          3D

 26 25  0  0  1  0  0  0  0  0999 V2000
   25.5033  -31.8552   -4.3431 C   0  0  0  0  0  0  0  0  0  0  0  0
   24.8353  -32.4983   -3.1505 C   0  0  0  0  0  0  0  0  0  0  0  0
   25.7742  -32.7655   -2.0071 C   0  0  2  0  0  0  0  0  0  0  0  0
   26.8504  -33.7157   -2.5186 C   0  0  0  0  0  0  0  0  0  0  0  0
   25.0991  -33.3315   -0.7912 C   0  0  2  0  0  0  0  0  0  0  0  0
   24.1843  -32.2647   -0.3115 N   0  0  0  0  0  0  0  0  0  0  0  0
   26.0194  -33.6280    0.3398 C   0  0  0  0  0  0  0  0  0  0  0  0
   26.3789  -32.6461    1.0768 O   0  0  0  0  0  0  0  0  0  0  0  0
   26.5272  -34.8867    0.6751 N   0  0  0  0  0  0  0  0  0  0  0  0
   27.2628  -35.2789    1.8246 C   0  0  1  0  0  0  0  0  0  0  0  0
   26.6317  -36.2774    2.7576 C   0  0  0  0  0  0  0  0  0  0  0  0
   27.3768  -36.5832    4.0005 C   0  0  0  0  0  0  0  0  0  0  0  0
   26.5203  -37.5401    4.7936 C   0  0  0  0  0  0  0  0  0  0  0  0
   26.6114  -38.7861    4.6645 O   0  0  0  0  0  0  0  0  0  0  0  0
   28.6268  -35.6679    1.5021 C   0  0  0  0  0  0  0  0  0  0  0  0
   28.8270  -36.2434    0.3813 O   0  0  0  0  0  0  0  0  0  0  0  0
   25.5830  -37.0673    5.7115 O   0  0  0  0  0  0  0  0  0  0  0  0
   29.7616  -35.4711    2.3105 N   0  0  0  0  0  0  0  0  0  0  0  0
   31.1087  -35.8566    1.9366 C   0  0  1  0  0  0  0  0  0  0  0  0
   32.1221  -35.1744    2.8637 C   0  0  0  0  0  0  0  0  0  0  0  0
   33.5157  -35.4753    2.4676 C   0  0  0  0  0  0  0  0  0  0  0  0
   33.7988  -36.1684    1.4461 O   0  0  0  0  0  0  0  0  0  0  0  0
   31.1967  -37.3324    2.0097 C   0  0  0  0  0  0  0  0  0  0  0  0
   31.5860  -38.0965    0.8957 O   0  0  0  0  0  0  0  0  0  0  0  0
   34.6144  -35.0150    3.1938 O   0  0  0  0  0  0  0  0  0  0  0  0
   30.9370  -37.9997    3.0453 O   0  0  0  0  0  0  0  0  0  0  0  0
  2  1  1  0
  2  3  1  0
  3  4  1  6
  5  3  1  0
  5  6  1  1
  7  5  1  0
  8  7  2  0
  9  7  1  0
 10  9  1  0
 11 12  1  0
 10 11  1  6
 12 13  1  0
 13 17  1  0
 14 13  2  0
 15 10  1  0
 15 18  1  0
 16 15  2  0
 19 23  1  0
 19 18  1  0
 20 21  1  0
 19 20  1  1
 21 22  2  0
 23 24  1  0
 25 21  1  0
 26 23  2  0
M  END
$$$$
