IED.pdb
     RDKit          3D

 26 25  0  0  1  0  0  0  0  0999 V2000
   28.3995  -13.4266  -16.9853 C   0  0  0  0  0  0  0  0  0  0  0  0
   28.1326  -12.0763  -16.3627 C   0  0  0  0  0  0  0  0  0  0  0  0
   26.8795  -11.4179  -16.8692 C   0  0  2  0  0  0  0  0  0  0  0  0
   27.0162  -11.2890  -18.3817 C   0  0  0  0  0  0  0  0  0  0  0  0
   26.6052  -10.0806  -16.2441 C   0  0  2  0  0  0  0  0  0  0  0  0
   26.6163  -10.3171  -14.7781 N   0  0  0  0  0  0  0  0  0  0  0  0
   25.2655   -9.5171  -16.5629 C   0  0  0  0  0  0  0  0  0  0  0  0
   25.1495   -8.8610  -17.6550 O   0  0  0  0  0  0  0  0  0  0  0  0
   24.1157   -9.6416  -15.7774 N   0  0  0  0  0  0  0  0  0  0  0  0
   22.8021   -9.1649  -16.0298 C   0  0  1  0  0  0  0  0  0  0  0  0
   21.6556  -10.1188  -15.8264 C   0  0  0  0  0  0  0  0  0  0  0  0
   20.3072   -9.6154  -16.1754 C   0  0  0  0  0  0  0  0  0  0  0  0
   19.3301  -10.7045  -15.8050 C   0  0  0  0  0  0  0  0  0  0  0  0
   19.6928  -11.7689  -15.2456 O   0  0  0  0  0  0  0  0  0  0  0  0
   22.5380   -7.8959  -15.3697 C   0  0  0  0  0  0  0  0  0  0  0  0
   22.8067   -7.8108  -14.1256 O   0  0  0  0  0  0  0  0  0  0  0  0
   17.9690  -10.5655  -16.0752 O   0  0  0  0  0  0  0  0  0  0  0  0
   22.0101   -6.7388  -15.9716 N   0  0  0  0  0  0  0  0  0  0  0  0
   21.7364   -5.5021  -15.2654 C   0  0  1  0  0  0  0  0  0  0  0  0
   22.0327   -4.3050  -16.1771 C   0  0  0  0  0  0  0  0  0  0  0  0
   21.6886   -3.0219  -15.5253 C   0  0  0  0  0  0  0  0  0  0  0  0
   22.3553   -2.5492  -14.5577 O   0  0  0  0  0  0  0  0  0  0  0  0
   20.3221   -5.5301  -14.8296 C   0  0  0  0  0  0  0  0  0  0  0  0
   19.9124   -4.9040  -13.6394 O   0  0  0  0  0  0  0  0  0  0  0  0
   20.6045   -2.2443  -15.9331 O   0  0  0  0  0  0  0  0  0  0  0  0
   19.4017   -6.1005  -15.4720 O   0  0  0  0  0  0  0  0  0  0  0  0
  2  1  1  0
  2  3  1  0
  3  4  1  6
  5  3  1  0
  5  6  1  1
  7  5  1  0
  8  7  2  0
  9  7  1  0
 10  9  1  0
 11 12  1  0
 10 11  1  1
 12 13  1  0
 13 17  1  0
 14 13  2  0
 15 10  1  0
 15 18  1  0
 16 15  2  0
 19 23  1  0
 19 18  1  0
 20 21  1  0
 19 20  1  6
 21 22  2  0
 23 24  1  0
 25 21  1  0
 26 23  2  0
M  END
$$$$
