IED.pdb
     RDKit          3D

 26 25  0  0  1  0  0  0  0  0999 V2000
   14.1072  -14.7900  -16.8492 C   0  0  0  0  0  0  0  0  0  0  0  0
   15.4607  -14.3997  -16.3034 C   0  0  0  0  0  0  0  0  0  0  0  0
   15.5660  -12.9442  -15.9418 C   0  0  2  0  0  0  0  0  0  0  0  0
   15.2991  -12.1428  -17.2104 C   0  0  0  0  0  0  0  0  0  0  0  0
   16.8893  -12.5655  -15.3419 C   0  0  2  0  0  0  0  0  0  0  0  0
   16.9840  -13.3303  -14.0726 N   0  0  0  0  0  0  0  0  0  0  0  0
   17.0065  -11.1294  -14.9704 C   0  0  0  0  0  0  0  0  0  0  0  0
   17.0724  -10.2798  -15.9246 O   0  0  0  0  0  0  0  0  0  0  0  0
   17.0480  -10.6200  -13.6691 N   0  0  0  0  0  0  0  0  0  0  0  0
   17.1886   -9.2745  -13.2376 C   0  0  1  0  0  0  0  0  0  0  0  0
   16.8467   -8.9544  -11.8071 C   0  0  0  0  0  0  0  0  0  0  0  0
   15.4355   -9.1539  -11.4044 C   0  0  0  0  0  0  0  0  0  0  0  0
   15.3649   -8.8735   -9.9230 C   0  0  0  0  0  0  0  0  0  0  0  0
   14.2731   -8.7290   -9.3192 O   0  0  0  0  0  0  0  0  0  0  0  0
   18.4812   -8.7113  -13.5953 C   0  0  0  0  0  0  0  0  0  0  0  0
   19.5184   -9.2306  -13.0644 O   0  0  0  0  0  0  0  0  0  0  0  0
   16.5274   -8.7630   -9.1606 O   0  0  0  0  0  0  0  0  0  0  0  0
   18.7062   -7.6391  -14.4782 N   0  0  0  0  0  0  0  0  0  0  0  0
   20.0142   -7.0932  -14.7850 C   0  0  1  0  0  0  0  0  0  0  0  0
   20.5995   -7.8015  -16.0130 C   0  0  0  0  0  0  0  0  0  0  0  0
   21.8714   -7.1828  -16.4475 C   0  0  0  0  0  0  0  0  0  0  0  0
   22.7685   -6.8231  -15.6288 O   0  0  0  0  0  0  0  0  0  0  0  0
   19.8596   -5.6377  -15.0061 C   0  0  0  0  0  0  0  0  0  0  0  0
   18.5981   -5.0202  -14.9459 O   0  0  0  0  0  0  0  0  0  0  0  0
   22.1696   -6.9532  -17.7909 O   0  0  0  0  0  0  0  0  0  0  0  0
   20.8181   -4.8613  -15.2582 O   0  0  0  0  0  0  0  0  0  0  0  0
  2  1  1  0
  2  3  1  0
  3  4  1  6
  5  3  1  0
  5  6  1  1
  7  5  1  0
  8  7  2  0
  9  7  1  0
 10  9  1  0
 11 12  1  0
 10 11  1  1
 12 13  1  0
 13 17  1  0
 14 13  2  0
 15 10  1  0
 15 18  1  0
 16 15  2  0
 19 23  1  0
 19 18  1  0
 20 21  1  0
 19 20  1  6
 21 22  2  0
 23 24  1  0
 25 21  1  0
 26 23  2  0
M  END
$$$$
