IED.pdb
     RDKit          3D

 26 25  0  0  1  0  0  0  0  0999 V2000
   25.8098  -14.1126  -19.7385 C   0  0  0  0  0  0  0  0  0  0  0  0
   25.6901  -13.4280  -18.3972 C   0  0  0  0  0  0  0  0  0  0  0  0
   24.4670  -12.5630  -18.2708 C   0  0  2  0  0  0  0  0  0  0  0  0
   24.4878  -11.5780  -19.4336 C   0  0  0  0  0  0  0  0  0  0  0  0
   24.3741  -11.8367  -16.9600 C   0  0  2  0  0  0  0  0  0  0  0  0
   24.2276  -12.8948  -15.9285 N   0  0  0  0  0  0  0  0  0  0  0  0
   23.1791  -10.9600  -16.8272 C   0  0  0  0  0  0  0  0  0  0  0  0
   23.2039   -9.8372  -17.4399 O   0  0  0  0  0  0  0  0  0  0  0  0
   22.0252  -11.2525  -16.0941 N   0  0  0  0  0  0  0  0  0  0  0  0
   20.8506  -10.4731  -15.9234 C   0  0  1  0  0  0  0  0  0  0  0  0
   19.5949  -11.1785  -15.4858 C   0  0  0  0  0  0  0  0  0  0  0  0
   18.3690  -10.3521  -15.3981 C   0  0  0  0  0  0  0  0  0  0  0  0
   17.2556  -11.2750  -14.9659 C   0  0  0  0  0  0  0  0  0  0  0  0
   17.4178  -12.5156  -14.8556 O   0  0  0  0  0  0  0  0  0  0  0  0
   21.0852   -9.2901  -15.1103 C   0  0  0  0  0  0  0  0  0  0  0  0
   21.6876   -9.4492  -13.9971 O   0  0  0  0  0  0  0  0  0  0  0  0
   15.9879  -10.7753  -14.6694 O   0  0  0  0  0  0  0  0  0  0  0  0
   20.7109   -7.9722  -15.4309 N   0  0  0  0  0  0  0  0  0  0  0  0
   20.9975   -6.8164  -14.6033 C   0  0  1  0  0  0  0  0  0  0  0  0
   21.9751   -5.8846  -15.3300 C   0  0  0  0  0  0  0  0  0  0  0  0
   22.1826   -4.6218  -14.5874 C   0  0  0  0  0  0  0  0  0  0  0  0
   22.3244   -4.5870  -13.3292 O   0  0  0  0  0  0  0  0  0  0  0  0
   19.7140   -6.1447  -14.2991 C   0  0  0  0  0  0  0  0  0  0  0  0
   19.5933   -5.2574  -13.2153 O   0  0  0  0  0  0  0  0  0  0  0  0
   22.2363   -3.3814  -15.2237 O   0  0  0  0  0  0  0  0  0  0  0  0
   18.6602   -6.3108  -14.9677 O   0  0  0  0  0  0  0  0  0  0  0  0
  2  1  1  0
  2  3  1  0
  3  4  1  6
  5  3  1  0
  5  6  1  1
  7  5  1  0
  8  7  2  0
  9  7  1  0
 10  9  1  0
 11 12  1  0
 10 11  1  1
 12 13  1  0
 13 17  1  0
 14 13  2  0
 15 10  1  0
 15 18  1  0
 16 15  2  0
 19 23  1  0
 19 18  1  0
 20 21  1  0
 19 20  1  6
 21 22  2  0
 23 24  1  0
 25 21  1  0
 26 23  2  0
M  END
$$$$
