IED.pdb
     RDKit          3D

 26 25  0  0  1  0  0  0  0  0999 V2000
   14.9105  -10.4489  -16.5700 C   0  0  0  0  0  0  0  0  0  0  0  0
   16.2840  -10.9864  -16.8968 C   0  0  0  0  0  0  0  0  0  0  0  0
   17.4007  -10.2171  -16.2476 C   0  0  2  0  0  0  0  0  0  0  0  0
   17.3025   -8.7774  -16.7382 C   0  0  0  0  0  0  0  0  0  0  0  0
   18.7638  -10.7819  -16.5251 C   0  0  2  0  0  0  0  0  0  0  0  0
   18.7988  -12.0949  -15.8325 N   0  0  0  0  0  0  0  0  0  0  0  0
   19.8855   -9.9847  -15.9591 C   0  0  0  0  0  0  0  0  0  0  0  0
   19.8863   -9.7877  -14.6950 O   0  0  0  0  0  0  0  0  0  0  0  0
   20.9454   -9.4312  -16.6837 N   0  0  0  0  0  0  0  0  0  0  0  0
   21.9304   -8.5001  -16.2606 C   0  0  1  0  0  0  0  0  0  0  0  0
   23.3101   -8.6177  -16.8508 C   0  0  0  0  0  0  0  0  0  0  0  0
   24.2956   -7.5927  -16.4365 C   0  0  0  0  0  0  0  0  0  0  0  0
   25.5643   -7.8783  -17.2028 C   0  0  0  0  0  0  0  0  0  0  0  0
   25.9488   -9.0480  -17.4509 O   0  0  0  0  0  0  0  0  0  0  0  0
   21.4579   -7.1261  -16.3286 C   0  0  0  0  0  0  0  0  0  0  0  0
   21.1137   -6.6763  -17.4717 O   0  0  0  0  0  0  0  0  0  0  0  0
   26.3669   -6.8376  -17.6692 O   0  0  0  0  0  0  0  0  0  0  0  0
   21.3403   -6.2321  -15.2484 N   0  0  0  0  0  0  0  0  0  0  0  0
   21.0475   -4.8183  -15.3852 C   0  0  1  0  0  0  0  0  0  0  0  0
   20.0052   -4.3987  -14.3413 C   0  0  0  0  0  0  0  0  0  0  0  0
   18.6288   -4.7110  -14.7857 C   0  0  0  0  0  0  0  0  0  0  0  0
   18.2299   -4.4969  -15.9686 O   0  0  0  0  0  0  0  0  0  0  0  0
   22.3174   -4.0735  -15.2309 C   0  0  0  0  0  0  0  0  0  0  0  0
   23.4903   -4.7132  -14.7935 O   0  0  0  0  0  0  0  0  0  0  0  0
   17.6752   -5.2635  -13.9302 O   0  0  0  0  0  0  0  0  0  0  0  0
   22.4427   -2.8442  -15.4721 O   0  0  0  0  0  0  0  0  0  0  0  0
  2  1  1  0
  2  3  1  0
  3  4  1  6
  5  3  1  0
  5  6  1  1
  7  5  1  0
  8  7  2  0
  9  7  1  0
 10  9  1  0
 11 12  1  0
 10 11  1  6
 12 13  1  0
 13 17  1  0
 14 13  2  0
 15 10  1  0
 15 18  1  0
 16 15  2  0
 19 23  1  0
 19 18  1  0
 20 21  1  0
 19 20  1  1
 21 22  2  0
 23 24  1  0
 25 21  1  0
 26 23  2  0
M  END
$$$$
