IED.pdb
     RDKit          3D

 26 25  0  0  1  0  0  0  0  0999 V2000
   15.7753  -13.9138  -17.8220 C   0  0  0  0  0  0  0  0  0  0  0  0
   17.2778  -13.9659  -17.9701 C   0  0  0  0  0  0  0  0  0  0  0  0
   17.9893  -12.8341  -17.2823 C   0  0  2  0  0  0  0  0  0  0  0  0
   17.4941  -11.5385  -17.9139 C   0  0  0  0  0  0  0  0  0  0  0  0
   19.4859  -12.9257  -17.3600 C   0  0  2  0  0  0  0  0  0  0  0  0
   19.8536  -14.1190  -16.5564 N   0  0  0  0  0  0  0  0  0  0  0  0
   20.2041  -11.7757  -16.7470 C   0  0  0  0  0  0  0  0  0  0  0  0
   20.1180  -11.6391  -15.4779 O   0  0  0  0  0  0  0  0  0  0  0  0
   20.9704  -10.8282  -17.4323 N   0  0  0  0  0  0  0  0  0  0  0  0
   21.5619   -9.6326  -16.9456 C   0  0  1  0  0  0  0  0  0  0  0  0
   22.9082   -9.2398  -17.4924 C   0  0  0  0  0  0  0  0  0  0  0  0
   23.4871   -7.9770  -16.9790 C   0  0  0  0  0  0  0  0  0  0  0  0
   24.7435   -7.7222  -17.7757 C   0  0  0  0  0  0  0  0  0  0  0  0
   25.7092   -8.5253  -17.7799 O   0  0  0  0  0  0  0  0  0  0  0  0
   20.6430   -8.5056  -16.9842 C   0  0  0  0  0  0  0  0  0  0  0  0
   20.1032   -8.2225  -18.1048 O   0  0  0  0  0  0  0  0  0  0  0  0
   24.8787   -6.5682  -18.5470 O   0  0  0  0  0  0  0  0  0  0  0  0
   20.2848   -7.6864  -15.8978 N   0  0  0  0  0  0  0  0  0  0  0  0
   19.3440   -6.5857  -15.9789 C   0  0  1  0  0  0  0  0  0  0  0  0
   18.0528   -6.9481  -15.2349 C   0  0  0  0  0  0  0  0  0  0  0  0
   17.1036   -5.8135  -15.2009 C   0  0  0  0  0  0  0  0  0  0  0  0
   16.6310   -5.3530  -14.1198 O   0  0  0  0  0  0  0  0  0  0  0  0
   19.9957   -5.3865  -15.4061 C   0  0  0  0  0  0  0  0  0  0  0  0
   21.3117   -5.4358  -14.9140 O   0  0  0  0  0  0  0  0  0  0  0  0
   16.6639   -5.1727  -16.3596 O   0  0  0  0  0  0  0  0  0  0  0  0
   19.4386   -4.2610  -15.3171 O   0  0  0  0  0  0  0  0  0  0  0  0
  2  1  1  0
  2  3  1  0
  3  4  1  6
  5  3  1  0
  5  6  1  1
  7  5  1  0
  8  7  2  0
  9  7  1  0
 10  9  1  0
 11 12  1  0
 10 11  1  6
 12 13  1  0
 13 17  1  0
 14 13  2  0
 15 10  1  0
 15 18  1  0
 16 15  2  0
 19 23  1  0
 19 18  1  0
 20 21  1  0
 19 20  1  1
 21 22  2  0
 23 24  1  0
 25 21  1  0
 26 23  2  0
M  END
$$$$
