IED.pdb
     RDKit          3D

 26 25  0  0  1  0  0  0  0  0999 V2000
   17.2546  -14.4217  -15.5940 C   0  0  0  0  0  0  0  0  0  0  0  0
   17.5922  -13.2176  -16.4416 C   0  0  0  0  0  0  0  0  0  0  0  0
   18.5208  -12.2478  -15.7653 C   0  0  2  0  0  0  0  0  0  0  0  0
   17.8335  -11.7798  -14.4880 C   0  0  0  0  0  0  0  0  0  0  0  0
   18.9009  -11.0767  -16.6245 C   0  0  2  0  0  0  0  0  0  0  0  0
   19.4143  -11.6615  -17.8892 N   0  0  0  0  0  0  0  0  0  0  0  0
   20.0048  -10.2442  -16.0745 C   0  0  0  0  0  0  0  0  0  0  0  0
   19.7644   -9.5819  -15.0068 O   0  0  0  0  0  0  0  0  0  0  0  0
   21.2873  -10.1210  -16.6173 N   0  0  0  0  0  0  0  0  0  0  0  0
   22.3438   -9.2541  -16.2319 C   0  0  1  0  0  0  0  0  0  0  0  0
   23.6715   -9.4114  -16.9234 C   0  0  0  0  0  0  0  0  0  0  0  0
   24.7799   -8.5639  -16.4267 C   0  0  0  0  0  0  0  0  0  0  0  0
   25.9901   -8.9010  -17.2634 C   0  0  0  0  0  0  0  0  0  0  0  0
   26.8179   -9.7812  -16.9209 O   0  0  0  0  0  0  0  0  0  0  0  0
   21.9355   -7.8581  -16.2151 C   0  0  0  0  0  0  0  0  0  0  0  0
   21.4594   -7.3696  -17.2932 O   0  0  0  0  0  0  0  0  0  0  0  0
   26.2358   -8.2365  -18.4646 O   0  0  0  0  0  0  0  0  0  0  0  0
   22.0130   -6.9815  -15.1173 N   0  0  0  0  0  0  0  0  0  0  0  0
   21.5617   -5.6034  -15.1378 C   0  0  1  0  0  0  0  0  0  0  0  0
   20.0502   -5.5539  -15.3927 C   0  0  0  0  0  0  0  0  0  0  0  0
   19.5202   -4.1772  -15.2770 C   0  0  0  0  0  0  0  0  0  0  0  0
   19.9264   -3.2272  -16.0096 O   0  0  0  0  0  0  0  0  0  0  0  0
   21.9259   -4.9858  -13.8428 C   0  0  0  0  0  0  0  0  0  0  0  0
   22.6099   -5.7138  -12.8536 O   0  0  0  0  0  0  0  0  0  0  0  0
   18.5353   -3.8315  -14.3513 O   0  0  0  0  0  0  0  0  0  0  0  0
   21.6592   -3.7945  -13.5347 O   0  0  0  0  0  0  0  0  0  0  0  0
  2  1  1  0
  2  3  1  0
  3  4  1  1
  5  3  1  0
  5  6  1  6
  7  5  1  0
  8  7  2  0
  9  7  1  0
 10  9  1  0
 11 12  1  0
 10 11  1  6
 12 13  1  0
 13 17  1  0
 14 13  2  0
 15 10  1  0
 15 18  1  0
 16 15  2  0
 19 23  1  0
 19 18  1  0
 20 21  1  0
 19 20  1  1
 21 22  2  0
 23 24  1  0
 25 21  1  0
 26 23  2  0
M  END
$$$$
