FNG.pdb
     RDKit          3D

 24 24  0  0  1  0  0  0  0  0999 V2000
   29.1898  -24.7429  -17.3244 N   0  0  0  0  0  0  0  0  0  0  0  0
   27.8120  -24.6136  -16.9620 C   0  0  1  0  0  0  0  0  0  0  0  0
   27.3497  -25.6152  -15.9439 C   0  0  0  0  0  0  0  0  0  0  0  0
   27.3256  -27.0017  -16.4428 C   0  0  0  0  0  0  0  0  0  0  0  0
   28.3855  -27.8534  -16.3924 C   0  0  0  0  0  0  0  0  0  0  0  0
   28.2855  -29.1200  -16.8748 C   0  0  0  0  0  0  0  0  0  0  0  0
   27.1218  -29.6061  -17.4343 C   0  0  0  0  0  0  0  0  0  0  0  0
   26.0475  -28.7469  -17.4868 C   0  0  0  0  0  0  0  0  0  0  0  0
   26.1341  -27.4614  -17.0020 C   0  0  0  0  0  0  0  0  0  0  0  0
   27.5699  -23.2365  -16.4557 C   0  0  0  0  0  0  0  0  0  0  0  0
   28.5098  -22.4331  -16.2249 O   0  0  0  0  0  0  0  0  0  0  0  0
   27.0569  -18.2505  -15.6771 N   0  0  0  0  0  0  0  0  0  0  0  0
   26.2184  -19.0058  -16.5388 C   0  0  0  0  0  0  0  0  0  0  0  0
   25.1932  -18.4518  -16.9989 O   0  0  0  0  0  0  0  0  0  0  0  0
   26.5609  -20.4109  -16.8752 C   0  0  0  0  0  0  0  0  0  0  0  0
   25.9595  -21.3797  -15.8838 C   0  0  2  0  0  0  0  0  0  0  0  0
   26.2500  -22.7479  -16.2023 N   0  0  0  0  0  0  0  0  0  0  0  0
   24.5305  -21.1247  -15.6134 C   0  0  0  0  0  0  0  0  0  0  0  0
   23.6051  -21.4933  -16.3674 O   0  0  0  0  0  0  0  0  0  0  0  0
   24.1962  -20.4194  -14.4255 N   0  0  0  0  0  0  0  0  0  0  0  0
   22.8365  -20.1349  -14.0423 C   0  0  0  0  0  0  0  0  0  0  0  0
   22.2333  -19.2453  -15.0655 C   0  0  0  0  0  0  0  0  0  0  0  0
   20.9028  -18.8756  -14.9687 O   0  0  0  0  0  0  0  0  0  0  0  0
   22.9018  -18.8126  -16.0277 O   0  0  0  0  0  0  0  0  0  0  0  0
  2  1  1  1
  2 10  1  0
  3  2  1  0
  4  9  2  0
  4  3  1  0
  5  4  1  0
  6  7  1  0
  6  5  2  0
  7  8  2  0
  8  9  1  0
 10 11  2  0
 13 12  1  0
 13 15  1  0
 14 13  2  0
 16 15  1  6
 16 18  1  0
 17 10  1  0
 17 16  1  0
 18 20  1  0
 19 18  2  0
 20 21  1  0
 22 23  1  0
 22 21  1  0
 24 22  2  0
M  END
$$$$
