FNG.pdb
     RDKit          3D

 24 24  0  0  1  0  0  0  0  0999 V2000
   26.8589  -18.2674   -7.7877 N   0  0  0  0  0  0  0  0  0  0  0  0
   27.3021  -19.4273   -8.4980 C   0  0  1  0  0  0  0  0  0  0  0  0
   27.5442  -20.6247   -7.6257 C   0  0  0  0  0  0  0  0  0  0  0  0
   27.9245  -20.2853   -6.2429 C   0  0  0  0  0  0  0  0  0  0  0  0
   27.0712  -20.3152   -5.1835 C   0  0  0  0  0  0  0  0  0  0  0  0
   27.4976  -19.9870   -3.9355 C   0  0  0  0  0  0  0  0  0  0  0  0
   28.7994  -19.6108   -3.6763 C   0  0  0  0  0  0  0  0  0  0  0  0
   29.6654  -19.5795   -4.7461 C   0  0  0  0  0  0  0  0  0  0  0  0
   29.2477  -19.9093   -6.0157 C   0  0  0  0  0  0  0  0  0  0  0  0
   26.3039  -19.7655   -9.5471 C   0  0  0  0  0  0  0  0  0  0  0  0
   25.1406  -19.2870   -9.5437 O   0  0  0  0  0  0  0  0  0  0  0  0
   29.0207  -21.1954  -13.1270 N   0  0  0  0  0  0  0  0  0  0  0  0
   27.7340  -20.6097  -13.2597 C   0  0  0  0  0  0  0  0  0  0  0  0
   27.6649  -19.4171  -13.6374 O   0  0  0  0  0  0  0  0  0  0  0  0
   26.5153  -21.4015  -12.9558 C   0  0  0  0  0  0  0  0  0  0  0  0
   25.7701  -20.8367  -11.7689 C   0  0  2  0  0  0  0  0  0  0  0  0
   26.6128  -20.6569  -10.6219 N   0  0  0  0  0  0  0  0  0  0  0  0
   24.5137  -21.5541  -11.4745 C   0  0  0  0  0  0  0  0  0  0  0  0
   24.3974  -22.4073  -10.5693 O   0  0  0  0  0  0  0  0  0  0  0  0
   23.3754  -21.2514  -12.2702 N   0  0  0  0  0  0  0  0  0  0  0  0
   22.0792  -21.8348  -12.0334 C   0  0  0  0  0  0  0  0  0  0  0  0
   21.0442  -20.7970  -12.2657 C   0  0  0  0  0  0  0  0  0  0  0  0
   19.7048  -21.0983  -12.0879 O   0  0  0  0  0  0  0  0  0  0  0  0
   21.3508  -19.6401  -12.6227 O   0  0  0  0  0  0  0  0  0  0  0  0
  2  1  1  1
  2 10  1  0
  3  2  1  0
  4  9  2  0
  4  3  1  0
  5  4  1  0
  6  7  1  0
  6  5  2  0
  7  8  2  0
  8  9  1  0
 10 11  2  0
 13 12  1  0
 13 15  1  0
 14 13  2  0
 16 15  1  6
 16 18  1  0
 17 10  1  0
 17 16  1  0
 18 20  1  0
 19 18  2  0
 20 21  1  0
 22 23  1  0
 22 21  1  0
 24 22  2  0
M  END
$$$$
