FNG.pdb
     RDKit          3D

 24 24  0  0  1  0  0  0  0  0999 V2000
   28.0055  -20.6048  -10.6934 N   0  0  0  0  0  0  0  0  0  0  0  0
   26.7106  -20.9329  -10.1815 C   0  0  1  0  0  0  0  0  0  0  0  0
   26.3021  -20.1244   -8.9844 C   0  0  0  0  0  0  0  0  0  0  0  0
   27.3298  -20.0632   -7.9300 C   0  0  0  0  0  0  0  0  0  0  0  0
   28.0731  -21.1269   -7.5208 C   0  0  0  0  0  0  0  0  0  0  0  0
   29.0035  -20.9909   -6.5395 C   0  0  0  0  0  0  0  0  0  0  0  0
   29.2430  -19.7856   -5.9125 C   0  0  0  0  0  0  0  0  0  0  0  0
   28.4926  -18.7073   -6.3242 C   0  0  0  0  0  0  0  0  0  0  0  0
   27.5468  -18.8300   -7.3169 C   0  0  0  0  0  0  0  0  0  0  0  0
   25.7043  -20.7688  -11.2639 C   0  0  0  0  0  0  0  0  0  0  0  0
   25.6532  -19.7357  -11.9796 O   0  0  0  0  0  0  0  0  0  0  0  0
   25.3676  -24.5115  -14.0510 N   0  0  0  0  0  0  0  0  0  0  0  0
   24.8073  -23.2093  -14.1311 C   0  0  0  0  0  0  0  0  0  0  0  0
   25.3967  -22.3557  -14.8337 O   0  0  0  0  0  0  0  0  0  0  0  0
   23.5579  -22.8847  -13.3973 C   0  0  0  0  0  0  0  0  0  0  0  0
   23.7186  -21.6411  -12.5541 C   0  0  2  0  0  0  0  0  0  0  0  0
   24.7355  -21.7806  -11.5519 N   0  0  0  0  0  0  0  0  0  0  0  0
   22.4390  -21.1220  -12.0317 C   0  0  0  0  0  0  0  0  0  0  0  0
   22.2189  -20.9095  -10.8204 O   0  0  0  0  0  0  0  0  0  0  0  0
   21.4028  -20.8504  -12.9661 N   0  0  0  0  0  0  0  0  0  0  0  0
   20.0685  -20.4802  -12.5673 C   0  0  0  0  0  0  0  0  0  0  0  0
   19.6902  -19.2352  -13.2808 C   0  0  0  0  0  0  0  0  0  0  0  0
   18.4646  -18.6392  -13.0376 O   0  0  0  0  0  0  0  0  0  0  0  0
   20.4576  -18.6999  -14.1080 O   0  0  0  0  0  0  0  0  0  0  0  0
  2  1  1  6
  2 10  1  0
  3  2  1  0
  4  9  2  0
  4  3  1  0
  5  4  1  0
  6  7  1  0
  6  5  2  0
  7  8  2  0
  8  9  1  0
 10 11  2  0
 13 12  1  0
 13 15  1  0
 14 13  2  0
 16 15  1  1
 16 18  1  0
 17 10  1  0
 17 16  1  0
 18 20  1  0
 19 18  2  0
 20 21  1  0
 22 23  1  0
 22 21  1  0
 24 22  2  0
M  END
$$$$
