FNG.pdb
     RDKit          3D

 24 24  0  0  1  0  0  0  0  0999 V2000
   28.5867  -20.2898  -15.0324 N   0  0  0  0  0  0  0  0  0  0  0  0
   27.5135  -19.4844  -14.5363 C   0  0  1  0  0  0  0  0  0  0  0  0
   26.6676  -18.8624  -15.6091 C   0  0  0  0  0  0  0  0  0  0  0  0
   27.3480  -17.7883  -16.3542 C   0  0  0  0  0  0  0  0  0  0  0  0
   27.8680  -17.9319  -17.6033 C   0  0  0  0  0  0  0  0  0  0  0  0
   28.4829  -16.8922  -18.2262 C   0  0  0  0  0  0  0  0  0  0  0  0
   28.6126  -15.6518  -17.6364 C   0  0  0  0  0  0  0  0  0  0  0  0
   28.0875  -15.5031  -16.3725 C   0  0  0  0  0  0  0  0  0  0  0  0
   27.4620  -16.5472  -15.7293 C   0  0  0  0  0  0  0  0  0  0  0  0
   26.6601  -20.3100  -13.6411 C   0  0  0  0  0  0  0  0  0  0  0  0
   26.4949  -21.5435  -13.8238 O   0  0  0  0  0  0  0  0  0  0  0  0
   25.3804  -21.7857   -8.3069 N   0  0  0  0  0  0  0  0  0  0  0  0
   24.6575  -20.9837   -9.2289 C   0  0  0  0  0  0  0  0  0  0  0  0
   23.4070  -21.0605   -9.2236 O   0  0  0  0  0  0  0  0  0  0  0  0
   25.3778  -20.0849  -10.1659 C   0  0  0  0  0  0  0  0  0  0  0  0
   25.1878  -20.5153  -11.6018 C   0  0  2  0  0  0  0  0  0  0  0  0
   25.9774  -19.7448  -12.5187 N   0  0  0  0  0  0  0  0  0  0  0  0
   23.7686  -20.6296  -11.9929 C   0  0  0  0  0  0  0  0  0  0  0  0
   22.9842  -19.6589  -12.0503 O   0  0  0  0  0  0  0  0  0  0  0  0
   23.2736  -21.9208  -12.3218 N   0  0  0  0  0  0  0  0  0  0  0  0
   21.8764  -22.1859  -12.5545 C   0  0  0  0  0  0  0  0  0  0  0  0
   21.4406  -21.4138  -13.7445 C   0  0  0  0  0  0  0  0  0  0  0  0
   21.6825  -21.9019  -15.0172 O   0  0  0  0  0  0  0  0  0  0  0  0
   20.8519  -20.3183  -13.6301 O   0  0  0  0  0  0  0  0  0  0  0  0
  2  1  1  6
  2 10  1  0
  3  2  1  0
  4  9  2  0
  4  3  1  0
  5  4  1  0
  6  7  1  0
  6  5  2  0
  7  8  2  0
  8  9  1  0
 10 11  2  0
 13 12  1  0
 13 15  1  0
 14 13  2  0
 16 15  1  1
 16 18  1  0
 17 10  1  0
 17 16  1  0
 18 20  1  0
 19 18  2  0
 20 21  1  0
 22 23  1  0
 22 21  1  0
 24 22  2  0
M  END
$$$$
