FNG.pdb
     RDKit          3D

 24 24  0  0  1  0  0  0  0  0999 V2000
   26.2631  -22.6990  -11.4618 N   0  0  0  0  0  0  0  0  0  0  0  0
   25.6328  -21.4327  -11.2485 C   0  0  1  0  0  0  0  0  0  0  0  0
   26.5898  -20.2800  -11.1550 C   0  0  0  0  0  0  0  0  0  0  0  0
   27.4063  -20.2835   -9.9281 C   0  0  0  0  0  0  0  0  0  0  0  0
   28.6839  -20.7462   -9.8584 C   0  0  0  0  0  0  0  0  0  0  0  0
   29.3731  -20.7166   -8.6875 C   0  0  0  0  0  0  0  0  0  0  0  0
   28.8248  -20.2234   -7.5215 C   0  0  0  0  0  0  0  0  0  0  0  0
   27.5322  -19.7544   -7.5886 C   0  0  0  0  0  0  0  0  0  0  0  0
   26.8219  -19.7780   -8.7676 C   0  0  0  0  0  0  0  0  0  0  0  0
   24.6563  -21.1856  -12.3424 C   0  0  0  0  0  0  0  0  0  0  0  0
   24.8295  -21.6277  -13.5072 O   0  0  0  0  0  0  0  0  0  0  0  0
   20.9796  -22.6826  -12.9695 N   0  0  0  0  0  0  0  0  0  0  0  0
   20.3602  -21.5338  -12.4103 C   0  0  0  0  0  0  0  0  0  0  0  0
   19.2334  -21.6704  -11.8799 O   0  0  0  0  0  0  0  0  0  0  0  0
   21.0417  -20.2156  -12.4608 C   0  0  0  0  0  0  0  0  0  0  0  0
   22.4080  -20.3230  -13.0972 C   0  0  2  0  0  0  0  0  0  0  0  0
   23.4616  -20.4289  -12.1294 N   0  0  0  0  0  0  0  0  0  0  0  0
   22.6525  -19.2958  -14.1293 C   0  0  0  0  0  0  0  0  0  0  0  0
   22.8167  -18.0834  -13.8765 O   0  0  0  0  0  0  0  0  0  0  0  0
   22.7029  -19.7178  -15.4857 N   0  0  0  0  0  0  0  0  0  0  0  0
   22.9443  -18.8095  -16.5780 C   0  0  0  0  0  0  0  0  0  0  0  0
   21.8152  -17.8494  -16.6526 C   0  0  0  0  0  0  0  0  0  0  0  0
   22.0625  -16.4895  -16.7309 O   0  0  0  0  0  0  0  0  0  0  0  0
   20.6284  -18.2382  -16.6470 O   0  0  0  0  0  0  0  0  0  0  0  0
  2  1  1  6
  2 10  1  0
  3  2  1  0
  4  9  2  0
  4  3  1  0
  5  4  1  0
  6  7  1  0
  6  5  2  0
  7  8  2  0
  8  9  1  0
 10 11  2  0
 13 12  1  0
 13 15  1  0
 14 13  2  0
 16 15  1  1
 16 18  1  0
 17 10  1  0
 17 16  1  0
 18 20  1  0
 19 18  2  0
 20 21  1  0
 22 23  1  0
 22 21  1  0
 24 22  2  0
M  END
$$$$
