FNG.pdb
     RDKit          3D

 24 24  0  0  1  0  0  0  0  0999 V2000
   33.7243  -24.7287    6.4313 N   0  0  0  0  0  0  0  0  0  0  0  0
   34.6589  -24.4553    5.3834 C   0  0  1  0  0  0  0  0  0  0  0  0
   35.0606  -23.0125    5.2817 C   0  0  0  0  0  0  0  0  0  0  0  0
   33.9315  -22.0971    5.0388 C   0  0  0  0  0  0  0  0  0  0  0  0
   33.4233  -21.2428    5.9679 C   0  0  0  0  0  0  0  0  0  0  0  0
   32.3777  -20.4282    5.6677 C   0  0  0  0  0  0  0  0  0  0  0  0
   31.7819  -20.4214    4.4234 C   0  0  0  0  0  0  0  0  0  0  0  0
   32.2938  -21.2846    3.4810 C   0  0  0  0  0  0  0  0  0  0  0  0
   33.3524  -22.1155    3.7707 C   0  0  0  0  0  0  0  0  0  0  0  0
   35.8676  -25.2993    5.5780 C   0  0  0  0  0  0  0  0  0  0  0  0
   36.1526  -25.8148    6.6894 O   0  0  0  0  0  0  0  0  0  0  0  0
   36.8087  -29.6678    3.4632 N   0  0  0  0  0  0  0  0  0  0  0  0
   36.7070  -28.2926    3.1247 C   0  0  0  0  0  0  0  0  0  0  0  0
   35.6101  -27.8717    2.6895 O   0  0  0  0  0  0  0  0  0  0  0  0
   37.8765  -27.3923    3.2876 C   0  0  0  0  0  0  0  0  0  0  0  0
   37.7845  -26.5914    4.5656 C   0  0  2  0  0  0  0  0  0  0  0  0
   36.7762  -25.5726    4.5079 N   0  0  0  0  0  0  0  0  0  0  0  0
   39.0936  -26.1032    5.0428 C   0  0  0  0  0  0  0  0  0  0  0  0
   40.0055  -26.8515    5.4542 O   0  0  0  0  0  0  0  0  0  0  0  0
   39.3226  -24.7003    5.0304 N   0  0  0  0  0  0  0  0  0  0  0  0
   40.4907  -24.0942    5.6174 C   0  0  0  0  0  0  0  0  0  0  0  0
   41.6738  -24.4572    4.7984 C   0  0  0  0  0  0  0  0  0  0  0  0
   42.9109  -23.9031    5.0793 O   0  0  0  0  0  0  0  0  0  0  0  0
   41.5851  -25.2616    3.8471 O   0  0  0  0  0  0  0  0  0  0  0  0
  2  1  1  1
  2 10  1  0
  3  2  1  0
  4  9  2  0
  4  3  1  0
  5  4  1  0
  6  7  1  0
  6  5  2  0
  7  8  2  0
  8  9  1  0
 10 11  2  0
 13 12  1  0
 13 15  1  0
 14 13  2  0
 16 15  1  6
 16 18  1  0
 17 10  1  0
 17 16  1  0
 18 20  1  0
 19 18  2  0
 20 21  1  0
 22 23  1  0
 22 21  1  0
 24 22  2  0
M  END
$$$$
