FNG.pdb
     RDKit          3D

 24 24  0  0  1  0  0  0  0  0999 V2000
   27.9543  -19.5131  -16.2777 N   0  0  0  0  0  0  0  0  0  0  0  0
   27.2522  -18.8083  -15.2498 C   0  0  1  0  0  0  0  0  0  0  0  0
   26.2384  -17.8269  -15.7624 C   0  0  0  0  0  0  0  0  0  0  0  0
   26.8250  -16.7099  -16.5240 C   0  0  0  0  0  0  0  0  0  0  0  0
   26.9385  -16.6820  -17.8796 C   0  0  0  0  0  0  0  0  0  0  0  0
   27.4931  -15.6138  -18.5108 C   0  0  0  0  0  0  0  0  0  0  0  0
   27.9649  -14.5145  -17.8234 C   0  0  0  0  0  0  0  0  0  0  0  0
   27.8515  -14.5396  -16.4516 C   0  0  0  0  0  0  0  0  0  0  0  0
   27.2921  -15.6147  -15.7987 C   0  0  0  0  0  0  0  0  0  0  0  0
   26.5887  -19.7913  -14.3527 C   0  0  0  0  0  0  0  0  0  0  0  0
   26.2953  -20.9537  -14.7335 O   0  0  0  0  0  0  0  0  0  0  0  0
   24.9211  -21.0026   -8.5956 N   0  0  0  0  0  0  0  0  0  0  0  0
   25.5227  -21.3487   -9.8343 C   0  0  0  0  0  0  0  0  0  0  0  0
   25.5347  -22.5565  -10.1671 O   0  0  0  0  0  0  0  0  0  0  0  0
   26.1160  -20.2974  -10.6988 C   0  0  0  0  0  0  0  0  0  0  0  0
   25.5879  -20.3800  -12.1121 C   0  0  2  0  0  0  0  0  0  0  0  0
   26.2465  -19.4681  -13.0024 N   0  0  0  0  0  0  0  0  0  0  0  0
   24.1145  -20.3221  -12.1880 C   0  0  0  0  0  0  0  0  0  0  0  0
   23.4580  -19.2606  -12.1338 O   0  0  0  0  0  0  0  0  0  0  0  0
   23.4094  -21.5481  -12.3310 N   0  0  0  0  0  0  0  0  0  0  0  0
   21.9742  -21.6392  -12.2387 C   0  0  0  0  0  0  0  0  0  0  0  0
   21.3973  -21.3876  -13.5826 C   0  0  0  0  0  0  0  0  0  0  0  0
   20.3390  -20.5076  -13.7316 O   0  0  0  0  0  0  0  0  0  0  0  0
   21.8457  -21.9556  -14.6005 O   0  0  0  0  0  0  0  0  0  0  0  0
  2  1  1  6
  2 10  1  0
  3  2  1  0
  4  9  2  0
  4  3  1  0
  5  4  1  0
  6  7  1  0
  6  5  2  0
  7  8  2  0
  8  9  1  0
 10 11  2  0
 13 12  1  0
 13 15  1  0
 14 13  2  0
 16 15  1  1
 16 18  1  0
 17 10  1  0
 17 16  1  0
 18 20  1  0
 19 18  2  0
 20 21  1  0
 22 23  1  0
 22 21  1  0
 24 22  2  0
M  END
$$$$
