FNG.pdb
     RDKit          3D

 24 24  0  0  1  0  0  0  0  0999 V2000
   28.2201  -21.1209   -9.5673 N   0  0  0  0  0  0  0  0  0  0  0  0
   26.8701  -20.8293   -9.1947 C   0  0  1  0  0  0  0  0  0  0  0  0
   26.7270  -19.6368   -8.2941 C   0  0  0  0  0  0  0  0  0  0  0  0
   27.4502  -19.7667   -7.0166 C   0  0  0  0  0  0  0  0  0  0  0  0
   27.0300  -20.5302   -5.9717 C   0  0  0  0  0  0  0  0  0  0  0  0
   27.7534  -20.5986   -4.8232 C   0  0  0  0  0  0  0  0  0  0  0  0
   28.9361  -19.9086   -4.6546 C   0  0  0  0  0  0  0  0  0  0  0  0
   29.3641  -19.1352   -5.7101 C   0  0  0  0  0  0  0  0  0  0  0  0
   28.6419  -19.0563   -6.8793 C   0  0  0  0  0  0  0  0  0  0  0  0
   26.0591  -20.6282  -10.4248 C   0  0  0  0  0  0  0  0  0  0  0  0
   26.4285  -19.8637  -11.3528 O   0  0  0  0  0  0  0  0  0  0  0  0
   25.5930  -23.9319  -13.1265 N   0  0  0  0  0  0  0  0  0  0  0  0
   25.0383  -22.6362  -13.2983 C   0  0  0  0  0  0  0  0  0  0  0  0
   25.6482  -21.8263  -14.0344 O   0  0  0  0  0  0  0  0  0  0  0  0
   23.7710  -22.2673  -12.6183 C   0  0  0  0  0  0  0  0  0  0  0  0
   23.9477  -21.0496  -11.7412 C   0  0  2  0  0  0  0  0  0  0  0  0
   24.8097  -21.2957  -10.6212 N   0  0  0  0  0  0  0  0  0  0  0  0
   22.6709  -20.4045  -11.3758 C   0  0  0  0  0  0  0  0  0  0  0  0
   22.0555  -20.6358  -10.3135 O   0  0  0  0  0  0  0  0  0  0  0  0
   22.1163  -19.4675  -12.2896 N   0  0  0  0  0  0  0  0  0  0  0  0
   20.9111  -18.7272  -12.0142 C   0  0  0  0  0  0  0  0  0  0  0  0
   19.7455  -19.6091  -12.2708 C   0  0  0  0  0  0  0  0  0  0  0  0
   18.5839  -19.0867  -12.8132 O   0  0  0  0  0  0  0  0  0  0  0  0
   19.7820  -20.8295  -12.0076 O   0  0  0  0  0  0  0  0  0  0  0  0
  2  1  1  6
  2 10  1  0
  3  2  1  0
  4  9  2  0
  4  3  1  0
  5  4  1  0
  6  7  1  0
  6  5  2  0
  7  8  2  0
  8  9  1  0
 10 11  2  0
 13 12  1  0
 13 15  1  0
 14 13  2  0
 16 15  1  1
 16 18  1  0
 17 10  1  0
 17 16  1  0
 18 20  1  0
 19 18  2  0
 20 21  1  0
 22 23  1  0
 22 21  1  0
 24 22  2  0
M  END
$$$$
