FNG.pdb
     RDKit          3D

 24 24  0  0  1  0  0  0  0  0999 V2000
   22.9864  -12.4360  -17.4938 N   0  0  0  0  0  0  0  0  0  0  0  0
   23.2141  -11.9307  -16.1750 C   0  0  1  0  0  0  0  0  0  0  0  0
   24.6620  -11.7131  -15.8438 C   0  0  0  0  0  0  0  0  0  0  0  0
   25.4612  -12.9513  -15.8310 C   0  0  0  0  0  0  0  0  0  0  0  0
   25.4451  -13.8641  -14.8222 C   0  0  0  0  0  0  0  0  0  0  0  0
   26.2127  -14.9840  -14.8831 C   0  0  0  0  0  0  0  0  0  0  0  0
   27.0387  -15.2543  -15.9547 C   0  0  0  0  0  0  0  0  0  0  0  0
   27.0572  -14.3327  -16.9772 C   0  0  0  0  0  0  0  0  0  0  0  0
   26.2851  -13.1940  -16.9292 C   0  0  0  0  0  0  0  0  0  0  0  0
   22.4649  -10.6573  -16.0065 C   0  0  0  0  0  0  0  0  0  0  0  0
   22.3182   -9.8370  -16.9487 O   0  0  0  0  0  0  0  0  0  0  0  0
   19.1886  -10.5162  -16.0264 N   0  0  0  0  0  0  0  0  0  0  0  0
   18.8772  -10.2348  -14.6700 C   0  0  0  0  0  0  0  0  0  0  0  0
   17.8286  -10.7257  -14.1914 O   0  0  0  0  0  0  0  0  0  0  0  0
   19.7789   -9.3813  -13.8556 C   0  0  0  0  0  0  0  0  0  0  0  0
   21.0804   -9.1089  -14.5732 C   0  0  2  0  0  0  0  0  0  0  0  0
   21.8675  -10.2938  -14.7591 N   0  0  0  0  0  0  0  0  0  0  0  0
   21.8373   -7.9789  -13.9985 C   0  0  0  0  0  0  0  0  0  0  0  0
   22.6578   -8.0971  -13.0639 O   0  0  0  0  0  0  0  0  0  0  0  0
   21.6147   -6.6857  -14.5450 N   0  0  0  0  0  0  0  0  0  0  0  0
   22.4056   -5.5373  -14.1816 C   0  0  0  0  0  0  0  0  0  0  0  0
   21.9289   -4.3689  -14.9624 C   0  0  0  0  0  0  0  0  0  0  0  0
   22.5088   -3.1254  -14.7777 O   0  0  0  0  0  0  0  0  0  0  0  0
   21.0046   -4.4757  -15.7955 O   0  0  0  0  0  0  0  0  0  0  0  0
  2  1  1  6
  2 10  1  0
  3  2  1  0
  4  9  2  0
  4  3  1  0
  5  4  1  0
  6  7  1  0
  6  5  2  0
  7  8  2  0
  8  9  1  0
 10 11  2  0
 13 12  1  0
 13 15  1  0
 14 13  2  0
 16 15  1  1
 16 18  1  0
 17 10  1  0
 17 16  1  0
 18 20  1  0
 19 18  2  0
 20 21  1  0
 22 23  1  0
 22 21  1  0
 24 22  2  0
M  END
$$$$
