FNG.pdb
     RDKit          3D

 24 24  0  0  1  0  0  0  0  0999 V2000
   27.8464  -22.4939  -13.4042 N   0  0  0  0  0  0  0  0  0  0  0  0
   27.1976  -21.7798  -12.3481 C   0  0  1  0  0  0  0  0  0  0  0  0
   27.9614  -20.5844  -11.8572 C   0  0  0  0  0  0  0  0  0  0  0  0
   29.2542  -20.9201  -11.2344 C   0  0  0  0  0  0  0  0  0  0  0  0
   30.4540  -20.8495  -11.8721 C   0  0  0  0  0  0  0  0  0  0  0  0
   31.6056  -21.1771  -11.2289 C   0  0  0  0  0  0  0  0  0  0  0  0
   31.6228  -21.5932   -9.9137 C   0  0  0  0  0  0  0  0  0  0  0  0
   30.4104  -21.6656   -9.2655 C   0  0  0  0  0  0  0  0  0  0  0  0
   29.2360  -21.3370   -9.9041 C   0  0  0  0  0  0  0  0  0  0  0  0
   25.8468  -21.3580  -12.8050 C   0  0  0  0  0  0  0  0  0  0  0  0
   25.4594  -21.5219  -13.9905 O   0  0  0  0  0  0  0  0  0  0  0  0
   23.5166  -20.7725   -8.8903 N   0  0  0  0  0  0  0  0  0  0  0  0
   22.7506  -20.9796  -10.0677 C   0  0  0  0  0  0  0  0  0  0  0  0
   22.1055  -22.0486  -10.1713 O   0  0  0  0  0  0  0  0  0  0  0  0
   22.7253  -19.9489  -11.1362 C   0  0  0  0  0  0  0  0  0  0  0  0
   23.5871  -20.3487  -12.3112 C   0  0  2  0  0  0  0  0  0  0  0  0
   24.9100  -20.7405  -11.9183 N   0  0  0  0  0  0  0  0  0  0  0  0
   23.5628  -19.3659  -13.4127 C   0  0  0  0  0  0  0  0  0  0  0  0
   24.0555  -18.2207  -13.3320 O   0  0  0  0  0  0  0  0  0  0  0  0
   22.9419  -19.7517  -14.6319 N   0  0  0  0  0  0  0  0  0  0  0  0
   22.8937  -18.8948  -15.7894 C   0  0  0  0  0  0  0  0  0  0  0  0
   22.1151  -19.5786  -16.8516 C   0  0  0  0  0  0  0  0  0  0  0  0
   20.8085  -19.2005  -17.1092 O   0  0  0  0  0  0  0  0  0  0  0  0
   22.6120  -20.5007  -17.5318 O   0  0  0  0  0  0  0  0  0  0  0  0
  2  1  1  6
  2 10  1  0
  3  2  1  0
  4  9  2  0
  4  3  1  0
  5  4  1  0
  6  7  1  0
  6  5  2  0
  7  8  2  0
  8  9  1  0
 10 11  2  0
 13 12  1  0
 13 15  1  0
 14 13  2  0
 16 15  1  1
 16 18  1  0
 17 10  1  0
 17 16  1  0
 18 20  1  0
 19 18  2  0
 20 21  1  0
 22 23  1  0
 22 21  1  0
 24 22  2  0
M  END
$$$$
