FNG.pdb
     RDKit          3D

 24 24  0  0  1  0  0  0  0  0999 V2000
   24.3641  -10.2268  -18.2813 N   0  0  0  0  0  0  0  0  0  0  0  0
   24.1232   -9.7700  -16.9472 C   0  0  1  0  0  0  0  0  0  0  0  0
   25.2770   -9.0299  -16.3353 C   0  0  0  0  0  0  0  0  0  0  0  0
   26.5444   -9.7817  -16.3582 C   0  0  0  0  0  0  0  0  0  0  0  0
   26.7361  -10.9807  -15.7442 C   0  0  0  0  0  0  0  0  0  0  0  0
   27.9370  -11.6135  -15.8103 C   0  0  0  0  0  0  0  0  0  0  0  0
   29.0127  -11.0843  -16.4931 C   0  0  0  0  0  0  0  0  0  0  0  0
   28.8220   -9.8712  -17.1155 C   0  0  0  0  0  0  0  0  0  0  0  0
   27.6113   -9.2187  -17.0571 C   0  0  0  0  0  0  0  0  0  0  0  0
   22.9134   -8.9053  -16.9407 C   0  0  0  0  0  0  0  0  0  0  0  0
   22.5316   -8.2803  -17.9634 O   0  0  0  0  0  0  0  0  0  0  0  0
   19.5198   -9.6701  -17.4176 N   0  0  0  0  0  0  0  0  0  0  0  0
   19.0931   -9.6284  -16.0641 C   0  0  0  0  0  0  0  0  0  0  0  0
   18.1500  -10.3779  -15.7195 O   0  0  0  0  0  0  0  0  0  0  0  0
   19.7560   -8.7173  -15.0970 C   0  0  0  0  0  0  0  0  0  0  0  0
   20.9021   -7.9695  -15.7376 C   0  0  2  0  0  0  0  0  0  0  0  0
   22.1144   -8.7360  -15.7668 N   0  0  0  0  0  0  0  0  0  0  0  0
   21.0772   -6.6039  -15.2044 C   0  0  0  0  0  0  0  0  0  0  0  0
   20.1417   -5.7874  -15.0667 O   0  0  0  0  0  0  0  0  0  0  0  0
   22.3878   -6.2021  -14.8282 N   0  0  0  0  0  0  0  0  0  0  0  0
   22.6724   -4.9182  -14.2389 C   0  0  0  0  0  0  0  0  0  0  0  0
   22.9572   -3.9511  -15.3278 C   0  0  0  0  0  0  0  0  0  0  0  0
   23.3930   -2.6722  -15.0259 O   0  0  0  0  0  0  0  0  0  0  0  0
   22.8132   -4.2618  -16.5288 O   0  0  0  0  0  0  0  0  0  0  0  0
  2  1  1  6
  2 10  1  0
  3  2  1  0
  4  9  2  0
  4  3  1  0
  5  4  1  0
  6  7  1  0
  6  5  2  0
  7  8  2  0
  8  9  1  0
 10 11  2  0
 13 12  1  0
 13 15  1  0
 14 13  2  0
 16 15  1  1
 16 18  1  0
 17 10  1  0
 17 16  1  0
 18 20  1  0
 19 18  2  0
 20 21  1  0
 22 23  1  0
 22 21  1  0
 24 22  2  0
M  END
$$$$
