FNG.pdb
     RDKit          3D

 24 24  0  0  1  0  0  0  0  0999 V2000
   36.8981  -29.7626    2.0900 N   0  0  0  0  0  0  0  0  0  0  0  0
   36.5131  -31.1293    2.2640 C   0  0  1  0  0  0  0  0  0  0  0  0
   37.6607  -32.0968    2.2423 C   0  0  0  0  0  0  0  0  0  0  0  0
   38.1131  -32.4516    0.8853 C   0  0  0  0  0  0  0  0  0  0  0  0
   37.4591  -33.3128    0.0595 C   0  0  0  0  0  0  0  0  0  0  0  0
   37.9407  -33.5907   -1.1806 C   0  0  0  0  0  0  0  0  0  0  0  0
   39.1017  -33.0241   -1.6647 C   0  0  0  0  0  0  0  0  0  0  0  0
   39.7659  -32.1522   -0.8316 C   0  0  0  0  0  0  0  0  0  0  0  0
   39.2900  -31.8613    0.4269 C   0  0  0  0  0  0  0  0  0  0  0  0
   35.7677  -31.2650    3.5435 C   0  0  0  0  0  0  0  0  0  0  0  0
   35.9987  -30.5259    4.5347 O   0  0  0  0  0  0  0  0  0  0  0  0
   31.2715  -32.4668    2.4696 N   0  0  0  0  0  0  0  0  0  0  0  0
   31.8364  -31.9436    3.6626 C   0  0  0  0  0  0  0  0  0  0  0  0
   31.7220  -30.7150    3.8800 O   0  0  0  0  0  0  0  0  0  0  0  0
   32.5394  -32.8400    4.6148 C   0  0  0  0  0  0  0  0  0  0  0  0
   33.9403  -32.3524    4.9026 C   0  0  2  0  0  0  0  0  0  0  0  0
   34.7430  -32.2472    3.7182 N   0  0  0  0  0  0  0  0  0  0  0  0
   34.5988  -33.0867    6.0013 C   0  0  0  0  0  0  0  0  0  0  0  0
   35.2194  -34.1597    5.8449 O   0  0  0  0  0  0  0  0  0  0  0  0
   34.5180  -32.5354    7.3090 N   0  0  0  0  0  0  0  0  0  0  0  0
   35.2092  -33.1016    8.4396 C   0  0  0  0  0  0  0  0  0  0  0  0
   34.4734  -34.3103    8.8865 C   0  0  0  0  0  0  0  0  0  0  0  0
   33.3722  -34.7566    8.1761 O   0  0  0  0  0  0  0  0  0  0  0  0
   34.8241  -34.9479    9.9015 O   0  0  0  0  0  0  0  0  0  0  0  0
  2  1  1  1
  2 10  1  0
  3  2  1  0
  4  9  2  0
  4  3  1  0
  5  4  1  0
  6  7  1  0
  6  5  2  0
  7  8  2  0
  8  9  1  0
 10 11  2  0
 13 12  1  0
 13 15  1  0
 14 13  2  0
 16 15  1  6
 16 18  1  0
 17 10  1  0
 17 16  1  0
 18 20  1  0
 19 18  2  0
 20 21  1  0
 22 23  1  0
 22 21  1  0
 24 22  2  0
M  END
$$$$
