DKD.pdb
     RDKit          3D

 26 25  0  0  1  0  0  0  0  0999 V2000
   10.5299  -17.4340   14.5926 N   0  0  0  0  0  0  0  0  0  0  0  0
   11.8302  -16.9015   14.7951 C   0  0  1  0  0  0  0  0  0  0  0  0
   12.3644  -16.0931   13.6592 C   0  0  0  0  0  0  0  0  0  0  0  0
   12.4278  -16.8564   12.3882 C   0  0  0  0  0  0  0  0  0  0  0  0
   13.5214  -17.2558   11.9226 O   0  0  0  0  0  0  0  0  0  0  0  0
   11.8324  -16.0635   16.0206 C   0  0  0  0  0  0  0  0  0  0  0  0
   12.8947  -15.5456   16.4478 O   0  0  0  0  0  0  0  0  0  0  0  0
   11.2668  -17.1347   11.7020 O   0  0  0  0  0  0  0  0  0  0  0  0
   10.6172  -15.8565   16.7010 N   0  0  0  0  0  0  0  0  0  0  0  0
   10.5405  -15.1322   17.9596 C   0  0  1  0  0  0  0  0  0  0  0  0
    9.1167  -14.8040   18.3209 C   0  0  0  0  0  0  0  0  0  0  0  0
    9.0123  -14.0973   19.6509 C   0  0  0  0  0  0  0  0  0  0  0  0
    8.2905  -12.7720   19.4216 C   0  0  0  0  0  0  0  0  0  0  0  0
    8.2018  -12.0925   20.7782 C   0  0  0  0  0  0  0  0  0  0  0  0
    7.4915  -10.8360   20.7093 N   0  0  0  0  0  0  0  0  0  0  0  0
   11.2381  -15.8731   19.0346 C   0  0  0  0  0  0  0  0  0  0  0  0
   11.1059  -17.1200   19.1231 O   0  0  0  0  0  0  0  0  0  0  0  0
   12.0492  -15.1747   19.9564 N   0  0  0  0  0  0  0  0  0  0  0  0
   12.8058  -15.8733   21.0307 C   0  0  1  0  0  0  0  0  0  0  0  0
   14.0101  -15.0272   21.3630 C   0  0  0  0  0  0  0  0  0  0  0  0
   14.8953  -15.5764   22.3827 C   0  0  0  0  0  0  0  0  0  0  0  0
   14.6968  -16.6903   22.8957 O   0  0  0  0  0  0  0  0  0  0  0  0
   11.9088  -15.9558   22.2157 C   0  0  0  0  0  0  0  0  0  0  0  0
   10.8268  -15.3510   22.3253 O   0  0  0  0  0  0  0  0  0  0  0  0
   16.0258  -14.8805   22.8476 O   0  0  0  0  0  0  0  0  0  0  0  0
   12.2692  -16.7581   23.3053 O   0  0  0  0  0  0  0  0  0  0  0  0
  2  1  1  6
  2  3  1  0
  3  4  1  0
  4  8  1  0
  4  5  2  0
  6  2  1  0
  7  6  2  0
  9  6  1  0
 10  9  1  0
 10 11  1  1
 11 12  1  0
 13 14  1  0
 13 12  1  0
 15 14  1  0
 16 17  2  0
 16 10  1  0
 18 16  1  0
 19 18  1  0
 19 20  1  1
 20 21  1  0
 21 25  1  0
 21 22  2  0
 23 19  1  0
 24 23  2  0
 26 23  1  0
M  END
$$$$
