DKD.pdb
     RDKit          3D

 26 25  0  0  1  0  0  0  0  0999 V2000
   -2.1812  -26.8517   24.4001 N   0  0  0  0  0  0  0  0  0  0  0  0
   -2.7405  -25.5945   24.7496 C   0  0  1  0  0  0  0  0  0  0  0  0
   -3.4692  -24.9002   23.6469 C   0  0  0  0  0  0  0  0  0  0  0  0
   -2.5824  -24.5212   22.5190 C   0  0  0  0  0  0  0  0  0  0  0  0
   -1.3438  -24.7092   22.5733 O   0  0  0  0  0  0  0  0  0  0  0  0
   -3.6656  -25.7704   25.8972 C   0  0  0  0  0  0  0  0  0  0  0  0
   -4.8109  -26.2616   25.7350 O   0  0  0  0  0  0  0  0  0  0  0  0
   -3.1238  -23.9517   21.3882 O   0  0  0  0  0  0  0  0  0  0  0  0
   -3.2365  -25.3760   27.1790 N   0  0  0  0  0  0  0  0  0  0  0  0
   -4.0920  -25.4674   28.3514 C   0  0  1  0  0  0  0  0  0  0  0  0
   -3.2937  -25.7504   29.5956 C   0  0  0  0  0  0  0  0  0  0  0  0
   -2.7074  -27.1416   29.5951 C   0  0  0  0  0  0  0  0  0  0  0  0
   -1.8700  -27.2973   30.8618 C   0  0  0  0  0  0  0  0  0  0  0  0
   -1.3484  -28.7248   30.8573 C   0  0  0  0  0  0  0  0  0  0  0  0
   -0.3693  -28.9471   31.8966 N   0  0  0  0  0  0  0  0  0  0  0  0
   -4.9315  -24.2556   28.4841 C   0  0  0  0  0  0  0  0  0  0  0  0
   -4.4007  -23.1173   28.4309 O   0  0  0  0  0  0  0  0  0  0  0  0
   -6.3259  -24.3841   28.6701 N   0  0  0  0  0  0  0  0  0  0  0  0
   -7.2252  -23.2010   28.7472 C   0  0  1  0  0  0  0  0  0  0  0  0
   -8.6454  -23.7025   28.6586 C   0  0  0  0  0  0  0  0  0  0  0  0
   -9.6765  -22.6801   28.7875 C   0  0  0  0  0  0  0  0  0  0  0  0
   -9.5323  -21.5378   28.3211 O   0  0  0  0  0  0  0  0  0  0  0  0
   -7.0000  -22.5653   30.0741 C   0  0  0  0  0  0  0  0  0  0  0  0
   -6.7586  -23.1888   31.1236 O   0  0  0  0  0  0  0  0  0  0  0  0
  -10.8951  -22.9234   29.4465 O   0  0  0  0  0  0  0  0  0  0  0  0
   -7.0546  -21.1712   30.1948 O   0  0  0  0  0  0  0  0  0  0  0  0
  2  1  1  6
  2  3  1  0
  3  4  1  0
  4  8  1  0
  4  5  2  0
  6  2  1  0
  7  6  2  0
  9  6  1  0
 10  9  1  0
 10 11  1  1
 11 12  1  0
 13 14  1  0
 13 12  1  0
 15 14  1  0
 16 17  2  0
 16 10  1  0
 18 16  1  0
 19 18  1  0
 19 20  1  1
 20 21  1  0
 21 25  1  0
 21 22  2  0
 23 19  1  0
 24 23  2  0
 26 23  1  0
M  END
$$$$
