DKD.pdb
     RDKit          3D

 26 25  0  0  1  0  0  0  0  0999 V2000
   11.0487  -16.3748   16.0110 N   0  0  0  0  0  0  0  0  0  0  0  0
   11.6268  -17.2289   16.9866 C   0  0  1  0  0  0  0  0  0  0  0  0
   12.9048  -17.8819   16.5751 C   0  0  0  0  0  0  0  0  0  0  0  0
   12.8656  -18.4010   15.1855 C   0  0  0  0  0  0  0  0  0  0  0  0
   13.8492  -18.2799   14.4174 O   0  0  0  0  0  0  0  0  0  0  0  0
   11.8630  -16.4601   18.2344 C   0  0  0  0  0  0  0  0  0  0  0  0
   13.0176  -16.0756   18.5481 O   0  0  0  0  0  0  0  0  0  0  0  0
   11.7299  -19.0288   14.7245 O   0  0  0  0  0  0  0  0  0  0  0  0
   10.7656  -16.1663   19.0663 N   0  0  0  0  0  0  0  0  0  0  0  0
   10.9062  -15.4349   20.3153 C   0  0  1  0  0  0  0  0  0  0  0  0
    9.5982  -14.8309   20.7507 C   0  0  0  0  0  0  0  0  0  0  0  0
    9.1513  -13.7148   19.8376 C   0  0  0  0  0  0  0  0  0  0  0  0
    7.6565  -13.8886   19.5824 C   0  0  0  0  0  0  0  0  0  0  0  0
    7.2593  -12.7957   18.6038 C   0  0  0  0  0  0  0  0  0  0  0  0
    5.8416  -12.8076   18.3245 N   0  0  0  0  0  0  0  0  0  0  0  0
   11.5063  -16.2934   21.3613 C   0  0  0  0  0  0  0  0  0  0  0  0
   11.2036  -17.5120   21.4206 O   0  0  0  0  0  0  0  0  0  0  0  0
   12.4164  -15.7386   22.2882 N   0  0  0  0  0  0  0  0  0  0  0  0
   13.1070  -16.5695   23.3115 C   0  0  1  0  0  0  0  0  0  0  0  0
   14.2883  -15.7790   23.8178 C   0  0  0  0  0  0  0  0  0  0  0  0
   15.4030  -16.5750   24.3168 C   0  0  0  0  0  0  0  0  0  0  0  0
   15.3423  -17.8130   24.3997 O   0  0  0  0  0  0  0  0  0  0  0  0
   12.1398  -16.7914   24.4210 C   0  0  0  0  0  0  0  0  0  0  0  0
   11.1917  -16.0328   24.6931 O   0  0  0  0  0  0  0  0  0  0  0  0
   16.6128  -15.9916   24.7344 O   0  0  0  0  0  0  0  0  0  0  0  0
   12.2693  -17.9198   25.2402 O   0  0  0  0  0  0  0  0  0  0  0  0
  2  1  1  6
  2  3  1  0
  3  4  1  0
  4  8  1  0
  4  5  2  0
  6  2  1  0
  7  6  2  0
  9  6  1  0
 10  9  1  0
 10 11  1  1
 11 12  1  0
 13 14  1  0
 13 12  1  0
 15 14  1  0
 16 17  2  0
 16 10  1  0
 18 16  1  0
 19 18  1  0
 19 20  1  1
 20 21  1  0
 21 25  1  0
 21 22  2  0
 23 19  1  0
 24 23  2  0
 26 23  1  0
M  END
$$$$
