DKD.pdb
     RDKit          3D

 26 25  0  0  1  0  0  0  0  0999 V2000
    8.2948  -15.6086   18.0333 N   0  0  0  0  0  0  0  0  0  0  0  0
    7.8746  -16.3794   19.1491 C   0  0  1  0  0  0  0  0  0  0  0  0
    8.1737  -17.8391   19.0556 C   0  0  0  0  0  0  0  0  0  0  0  0
    7.5773  -18.4739   17.8542 C   0  0  0  0  0  0  0  0  0  0  0  0
    8.2925  -19.0428   16.9957 O   0  0  0  0  0  0  0  0  0  0  0  0
    8.5019  -15.8410   20.3822 C   0  0  0  0  0  0  0  0  0  0  0  0
    9.7497  -15.8534   20.5312 O   0  0  0  0  0  0  0  0  0  0  0  0
    6.2126  -18.4410   17.6728 O   0  0  0  0  0  0  0  0  0  0  0  0
    7.6712  -15.3124   21.3888 N   0  0  0  0  0  0  0  0  0  0  0  0
    8.1960  -14.7934   22.6417 C   0  0  1  0  0  0  0  0  0  0  0  0
    7.1557  -14.0045   23.3905 C   0  0  0  0  0  0  0  0  0  0  0  0
    7.6869  -13.4435   24.6876 C   0  0  0  0  0  0  0  0  0  0  0  0
    6.5710  -12.6301   25.3379 C   0  0  0  0  0  0  0  0  0  0  0  0
    7.1515  -12.0547   26.6192 C   0  0  0  0  0  0  0  0  0  0  0  0
    6.1976  -11.2283   27.3229 N   0  0  0  0  0  0  0  0  0  0  0  0
    8.7738  -15.8831   23.4601 C   0  0  0  0  0  0  0  0  0  0  0  0
    8.0801  -16.8947   23.7351 O   0  0  0  0  0  0  0  0  0  0  0  0
   10.1026  -15.7808   23.9283 N   0  0  0  0  0  0  0  0  0  0  0  0
   10.7830  -16.9050   24.6268 C   0  0  1  0  0  0  0  0  0  0  0  0
   12.2665  -16.6323   24.5898 C   0  0  0  0  0  0  0  0  0  0  0  0
   13.1025  -17.6475   25.2189 C   0  0  0  0  0  0  0  0  0  0  0  0
   13.3239  -17.6525   26.4413 O   0  0  0  0  0  0  0  0  0  0  0  0
   10.3068  -16.8968   26.0370 C   0  0  0  0  0  0  0  0  0  0  0  0
    9.8195  -15.9065   26.6117 O   0  0  0  0  0  0  0  0  0  0  0  0
   13.7087  -18.6810   24.4822 O   0  0  0  0  0  0  0  0  0  0  0  0
   10.3951  -18.0633   26.8068 O   0  0  0  0  0  0  0  0  0  0  0  0
  2  1  1  6
  2  3  1  0
  3  4  1  0
  4  8  1  0
  4  5  2  0
  6  2  1  0
  7  6  2  0
  9  6  1  0
 10  9  1  0
 10 11  1  1
 11 12  1  0
 13 14  1  0
 13 12  1  0
 15 14  1  0
 16 17  2  0
 16 10  1  0
 18 16  1  0
 19 18  1  0
 19 20  1  1
 20 21  1  0
 21 25  1  0
 21 22  2  0
 23 19  1  0
 24 23  2  0
 26 23  1  0
M  END
$$$$
