DKD.pdb
     RDKit          3D

 26 25  0  0  1  0  0  0  0  0999 V2000
   14.0862  -18.6925   14.2938 N   0  0  0  0  0  0  0  0  0  0  0  0
   14.9003  -19.4566   15.1706 C   0  0  1  0  0  0  0  0  0  0  0  0
   16.3631  -19.1713   15.0818 C   0  0  0  0  0  0  0  0  0  0  0  0
   16.8719  -19.1974   13.6880 C   0  0  0  0  0  0  0  0  0  0  0  0
   17.9115  -18.5763   13.3629 O   0  0  0  0  0  0  0  0  0  0  0  0
   14.4549  -19.2383   16.5698 C   0  0  0  0  0  0  0  0  0  0  0  0
   14.6087  -18.1244   17.1309 O   0  0  0  0  0  0  0  0  0  0  0  0
   16.1938  -19.9155   12.7285 O   0  0  0  0  0  0  0  0  0  0  0  0
   13.8530  -20.3061   17.2629 N   0  0  0  0  0  0  0  0  0  0  0  0
   13.3616  -20.1747   18.6252 C   0  0  1  0  0  0  0  0  0  0  0  0
   12.0882  -20.9505   18.8291 C   0  0  0  0  0  0  0  0  0  0  0  0
   11.5343  -20.7847   20.2238 C   0  0  0  0  0  0  0  0  0  0  0  0
   10.2831  -21.6516   20.3369 C   0  0  0  0  0  0  0  0  0  0  0  0
    9.7762  -21.4880   21.7603 C   0  0  0  0  0  0  0  0  0  0  0  0
    8.6399  -22.3385   22.0319 N   0  0  0  0  0  0  0  0  0  0  0  0
   14.4112  -20.5483   19.5998 C   0  0  0  0  0  0  0  0  0  0  0  0
   15.0674  -21.6081   19.4377 O   0  0  0  0  0  0  0  0  0  0  0  0
   14.6704  -19.7115   20.7080 N   0  0  0  0  0  0  0  0  0  0  0  0
   15.6671  -20.0704   21.7531 C   0  0  1  0  0  0  0  0  0  0  0  0
   16.6203  -18.9089   21.8907 C   0  0  0  0  0  0  0  0  0  0  0  0
   17.5780  -18.7564   20.8023 C   0  0  0  0  0  0  0  0  0  0  0  0
   18.0201  -19.7323   20.1733 O   0  0  0  0  0  0  0  0  0  0  0  0
   14.9188  -20.2583   23.0260 C   0  0  0  0  0  0  0  0  0  0  0  0
   13.7236  -19.9551   23.1934 O   0  0  0  0  0  0  0  0  0  0  0  0
   18.0595  -17.4980   20.3984 O   0  0  0  0  0  0  0  0  0  0  0  0
   15.5667  -20.8111   24.1376 O   0  0  0  0  0  0  0  0  0  0  0  0
  2  1  1  6
  2  3  1  0
  3  4  1  0
  4  8  1  0
  4  5  2  0
  6  2  1  0
  7  6  2  0
  9  6  1  0
 10  9  1  0
 10 11  1  6
 11 12  1  0
 13 14  1  0
 13 12  1  0
 15 14  1  0
 16 17  2  0
 16 10  1  0
 18 16  1  0
 19 18  1  0
 19 20  1  1
 20 21  1  0
 21 25  1  0
 21 22  2  0
 23 19  1  0
 24 23  2  0
 26 23  1  0
M  END
$$$$
