DKD.pdb
     RDKit          3D

 26 25  0  0  1  0  0  0  0  0999 V2000
    9.7339  -18.7560   17.9377 N   0  0  0  0  0  0  0  0  0  0  0  0
   11.0051  -18.1360   18.0608 C   0  0  1  0  0  0  0  0  0  0  0  0
   11.4085  -17.2890   16.8993 C   0  0  0  0  0  0  0  0  0  0  0  0
   11.6109  -18.0739   15.6563 C   0  0  0  0  0  0  0  0  0  0  0  0
   12.7611  -18.3591   15.2465 O   0  0  0  0  0  0  0  0  0  0  0  0
   11.0288  -17.3040   19.2900 C   0  0  0  0  0  0  0  0  0  0  0  0
   12.0576  -16.6594   19.6148 O   0  0  0  0  0  0  0  0  0  0  0  0
   10.5185  -18.5001   14.9342 O   0  0  0  0  0  0  0  0  0  0  0  0
    9.8725  -17.2477   20.0916 N   0  0  0  0  0  0  0  0  0  0  0  0
    9.8052  -16.4583   21.3110 C   0  0  1  0  0  0  0  0  0  0  0  0
    8.3810  -16.1682   21.7019 C   0  0  0  0  0  0  0  0  0  0  0  0
    7.6019  -15.5181   20.5840 C   0  0  0  0  0  0  0  0  0  0  0  0
    8.0816  -14.0747   20.4565 C   0  0  0  0  0  0  0  0  0  0  0  0
    7.2648  -13.4493   19.3378 C   0  0  0  0  0  0  0  0  0  0  0  0
    7.5931  -12.0559   19.1410 N   0  0  0  0  0  0  0  0  0  0  0  0
   10.5669  -17.1096   22.4003 C   0  0  0  0  0  0  0  0  0  0  0  0
   10.3826  -18.3274   22.6518 O   0  0  0  0  0  0  0  0  0  0  0  0
   11.4977  -16.3591   23.1524 N   0  0  0  0  0  0  0  0  0  0  0  0
   12.2965  -16.9646   24.2523 C   0  0  1  0  0  0  0  0  0  0  0  0
   13.5322  -16.1186   24.4362 C   0  0  0  0  0  0  0  0  0  0  0  0
   14.6015  -16.3601   23.4753 C   0  0  0  0  0  0  0  0  0  0  0  0
   14.5375  -17.2732   22.6354 O   0  0  0  0  0  0  0  0  0  0  0  0
   11.4616  -16.9068   25.4832 C   0  0  0  0  0  0  0  0  0  0  0  0
   11.7538  -17.4562   26.5607 O   0  0  0  0  0  0  0  0  0  0  0  0
   15.7688  -15.5761   23.4402 O   0  0  0  0  0  0  0  0  0  0  0  0
   10.2554  -16.1953   25.4716 O   0  0  0  0  0  0  0  0  0  0  0  0
  2  1  1  6
  2  3  1  0
  3  4  1  0
  4  8  1  0
  4  5  2  0
  6  2  1  0
  7  6  2  0
  9  6  1  0
 10  9  1  0
 10 11  1  1
 11 12  1  0
 13 14  1  0
 13 12  1  0
 15 14  1  0
 16 17  2  0
 16 10  1  0
 18 16  1  0
 19 18  1  0
 19 20  1  1
 20 21  1  0
 21 25  1  0
 21 22  2  0
 23 19  1  0
 24 23  2  0
 26 23  1  0
M  END
$$$$
