DKD.pdb
     RDKit          3D

 26 25  0  0  1  0  0  0  0  0999 V2000
    7.4417  -16.9673   19.4399 N   0  0  0  0  0  0  0  0  0  0  0  0
    8.8600  -16.9314   19.4934 C   0  0  1  0  0  0  0  0  0  0  0  0
    9.5183  -16.2707   18.3276 C   0  0  0  0  0  0  0  0  0  0  0  0
    9.0630  -16.8144   17.0241 C   0  0  0  0  0  0  0  0  0  0  0  0
    8.9715  -18.0499   16.8304 O   0  0  0  0  0  0  0  0  0  0  0  0
    9.2874  -16.2428   20.7371 C   0  0  0  0  0  0  0  0  0  0  0  0
   10.5052  -16.0688   20.9940 O   0  0  0  0  0  0  0  0  0  0  0  0
    8.7331  -15.9509   16.0034 O   0  0  0  0  0  0  0  0  0  0  0  0
    8.3001  -15.7841   21.6302 N   0  0  0  0  0  0  0  0  0  0  0  0
    8.6264  -15.1844   22.9141 C   0  0  1  0  0  0  0  0  0  0  0  0
    7.4692  -14.3940   23.4634 C   0  0  0  0  0  0  0  0  0  0  0  0
    7.7775  -13.7907   24.8125 C   0  0  0  0  0  0  0  0  0  0  0  0
    6.5533  -12.9974   25.2616 C   0  0  0  0  0  0  0  0  0  0  0  0
    6.8958  -12.4158   26.6233 C   0  0  0  0  0  0  0  0  0  0  0  0
    5.8767  -11.5070   27.0962 N   0  0  0  0  0  0  0  0  0  0  0  0
    9.1096  -16.2107   23.8650 C   0  0  0  0  0  0  0  0  0  0  0  0
    8.3796  -17.1939   24.1492 O   0  0  0  0  0  0  0  0  0  0  0  0
   10.3892  -16.0802   24.4489 N   0  0  0  0  0  0  0  0  0  0  0  0
   11.0136  -17.1770   25.2372 C   0  0  1  0  0  0  0  0  0  0  0  0
   12.4990  -17.1372   24.9749 C   0  0  0  0  0  0  0  0  0  0  0  0
   13.2908  -18.1024   25.7276 C   0  0  0  0  0  0  0  0  0  0  0  0
   13.1908  -19.3260   25.5379 O   0  0  0  0  0  0  0  0  0  0  0  0
   10.7505  -16.8887   26.6736 C   0  0  0  0  0  0  0  0  0  0  0  0
   11.0832  -17.6313   27.6150 O   0  0  0  0  0  0  0  0  0  0  0  0
   14.2142  -17.7086   26.7128 O   0  0  0  0  0  0  0  0  0  0  0  0
   10.0847  -15.7109   27.0351 O   0  0  0  0  0  0  0  0  0  0  0  0
  2  1  1  6
  2  3  1  0
  3  4  1  0
  4  8  1  0
  4  5  2  0
  6  2  1  0
  7  6  2  0
  9  6  1  0
 10  9  1  0
 10 11  1  1
 11 12  1  0
 13 14  1  0
 13 12  1  0
 15 14  1  0
 16 17  2  0
 16 10  1  0
 18 16  1  0
 19 18  1  0
 19 20  1  1
 20 21  1  0
 21 25  1  0
 21 22  2  0
 23 19  1  0
 24 23  2  0
 26 23  1  0
M  END
$$$$
