DKD.pdb
     RDKit          3D

 26 25  0  0  1  0  0  0  0  0999 V2000
    7.8052  -12.9559   17.5371 N   0  0  0  0  0  0  0  0  0  0  0  0
    7.9338  -14.2317   18.1465 C   0  0  1  0  0  0  0  0  0  0  0  0
    8.7537  -15.2166   17.3805 C   0  0  0  0  0  0  0  0  0  0  0  0
    8.0933  -15.6682   16.1307 C   0  0  0  0  0  0  0  0  0  0  0  0
    7.0731  -15.0892   15.6877 O   0  0  0  0  0  0  0  0  0  0  0  0
    8.5204  -14.0722   19.5008 C   0  0  0  0  0  0  0  0  0  0  0  0
    9.7191  -13.7254   19.6495 O   0  0  0  0  0  0  0  0  0  0  0  0
    8.6056  -16.7434   15.4395 O   0  0  0  0  0  0  0  0  0  0  0  0
    7.7069  -14.3169   20.6239 N   0  0  0  0  0  0  0  0  0  0  0  0
    8.2113  -14.2386   21.9855 C   0  0  1  0  0  0  0  0  0  0  0  0
    7.1290  -13.8396   22.9522 C   0  0  0  0  0  0  0  0  0  0  0  0
    7.6262  -13.7839   24.3767 C   0  0  0  0  0  0  0  0  0  0  0  0
    6.4243  -13.5299   25.2826 C   0  0  0  0  0  0  0  0  0  0  0  0
    6.9699  -13.4195   26.6968 C   0  0  0  0  0  0  0  0  0  0  0  0
    5.9154  -13.2833   27.6753 N   0  0  0  0  0  0  0  0  0  0  0  0
    8.8743  -15.5041   22.3729 C   0  0  0  0  0  0  0  0  0  0  0  0
    8.7253  -16.5315   21.6641 O   0  0  0  0  0  0  0  0  0  0  0  0
    9.6717  -15.5511   23.5380 N   0  0  0  0  0  0  0  0  0  0  0  0
   10.7312  -16.5783   23.7295 C   0  0  1  0  0  0  0  0  0  0  0  0
   11.9371  -16.1417   22.9346 C   0  0  0  0  0  0  0  0  0  0  0  0
   13.0955  -17.0221   23.0256 C   0  0  0  0  0  0  0  0  0  0  0  0
   13.0648  -18.1943   22.6154 O   0  0  0  0  0  0  0  0  0  0  0  0
   11.0666  -16.5966   25.1796 C   0  0  0  0  0  0  0  0  0  0  0  0
   10.7149  -15.7262   25.9964 O   0  0  0  0  0  0  0  0  0  0  0  0
   14.3161  -16.5995   23.5823 O   0  0  0  0  0  0  0  0  0  0  0  0
   11.8290  -17.6481   25.7030 O   0  0  0  0  0  0  0  0  0  0  0  0
  2  1  1  6
  2  3  1  0
  3  4  1  0
  4  8  1  0
  4  5  2  0
  6  2  1  0
  7  6  2  0
  9  6  1  0
 10  9  1  0
 10 11  1  1
 11 12  1  0
 13 14  1  0
 13 12  1  0
 15 14  1  0
 16 17  2  0
 16 10  1  0
 18 16  1  0
 19 18  1  0
 19 20  1  6
 20 21  1  0
 21 25  1  0
 21 22  2  0
 23 19  1  0
 24 23  2  0
 26 23  1  0
M  END
$$$$
