DKD.pdb
     RDKit          3D

 26 25  0  0  1  0  0  0  0  0999 V2000
   10.8581  -16.8286   15.7673 N   0  0  0  0  0  0  0  0  0  0  0  0
   11.6150  -17.5558   16.7233 C   0  0  1  0  0  0  0  0  0  0  0  0
   13.0961  -17.4370   16.5773 C   0  0  0  0  0  0  0  0  0  0  0  0
   13.5760  -17.8320   15.2299 C   0  0  0  0  0  0  0  0  0  0  0  0
   13.1291  -18.8515   14.6527 O   0  0  0  0  0  0  0  0  0  0  0  0
   11.2326  -17.1173   18.0890 C   0  0  0  0  0  0  0  0  0  0  0  0
   11.3619  -15.9184   18.4431 O   0  0  0  0  0  0  0  0  0  0  0  0
   14.5306  -17.0686   14.5958 O   0  0  0  0  0  0  0  0  0  0  0  0
   10.7190  -18.0722   18.9875 N   0  0  0  0  0  0  0  0  0  0  0  0
   10.2309  -17.7166   20.3103 C   0  0  1  0  0  0  0  0  0  0  0  0
    8.9664  -18.4591   20.6493 C   0  0  0  0  0  0  0  0  0  0  0  0
    7.9124  -18.3130   19.5782 C   0  0  0  0  0  0  0  0  0  0  0  0
    6.6837  -19.1040   20.0192 C   0  0  0  0  0  0  0  0  0  0  0  0
    5.6064  -18.8353   18.9815 C   0  0  0  0  0  0  0  0  0  0  0  0
    4.3866  -19.5549   19.2680 N   0  0  0  0  0  0  0  0  0  0  0  0
   11.2877  -17.9093   21.3288 C   0  0  0  0  0  0  0  0  0  0  0  0
   11.8576  -19.0246   21.4362 O   0  0  0  0  0  0  0  0  0  0  0  0
   11.6506  -16.8385   22.1754 N   0  0  0  0  0  0  0  0  0  0  0  0
   12.6004  -17.0133   23.3076 C   0  0  1  0  0  0  0  0  0  0  0  0
   13.5233  -15.8197   23.3157 C   0  0  0  0  0  0  0  0  0  0  0  0
   14.5756  -15.8388   22.3070 C   0  0  0  0  0  0  0  0  0  0  0  0
   15.1287  -14.7984   21.9134 O   0  0  0  0  0  0  0  0  0  0  0  0
   11.7929  -17.0310   24.5580 C   0  0  0  0  0  0  0  0  0  0  0  0
   12.2495  -17.2742   25.6897 O   0  0  0  0  0  0  0  0  0  0  0  0
   15.0281  -17.0336   21.7185 O   0  0  0  0  0  0  0  0  0  0  0  0
   10.4200  -16.7607   24.5021 O   0  0  0  0  0  0  0  0  0  0  0  0
  2  1  1  6
  2  3  1  0
  3  4  1  0
  4  8  1  0
  4  5  2  0
  6  2  1  0
  7  6  2  0
  9  6  1  0
 10  9  1  0
 10 11  1  1
 11 12  1  0
 13 14  1  0
 13 12  1  0
 15 14  1  0
 16 17  2  0
 16 10  1  0
 18 16  1  0
 19 18  1  0
 19 20  1  1
 20 21  1  0
 21 25  1  0
 21 22  2  0
 23 19  1  0
 24 23  2  0
 26 23  1  0
M  END
$$$$
