DKD.pdb
     RDKit          3D

 26 25  0  0  1  0  0  0  0  0999 V2000
    9.9630  -15.9122   19.4062 N   0  0  0  0  0  0  0  0  0  0  0  0
    9.2371  -16.5630   20.4384 C   0  0  1  0  0  0  0  0  0  0  0  0
    9.4894  -18.0296   20.5583 C   0  0  0  0  0  0  0  0  0  0  0  0
    9.0182  -18.7940   19.3768 C   0  0  0  0  0  0  0  0  0  0  0  0
    9.7183  -19.7005   18.8665 O   0  0  0  0  0  0  0  0  0  0  0  0
    9.5463  -15.9170   21.7387 C   0  0  0  0  0  0  0  0  0  0  0  0
   10.7346  -15.7602   22.1164 O   0  0  0  0  0  0  0  0  0  0  0  0
    7.7894  -18.5072   18.8255 O   0  0  0  0  0  0  0  0  0  0  0  0
    8.4799  -15.4794   22.5475 N   0  0  0  0  0  0  0  0  0  0  0  0
    8.6870  -14.8843   23.8581 C   0  0  1  0  0  0  0  0  0  0  0  0
    7.5269  -14.0123   24.2570 C   0  0  0  0  0  0  0  0  0  0  0  0
    7.6726  -13.4725   25.6595 C   0  0  0  0  0  0  0  0  0  0  0  0
    6.4312  -12.6415   25.9728 C   0  0  0  0  0  0  0  0  0  0  0  0
    6.6055  -12.1306   27.3935 C   0  0  0  0  0  0  0  0  0  0  0  0
    5.4286  -11.4400   27.8690 N   0  0  0  0  0  0  0  0  0  0  0  0
    8.9813  -15.9267   24.8670 C   0  0  0  0  0  0  0  0  0  0  0  0
    8.1822  -16.8832   25.0304 O   0  0  0  0  0  0  0  0  0  0  0  0
   10.1594  -15.8413   25.6417 N   0  0  0  0  0  0  0  0  0  0  0  0
   10.5167  -16.8730   26.6529 C   0  0  1  0  0  0  0  0  0  0  0  0
   11.9949  -17.1456   26.5221 C   0  0  0  0  0  0  0  0  0  0  0  0
   12.4129  -17.7164   25.2475 C   0  0  0  0  0  0  0  0  0  0  0  0
   11.8971  -18.7489   24.7882 O   0  0  0  0  0  0  0  0  0  0  0  0
   10.2309  -16.2907   27.9926 C   0  0  0  0  0  0  0  0  0  0  0  0
    9.8369  -15.1264   28.1867 O   0  0  0  0  0  0  0  0  0  0  0  0
   13.4239  -17.1346   24.4614 O   0  0  0  0  0  0  0  0  0  0  0  0
   10.4045  -17.0727   29.1413 O   0  0  0  0  0  0  0  0  0  0  0  0
  2  1  1  6
  2  3  1  0
  3  4  1  0
  4  8  1  0
  4  5  2  0
  6  2  1  0
  7  6  2  0
  9  6  1  0
 10  9  1  0
 10 11  1  1
 11 12  1  0
 13 14  1  0
 13 12  1  0
 15 14  1  0
 16 17  2  0
 16 10  1  0
 18 16  1  0
 19 18  1  0
 19 20  1  1
 20 21  1  0
 21 25  1  0
 21 22  2  0
 23 19  1  0
 24 23  2  0
 26 23  1  0
M  END
$$$$
