DKD.pdb
     RDKit          3D

 26 25  0  0  1  0  0  0  0  0999 V2000
    9.0011  -16.8521   20.0690 N   0  0  0  0  0  0  0  0  0  0  0  0
   10.2847  -17.1547   20.5947 C   0  0  1  0  0  0  0  0  0  0  0  0
   11.4308  -16.7806   19.7142 C   0  0  0  0  0  0  0  0  0  0  0  0
   11.3205  -17.3535   18.3497 C   0  0  0  0  0  0  0  0  0  0  0  0
   10.2645  -17.9054   17.9590 O   0  0  0  0  0  0  0  0  0  0  0  0
   10.4497  -16.4798   21.9066 C   0  0  0  0  0  0  0  0  0  0  0  0
   11.5784  -16.3949   22.4526 O   0  0  0  0  0  0  0  0  0  0  0  0
   12.3948  -17.2811   17.4914 O   0  0  0  0  0  0  0  0  0  0  0  0
    9.3141  -15.9321   22.5335 N   0  0  0  0  0  0  0  0  0  0  0  0
    9.3422  -15.4264   23.8966 C   0  0  1  0  0  0  0  0  0  0  0  0
    8.1879  -14.4984   24.1643 C   0  0  0  0  0  0  0  0  0  0  0  0
    8.1560  -14.0232   25.5969 C   0  0  0  0  0  0  0  0  0  0  0  0
    7.0677  -12.9593   25.7134 C   0  0  0  0  0  0  0  0  0  0  0  0
    7.0010  -12.5740   27.1820 C   0  0  0  0  0  0  0  0  0  0  0  0
    6.0221  -11.5397   27.4269 N   0  0  0  0  0  0  0  0  0  0  0  0
    9.4060  -16.5410   24.8686 C   0  0  0  0  0  0  0  0  0  0  0  0
    8.4462  -17.3477   24.9599 O   0  0  0  0  0  0  0  0  0  0  0  0
   10.5456  -16.6927   25.6892 N   0  0  0  0  0  0  0  0  0  0  0  0
   10.7894  -17.9280   26.4824 C   0  0  1  0  0  0  0  0  0  0  0  0
   12.1546  -18.4486   26.1059 C   0  0  0  0  0  0  0  0  0  0  0  0
   12.6244  -19.5870   26.8859 C   0  0  0  0  0  0  0  0  0  0  0  0
   13.7987  -19.6738   27.2816 O   0  0  0  0  0  0  0  0  0  0  0  0
   10.7811  -17.5354   27.9182 C   0  0  0  0  0  0  0  0  0  0  0  0
   10.9304  -18.3264   28.8671 O   0  0  0  0  0  0  0  0  0  0  0  0
   11.7789  -20.6548   27.2373 O   0  0  0  0  0  0  0  0  0  0  0  0
   10.5955  -16.1927   28.2701 O   0  0  0  0  0  0  0  0  0  0  0  0
  2  1  1  6
  2  3  1  0
  3  4  1  0
  4  8  1  0
  4  5  2  0
  6  2  1  0
  7  6  2  0
  9  6  1  0
 10  9  1  0
 10 11  1  1
 11 12  1  0
 13 14  1  0
 13 12  1  0
 15 14  1  0
 16 17  2  0
 16 10  1  0
 18 16  1  0
 19 18  1  0
 19 20  1  6
 20 21  1  0
 21 25  1  0
 21 22  2  0
 23 19  1  0
 24 23  2  0
 26 23  1  0
M  END
$$$$
