MVI.pdb
     RDKit          3D

 24 23  0  0  1  0  0  0  0  0999 V2000
    7.1129  -10.8491   25.5964 C   0  0  0  0  0  0  0  0  0  0  0  0
    5.9880  -11.8049   26.6185 S   0  0  0  0  0  0  0  0  0  0  0  0
    5.4228  -13.3099   25.8389 C   0  0  0  0  0  0  0  0  0  0  0  0
    6.5603  -14.2363   25.6109 C   0  0  0  0  0  0  0  0  0  0  0  0
    6.2692  -15.5244   24.9326 C   0  0  2  0  0  0  0  0  0  0  0  0
    5.3740  -16.4151   25.6087 N   0  0  0  0  0  0  0  0  0  0  0  0
    7.5254  -16.2817   24.6261 C   0  0  0  0  0  0  0  0  0  0  0  0
    7.9412  -17.2057   25.3779 O   0  0  0  0  0  0  0  0  0  0  0  0
   11.2253  -17.1460   21.3397 C   0  0  0  0  0  0  0  0  0  0  0  0
    9.9924  -16.4131   21.7838 C   0  0  1  0  0  0  0  0  0  0  0  0
    8.8721  -16.8354   20.8199 C   0  0  0  0  0  0  0  0  0  0  0  0
    9.5806  -16.6484   23.2065 C   0  0  2  0  0  0  0  0  0  0  0  0
    8.2946  -15.9917   23.4809 N   0  0  0  0  0  0  0  0  0  0  0  0
   10.6015  -16.1887   24.1757 C   0  0  0  0  0  0  0  0  0  0  0  0
   11.4313  -15.2650   23.8341 O   0  0  0  0  0  0  0  0  0  0  0  0
    9.7679  -15.3374   29.5624 C   0  0  0  0  0  0  0  0  0  0  0  0
   10.2996  -16.1467   28.3999 C   0  0  0  0  0  0  0  0  0  0  0  0
   11.1968  -15.3232   27.5222 C   0  0  2  0  0  0  0  0  0  0  0  0
   10.5330  -14.0545   27.0467 C   0  0  0  0  0  0  0  0  0  0  0  0
   11.8040  -16.0774   26.3837 C   0  0  2  0  0  0  0  0  0  0  0  0
   10.7919  -16.6511   25.4900 N   0  0  0  0  0  0  0  0  0  0  0  0
   12.6651  -17.1893   26.8318 C   0  0  0  0  0  0  0  0  0  0  0  0
   13.7274  -16.9343   27.4495 O   0  0  0  0  0  0  0  0  0  0  0  0
   12.3548  -18.5261   26.6003 O   0  0  0  0  0  0  0  0  0  0  0  0
  1  2  1  0
  3  2  1  0
  4  3  1  0
  5  6  1  1
  5  4  1  0
  7  5  1  0
  8  7  2  0
 10  9  1  6
 10 12  1  0
 11 10  1  0
 12 14  1  0
 12 13  1  1
 13  7  1  0
 14 15  2  0
 16 17  1  0
 18 17  1  0
 18 19  1  6
 18 20  1  0
 20 22  1  0
 20 21  1  6
 21 14  1  0
 22 23  2  0
 22 24  1  0
M  END
$$$$
