MVI.pdb
     RDKit          3D

 24 23  0  0  1  0  0  0  0  0999 V2000
    7.7010  -11.6839   19.8901 C   0  0  0  0  0  0  0  0  0  0  0  0
    8.1018  -12.4437   18.3136 S   0  0  0  0  0  0  0  0  0  0  0  0
    7.9653  -14.2251   18.3271 C   0  0  0  0  0  0  0  0  0  0  0  0
    7.9024  -14.7313   19.7215 C   0  0  0  0  0  0  0  0  0  0  0  0
    8.0717  -16.1916   19.9282 C   0  0  2  0  0  0  0  0  0  0  0  0
    7.1961  -17.0484   19.1859 N   0  0  0  0  0  0  0  0  0  0  0  0
    7.9551  -16.5599   21.3762 C   0  0  0  0  0  0  0  0  0  0  0  0
    6.8332  -16.6713   21.9424 O   0  0  0  0  0  0  0  0  0  0  0  0
    9.6132  -19.6132   22.9672 C   0  0  0  0  0  0  0  0  0  0  0  0
    9.9024  -18.4062   23.8120 C   0  0  1  0  0  0  0  0  0  0  0  0
   11.3720  -18.0407   23.5487 C   0  0  0  0  0  0  0  0  0  0  0  0
    9.0133  -17.2228   23.5703 C   0  0  2  0  0  0  0  0  0  0  0  0
    9.0984  -16.7990   22.1656 N   0  0  0  0  0  0  0  0  0  0  0  0
    9.3292  -16.0846   24.4633 C   0  0  0  0  0  0  0  0  0  0  0  0
   10.3676  -15.3606   24.2266 O   0  0  0  0  0  0  0  0  0  0  0  0
    5.9675  -12.3296   26.3074 C   0  0  0  0  0  0  0  0  0  0  0  0
    7.1249  -13.1539   25.7877 C   0  0  0  0  0  0  0  0  0  0  0  0
    7.9664  -13.6881   26.9102 C   0  0  2  0  0  0  0  0  0  0  0  0
    8.4754  -12.5972   27.8198 C   0  0  0  0  0  0  0  0  0  0  0  0
    9.0744  -14.5904   26.4724 C   0  0  2  0  0  0  0  0  0  0  0  0
    8.6044  -15.6672   25.5937 N   0  0  0  0  0  0  0  0  0  0  0  0
    9.7696  -15.2303   27.6063 C   0  0  0  0  0  0  0  0  0  0  0  0
   10.5772  -14.5572   28.2917 O   0  0  0  0  0  0  0  0  0  0  0  0
    9.5728  -16.5621   27.9592 O   0  0  0  0  0  0  0  0  0  0  0  0
  1  2  1  0
  3  2  1  0
  4  3  1  0
  5  6  1  6
  5  4  1  0
  7  5  1  0
  8  7  2  0
 10  9  1  6
 10 12  1  0
 11 10  1  0
 12 14  1  0
 12 13  1  6
 13  7  1  0
 14 15  2  0
 16 17  1  0
 18 17  1  0
 18 19  1  6
 18 20  1  0
 20 22  1  0
 20 21  1  6
 21 14  1  0
 22 23  2  0
 22 24  1  0
M  END
$$$$
