MVI.pdb
     RDKit          3D

 24 23  0  0  1  0  0  0  0  0999 V2000
    7.6711  -17.9141   28.2666 C   0  0  0  0  0  0  0  0  0  0  0  0
    7.3796  -19.5734   27.6462 S   0  0  0  0  0  0  0  0  0  0  0  0
    7.4774  -19.6950   25.8663 C   0  0  0  0  0  0  0  0  0  0  0  0
    6.3766  -18.9272   25.2314 C   0  0  0  0  0  0  0  0  0  0  0  0
    6.3134  -18.9200   23.7482 C   0  0  2  0  0  0  0  0  0  0  0  0
    6.4153  -20.1921   23.0976 N   0  0  0  0  0  0  0  0  0  0  0  0
    7.3537  -18.0177   23.1571 C   0  0  0  0  0  0  0  0  0  0  0  0
    8.5443  -18.4004   22.9906 O   0  0  0  0  0  0  0  0  0  0  0  0
    6.3069  -15.1234   20.6001 C   0  0  0  0  0  0  0  0  0  0  0  0
    7.4506  -14.6780   21.4648 C   0  0  1  0  0  0  0  0  0  0  0  0
    6.9080  -13.5354   22.3382 C   0  0  0  0  0  0  0  0  0  0  0  0
    8.0675  -15.7464   22.3176 C   0  0  2  0  0  0  0  0  0  0  0  0
    7.0418  -16.7013   22.7607 N   0  0  0  0  0  0  0  0  0  0  0  0
    8.7848  -15.1930   23.4890 C   0  0  0  0  0  0  0  0  0  0  0  0
    9.8123  -14.4384   23.3064 O   0  0  0  0  0  0  0  0  0  0  0  0
    6.5028  -12.1564   26.8991 C   0  0  0  0  0  0  0  0  0  0  0  0
    7.4867  -12.8749   26.0019 C   0  0  0  0  0  0  0  0  0  0  0  0
    8.3072  -13.8688   26.7716 C   0  0  2  0  0  0  0  0  0  0  0  0
    9.0700  -13.2319   27.9069 C   0  0  0  0  0  0  0  0  0  0  0  0
    9.2014  -14.7152   25.9245 C   0  0  2  0  0  0  0  0  0  0  0  0
    8.4732  -15.3921   24.8457 N   0  0  0  0  0  0  0  0  0  0  0  0
    9.8969  -15.7615   26.6992 C   0  0  0  0  0  0  0  0  0  0  0  0
    9.5098  -16.9520   26.6109 O   0  0  0  0  0  0  0  0  0  0  0  0
   10.9760  -15.4911   27.5356 O   0  0  0  0  0  0  0  0  0  0  0  0
  1  2  1  0
  3  2  1  0
  4  3  1  0
  5  6  1  6
  5  4  1  0
  7  5  1  0
  8  7  2  0
 10  9  1  1
 10 12  1  0
 11 10  1  0
 12 14  1  0
 12 13  1  1
 13  7  1  0
 14 15  2  0
 16 17  1  0
 18 17  1  0
 18 19  1  1
 18 20  1  0
 20 22  1  0
 20 21  1  6
 21 14  1  0
 22 23  2  0
 22 24  1  0
M  END
$$$$
