MVI.pdb
     RDKit          3D

 24 23  0  0  1  0  0  0  0  0999 V2000
    6.9437  -10.9600   26.1964 C   0  0  0  0  0  0  0  0  0  0  0  0
    5.9045  -11.7863   27.4050 S   0  0  0  0  0  0  0  0  0  0  0  0
    5.2481  -13.3460   26.8315 C   0  0  0  0  0  0  0  0  0  0  0  0
    6.3188  -14.1619   26.2050 C   0  0  0  0  0  0  0  0  0  0  0  0
    5.9144  -15.4212   25.5310 C   0  0  2  0  0  0  0  0  0  0  0  0
    5.3075  -16.4221   26.3566 N   0  0  0  0  0  0  0  0  0  0  0  0
    7.0663  -16.0558   24.8126 C   0  0  0  0  0  0  0  0  0  0  0  0
    7.7650  -16.9585   25.3499 O   0  0  0  0  0  0  0  0  0  0  0  0
    8.8444  -14.1705   21.2822 C   0  0  0  0  0  0  0  0  0  0  0  0
    8.6784  -15.6565   21.4182 C   0  0  1  0  0  0  0  0  0  0  0  0
    9.8553  -16.2906   20.6596 C   0  0  0  0  0  0  0  0  0  0  0  0
    8.6190  -16.1719   22.8254 C   0  0  2  0  0  0  0  0  0  0  0  0
    7.4155  -15.6689   23.5027 N   0  0  0  0  0  0  0  0  0  0  0  0
    9.8256  -15.8212   23.6089 C   0  0  0  0  0  0  0  0  0  0  0  0
   10.6124  -14.8949   23.1833 O   0  0  0  0  0  0  0  0  0  0  0  0
   10.0068  -15.0698   29.0294 C   0  0  0  0  0  0  0  0  0  0  0  0
   10.3287  -15.9188   27.8191 C   0  0  0  0  0  0  0  0  0  0  0  0
   11.0534  -15.1268   26.7698 C   0  0  2  0  0  0  0  0  0  0  0  0
   10.3286  -13.8553   26.4031 C   0  0  0  0  0  0  0  0  0  0  0  0
   11.4219  -15.9116   25.5525 C   0  0  2  0  0  0  0  0  0  0  0  0
   10.2454  -16.3956   24.8219 N   0  0  0  0  0  0  0  0  0  0  0  0
   12.2521  -17.0913   25.8651 C   0  0  0  0  0  0  0  0  0  0  0  0
   11.7755  -18.2403   25.6987 O   0  0  0  0  0  0  0  0  0  0  0  0
   13.5557  -16.9932   26.3425 O   0  0  0  0  0  0  0  0  0  0  0  0
  1  2  1  0
  3  2  1  0
  4  3  1  0
  5  6  1  1
  5  4  1  0
  7  5  1  0
  8  7  2  0
 10  9  1  1
 10 12  1  0
 11 10  1  0
 12 14  1  0
 12 13  1  1
 13  7  1  0
 14 15  2  0
 16 17  1  0
 18 17  1  0
 18 19  1  6
 18 20  1  0
 20 22  1  0
 20 21  1  1
 21 14  1  0
 22 23  2  0
 22 24  1  0
M  END
$$$$
