MVI.pdb
     RDKit          3D

 24 23  0  0  1  0  0  0  0  0999 V2000
   15.4112  -17.7350   21.2564 C   0  0  0  0  0  0  0  0  0  0  0  0
   15.1990  -17.0442   19.6128 S   0  0  0  0  0  0  0  0  0  0  0  0
   13.6040  -17.4015   18.8913 C   0  0  0  0  0  0  0  0  0  0  0  0
   12.5207  -17.1541   19.8760 C   0  0  0  0  0  0  0  0  0  0  0  0
   11.1490  -17.5867   19.5081 C   0  0  2  0  0  0  0  0  0  0  0  0
   10.7718  -17.4188   18.1365 N   0  0  0  0  0  0  0  0  0  0  0  0
   10.1130  -16.9116   20.3547 C   0  0  0  0  0  0  0  0  0  0  0  0
    9.5915  -15.8147   20.0133 O   0  0  0  0  0  0  0  0  0  0  0  0
    6.9550  -18.7973   21.3785 C   0  0  0  0  0  0  0  0  0  0  0  0
    7.5577  -18.1299   22.5807 C   0  0  1  0  0  0  0  0  0  0  0  0
    8.2839  -19.2343   23.3652 C   0  0  0  0  0  0  0  0  0  0  0  0
    8.4896  -16.9923   22.2864 C   0  0  2  0  0  0  0  0  0  0  0  0
    9.6775  -17.4780   21.5700 N   0  0  0  0  0  0  0  0  0  0  0  0
    8.8978  -16.2630   23.5088 C   0  0  0  0  0  0  0  0  0  0  0  0
   10.1160  -16.3421   23.9188 O   0  0  0  0  0  0  0  0  0  0  0  0
    6.1195  -11.8734   25.3555 C   0  0  0  0  0  0  0  0  0  0  0  0
    7.3503  -12.6626   24.9664 C   0  0  0  0  0  0  0  0  0  0  0  0
    7.6898  -13.6959   26.0010 C   0  0  2  0  0  0  0  0  0  0  0  0
    8.1959  -13.0838   27.2839 C   0  0  0  0  0  0  0  0  0  0  0  0
    8.6046  -14.7739   25.5164 C   0  0  2  0  0  0  0  0  0  0  0  0
    8.0875  -15.4507   24.3219 N   0  0  0  0  0  0  0  0  0  0  0  0
    8.8458  -15.8161   26.5334 C   0  0  0  0  0  0  0  0  0  0  0  0
    9.7194  -15.6256   27.4141 O   0  0  0  0  0  0  0  0  0  0  0  0
    8.1439  -17.0175   26.5656 O   0  0  0  0  0  0  0  0  0  0  0  0
  1  2  1  0
  3  2  1  0
  4  3  1  0
  5  6  1  6
  5  4  1  0
  7  5  1  0
  8  7  2  0
 10  9  1  6
 10 12  1  0
 11 10  1  0
 12 14  1  0
 12 13  1  1
 13  7  1  0
 14 15  2  0
 16 17  1  0
 18 17  1  0
 18 19  1  1
 18 20  1  0
 20 22  1  0
 20 21  1  6
 21 14  1  0
 22 23  2  0
 22 24  1  0
M  END
$$$$
