MVI.pdb
     RDKit          3D

 24 23  0  0  1  0  0  0  0  0999 V2000
    7.5611  -11.3583   26.2577 C   0  0  0  0  0  0  0  0  0  0  0  0
    5.7911  -11.4872   25.9855 S   0  0  0  0  0  0  0  0  0  0  0  0
    5.2696  -13.1106   25.4520 C   0  0  0  0  0  0  0  0  0  0  0  0
    6.4292  -14.0359   25.3924 C   0  0  0  0  0  0  0  0  0  0  0  0
    6.2026  -15.3811   24.8070 C   0  0  2  0  0  0  0  0  0  0  0  0
    5.1598  -16.1673   25.3956 N   0  0  0  0  0  0  0  0  0  0  0  0
    7.4558  -16.2028   24.8134 C   0  0  0  0  0  0  0  0  0  0  0  0
    7.7901  -16.8920   25.8157 O   0  0  0  0  0  0  0  0  0  0  0  0
   10.5142  -15.8070   21.6956 C   0  0  0  0  0  0  0  0  0  0  0  0
   10.0705  -17.1265   22.2578 C   0  0  1  0  0  0  0  0  0  0  0  0
   11.2946  -18.0539   22.1923 C   0  0  0  0  0  0  0  0  0  0  0  0
    9.5183  -17.0800   23.6514 C   0  0  2  0  0  0  0  0  0  0  0  0
    8.3134  -16.2394   23.6950 N   0  0  0  0  0  0  0  0  0  0  0  0
   10.5103  -16.5956   24.6384 C   0  0  0  0  0  0  0  0  0  0  0  0
   11.3333  -15.6624   24.3064 O   0  0  0  0  0  0  0  0  0  0  0  0
   10.4243  -14.8338   29.8926 C   0  0  0  0  0  0  0  0  0  0  0  0
   10.3216  -15.7353   28.6819 C   0  0  0  0  0  0  0  0  0  0  0  0
   11.3854  -15.4200   27.6707 C   0  0  2  0  0  0  0  0  0  0  0  0
   11.0483  -14.2087   26.8367 C   0  0  0  0  0  0  0  0  0  0  0  0
   11.7795  -16.5776   26.8116 C   0  0  2  0  0  0  0  0  0  0  0  0
   10.6785  -17.0429   25.9610 N   0  0  0  0  0  0  0  0  0  0  0  0
   12.2393  -17.7395   27.5973 C   0  0  0  0  0  0  0  0  0  0  0  0
   11.5660  -18.7985   27.5809 O   0  0  0  0  0  0  0  0  0  0  0  0
   13.3985  -17.7202   28.3672 O   0  0  0  0  0  0  0  0  0  0  0  0
  1  2  1  0
  3  2  1  0
  4  3  1  0
  5  6  1  1
  5  4  1  0
  7  5  1  0
  8  7  2  0
 10  9  1  1
 10 12  1  0
 11 10  1  0
 12 14  1  0
 12 13  1  6
 13  7  1  0
 14 15  2  0
 16 17  1  0
 18 17  1  0
 18 19  1  6
 18 20  1  0
 20 22  1  0
 20 21  1  1
 21 14  1  0
 22 23  2  0
 22 24  1  0
M  END
$$$$
