MVI.pdb
     RDKit          3D

 24 23  0  0  1  0  0  0  0  0999 V2000
    8.7862  -12.7634   20.6289 C   0  0  0  0  0  0  0  0  0  0  0  0
    8.0901  -13.5287   19.1616 S   0  0  0  0  0  0  0  0  0  0  0  0
    6.4927  -14.2791   19.4402 C   0  0  0  0  0  0  0  0  0  0  0  0
    6.4865  -15.6832   18.9575 C   0  0  0  0  0  0  0  0  0  0  0  0
    7.1664  -16.6996   19.7992 C   0  0  2  0  0  0  0  0  0  0  0  0
    7.1027  -18.0554   19.3413 N   0  0  0  0  0  0  0  0  0  0  0  0
    6.6667  -16.6686   21.2117 C   0  0  0  0  0  0  0  0  0  0  0  0
    5.4613  -16.4121   21.4817 O   0  0  0  0  0  0  0  0  0  0  0  0
    6.4841  -19.3647   23.2515 C   0  0  0  0  0  0  0  0  0  0  0  0
    7.0005  -18.3366   24.2162 C   0  0  1  0  0  0  0  0  0  0  0  0
    8.3989  -18.8121   24.6416 C   0  0  0  0  0  0  0  0  0  0  0  0
    7.0578  -16.9327   23.6917 C   0  0  2  0  0  0  0  0  0  0  0  0
    7.5264  -16.9270   22.2987 N   0  0  0  0  0  0  0  0  0  0  0  0
    7.9155  -16.0532   24.5186 C   0  0  0  0  0  0  0  0  0  0  0  0
    9.1767  -15.9787   24.2689 O   0  0  0  0  0  0  0  0  0  0  0  0
    6.1239  -11.4677   27.3440 C   0  0  0  0  0  0  0  0  0  0  0  0
    6.5814  -12.8991   27.1678 C   0  0  0  0  0  0  0  0  0  0  0  0
    7.8995  -12.9703   26.4529 C   0  0  2  0  0  0  0  0  0  0  0  0
    7.8804  -12.2399   25.1328 C   0  0  0  0  0  0  0  0  0  0  0  0
    8.4417  -14.3544   26.2994 C   0  0  2  0  0  0  0  0  0  0  0  0
    7.5116  -15.2444   25.5957 N   0  0  0  0  0  0  0  0  0  0  0  0
    8.7530  -14.9911   27.5941 C   0  0  0  0  0  0  0  0  0  0  0  0
    8.1007  -16.0003   27.9559 O   0  0  0  0  0  0  0  0  0  0  0  0
    9.7476  -14.5221   28.4472 O   0  0  0  0  0  0  0  0  0  0  0  0
  1  2  1  0
  3  2  1  0
  4  3  1  0
  5  6  1  6
  5  4  1  0
  7  5  1  0
  8  7  2  0
 10  9  1  6
 10 12  1  0
 11 10  1  0
 12 14  1  0
 12 13  1  6
 13  7  1  0
 14 15  2  0
 16 17  1  0
 18 17  1  0
 18 19  1  6
 18 20  1  0
 20 22  1  0
 20 21  1  1
 21 14  1  0
 22 23  2  0
 22 24  1  0
M  END
$$$$
