MVI.pdb
     RDKit          3D

 24 23  0  0  1  0  0  0  0  0999 V2000
    8.6004  -11.6167   19.6587 C   0  0  0  0  0  0  0  0  0  0  0  0
    8.0636  -12.3047   18.0896 S   0  0  0  0  0  0  0  0  0  0  0  0
    8.2853  -14.0739   17.9753 C   0  0  0  0  0  0  0  0  0  0  0  0
    8.0577  -14.7129   19.2960 C   0  0  0  0  0  0  0  0  0  0  0  0
    8.2004  -16.1883   19.3765 C   0  0  2  0  0  0  0  0  0  0  0  0
    7.3803  -16.9595   18.4907 N   0  0  0  0  0  0  0  0  0  0  0  0
    7.9675  -16.6889   20.7697 C   0  0  0  0  0  0  0  0  0  0  0  0
    6.8044  -16.8912   21.2144 O   0  0  0  0  0  0  0  0  0  0  0  0
   11.1801  -18.3190   23.1130 C   0  0  0  0  0  0  0  0  0  0  0  0
    9.7182  -18.4964   23.4052 C   0  0  1  0  0  0  0  0  0  0  0  0
    9.6159  -18.8091   24.9067 C   0  0  0  0  0  0  0  0  0  0  0  0
    8.8439  -17.3313   23.0485 C   0  0  2  0  0  0  0  0  0  0  0  0
    9.0428  -16.9560   21.6414 N   0  0  0  0  0  0  0  0  0  0  0  0
    9.0763  -16.1593   23.9234 C   0  0  0  0  0  0  0  0  0  0  0  0
   10.1883  -15.5151   23.8404 O   0  0  0  0  0  0  0  0  0  0  0  0
    6.4943  -11.3337   26.6599 C   0  0  0  0  0  0  0  0  0  0  0  0
    7.7040  -12.2369   26.5595 C   0  0  0  0  0  0  0  0  0  0  0  0
    7.4111  -13.4576   25.7363 C   0  0  2  0  0  0  0  0  0  0  0  0
    6.1116  -14.1182   26.1256 C   0  0  0  0  0  0  0  0  0  0  0  0
    8.5292  -14.4478   25.6856 C   0  0  2  0  0  0  0  0  0  0  0  0
    8.1945  -15.6284   24.8815 N   0  0  0  0  0  0  0  0  0  0  0  0
    8.9215  -14.9331   27.0233 C   0  0  0  0  0  0  0  0  0  0  0  0
    8.4120  -15.9904   27.4678 O   0  0  0  0  0  0  0  0  0  0  0  0
    9.8408  -14.2679   27.8290 O   0  0  0  0  0  0  0  0  0  0  0  0
  1  2  1  0
  3  2  1  0
  4  3  1  0
  5  6  1  6
  5  4  1  0
  7  5  1  0
  8  7  2  0
 10  9  1  1
 10 12  1  0
 11 10  1  0
 12 14  1  0
 12 13  1  6
 13  7  1  0
 14 15  2  0
 16 17  1  0
 18 17  1  0
 18 19  1  1
 18 20  1  0
 20 22  1  0
 20 21  1  6
 21 14  1  0
 22 23  2  0
 22 24  1  0
M  END
$$$$
