MVI.pdb
     RDKit          3D

 24 23  0  0  1  0  0  0  0  0999 V2000
    8.7525  -11.6886   19.2945 C   0  0  0  0  0  0  0  0  0  0  0  0
    8.1216  -12.5479   17.8499 S   0  0  0  0  0  0  0  0  0  0  0  0
    8.2812  -14.3245   17.9526 C   0  0  0  0  0  0  0  0  0  0  0  0
    7.8660  -14.8072   19.2938 C   0  0  0  0  0  0  0  0  0  0  0  0
    7.9128  -16.2705   19.5397 C   0  0  2  0  0  0  0  0  0  0  0  0
    7.1645  -17.0947   18.6382 N   0  0  0  0  0  0  0  0  0  0  0  0
    7.4825  -16.6085   20.9348 C   0  0  0  0  0  0  0  0  0  0  0  0
    6.2638  -16.7034   21.2468 O   0  0  0  0  0  0  0  0  0  0  0  0
    8.5322  -19.4721   22.6863 C   0  0  0  0  0  0  0  0  0  0  0  0
    8.4518  -18.4502   23.7834 C   0  0  1  0  0  0  0  0  0  0  0  0
    9.8423  -18.4131   24.4375 C   0  0  0  0  0  0  0  0  0  0  0  0
    8.0343  -17.0754   23.3537 C   0  0  2  0  0  0  0  0  0  0  0  0
    8.4259  -16.8361   21.9574 N   0  0  0  0  0  0  0  0  0  0  0  0
    8.5913  -16.0155   24.2251 C   0  0  0  0  0  0  0  0  0  0  0  0
    9.7925  -15.5958   24.0264 O   0  0  0  0  0  0  0  0  0  0  0  0
    5.7021  -12.1585   27.4258 C   0  0  0  0  0  0  0  0  0  0  0  0
    6.5266  -13.4061   27.1961 C   0  0  0  0  0  0  0  0  0  0  0  0
    7.6925  -13.1348   26.2902 C   0  0  2  0  0  0  0  0  0  0  0  0
    7.2730  -12.5191   24.9781 C   0  0  0  0  0  0  0  0  0  0  0  0
    8.5908  -14.3097   26.0755 C   0  0  2  0  0  0  0  0  0  0  0  0
    7.9456  -15.3717   25.2956 N   0  0  0  0  0  0  0  0  0  0  0  0
    9.0451  -14.9182   27.3412 C   0  0  0  0  0  0  0  0  0  0  0  0
    9.7525  -14.2441   28.1287 O   0  0  0  0  0  0  0  0  0  0  0  0
    8.7246  -16.2210   27.7113 O   0  0  0  0  0  0  0  0  0  0  0  0
  1  2  1  0
  3  2  1  0
  4  3  1  0
  5  6  1  6
  5  4  1  0
  7  5  1  0
  8  7  2  0
 10  9  1  6
 10 12  1  0
 11 10  1  0
 12 14  1  0
 12 13  1  6
 13  7  1  0
 14 15  2  0
 16 17  1  0
 18 17  1  0
 18 19  1  6
 18 20  1  0
 20 22  1  0
 20 21  1  6
 21 14  1  0
 22 23  2  0
 22 24  1  0
M  END
$$$$
