MVI.pdb
     RDKit          3D

 24 23  0  0  1  0  0  0  0  0999 V2000
    4.9504  -12.2085   25.7682 C   0  0  0  0  0  0  0  0  0  0  0  0
    5.7144  -13.1497   27.0925 S   0  0  0  0  0  0  0  0  0  0  0  0
    6.3345  -14.7413   26.5683 C   0  0  0  0  0  0  0  0  0  0  0  0
    5.4014  -15.3693   25.5991 C   0  0  0  0  0  0  0  0  0  0  0  0
    5.8337  -16.6344   24.9536 C   0  0  2  0  0  0  0  0  0  0  0  0
    5.8519  -17.8019   25.7833 N   0  0  0  0  0  0  0  0  0  0  0  0
    7.1870  -16.4973   24.3248 C   0  0  0  0  0  0  0  0  0  0  0  0
    8.1832  -17.1435   24.7510 O   0  0  0  0  0  0  0  0  0  0  0  0
    7.2722  -14.6219   20.6292 C   0  0  0  0  0  0  0  0  0  0  0  0
    8.5878  -14.6301   21.3525 C   0  0  1  0  0  0  0  0  0  0  0  0
    8.8288  -13.1860   21.8205 C   0  0  0  0  0  0  0  0  0  0  0  0
    8.6817  -15.5816   22.5080 C   0  0  2  0  0  0  0  0  0  0  0  0
    7.4012  -15.6390   23.2272 N   0  0  0  0  0  0  0  0  0  0  0  0
    9.7737  -15.2302   23.4444 C   0  0  0  0  0  0  0  0  0  0  0  0
   10.2546  -14.0355   23.4400 O   0  0  0  0  0  0  0  0  0  0  0  0
   10.7869  -13.5059   28.5773 C   0  0  0  0  0  0  0  0  0  0  0  0
   11.5586  -14.3282   27.5686 C   0  0  0  0  0  0  0  0  0  0  0  0
   10.6401  -14.9969   26.5874 C   0  0  2  0  0  0  0  0  0  0  0  0
    9.7385  -16.0145   27.2415 C   0  0  0  0  0  0  0  0  0  0  0  0
   11.3299  -15.5716   25.3927 C   0  0  2  0  0  0  0  0  0  0  0  0
   10.3848  -16.0737   24.3892 N   0  0  0  0  0  0  0  0  0  0  0  0
   12.2290  -16.6904   25.7375 C   0  0  0  0  0  0  0  0  0  0  0  0
   13.2366  -16.4717   26.4530 O   0  0  0  0  0  0  0  0  0  0  0  0
   12.0135  -17.9947   25.3026 O   0  0  0  0  0  0  0  0  0  0  0  0
  1  2  1  0
  3  2  1  0
  4  3  1  0
  5  6  1  1
  5  4  1  0
  7  5  1  0
  8  7  2  0
 10  9  1  1
 10 12  1  0
 11 10  1  0
 12 14  1  0
 12 13  1  1
 13  7  1  0
 14 15  2  0
 16 17  1  0
 18 17  1  0
 18 19  1  1
 18 20  1  0
 20 22  1  0
 20 21  1  6
 21 14  1  0
 22 23  2  0
 22 24  1  0
M  END
$$$$
