LEY.pdb
     RDKit          3D

 30 30  0  0  1  0  0  0  0  0999 V2000
    7.4284  -12.0133   20.3035 C   0  0  0  0  0  0  0  0  0  0  0  0
    8.1815  -13.1828   19.6680 C   0  0  1  0  0  0  0  0  0  0  0  0
    9.6033  -12.6581   19.4015 C   0  0  0  0  0  0  0  0  0  0  0  0
    8.2563  -14.2753   20.7270 C   0  0  0  0  0  0  0  0  0  0  0  0
    9.5256  -15.0934   20.6308 C   0  0  2  0  0  0  0  0  0  0  0  0
    9.3747  -16.0278   19.4970 N   0  0  0  0  0  0  0  0  0  0  0  0
    9.7991  -15.9186   21.8094 C   0  0  0  0  0  0  0  0  0  0  0  0
    9.4244  -15.5985   22.9626 O   0  0  0  0  0  0  0  0  0  0  0  0
   10.5243  -17.1580   21.6795 N   0  0  0  0  0  0  0  0  0  0  0  0
   10.7933  -18.0199   22.8118 C   0  0  1  0  0  0  0  0  0  0  0  0
   11.4447  -19.3235   22.3623 C   0  0  0  0  0  0  0  0  0  0  0  0
   11.5763  -20.2817   23.5330 C   0  0  0  0  0  0  0  0  0  0  0  0
   12.1487  -21.5458   22.9426 C   0  0  0  0  0  0  0  0  0  0  0  0
   11.4142  -22.3560   22.3139 O   0  0  0  0  0  0  0  0  0  0  0  0
   11.7655  -17.3607   23.7010 C   0  0  0  0  0  0  0  0  0  0  0  0
   12.6371  -16.6121   23.2188 O   0  0  0  0  0  0  0  0  0  0  0  0
   13.5132  -21.8536   23.0744 O   0  0  0  0  0  0  0  0  0  0  0  0
    7.7415  -13.7100   28.2928 O   0  0  0  0  0  0  0  0  0  0  0  0
    8.9293  -14.1551   27.7279 C   0  0  0  0  0  0  0  0  0  0  0  0
    9.7587  -13.2728   27.0606 C   0  0  0  0  0  0  0  0  0  0  0  0
   10.9492  -13.7011   26.4914 C   0  0  0  0  0  0  0  0  0  0  0  0
   11.3049  -15.0245   26.5953 C   0  0  0  0  0  0  0  0  0  0  0  0
   12.5453  -15.5139   26.0102 C   0  0  0  0  0  0  0  0  0  0  0  0
   12.7184  -16.9986   26.0042 C   0  0  2  0  0  0  0  0  0  0  0  0
   11.7270  -17.5660   25.1059 N   0  0  0  0  0  0  0  0  0  0  0  0
   12.4895  -17.6107   27.3367 C   0  0  0  0  0  0  0  0  0  0  0  0
   13.1784  -17.3262   28.3664 O   0  0  0  0  0  0  0  0  0  0  0  0
   10.4924  -15.9429   27.2623 C   0  0  0  0  0  0  0  0  0  0  0  0
    9.2958  -15.4824   27.8273 C   0  0  0  0  0  0  0  0  0  0  0  0
   11.4917  -18.5512   27.5488 O   0  0  0  0  0  0  0  0  0  0  0  0
  2  3  1  1
  2  1  1  0
  4  2  1  0
  5  7  1  0
  5  4  1  0
  5  6  1  6
  7  8  2  0
  9 10  1  0
  9  7  1  0
 10 11  1  6
 12 11  1  0
 13 12  1  0
 13 17  1  0
 14 13  2  0
 15 16  2  0
 15 10  1  0
 19 20  2  0
 19 18  1  0
 21 20  1  0
 22 21  2  0
 23 22  1  0
 24 23  1  1
 24 25  1  0
 25 15  1  0
 26 24  1  0
 26 30  1  0
 27 26  2  0
 28 22  1  0
 28 29  2  0
 29 19  1  0
M  END
$$$$
