LEY.pdb
     RDKit          3D

 30 30  0  0  1  0  0  0  0  0999 V2000
    6.2316  -13.2953   18.3359 C   0  0  0  0  0  0  0  0  0  0  0  0
    7.6669  -13.7113   18.6605 C   0  0  1  0  0  0  0  0  0  0  0  0
    8.4594  -12.3969   18.7708 C   0  0  0  0  0  0  0  0  0  0  0  0
    7.6257  -14.3715   20.0328 C   0  0  0  0  0  0  0  0  0  0  0  0
    8.9929  -14.4662   20.6746 C   0  0  2  0  0  0  0  0  0  0  0  0
    9.9536  -14.8749   19.6300 N   0  0  0  0  0  0  0  0  0  0  0  0
    9.0896  -15.4697   21.7368 C   0  0  0  0  0  0  0  0  0  0  0  0
    8.2766  -15.5281   22.6900 O   0  0  0  0  0  0  0  0  0  0  0  0
   10.1473  -16.4493   21.7205 N   0  0  0  0  0  0  0  0  0  0  0  0
   10.3338  -17.4054   22.7921 C   0  0  1  0  0  0  0  0  0  0  0  0
   11.5818  -18.2501   22.5584 C   0  0  0  0  0  0  0  0  0  0  0  0
   11.6397  -19.3968   23.5522 C   0  0  0  0  0  0  0  0  0  0  0  0
   12.9039  -20.1460   23.2133 C   0  0  0  0  0  0  0  0  0  0  0  0
   13.9293  -20.0460   23.9409 O   0  0  0  0  0  0  0  0  0  0  0  0
   10.5599  -16.6794   24.0539 C   0  0  0  0  0  0  0  0  0  0  0  0
   10.9412  -15.4935   24.0261 O   0  0  0  0  0  0  0  0  0  0  0  0
   12.9727  -20.9757   22.0816 O   0  0  0  0  0  0  0  0  0  0  0  0
    6.4718  -11.1394   26.9180 O   0  0  0  0  0  0  0  0  0  0  0  0
    6.9065  -12.4330   26.6617 C   0  0  0  0  0  0  0  0  0  0  0  0
    6.0861  -13.3266   25.9982 C   0  0  0  0  0  0  0  0  0  0  0  0
    6.5054  -14.6223   25.7337 C   0  0  0  0  0  0  0  0  0  0  0  0
    7.7571  -15.0188   26.1398 C   0  0  0  0  0  0  0  0  0  0  0  0
    8.2337  -16.3705   25.8826 C   0  0  0  0  0  0  0  0  0  0  0  0
    9.6067  -16.6810   26.3853 C   0  0  2  0  0  0  0  0  0  0  0  0
   10.3510  -17.3120   25.3083 N   0  0  0  0  0  0  0  0  0  0  0  0
    9.6021  -17.6370   27.5205 C   0  0  0  0  0  0  0  0  0  0  0  0
    9.4669  -18.8929   27.3786 O   0  0  0  0  0  0  0  0  0  0  0  0
    8.6121  -14.1432   26.8112 C   0  0  0  0  0  0  0  0  0  0  0  0
    8.1623  -12.8409   27.0651 C   0  0  0  0  0  0  0  0  0  0  0  0
    9.7463  -17.2144   28.8342 O   0  0  0  0  0  0  0  0  0  0  0  0
  2  3  1  1
  2  1  1  0
  4  2  1  0
  5  7  1  0
  5  4  1  0
  5  6  1  6
  7  8  2  0
  9 10  1  0
  9  7  1  0
 10 11  1  6
 12 11  1  0
 13 12  1  0
 13 17  1  0
 14 13  2  0
 15 16  2  0
 15 10  1  0
 19 20  2  0
 19 18  1  0
 21 20  1  0
 22 21  2  0
 23 22  1  0
 24 23  1  6
 24 25  1  0
 25 15  1  0
 26 24  1  0
 26 30  1  0
 27 26  2  0
 28 22  1  0
 28 29  2  0
 29 19  1  0
M  END
$$$$
