LEY.pdb
     RDKit          3D

 30 30  0  0  1  0  0  0  0  0999 V2000
    6.5623  -12.9388   19.8113 C   0  0  0  0  0  0  0  0  0  0  0  0
    8.0508  -13.2784   19.8992 C   0  0  1  0  0  0  0  0  0  0  0  0
    8.7809  -11.9239   19.8966 C   0  0  0  0  0  0  0  0  0  0  0  0
    8.2633  -13.9433   21.2532 C   0  0  0  0  0  0  0  0  0  0  0  0
    9.0930  -15.2052   21.1584 C   0  0  2  0  0  0  0  0  0  0  0  0
    8.4238  -16.1140   20.2057 N   0  0  0  0  0  0  0  0  0  0  0  0
    9.2095  -15.9436   22.4177 C   0  0  0  0  0  0  0  0  0  0  0  0
    8.2307  -16.1535   23.1733 O   0  0  0  0  0  0  0  0  0  0  0  0
   10.4841  -16.4685   22.8402 N   0  0  0  0  0  0  0  0  0  0  0  0
   10.6271  -17.3016   24.0161 C   0  0  1  0  0  0  0  0  0  0  0  0
   11.8999  -18.1383   23.9403 C   0  0  0  0  0  0  0  0  0  0  0  0
   11.8069  -19.1433   22.8057 C   0  0  0  0  0  0  0  0  0  0  0  0
   13.1854  -19.7461   22.7019 C   0  0  0  0  0  0  0  0  0  0  0  0
   13.5874  -20.5899   23.5488 O   0  0  0  0  0  0  0  0  0  0  0  0
   10.7717  -16.4414   25.2033 C   0  0  0  0  0  0  0  0  0  0  0  0
   11.5003  -15.4320   25.1515 O   0  0  0  0  0  0  0  0  0  0  0  0
   14.0564  -19.3867   21.6597 O   0  0  0  0  0  0  0  0  0  0  0  0
    5.9780  -12.0645   24.6285 O   0  0  0  0  0  0  0  0  0  0  0  0
    6.6696  -12.9297   25.4659 C   0  0  0  0  0  0  0  0  0  0  0  0
    6.3090  -14.2622   25.5446 C   0  0  0  0  0  0  0  0  0  0  0  0
    6.9901  -15.1399   26.3755 C   0  0  0  0  0  0  0  0  0  0  0  0
    8.0391  -14.6722   27.1304 C   0  0  0  0  0  0  0  0  0  0  0  0
    8.7782  -15.5610   28.0159 C   0  0  0  0  0  0  0  0  0  0  0  0
   10.1712  -15.8927   27.5871 C   0  0  2  0  0  0  0  0  0  0  0  0
   10.0921  -16.7454   26.4129 N   0  0  0  0  0  0  0  0  0  0  0  0
   10.9260  -16.6498   28.6165 C   0  0  0  0  0  0  0  0  0  0  0  0
   11.2360  -17.8768   28.4972 O   0  0  0  0  0  0  0  0  0  0  0  0
    8.4309  -13.3336   27.0755 C   0  0  0  0  0  0  0  0  0  0  0  0
    7.7250  -12.4698   26.2279 C   0  0  0  0  0  0  0  0  0  0  0  0
   11.3488  -16.0575   29.7978 O   0  0  0  0  0  0  0  0  0  0  0  0
  2  3  1  1
  2  1  1  0
  4  2  1  0
  5  7  1  0
  5  4  1  0
  5  6  1  6
  7  8  2  0
  9 10  1  0
  9  7  1  0
 10 11  1  6
 12 11  1  0
 13 12  1  0
 13 17  1  0
 14 13  2  0
 15 16  2  0
 15 10  1  0
 19 20  2  0
 19 18  1  0
 21 20  1  0
 22 21  2  0
 23 22  1  0
 24 23  1  1
 24 25  1  0
 25 15  1  0
 26 24  1  0
 26 30  1  0
 27 26  2  0
 28 22  1  0
 28 29  2  0
 29 19  1  0
M  END
$$$$
