LEY.pdb
     RDKit          3D

 30 30  0  0  1  0  0  0  0  0999 V2000
    6.5724  -12.2355   20.9206 C   0  0  0  0  0  0  0  0  0  0  0  0
    7.2950  -13.4283   20.2932 C   0  0  1  0  0  0  0  0  0  0  0  0
    8.5437  -12.8396   19.6134 C   0  0  0  0  0  0  0  0  0  0  0  0
    7.7423  -14.3180   21.4461 C   0  0  0  0  0  0  0  0  0  0  0  0
    8.5650  -15.5007   20.9835 C   0  0  2  0  0  0  0  0  0  0  0  0
    7.7130  -16.3255   20.1031 N   0  0  0  0  0  0  0  0  0  0  0  0
    9.0118  -16.3814   22.0650 C   0  0  0  0  0  0  0  0  0  0  0  0
    8.2492  -17.2007   22.6307 O   0  0  0  0  0  0  0  0  0  0  0  0
   10.3774  -16.3361   22.5252 N   0  0  0  0  0  0  0  0  0  0  0  0
   10.8749  -17.2170   23.5615 C   0  0  1  0  0  0  0  0  0  0  0  0
   12.3484  -17.5417   23.3404 C   0  0  0  0  0  0  0  0  0  0  0  0
   12.5335  -18.3081   22.0426 C   0  0  0  0  0  0  0  0  0  0  0  0
   14.0226  -18.5097   21.9151 C   0  0  0  0  0  0  0  0  0  0  0  0
   14.4897  -19.5159   21.3148 O   0  0  0  0  0  0  0  0  0  0  0  0
   10.7973  -16.5271   24.8609 C   0  0  0  0  0  0  0  0  0  0  0  0
   11.3935  -15.4452   25.0240 O   0  0  0  0  0  0  0  0  0  0  0  0
   14.9280  -17.5829   22.4583 O   0  0  0  0  0  0  0  0  0  0  0  0
    7.0071  -11.2641   25.1570 O   0  0  0  0  0  0  0  0  0  0  0  0
    7.4131  -12.4494   25.7555 C   0  0  0  0  0  0  0  0  0  0  0  0
    6.8638  -13.6551   25.3600 C   0  0  0  0  0  0  0  0  0  0  0  0
    7.2590  -14.8483   25.9472 C   0  0  0  0  0  0  0  0  0  0  0  0
    8.2119  -14.8259   26.9374 C   0  0  0  0  0  0  0  0  0  0  0  0
    8.6524  -16.0563   27.5796 C   0  0  0  0  0  0  0  0  0  0  0  0
   10.0485  -16.4883   27.2654 C   0  0  2  0  0  0  0  0  0  0  0  0
   10.0515  -17.0776   25.9370 N   0  0  0  0  0  0  0  0  0  0  0  0
   10.5532  -17.5278   28.1966 C   0  0  0  0  0  0  0  0  0  0  0  0
   10.6775  -17.3467   29.4486 O   0  0  0  0  0  0  0  0  0  0  0  0
    8.7883  -13.6273   27.3611 C   0  0  0  0  0  0  0  0  0  0  0  0
    8.3700  -12.4376   26.7507 C   0  0  0  0  0  0  0  0  0  0  0  0
   10.9304  -18.7873   27.7531 O   0  0  0  0  0  0  0  0  0  0  0  0
  2  3  1  1
  2  1  1  0
  4  2  1  0
  5  7  1  0
  5  4  1  0
  5  6  1  6
  7  8  2  0
  9 10  1  0
  9  7  1  0
 10 11  1  6
 12 11  1  0
 13 12  1  0
 13 17  1  0
 14 13  2  0
 15 16  2  0
 15 10  1  0
 19 20  2  0
 19 18  1  0
 21 20  1  0
 22 21  2  0
 23 22  1  0
 24 23  1  1
 24 25  1  0
 25 15  1  0
 26 24  1  0
 26 30  1  0
 27 26  2  0
 28 22  1  0
 28 29  2  0
 29 19  1  0
M  END
$$$$
