LEY.pdb
     RDKit          3D

 30 30  0  0  1  0  0  0  0  0999 V2000
    7.0552  -12.6188   24.0668 C   0  0  0  0  0  0  0  0  0  0  0  0
    7.2835  -13.4336   25.3406 C   0  0  1  0  0  0  0  0  0  0  0  0
    6.9469  -12.4815   26.5018 C   0  0  0  0  0  0  0  0  0  0  0  0
    6.2585  -14.5605   25.3224 C   0  0  0  0  0  0  0  0  0  0  0  0
    6.6953  -15.7310   24.4686 C   0  0  2  0  0  0  0  0  0  0  0  0
    5.7296  -16.8282   24.6802 N   0  0  0  0  0  0  0  0  0  0  0  0
    8.0119  -16.2698   24.8163 C   0  0  0  0  0  0  0  0  0  0  0  0
    8.1726  -17.1559   25.6891 O   0  0  0  0  0  0  0  0  0  0  0  0
    9.1960  -15.7892   24.1487 N   0  0  0  0  0  0  0  0  0  0  0  0
    9.9174  -16.5888   23.1803 C   0  0  1  0  0  0  0  0  0  0  0  0
    9.3196  -16.4280   21.7866 C   0  0  0  0  0  0  0  0  0  0  0  0
   10.1682  -17.1554   20.7586 C   0  0  0  0  0  0  0  0  0  0  0  0
    9.4623  -16.9391   19.4436 C   0  0  0  0  0  0  0  0  0  0  0  0
    8.4344  -17.6061   19.1443 O   0  0  0  0  0  0  0  0  0  0  0  0
   11.3053  -16.1031   23.0901 C   0  0  0  0  0  0  0  0  0  0  0  0
   11.5818  -15.1569   22.3279 O   0  0  0  0  0  0  0  0  0  0  0  0
    9.9280  -15.9890   18.5192 O   0  0  0  0  0  0  0  0  0  0  0  0
   10.6317  -15.5243   31.2498 O   0  0  0  0  0  0  0  0  0  0  0  0
   10.8456  -15.5011   29.8780 C   0  0  0  0  0  0  0  0  0  0  0  0
   10.2806  -14.5074   29.1001 C   0  0  0  0  0  0  0  0  0  0  0  0
   10.4850  -14.4694   27.7285 C   0  0  0  0  0  0  0  0  0  0  0  0
   11.2622  -15.4374   27.1386 C   0  0  0  0  0  0  0  0  0  0  0  0
   11.4995  -15.4335   25.7019 C   0  0  0  0  0  0  0  0  0  0  0  0
   12.6234  -16.2973   25.2276 C   0  0  2  0  0  0  0  0  0  0  0  0
   12.3394  -16.6989   23.8601 N   0  0  0  0  0  0  0  0  0  0  0  0
   12.7656  -17.5442   26.0197 C   0  0  0  0  0  0  0  0  0  0  0  0
   13.5689  -17.6658   26.9973 O   0  0  0  0  0  0  0  0  0  0  0  0
   11.8487  -16.4548   27.8930 C   0  0  0  0  0  0  0  0  0  0  0  0
   11.6251  -16.4686   29.2761 C   0  0  0  0  0  0  0  0  0  0  0  0
   12.0186  -18.6792   25.7389 O   0  0  0  0  0  0  0  0  0  0  0  0
  2  3  1  1
  2  1  1  0
  4  2  1  0
  5  7  1  0
  5  4  1  0
  5  6  1  1
  7  8  2  0
  9 10  1  0
  9  7  1  0
 10 11  1  6
 12 11  1  0
 13 12  1  0
 13 17  1  0
 14 13  2  0
 15 16  2  0
 15 10  1  0
 19 20  2  0
 19 18  1  0
 21 20  1  0
 22 21  2  0
 23 22  1  0
 24 23  1  1
 24 25  1  0
 25 15  1  0
 26 24  1  0
 26 30  1  0
 27 26  2  0
 28 22  1  0
 28 29  2  0
 29 19  1  0
M  END
$$$$
