LEY.pdb
     RDKit          3D

 30 30  0  0  1  0  0  0  0  0999 V2000
    7.1982  -11.9782   19.9733 C   0  0  0  0  0  0  0  0  0  0  0  0
    7.2099  -13.3758   19.3527 C   0  0  1  0  0  0  0  0  0  0  0  0
    7.9922  -13.2326   18.0353 C   0  0  0  0  0  0  0  0  0  0  0  0
    8.0088  -14.2624   20.2994 C   0  0  0  0  0  0  0  0  0  0  0  0
    8.1157  -15.6900   19.8090 C   0  0  2  0  0  0  0  0  0  0  0  0
    6.7604  -16.2765   19.8307 N   0  0  0  0  0  0  0  0  0  0  0  0
    8.9500  -16.5525   20.6484 C   0  0  0  0  0  0  0  0  0  0  0  0
    8.5259  -17.0918   21.6982 O   0  0  0  0  0  0  0  0  0  0  0  0
   10.3198  -16.8187   20.2857 N   0  0  0  0  0  0  0  0  0  0  0  0
   11.2159  -17.5680   21.1418 C   0  0  1  0  0  0  0  0  0  0  0  0
   12.5760  -17.7543   20.4778 C   0  0  0  0  0  0  0  0  0  0  0  0
   13.4844  -18.5957   21.3569 C   0  0  0  0  0  0  0  0  0  0  0  0
   14.6280  -19.0035   20.4622 C   0  0  0  0  0  0  0  0  0  0  0  0
   15.1527  -20.1460   20.5638 O   0  0  0  0  0  0  0  0  0  0  0  0
   11.4627  -16.7993   22.3741 C   0  0  0  0  0  0  0  0  0  0  0  0
   11.8955  -15.6332   22.3002 O   0  0  0  0  0  0  0  0  0  0  0  0
   15.1373  -18.1244   19.4917 O   0  0  0  0  0  0  0  0  0  0  0  0
   10.4926  -14.1907   30.7211 O   0  0  0  0  0  0  0  0  0  0  0  0
   10.4162  -14.7217   29.4403 C   0  0  0  0  0  0  0  0  0  0  0  0
   10.4984  -16.0881   29.2450 C   0  0  0  0  0  0  0  0  0  0  0  0
   10.4231  -16.6347   27.9722 C   0  0  0  0  0  0  0  0  0  0  0  0
   10.2643  -15.8003   26.8917 C   0  0  0  0  0  0  0  0  0  0  0  0
   10.1825  -16.3347   25.5396 C   0  0  0  0  0  0  0  0  0  0  0  0
   11.4892  -16.6556   24.8886 C   0  0  2  0  0  0  0  0  0  0  0  0
   11.2157  -17.3681   23.6519 N   0  0  0  0  0  0  0  0  0  0  0  0
   12.3420  -17.5449   25.7159 C   0  0  0  0  0  0  0  0  0  0  0  0
   13.2737  -17.1203   26.4693 O   0  0  0  0  0  0  0  0  0  0  0  0
   10.1768  -14.4164   27.0517 C   0  0  0  0  0  0  0  0  0  0  0  0
   10.2562  -13.8921   28.3485 C   0  0  0  0  0  0  0  0  0  0  0  0
   12.1758  -18.9224   25.7200 O   0  0  0  0  0  0  0  0  0  0  0  0
  2  3  1  6
  2  1  1  0
  4  2  1  0
  5  7  1  0
  5  4  1  0
  5  6  1  1
  7  8  2  0
  9 10  1  0
  9  7  1  0
 10 11  1  6
 12 11  1  0
 13 12  1  0
 13 17  1  0
 14 13  2  0
 15 16  2  0
 15 10  1  0
 19 20  2  0
 19 18  1  0
 21 20  1  0
 22 21  2  0
 23 22  1  0
 24 23  1  1
 24 25  1  0
 25 15  1  0
 26 24  1  0
 26 30  1  0
 27 26  2  0
 28 22  1  0
 28 29  2  0
 29 19  1  0
M  END
$$$$
