LEY.pdb
     RDKit          3D

 30 30  0  0  1  0  0  0  0  0999 V2000
    7.9961  -12.8270   23.6334 C   0  0  0  0  0  0  0  0  0  0  0  0
    7.5052  -13.9932   24.4921 C   0  0  1  0  0  0  0  0  0  0  0  0
    6.3978  -13.4068   25.3852 C   0  0  0  0  0  0  0  0  0  0  0  0
    6.8777  -14.9998   23.5362 C   0  0  0  0  0  0  0  0  0  0  0  0
    7.8940  -15.6412   22.6166 C   0  0  2  0  0  0  0  0  0  0  0  0
    7.1815  -16.6196   21.7703 N   0  0  0  0  0  0  0  0  0  0  0  0
    8.9455  -16.3875   23.3109 C   0  0  0  0  0  0  0  0  0  0  0  0
    8.7044  -17.3797   24.0392 O   0  0  0  0  0  0  0  0  0  0  0  0
   10.3271  -15.9982   23.1751 N   0  0  0  0  0  0  0  0  0  0  0  0
   11.4091  -16.7692   23.7517 C   0  0  1  0  0  0  0  0  0  0  0  0
   12.7417  -16.4074   23.1046 C   0  0  0  0  0  0  0  0  0  0  0  0
   13.8420  -17.3249   23.6082 C   0  0  0  0  0  0  0  0  0  0  0  0
   15.0703  -16.9291   22.8278 C   0  0  0  0  0  0  0  0  0  0  0  0
   15.3987  -17.5504   21.7804 O   0  0  0  0  0  0  0  0  0  0  0  0
   11.5395  -16.4272   25.1787 C   0  0  0  0  0  0  0  0  0  0  0  0
   12.0591  -15.3444   25.5109 O   0  0  0  0  0  0  0  0  0  0  0  0
   15.8791  -15.8584   23.2442 O   0  0  0  0  0  0  0  0  0  0  0  0
    7.8820  -11.6093   26.9844 O   0  0  0  0  0  0  0  0  0  0  0  0
    8.3735  -12.8751   27.2750 C   0  0  0  0  0  0  0  0  0  0  0  0
    7.6629  -14.0019   26.9044 C   0  0  0  0  0  0  0  0  0  0  0  0
    8.1402  -15.2736   27.1863 C   0  0  0  0  0  0  0  0  0  0  0  0
    9.3389  -15.4100   27.8447 C   0  0  0  0  0  0  0  0  0  0  0  0
    9.8733  -16.7272   28.1605 C   0  0  0  0  0  0  0  0  0  0  0  0
   11.2279  -17.0281   27.6048 C   0  0  2  0  0  0  0  0  0  0  0  0
   11.0819  -17.3158   26.1878 N   0  0  0  0  0  0  0  0  0  0  0  0
   11.8515  -18.2245   28.2230 C   0  0  0  0  0  0  0  0  0  0  0  0
   12.1368  -18.3066   29.4590 O   0  0  0  0  0  0  0  0  0  0  0  0
   10.0831  -14.2948   28.2330 C   0  0  0  0  0  0  0  0  0  0  0  0
    9.5768  -13.0227   27.9355 C   0  0  0  0  0  0  0  0  0  0  0  0
   12.1709  -19.3510   27.4786 O   0  0  0  0  0  0  0  0  0  0  0  0
  2  3  1  1
  2  1  1  0
  4  2  1  0
  5  7  1  0
  5  4  1  0
  5  6  1  6
  7  8  2  0
  9 10  1  0
  9  7  1  0
 10 11  1  6
 12 11  1  0
 13 12  1  0
 13 17  1  0
 14 13  2  0
 15 16  2  0
 15 10  1  0
 19 20  2  0
 19 18  1  0
 21 20  1  0
 22 21  2  0
 23 22  1  0
 24 23  1  1
 24 25  1  0
 25 15  1  0
 26 24  1  0
 26 30  1  0
 27 26  2  0
 28 22  1  0
 28 29  2  0
 29 19  1  0
M  END
$$$$
