LEY.pdb
     RDKit          3D

 30 30  0  0  1  0  0  0  0  0999 V2000
    7.1791  -12.4972   19.1020 C   0  0  0  0  0  0  0  0  0  0  0  0
    8.0252  -13.6730   18.6118 C   0  0  1  0  0  0  0  0  0  0  0  0
    9.4206  -13.0863   18.3352 C   0  0  0  0  0  0  0  0  0  0  0  0
    8.1291  -14.6469   19.7786 C   0  0  0  0  0  0  0  0  0  0  0  0
    9.2038  -15.6917   19.5710 C   0  0  2  0  0  0  0  0  0  0  0  0
    8.7163  -16.6432   18.5521 N   0  0  0  0  0  0  0  0  0  0  0  0
    9.5074  -16.4862   20.7631 C   0  0  0  0  0  0  0  0  0  0  0  0
    8.6186  -16.9076   21.5412 O   0  0  0  0  0  0  0  0  0  0  0  0
   10.8716  -16.8205   21.0888 N   0  0  0  0  0  0  0  0  0  0  0  0
   11.2228  -17.5679   22.2785 C   0  0  1  0  0  0  0  0  0  0  0  0
   12.7235  -17.8338   22.3324 C   0  0  0  0  0  0  0  0  0  0  0  0
   13.1572  -18.6686   21.1403 C   0  0  0  0  0  0  0  0  0  0  0  0
   14.6646  -18.6591   21.1826 C   0  0  0  0  0  0  0  0  0  0  0  0
   15.3378  -18.3340   20.1667 O   0  0  0  0  0  0  0  0  0  0  0  0
   10.9063  -16.7592   23.4685 C   0  0  0  0  0  0  0  0  0  0  0  0
   11.3236  -15.5880   23.5500 O   0  0  0  0  0  0  0  0  0  0  0  0
   15.3586  -19.0090   22.3531 O   0  0  0  0  0  0  0  0  0  0  0  0
    6.0930  -11.1796   26.8670 O   0  0  0  0  0  0  0  0  0  0  0  0
    6.5999  -12.3913   26.4166 C   0  0  0  0  0  0  0  0  0  0  0  0
    7.8857  -12.4664   25.9135 C   0  0  0  0  0  0  0  0  0  0  0  0
    8.4075  -13.6692   25.4602 C   0  0  0  0  0  0  0  0  0  0  0  0
    7.6299  -14.8011   25.5143 C   0  0  0  0  0  0  0  0  0  0  0  0
    8.1402  -16.0824   25.0470 C   0  0  0  0  0  0  0  0  0  0  0  0
    9.5019  -16.4561   25.5373 C   0  0  2  0  0  0  0  0  0  0  0  0
   10.1307  -17.2950   24.5308 N   0  0  0  0  0  0  0  0  0  0  0  0
    9.4653  -17.2471   26.7925 C   0  0  0  0  0  0  0  0  0  0  0  0
    9.3456  -18.5123   26.8204 O   0  0  0  0  0  0  0  0  0  0  0  0
    6.3281  -14.7624   26.0167 C   0  0  0  0  0  0  0  0  0  0  0  0
    5.8270  -13.5341   26.4673 C   0  0  0  0  0  0  0  0  0  0  0  0
    9.5597  -16.6463   28.0396 O   0  0  0  0  0  0  0  0  0  0  0  0
  2  3  1  1
  2  1  1  0
  4  2  1  0
  5  7  1  0
  5  4  1  0
  5  6  1  6
  7  8  2  0
  9 10  1  0
  9  7  1  0
 10 11  1  6
 12 11  1  0
 13 12  1  0
 13 17  1  0
 14 13  2  0
 15 16  2  0
 15 10  1  0
 19 20  2  0
 19 18  1  0
 21 20  1  0
 22 21  2  0
 23 22  1  0
 24 23  1  6
 24 25  1  0
 25 15  1  0
 26 24  1  0
 26 30  1  0
 27 26  2  0
 28 22  1  0
 28 29  2  0
 29 19  1  0
M  END
$$$$
