LEY.pdb
     RDKit          3D

 30 30  0  0  1  0  0  0  0  0999 V2000
    7.5736  -12.0449   19.8425 C   0  0  0  0  0  0  0  0  0  0  0  0
    7.8320  -13.4873   19.4051 C   0  0  1  0  0  0  0  0  0  0  0  0
    9.1052  -13.4320   18.5426 C   0  0  0  0  0  0  0  0  0  0  0  0
    8.1366  -14.2754   20.6726 C   0  0  0  0  0  0  0  0  0  0  0  0
    8.3526  -15.7489   20.4043 C   0  0  2  0  0  0  0  0  0  0  0  0
    7.0730  -16.3126   19.9288 N   0  0  0  0  0  0  0  0  0  0  0  0
    8.7295  -16.5259   21.5870 C   0  0  0  0  0  0  0  0  0  0  0  0
    7.9242  -16.7839   22.5133 O   0  0  0  0  0  0  0  0  0  0  0  0
   10.0712  -17.0345   21.7284 N   0  0  0  0  0  0  0  0  0  0  0  0
   10.5197  -17.7132   22.9265 C   0  0  1  0  0  0  0  0  0  0  0  0
   11.7765  -18.5321   22.6514 C   0  0  0  0  0  0  0  0  0  0  0  0
   12.2865  -19.1673   23.9329 C   0  0  0  0  0  0  0  0  0  0  0  0
   13.5052  -19.9549   23.5222 C   0  0  0  0  0  0  0  0  0  0  0  0
   14.6455  -19.6656   23.9772 O   0  0  0  0  0  0  0  0  0  0  0  0
   10.8966  -16.7104   23.9378 C   0  0  0  0  0  0  0  0  0  0  0  0
   11.6957  -15.8017   23.6409 O   0  0  0  0  0  0  0  0  0  0  0  0
   13.4034  -21.0315   22.6252 O   0  0  0  0  0  0  0  0  0  0  0  0
    5.3214  -12.4942   26.8422 O   0  0  0  0  0  0  0  0  0  0  0  0
    6.5986  -12.9756   26.5869 C   0  0  0  0  0  0  0  0  0  0  0  0
    7.6669  -12.5670   27.3638 C   0  0  0  0  0  0  0  0  0  0  0  0
    8.9489  -13.0390   27.1226 C   0  0  0  0  0  0  0  0  0  0  0  0
    9.1548  -13.9267   26.0937 C   0  0  0  0  0  0  0  0  0  0  0  0
   10.4855  -14.4441   25.8072 C   0  0  0  0  0  0  0  0  0  0  0  0
   10.7612  -15.8302   26.2939 C   0  0  2  0  0  0  0  0  0  0  0  0
   10.3628  -16.7629   25.2530 N   0  0  0  0  0  0  0  0  0  0  0  0
    9.9800  -16.1814   27.5059 C   0  0  0  0  0  0  0  0  0  0  0  0
   10.0554  -15.5375   28.5993 O   0  0  0  0  0  0  0  0  0  0  0  0
    8.0997  -14.3613   25.2898 C   0  0  0  0  0  0  0  0  0  0  0  0
    6.8157  -13.8680   25.5561 C   0  0  0  0  0  0  0  0  0  0  0  0
    9.1018  -17.2554   27.5252 O   0  0  0  0  0  0  0  0  0  0  0  0
  2  3  1  6
  2  1  1  0
  4  2  1  0
  5  7  1  0
  5  4  1  0
  5  6  1  1
  7  8  2  0
  9 10  1  0
  9  7  1  0
 10 11  1  6
 12 11  1  0
 13 12  1  0
 13 17  1  0
 14 13  2  0
 15 16  2  0
 15 10  1  0
 19 20  2  0
 19 18  1  0
 21 20  1  0
 22 21  2  0
 23 22  1  0
 24 23  1  6
 24 25  1  0
 25 15  1  0
 26 24  1  0
 26 30  1  0
 27 26  2  0
 28 22  1  0
 28 29  2  0
 29 19  1  0
M  END
$$$$
