LEY.pdb
     RDKit          3D

 30 30  0  0  1  0  0  0  0  0999 V2000
    6.7698  -12.4014   20.0685 C   0  0  0  0  0  0  0  0  0  0  0  0
    7.9647  -13.3013   19.7510 C   0  0  1  0  0  0  0  0  0  0  0  0
    9.1277  -12.3432   19.4389 C   0  0  0  0  0  0  0  0  0  0  0  0
    8.2883  -14.0583   21.0329 C   0  0  0  0  0  0  0  0  0  0  0  0
    8.6557  -15.5040   20.7783 C   0  0  2  0  0  0  0  0  0  0  0  0
    7.4818  -16.1679   20.1760 N   0  0  0  0  0  0  0  0  0  0  0  0
    8.9811  -16.2630   21.9878 C   0  0  0  0  0  0  0  0  0  0  0  0
    8.1184  -16.8919   22.6459 O   0  0  0  0  0  0  0  0  0  0  0  0
   10.3379  -16.3154   22.4728 N   0  0  0  0  0  0  0  0  0  0  0  0
   10.7403  -17.1908   23.5541 C   0  0  1  0  0  0  0  0  0  0  0  0
   12.1495  -17.7272   23.3258 C   0  0  0  0  0  0  0  0  0  0  0  0
   12.1419  -18.7951   22.2463 C   0  0  0  0  0  0  0  0  0  0  0  0
   13.5838  -19.2106   22.0955 C   0  0  0  0  0  0  0  0  0  0  0  0
   14.1652  -19.8680   23.0014 O   0  0  0  0  0  0  0  0  0  0  0  0
   10.7933  -16.4182   24.8073 C   0  0  0  0  0  0  0  0  0  0  0  0
   11.4751  -15.3768   24.8643 O   0  0  0  0  0  0  0  0  0  0  0  0
   14.3162  -18.8793   20.9432 O   0  0  0  0  0  0  0  0  0  0  0  0
    5.8243  -11.9936   24.8869 O   0  0  0  0  0  0  0  0  0  0  0  0
    6.5416  -12.9604   25.5789 C   0  0  0  0  0  0  0  0  0  0  0  0
    6.3367  -14.3025   25.3171 C   0  0  0  0  0  0  0  0  0  0  0  0
    7.0456  -15.2808   25.9989 C   0  0  0  0  0  0  0  0  0  0  0  0
    7.9649  -14.9046   26.9488 C   0  0  0  0  0  0  0  0  0  0  0  0
    8.7280  -15.9009   27.6873 C   0  0  0  0  0  0  0  0  0  0  0  0
   10.1302  -16.1222   27.2191 C   0  0  2  0  0  0  0  0  0  0  0  0
   10.0778  -16.8431   25.9584 N   0  0  0  0  0  0  0  0  0  0  0  0
   10.9258  -16.9542   28.1558 C   0  0  0  0  0  0  0  0  0  0  0  0
   11.2993  -18.1409   27.8949 O   0  0  0  0  0  0  0  0  0  0  0  0
    8.1980  -13.5592   27.2383 C   0  0  0  0  0  0  0  0  0  0  0  0
    7.4676  -12.5926   26.5345 C   0  0  0  0  0  0  0  0  0  0  0  0
   11.3196  -16.4830   29.4000 O   0  0  0  0  0  0  0  0  0  0  0  0
  2  3  1  1
  2  1  1  0
  4  2  1  0
  5  7  1  0
  5  4  1  0
  5  6  1  1
  7  8  2  0
  9 10  1  0
  9  7  1  0
 10 11  1  6
 12 11  1  0
 13 12  1  0
 13 17  1  0
 14 13  2  0
 15 16  2  0
 15 10  1  0
 19 20  2  0
 19 18  1  0
 21 20  1  0
 22 21  2  0
 23 22  1  0
 24 23  1  1
 24 25  1  0
 25 15  1  0
 26 24  1  0
 26 30  1  0
 27 26  2  0
 28 22  1  0
 28 29  2  0
 29 19  1  0
M  END
$$$$
