LEY.pdb
     RDKit          3D

 30 30  0  0  1  0  0  0  0  0999 V2000
    7.2740  -11.6994   20.6253 C   0  0  0  0  0  0  0  0  0  0  0  0
    7.3649  -13.1699   20.2153 C   0  0  1  0  0  0  0  0  0  0  0  0
    8.6531  -13.2838   19.3814 C   0  0  0  0  0  0  0  0  0  0  0  0
    7.5453  -13.9668   21.5010 C   0  0  0  0  0  0  0  0  0  0  0  0
    7.7096  -15.4497   21.2486 C   0  0  2  0  0  0  0  0  0  0  0  0
    6.3645  -16.0233   21.0413 N   0  0  0  0  0  0  0  0  0  0  0  0
    8.3027  -16.1871   22.3663 C   0  0  0  0  0  0  0  0  0  0  0  0
    7.6167  -16.6794   23.2936 O   0  0  0  0  0  0  0  0  0  0  0  0
    9.7300  -16.3783   22.4383 N   0  0  0  0  0  0  0  0  0  0  0  0
   10.3479  -17.2293   23.4339 C   0  0  1  0  0  0  0  0  0  0  0  0
   11.7584  -17.6270   23.0119 C   0  0  0  0  0  0  0  0  0  0  0  0
   12.3189  -18.6752   23.9569 C   0  0  0  0  0  0  0  0  0  0  0  0
   13.6810  -19.0127   23.4047 C   0  0  0  0  0  0  0  0  0  0  0  0
   14.6431  -19.2795   24.1755 O   0  0  0  0  0  0  0  0  0  0  0  0
   10.4930  -16.4756   24.6914 C   0  0  0  0  0  0  0  0  0  0  0  0
   11.1219  -15.3999   24.6995 O   0  0  0  0  0  0  0  0  0  0  0  0
   13.9141  -19.0416   22.0195 O   0  0  0  0  0  0  0  0  0  0  0  0
    6.4942  -11.3091   25.4097 O   0  0  0  0  0  0  0  0  0  0  0  0
    7.0623  -12.4413   25.9785 C   0  0  0  0  0  0  0  0  0  0  0  0
    8.1428  -12.3258   26.8334 C   0  0  0  0  0  0  0  0  0  0  0  0
    8.7216  -13.4467   27.4106 C   0  0  0  0  0  0  0  0  0  0  0  0
    8.2088  -14.6894   27.1246 C   0  0  0  0  0  0  0  0  0  0  0  0
    8.7888  -15.8905   27.7088 C   0  0  0  0  0  0  0  0  0  0  0  0
   10.1274  -16.2896   27.1765 C   0  0  2  0  0  0  0  0  0  0  0  0
    9.9264  -16.9573   25.9015 N   0  0  0  0  0  0  0  0  0  0  0  0
   10.8342  -17.2522   28.0576 C   0  0  0  0  0  0  0  0  0  0  0  0
   11.1554  -16.9958   29.2606 O   0  0  0  0  0  0  0  0  0  0  0  0
    7.1186  -14.8433   26.2667 C   0  0  0  0  0  0  0  0  0  0  0  0
    6.5543  -13.6939   25.6979 C   0  0  0  0  0  0  0  0  0  0  0  0
   11.1982  -18.5167   27.6176 O   0  0  0  0  0  0  0  0  0  0  0  0
  2  3  1  6
  2  1  1  0
  4  2  1  0
  5  7  1  0
  5  4  1  0
  5  6  1  1
  7  8  2  0
  9 10  1  0
  9  7  1  0
 10 11  1  6
 12 11  1  0
 13 12  1  0
 13 17  1  0
 14 13  2  0
 15 16  2  0
 15 10  1  0
 19 20  2  0
 19 18  1  0
 21 20  1  0
 22 21  2  0
 23 22  1  0
 24 23  1  1
 24 25  1  0
 25 15  1  0
 26 24  1  0
 26 30  1  0
 27 26  2  0
 28 22  1  0
 28 29  2  0
 29 19  1  0
M  END
$$$$
