LEY.pdb
     RDKit          3D

 30 30  0  0  1  0  0  0  0  0999 V2000
    6.5064  -13.3088   18.8439 C   0  0  0  0  0  0  0  0  0  0  0  0
    8.0348  -13.2745   18.8825 C   0  0  1  0  0  0  0  0  0  0  0  0
    8.4066  -11.7946   19.0806 C   0  0  0  0  0  0  0  0  0  0  0  0
    8.4534  -14.0520   20.1238 C   0  0  0  0  0  0  0  0  0  0  0  0
    8.7769  -15.4993   19.8228 C   0  0  2  0  0  0  0  0  0  0  0  0
    7.6189  -16.0820   19.1151 N   0  0  0  0  0  0  0  0  0  0  0  0
    8.9906  -16.3269   21.0119 C   0  0  0  0  0  0  0  0  0  0  0  0
    8.1428  -17.1550   21.4226 O   0  0  0  0  0  0  0  0  0  0  0  0
   10.2136  -16.2161   21.7674 N   0  0  0  0  0  0  0  0  0  0  0  0
   10.9394  -17.3767   22.2403 C   0  0  1  0  0  0  0  0  0  0  0  0
   11.4344  -18.2235   21.0726 C   0  0  0  0  0  0  0  0  0  0  0  0
   12.1950  -19.4354   21.5814 C   0  0  0  0  0  0  0  0  0  0  0  0
   11.2974  -20.6120   21.2908 C   0  0  0  0  0  0  0  0  0  0  0  0
   10.3385  -20.5084   20.4780 O   0  0  0  0  0  0  0  0  0  0  0  0
   12.1431  -16.9322   22.9641 C   0  0  0  0  0  0  0  0  0  0  0  0
   13.1624  -17.6488   22.9692 O   0  0  0  0  0  0  0  0  0  0  0  0
   11.5062  -21.8535   21.9146 O   0  0  0  0  0  0  0  0  0  0  0  0
   10.5230  -15.5572   31.2703 O   0  0  0  0  0  0  0  0  0  0  0  0
   10.6158  -15.5219   29.8853 C   0  0  0  0  0  0  0  0  0  0  0  0
   10.6391  -14.3111   29.2178 C   0  0  0  0  0  0  0  0  0  0  0  0
   10.7323  -14.2584   27.8347 C   0  0  0  0  0  0  0  0  0  0  0  0
   10.8022  -15.4311   27.1214 C   0  0  0  0  0  0  0  0  0  0  0  0
   10.8992  -15.4183   25.6685 C   0  0  0  0  0  0  0  0  0  0  0  0
   12.2707  -15.6166   25.1081 C   0  0  2  0  0  0  0  0  0  0  0  0
   12.1612  -15.6948   23.6611 N   0  0  0  0  0  0  0  0  0  0  0  0
   12.8999  -16.8827   25.5594 C   0  0  0  0  0  0  0  0  0  0  0  0
   12.4997  -18.0330   25.1952 O   0  0  0  0  0  0  0  0  0  0  0  0
   10.7820  -16.6710   27.7621 C   0  0  0  0  0  0  0  0  0  0  0  0
   10.6870  -16.6942   29.1598 C   0  0  0  0  0  0  0  0  0  0  0  0
   13.9845  -16.8936   26.4246 O   0  0  0  0  0  0  0  0  0  0  0  0
  2  3  1  1
  2  1  1  0
  4  2  1  0
  5  7  1  0
  5  4  1  0
  5  6  1  1
  7  8  2  0
  9 10  1  0
  9  7  1  0
 10 11  1  6
 12 11  1  0
 13 12  1  0
 13 17  1  0
 14 13  2  0
 15 16  2  0
 15 10  1  0
 19 20  2  0
 19 18  1  0
 21 20  1  0
 22 21  2  0
 23 22  1  0
 24 23  1  1
 24 25  1  0
 25 15  1  0
 26 24  1  0
 26 30  1  0
 27 26  2  0
 28 22  1  0
 28 29  2  0
 29 19  1  0
M  END
$$$$
