LEY.pdb
     RDKit          3D

 30 30  0  0  1  0  0  0  0  0999 V2000
    7.0765  -12.0593   20.1625 C   0  0  0  0  0  0  0  0  0  0  0  0
    7.6680  -13.3256   19.5419 C   0  0  1  0  0  0  0  0  0  0  0  0
    8.9366  -12.8655   18.8025 C   0  0  0  0  0  0  0  0  0  0  0  0
    8.0793  -14.2238   20.7016 C   0  0  0  0  0  0  0  0  0  0  0  0
    8.6532  -15.5454   20.2392 C   0  0  2  0  0  0  0  0  0  0  0  0
    7.5924  -16.2656   19.5063 N   0  0  0  0  0  0  0  0  0  0  0  0
    9.0746  -16.4307   21.3270 C   0  0  0  0  0  0  0  0  0  0  0  0
    8.3144  -17.2890   21.8353 O   0  0  0  0  0  0  0  0  0  0  0  0
   10.4109  -16.3444   21.8615 N   0  0  0  0  0  0  0  0  0  0  0  0
   10.8859  -17.2286   22.9054 C   0  0  1  0  0  0  0  0  0  0  0  0
   12.3727  -17.5228   22.7363 C   0  0  0  0  0  0  0  0  0  0  0  0
   12.6019  -18.4216   21.5340 C   0  0  0  0  0  0  0  0  0  0  0  0
   14.0987  -18.5813   21.4435 C   0  0  0  0  0  0  0  0  0  0  0  0
   14.6388  -19.7108   21.5966 O   0  0  0  0  0  0  0  0  0  0  0  0
   10.7462  -16.5565   24.2089 C   0  0  0  0  0  0  0  0  0  0  0  0
   10.8798  -15.3201   24.2854 O   0  0  0  0  0  0  0  0  0  0  0  0
   14.9304  -17.4789   21.1843 O   0  0  0  0  0  0  0  0  0  0  0  0
    6.0898  -11.4063   26.1772 O   0  0  0  0  0  0  0  0  0  0  0  0
    6.6144  -12.6870   26.0647 C   0  0  0  0  0  0  0  0  0  0  0  0
    7.9828  -12.8844   26.0759 C   0  0  0  0  0  0  0  0  0  0  0  0
    8.5230  -14.1574   25.9653 C   0  0  0  0  0  0  0  0  0  0  0  0
    7.6801  -15.2360   25.8428 C   0  0  0  0  0  0  0  0  0  0  0  0
    8.2077  -16.5879   25.7227 C   0  0  0  0  0  0  0  0  0  0  0  0
    9.5213  -16.8335   26.3923 C   0  0  2  0  0  0  0  0  0  0  0  0
   10.4619  -17.2980   25.3865 N   0  0  0  0  0  0  0  0  0  0  0  0
    9.4494  -17.8899   27.4321 C   0  0  0  0  0  0  0  0  0  0  0  0
    9.0686  -17.6740   28.6255 O   0  0  0  0  0  0  0  0  0  0  0  0
    6.2938  -15.0740   25.8286 C   0  0  0  0  0  0  0  0  0  0  0  0
    5.7760  -13.7770   25.9417 C   0  0  0  0  0  0  0  0  0  0  0  0
    9.8007  -19.2054   27.1650 O   0  0  0  0  0  0  0  0  0  0  0  0
  2  3  1  1
  2  1  1  0
  4  2  1  0
  5  7  1  0
  5  4  1  0
  5  6  1  1
  7  8  2  0
  9 10  1  0
  9  7  1  0
 10 11  1  6
 12 11  1  0
 13 12  1  0
 13 17  1  0
 14 13  2  0
 15 16  2  0
 15 10  1  0
 19 20  2  0
 19 18  1  0
 21 20  1  0
 22 21  2  0
 23 22  1  0
 24 23  1  6
 24 25  1  0
 25 15  1  0
 26 24  1  0
 26 30  1  0
 27 26  2  0
 28 22  1  0
 28 29  2  0
 29 19  1  0
M  END
$$$$
