RQA.pdb
     RDKit          3D

 26 25  0  0  1  0  0  0  0  0999 V2000
   20.2997  -18.7393  -18.2246 N   0  0  0  0  0  0  0  0  0  0  0  0
   20.5376  -17.3677  -18.0322 C   0  0  0  0  0  0  0  0  0  0  0  0
   19.5116  -16.5930  -17.8883 N   0  0  0  0  0  0  0  0  0  0  0  0
   21.8647  -16.8942  -18.0037 N   0  0  0  0  0  0  0  0  0  0  0  0
   22.9492  -17.8577  -18.2037 C   0  0  0  0  0  0  0  0  0  0  0  0
   23.2199  -18.5834  -16.9212 C   0  0  0  0  0  0  0  0  0  0  0  0
   24.3136  -17.9917  -16.1124 C   0  0  0  0  0  0  0  0  0  0  0  0
   25.3708  -18.9078  -15.6255 C   0  0  2  0  0  0  0  0  0  0  0  0
   26.1619  -19.4405  -16.6802 N   0  0  0  0  0  0  0  0  0  0  0  0
   24.7375  -19.9929  -14.7933 C   0  0  0  0  0  0  0  0  0  0  0  0
   24.5464  -21.1229  -15.3098 O   0  0  0  0  0  0  0  0  0  0  0  0
   19.5721  -15.5569  -17.8078 N   0  0  0  0  0  0  0  0  0  0  0  0
   25.4761  -23.0740  -11.4494 C   0  0  0  0  0  0  0  0  0  0  0  0
   26.1842  -21.9192  -11.0288 O   0  0  0  0  0  0  0  0  0  0  0  0
   27.3981  -22.0506  -10.7735 C   0  0  0  0  0  0  0  0  0  0  0  0
   25.4494  -20.6477  -10.9194 C   0  0  0  0  0  0  0  0  0  0  0  0
   24.0047  -20.7109  -11.2452 C   0  0  2  0  0  0  0  0  0  0  0  0
   23.7124  -20.9213  -12.7025 N   0  0  0  0  0  0  0  0  0  0  0  0
   24.3498  -19.7918  -13.4564 C   0  0  0  0  0  0  0  0  0  0  0  0
   22.2662  -20.9239  -13.0432 O   0  0  0  0  0  0  0  0  0  0  0  0
   21.6153  -19.8110  -13.0321 C   0  0  0  0  0  0  0  0  0  0  0  0
   19.7276  -23.2443  -14.4426 C   0  0  2  0  0  0  0  0  0  0  0  0
   20.0629  -21.9808  -13.6413 N   0  0  0  0  0  0  0  0  0  0  0  0
   21.4959  -22.0390  -13.3931 C   0  0  0  0  0  0  0  0  0  0  0  0
   19.2786  -21.8912  -12.4147 O   0  0  0  0  0  0  0  0  0  0  0  0
   19.8506  -22.0805  -11.1705 O   0  0  0  0  0  0  0  0  0  0  0  0
  2  3  2  0
  2  1  1  0
  4  2  1  0
  5  6  1  0
  5  4  1  0
  6  7  1  0
  7  8  1  0
  8  9  1  6
 10  8  1  0
 10 18  1  0
 11 10  2  0
 13 15  1  0
 13 12  1  0
 14 13  2  0
 17 16  1  6
 16 15  1  0
 17 18  1  0
 19 17  1  0
 20 19  2  0
 22 21  1  6
 22 24  1  0
 22 23  1  0
 23 19  1  0
 24 25  1  0
 26 24  2  0
M  END
$$$$
