RQA.pdb
     RDKit          3D

 26 25  0  0  1  0  0  0  0  0999 V2000
   26.2132  -24.8325  -16.9784 N   0  0  0  0  0  0  0  0  0  0  0  0
   25.7760  -24.7006  -15.6493 C   0  0  0  0  0  0  0  0  0  0  0  0
   25.2250  -25.7296  -15.0917 N   0  0  0  0  0  0  0  0  0  0  0  0
   25.9513  -23.4709  -14.9835 N   0  0  0  0  0  0  0  0  0  0  0  0
   25.9293  -22.2419  -15.7795 C   0  0  0  0  0  0  0  0  0  0  0  0
   24.8017  -21.3674  -15.3230 C   0  0  0  0  0  0  0  0  0  0  0  0
   23.4641  -21.8227  -15.7749 C   0  0  0  0  0  0  0  0  0  0  0  0
   22.7935  -21.0232  -16.8261 C   0  0  2  0  0  0  0  0  0  0  0  0
   23.6831  -20.1328  -17.4878 N   0  0  0  0  0  0  0  0  0  0  0  0
   21.6192  -20.2987  -16.2201 C   0  0  0  0  0  0  0  0  0  0  0  0
   20.6748  -20.9704  -15.7332 O   0  0  0  0  0  0  0  0  0  0  0  0
   24.8025  -25.7188  -14.1404 N   0  0  0  0  0  0  0  0  0  0  0  0
   18.6814  -17.4010  -13.0900 C   0  0  0  0  0  0  0  0  0  0  0  0
   20.0234  -17.3860  -12.6312 O   0  0  0  0  0  0  0  0  0  0  0  0
   20.2186  -17.6002  -11.4180 C   0  0  0  0  0  0  0  0  0  0  0  0
   21.0945  -17.1203  -13.6063 C   0  0  0  0  0  0  0  0  0  0  0  0
   20.6570  -16.9648  -15.0141 C   0  0  2  0  0  0  0  0  0  0  0  0
   20.2741  -18.2523  -15.6841 N   0  0  0  0  0  0  0  0  0  0  0  0
   21.5366  -18.8953  -16.1770 C   0  0  0  0  0  0  0  0  0  0  0  0
   19.3714  -18.0900  -16.8530 O   0  0  0  0  0  0  0  0  0  0  0  0
   19.8466  -17.6155  -17.9537 C   0  0  0  0  0  0  0  0  0  0  0  0
   15.9652  -19.0500  -17.9473 C   0  0  2  0  0  0  0  0  0  0  0  0
   17.1460  -18.0752  -18.0263 N   0  0  0  0  0  0  0  0  0  0  0  0
   18.0093  -18.4086  -16.9029 C   0  0  0  0  0  0  0  0  0  0  0  0
   16.7049  -16.6850  -18.0089 O   0  0  0  0  0  0  0  0  0  0  0  0
   16.2942  -16.0380  -19.1595 O   0  0  0  0  0  0  0  0  0  0  0  0
  2  3  2  0
  2  1  1  0
  4  2  1  0
  5  6  1  0
  5  4  1  0
  6  7  1  0
  7  8  1  0
  8  9  1  1
 10  8  1  0
 10 18  1  0
 11 10  2  0
 13 15  1  0
 13 12  1  0
 14 13  2  0
 17 16  1  1
 16 15  1  0
 17 18  1  0
 19 17  1  0
 20 19  2  0
 22 21  1  6
 22 24  1  0
 22 23  1  0
 23 19  1  0
 24 25  1  0
 26 24  2  0
M  END
$$$$
