RQA.pdb
     RDKit          3D

 26 25  0  0  1  0  0  0  0  0999 V2000
   25.6424  -20.6767   -9.8230 N   0  0  0  0  0  0  0  0  0  0  0  0
   26.5124  -21.1280  -10.8302 C   0  0  0  0  0  0  0  0  0  0  0  0
   27.7781  -20.9110  -10.6744 N   0  0  0  0  0  0  0  0  0  0  0  0
   25.9817  -21.7902  -11.9555 N   0  0  0  0  0  0  0  0  0  0  0  0
   24.8836  -21.1501  -12.6829 C   0  0  0  0  0  0  0  0  0  0  0  0
   23.5903  -21.4131  -11.9739 C   0  0  0  0  0  0  0  0  0  0  0  0
   22.5834  -20.3359  -12.1363 C   0  0  0  0  0  0  0  0  0  0  0  0
   21.8387  -20.2891  -13.4159 C   0  0  2  0  0  0  0  0  0  0  0  0
   21.7037  -21.5702  -14.0179 N   0  0  0  0  0  0  0  0  0  0  0  0
   22.5055  -19.3011  -14.3381 C   0  0  0  0  0  0  0  0  0  0  0  0
   22.6555  -18.1140  -13.9527 O   0  0  0  0  0  0  0  0  0  0  0  0
   28.4966  -21.1153  -11.3994 N   0  0  0  0  0  0  0  0  0  0  0  0
   27.3172  -20.0727  -16.2204 C   0  0  0  0  0  0  0  0  0  0  0  0
   27.2618  -18.7838  -16.8098 O   0  0  0  0  0  0  0  0  0  0  0  0
   28.3320  -18.1507  -16.9092 C   0  0  0  0  0  0  0  0  0  0  0  0
   25.9560  -18.2761  -17.2635 C   0  0  0  0  0  0  0  0  0  0  0  0
   24.8166  -19.2128  -17.1159 C   0  0  2  0  0  0  0  0  0  0  0  0
   23.5990  -18.6039  -16.4835 N   0  0  0  0  0  0  0  0  0  0  0  0
   22.9689  -19.6549  -15.6181 C   0  0  0  0  0  0  0  0  0  0  0  0
   22.5685  -18.1480  -17.4519 O   0  0  0  0  0  0  0  0  0  0  0  0
   21.7414  -19.0074  -17.9416 C   0  0  0  0  0  0  0  0  0  0  0  0
   21.3923  -17.5124  -19.9737 C   0  0  1  0  0  0  0  0  0  0  0  0
   21.3411  -16.4615  -18.8584 N   0  0  0  0  0  0  0  0  0  0  0  0
   22.3799  -16.8394  -17.9115 C   0  0  0  0  0  0  0  0  0  0  0  0
   20.0191  -16.3818  -18.2473 O   0  0  0  0  0  0  0  0  0  0  0  0
   19.2363  -15.2472  -18.3532 O   0  0  0  0  0  0  0  0  0  0  0  0
  2  3  2  0
  2  1  1  0
  4  2  1  0
  5  6  1  0
  5  4  1  0
  6  7  1  0
  7  8  1  0
  8  9  1  6
 10  8  1  0
 10 18  1  0
 11 10  2  0
 13 15  1  0
 13 12  1  0
 14 13  2  0
 17 16  1  1
 16 15  1  0
 17 18  1  0
 19 17  1  0
 20 19  2  0
 22 21  1  6
 22 24  1  0
 22 23  1  0
 23 19  1  0
 24 25  1  0
 26 24  2  0
M  END
$$$$
