RQA.pdb
     RDKit          3D

 26 25  0  0  1  0  0  0  0  0999 V2000
   22.1247  -21.6333  -13.2581 N   0  0  0  0  0  0  0  0  0  0  0  0
   21.4633  -22.7161  -13.8623 C   0  0  0  0  0  0  0  0  0  0  0  0
   20.2050  -22.8722  -13.6058 N   0  0  0  0  0  0  0  0  0  0  0  0
   22.1843  -23.5787  -14.7123 N   0  0  0  0  0  0  0  0  0  0  0  0
   23.5716  -23.2363  -15.0328 C   0  0  0  0  0  0  0  0  0  0  0  0
   23.7003  -22.9850  -16.5042 C   0  0  0  0  0  0  0  0  0  0  0  0
   24.5242  -23.9909  -17.2182 C   0  0  0  0  0  0  0  0  0  0  0  0
   25.8497  -24.3160  -16.6424 C   0  0  2  0  0  0  0  0  0  0  0  0
   26.7849  -23.2548  -16.7878 N   0  0  0  0  0  0  0  0  0  0  0  0
   26.3524  -25.5975  -17.2559 C   0  0  0  0  0  0  0  0  0  0  0  0
   27.0434  -25.5404  -18.3044 O   0  0  0  0  0  0  0  0  0  0  0  0
   19.6048  -23.5933  -14.0566 N   0  0  0  0  0  0  0  0  0  0  0  0
   28.0153  -31.6440  -16.4848 C   0  0  0  0  0  0  0  0  0  0  0  0
   29.0203  -30.6435  -16.5138 O   0  0  0  0  0  0  0  0  0  0  0  0
   30.2038  -31.0208  -16.6267 C   0  0  0  0  0  0  0  0  0  0  0  0
   28.6087  -29.2335  -16.4092 C   0  0  0  0  0  0  0  0  0  0  0  0
   27.1484  -28.9960  -16.3171 C   0  0  2  0  0  0  0  0  0  0  0  0
   26.6054  -28.0884  -17.3822 N   0  0  0  0  0  0  0  0  0  0  0  0
   26.0785  -26.8603  -16.7005 C   0  0  0  0  0  0  0  0  0  0  0  0
   25.4911  -28.6708  -18.1740 O   0  0  0  0  0  0  0  0  0  0  0  0
   24.3512  -28.8687  -17.6048 C   0  0  0  0  0  0  0  0  0  0  0  0
   24.8283  -29.7277  -21.6937 C   0  0  2  0  0  0  0  0  0  0  0  0
   24.4320  -29.6958  -20.2128 N   0  0  0  0  0  0  0  0  0  0  0  0
   25.5343  -29.0418  -19.5230 C   0  0  0  0  0  0  0  0  0  0  0  0
   24.1526  -31.0309  -19.6963 O   0  0  0  0  0  0  0  0  0  0  0  0
   25.1106  -31.7648  -19.0217 O   0  0  0  0  0  0  0  0  0  0  0  0
  2  3  2  0
  2  1  1  0
  4  2  1  0
  5  6  1  0
  5  4  1  0
  6  7  1  0
  7  8  1  0
  8  9  1  6
 10  8  1  0
 10 18  1  0
 11 10  2  0
 13 15  1  0
 13 12  1  0
 14 13  2  0
 17 16  1  6
 16 15  1  0
 17 18  1  0
 19 17  1  0
 20 19  2  0
 22 21  1  6
 22 24  1  0
 22 23  1  0
 23 19  1  0
 24 25  1  0
 26 24  2  0
M  END
$$$$
