RQA.pdb
     RDKit          3D

 26 25  0  0  1  0  0  0  0  0999 V2000
   15.4355  -20.5828    3.5911 N   0  0  0  0  0  0  0  0  0  0  0  0
   15.7693  -19.9429    2.3852 C   0  0  0  0  0  0  0  0  0  0  0  0
   15.9991  -20.6870    1.3522 N   0  0  0  0  0  0  0  0  0  0  0  0
   15.8402  -18.5359    2.3465 N   0  0  0  0  0  0  0  0  0  0  0  0
   15.5455  -17.7927    3.5735 C   0  0  0  0  0  0  0  0  0  0  0  0
   15.6892  -16.3235    3.3180 C   0  0  0  0  0  0  0  0  0  0  0  0
   17.0134  -15.7721    3.6961 C   0  0  0  0  0  0  0  0  0  0  0  0
   17.1801  -14.3016    3.6340 C   0  0  2  0  0  0  0  0  0  0  0  0
   17.1950  -13.8082    2.3005 N   0  0  0  0  0  0  0  0  0  0  0  0
   18.4242  -13.9145    4.3915 C   0  0  0  0  0  0  0  0  0  0  0  0
   19.5226  -13.8801    3.7812 O   0  0  0  0  0  0  0  0  0  0  0  0
   16.2925  -20.3185    0.4239 N   0  0  0  0  0  0  0  0  0  0  0  0
   19.3084   -9.3529    8.2545 C   0  0  0  0  0  0  0  0  0  0  0  0
   20.5503  -10.0251    8.3869 O   0  0  0  0  0  0  0  0  0  0  0  0
   21.4587   -9.4372    9.0076 C   0  0  0  0  0  0  0  0  0  0  0  0
   20.6903  -11.3633    7.7885 C   0  0  0  0  0  0  0  0  0  0  0  0
   19.5116  -11.8571    7.0374 C   0  0  1  0  0  0  0  0  0  0  0  0
   19.6915  -13.2228    6.4409 N   0  0  0  0  0  0  0  0  0  0  0  0
   18.4060  -13.5886    5.7596 C   0  0  0  0  0  0  0  0  0  0  0  0
   19.9898  -14.2896    7.4312 O   0  0  0  0  0  0  0  0  0  0  0  0
   19.0281  -14.7808    8.1356 C   0  0  0  0  0  0  0  0  0  0  0  0
   22.8629  -16.4394    8.4295 C   0  0  2  0  0  0  0  0  0  0  0  0
   21.4730  -15.8607    8.7198 N   0  0  0  0  0  0  0  0  0  0  0  0
   21.2444  -14.8501    7.6976 C   0  0  0  0  0  0  0  0  0  0  0  0
   21.3784  -15.3281   10.0744 O   0  0  0  0  0  0  0  0  0  0  0  0
   21.3125  -16.1571   11.1787 O   0  0  0  0  0  0  0  0  0  0  0  0
  2  3  2  0
  2  1  1  0
  4  2  1  0
  5  6  1  0
  5  4  1  0
  6  7  1  0
  7  8  1  0
  8  9  1  6
 10  8  1  0
 10 18  1  0
 11 10  2  0
 13 15  1  0
 13 12  1  0
 14 13  2  0
 17 16  1  6
 16 15  1  0
 17 18  1  0
 19 17  1  0
 20 19  2  0
 22 21  1  6
 22 24  1  0
 22 23  1  0
 23 19  1  0
 24 25  1  0
 26 24  2  0
M  END
$$$$
