RQA.pdb
     RDKit          3D

 26 25  0  0  1  0  0  0  0  0999 V2000
   29.2026  -25.5944  -16.6006 N   0  0  0  0  0  0  0  0  0  0  0  0
   28.6091  -26.8587  -16.7566 C   0  0  0  0  0  0  0  0  0  0  0  0
   29.3892  -27.8673  -16.9749 N   0  0  0  0  0  0  0  0  0  0  0  0
   27.2076  -26.9791  -16.6706 N   0  0  0  0  0  0  0  0  0  0  0  0
   26.4261  -25.7796  -16.3621 C   0  0  0  0  0  0  0  0  0  0  0  0
   26.0896  -25.0585  -17.6315 C   0  0  0  0  0  0  0  0  0  0  0  0
   25.2294  -23.8657  -17.4380 C   0  0  0  0  0  0  0  0  0  0  0  0
   25.8530  -22.6704  -16.8245 C   0  0  2  0  0  0  0  0  0  0  0  0
   27.1460  -22.9376  -16.2966 N   0  0  0  0  0  0  0  0  0  0  0  0
   24.9227  -22.1109  -15.7792 C   0  0  0  0  0  0  0  0  0  0  0  0
   25.2656  -22.1586  -14.5708 O   0  0  0  0  0  0  0  0  0  0  0  0
   29.0519  -28.8380  -17.1406 N   0  0  0  0  0  0  0  0  0  0  0  0
   21.7417  -16.9363  -16.1496 C   0  0  0  0  0  0  0  0  0  0  0  0
   21.3153  -17.4026  -14.8797 O   0  0  0  0  0  0  0  0  0  0  0  0
   20.6349  -16.6251  -14.1807 C   0  0  0  0  0  0  0  0  0  0  0  0
   21.6991  -18.7633  -14.4676 C   0  0  0  0  0  0  0  0  0  0  0  0
   22.5748  -19.4971  -15.4121 C   0  0  1  0  0  0  0  0  0  0  0  0
   22.8565  -20.9162  -15.0122 N   0  0  0  0  0  0  0  0  0  0  0  0
   23.6808  -21.5351  -16.1022 C   0  0  0  0  0  0  0  0  0  0  0  0
   21.6434  -21.7566  -14.8396 O   0  0  0  0  0  0  0  0  0  0  0  0
   20.9528  -22.0852  -15.8776 C   0  0  0  0  0  0  0  0  0  0  0  0
   19.9431  -23.6331  -12.0997 C   0  0  2  0  0  0  0  0  0  0  0  0
   19.9665  -23.1090  -13.5404 N   0  0  0  0  0  0  0  0  0  0  0  0
   21.1434  -22.2576  -13.6320 C   0  0  0  0  0  0  0  0  0  0  0  0
   18.7333  -22.4100  -13.8843 O   0  0  0  0  0  0  0  0  0  0  0  0
   17.5764  -23.0936  -14.2092 O   0  0  0  0  0  0  0  0  0  0  0  0
  2  3  2  0
  2  1  1  0
  4  2  1  0
  5  6  1  0
  5  4  1  0
  6  7  1  0
  7  8  1  0
  8  9  1  1
 10  8  1  0
 10 18  1  0
 11 10  2  0
 13 15  1  0
 13 12  1  0
 14 13  2  0
 17 16  1  1
 16 15  1  0
 17 18  1  0
 19 17  1  0
 20 19  2  0
 22 21  1  6
 22 24  1  0
 22 23  1  0
 23 19  1  0
 24 25  1  0
 26 24  2  0
M  END
$$$$
