RQA.pdb
     RDKit          3D

 26 25  0  0  1  0  0  0  0  0999 V2000
   18.2871  -14.3668  -17.9860 N   0  0  0  0  0  0  0  0  0  0  0  0
   19.3621  -13.4993  -17.7274 C   0  0  0  0  0  0  0  0  0  0  0  0
   19.1367  -12.2269  -17.7864 N   0  0  0  0  0  0  0  0  0  0  0  0
   20.6265  -14.0395  -17.4181 N   0  0  0  0  0  0  0  0  0  0  0  0
   20.7473  -15.4935  -17.2912 C   0  0  0  0  0  0  0  0  0  0  0  0
   22.1791  -15.8593  -17.0449 C   0  0  0  0  0  0  0  0  0  0  0  0
   22.4037  -17.3108  -16.8367 C   0  0  0  0  0  0  0  0  0  0  0  0
   23.7712  -17.7402  -16.4633 C   0  0  2  0  0  0  0  0  0  0  0  0
   24.6535  -17.7875  -17.5774 N   0  0  0  0  0  0  0  0  0  0  0  0
   23.6939  -19.0654  -15.7497 C   0  0  0  0  0  0  0  0  0  0  0  0
   23.9761  -20.1146  -16.3819 O   0  0  0  0  0  0  0  0  0  0  0  0
   19.8190  -11.5009  -17.4847 N   0  0  0  0  0  0  0  0  0  0  0  0
   25.6428  -20.3358  -10.1242 C   0  0  0  0  0  0  0  0  0  0  0  0
   25.1623  -21.6032  -10.5421 O   0  0  0  0  0  0  0  0  0  0  0  0
   25.5091  -22.5980   -9.8743 C   0  0  0  0  0  0  0  0  0  0  0  0
   24.2919  -21.6665  -11.7282 C   0  0  0  0  0  0  0  0  0  0  0  0
   24.1305  -20.3960  -12.4747 C   0  0  2  0  0  0  0  0  0  0  0  0
   23.3382  -20.5252  -13.7430 N   0  0  0  0  0  0  0  0  0  0  0  0
   23.3171  -19.1763  -14.3992 C   0  0  0  0  0  0  0  0  0  0  0  0
   21.9270  -20.9455  -13.5439 O   0  0  0  0  0  0  0  0  0  0  0  0
   21.0776  -20.0959  -13.0758 C   0  0  0  0  0  0  0  0  0  0  0  0
   19.8818  -24.0516  -13.9262 C   0  0  2  0  0  0  0  0  0  0  0  0
   20.0238  -22.5897  -13.4864 N   0  0  0  0  0  0  0  0  0  0  0  0
   21.3880  -22.2074  -13.8199 C   0  0  0  0  0  0  0  0  0  0  0  0
   19.7166  -22.4159  -12.0711 O   0  0  0  0  0  0  0  0  0  0  0  0
   18.4352  -22.1359  -11.6342 O   0  0  0  0  0  0  0  0  0  0  0  0
  2  3  2  0
  2  1  1  0
  4  2  1  0
  5  6  1  0
  5  4  1  0
  6  7  1  0
  7  8  1  0
  8  9  1  6
 10  8  1  0
 10 18  1  0
 11 10  2  0
 13 15  1  0
 13 12  1  0
 14 13  2  0
 17 16  1  6
 16 15  1  0
 17 18  1  0
 19 17  1  0
 20 19  2  0
 22 21  1  6
 22 24  1  0
 22 23  1  0
 23 19  1  0
 24 25  1  0
 26 24  2  0
M  END
$$$$
