RQA.pdb
     RDKit          3D

 26 25  0  0  1  0  0  0  0  0999 V2000
   17.9908  -21.8030  -12.2123 N   0  0  0  0  0  0  0  0  0  0  0  0
   18.0260  -22.6908  -13.3011 C   0  0  0  0  0  0  0  0  0  0  0  0
   16.9517  -23.3608  -13.5668 N   0  0  0  0  0  0  0  0  0  0  0  0
   19.2121  -22.8164  -14.0518 N   0  0  0  0  0  0  0  0  0  0  0  0
   20.3229  -21.9111  -13.7501 C   0  0  0  0  0  0  0  0  0  0  0  0
   20.0902  -20.5900  -14.4173 C   0  0  0  0  0  0  0  0  0  0  0  0
   21.2435  -19.6607  -14.3342 C   0  0  0  0  0  0  0  0  0  0  0  0
   22.4154  -19.9536  -15.1915 C   0  0  2  0  0  0  0  0  0  0  0  0
   22.9616  -21.2440  -14.9499 N   0  0  0  0  0  0  0  0  0  0  0  0
   23.4419  -18.8649  -15.0114 C   0  0  0  0  0  0  0  0  0  0  0  0
   23.0513  -17.6867  -14.8130 O   0  0  0  0  0  0  0  0  0  0  0  0
   16.8940  -24.1022  -14.2952 N   0  0  0  0  0  0  0  0  0  0  0  0
   26.8926  -21.3331  -14.0241 C   0  0  0  0  0  0  0  0  0  0  0  0
   26.8438  -20.5842  -12.8205 O   0  0  0  0  0  0  0  0  0  0  0  0
   26.7569  -21.2202  -11.7509 C   0  0  0  0  0  0  0  0  0  0  0  0
   26.8975  -19.1151  -12.9065 C   0  0  0  0  0  0  0  0  0  0  0  0
   27.0446  -18.5569  -14.2718 C   0  0  2  0  0  0  0  0  0  0  0  0
   25.7805  -17.9789  -14.8386 N   0  0  0  0  0  0  0  0  0  0  0  0
   24.8252  -19.1148  -15.0566 C   0  0  0  0  0  0  0  0  0  0  0  0
   25.9537  -17.2865  -16.1418 O   0  0  0  0  0  0  0  0  0  0  0  0
   26.2702  -17.9769  -17.1837 C   0  0  0  0  0  0  0  0  0  0  0  0
   24.6349  -15.6970  -18.4476 C   0  0  2  0  0  0  0  0  0  0  0  0
   25.9185  -15.3132  -17.7019 N   0  0  0  0  0  0  0  0  0  0  0  0
   25.8037  -15.9157  -16.3819 C   0  0  0  0  0  0  0  0  0  0  0  0
   26.1053  -13.8675  -17.6505 O   0  0  0  0  0  0  0  0  0  0  0  0
   26.3239  -13.1216  -18.7938 O   0  0  0  0  0  0  0  0  0  0  0  0
  2  3  2  0
  2  1  1  0
  4  2  1  0
  5  6  1  0
  5  4  1  0
  6  7  1  0
  7  8  1  0
  8  9  1  1
 10  8  1  0
 10 18  1  0
 11 10  2  0
 13 15  1  0
 13 12  1  0
 14 13  2  0
 17 16  1  1
 16 15  1  0
 17 18  1  0
 19 17  1  0
 20 19  2  0
 22 21  1  6
 22 24  1  0
 22 23  1  0
 23 19  1  0
 24 25  1  0
 26 24  2  0
M  END
$$$$
