RQA.pdb
     RDKit          3D

 26 25  0  0  1  0  0  0  0  0999 V2000
   25.5096  -21.6678  -14.7771 N   0  0  0  0  0  0  0  0  0  0  0  0
   25.3986  -22.9409  -15.3620 C   0  0  0  0  0  0  0  0  0  0  0  0
   26.4304  -23.7195  -15.3100 N   0  0  0  0  0  0  0  0  0  0  0  0
   24.1859  -23.3164  -15.9741 N   0  0  0  0  0  0  0  0  0  0  0  0
   23.0416  -22.4096  -15.8599 C   0  0  0  0  0  0  0  0  0  0  0  0
   22.2329  -22.7705  -14.6515 C   0  0  0  0  0  0  0  0  0  0  0  0
   22.1050  -24.2310  -14.4253 C   0  0  0  0  0  0  0  0  0  0  0  0
   20.7590  -24.8282  -14.5860 C   0  0  2  0  0  0  0  0  0  0  0  0
   20.3328  -24.8603  -15.9421 N   0  0  0  0  0  0  0  0  0  0  0  0
   19.7838  -24.0887  -13.7066 C   0  0  0  0  0  0  0  0  0  0  0  0
   18.8849  -23.3939  -14.2445 O   0  0  0  0  0  0  0  0  0  0  0  0
   26.4914  -24.6372  -15.7975 N   0  0  0  0  0  0  0  0  0  0  0  0
   18.8400  -24.8767   -7.4630 C   0  0  0  0  0  0  0  0  0  0  0  0
   17.8877  -23.8796   -7.7958 O   0  0  0  0  0  0  0  0  0  0  0  0
   17.1085  -23.5060   -6.8963 C   0  0  0  0  0  0  0  0  0  0  0  0
   17.8767  -23.3518   -9.1705 C   0  0  0  0  0  0  0  0  0  0  0  0
   18.8853  -23.9320  -10.0890 C   0  0  2  0  0  0  0  0  0  0  0  0
   18.7905  -23.4311  -11.5008 N   0  0  0  0  0  0  0  0  0  0  0  0
   19.8387  -24.1448  -12.3023 C   0  0  0  0  0  0  0  0  0  0  0  0
   19.0314  -21.9727  -11.6511 O   0  0  0  0  0  0  0  0  0  0  0  0
   20.2418  -21.5435  -11.7658 C   0  0  0  0  0  0  0  0  0  0  0  0
   19.8490  -19.4044  -11.5277 C   0  0  1  0  0  0  0  0  0  0  0  0
   18.3636  -19.5576  -11.8758 N   0  0  0  0  0  0  0  0  0  0  0  0
   18.0574  -20.9681  -11.6882 C   0  0  0  0  0  0  0  0  0  0  0  0
   18.0708  -19.0888  -13.2256 O   0  0  0  0  0  0  0  0  0  0  0  0
   17.6424  -19.9509  -14.2178 O   0  0  0  0  0  0  0  0  0  0  0  0
  2  3  2  0
  2  1  1  0
  4  2  1  0
  5  6  1  0
  5  4  1  0
  6  7  1  0
  7  8  1  0
  8  9  1  6
 10  8  1  0
 10 18  1  0
 11 10  2  0
 13 15  1  0
 13 12  1  0
 14 13  2  0
 17 16  1  6
 16 15  1  0
 17 18  1  0
 19 17  1  0
 20 19  2  0
 22 21  1  1
 22 24  1  0
 22 23  1  0
 23 19  1  0
 24 25  1  0
 26 24  2  0
M  END
$$$$
