RQA.pdb
     RDKit          3D

 26 25  0  0  1  0  0  0  0  0999 V2000
   18.9436  -16.1244  -17.5924 N   0  0  0  0  0  0  0  0  0  0  0  0
   17.6787  -15.5359  -17.4231 C   0  0  0  0  0  0  0  0  0  0  0  0
   16.6875  -16.0375  -18.0860 N   0  0  0  0  0  0  0  0  0  0  0  0
   17.5391  -14.4378  -16.5508 N   0  0  0  0  0  0  0  0  0  0  0  0
   18.6431  -13.4799  -16.4594 C   0  0  0  0  0  0  0  0  0  0  0  0
   18.1632  -12.1196  -16.8642 C   0  0  0  0  0  0  0  0  0  0  0  0
   19.2109  -11.0706  -16.8136 C   0  0  0  0  0  0  0  0  0  0  0  0
   19.3265  -10.2854  -15.5630 C   0  0  2  0  0  0  0  0  0  0  0  0
   18.3561  -10.6563  -14.5921 N   0  0  0  0  0  0  0  0  0  0  0  0
   19.2580   -8.8170  -15.8951 C   0  0  0  0  0  0  0  0  0  0  0  0
   20.0592   -8.3463  -16.7417 O   0  0  0  0  0  0  0  0  0  0  0  0
   15.7134  -15.6736  -18.0394 N   0  0  0  0  0  0  0  0  0  0  0  0
   14.3063   -4.9964  -15.0522 C   0  0  0  0  0  0  0  0  0  0  0  0
   15.2433   -4.1382  -15.6824 O   0  0  0  0  0  0  0  0  0  0  0  0
   14.8585   -2.9912  -15.9861 C   0  0  0  0  0  0  0  0  0  0  0  0
   16.6005   -4.6494  -15.9380 C   0  0  0  0  0  0  0  0  0  0  0  0
   16.8401   -6.0587  -15.5458 C   0  0  1  0  0  0  0  0  0  0  0  0
   18.2501   -6.5255  -15.7632 N   0  0  0  0  0  0  0  0  0  0  0  0
   18.3301   -7.9480  -15.2936 C   0  0  0  0  0  0  0  0  0  0  0  0
   19.2741   -5.7514  -15.0149 O   0  0  0  0  0  0  0  0  0  0  0  0
   19.4096   -4.4917  -15.2544 C   0  0  0  0  0  0  0  0  0  0  0  0
   21.9728   -6.4162  -12.5189 C   0  0  1  0  0  0  0  0  0  0  0  0
   21.1552   -5.4406  -13.3737 N   0  0  0  0  0  0  0  0  0  0  0  0
   20.1428   -6.2492  -14.0368 C   0  0  0  0  0  0  0  0  0  0  0  0
   21.9955   -4.7040  -14.3111 O   0  0  0  0  0  0  0  0  0  0  0  0
   22.0968   -5.0709  -15.6401 O   0  0  0  0  0  0  0  0  0  0  0  0
  2  3  2  0
  2  1  1  0
  4  2  1  0
  5  6  1  0
  5  4  1  0
  6  7  1  0
  7  8  1  0
  8  9  1  1
 10  8  1  0
 10 18  1  0
 11 10  2  0
 13 15  1  0
 13 12  1  0
 14 13  2  0
 17 16  1  6
 16 15  1  0
 17 18  1  0
 19 17  1  0
 20 19  2  0
 22 21  1  1
 22 24  1  0
 22 23  1  0
 23 19  1  0
 24 25  1  0
 26 24  2  0
M  END
$$$$
