RQA.pdb
     RDKit          3D

 26 25  0  0  1  0  0  0  0  0999 V2000
   21.3029  -21.3006   -8.3001 N   0  0  0  0  0  0  0  0  0  0  0  0
   22.5356  -21.4313   -7.6380 C   0  0  0  0  0  0  0  0  0  0  0  0
   22.5237  -21.8897   -6.4283 N   0  0  0  0  0  0  0  0  0  0  0  0
   23.7208  -21.0637   -8.3060 N   0  0  0  0  0  0  0  0  0  0  0  0
   23.6122  -20.5121   -9.6583 C   0  0  0  0  0  0  0  0  0  0  0  0
   24.5237  -21.2612  -10.5815 C   0  0  0  0  0  0  0  0  0  0  0  0
   25.3961  -20.3898  -11.4062 C   0  0  0  0  0  0  0  0  0  0  0  0
   25.1201  -20.3329  -12.8604 C   0  0  2  0  0  0  0  0  0  0  0  0
   24.4548  -21.4957  -13.3372 N   0  0  0  0  0  0  0  0  0  0  0  0
   26.4102  -20.0804  -13.5973 C   0  0  0  0  0  0  0  0  0  0  0  0
   27.1073  -19.0835  -13.2803 O   0  0  0  0  0  0  0  0  0  0  0  0
   23.3736  -21.9874   -5.8352 N   0  0  0  0  0  0  0  0  0  0  0  0
   30.1484  -24.1772  -16.5249 C   0  0  0  0  0  0  0  0  0  0  0  0
   29.0895  -23.7093  -17.3444 O   0  0  0  0  0  0  0  0  0  0  0  0
   28.8331  -24.3583  -18.3783 C   0  0  0  0  0  0  0  0  0  0  0  0
   28.3647  -22.4967  -16.9287 C   0  0  0  0  0  0  0  0  0  0  0  0
   28.8347  -21.8671  -15.6717 C   0  0  1  0  0  0  0  0  0  0  0  0
   28.1462  -20.5760  -15.3366 N   0  0  0  0  0  0  0  0  0  0  0  0
   26.8681  -20.9186  -14.6298 C   0  0  0  0  0  0  0  0  0  0  0  0
   27.7933  -19.7454  -16.5169 O   0  0  0  0  0  0  0  0  0  0  0  0
   26.6574  -19.9292  -17.0986 C   0  0  0  0  0  0  0  0  0  0  0  0
   28.8726  -16.5891  -18.0735 C   0  0  2  0  0  0  0  0  0  0  0  0
   28.1518  -17.9338  -18.2254 N   0  0  0  0  0  0  0  0  0  0  0  0
   28.5808  -18.7420  -17.0935 C   0  0  0  0  0  0  0  0  0  0  0  0
   28.4380  -18.5615  -19.5106 O   0  0  0  0  0  0  0  0  0  0  0  0
   27.8953  -18.0848  -20.6894 O   0  0  0  0  0  0  0  0  0  0  0  0
  2  3  2  0
  2  1  1  0
  4  2  1  0
  5  6  1  0
  5  4  1  0
  6  7  1  0
  7  8  1  0
  8  9  1  6
 10  8  1  0
 10 18  1  0
 11 10  2  0
 13 15  1  0
 13 12  1  0
 14 13  2  0
 17 16  1  1
 16 15  1  0
 17 18  1  0
 19 17  1  0
 20 19  2  0
 22 21  1  1
 22 24  1  0
 22 23  1  0
 23 19  1  0
 24 25  1  0
 26 24  2  0
M  END
$$$$
