RQA.pdb
     RDKit          3D

 26 25  0  0  1  0  0  0  0  0999 V2000
   28.3399  -16.8102  -19.7818 N   0  0  0  0  0  0  0  0  0  0  0  0
   29.5002  -16.7889  -18.9892 C   0  0  0  0  0  0  0  0  0  0  0  0
   30.6060  -16.4202  -19.5503 N   0  0  0  0  0  0  0  0  0  0  0  0
   29.4174  -17.1643  -17.6333 N   0  0  0  0  0  0  0  0  0  0  0  0
   28.1016  -17.5022  -17.0864 C   0  0  0  0  0  0  0  0  0  0  0  0
   27.6726  -18.8424  -17.6007 C   0  0  0  0  0  0  0  0  0  0  0  0
   26.7296  -19.5580  -16.7067 C   0  0  0  0  0  0  0  0  0  0  0  0
   27.2881  -20.6242  -15.8435 C   0  0  2  0  0  0  0  0  0  0  0  0
   27.7848  -21.7283  -16.5893 N   0  0  0  0  0  0  0  0  0  0  0  0
   26.2432  -21.0455  -14.8424 C   0  0  0  0  0  0  0  0  0  0  0  0
   25.5909  -22.0997  -15.0504 O   0  0  0  0  0  0  0  0  0  0  0  0
   31.5151  -16.3440  -19.0490 N   0  0  0  0  0  0  0  0  0  0  0  0
   25.9511  -21.4984   -9.1115 C   0  0  0  0  0  0  0  0  0  0  0  0
   24.5677  -21.2089   -9.2306 O   0  0  0  0  0  0  0  0  0  0  0  0
   23.8110  -21.6421   -8.3386 C   0  0  0  0  0  0  0  0  0  0  0  0
   24.1134  -20.4224  -10.3897 C   0  0  0  0  0  0  0  0  0  0  0  0
   25.1471  -20.1278  -11.4105 C   0  0  1  0  0  0  0  0  0  0  0  0
   24.9090  -20.7923  -12.7353 N   0  0  0  0  0  0  0  0  0  0  0  0
   25.9671  -20.3037  -13.6798 C   0  0  0  0  0  0  0  0  0  0  0  0
   23.5901  -20.4849  -13.3467 O   0  0  0  0  0  0  0  0  0  0  0  0
   23.3365  -19.2777  -13.7217 C   0  0  0  0  0  0  0  0  0  0  0  0
   20.9108  -22.0898  -15.1611 C   0  0  2  0  0  0  0  0  0  0  0  0
   21.2577  -21.0089  -14.1305 N   0  0  0  0  0  0  0  0  0  0  0  0
   22.5482  -21.3910  -13.5764 C   0  0  0  0  0  0  0  0  0  0  0  0
   20.2211  -20.8759  -13.1129 O   0  0  0  0  0  0  0  0  0  0  0  0
   18.9817  -20.3369  -13.4036 O   0  0  0  0  0  0  0  0  0  0  0  0
  2  3  2  0
  2  1  1  0
  4  2  1  0
  5  6  1  0
  5  4  1  0
  6  7  1  0
  7  8  1  0
  8  9  1  6
 10  8  1  0
 10 18  1  0
 11 10  2  0
 13 15  1  0
 13 12  1  0
 14 13  2  0
 17 16  1  1
 16 15  1  0
 17 18  1  0
 19 17  1  0
 20 19  2  0
 22 21  1  6
 22 24  1  0
 22 23  1  0
 23 19  1  0
 24 25  1  0
 26 24  2  0
M  END
$$$$
