RQA.pdb
     RDKit          3D

 26 25  0  0  1  0  0  0  0  0999 V2000
   28.6107  -28.0904  -16.0893 N   0  0  0  0  0  0  0  0  0  0  0  0
   27.6290  -27.7427  -17.0329 C   0  0  0  0  0  0  0  0  0  0  0  0
   26.6295  -28.5493  -17.1871 N   0  0  0  0  0  0  0  0  0  0  0  0
   27.7677  -26.5465  -17.7651 N   0  0  0  0  0  0  0  0  0  0  0  0
   28.8653  -25.6424  -17.4149 C   0  0  0  0  0  0  0  0  0  0  0  0
   28.5828  -24.9974  -16.0925 C   0  0  0  0  0  0  0  0  0  0  0  0
   28.6291  -23.5150  -16.1221 C   0  0  0  0  0  0  0  0  0  0  0  0
   27.5670  -22.8171  -16.8829 C   0  0  2  0  0  0  0  0  0  0  0  0
   28.0333  -22.2944  -18.1203 N   0  0  0  0  0  0  0  0  0  0  0  0
   26.9599  -21.7468  -16.0126 C   0  0  0  0  0  0  0  0  0  0  0  0
   27.5399  -20.6354  -15.9207 O   0  0  0  0  0  0  0  0  0  0  0  0
   25.8301  -28.3685  -17.8288 N   0  0  0  0  0  0  0  0  0  0  0  0
   21.6736  -19.3567  -16.4886 C   0  0  0  0  0  0  0  0  0  0  0  0
   22.0970  -18.6740  -15.3196 O   0  0  0  0  0  0  0  0  0  0  0  0
   21.4106  -17.7041  -14.9400 C   0  0  0  0  0  0  0  0  0  0  0  0
   23.3103  -19.1473  -14.6323 C   0  0  0  0  0  0  0  0  0  0  0  0
   24.0526  -20.2336  -15.3152 C   0  0  1  0  0  0  0  0  0  0  0  0
   25.1880  -20.8000  -14.5132 N   0  0  0  0  0  0  0  0  0  0  0  0
   25.7655  -21.9420  -15.2960 C   0  0  0  0  0  0  0  0  0  0  0  0
   24.7941  -21.3274  -13.1811 O   0  0  0  0  0  0  0  0  0  0  0  0
   24.0449  -22.3747  -13.1157 C   0  0  0  0  0  0  0  0  0  0  0  0
   25.4107  -20.5773   -9.5771 C   0  0  2  0  0  0  0  0  0  0  0  0
   24.5602  -21.2210  -10.6786 N   0  0  0  0  0  0  0  0  0  0  0  0
   25.1595  -20.8010  -11.9367 C   0  0  0  0  0  0  0  0  0  0  0  0
   23.1546  -20.8474  -10.5678 O   0  0  0  0  0  0  0  0  0  0  0  0
   22.3165  -21.4371   -9.6399 O   0  0  0  0  0  0  0  0  0  0  0  0
  2  3  2  0
  2  1  1  0
  4  2  1  0
  5  6  1  0
  5  4  1  0
  6  7  1  0
  7  8  1  0
  8  9  1  6
 10  8  1  0
 10 18  1  0
 11 10  2  0
 13 15  1  0
 13 12  1  0
 14 13  2  0
 17 16  1  6
 16 15  1  0
 17 18  1  0
 19 17  1  0
 20 19  2  0
 22 21  1  1
 22 24  1  0
 22 23  1  0
 23 19  1  0
 24 25  1  0
 26 24  2  0
M  END
$$$$
