RKS.pdb
     RDKit          3D

 27 26  0  0  1  0  0  0  0  0999 V2000
   27.0361  -24.8201  -16.8467 N   0  0  0  0  0  0  0  0  0  0  0  0
   25.7199  -25.0887  -16.4380 C   0  0  0  0  0  0  0  0  0  0  0  0
   25.4841  -25.8960  -15.4600 N   0  0  0  0  0  0  0  0  0  0  0  0
   24.6262  -24.4754  -17.0954 N   0  0  0  0  0  0  0  0  0  0  0  0
   24.8707  -23.4549  -18.1297 C   0  0  0  0  0  0  0  0  0  0  0  0
   25.3277  -22.2338  -17.3901 C   0  0  0  0  0  0  0  0  0  0  0  0
   24.4251  -21.0863  -17.5807 C   0  0  0  0  0  0  0  0  0  0  0  0
   24.8582  -19.8060  -16.9360 C   0  0  2  0  0  0  0  0  0  0  0  0
   26.0172  -19.8810  -16.1091 N   0  0  0  0  0  0  0  0  0  0  0  0
   23.7119  -19.3790  -16.0552 C   0  0  0  0  0  0  0  0  0  0  0  0
   23.6530  -19.7743  -14.8851 O   0  0  0  0  0  0  0  0  0  0  0  0
   24.5368  -26.1116  -15.0999 N   0  0  0  0  0  0  0  0  0  0  0  0
   22.7177  -18.5224  -16.5989 C   0  0  2  0  0  0  0  0  0  0  0  0
   21.6249  -18.1100  -15.7474 C   0  0  0  0  0  0  0  0  0  0  0  0
   21.0757  -16.8010  -16.2612 C   0  0  0  0  0  0  0  0  0  0  0  0
   19.9838  -16.3108  -15.3743 C   0  0  0  0  0  0  0  0  0  0  0  0
   19.4408  -14.9507  -15.7314 C   0  0  0  0  0  0  0  0  0  0  0  0
   18.4645  -14.5150  -14.6838 N   0  0  0  0  0  0  0  0  0  0  0  0
   18.0268  -13.1723  -15.0472 C   0  0  0  0  0  0  0  0  0  0  0  0
   20.6368  -19.1871  -15.6828 O   0  0  0  0  0  0  0  0  0  0  0  0
   20.3071  -19.7638  -16.7505 O   0  0  0  0  0  0  0  0  0  0  0  0
   19.1336  -21.0830  -12.1730 C   0  0  0  0  0  0  0  0  0  0  0  0
   19.3955  -21.6687  -13.4107 C   0  0  1  0  0  0  0  0  0  0  0  0
   19.0799  -20.7175  -14.5508 N   0  0  0  0  0  0  0  0  0  0  0  0
   20.0201  -19.6286  -14.4844 C   0  0  0  0  0  0  0  0  0  0  0  0
   17.6795  -20.2459  -14.4928 O   0  0  0  0  0  0  0  0  0  0  0  0
   16.7203  -21.0414  -14.5359 O   0  0  0  0  0  0  0  0  0  0  0  0
  2  1  1  0
  3  2  2  0
  4  2  1  0
  5  6  1  0
  5  4  1  0
  7  6  1  0
  8  7  1  0
  8  9  1  1
 10  8  1  0
 11 10  2  0
 12 10  1  0
 13 12  1  0
 13 14  1  6
 14 15  1  0
 15 16  1  0
 16 17  1  0
 17 18  1  0
 19 13  1  0
 20 19  2  0
 22 21  1  0
 23 22  1  6
 23 24  1  0
 24 19  1  0
 25 23  1  0
 25 27  1  0
 26 25  2  0
M  END
$$$$
