RKS.pdb
     RDKit          3D

 27 26  0  0  1  0  0  0  0  0999 V2000
   23.5077  -21.1463   -8.5323 N   0  0  0  0  0  0  0  0  0  0  0  0
   22.1283  -21.3474   -8.7002 C   0  0  0  0  0  0  0  0  0  0  0  0
   21.3391  -21.3945   -7.6810 N   0  0  0  0  0  0  0  0  0  0  0  0
   21.5794  -21.5026   -9.9960 N   0  0  0  0  0  0  0  0  0  0  0  0
   22.4719  -21.5873  -11.1653 C   0  0  0  0  0  0  0  0  0  0  0  0
   22.8293  -20.1711  -11.5021 C   0  0  0  0  0  0  0  0  0  0  0  0
   23.5584  -20.0595  -12.7764 C   0  0  0  0  0  0  0  0  0  0  0  0
   24.8083  -20.8772  -12.8825 C   0  0  2  0  0  0  0  0  0  0  0  0
   25.5634  -21.0272  -11.6824 N   0  0  0  0  0  0  0  0  0  0  0  0
   25.6885  -20.1590  -13.8733 C   0  0  0  0  0  0  0  0  0  0  0  0
   26.4148  -19.2327  -13.4948 O   0  0  0  0  0  0  0  0  0  0  0  0
   20.3200  -21.5706   -7.7428 N   0  0  0  0  0  0  0  0  0  0  0  0
   25.6608  -20.5709  -15.2325 C   0  0  1  0  0  0  0  0  0  0  0  0
   26.6313  -20.0055  -16.1423 C   0  0  0  0  0  0  0  0  0  0  0  0
   27.0172  -21.0560  -17.1556 C   0  0  0  0  0  0  0  0  0  0  0  0
   27.6409  -22.2274  -16.4789 C   0  0  0  0  0  0  0  0  0  0  0  0
   28.1107  -23.3183  -17.4071 C   0  0  0  0  0  0  0  0  0  0  0  0
   28.6811  -24.4439  -16.6020 N   0  0  0  0  0  0  0  0  0  0  0  0
   29.0009  -25.5138  -17.5397 C   0  0  0  0  0  0  0  0  0  0  0  0
   26.0807  -18.7839  -16.7298 O   0  0  0  0  0  0  0  0  0  0  0  0
   24.8561  -18.7538  -17.0136 O   0  0  0  0  0  0  0  0  0  0  0  0
   27.7027  -15.0279  -16.3516 C   0  0  0  0  0  0  0  0  0  0  0  0
   26.3543  -15.3289  -16.5370 C   0  0  1  0  0  0  0  0  0  0  0  0
   26.1718  -16.4609  -17.5317 N   0  0  0  0  0  0  0  0  0  0  0  0
   26.8436  -17.6199  -17.0028 C   0  0  0  0  0  0  0  0  0  0  0  0
   26.6743  -16.0920  -18.8726 O   0  0  0  0  0  0  0  0  0  0  0  0
   27.5761  -16.7446  -19.4343 O   0  0  0  0  0  0  0  0  0  0  0  0
  2  1  1  0
  3  2  2  0
  4  2  1  0
  5  6  1  0
  5  4  1  0
  7  6  1  0
  8  7  1  0
  8  9  1  1
 10  8  1  0
 11 10  2  0
 12 10  1  0
 13 12  1  0
 13 14  1  1
 14 15  1  0
 15 16  1  0
 16 17  1  0
 17 18  1  0
 19 13  1  0
 20 19  2  0
 22 21  1  0
 23 22  1  1
 23 24  1  0
 24 19  1  0
 25 23  1  0
 25 27  1  0
 26 25  2  0
M  END
$$$$
