RKS.pdb
     RDKit          3D

 27 26  0  0  1  0  0  0  0  0999 V2000
   19.3235  -21.3493  -11.8132 N   0  0  0  0  0  0  0  0  0  0  0  0
   19.8660  -22.1559  -12.8264 C   0  0  0  0  0  0  0  0  0  0  0  0
   19.1008  -22.8538  -13.5954 N   0  0  0  0  0  0  0  0  0  0  0  0
   21.2671  -22.2166  -13.0209 N   0  0  0  0  0  0  0  0  0  0  0  0
   22.1630  -21.4375  -12.1485 C   0  0  0  0  0  0  0  0  0  0  0  0
   23.2008  -20.8517  -13.0578 C   0  0  0  0  0  0  0  0  0  0  0  0
   24.0134  -21.8816  -13.7262 C   0  0  0  0  0  0  0  0  0  0  0  0
   25.4512  -21.9433  -13.3124 C   0  0  2  0  0  0  0  0  0  0  0  0
   25.8147  -21.1469  -12.1871 N   0  0  0  0  0  0  0  0  0  0  0  0
   26.2419  -21.4338  -14.4903 C   0  0  0  0  0  0  0  0  0  0  0  0
   26.5682  -20.2426  -14.5449 O   0  0  0  0  0  0  0  0  0  0  0  0
   19.4466  -23.5212  -14.3085 N   0  0  0  0  0  0  0  0  0  0  0  0
   26.5966  -22.3472  -15.5188 C   0  0  2  0  0  0  0  0  0  0  0  0
   27.4660  -21.8867  -16.5777 C   0  0  0  0  0  0  0  0  0  0  0  0
   28.1265  -23.0831  -17.2192 C   0  0  0  0  0  0  0  0  0  0  0  0
   29.2110  -23.6100  -16.3443 C   0  0  0  0  0  0  0  0  0  0  0  0
   29.9544  -24.7965  -16.9029 C   0  0  0  0  0  0  0  0  0  0  0  0
   30.9651  -25.2649  -15.9030 N   0  0  0  0  0  0  0  0  0  0  0  0
   31.5353  -26.5006  -16.4265 C   0  0  0  0  0  0  0  0  0  0  0  0
   26.6923  -21.0630  -17.5070 O   0  0  0  0  0  0  0  0  0  0  0  0
   25.4500  -21.2440  -17.5778 O   0  0  0  0  0  0  0  0  0  0  0  0
   26.3386  -17.2582  -20.4588 C   0  0  0  0  0  0  0  0  0  0  0  0
   27.1082  -18.0366  -19.5956 C   0  0  1  0  0  0  0  0  0  0  0  0
   26.3831  -19.3119  -19.2057 N   0  0  0  0  0  0  0  0  0  0  0  0
   27.2556  -20.0638  -18.3411 C   0  0  0  0  0  0  0  0  0  0  0  0
   25.9753  -20.0901  -20.3952 O   0  0  0  0  0  0  0  0  0  0  0  0
   26.7740  -20.8402  -20.9901 O   0  0  0  0  0  0  0  0  0  0  0  0
  2  1  1  0
  3  2  2  0
  4  2  1  0
  5  6  1  0
  5  4  1  0
  7  6  1  0
  8  7  1  0
  8  9  1  1
 10  8  1  0
 11 10  2  0
 12 10  1  0
 13 12  1  0
 13 14  1  1
 14 15  1  0
 15 16  1  0
 16 17  1  0
 17 18  1  0
 19 13  1  0
 20 19  2  0
 22 21  1  0
 23 22  1  1
 23 24  1  0
 24 19  1  0
 25 23  1  0
 25 27  1  0
 26 25  2  0
M  END
$$$$
