RKS.pdb
     RDKit          3D

 27 26  0  0  1  0  0  0  0  0999 V2000
   22.0166  -21.0976   -8.8023 N   0  0  0  0  0  0  0  0  0  0  0  0
   21.7502  -21.0078  -10.1779 C   0  0  0  0  0  0  0  0  0  0  0  0
   20.5716  -21.2560  -10.6397 N   0  0  0  0  0  0  0  0  0  0  0  0
   22.7748  -20.6420  -11.0839 N   0  0  0  0  0  0  0  0  0  0  0  0
   24.1051  -20.2662  -10.5738 C   0  0  0  0  0  0  0  0  0  0  0  0
   24.8990  -21.5374  -10.5453 C   0  0  0  0  0  0  0  0  0  0  0  0
   25.6793  -21.7444  -11.7766 C   0  0  0  0  0  0  0  0  0  0  0  0
   26.9412  -20.9457  -11.8871 C   0  0  2  0  0  0  0  0  0  0  0  0
   27.3527  -20.2571  -10.7085 N   0  0  0  0  0  0  0  0  0  0  0  0
   26.6776  -19.9015  -12.9417 C   0  0  0  0  0  0  0  0  0  0  0  0
   26.1995  -18.8075  -12.6202 O   0  0  0  0  0  0  0  0  0  0  0  0
   20.3204  -21.2149  -11.6440 N   0  0  0  0  0  0  0  0  0  0  0  0
   26.9902  -20.2050  -14.2937 C   0  0  2  0  0  0  0  0  0  0  0  0
   26.7086  -19.2107  -15.3045 C   0  0  0  0  0  0  0  0  0  0  0  0
   27.8765  -19.1435  -16.2588 C   0  0  0  0  0  0  0  0  0  0  0  0
   27.6662  -18.0638  -17.2633 C   0  0  0  0  0  0  0  0  0  0  0  0
   28.7170  -17.9891  -18.3416 C   0  0  0  0  0  0  0  0  0  0  0  0
   28.3816  -16.8769  -19.2856 N   0  0  0  0  0  0  0  0  0  0  0  0
   29.3802  -16.9094  -20.3478 C   0  0  0  0  0  0  0  0  0  0  0  0
   25.4324  -19.5289  -15.9452 O   0  0  0  0  0  0  0  0  0  0  0  0
   25.1382  -20.7375  -16.1293 O   0  0  0  0  0  0  0  0  0  0  0  0
   21.4160  -19.3048  -14.6041 C   0  0  0  0  0  0  0  0  0  0  0  0
   22.7807  -19.1067  -14.8079 C   0  0  1  0  0  0  0  0  0  0  0  0
   23.0904  -18.8537  -16.2723 N   0  0  0  0  0  0  0  0  0  0  0  0
   24.4955  -18.5554  -16.3766 C   0  0  0  0  0  0  0  0  0  0  0  0
   22.2504  -17.7698  -16.8257 O   0  0  0  0  0  0  0  0  0  0  0  0
   22.6892  -16.6115  -16.9679 O   0  0  0  0  0  0  0  0  0  0  0  0
  2  1  1  0
  3  2  2  0
  4  2  1  0
  5  6  1  0
  5  4  1  0
  7  6  1  0
  8  7  1  0
  8  9  1  1
 10  8  1  0
 11 10  2  0
 12 10  1  0
 13 12  1  0
 13 14  1  6
 14 15  1  0
 15 16  1  0
 16 17  1  0
 17 18  1  0
 19 13  1  0
 20 19  2  0
 22 21  1  0
 23 22  1  6
 23 24  1  0
 24 19  1  0
 25 23  1  0
 25 27  1  0
 26 25  2  0
M  END
$$$$
