RKS.pdb
     RDKit          3D

 27 26  0  0  1  0  0  0  0  0999 V2000
   18.4408  -11.6303  -16.4933 N   0  0  0  0  0  0  0  0  0  0  0  0
   17.4027  -12.5189  -16.1707 C   0  0  0  0  0  0  0  0  0  0  0  0
   16.1713  -12.1366  -16.2070 N   0  0  0  0  0  0  0  0  0  0  0  0
   17.6919  -13.8541  -15.7989 N   0  0  0  0  0  0  0  0  0  0  0  0
   19.0916  -14.2797  -15.6232 C   0  0  0  0  0  0  0  0  0  0  0  0
   19.0330  -15.7522  -15.3494 C   0  0  0  0  0  0  0  0  0  0  0  0
   20.3644  -16.3389  -15.1238 C   0  0  0  0  0  0  0  0  0  0  0  0
   20.3958  -17.8243  -14.9372 C   0  0  2  0  0  0  0  0  0  0  0  0
   19.7165  -18.3266  -13.7887 N   0  0  0  0  0  0  0  0  0  0  0  0
   21.8503  -18.1909  -14.7878 C   0  0  0  0  0  0  0  0  0  0  0  0
   22.3651  -18.2255  -13.6642 O   0  0  0  0  0  0  0  0  0  0  0  0
   15.3651  -12.7528  -15.9976 N   0  0  0  0  0  0  0  0  0  0  0  0
   22.6003  -18.4916  -15.9561 C   0  0  2  0  0  0  0  0  0  0  0  0
   23.9892  -18.8623  -15.8051 C   0  0  0  0  0  0  0  0  0  0  0  0
   24.2037  -20.2136  -16.4433 C   0  0  0  0  0  0  0  0  0  0  0  0
   25.6372  -20.6092  -16.3548 C   0  0  0  0  0  0  0  0  0  0  0  0
   25.9647  -21.9440  -16.9739 C   0  0  0  0  0  0  0  0  0  0  0  0
   27.4366  -22.1939  -16.8656 N   0  0  0  0  0  0  0  0  0  0  0  0
   27.6838  -23.5131  -17.4356 C   0  0  0  0  0  0  0  0  0  0  0  0
   24.8300  -17.8008  -16.3590 O   0  0  0  0  0  0  0  0  0  0  0  0
   24.5769  -17.3768  -17.5154 O   0  0  0  0  0  0  0  0  0  0  0  0
   26.2673  -14.4270  -14.7624 C   0  0  0  0  0  0  0  0  0  0  0  0
   27.2531  -15.2690  -15.2747 C   0  0  2  0  0  0  0  0  0  0  0  0
   26.6919  -16.1944  -16.3392 N   0  0  0  0  0  0  0  0  0  0  0  0
   25.9221  -17.2122  -15.6717 C   0  0  0  0  0  0  0  0  0  0  0  0
   27.7646  -16.7707  -17.1783 O   0  0  0  0  0  0  0  0  0  0  0  0
   28.5447  -16.0474  -17.8284 O   0  0  0  0  0  0  0  0  0  0  0  0
  2  1  1  0
  3  2  2  0
  4  2  1  0
  5  6  1  0
  5  4  1  0
  7  6  1  0
  8  7  1  0
  8  9  1  1
 10  8  1  0
 11 10  2  0
 12 10  1  0
 13 12  1  0
 13 14  1  1
 14 15  1  0
 15 16  1  0
 16 17  1  0
 17 18  1  0
 19 13  1  0
 20 19  2  0
 22 21  1  0
 23 22  1  6
 23 24  1  0
 24 19  1  0
 25 23  1  0
 25 27  1  0
 26 25  2  0
M  END
$$$$
