RKS.pdb
     RDKit          3D

 27 26  0  0  1  0  0  0  0  0999 V2000
   31.0528  -21.9500  -10.6543 N   0  0  0  0  0  0  0  0  0  0  0  0
   30.8436  -21.9521   -9.2659 C   0  0  0  0  0  0  0  0  0  0  0  0
   31.8391  -22.0170   -8.4483 N   0  0  0  0  0  0  0  0  0  0  0  0
   29.5313  -21.8829   -8.7389 N   0  0  0  0  0  0  0  0  0  0  0  0
   28.3723  -21.9390   -9.6470 C   0  0  0  0  0  0  0  0  0  0  0  0
   28.1063  -20.5195  -10.0482 C   0  0  0  0  0  0  0  0  0  0  0  0
   26.9997  -20.4021  -11.0123 C   0  0  0  0  0  0  0  0  0  0  0  0
   27.2083  -21.0893  -12.3262 C   0  0  2  0  0  0  0  0  0  0  0  0
   28.3059  -20.6257  -13.1092 N   0  0  0  0  0  0  0  0  0  0  0  0
   25.9556  -20.8389  -13.1264 C   0  0  0  0  0  0  0  0  0  0  0  0
   25.7610  -19.7292  -13.6358 O   0  0  0  0  0  0  0  0  0  0  0  0
   31.7424  -22.0788   -7.4185 N   0  0  0  0  0  0  0  0  0  0  0  0
   25.0206  -21.8976  -13.2769 C   0  0  1  0  0  0  0  0  0  0  0  0
   23.8973  -21.7019  -14.1653 C   0  0  0  0  0  0  0  0  0  0  0  0
   23.6618  -22.9766  -14.9392 C   0  0  0  0  0  0  0  0  0  0  0  0
   23.1578  -22.6694  -16.3069 C   0  0  0  0  0  0  0  0  0  0  0  0
   22.7932  -23.8765  -17.1330 C   0  0  0  0  0  0  0  0  0  0  0  0
   22.2458  -23.4285  -18.4521 N   0  0  0  0  0  0  0  0  0  0  0  0
   21.8605  -24.6320  -19.1798 C   0  0  0  0  0  0  0  0  0  0  0  0
   22.7429  -21.2561  -13.3848 O   0  0  0  0  0  0  0  0  0  0  0  0
   22.7212  -21.5016  -12.1518 O   0  0  0  0  0  0  0  0  0  0  0  0
   19.5622  -18.1609  -12.1567 C   0  0  0  0  0  0  0  0  0  0  0  0
   20.5771  -18.6379  -12.9849 C   0  0  1  0  0  0  0  0  0  0  0  0
   20.5696  -20.1544  -13.0518 N   0  0  0  0  0  0  0  0  0  0  0  0
   21.6359  -20.5582  -13.9317 C   0  0  0  0  0  0  0  0  0  0  0  0
   19.2575  -20.6720  -13.4959 O   0  0  0  0  0  0  0  0  0  0  0  0
   19.1013  -21.1700  -14.6282 O   0  0  0  0  0  0  0  0  0  0  0  0
  2  1  1  0
  3  2  2  0
  4  2  1  0
  5  6  1  0
  5  4  1  0
  7  6  1  0
  8  7  1  0
  8  9  1  6
 10  8  1  0
 11 10  2  0
 12 10  1  0
 13 12  1  0
 13 14  1  6
 14 15  1  0
 15 16  1  0
 16 17  1  0
 17 18  1  0
 19 13  1  0
 20 19  2  0
 22 21  1  0
 23 22  1  1
 23 24  1  0
 24 19  1  0
 25 23  1  0
 25 27  1  0
 26 25  2  0
M  END
$$$$
