RKS.pdb
     RDKit          3D

 27 26  0  0  1  0  0  0  0  0999 V2000
   30.2930  -23.4076  -10.0587 N   0  0  0  0  0  0  0  0  0  0  0  0
   31.1216  -22.2768  -10.1361 C   0  0  0  0  0  0  0  0  0  0  0  0
   32.4037  -22.4011  -10.2029 N   0  0  0  0  0  0  0  0  0  0  0  0
   30.5610  -20.9767  -10.1420 N   0  0  0  0  0  0  0  0  0  0  0  0
   29.1210  -20.8001  -10.3993 C   0  0  0  0  0  0  0  0  0  0  0  0
   28.9486  -20.9988  -11.8750 C   0  0  0  0  0  0  0  0  0  0  0  0
   27.5712  -20.7360  -12.3240 C   0  0  0  0  0  0  0  0  0  0  0  0
   27.3181  -20.9272  -13.7874 C   0  0  2  0  0  0  0  0  0  0  0  0
   28.2498  -20.3078  -14.6712 N   0  0  0  0  0  0  0  0  0  0  0  0
   25.9710  -20.3073  -14.0578 C   0  0  0  0  0  0  0  0  0  0  0  0
   25.8504  -19.0769  -14.0730 O   0  0  0  0  0  0  0  0  0  0  0  0
   33.0672  -21.6059  -10.1714 N   0  0  0  0  0  0  0  0  0  0  0  0
   24.8620  -21.1635  -14.2919 C   0  0  1  0  0  0  0  0  0  0  0  0
   23.5827  -20.5638  -14.5973 C   0  0  0  0  0  0  0  0  0  0  0  0
   23.2922  -20.7600  -16.0658 C   0  0  0  0  0  0  0  0  0  0  0  0
   21.9636  -20.1838  -16.4149 C   0  0  0  0  0  0  0  0  0  0  0  0
   21.5192  -20.4319  -17.8338 C   0  0  0  0  0  0  0  0  0  0  0  0
   20.2181  -19.7327  -18.0762 N   0  0  0  0  0  0  0  0  0  0  0  0
   19.8626  -19.9738  -19.4696 C   0  0  0  0  0  0  0  0  0  0  0  0
   22.5666  -21.1268  -13.7079 O   0  0  0  0  0  0  0  0  0  0  0  0
   22.5419  -22.3723  -13.5374 O   0  0  0  0  0  0  0  0  0  0  0  0
   20.0290  -18.9463  -11.1041 C   0  0  0  0  0  0  0  0  0  0  0  0
   20.5921  -20.1975  -10.8574 C   0  0  1  0  0  0  0  0  0  0  0  0
   20.6848  -21.0227  -12.1282 N   0  0  0  0  0  0  0  0  0  0  0  0
   21.5982  -20.3535  -13.0182 C   0  0  0  0  0  0  0  0  0  0  0  0
   19.3554  -21.2221  -12.7444 O   0  0  0  0  0  0  0  0  0  0  0  0
   19.0390  -20.6590  -13.8109 O   0  0  0  0  0  0  0  0  0  0  0  0
  2  1  1  0
  3  2  2  0
  4  2  1  0
  5  6  1  0
  5  4  1  0
  7  6  1  0
  8  7  1  0
  8  9  1  6
 10  8  1  0
 11 10  2  0
 12 10  1  0
 13 12  1  0
 13 14  1  1
 14 15  1  0
 15 16  1  0
 16 17  1  0
 17 18  1  0
 19 13  1  0
 20 19  2  0
 22 21  1  0
 23 22  1  1
 23 24  1  0
 24 19  1  0
 25 23  1  0
 25 27  1  0
 26 25  2  0
M  END
$$$$
