RKS.pdb
     RDKit          3D

 27 26  0  0  1  0  0  0  0  0999 V2000
   24.2888  -20.6484   -9.5810 N   0  0  0  0  0  0  0  0  0  0  0  0
   25.6300  -20.7835   -9.1878 C   0  0  0  0  0  0  0  0  0  0  0  0
   25.9758  -20.6252   -7.9553 N   0  0  0  0  0  0  0  0  0  0  0  0
   26.6282  -21.0968  -10.1417 N   0  0  0  0  0  0  0  0  0  0  0  0
   26.6500  -20.3959  -11.4376 C   0  0  0  0  0  0  0  0  0  0  0  0
   25.6438  -21.1031  -12.2946 C   0  0  0  0  0  0  0  0  0  0  0  0
   26.1771  -21.4527  -13.6216 C   0  0  0  0  0  0  0  0  0  0  0  0
   26.3994  -20.3031  -14.5551 C   0  0  2  0  0  0  0  0  0  0  0  0
   27.4084  -19.3710  -14.1730 N   0  0  0  0  0  0  0  0  0  0  0  0
   25.0944  -19.5500  -14.6005 C   0  0  0  0  0  0  0  0  0  0  0  0
   24.8727  -18.6507  -13.7815 O   0  0  0  0  0  0  0  0  0  0  0  0
   26.9551  -20.6545   -7.6181 N   0  0  0  0  0  0  0  0  0  0  0  0
   24.1423  -19.8970  -15.5959 C   0  0  1  0  0  0  0  0  0  0  0  0
   22.9605  -19.0759  -15.7331 C   0  0  0  0  0  0  0  0  0  0  0  0
   22.6380  -18.9297  -17.2007 C   0  0  0  0  0  0  0  0  0  0  0  0
   21.5239  -17.9600  -17.3945 C   0  0  0  0  0  0  0  0  0  0  0  0
   21.0379  -17.8302  -18.8156 C   0  0  0  0  0  0  0  0  0  0  0  0
   19.9947  -16.7592  -18.8877 N   0  0  0  0  0  0  0  0  0  0  0  0
   19.4821  -16.7606  -20.2528 C   0  0  0  0  0  0  0  0  0  0  0  0
   21.8785  -19.6595  -14.9399 O   0  0  0  0  0  0  0  0  0  0  0  0
   22.0361  -20.8141  -14.4676 O   0  0  0  0  0  0  0  0  0  0  0  0
   21.2209  -20.6350  -11.9897 C   0  0  0  0  0  0  0  0  0  0  0  0
   20.6467  -19.4059  -12.3109 C   0  0  2  0  0  0  0  0  0  0  0  0
   19.8310  -19.4932  -13.5881 N   0  0  0  0  0  0  0  0  0  0  0  0
   20.6517  -19.0030  -14.6652 C   0  0  0  0  0  0  0  0  0  0  0  0
   18.5607  -18.7449  -13.4733 O   0  0  0  0  0  0  0  0  0  0  0  0
   17.6960  -19.0518  -12.6291 O   0  0  0  0  0  0  0  0  0  0  0  0
  2  1  1  0
  3  2  2  0
  4  2  1  0
  5  6  1  0
  5  4  1  0
  7  6  1  0
  8  7  1  0
  8  9  1  1
 10  8  1  0
 11 10  2  0
 12 10  1  0
 13 12  1  0
 13 14  1  1
 14 15  1  0
 15 16  1  0
 16 17  1  0
 17 18  1  0
 19 13  1  0
 20 19  2  0
 22 21  1  0
 23 22  1  6
 23 24  1  0
 24 19  1  0
 25 23  1  0
 25 27  1  0
 26 25  2  0
M  END
$$$$
