RKS.pdb
     RDKit          3D

 27 26  0  0  1  0  0  0  0  0999 V2000
   26.0951  -20.3740  -12.4446 N   0  0  0  0  0  0  0  0  0  0  0  0
   26.8468  -20.4611  -13.6274 C   0  0  0  0  0  0  0  0  0  0  0  0
   27.1309  -21.6074  -14.1461 N   0  0  0  0  0  0  0  0  0  0  0  0
   27.3070  -19.2876  -14.2720 N   0  0  0  0  0  0  0  0  0  0  0  0
   26.8136  -17.9696  -13.8356 C   0  0  0  0  0  0  0  0  0  0  0  0
   26.8165  -17.1117  -15.0648 C   0  0  0  0  0  0  0  0  0  0  0  0
   25.4950  -17.0441  -15.7104 C   0  0  0  0  0  0  0  0  0  0  0  0
   24.9807  -18.3333  -16.2725 C   0  0  2  0  0  0  0  0  0  0  0  0
   25.7326  -18.8934  -17.3466 N   0  0  0  0  0  0  0  0  0  0  0  0
   23.6035  -18.0309  -16.8055 C   0  0  0  0  0  0  0  0  0  0  0  0
   23.4594  -17.6975  -17.9874 O   0  0  0  0  0  0  0  0  0  0  0  0
   27.6741  -21.7314  -15.0196 N   0  0  0  0  0  0  0  0  0  0  0  0
   22.4938  -18.1393  -15.9255 C   0  0  1  0  0  0  0  0  0  0  0  0
   21.1649  -17.9798  -16.4716 C   0  0  0  0  0  0  0  0  0  0  0  0
   20.1939  -18.7669  -15.6250 C   0  0  0  0  0  0  0  0  0  0  0  0
   19.9184  -20.0928  -16.2457 C   0  0  0  0  0  0  0  0  0  0  0  0
   18.8793  -20.9211  -15.5340 C   0  0  0  0  0  0  0  0  0  0  0  0
   18.6530  -22.1920  -16.2918 N   0  0  0  0  0  0  0  0  0  0  0  0
   17.5896  -22.9117  -15.6007 C   0  0  0  0  0  0  0  0  0  0  0  0
   20.8547  -16.5531  -16.5648 O   0  0  0  0  0  0  0  0  0  0  0  0
   21.0314  -15.8330  -15.5492 O   0  0  0  0  0  0  0  0  0  0  0  0
   19.8547  -14.4602  -20.1134 C   0  0  0  0  0  0  0  0  0  0  0  0
   20.6521  -13.9691  -19.0807 C   0  0  1  0  0  0  0  0  0  0  0  0
   20.1934  -14.4917  -17.7313 N   0  0  0  0  0  0  0  0  0  0  0  0
   20.3632  -15.9218  -17.7359 C   0  0  0  0  0  0  0  0  0  0  0  0
   18.7970  -14.0995  -17.4432 O   0  0  0  0  0  0  0  0  0  0  0  0
   17.9052  -14.9505  -17.2560 O   0  0  0  0  0  0  0  0  0  0  0  0
  2  1  1  0
  3  2  2  0
  4  2  1  0
  5  6  1  0
  5  4  1  0
  7  6  1  0
  8  7  1  0
  8  9  1  6
 10  8  1  0
 11 10  2  0
 12 10  1  0
 13 12  1  0
 13 14  1  6
 14 15  1  0
 15 16  1  0
 16 17  1  0
 17 18  1  0
 19 13  1  0
 20 19  2  0
 22 21  1  0
 23 22  1  1
 23 24  1  0
 24 19  1  0
 25 23  1  0
 25 27  1  0
 26 25  2  0
M  END
$$$$
