RKS.pdb
     RDKit          3D

 27 26  0  0  1  0  0  0  0  0999 V2000
   28.6253  -21.8531  -16.1495 N   0  0  0  0  0  0  0  0  0  0  0  0
   28.1261  -20.8492  -16.9947 C   0  0  0  0  0  0  0  0  0  0  0  0
   27.9700  -21.0659  -18.2566 N   0  0  0  0  0  0  0  0  0  0  0  0
   27.7849  -19.5778  -16.4735 N   0  0  0  0  0  0  0  0  0  0  0  0
   27.5002  -19.4270  -15.0357 C   0  0  0  0  0  0  0  0  0  0  0  0
   26.0174  -19.5985  -14.8989 C   0  0  0  0  0  0  0  0  0  0  0  0
   25.5569  -19.4506  -13.5083 C   0  0  0  0  0  0  0  0  0  0  0  0
   25.5591  -20.7030  -12.6873 C   0  0  2  0  0  0  0  0  0  0  0  0
   26.1502  -21.8496  -13.2944 N   0  0  0  0  0  0  0  0  0  0  0  0
   24.1103  -21.0328  -12.4335 C   0  0  0  0  0  0  0  0  0  0  0  0
   23.5445  -21.8925  -13.1187 O   0  0  0  0  0  0  0  0  0  0  0  0
   27.6688  -20.3450  -18.9372 N   0  0  0  0  0  0  0  0  0  0  0  0
   23.4250  -20.3393  -11.4004 C   0  0  1  0  0  0  0  0  0  0  0  0
   22.0762  -20.7460  -11.0768 C   0  0  0  0  0  0  0  0  0  0  0  0
   21.7348  -20.2416   -9.6954 C   0  0  0  0  0  0  0  0  0  0  0  0
   20.4108  -20.7689   -9.2614 C   0  0  0  0  0  0  0  0  0  0  0  0
   20.4439  -22.1573   -8.6752 C   0  0  0  0  0  0  0  0  0  0  0  0
   19.0455  -22.6099   -8.3914 N   0  0  0  0  0  0  0  0  0  0  0  0
   19.1438  -23.9412   -7.8046 C   0  0  0  0  0  0  0  0  0  0  0  0
   21.1705  -20.2744  -12.1246 O   0  0  0  0  0  0  0  0  0  0  0  0
   21.3266  -19.1103  -12.5734 O   0  0  0  0  0  0  0  0  0  0  0  0
   19.0396  -22.6597  -14.7078 C   0  0  0  0  0  0  0  0  0  0  0  0
   19.4727  -21.3575  -14.9526 C   0  0  1  0  0  0  0  0  0  0  0  0
   19.3134  -20.4812  -13.7233 N   0  0  0  0  0  0  0  0  0  0  0  0
   20.1180  -21.0508  -12.6734 C   0  0  0  0  0  0  0  0  0  0  0  0
   17.8943  -20.3534  -13.3277 O   0  0  0  0  0  0  0  0  0  0  0  0
   17.4975  -20.7011  -12.1980 O   0  0  0  0  0  0  0  0  0  0  0  0
  2  1  1  0
  3  2  2  0
  4  2  1  0
  5  6  1  0
  5  4  1  0
  7  6  1  0
  8  7  1  0
  8  9  1  6
 10  8  1  0
 11 10  2  0
 12 10  1  0
 13 12  1  0
 13 14  1  6
 14 15  1  0
 15 16  1  0
 16 17  1  0
 17 18  1  0
 19 13  1  0
 20 19  2  0
 22 21  1  0
 23 22  1  6
 23 24  1  0
 24 19  1  0
 25 23  1  0
 25 27  1  0
 26 25  2  0
M  END
$$$$
