RKS.pdb
     RDKit          3D

 27 26  0  0  1  0  0  0  0  0999 V2000
   27.9720  -21.6243   -9.5149 N   0  0  0  0  0  0  0  0  0  0  0  0
   26.6576  -21.3962   -9.0769 C   0  0  0  0  0  0  0  0  0  0  0  0
   26.4214  -21.0177   -7.8666 N   0  0  0  0  0  0  0  0  0  0  0  0
   25.5661  -21.5788   -9.9600 N   0  0  0  0  0  0  0  0  0  0  0  0
   25.8108  -21.9949  -11.3521 C   0  0  0  0  0  0  0  0  0  0  0  0
   25.9270  -20.7236  -12.1376 C   0  0  0  0  0  0  0  0  0  0  0  0
   24.6162  -20.1323  -12.4538 C   0  0  0  0  0  0  0  0  0  0  0  0
   24.1244  -20.3538  -13.8507 C   0  0  2  0  0  0  0  0  0  0  0  0
   25.1277  -20.4894  -14.8547 N   0  0  0  0  0  0  0  0  0  0  0  0
   23.3098  -19.1344  -14.1997 C   0  0  0  0  0  0  0  0  0  0  0  0
   22.3245  -18.8347  -13.5156 O   0  0  0  0  0  0  0  0  0  0  0  0
   25.4719  -20.8747   -7.4772 N   0  0  0  0  0  0  0  0  0  0  0  0
   23.7010  -18.3515  -15.3185 C   0  0  1  0  0  0  0  0  0  0  0  0
   22.8778  -17.2227  -15.6895 C   0  0  0  0  0  0  0  0  0  0  0  0
   23.6781  -16.3127  -16.5899 C   0  0  0  0  0  0  0  0  0  0  0  0
   24.4928  -15.3644  -15.7798 C   0  0  0  0  0  0  0  0  0  0  0  0
   25.3768  -14.4441  -16.5823 C   0  0  0  0  0  0  0  0  0  0  0  0
   26.1375  -13.5509  -15.6528 N   0  0  0  0  0  0  0  0  0  0  0  0
   27.0118  -12.7276  -16.4799 C   0  0  0  0  0  0  0  0  0  0  0  0
   21.6363  -17.7131  -16.2885 O   0  0  0  0  0  0  0  0  0  0  0  0
   21.6987  -18.6747  -17.0963 O   0  0  0  0  0  0  0  0  0  0  0  0
   17.4238  -19.3148  -16.0397 C   0  0  0  0  0  0  0  0  0  0  0  0
   18.6119  -18.7463  -15.5832 C   0  0  1  0  0  0  0  0  0  0  0  0
   19.1995  -17.7940  -16.6090 N   0  0  0  0  0  0  0  0  0  0  0  0
   20.3545  -17.1709  -16.0157 C   0  0  0  0  0  0  0  0  0  0  0  0
   18.2026  -16.7993  -17.0602 O   0  0  0  0  0  0  0  0  0  0  0  0
   17.1222  -17.1458  -17.5771 O   0  0  0  0  0  0  0  0  0  0  0  0
  2  1  1  0
  3  2  2  0
  4  2  1  0
  5  6  1  0
  5  4  1  0
  7  6  1  0
  8  7  1  0
  8  9  1  6
 10  8  1  0
 11 10  2  0
 12 10  1  0
 13 12  1  0
 13 14  1  1
 14 15  1  0
 15 16  1  0
 16 17  1  0
 17 18  1  0
 19 13  1  0
 20 19  2  0
 22 21  1  0
 23 22  1  6
 23 24  1  0
 24 19  1  0
 25 23  1  0
 25 27  1  0
 26 25  2  0
M  END
$$$$
