RKS.pdb
     RDKit          3D

 27 26  0  0  1  0  0  0  0  0999 V2000
   28.7284  -21.4236  -17.1844 N   0  0  0  0  0  0  0  0  0  0  0  0
   28.4838  -22.6754  -16.5975 C   0  0  0  0  0  0  0  0  0  0  0  0
   29.4560  -23.3982  -16.1546 N   0  0  0  0  0  0  0  0  0  0  0  0
   27.1609  -23.1665  -16.4821 N   0  0  0  0  0  0  0  0  0  0  0  0
   26.0209  -22.2443  -16.6274 C   0  0  0  0  0  0  0  0  0  0  0  0
   26.2004  -21.2110  -15.5565 C   0  0  0  0  0  0  0  0  0  0  0  0
   24.9220  -20.6379  -15.1036 C   0  0  0  0  0  0  0  0  0  0  0  0
   23.7592  -21.5813  -15.0826 C   0  0  2  0  0  0  0  0  0  0  0  0
   23.8777  -22.7410  -15.9034 N   0  0  0  0  0  0  0  0  0  0  0  0
   22.5800  -20.7942  -15.5946 C   0  0  0  0  0  0  0  0  0  0  0  0
   22.4416  -20.6110  -16.8095 O   0  0  0  0  0  0  0  0  0  0  0  0
   29.3330  -24.3159  -15.6896 N   0  0  0  0  0  0  0  0  0  0  0  0
   21.6466  -20.2782  -14.6563 C   0  0  1  0  0  0  0  0  0  0  0  0
   20.3845  -19.7738  -15.1482 C   0  0  0  0  0  0  0  0  0  0  0  0
   19.2948  -20.1616  -14.1780 C   0  0  0  0  0  0  0  0  0  0  0  0
   18.5551  -21.3550  -14.6759 C   0  0  0  0  0  0  0  0  0  0  0  0
   17.3919  -21.7821  -13.8176 C   0  0  0  0  0  0  0  0  0  0  0  0
   16.6793  -22.9209  -14.4780 N   0  0  0  0  0  0  0  0  0  0  0  0
   15.6736  -23.3937  -13.5339 C   0  0  0  0  0  0  0  0  0  0  0  0
   20.4999  -18.3324  -15.3706 O   0  0  0  0  0  0  0  0  0  0  0  0
   21.0508  -17.6308  -14.4844 O   0  0  0  0  0  0  0  0  0  0  0  0
   22.3037  -16.1404  -17.6385 C   0  0  0  0  0  0  0  0  0  0  0  0
   20.9465  -15.8895  -17.8347 C   0  0  2  0  0  0  0  0  0  0  0  0
   20.1360  -16.2327  -16.5979 N   0  0  0  0  0  0  0  0  0  0  0  0
   20.0275  -17.6672  -16.5307 C   0  0  0  0  0  0  0  0  0  0  0  0
   18.8111  -15.5762  -16.6174 O   0  0  0  0  0  0  0  0  0  0  0  0
   17.7560  -16.2315  -16.5085 O   0  0  0  0  0  0  0  0  0  0  0  0
  2  1  1  0
  3  2  2  0
  4  2  1  0
  5  6  1  0
  5  4  1  0
  7  6  1  0
  8  7  1  0
  8  9  1  6
 10  8  1  0
 11 10  2  0
 12 10  1  0
 13 12  1  0
 13 14  1  6
 14 15  1  0
 15 16  1  0
 16 17  1  0
 17 18  1  0
 19 13  1  0
 20 19  2  0
 22 21  1  0
 23 22  1  1
 23 24  1  0
 24 19  1  0
 25 23  1  0
 25 27  1  0
 26 25  2  0
M  END
$$$$
