RKS.pdb
     RDKit          3D

 27 26  0  0  1  0  0  0  0  0999 V2000
   12.0066  -11.3363  -10.5059 N   0  0  0  0  0  0  0  0  0  0  0  0
   11.5770  -10.0843  -10.0375 C   0  0  0  0  0  0  0  0  0  0  0  0
   10.3685   -9.9148   -9.6198 N   0  0  0  0  0  0  0  0  0  0  0  0
   12.4670   -8.9833  -10.0162 N   0  0  0  0  0  0  0  0  0  0  0  0
   13.5515   -8.8976  -11.0099 C   0  0  0  0  0  0  0  0  0  0  0  0
   14.8239   -8.8915  -10.2175 C   0  0  0  0  0  0  0  0  0  0  0  0
   16.0217   -8.8308  -11.0714 C   0  0  0  0  0  0  0  0  0  0  0  0
   16.5383  -10.1490  -11.5592 C   0  0  2  0  0  0  0  0  0  0  0  0
   16.8644  -11.1057  -10.5537 N   0  0  0  0  0  0  0  0  0  0  0  0
   17.8098   -9.8423  -12.3085 C   0  0  0  0  0  0  0  0  0  0  0  0
   18.8751   -9.7234  -11.6923 O   0  0  0  0  0  0  0  0  0  0  0  0
    9.9836   -9.0047   -9.3081 N   0  0  0  0  0  0  0  0  0  0  0  0
   17.7501   -9.6971  -13.7203 C   0  0  2  0  0  0  0  0  0  0  0  0
   18.9783   -9.4387  -14.4375 C   0  0  0  0  0  0  0  0  0  0  0  0
   18.9062  -10.1165  -15.7846 C   0  0  0  0  0  0  0  0  0  0  0  0
   20.2031   -9.9815  -16.5050 C   0  0  0  0  0  0  0  0  0  0  0  0
   20.2694  -10.6998  -17.8287 C   0  0  0  0  0  0  0  0  0  0  0  0
   21.6585  -10.6017  -18.3778 N   0  0  0  0  0  0  0  0  0  0  0  0
   21.6697  -11.3444  -19.6326 C   0  0  0  0  0  0  0  0  0  0  0  0
   19.1956   -7.9936  -14.5078 O   0  0  0  0  0  0  0  0  0  0  0  0
   18.2096   -7.2300  -14.3469 O   0  0  0  0  0  0  0  0  0  0  0  0
   20.7511   -4.4251  -12.6916 C   0  0  0  0  0  0  0  0  0  0  0  0
   20.3532   -5.7118  -13.0516 C   0  0  1  0  0  0  0  0  0  0  0  0
   20.5997   -5.9748  -14.5261 N   0  0  0  0  0  0  0  0  0  0  0  0
   20.4568   -7.3907  -14.7474 C   0  0  0  0  0  0  0  0  0  0  0  0
   21.9255   -5.4775  -14.9523 O   0  0  0  0  0  0  0  0  0  0  0  0
   22.2149   -4.2657  -14.9037 O   0  0  0  0  0  0  0  0  0  0  0  0
  2  1  1  0
  3  2  2  0
  4  2  1  0
  5  6  1  0
  5  4  1  0
  7  6  1  0
  8  7  1  0
  8  9  1  1
 10  8  1  0
 11 10  2  0
 12 10  1  0
 13 12  1  0
 13 14  1  1
 14 15  1  0
 15 16  1  0
 16 17  1  0
 17 18  1  0
 19 13  1  0
 20 19  2  0
 22 21  1  0
 23 22  1  6
 23 24  1  0
 24 19  1  0
 25 23  1  0
 25 27  1  0
 26 25  2  0
M  END
$$$$
