RKS.pdb
     RDKit          3D

 27 26  0  0  1  0  0  0  0  0999 V2000
   25.7481  -17.6266  -19.2826 N   0  0  0  0  0  0  0  0  0  0  0  0
   25.0196  -17.0877  -18.2101 C   0  0  0  0  0  0  0  0  0  0  0  0
   24.2149  -16.0959  -18.3907 N   0  0  0  0  0  0  0  0  0  0  0  0
   25.1572  -17.6264  -16.9080 N   0  0  0  0  0  0  0  0  0  0  0  0
   25.6482  -19.0045  -16.7325 C   0  0  0  0  0  0  0  0  0  0  0  0
   27.1066  -18.8742  -16.4116 C   0  0  0  0  0  0  0  0  0  0  0  0
   27.3743  -18.9261  -14.9648 C   0  0  0  0  0  0  0  0  0  0  0  0
   27.7652  -20.2670  -14.4248 C   0  0  2  0  0  0  0  0  0  0  0  0
   28.2604  -21.2061  -15.3765 N   0  0  0  0  0  0  0  0  0  0  0  0
   26.5101  -20.8555  -13.8328 C   0  0  0  0  0  0  0  0  0  0  0  0
   26.0142  -21.8744  -14.3273 O   0  0  0  0  0  0  0  0  0  0  0  0
   23.6312  -15.6777  -17.6437 N   0  0  0  0  0  0  0  0  0  0  0  0
   25.9233  -20.2166  -12.7079 C   0  0  2  0  0  0  0  0  0  0  0  0
   24.8037  -20.8599  -12.0583 C   0  0  0  0  0  0  0  0  0  0  0  0
   24.8890  -20.6009  -10.5734 C   0  0  0  0  0  0  0  0  0  0  0  0
   23.7028  -21.1724   -9.8766 C   0  0  0  0  0  0  0  0  0  0  0  0
   23.7078  -21.0055   -8.3784 C   0  0  0  0  0  0  0  0  0  0  0  0
   22.5438  -21.7422   -7.7928 N   0  0  0  0  0  0  0  0  0  0  0  0
   22.5960  -21.5355   -6.3503 C   0  0  0  0  0  0  0  0  0  0  0  0
   23.5613  -20.3939  -12.6747 O   0  0  0  0  0  0  0  0  0  0  0  0
   23.4437  -19.1696  -12.9362 O   0  0  0  0  0  0  0  0  0  0  0  0
   20.2227  -20.8864  -15.8323 C   0  0  0  0  0  0  0  0  0  0  0  0
   21.3052  -21.3444  -15.0828 C   0  0  1  0  0  0  0  0  0  0  0  0
   21.3532  -20.6816  -13.7181 N   0  0  0  0  0  0  0  0  0  0  0  0
   22.4702  -21.2394  -13.0004 C   0  0  0  0  0  0  0  0  0  0  0  0
   20.0804  -20.8546  -12.9852 O   0  0  0  0  0  0  0  0  0  0  0  0
   20.0213  -21.5069  -11.9243 O   0  0  0  0  0  0  0  0  0  0  0  0
  2  1  1  0
  3  2  2  0
  4  2  1  0
  5  6  1  0
  5  4  1  0
  7  6  1  0
  8  7  1  0
  8  9  1  6
 10  8  1  0
 11 10  2  0
 12 10  1  0
 13 12  1  0
 13 14  1  1
 14 15  1  0
 15 16  1  0
 16 17  1  0
 17 18  1  0
 19 13  1  0
 20 19  2  0
 22 21  1  0
 23 22  1  6
 23 24  1  0
 24 19  1  0
 25 23  1  0
 25 27  1  0
 26 25  2  0
M  END
$$$$
