RKS.pdb
     RDKit          3D

 27 26  0  0  1  0  0  0  0  0999 V2000
   19.4609  -25.8535  -10.0679 N   0  0  0  0  0  0  0  0  0  0  0  0
   18.3381  -25.0109  -10.0992 C   0  0  0  0  0  0  0  0  0  0  0  0
   17.5916  -24.9445  -11.1490 N   0  0  0  0  0  0  0  0  0  0  0  0
   18.0061  -24.2175   -8.9746 N   0  0  0  0  0  0  0  0  0  0  0  0
   18.6657  -24.4666   -7.6808 C   0  0  0  0  0  0  0  0  0  0  0  0
   18.0070  -25.6920   -7.1227 C   0  0  0  0  0  0  0  0  0  0  0  0
   16.9538  -25.3724   -6.1448 C   0  0  0  0  0  0  0  0  0  0  0  0
   17.2237  -25.8034   -4.7363 C   0  0  2  0  0  0  0  0  0  0  0  0
   17.3805  -27.2051   -4.5286 N   0  0  0  0  0  0  0  0  0  0  0  0
   16.0241  -25.3677   -3.9344 C   0  0  0  0  0  0  0  0  0  0  0  0
   15.1110  -26.1694   -3.7058 O   0  0  0  0  0  0  0  0  0  0  0  0
   16.7798  -24.3080  -11.2455 N   0  0  0  0  0  0  0  0  0  0  0  0
   15.9739  -24.0313   -3.4555 C   0  0  2  0  0  0  0  0  0  0  0  0
   14.8127  -23.6137   -2.7026 C   0  0  0  0  0  0  0  0  0  0  0  0
   15.2733  -22.8808   -1.4657 C   0  0  0  0  0  0  0  0  0  0  0  0
   14.1065  -22.3199   -0.7286 C   0  0  0  0  0  0  0  0  0  0  0  0
   14.4608  -21.4806    0.4724 C   0  0  0  0  0  0  0  0  0  0  0  0
   13.2143  -20.8805    1.0440 N   0  0  0  0  0  0  0  0  0  0  0  0
   13.6232  -20.0556    2.1748 C   0  0  0  0  0  0  0  0  0  0  0  0
   13.9378  -22.8262   -3.5715 O   0  0  0  0  0  0  0  0  0  0  0  0
   14.4233  -21.8331   -4.1707 O   0  0  0  0  0  0  0  0  0  0  0  0
   10.3932  -24.2048   -4.8837 C   0  0  0  0  0  0  0  0  0  0  0  0
   11.0157  -23.1847   -5.6016 C   0  0  1  0  0  0  0  0  0  0  0  0
   11.8172  -22.2750   -4.6882 N   0  0  0  0  0  0  0  0  0  0  0  0
   12.5650  -23.1114   -3.7851 C   0  0  0  0  0  0  0  0  0  0  0  0
   10.9446  -21.3224   -3.9685 O   0  0  0  0  0  0  0  0  0  0  0  0
   10.9132  -21.2788   -2.7228 O   0  0  0  0  0  0  0  0  0  0  0  0
  2  1  1  0
  3  2  2  0
  4  2  1  0
  5  6  1  0
  5  4  1  0
  7  6  1  0
  8  7  1  0
  8  9  1  6
 10  8  1  0
 11 10  2  0
 12 10  1  0
 13 12  1  0
 13 14  1  1
 14 15  1  0
 15 16  1  0
 16 17  1  0
 17 18  1  0
 19 13  1  0
 20 19  2  0
 22 21  1  0
 23 22  1  6
 23 24  1  0
 24 19  1  0
 25 23  1  0
 25 27  1  0
 26 25  2  0
M  END
$$$$
