RKS.pdb
     RDKit          3D

 27 26  0  0  1  0  0  0  0  0999 V2000
   21.6581  -16.3092  -17.9717 N   0  0  0  0  0  0  0  0  0  0  0  0
   20.3529  -16.1735  -18.4712 C   0  0  0  0  0  0  0  0  0  0  0  0
   19.6884  -17.2044  -18.8707 N   0  0  0  0  0  0  0  0  0  0  0  0
   19.7428  -14.8980  -18.5447 N   0  0  0  0  0  0  0  0  0  0  0  0
   20.4433  -13.7180  -18.0083 C   0  0  0  0  0  0  0  0  0  0  0  0
   19.5263  -12.5584  -18.2563 C   0  0  0  0  0  0  0  0  0  0  0  0
   20.1021  -11.2774  -17.8145 C   0  0  0  0  0  0  0  0  0  0  0  0
   20.0340  -11.0084  -16.3430 C   0  0  2  0  0  0  0  0  0  0  0  0
   19.1431  -11.8331  -15.5954 N   0  0  0  0  0  0  0  0  0  0  0  0
   19.5455   -9.5890  -16.2052 C   0  0  0  0  0  0  0  0  0  0  0  0
   20.1096   -8.6799  -16.8247 O   0  0  0  0  0  0  0  0  0  0  0  0
   18.7489  -17.1576  -19.3051 N   0  0  0  0  0  0  0  0  0  0  0  0
   18.4354   -9.3302  -15.3574 C   0  0  1  0  0  0  0  0  0  0  0  0
   17.9292   -7.9785  -15.2807 C   0  0  0  0  0  0  0  0  0  0  0  0
   16.5431   -8.0118  -14.6834 C   0  0  0  0  0  0  0  0  0  0  0  0
   15.9177   -6.6611  -14.7441 C   0  0  0  0  0  0  0  0  0  0  0  0
   14.5397   -6.5740  -14.1392 C   0  0  0  0  0  0  0  0  0  0  0  0
   14.0367   -5.1685  -14.2500 N   0  0  0  0  0  0  0  0  0  0  0  0
   12.6741   -5.1658  -13.7308 C   0  0  0  0  0  0  0  0  0  0  0  0
   18.8802   -7.1536  -14.5352 O   0  0  0  0  0  0  0  0  0  0  0  0
   19.4920   -7.6707  -13.5660 O   0  0  0  0  0  0  0  0  0  0  0  0
   22.6473   -5.2758  -13.9675 C   0  0  0  0  0  0  0  0  0  0  0  0
   21.5202   -5.9151  -14.4817 C   0  0  1  0  0  0  0  0  0  0  0  0
   20.2517   -5.1482  -14.1547 N   0  0  0  0  0  0  0  0  0  0  0  0
   19.1611   -5.7964  -14.8363 C   0  0  0  0  0  0  0  0  0  0  0  0
   20.3686   -3.7216  -14.5259 O   0  0  0  0  0  0  0  0  0  0  0  0
   19.7349   -3.2430  -15.4872 O   0  0  0  0  0  0  0  0  0  0  0  0
  2  1  1  0
  3  2  2  0
  4  2  1  0
  5  6  1  0
  5  4  1  0
  7  6  1  0
  8  7  1  0
  8  9  1  1
 10  8  1  0
 11 10  2  0
 12 10  1  0
 13 12  1  0
 13 14  1  6
 14 15  1  0
 15 16  1  0
 16 17  1  0
 17 18  1  0
 19 13  1  0
 20 19  2  0
 22 21  1  0
 23 22  1  1
 23 24  1  0
 24 19  1  0
 25 23  1  0
 25 27  1  0
 26 25  2  0
M  END
$$$$
