YHG.pdb
     RDKit          3D

 27 28  0  0  1  0  0  0  0  0999 V2000
    8.2571  -12.6626   16.9329 O   0  0  0  0  0  0  0  0  0  0  0  0
    7.9649  -13.2067   18.1733 C   0  0  0  0  0  0  0  0  0  0  0  0
    7.3364  -14.4264   18.3196 C   0  0  0  0  0  0  0  0  0  0  0  0
    7.0751  -14.9096   19.5968 C   0  0  0  0  0  0  0  0  0  0  0  0
    7.4355  -14.1870   20.7007 C   0  0  0  0  0  0  0  0  0  0  0  0
    7.1625  -14.6914   22.0606 C   0  0  0  0  0  0  0  0  0  0  0  0
    8.5036  -15.0444   22.7163 C   0  0  2  0  0  0  0  0  0  0  0  0
    9.2626  -15.7821   21.7451 N   0  0  0  0  0  0  0  0  0  0  0  0
    8.1629  -15.9038   23.8929 C   0  0  0  0  0  0  0  0  0  0  0  0
    7.3876  -15.5523   24.7846 O   0  0  0  0  0  0  0  0  0  0  0  0
    8.0670  -12.9611   20.5779 C   0  0  0  0  0  0  0  0  0  0  0  0
    8.3126  -12.5082   19.3095 C   0  0  0  0  0  0  0  0  0  0  0  0
    8.7543  -17.1751   23.9894 N   0  0  0  0  0  0  0  0  0  0  0  0
    8.6202  -18.1364   24.9942 C   0  0  1  0  0  0  0  0  0  0  0  0
    7.8221  -19.3707   24.8059 C   0  0  0  0  0  0  0  0  0  0  0  0
    6.8421  -19.2166   23.6892 C   0  0  0  0  0  0  0  0  0  0  0  0
    5.5622  -18.6426   23.8264 C   0  0  0  0  0  0  0  0  0  0  0  0
    4.9254  -18.6441   22.6586 N   0  0  0  0  0  0  0  0  0  0  0  0
    5.7548  -19.2049   21.7568 C   0  0  0  0  0  0  0  0  0  0  0  0
    6.8783  -19.5327   22.3945 N   0  0  0  0  0  0  0  0  0  0  0  0
    9.9083  -18.3921   25.6440 C   0  0  0  0  0  0  0  0  0  0  0  0
    9.9377  -19.0869   26.7193 O   0  0  0  0  0  0  0  0  0  0  0  0
   11.1689  -17.9408   25.1994 N   0  0  0  0  0  0  0  0  0  0  0  0
   12.4085  -18.2558   25.8972 C   0  0  0  0  0  0  0  0  0  0  0  0
   13.5771  -17.6798   25.1971 C   0  0  0  0  0  0  0  0  0  0  0  0
   13.3900  -16.9907   24.1751 O   0  0  0  0  0  0  0  0  0  0  0  0
   14.8693  -17.8830   25.6422 O   0  0  0  0  0  0  0  0  0  0  0  0
  1  2  1  0
  2 12  2  0
  3  4  2  0
  3  2  1  0
  4  5  1  0
  5  6  1  0
  5 11  2  0
  6  7  1  0
  7  9  1  0
  7  8  1  6
  9 10  2  0
 12 11  1  0
 13 14  1  0
 13  9  1  0
 14 21  1  0
 14 15  1  6
 16 15  1  0
 17 16  2  0
 18 17  1  0
 19 18  1  0
 19 20  2  0
 20 16  1  0
 21 22  2  0
 21 23  1  0
 23 24  1  0
 24 25  1  0
 25 27  1  0
 26 25  2  0
M  END
$$$$
