YHG.pdb
     RDKit          3D

 27 28  0  0  1  0  0  0  0  0999 V2000
    7.0537  -10.9591   26.9693 O   0  0  0  0  0  0  0  0  0  0  0  0
    7.1205  -12.3191   26.7125 C   0  0  0  0  0  0  0  0  0  0  0  0
    8.3119  -13.0154   26.7048 C   0  0  0  0  0  0  0  0  0  0  0  0
    8.3019  -14.3800   26.4388 C   0  0  0  0  0  0  0  0  0  0  0  0
    7.1255  -15.0306   26.1866 C   0  0  0  0  0  0  0  0  0  0  0  0
    7.1046  -16.4789   25.9032 C   0  0  0  0  0  0  0  0  0  0  0  0
    6.8036  -16.6683   24.4110 C   0  0  2  0  0  0  0  0  0  0  0  0
    6.1147  -17.9220   24.2793 N   0  0  0  0  0  0  0  0  0  0  0  0
    8.1371  -16.7178   23.7341 C   0  0  0  0  0  0  0  0  0  0  0  0
    8.8320  -17.7349   23.6836 O   0  0  0  0  0  0  0  0  0  0  0  0
    5.9186  -14.3524   26.1891 C   0  0  0  0  0  0  0  0  0  0  0  0
    5.9561  -13.0096   26.4538 C   0  0  0  0  0  0  0  0  0  0  0  0
    8.6247  -15.5489   23.1248 N   0  0  0  0  0  0  0  0  0  0  0  0
    9.7789  -15.3692   22.3586 C   0  0  1  0  0  0  0  0  0  0  0  0
    9.9590  -14.2030   21.4622 C   0  0  0  0  0  0  0  0  0  0  0  0
    8.8118  -14.0657   20.5155 C   0  0  0  0  0  0  0  0  0  0  0  0
    7.9424  -15.1166   20.1599 C   0  0  0  0  0  0  0  0  0  0  0  0
    7.0215  -14.6867   19.3018 N   0  0  0  0  0  0  0  0  0  0  0  0
    7.2636  -13.3791   19.0843 C   0  0  0  0  0  0  0  0  0  0  0  0
    8.3263  -13.0410   19.8142 N   0  0  0  0  0  0  0  0  0  0  0  0
   10.9777  -15.6631   23.1482 C   0  0  0  0  0  0  0  0  0  0  0  0
   11.4712  -14.7491   23.8971 O   0  0  0  0  0  0  0  0  0  0  0  0
   11.6757  -16.8888   23.1768 N   0  0  0  0  0  0  0  0  0  0  0  0
   12.9116  -17.0735   23.9260 C   0  0  0  0  0  0  0  0  0  0  0  0
   13.3798  -18.4742   23.8478 C   0  0  0  0  0  0  0  0  0  0  0  0
   12.7772  -19.2721   23.1030 O   0  0  0  0  0  0  0  0  0  0  0  0
   14.4647  -18.9242   24.5755 O   0  0  0  0  0  0  0  0  0  0  0  0
  1  2  1  0
  2 12  2  0
  3  4  2  0
  3  2  1  0
  4  5  1  0
  5  6  1  0
  5 11  2  0
  6  7  1  0
  7  9  1  0
  7  8  1  1
  9 10  2  0
 12 11  1  0
 13 14  1  0
 13  9  1  0
 14 21  1  0
 14 15  1  1
 16 15  1  0
 17 16  2  0
 18 17  1  0
 19 18  1  0
 19 20  2  0
 20 16  1  0
 21 22  2  0
 21 23  1  0
 23 24  1  0
 24 25  1  0
 25 27  1  0
 26 25  2  0
M  END
$$$$
