YHG.pdb
     RDKit          3D

 27 28  0  0  1  0  0  0  0  0999 V2000
    5.3223  -10.7561   27.0927 O   0  0  0  0  0  0  0  0  0  0  0  0
    6.1072  -11.8265   26.6950 C   0  0  0  0  0  0  0  0  0  0  0  0
    6.3664  -12.9033   27.5181 C   0  0  0  0  0  0  0  0  0  0  0  0
    7.1634  -13.9421   27.0507 C   0  0  0  0  0  0  0  0  0  0  0  0
    7.6879  -13.9021   25.7881 C   0  0  0  0  0  0  0  0  0  0  0  0
    8.5351  -14.9999   25.2828 C   0  0  0  0  0  0  0  0  0  0  0  0
    7.7889  -15.6870   24.1321 C   0  0  2  0  0  0  0  0  0  0  0  0
    6.6899  -16.4046   24.7158 N   0  0  0  0  0  0  0  0  0  0  0  0
    8.7758  -16.6290   23.5176 C   0  0  0  0  0  0  0  0  0  0  0  0
    8.8568  -17.8195   23.8271 O   0  0  0  0  0  0  0  0  0  0  0  0
    7.4412  -12.8320   24.9451 C   0  0  0  0  0  0  0  0  0  0  0  0
    6.6535  -11.8225   25.4296 C   0  0  0  0  0  0  0  0  0  0  0  0
    9.6554  -16.1354   22.5388 N   0  0  0  0  0  0  0  0  0  0  0  0
   10.5744  -16.8296   21.7481 C   0  0  1  0  0  0  0  0  0  0  0  0
   10.7644  -16.5300   20.3093 C   0  0  0  0  0  0  0  0  0  0  0  0
    9.4639  -16.5545   19.5749 C   0  0  0  0  0  0  0  0  0  0  0  0
    8.2604  -17.0636   20.1032 C   0  0  0  0  0  0  0  0  0  0  0  0
    7.2774  -16.9463   19.2149 N   0  0  0  0  0  0  0  0  0  0  0  0
    7.8045  -16.3727   18.1154 C   0  0  0  0  0  0  0  0  0  0  0  0
    9.0966  -16.1531   18.3578 N   0  0  0  0  0  0  0  0  0  0  0  0
   11.8434  -17.0053   22.4592 C   0  0  0  0  0  0  0  0  0  0  0  0
   12.7190  -17.8096   21.9835 O   0  0  0  0  0  0  0  0  0  0  0  0
   12.2230  -16.3618   23.6559 N   0  0  0  0  0  0  0  0  0  0  0  0
   13.5332  -16.5445   24.2664 C   0  0  0  0  0  0  0  0  0  0  0  0
   14.5966  -15.9273   23.4446 C   0  0  0  0  0  0  0  0  0  0  0  0
   14.3019  -15.4597   22.3270 O   0  0  0  0  0  0  0  0  0  0  0  0
   15.9064  -15.8538   23.8787 O   0  0  0  0  0  0  0  0  0  0  0  0
  1  2  1  0
  2 12  2  0
  3  4  2  0
  3  2  1  0
  4  5  1  0
  5  6  1  0
  5 11  2  0
  6  7  1  0
  7  9  1  0
  7  8  1  1
  9 10  2  0
 12 11  1  0
 13 14  1  0
 13  9  1  0
 14 21  1  0
 14 15  1  6
 16 15  1  0
 17 16  2  0
 18 17  1  0
 19 18  1  0
 19 20  2  0
 20 16  1  0
 21 22  2  0
 21 23  1  0
 23 24  1  0
 24 25  1  0
 25 27  1  0
 26 25  2  0
M  END
$$$$
