YHG.pdb
     RDKit          3D

 27 28  0  0  1  0  0  0  0  0999 V2000
    9.0909  -14.4753   15.3931 O   0  0  0  0  0  0  0  0  0  0  0  0
    8.7377  -14.3909   16.7303 C   0  0  0  0  0  0  0  0  0  0  0  0
    9.4051  -15.0840   17.7195 C   0  0  0  0  0  0  0  0  0  0  0  0
    8.9943  -14.9503   19.0410 C   0  0  0  0  0  0  0  0  0  0  0  0
    7.9396  -14.1410   19.3627 C   0  0  0  0  0  0  0  0  0  0  0  0
    7.4960  -13.9925   20.7625 C   0  0  0  0  0  0  0  0  0  0  0  0
    6.9768  -15.3530   21.2449 C   0  0  2  0  0  0  0  0  0  0  0  0
    5.5523  -15.2312   21.3846 N   0  0  0  0  0  0  0  0  0  0  0  0
    7.6260  -15.5841   22.5730 C   0  0  0  0  0  0  0  0  0  0  0  0
    7.2846  -14.9991   23.6031 O   0  0  0  0  0  0  0  0  0  0  0  0
    7.2555  -13.4363   18.3870 C   0  0  0  0  0  0  0  0  0  0  0  0
    7.6801  -13.5855   17.0940 C   0  0  0  0  0  0  0  0  0  0  0  0
    8.6773  -16.5134   22.6539 N   0  0  0  0  0  0  0  0  0  0  0  0
    9.5468  -16.7714   23.7165 C   0  0  1  0  0  0  0  0  0  0  0  0
    9.3054  -17.8639   24.6881 C   0  0  0  0  0  0  0  0  0  0  0  0
    7.9571  -18.4757   24.4907 C   0  0  0  0  0  0  0  0  0  0  0  0
    7.0054  -18.0212   23.5557 C   0  0  0  0  0  0  0  0  0  0  0  0
    5.9053  -18.7667   23.6135 N   0  0  0  0  0  0  0  0  0  0  0  0
    6.1100  -19.7004   24.5633 C   0  0  0  0  0  0  0  0  0  0  0  0
    7.3297  -19.5034   25.0633 N   0  0  0  0  0  0  0  0  0  0  0  0
   10.9419  -16.7101   23.2728 C   0  0  0  0  0  0  0  0  0  0  0  0
   11.8770  -16.7545   24.1466 O   0  0  0  0  0  0  0  0  0  0  0  0
   11.3871  -16.6040   21.9383 N   0  0  0  0  0  0  0  0  0  0  0  0
   12.7970  -16.5051   21.5844 C   0  0  0  0  0  0  0  0  0  0  0  0
   13.3577  -17.8314   21.2473 C   0  0  0  0  0  0  0  0  0  0  0  0
   12.6920  -18.8529   21.5077 O   0  0  0  0  0  0  0  0  0  0  0  0
   14.5970  -17.9716   20.6526 O   0  0  0  0  0  0  0  0  0  0  0  0
  1  2  1  0
  2 12  2  0
  3  4  2  0
  3  2  1  0
  4  5  1  0
  5  6  1  0
  5 11  2  0
  6  7  1  0
  7  9  1  0
  7  8  1  1
  9 10  2  0
 12 11  1  0
 13 14  1  0
 13  9  1  0
 14 21  1  0
 14 15  1  6
 16 15  1  0
 17 16  2  0
 18 17  1  0
 19 18  1  0
 19 20  2  0
 20 16  1  0
 21 22  2  0
 21 23  1  0
 23 24  1  0
 24 25  1  0
 25 27  1  0
 26 25  2  0
M  END
$$$$
