YHG.pdb
     RDKit          3D

 27 28  0  0  1  0  0  0  0  0999 V2000
   21.3061   -8.3035   17.3053 O   0  0  0  0  0  0  0  0  0  0  0  0
   20.3616   -9.2870   17.5515 C   0  0  0  0  0  0  0  0  0  0  0  0
   20.7030  -10.5538   17.9794 C   0  0  0  0  0  0  0  0  0  0  0  0
   19.7004  -11.4897   18.2063 C   0  0  0  0  0  0  0  0  0  0  0  0
   18.3869  -11.1633   18.0090 C   0  0  0  0  0  0  0  0  0  0  0  0
   17.3154  -12.1499   18.2471 C   0  0  0  0  0  0  0  0  0  0  0  0
   17.1873  -13.0263   16.9946 C   0  0  2  0  0  0  0  0  0  0  0  0
   16.2183  -12.3968   16.1411 N   0  0  0  0  0  0  0  0  0  0  0  0
   16.6910  -14.3519   17.4795 C   0  0  0  0  0  0  0  0  0  0  0  0
   15.4944  -14.6373   17.5599 O   0  0  0  0  0  0  0  0  0  0  0  0
   18.0211   -9.8988   17.5801 C   0  0  0  0  0  0  0  0  0  0  0  0
   19.0275   -8.9960   17.3640 C   0  0  0  0  0  0  0  0  0  0  0  0
   17.6328  -15.3221   17.8631 N   0  0  0  0  0  0  0  0  0  0  0  0
   17.4203  -16.6209   18.3319 C   0  0  1  0  0  0  0  0  0  0  0  0
   17.5172  -17.8061   17.4478 C   0  0  0  0  0  0  0  0  0  0  0  0
   16.5629  -17.7069   16.3029 C   0  0  0  0  0  0  0  0  0  0  0  0
   15.4836  -16.8024   16.2418 C   0  0  0  0  0  0  0  0  0  0  0  0
   14.8177  -16.9511   15.1000 N   0  0  0  0  0  0  0  0  0  0  0  0
   15.4322  -17.9310   14.4087 C   0  0  0  0  0  0  0  0  0  0  0  0
   16.4587  -18.3577   15.1440 N   0  0  0  0  0  0  0  0  0  0  0  0
   18.0869  -16.8236   19.6209 C   0  0  0  0  0  0  0  0  0  0  0  0
   19.2601  -16.3423   19.7991 O   0  0  0  0  0  0  0  0  0  0  0  0
   17.5595  -17.5166   20.7308 N   0  0  0  0  0  0  0  0  0  0  0  0
   18.2978  -17.6876   21.9752 C   0  0  0  0  0  0  0  0  0  0  0  0
   17.5152  -18.4680   22.9580 C   0  0  0  0  0  0  0  0  0  0  0  0
   16.3552  -18.8190   22.6651 O   0  0  0  0  0  0  0  0  0  0  0  0
   18.0316  -18.8195   24.1905 O   0  0  0  0  0  0  0  0  0  0  0  0
  1  2  1  0
  2 12  2  0
  3  4  2  0
  3  2  1  0
  4  5  1  0
  5  6  1  0
  5 11  2  0
  6  7  1  0
  7  9  1  0
  7  8  1  6
  9 10  2  0
 12 11  1  0
 13 14  1  0
 13  9  1  0
 14 21  1  0
 14 15  1  6
 16 15  1  0
 17 16  2  0
 18 17  1  0
 19 18  1  0
 19 20  2  0
 20 16  1  0
 21 22  2  0
 21 23  1  0
 23 24  1  0
 24 25  1  0
 25 27  1  0
 26 25  2  0
M  END
$$$$
