YHG.pdb
     RDKit          3D

 27 28  0  0  1  0  0  0  0  0999 V2000
    7.9154  -11.8051   18.2717 O   0  0  0  0  0  0  0  0  0  0  0  0
    8.0751  -12.6947   19.3219 C   0  0  0  0  0  0  0  0  0  0  0  0
    7.0089  -13.1867   20.0468 C   0  0  0  0  0  0  0  0  0  0  0  0
    7.2457  -14.0769   21.0881 C   0  0  0  0  0  0  0  0  0  0  0  0
    8.5209  -14.4644   21.3952 C   0  0  0  0  0  0  0  0  0  0  0  0
    8.7824  -15.4088   22.4988 C   0  0  0  0  0  0  0  0  0  0  0  0
    9.0083  -16.7997   21.8926 C   0  0  2  0  0  0  0  0  0  0  0  0
    7.7541  -17.2205   21.3326 N   0  0  0  0  0  0  0  0  0  0  0  0
    9.4041  -17.6785   23.0370 C   0  0  0  0  0  0  0  0  0  0  0  0
    8.5942  -18.1532   23.8362 O   0  0  0  0  0  0  0  0  0  0  0  0
    9.6056  -13.9837   20.6818 C   0  0  0  0  0  0  0  0  0  0  0  0
    9.3452  -13.1086   19.6616 C   0  0  0  0  0  0  0  0  0  0  0  0
   10.7656  -17.9799   23.2127 N   0  0  0  0  0  0  0  0  0  0  0  0
   11.3593  -18.9154   24.0636 C   0  0  1  0  0  0  0  0  0  0  0  0
   12.4651  -19.7969   23.6207 C   0  0  0  0  0  0  0  0  0  0  0  0
   12.1417  -20.4599   22.3218 C   0  0  0  0  0  0  0  0  0  0  0  0
   10.9170  -21.0962   22.0355 C   0  0  0  0  0  0  0  0  0  0  0  0
   10.9280  -21.5896   20.8003 N   0  0  0  0  0  0  0  0  0  0  0  0
   12.1296  -21.2935   20.2671 C   0  0  0  0  0  0  0  0  0  0  0  0
   12.8241  -20.6265   21.1886 N   0  0  0  0  0  0  0  0  0  0  0  0
   11.5971  -18.3357   25.3881 C   0  0  0  0  0  0  0  0  0  0  0  0
   12.3703  -17.3206   25.4952 O   0  0  0  0  0  0  0  0  0  0  0  0
   11.0474  -18.7888   26.6058 N   0  0  0  0  0  0  0  0  0  0  0  0
   11.3285  -18.1471   27.8833 C   0  0  0  0  0  0  0  0  0  0  0  0
   12.3696  -18.8827   28.6332 C   0  0  0  0  0  0  0  0  0  0  0  0
   12.9450  -19.8430   28.0843 O   0  0  0  0  0  0  0  0  0  0  0  0
   12.7230  -18.5372   29.9235 O   0  0  0  0  0  0  0  0  0  0  0  0
  1  2  1  0
  2 12  2  0
  3  4  2  0
  3  2  1  0
  4  5  1  0
  5  6  1  0
  5 11  2  0
  6  7  1  0
  7  9  1  0
  7  8  1  1
  9 10  2  0
 12 11  1  0
 13 14  1  0
 13  9  1  0
 14 21  1  0
 14 15  1  6
 16 15  1  0
 17 16  2  0
 18 17  1  0
 19 18  1  0
 19 20  2  0
 20 16  1  0
 21 22  2  0
 21 23  1  0
 23 24  1  0
 24 25  1  0
 25 27  1  0
 26 25  2  0
M  END
$$$$
