YHG.pdb
     RDKit          3D

 27 28  0  0  1  0  0  0  0  0999 V2000
    8.2208  -13.6105   18.2750 O   0  0  0  0  0  0  0  0  0  0  0  0
    7.9296  -13.7489   19.6226 C   0  0  0  0  0  0  0  0  0  0  0  0
    7.6675  -14.9728   20.2037 C   0  0  0  0  0  0  0  0  0  0  0  0
    7.3828  -15.0348   21.5631 C   0  0  0  0  0  0  0  0  0  0  0  0
    7.3615  -13.8969   22.3216 C   0  0  0  0  0  0  0  0  0  0  0  0
    7.0603  -13.9525   23.7653 C   0  0  0  0  0  0  0  0  0  0  0  0
    6.8960  -15.4252   24.1617 C   0  0  2  0  0  0  0  0  0  0  0  0
    5.7350  -15.5045   25.0040 N   0  0  0  0  0  0  0  0  0  0  0  0
    8.1341  -15.7777   24.9243 C   0  0  0  0  0  0  0  0  0  0  0  0
    8.4609  -15.2237   25.9760 O   0  0  0  0  0  0  0  0  0  0  0  0
    7.6213  -12.6584   21.7601 C   0  0  0  0  0  0  0  0  0  0  0  0
    7.8988  -12.6250   20.4198 C   0  0  0  0  0  0  0  0  0  0  0  0
    8.9682  -16.7901   24.4195 N   0  0  0  0  0  0  0  0  0  0  0  0
   10.2279  -17.1988   24.8645 C   0  0  1  0  0  0  0  0  0  0  0  0
   10.5071  -18.5957   25.2729 C   0  0  0  0  0  0  0  0  0  0  0  0
    9.5296  -19.0648   26.3004 C   0  0  0  0  0  0  0  0  0  0  0  0
    8.5196  -18.2600   26.8649 C   0  0  0  0  0  0  0  0  0  0  0  0
    7.8093  -18.9576   27.7471 N   0  0  0  0  0  0  0  0  0  0  0  0
    8.3272  -20.2012   27.7767 C   0  0  0  0  0  0  0  0  0  0  0  0
    9.3412  -20.2342   26.9124 N   0  0  0  0  0  0  0  0  0  0  0  0
   11.2849  -16.6370   24.0196 C   0  0  0  0  0  0  0  0  0  0  0  0
   10.9647  -16.0475   22.9288 O   0  0  0  0  0  0  0  0  0  0  0  0
   12.6702  -16.6742   24.2844 N   0  0  0  0  0  0  0  0  0  0  0  0
   13.6672  -16.2140   23.3269 C   0  0  0  0  0  0  0  0  0  0  0  0
   15.0356  -16.3600   23.8684 C   0  0  0  0  0  0  0  0  0  0  0  0
   16.0033  -15.9953   23.1719 O   0  0  0  0  0  0  0  0  0  0  0  0
   15.2731  -16.8885   25.1229 O   0  0  0  0  0  0  0  0  0  0  0  0
  1  2  1  0
  2 12  2  0
  3  4  2  0
  3  2  1  0
  4  5  1  0
  5  6  1  0
  5 11  2  0
  6  7  1  0
  7  9  1  0
  7  8  1  1
  9 10  2  0
 12 11  1  0
 13 14  1  0
 13  9  1  0
 14 21  1  0
 14 15  1  6
 16 15  1  0
 17 16  2  0
 18 17  1  0
 19 18  1  0
 19 20  2  0
 20 16  1  0
 21 22  2  0
 21 23  1  0
 23 24  1  0
 24 25  1  0
 25 27  1  0
 26 25  2  0
M  END
$$$$
