YHG.pdb
     RDKit          3D

 27 28  0  0  1  0  0  0  0  0999 V2000
    9.0566  -11.4171   18.0362 O   0  0  0  0  0  0  0  0  0  0  0  0
    8.6273  -12.4140   18.8975 C   0  0  0  0  0  0  0  0  0  0  0  0
    7.6395  -13.3152   18.5564 C   0  0  0  0  0  0  0  0  0  0  0  0
    7.2599  -14.2894   19.4728 C   0  0  0  0  0  0  0  0  0  0  0  0
    7.8564  -14.3582   20.7016 C   0  0  0  0  0  0  0  0  0  0  0  0
    7.4603  -15.3886   21.6812 C   0  0  0  0  0  0  0  0  0  0  0  0
    8.7203  -15.8477   22.4261 C   0  0  2  0  0  0  0  0  0  0  0  0
    9.7447  -16.0380   21.4372 N   0  0  0  0  0  0  0  0  0  0  0  0
    8.3549  -17.1462   23.0735 C   0  0  0  0  0  0  0  0  0  0  0  0
    7.3649  -17.2870   23.7944 O   0  0  0  0  0  0  0  0  0  0  0  0
    8.8493  -13.4647   21.0654 C   0  0  0  0  0  0  0  0  0  0  0  0
    9.2045  -12.5154   20.1450 C   0  0  0  0  0  0  0  0  0  0  0  0
    9.1790  -18.2628   22.8510 N   0  0  0  0  0  0  0  0  0  0  0  0
    9.0730  -19.5550   23.3710 C   0  0  1  0  0  0  0  0  0  0  0  0
    8.8668  -20.7407   22.5063 C   0  0  0  0  0  0  0  0  0  0  0  0
    7.8415  -20.4713   21.4539 C   0  0  0  0  0  0  0  0  0  0  0  0
    6.7875  -19.5451   21.5874 C   0  0  0  0  0  0  0  0  0  0  0  0
    6.0427  -19.5277   20.4854 N   0  0  0  0  0  0  0  0  0  0  0  0
    6.5809  -20.4195   19.6305 C   0  0  0  0  0  0  0  0  0  0  0  0
    7.6412  -20.9605   20.2300 N   0  0  0  0  0  0  0  0  0  0  0  0
   10.0835  -19.7826   24.4073 C   0  0  0  0  0  0  0  0  0  0  0  0
   10.0114  -20.8388   25.1279 O   0  0  0  0  0  0  0  0  0  0  0  0
   11.1696  -18.9350   24.7113 N   0  0  0  0  0  0  0  0  0  0  0  0
   11.4835  -18.5147   26.0706 C   0  0  0  0  0  0  0  0  0  0  0  0
   11.8568  -19.6703   26.9146 C   0  0  0  0  0  0  0  0  0  0  0  0
   11.8275  -20.8145   26.4200 O   0  0  0  0  0  0  0  0  0  0  0  0
   12.2369  -19.5193   28.2344 O   0  0  0  0  0  0  0  0  0  0  0  0
  1  2  1  0
  2 12  2  0
  3  4  2  0
  3  2  1  0
  4  5  1  0
  5  6  1  0
  5 11  2  0
  6  7  1  0
  7  9  1  0
  7  8  1  6
  9 10  2  0
 12 11  1  0
 13 14  1  0
 13  9  1  0
 14 21  1  0
 14 15  1  6
 16 15  1  0
 17 16  2  0
 18 17  1  0
 19 18  1  0
 19 20  2  0
 20 16  1  0
 21 22  2  0
 21 23  1  0
 23 24  1  0
 24 25  1  0
 25 27  1  0
 26 25  2  0
M  END
$$$$
