YHG.pdb
     RDKit          3D

 27 28  0  0  1  0  0  0  0  0999 V2000
    7.6848  -13.3524   16.4770 O   0  0  0  0  0  0  0  0  0  0  0  0
    7.8648  -13.4235   17.8490 C   0  0  0  0  0  0  0  0  0  0  0  0
    6.8239  -13.2759   18.7430 C   0  0  0  0  0  0  0  0  0  0  0  0
    7.0800  -13.3595   20.1069 C   0  0  0  0  0  0  0  0  0  0  0  0
    8.3493  -13.5856   20.5634 C   0  0  0  0  0  0  0  0  0  0  0  0
    8.6312  -13.6759   22.0093 C   0  0  0  0  0  0  0  0  0  0  0  0
    9.1145  -15.0998   22.3128 C   0  0  2  0  0  0  0  0  0  0  0  0
    8.0431  -15.9891   21.9598 N   0  0  0  0  0  0  0  0  0  0  0  0
    9.3721  -15.1323   23.7864 C   0  0  0  0  0  0  0  0  0  0  0  0
   10.1975  -14.4062   24.3444 O   0  0  0  0  0  0  0  0  0  0  0  0
    9.4087  -13.7367   19.6851 C   0  0  0  0  0  0  0  0  0  0  0  0
    9.1297  -13.6501   18.3476 C   0  0  0  0  0  0  0  0  0  0  0  0
    8.6385  -16.0339   24.5766 N   0  0  0  0  0  0  0  0  0  0  0  0
    8.7047  -16.2554   25.9543 C   0  0  1  0  0  0  0  0  0  0  0  0
    7.6002  -15.8818   26.8689 C   0  0  0  0  0  0  0  0  0  0  0  0
    7.1505  -14.4776   26.6295 C   0  0  0  0  0  0  0  0  0  0  0  0
    7.7122  -13.3444   27.2515 C   0  0  0  0  0  0  0  0  0  0  0  0
    7.1031  -12.2373   26.8361 N   0  0  0  0  0  0  0  0  0  0  0  0
    6.1547  -12.6143   25.9562 C   0  0  0  0  0  0  0  0  0  0  0  0
    6.2067  -13.9423   25.8548 N   0  0  0  0  0  0  0  0  0  0  0  0
    9.2482  -17.5854   26.2413 C   0  0  0  0  0  0  0  0  0  0  0  0
    8.5583  -18.6204   25.9370 O   0  0  0  0  0  0  0  0  0  0  0  0
   10.4958  -17.8637   26.8385 N   0  0  0  0  0  0  0  0  0  0  0  0
   11.0000  -19.2195   27.0127 C   0  0  0  0  0  0  0  0  0  0  0  0
   10.8929  -19.6524   28.4228 C   0  0  0  0  0  0  0  0  0  0  0  0
   10.4218  -18.8615   29.2637 O   0  0  0  0  0  0  0  0  0  0  0  0
   11.2993  -20.9069   28.8354 O   0  0  0  0  0  0  0  0  0  0  0  0
  1  2  1  0
  2 12  2  0
  3  4  2  0
  3  2  1  0
  4  5  1  0
  5  6  1  0
  5 11  2  0
  6  7  1  0
  7  9  1  0
  7  8  1  1
  9 10  2  0
 12 11  1  0
 13 14  1  0
 13  9  1  0
 14 21  1  0
 14 15  1  6
 16 15  1  0
 17 16  2  0
 18 17  1  0
 19 18  1  0
 19 20  2  0
 20 16  1  0
 21 22  2  0
 21 23  1  0
 23 24  1  0
 24 25  1  0
 25 27  1  0
 26 25  2  0
M  END
$$$$
