YHG.pdb
     RDKit          3D

 27 28  0  0  1  0  0  0  0  0999 V2000
   11.6062  -14.6878   29.4519 O   0  0  0  0  0  0  0  0  0  0  0  0
   10.6292  -14.8832   28.4890 C   0  0  0  0  0  0  0  0  0  0  0  0
   10.0888  -13.8448   27.7583 C   0  0  0  0  0  0  0  0  0  0  0  0
    9.1112  -14.1167   26.8080 C   0  0  0  0  0  0  0  0  0  0  0  0
    8.6857  -15.3991   26.5954 C   0  0  0  0  0  0  0  0  0  0  0  0
    7.6485  -15.6978   25.5889 C   0  0  0  0  0  0  0  0  0  0  0  0
    8.2642  -15.5030   24.1974 C   0  0  2  0  0  0  0  0  0  0  0  0
    7.2076  -15.6909   23.2426 N   0  0  0  0  0  0  0  0  0  0  0  0
    9.3022  -16.5722   24.0629 C   0  0  0  0  0  0  0  0  0  0  0  0
    9.0315  -17.7736   24.0060 O   0  0  0  0  0  0  0  0  0  0  0  0
    9.2137  -16.4563   27.3165 C   0  0  0  0  0  0  0  0  0  0  0  0
   10.1748  -16.1615   28.2460 C   0  0  0  0  0  0  0  0  0  0  0  0
   10.6536  -16.1918   23.9979 N   0  0  0  0  0  0  0  0  0  0  0  0
   11.7878  -16.9903   23.8319 C   0  0  1  0  0  0  0  0  0  0  0  0
   12.7428  -16.7852   22.7175 C   0  0  0  0  0  0  0  0  0  0  0  0
   12.1013  -17.0614   21.3971 C   0  0  0  0  0  0  0  0  0  0  0  0
   11.0305  -17.9573   21.2038 C   0  0  0  0  0  0  0  0  0  0  0  0
   10.6767  -17.9878   19.9219 N   0  0  0  0  0  0  0  0  0  0  0  0
   11.4883  -17.1342   19.2674 C   0  0  0  0  0  0  0  0  0  0  0  0
   12.3185  -16.6024   20.1643 N   0  0  0  0  0  0  0  0  0  0  0  0
   12.4591  -17.2128   25.1152 C   0  0  0  0  0  0  0  0  0  0  0  0
   13.0302  -16.2269   25.6998 O   0  0  0  0  0  0  0  0  0  0  0  0
   12.5495  -18.4398   25.8055 N   0  0  0  0  0  0  0  0  0  0  0  0
   13.1696  -18.5603   27.1185 C   0  0  0  0  0  0  0  0  0  0  0  0
   14.5979  -18.9264   27.0034 C   0  0  0  0  0  0  0  0  0  0  0  0
   15.0951  -19.0713   25.8693 O   0  0  0  0  0  0  0  0  0  0  0  0
   15.3969  -19.1124   28.1152 O   0  0  0  0  0  0  0  0  0  0  0  0
  1  2  1  0
  2 12  2  0
  3  4  2  0
  3  2  1  0
  4  5  1  0
  5  6  1  0
  5 11  2  0
  6  7  1  0
  7  9  1  0
  7  8  1  6
  9 10  2  0
 12 11  1  0
 13 14  1  0
 13  9  1  0
 14 21  1  0
 14 15  1  6
 16 15  1  0
 17 16  2  0
 18 17  1  0
 19 18  1  0
 19 20  2  0
 20 16  1  0
 21 22  2  0
 21 23  1  0
 23 24  1  0
 24 25  1  0
 25 27  1  0
 26 25  2  0
M  END
$$$$
