YHG.pdb
     RDKit          3D

 27 28  0  0  1  0  0  0  0  0999 V2000
    7.3555  -12.8508   17.4632 O   0  0  0  0  0  0  0  0  0  0  0  0
    7.9404  -13.2896   18.6402 C   0  0  0  0  0  0  0  0  0  0  0  0
    7.2033  -13.7914   19.6934 C   0  0  0  0  0  0  0  0  0  0  0  0
    7.8592  -14.2132   20.8444 C   0  0  0  0  0  0  0  0  0  0  0  0
    9.2215  -14.1337   20.9370 C   0  0  0  0  0  0  0  0  0  0  0  0
    9.9268  -14.5789   22.1546 C   0  0  0  0  0  0  0  0  0  0  0  0
   10.4384  -16.0051   21.9147 C   0  0  2  0  0  0  0  0  0  0  0  0
    9.2822  -16.8435   21.7601 N   0  0  0  0  0  0  0  0  0  0  0  0
   11.2029  -16.3716   23.1476 C   0  0  0  0  0  0  0  0  0  0  0  0
   10.6620  -16.6942   24.2074 O   0  0  0  0  0  0  0  0  0  0  0  0
    9.9811  -13.6338   19.8932 C   0  0  0  0  0  0  0  0  0  0  0  0
    9.3109  -13.2254   18.7714 C   0  0  0  0  0  0  0  0  0  0  0  0
   12.6073  -16.3479   23.0986 N   0  0  0  0  0  0  0  0  0  0  0  0
   13.5164  -17.3769   23.3564 C   0  0  1  0  0  0  0  0  0  0  0  0
   13.2957  -18.7637   22.8830 C   0  0  0  0  0  0  0  0  0  0  0  0
   12.1718  -19.4150   23.6206 C   0  0  0  0  0  0  0  0  0  0  0  0
   11.4076  -18.7863   24.6243 C   0  0  0  0  0  0  0  0  0  0  0  0
   10.4812  -19.6185   25.0918 N   0  0  0  0  0  0  0  0  0  0  0  0
   10.6172  -20.7789   24.4204 C   0  0  0  0  0  0  0  0  0  0  0  0
   11.6230  -20.6285   23.5589 N   0  0  0  0  0  0  0  0  0  0  0  0
   14.8922  -16.9207   23.1418 C   0  0  0  0  0  0  0  0  0  0  0  0
   15.8304  -17.4053   23.8662 O   0  0  0  0  0  0  0  0  0  0  0  0
   15.3148  -15.9705   22.1885 N   0  0  0  0  0  0  0  0  0  0  0  0
   16.1845  -14.8511   22.5251 C   0  0  0  0  0  0  0  0  0  0  0  0
   17.5501  -15.3149   22.8525 C   0  0  0  0  0  0  0  0  0  0  0  0
   17.7751  -16.5399   22.9089 O   0  0  0  0  0  0  0  0  0  0  0  0
   18.5835  -14.4309   23.0975 O   0  0  0  0  0  0  0  0  0  0  0  0
  1  2  1  0
  2 12  2  0
  3  4  2  0
  3  2  1  0
  4  5  1  0
  5  6  1  0
  5 11  2  0
  6  7  1  0
  7  9  1  0
  7  8  1  1
  9 10  2  0
 12 11  1  0
 13 14  1  0
 13  9  1  0
 14 21  1  0
 14 15  1  6
 16 15  1  0
 17 16  2  0
 18 17  1  0
 19 18  1  0
 19 20  2  0
 20 16  1  0
 21 22  2  0
 21 23  1  0
 23 24  1  0
 24 25  1  0
 25 27  1  0
 26 25  2  0
M  END
$$$$
