YHG.pdb
     RDKit          3D

 27 28  0  0  1  0  0  0  0  0999 V2000
    9.1095  -12.5683   17.4921 O   0  0  0  0  0  0  0  0  0  0  0  0
    8.5794  -13.0822   18.6647 C   0  0  0  0  0  0  0  0  0  0  0  0
    7.2532  -12.9242   19.0116 C   0  0  0  0  0  0  0  0  0  0  0  0
    6.7916  -13.4678   20.2051 C   0  0  0  0  0  0  0  0  0  0  0  0
    7.6395  -14.1534   21.0307 C   0  0  0  0  0  0  0  0  0  0  0  0
    7.1590  -14.7341   22.2996 C   0  0  0  0  0  0  0  0  0  0  0  0
    8.3217  -15.4998   22.9440 C   0  0  2  0  0  0  0  0  0  0  0  0
    8.7989  -16.4366   21.9651 N   0  0  0  0  0  0  0  0  0  0  0  0
    7.7324  -16.2110   24.1212 C   0  0  0  0  0  0  0  0  0  0  0  0
    6.9563  -15.6754   24.9153 O   0  0  0  0  0  0  0  0  0  0  0  0
    8.9737  -14.3242   20.7030 C   0  0  0  0  0  0  0  0  0  0  0  0
    9.4027  -13.7792   19.5226 C   0  0  0  0  0  0  0  0  0  0  0  0
    8.0786  -17.5562   24.3352 N   0  0  0  0  0  0  0  0  0  0  0  0
    7.7106  -18.4061   25.3811 C   0  0  1  0  0  0  0  0  0  0  0  0
    7.1880  -19.7722   25.1430 C   0  0  0  0  0  0  0  0  0  0  0  0
    6.3476  -19.8228   23.9091 C   0  0  0  0  0  0  0  0  0  0  0  0
    5.5362  -18.7639   23.4542 C   0  0  0  0  0  0  0  0  0  0  0  0
    4.9116  -19.1073   22.3311 N   0  0  0  0  0  0  0  0  0  0  0  0
    5.2922  -20.3659   22.0362 C   0  0  0  0  0  0  0  0  0  0  0  0
    6.1399  -20.7616   22.9855 N   0  0  0  0  0  0  0  0  0  0  0  0
    8.7014  -18.3622   26.4596 C   0  0  0  0  0  0  0  0  0  0  0  0
    9.9416  -18.5040   26.1737 O   0  0  0  0  0  0  0  0  0  0  0  0
    8.4309  -18.1732   27.8313 N   0  0  0  0  0  0  0  0  0  0  0  0
    9.4832  -18.0545   28.8320 C   0  0  0  0  0  0  0  0  0  0  0  0
    9.8005  -19.3683   29.4323 C   0  0  0  0  0  0  0  0  0  0  0  0
    9.2566  -20.3909   28.9708 O   0  0  0  0  0  0  0  0  0  0  0  0
   10.6815  -19.4957   30.4891 O   0  0  0  0  0  0  0  0  0  0  0  0
  1  2  1  0
  2 12  2  0
  3  4  2  0
  3  2  1  0
  4  5  1  0
  5  6  1  0
  5 11  2  0
  6  7  1  0
  7  9  1  0
  7  8  1  6
  9 10  2  0
 12 11  1  0
 13 14  1  0
 13  9  1  0
 14 21  1  0
 14 15  1  6
 16 15  1  0
 17 16  2  0
 18 17  1  0
 19 18  1  0
 19 20  2  0
 20 16  1  0
 21 22  2  0
 21 23  1  0
 23 24  1  0
 24 25  1  0
 25 27  1  0
 26 25  2  0
M  END
$$$$
