YHG.pdb
     RDKit          3D

 27 28  0  0  1  0  0  0  0  0999 V2000
    6.6994  -10.7416   26.6834 O   0  0  0  0  0  0  0  0  0  0  0  0
    6.8436  -12.0982   26.4407 C   0  0  0  0  0  0  0  0  0  0  0  0
    8.0745  -12.6909   26.2463 C   0  0  0  0  0  0  0  0  0  0  0  0
    8.1420  -14.0588   26.0074 C   0  0  0  0  0  0  0  0  0  0  0  0
    7.0026  -14.8143   25.9645 C   0  0  0  0  0  0  0  0  0  0  0  0
    7.0640  -16.2670   25.7116 C   0  0  0  0  0  0  0  0  0  0  0  0
    6.7663  -16.5052   24.2257 C   0  0  2  0  0  0  0  0  0  0  0  0
    6.0503  -17.7474   24.1366 N   0  0  0  0  0  0  0  0  0  0  0  0
    8.1017  -16.6093   23.5589 C   0  0  0  0  0  0  0  0  0  0  0  0
    8.7418  -17.6605   23.4884 O   0  0  0  0  0  0  0  0  0  0  0  0
    5.7572  -14.2411   26.1567 C   0  0  0  0  0  0  0  0  0  0  0  0
    5.7184  -12.8926   26.3901 C   0  0  0  0  0  0  0  0  0  0  0  0
    8.6568  -15.4534   22.9834 N   0  0  0  0  0  0  0  0  0  0  0  0
    9.7955  -15.3256   22.1842 C   0  0  1  0  0  0  0  0  0  0  0  0
   10.0096  -14.1606   21.2938 C   0  0  0  0  0  0  0  0  0  0  0  0
    8.9220  -14.0502   20.2759 C   0  0  0  0  0  0  0  0  0  0  0  0
    8.0455  -15.0984   19.9299 C   0  0  0  0  0  0  0  0  0  0  0  0
    7.1868  -14.6965   18.9970 N   0  0  0  0  0  0  0  0  0  0  0  0
    7.4768  -13.4099   18.7208 C   0  0  0  0  0  0  0  0  0  0  0  0
    8.5054  -13.0562   19.4911 N   0  0  0  0  0  0  0  0  0  0  0  0
   11.0003  -15.6903   22.9342 C   0  0  0  0  0  0  0  0  0  0  0  0
   12.1283  -15.7161   22.3285 O   0  0  0  0  0  0  0  0  0  0  0  0
   11.0584  -16.0289   24.3025 N   0  0  0  0  0  0  0  0  0  0  0  0
   12.3041  -16.3698   24.9768 C   0  0  0  0  0  0  0  0  0  0  0  0
   12.5974  -17.8146   24.8594 C   0  0  0  0  0  0  0  0  0  0  0  0
   13.5218  -18.1846   24.1090 O   0  0  0  0  0  0  0  0  0  0  0  0
   11.8773  -18.7658   25.5565 O   0  0  0  0  0  0  0  0  0  0  0  0
  1  2  1  0
  2 12  2  0
  3  4  2  0
  3  2  1  0
  4  5  1  0
  5  6  1  0
  5 11  2  0
  6  7  1  0
  7  9  1  0
  7  8  1  1
  9 10  2  0
 12 11  1  0
 13 14  1  0
 13  9  1  0
 14 21  1  0
 14 15  1  1
 16 15  1  0
 17 16  2  0
 18 17  1  0
 19 18  1  0
 19 20  2  0
 20 16  1  0
 21 22  2  0
 21 23  1  0
 23 24  1  0
 24 25  1  0
 25 27  1  0
 26 25  2  0
M  END
$$$$
