SRH.pdb
     RDKit          3D

 28 28  0  0  1  0  0  0  0  0999 V2000
    6.1518  -19.1381   27.8504 O   0  0  0  0  0  0  0  0  0  0  0  0
    7.1449  -18.7312   26.9593 C   0  0  0  0  0  0  0  0  0  0  0  0
    6.6467  -19.0283   25.5609 C   0  0  2  0  0  0  0  0  0  0  0  0
    6.5854  -20.4507   25.3622 N   0  0  0  0  0  0  0  0  0  0  0  0
    7.4686  -18.3948   24.5255 C   0  0  0  0  0  0  0  0  0  0  0  0
    8.4775  -18.9765   24.0293 O   0  0  0  0  0  0  0  0  0  0  0  0
    7.8669  -13.8483   17.1566 N   0  0  0  0  0  0  0  0  0  0  0  0
    7.8520  -13.3770   18.4907 C   0  0  0  0  0  0  0  0  0  0  0  0
    8.5874  -12.3786   18.8375 N   0  0  0  0  0  0  0  0  0  0  0  0
    7.0289  -13.9799   19.5060 N   0  0  0  0  0  0  0  0  0  0  0  0
    7.0764  -13.4987   20.8912 C   0  0  0  0  0  0  0  0  0  0  0  0
    8.1200  -14.3289   21.6755 C   0  0  0  0  0  0  0  0  0  0  0  0
    7.3336  -15.2901   22.4781 C   0  0  0  0  0  0  0  0  0  0  0  0
    8.1134  -16.3005   23.2812 C   0  0  2  0  0  0  0  0  0  0  0  0
    7.1376  -17.1030   24.0597 N   0  0  0  0  0  0  0  0  0  0  0  0
    9.1551  -15.7661   24.1426 C   0  0  0  0  0  0  0  0  0  0  0  0
    8.7911  -15.0117   25.1122 O   0  0  0  0  0  0  0  0  0  0  0  0
    8.6779  -12.1055   19.8276 N   0  0  0  0  0  0  0  0  0  0  0  0
   10.5371  -15.9847   24.0395 C   0  0  1  0  0  0  0  0  0  0  0  0
   11.5020  -15.6867   25.0814 C   0  0  0  0  0  0  0  0  0  0  0  0
   11.1646  -16.3976   26.3727 C   0  0  0  0  0  0  0  0  0  0  0  0
   10.4138  -15.5469   27.3191 C   0  0  0  0  0  0  0  0  0  0  0  0
    9.9015  -14.2994   27.0607 N   0  0  0  0  0  0  0  0  0  0  0  0
    9.2794  -13.8298   28.1591 C   0  0  0  0  0  0  0  0  0  0  0  0
    9.3929  -14.7683   29.1111 N   0  0  0  0  0  0  0  0  0  0  0  0
   10.0854  -15.8122   28.5925 C   0  0  0  0  0  0  0  0  0  0  0  0
   12.8712  -16.0677   24.7186 O   0  0  0  0  0  0  0  0  0  0  0  0
   13.1083  -16.7516   23.5548 O   0  0  0  0  0  0  0  0  0  0  0  0
  2  1  1  0
  3  2  1  0
  3  4  1  6
  5  3  1  0
  5  6  2  0
  7  8  1  0
  8  9  2  0
 10  8  1  0
 10 11  1  0
 11 12  1  0
 12 13  1  0
 14 13  1  1
 14 15  1  0
 15  5  1  0
 16 14  1  0
 17 16  2  0
 18 16  1  0
 19 18  1  0
 19 20  1  1
 20 21  1  0
 21 22  2  0
 22 23  1  0
 24 23  1  0
 25 21  1  0
 25 24  2  0
 26 27  1  0
 26 19  1  0
 28 26  2  0
M  END
$$$$
