SRH.pdb
     RDKit          3D

 28 28  0  0  1  0  0  0  0  0999 V2000
    3.5650  -22.0235   24.6331 O   0  0  0  0  0  0  0  0  0  0  0  0
    4.2408  -20.8175   24.4474 C   0  0  0  0  0  0  0  0  0  0  0  0
    4.8238  -20.8365   23.0502 C   0  0  2  0  0  0  0  0  0  0  0  0
    5.2658  -22.1663   22.7295 N   0  0  0  0  0  0  0  0  0  0  0  0
    5.9157  -19.8727   22.8841 C   0  0  0  0  0  0  0  0  0  0  0  0
    7.1241  -20.1977   23.0751 O   0  0  0  0  0  0  0  0  0  0  0  0
    7.7934  -11.8046   20.8005 N   0  0  0  0  0  0  0  0  0  0  0  0
    8.2841  -12.5952   19.7345 C   0  0  0  0  0  0  0  0  0  0  0  0
    9.1452  -12.1126   18.9079 N   0  0  0  0  0  0  0  0  0  0  0  0
    7.8522  -13.9524   19.5267 N   0  0  0  0  0  0  0  0  0  0  0  0
    6.6625  -14.4720   20.2102 C   0  0  0  0  0  0  0  0  0  0  0  0
    7.1039  -15.2029   21.5004 C   0  0  0  0  0  0  0  0  0  0  0  0
    6.2167  -16.3811   21.6068 C   0  0  0  0  0  0  0  0  0  0  0  0
    6.6860  -17.5049   22.4960 C   0  0  2  0  0  0  0  0  0  0  0  0
    5.6267  -18.5443   22.5008 N   0  0  0  0  0  0  0  0  0  0  0  0
    7.0601  -17.1347   23.8509 C   0  0  0  0  0  0  0  0  0  0  0  0
    6.1163  -16.9806   24.7035 O   0  0  0  0  0  0  0  0  0  0  0  0
    9.5486  -12.6976   18.1608 N   0  0  0  0  0  0  0  0  0  0  0  0
    8.3558  -16.9254   24.3467 C   0  0  2  0  0  0  0  0  0  0  0  0
    8.7997  -17.2862   25.6802 C   0  0  0  0  0  0  0  0  0  0  0  0
    8.3498  -18.6793   26.0590 C   0  0  0  0  0  0  0  0  0  0  0  0
    8.8118  -19.0885   27.4015 C   0  0  0  0  0  0  0  0  0  0  0  0
    9.5372  -18.3221   28.2802 N   0  0  0  0  0  0  0  0  0  0  0  0
    9.7747  -19.0255   29.4040 C   0  0  0  0  0  0  0  0  0  0  0  0
    9.2064  -20.2306   29.2453 N   0  0  0  0  0  0  0  0  0  0  0  0
    8.6213  -20.2622   28.0226 C   0  0  0  0  0  0  0  0  0  0  0  0
   10.2584  -17.2435   25.8283 O   0  0  0  0  0  0  0  0  0  0  0  0
   10.8317  -17.4760   27.0512 O   0  0  0  0  0  0  0  0  0  0  0  0
  2  1  1  0
  3  2  1  0
  3  4  1  1
  5  3  1  0
  5  6  2  0
  7  8  1  0
  8  9  2  0
 10  8  1  0
 10 11  1  0
 11 12  1  0
 12 13  1  0
 14 13  1  6
 14 15  1  0
 15  5  1  0
 16 14  1  0
 17 16  2  0
 18 16  1  0
 19 18  1  0
 19 20  1  6
 20 21  1  0
 21 22  2  0
 22 23  1  0
 24 23  1  0
 25 21  1  0
 25 24  2  0
 26 27  1  0
 26 19  1  0
 28 26  2  0
M  END
$$$$
