SRH.pdb
     RDKit          3D

 28 28  0  0  1  0  0  0  0  0999 V2000
    9.0028  -22.8535   21.9281 O   0  0  0  0  0  0  0  0  0  0  0  0
    7.8182  -22.1878   21.6130 C   0  0  0  0  0  0  0  0  0  0  0  0
    8.0364  -21.4765   20.2945 C   0  0  2  0  0  0  0  0  0  0  0  0
    8.7700  -22.3305   19.4007 N   0  0  0  0  0  0  0  0  0  0  0  0
    8.7173  -20.1886   20.4571 C   0  0  0  0  0  0  0  0  0  0  0  0
    9.9516  -20.0534   20.2111 O   0  0  0  0  0  0  0  0  0  0  0  0
    8.5698  -13.4080   18.5592 N   0  0  0  0  0  0  0  0  0  0  0  0
    8.2674  -12.5899   19.6734 C   0  0  0  0  0  0  0  0  0  0  0  0
    8.8318  -11.4408   19.8106 N   0  0  0  0  0  0  0  0  0  0  0  0
    7.3311  -12.9954   20.6886 N   0  0  0  0  0  0  0  0  0  0  0  0
    6.9063  -14.3954   20.7985 C   0  0  0  0  0  0  0  0  0  0  0  0
    8.1591  -15.2892   20.9572 C   0  0  0  0  0  0  0  0  0  0  0  0
    7.6467  -16.6748   21.0215 C   0  0  0  0  0  0  0  0  0  0  0  0
    8.6723  -17.7708   21.1662 C   0  0  2  0  0  0  0  0  0  0  0  0
    7.9897  -19.0610   20.8981 N   0  0  0  0  0  0  0  0  0  0  0  0
    9.3896  -17.8125   22.4297 C   0  0  0  0  0  0  0  0  0  0  0  0
    8.9956  -18.6606   23.3055 O   0  0  0  0  0  0  0  0  0  0  0  0
    8.6238  -10.8416   20.6235 N   0  0  0  0  0  0  0  0  0  0  0  0
   10.4848  -17.0226   22.8106 C   0  0  2  0  0  0  0  0  0  0  0  0
   11.6422  -17.5086   23.5383 C   0  0  0  0  0  0  0  0  0  0  0  0
   12.3356  -18.6296   22.7970 C   0  0  0  0  0  0  0  0  0  0  0  0
   11.9837  -19.9673   23.3164 C   0  0  0  0  0  0  0  0  0  0  0  0
   11.1450  -20.2356   24.3701 N   0  0  0  0  0  0  0  0  0  0  0  0
   11.0622  -21.5672   24.5541 C   0  0  0  0  0  0  0  0  0  0  0  0
   11.8408  -22.1452   23.6267 N   0  0  0  0  0  0  0  0  0  0  0  0
   12.3995  -21.1642   22.8757 C   0  0  0  0  0  0  0  0  0  0  0  0
   12.6425  -16.4644   23.7846 O   0  0  0  0  0  0  0  0  0  0  0  0
   13.1706  -16.3013   25.0388 O   0  0  0  0  0  0  0  0  0  0  0  0
  2  1  1  0
  3  2  1  0
  3  4  1  6
  5  3  1  0
  5  6  2  0
  7  8  1  0
  8  9  2  0
 10  8  1  0
 10 11  1  0
 11 12  1  0
 12 13  1  0
 14 13  1  1
 14 15  1  0
 15  5  1  0
 16 14  1  0
 17 16  2  0
 18 16  1  0
 19 18  1  0
 19 20  1  6
 20 21  1  0
 21 22  2  0
 22 23  1  0
 24 23  1  0
 25 21  1  0
 25 24  2  0
 26 27  1  0
 26 19  1  0
 28 26  2  0
M  END
$$$$
