SRH.pdb
     RDKit          3D

 28 28  0  0  1  0  0  0  0  0999 V2000
    6.4008  -19.7610   23.8085 O   0  0  0  0  0  0  0  0  0  0  0  0
    5.2796  -19.1498   23.2471 C   0  0  0  0  0  0  0  0  0  0  0  0
    5.5413  -19.0008   21.7634 C   0  0  2  0  0  0  0  0  0  0  0  0
    5.7603  -20.2960   21.1793 N   0  0  0  0  0  0  0  0  0  0  0  0
    6.6671  -18.1063   21.4786 C   0  0  0  0  0  0  0  0  0  0  0  0
    7.8183  -18.5538   21.2017 O   0  0  0  0  0  0  0  0  0  0  0  0
    9.4688  -14.5414   16.5775 N   0  0  0  0  0  0  0  0  0  0  0  0
    8.2783  -13.8281   16.8533 C   0  0  0  0  0  0  0  0  0  0  0  0
    7.5418  -13.3923   15.8913 N   0  0  0  0  0  0  0  0  0  0  0  0
    7.8412  -13.5602   18.1982 N   0  0  0  0  0  0  0  0  0  0  0  0
    8.7174  -13.8437   19.3404 C   0  0  0  0  0  0  0  0  0  0  0  0
    8.0235  -13.3629   20.6369 C   0  0  0  0  0  0  0  0  0  0  0  0
    7.0514  -14.4237   20.9780 C   0  0  0  0  0  0  0  0  0  0  0  0
    7.6186  -15.7781   21.3212 C   0  0  2  0  0  0  0  0  0  0  0  0
    6.4766  -16.7070   21.5098 N   0  0  0  0  0  0  0  0  0  0  0  0
    8.5218  -15.8235   22.4591 C   0  0  0  0  0  0  0  0  0  0  0  0
    8.0244  -15.5975   23.6180 O   0  0  0  0  0  0  0  0  0  0  0  0
    6.6970  -12.8330   16.0819 N   0  0  0  0  0  0  0  0  0  0  0  0
    9.8984  -16.0938   22.4401 C   0  0  1  0  0  0  0  0  0  0  0  0
   10.7594  -16.0857   23.6079 C   0  0  0  0  0  0  0  0  0  0  0  0
   10.7246  -17.4114   24.3346 C   0  0  0  0  0  0  0  0  0  0  0  0
    9.5923  -17.5218   25.2772 C   0  0  0  0  0  0  0  0  0  0  0  0
    8.8442  -16.4831   25.7745 N   0  0  0  0  0  0  0  0  0  0  0  0
    7.8983  -16.9640   26.6040 C   0  0  0  0  0  0  0  0  0  0  0  0
    8.0401  -18.2977   26.6368 N   0  0  0  0  0  0  0  0  0  0  0  0
    9.0745  -18.6310   25.8260 C   0  0  0  0  0  0  0  0  0  0  0  0
   12.1615  -15.8034   23.2825 O   0  0  0  0  0  0  0  0  0  0  0  0
   12.5496  -15.6690   21.9749 O   0  0  0  0  0  0  0  0  0  0  0  0
  2  1  1  0
  3  2  1  0
  3  4  1  1
  5  3  1  0
  5  6  2  0
  7  8  1  0
  8  9  2  0
 10  8  1  0
 10 11  1  0
 11 12  1  0
 12 13  1  0
 14 13  1  1
 14 15  1  0
 15  5  1  0
 16 14  1  0
 17 16  2  0
 18 16  1  0
 19 18  1  0
 19 20  1  1
 20 21  1  0
 21 22  2  0
 22 23  1  0
 24 23  1  0
 25 21  1  0
 25 24  2  0
 26 27  1  0
 26 19  1  0
 28 26  2  0
M  END
$$$$
