SRH.pdb
     RDKit          3D

 28 28  0  0  1  0  0  0  0  0999 V2000
    6.8018  -19.5145   25.2232 O   0  0  0  0  0  0  0  0  0  0  0  0
    6.4368  -20.4378   24.2434 C   0  0  0  0  0  0  0  0  0  0  0  0
    6.0361  -19.6547   23.0112 C   0  0  2  0  0  0  0  0  0  0  0  0
    5.7008  -20.5637   21.9492 N   0  0  0  0  0  0  0  0  0  0  0  0
    7.0751  -18.7146   22.5806 C   0  0  0  0  0  0  0  0  0  0  0  0
    8.0461  -19.0826   21.8567 O   0  0  0  0  0  0  0  0  0  0  0  0
    7.9905  -13.0625   17.6536 N   0  0  0  0  0  0  0  0  0  0  0  0
    8.0848  -12.6378   19.0000 C   0  0  0  0  0  0  0  0  0  0  0  0
    8.6885  -11.5400   19.2965 N   0  0  0  0  0  0  0  0  0  0  0  0
    7.5204  -13.3989   20.0836 N   0  0  0  0  0  0  0  0  0  0  0  0
    6.8945  -14.7026   19.8360 C   0  0  0  0  0  0  0  0  0  0  0  0
    6.2522  -15.2086   21.1493 C   0  0  0  0  0  0  0  0  0  0  0  0
    7.3161  -15.1061   22.1711 C   0  0  0  0  0  0  0  0  0  0  0  0
    8.0302  -16.3830   22.5367 C   0  0  2  0  0  0  0  0  0  0  0  0
    7.0033  -17.3603   22.9757 N   0  0  0  0  0  0  0  0  0  0  0  0
    9.0913  -16.2624   23.5227 C   0  0  0  0  0  0  0  0  0  0  0  0
    9.1847  -15.1537   24.1580 O   0  0  0  0  0  0  0  0  0  0  0  0
    8.8594  -11.2774   20.2788 N   0  0  0  0  0  0  0  0  0  0  0  0
   10.0410  -17.2346   23.8711 C   0  0  1  0  0  0  0  0  0  0  0  0
   11.1891  -17.0006   24.7269 C   0  0  0  0  0  0  0  0  0  0  0  0
   11.2311  -17.9764   25.8815 C   0  0  0  0  0  0  0  0  0  0  0  0
   10.0554  -17.8683   26.7698 C   0  0  0  0  0  0  0  0  0  0  0  0
    9.0511  -16.9361   26.6794 N   0  0  0  0  0  0  0  0  0  0  0  0
    8.1488  -17.1477   27.6567 C   0  0  0  0  0  0  0  0  0  0  0  0
    8.5722  -18.2054   28.3654 N   0  0  0  0  0  0  0  0  0  0  0  0
    9.7349  -18.6396   27.8195 C   0  0  0  0  0  0  0  0  0  0  0  0
   12.4660  -17.1131   24.0140 O   0  0  0  0  0  0  0  0  0  0  0  0
   13.6439  -16.8753   24.6731 O   0  0  0  0  0  0  0  0  0  0  0  0
  2  1  1  0
  3  2  1  0
  3  4  1  6
  5  3  1  0
  5  6  2  0
  7  8  1  0
  8  9  2  0
 10  8  1  0
 10 11  1  0
 11 12  1  0
 12 13  1  0
 14 13  1  1
 14 15  1  0
 15  5  1  0
 16 14  1  0
 17 16  2  0
 18 16  1  0
 19 18  1  0
 19 20  1  1
 20 21  1  0
 21 22  2  0
 22 23  1  0
 24 23  1  0
 25 21  1  0
 25 24  2  0
 26 27  1  0
 26 19  1  0
 28 26  2  0
M  END
$$$$
