SRH.pdb
     RDKit          3D

 28 28  0  0  1  0  0  0  0  0999 V2000
   13.6620  -14.8003   20.8826 O   0  0  0  0  0  0  0  0  0  0  0  0
   13.0557  -15.6674   19.9735 C   0  0  0  0  0  0  0  0  0  0  0  0
   11.7750  -15.0090   19.5061 C   0  0  2  0  0  0  0  0  0  0  0  0
   12.0691  -13.7093   18.9668 N   0  0  0  0  0  0  0  0  0  0  0  0
   10.7715  -14.9140   20.5704 C   0  0  0  0  0  0  0  0  0  0  0  0
   10.3396  -13.7965   20.9791 O   0  0  0  0  0  0  0  0  0  0  0  0
    8.2750  -21.1411   22.3896 N   0  0  0  0  0  0  0  0  0  0  0  0
    8.7529  -21.2877   21.0659 C   0  0  0  0  0  0  0  0  0  0  0  0
    9.3884  -22.3515   20.7164 N   0  0  0  0  0  0  0  0  0  0  0  0
    8.5550  -20.2731   20.0643 N   0  0  0  0  0  0  0  0  0  0  0  0
    8.0871  -18.9337   20.4382 C   0  0  0  0  0  0  0  0  0  0  0  0
    8.8482  -18.4711   21.7032 C   0  0  0  0  0  0  0  0  0  0  0  0
    8.2796  -17.1485   22.0413 C   0  0  0  0  0  0  0  0  0  0  0  0
    9.2607  -16.0234   22.2548 C   0  0  2  0  0  0  0  0  0  0  0  0
   10.2642  -16.0913   21.1636 N   0  0  0  0  0  0  0  0  0  0  0  0
    9.9068  -15.9768   23.5560 C   0  0  0  0  0  0  0  0  0  0  0  0
   10.8991  -16.7632   23.7517 O   0  0  0  0  0  0  0  0  0  0  0  0
    9.7554  -22.4594   19.7589 N   0  0  0  0  0  0  0  0  0  0  0  0
    9.5696  -15.1554   24.6423 C   0  0  2  0  0  0  0  0  0  0  0  0
    9.3953  -15.6178   26.0065 C   0  0  0  0  0  0  0  0  0  0  0  0
    7.9328  -15.7645   26.3621 C   0  0  0  0  0  0  0  0  0  0  0  0
    7.1845  -14.4949   26.2569 C   0  0  0  0  0  0  0  0  0  0  0  0
    7.6964  -13.2785   25.8773 N   0  0  0  0  0  0  0  0  0  0  0  0
    6.7198  -12.3513   25.8965 C   0  0  0  0  0  0  0  0  0  0  0  0
    5.5938  -12.9689   26.2849 N   0  0  0  0  0  0  0  0  0  0  0  0
    5.8842  -14.2752   26.5030 C   0  0  0  0  0  0  0  0  0  0  0  0
   10.0372  -16.9125   26.2578 O   0  0  0  0  0  0  0  0  0  0  0  0
   10.4191  -17.2546   27.5288 O   0  0  0  0  0  0  0  0  0  0  0  0
  2  1  1  0
  3  2  1  0
  3  4  1  1
  5  3  1  0
  5  6  2  0
  7  8  1  0
  8  9  2  0
 10  8  1  0
 10 11  1  0
 11 12  1  0
 12 13  1  0
 14 13  1  1
 14 15  1  0
 15  5  1  0
 16 14  1  0
 17 16  2  0
 18 16  1  0
 19 18  1  0
 19 20  1  6
 20 21  1  0
 21 22  2  0
 22 23  1  0
 24 23  1  0
 25 21  1  0
 25 24  2  0
 26 27  1  0
 26 19  1  0
 28 26  2  0
M  END
$$$$
