SRH.pdb
     RDKit          3D

 28 28  0  0  1  0  0  0  0  0999 V2000
    9.3558  -14.1255   15.0299 O   0  0  0  0  0  0  0  0  0  0  0  0
    9.5928  -14.5103   16.3496 C   0  0  0  0  0  0  0  0  0  0  0  0
    8.3069  -14.2984   17.1201 C   0  0  2  0  0  0  0  0  0  0  0  0
    8.0088  -12.8936   17.1851 N   0  0  0  0  0  0  0  0  0  0  0  0
    8.3550  -14.8812   18.4643 C   0  0  0  0  0  0  0  0  0  0  0  0
    8.7224  -14.2051   19.4693 O   0  0  0  0  0  0  0  0  0  0  0  0
    5.8426  -19.5046   16.3141 N   0  0  0  0  0  0  0  0  0  0  0  0
    6.7174  -20.4106   16.9591 C   0  0  0  0  0  0  0  0  0  0  0  0
    7.5568  -21.1059   16.2739 N   0  0  0  0  0  0  0  0  0  0  0  0
    6.7111  -20.5952   18.3866 N   0  0  0  0  0  0  0  0  0  0  0  0
    5.8137  -19.8074   19.2391 C   0  0  0  0  0  0  0  0  0  0  0  0
    6.2376  -18.3209   19.1755 C   0  0  0  0  0  0  0  0  0  0  0  0
    7.5249  -18.2488   19.8994 C   0  0  0  0  0  0  0  0  0  0  0  0
    8.1895  -16.8969   19.9676 C   0  0  2  0  0  0  0  0  0  0  0  0
    7.9842  -16.2304   18.6577 N   0  0  0  0  0  0  0  0  0  0  0  0
    9.5943  -16.8931   20.3407 C   0  0  0  0  0  0  0  0  0  0  0  0
   10.4572  -16.9427   19.3949 O   0  0  0  0  0  0  0  0  0  0  0  0
    8.2040  -21.7620   16.7362 N   0  0  0  0  0  0  0  0  0  0  0  0
   10.1284  -16.8369   21.6368 C   0  0  1  0  0  0  0  0  0  0  0  0
   11.5067  -16.5095   21.9504 C   0  0  0  0  0  0  0  0  0  0  0  0
   11.8616  -15.1087   21.5047 C   0  0  0  0  0  0  0  0  0  0  0  0
   12.5586  -15.0780   20.2023 C   0  0  0  0  0  0  0  0  0  0  0  0
   12.8200  -16.1573   19.3945 N   0  0  0  0  0  0  0  0  0  0  0  0
   13.4700  -15.7470   18.2885 C   0  0  0  0  0  0  0  0  0  0  0  0
   13.6227  -14.4178   18.3881 N   0  0  0  0  0  0  0  0  0  0  0  0
   13.0650  -14.0166   19.5570 C   0  0  0  0  0  0  0  0  0  0  0  0
   11.8039  -16.5997   23.3839 O   0  0  0  0  0  0  0  0  0  0  0  0
   13.0997  -16.5195   23.8231 O   0  0  0  0  0  0  0  0  0  0  0  0
  2  1  1  0
  3  2  1  0
  3  4  1  1
  5  3  1  0
  5  6  2  0
  7  8  1  0
  8  9  2  0
 10  8  1  0
 10 11  1  0
 11 12  1  0
 12 13  1  0
 14 13  1  6
 14 15  1  0
 15  5  1  0
 16 14  1  0
 17 16  2  0
 18 16  1  0
 19 18  1  0
 19 20  1  1
 20 21  1  0
 21 22  2  0
 22 23  1  0
 24 23  1  0
 25 21  1  0
 25 24  2  0
 26 27  1  0
 26 19  1  0
 28 26  2  0
M  END
$$$$
