SRH.pdb
     RDKit          3D

 28 28  0  0  1  0  0  0  0  0999 V2000
   16.1432  -17.6813   17.2408 O   0  0  0  0  0  0  0  0  0  0  0  0
   15.0449  -17.7786   16.3864 C   0  0  0  0  0  0  0  0  0  0  0  0
   14.6148  -16.3688   16.0407 C   0  0  2  0  0  0  0  0  0  0  0  0
   15.6105  -15.7507   15.2081 N   0  0  0  0  0  0  0  0  0  0  0  0
   14.3547  -15.5532   17.2306 C   0  0  0  0  0  0  0  0  0  0  0  0
   15.1909  -14.6990   17.6469 O   0  0  0  0  0  0  0  0  0  0  0  0
    6.5761  -12.7229   18.5232 N   0  0  0  0  0  0  0  0  0  0  0  0
    7.2091  -12.9405   17.2766 C   0  0  0  0  0  0  0  0  0  0  0  0
    6.6073  -12.6404   16.1787 N   0  0  0  0  0  0  0  0  0  0  0  0
    8.5325  -13.4979   17.1777 N   0  0  0  0  0  0  0  0  0  0  0  0
    9.3047  -13.8114   18.3852 C   0  0  0  0  0  0  0  0  0  0  0  0
   10.6743  -14.3970   17.9672 C   0  0  0  0  0  0  0  0  0  0  0  0
   11.3691  -14.7123   19.2339 C   0  0  0  0  0  0  0  0  0  0  0  0
   12.8617  -14.9121   19.1568 C   0  0  2  0  0  0  0  0  0  0  0  0
   13.1439  -15.7136   17.9401 N   0  0  0  0  0  0  0  0  0  0  0  0
   13.4892  -15.5022   20.3277 C   0  0  0  0  0  0  0  0  0  0  0  0
   13.5472  -16.7807   20.3860 O   0  0  0  0  0  0  0  0  0  0  0  0
    7.0566  -12.8055   15.2655 N   0  0  0  0  0  0  0  0  0  0  0  0
   14.0527  -14.8261   21.4203 C   0  0  1  0  0  0  0  0  0  0  0  0
   14.0973  -15.3388   22.7770 C   0  0  0  0  0  0  0  0  0  0  0  0
   13.0509  -16.4068   23.0034 C   0  0  0  0  0  0  0  0  0  0  0  0
   13.1792  -17.0690   24.3179 C   0  0  0  0  0  0  0  0  0  0  0  0
   14.1068  -16.7781   25.2878 N   0  0  0  0  0  0  0  0  0  0  0  0
   13.9182  -17.5844   26.3500 C   0  0  0  0  0  0  0  0  0  0  0  0
   12.8796  -18.3836   26.0620 N   0  0  0  0  0  0  0  0  0  0  0  0
   12.4340  -18.0641   24.8220 C   0  0  0  0  0  0  0  0  0  0  0  0
   15.3976  -15.9212   23.1256 O   0  0  0  0  0  0  0  0  0  0  0  0
   16.4482  -15.8293   22.2503 O   0  0  0  0  0  0  0  0  0  0  0  0
  2  1  1  0
  3  2  1  0
  3  4  1  1
  5  3  1  0
  5  6  2  0
  7  8  1  0
  8  9  2  0
 10  8  1  0
 10 11  1  0
 11 12  1  0
 12 13  1  0
 14 13  1  1
 14 15  1  0
 15  5  1  0
 16 14  1  0
 17 16  2  0
 18 16  1  0
 19 18  1  0
 19 20  1  1
 20 21  1  0
 21 22  2  0
 22 23  1  0
 24 23  1  0
 25 21  1  0
 25 24  2  0
 26 27  1  0
 26 19  1  0
 28 26  2  0
M  END
$$$$
