SRH.pdb
     RDKit          3D

 28 28  0  0  1  0  0  0  0  0999 V2000
    5.9001  -20.8905   21.1495 O   0  0  0  0  0  0  0  0  0  0  0  0
    6.8767  -19.9976   21.5908 C   0  0  0  0  0  0  0  0  0  0  0  0
    7.4387  -19.3023   20.3690 C   0  0  2  0  0  0  0  0  0  0  0  0
    8.0537  -20.2706   19.5025 N   0  0  0  0  0  0  0  0  0  0  0  0
    8.3869  -18.2390   20.7143 C   0  0  0  0  0  0  0  0  0  0  0  0
    9.6287  -18.4627   20.8153 O   0  0  0  0  0  0  0  0  0  0  0  0
   10.1547  -13.9368   17.6328 N   0  0  0  0  0  0  0  0  0  0  0  0
    8.9166  -14.0207   16.9528 C   0  0  0  0  0  0  0  0  0  0  0  0
    8.8693  -14.4303   15.7331 N   0  0  0  0  0  0  0  0  0  0  0  0
    7.6730  -13.6586   17.5806 N   0  0  0  0  0  0  0  0  0  0  0  0
    7.6458  -13.1828   18.9682 C   0  0  0  0  0  0  0  0  0  0  0  0
    7.4222  -14.3906   19.9087 C   0  0  0  0  0  0  0  0  0  0  0  0
    8.7584  -14.7183   20.4508 C   0  0  0  0  0  0  0  0  0  0  0  0
    8.8310  -15.8636   21.4290 C   0  0  2  0  0  0  0  0  0  0  0  0
    7.9169  -16.9266   20.9423 N   0  0  0  0  0  0  0  0  0  0  0  0
    8.5577  -15.5361   22.8185 C   0  0  0  0  0  0  0  0  0  0  0  0
    7.3894  -15.8049   23.2704 O   0  0  0  0  0  0  0  0  0  0  0  0
    7.9675  -14.5424   15.2461 N   0  0  0  0  0  0  0  0  0  0  0  0
    9.4382  -14.9532   23.7423 C   0  0  1  0  0  0  0  0  0  0  0  0
    9.0561  -14.4615   25.0529 C   0  0  0  0  0  0  0  0  0  0  0  0
    7.5999  -14.0556   25.0926 C   0  0  0  0  0  0  0  0  0  0  0  0
    7.2183  -13.4039   26.3624 C   0  0  0  0  0  0  0  0  0  0  0  0
    8.0457  -13.1565   27.4301 N   0  0  0  0  0  0  0  0  0  0  0  0
    7.3500  -12.5473   28.4094 C   0  0  0  0  0  0  0  0  0  0  0  0
    6.0895  -12.4064   27.9720 N   0  0  0  0  0  0  0  0  0  0  0  0
    6.0161  -12.9307   26.7237 C   0  0  0  0  0  0  0  0  0  0  0  0
    9.2626  -15.4498   26.1169 O   0  0  0  0  0  0  0  0  0  0  0  0
    9.1391  -15.0803   27.4309 O   0  0  0  0  0  0  0  0  0  0  0  0
  2  1  1  0
  3  2  1  0
  3  4  1  6
  5  3  1  0
  5  6  2  0
  7  8  1  0
  8  9  2  0
 10  8  1  0
 10 11  1  0
 11 12  1  0
 12 13  1  0
 14 13  1  6
 14 15  1  0
 15  5  1  0
 16 14  1  0
 17 16  2  0
 18 16  1  0
 19 18  1  0
 19 20  1  6
 20 21  1  0
 21 22  2  0
 22 23  1  0
 24 23  1  0
 25 21  1  0
 25 24  2  0
 26 27  1  0
 26 19  1  0
 28 26  2  0
M  END
$$$$
