PKG.pdb
     RDKit          3D

 21 21  0  0  1  0  0  0  0  0999 V2000
    7.5386  -15.6145   19.7634 N   0  0  0  0  0  0  0  0  0  0  0  0
    6.9258  -15.4162   18.4837 C   0  0  0  0  0  0  0  0  0  0  0  0
    7.4866  -14.1478   17.8936 C   0  0  0  0  0  0  0  0  0  0  0  0
    8.0361  -13.4567   19.1480 C   0  0  0  0  0  0  0  0  0  0  0  0
    8.5904  -14.6256   19.8999 C   0  0  1  0  0  0  0  0  0  0  0  0
    8.8777  -14.3188   21.3186 C   0  0  0  0  0  0  0  0  0  0  0  0
    9.7863  -13.4835   21.5524 O   0  0  0  0  0  0  0  0  0  0  0  0
    8.1965  -14.9050   22.4039 N   0  0  0  0  0  0  0  0  0  0  0  0
    8.4869  -14.4592   23.7502 C   0  0  1  0  0  0  0  0  0  0  0  0
    7.1642  -14.3224   24.4534 C   0  0  0  0  0  0  0  0  0  0  0  0
    7.2320  -13.7850   25.8367 C   0  0  0  0  0  0  0  0  0  0  0  0
    6.2674  -12.6880   26.1489 C   0  0  0  0  0  0  0  0  0  0  0  0
    6.3295  -12.1096   27.5149 C   0  0  0  0  0  0  0  0  0  0  0  0
    5.3899  -11.0624   27.8037 N   0  0  0  0  0  0  0  0  0  0  0  0
    9.4251  -15.3767   24.4383 C   0  0  0  0  0  0  0  0  0  0  0  0
    9.8320  -15.1286   25.5972 O   0  0  0  0  0  0  0  0  0  0  0  0
    9.9135  -16.5774   23.8330 N   0  0  0  0  0  0  0  0  0  0  0  0
   10.8599  -17.4077   24.5218 C   0  0  0  0  0  0  0  0  0  0  0  0
   10.2299  -18.3649   25.4446 C   0  0  0  0  0  0  0  0  0  0  0  0
   10.8941  -19.3089   25.9043 O   0  0  0  0  0  0  0  0  0  0  0  0
    8.9007  -18.2195   25.8035 O   0  0  0  0  0  0  0  0  0  0  0  0
  2  1  1  0
  3  2  1  0
  4  5  1  0
  4  3  1  0
  5  1  1  0
  6  8  1  0
  5  6  1  1
  7  6  2  0
  9  8  1  0
  9 10  1  1
 10 11  1  0
 11 12  1  0
 12 13  1  0
 13 14  1  0
 15  9  1  0
 16 15  2  0
 17 15  1  0
 18 19  1  0
 18 17  1  0
 19 21  1  0
 20 19  2  0
M  END
$$$$
