PKG.pdb
     RDKit          3D

 21 21  0  0  1  0  0  0  0  0999 V2000
    7.3836  -15.2575   20.6145 N   0  0  0  0  0  0  0  0  0  0  0  0
    6.4449  -14.6106   19.7467 C   0  0  0  0  0  0  0  0  0  0  0  0
    7.0968  -13.3634   19.2072 C   0  0  0  0  0  0  0  0  0  0  0  0
    8.2199  -13.1514   20.2302 C   0  0  0  0  0  0  0  0  0  0  0  0
    8.6494  -14.5627   20.4812 C   0  0  1  0  0  0  0  0  0  0  0  0
    9.4876  -14.7069   21.6920 C   0  0  0  0  0  0  0  0  0  0  0  0
   10.6371  -14.2015   21.6577 O   0  0  0  0  0  0  0  0  0  0  0  0
    9.0708  -15.3708   22.8629 N   0  0  0  0  0  0  0  0  0  0  0  0
    9.9924  -15.5041   23.9712 C   0  0  1  0  0  0  0  0  0  0  0  0
    9.2582  -15.0416   25.2000 C   0  0  0  0  0  0  0  0  0  0  0  0
   10.0530  -15.0462   26.4550 C   0  0  0  0  0  0  0  0  0  0  0  0
    9.3350  -14.5643   27.6731 C   0  0  0  0  0  0  0  0  0  0  0  0
   10.0874  -14.6001   28.9526 C   0  0  0  0  0  0  0  0  0  0  0  0
    9.4384  -14.0044   30.0870 N   0  0  0  0  0  0  0  0  0  0  0  0
   10.5133  -16.8865   24.0844 C   0  0  0  0  0  0  0  0  0  0  0  0
    9.7319  -17.8640   24.1498 O   0  0  0  0  0  0  0  0  0  0  0  0
   11.9123  -17.1831   24.1251 N   0  0  0  0  0  0  0  0  0  0  0  0
   12.3684  -18.5437   24.1399 C   0  0  0  0  0  0  0  0  0  0  0  0
   12.7549  -19.0127   25.4797 C   0  0  0  0  0  0  0  0  0  0  0  0
   11.9545  -18.9118   26.4246 O   0  0  0  0  0  0  0  0  0  0  0  0
   14.0059  -19.5659   25.6935 O   0  0  0  0  0  0  0  0  0  0  0  0
  2  1  1  0
  3  2  1  0
  4  5  1  0
  4  3  1  0
  5  1  1  0
  6  8  1  0
  5  6  1  1
  7  6  2  0
  9  8  1  0
  9 10  1  1
 10 11  1  0
 11 12  1  0
 12 13  1  0
 13 14  1  0
 15  9  1  0
 16 15  2  0
 17 15  1  0
 18 19  1  0
 18 17  1  0
 19 21  1  0
 20 19  2  0
M  END
$$$$
