PKG.pdb
     RDKit          3D

 21 21  0  0  1  0  0  0  0  0999 V2000
    7.4818  -15.2286   19.2567 N   0  0  0  0  0  0  0  0  0  0  0  0
    6.9452  -14.8260   17.9907 C   0  0  0  0  0  0  0  0  0  0  0  0
    7.6312  -13.5476   17.5828 C   0  0  0  0  0  0  0  0  0  0  0  0
    8.1766  -13.0620   18.9317 C   0  0  0  0  0  0  0  0  0  0  0  0
    8.6016  -14.3558   19.5518 C   0  0  1  0  0  0  0  0  0  0  0  0
    8.8480  -14.2480   21.0067 C   0  0  0  0  0  0  0  0  0  0  0  0
    9.8936  -13.6537   21.3692 O   0  0  0  0  0  0  0  0  0  0  0  0
    7.9850  -14.7687   21.9916 N   0  0  0  0  0  0  0  0  0  0  0  0
    8.2889  -14.5515   23.3901 C   0  0  1  0  0  0  0  0  0  0  0  0
    7.1259  -13.7947   23.9711 C   0  0  0  0  0  0  0  0  0  0  0  0
    7.2968  -13.3478   25.3775 C   0  0  0  0  0  0  0  0  0  0  0  0
    6.1518  -12.5798   25.9523 C   0  0  0  0  0  0  0  0  0  0  0  0
    6.2994  -12.1030   27.3507 C   0  0  0  0  0  0  0  0  0  0  0  0
    5.1500  -11.4630   27.9272 N   0  0  0  0  0  0  0  0  0  0  0  0
    8.5691  -15.8261   24.0919 C   0  0  0  0  0  0  0  0  0  0  0  0
    7.6934  -16.7184   24.1768 O   0  0  0  0  0  0  0  0  0  0  0  0
    9.8313  -16.1093   24.7028 N   0  0  0  0  0  0  0  0  0  0  0  0
   10.0846  -17.3941   25.2898 C   0  0  0  0  0  0  0  0  0  0  0  0
   11.4546  -17.5370   25.8069 C   0  0  0  0  0  0  0  0  0  0  0  0
   11.6389  -17.7644   27.0143 O   0  0  0  0  0  0  0  0  0  0  0  0
   12.5396  -17.4195   24.9551 O   0  0  0  0  0  0  0  0  0  0  0  0
  2  1  1  0
  3  2  1  0
  4  5  1  0
  4  3  1  0
  5  1  1  0
  6  8  1  0
  5  6  1  1
  7  6  2  0
  9  8  1  0
  9 10  1  1
 10 11  1  0
 11 12  1  0
 12 13  1  0
 13 14  1  0
 15  9  1  0
 16 15  2  0
 17 15  1  0
 18 19  1  0
 18 17  1  0
 19 21  1  0
 20 19  2  0
M  END
$$$$
