PKG.pdb
     RDKit          3D

 21 21  0  0  1  0  0  0  0  0999 V2000
    7.8197  -14.6959   19.2478 N   0  0  0  0  0  0  0  0  0  0  0  0
    8.1940  -13.5326   18.5000 C   0  0  0  0  0  0  0  0  0  0  0  0
    8.4535  -12.4167   19.4792 C   0  0  0  0  0  0  0  0  0  0  0  0
    7.7108  -12.9328   20.7182 C   0  0  0  0  0  0  0  0  0  0  0  0
    8.0232  -14.3946   20.6516 C   0  0  1  0  0  0  0  0  0  0  0  0
    7.1522  -15.2138   21.5231 C   0  0  0  0  0  0  0  0  0  0  0  0
    5.9417  -14.8861   21.5956 O   0  0  0  0  0  0  0  0  0  0  0  0
    7.6020  -16.3246   22.2643 N   0  0  0  0  0  0  0  0  0  0  0  0
    6.6805  -17.0138   23.1427 C   0  0  1  0  0  0  0  0  0  0  0  0
    6.4944  -18.3940   22.5743 C   0  0  0  0  0  0  0  0  0  0  0  0
    5.1311  -18.9650   22.7245 C   0  0  0  0  0  0  0  0  0  0  0  0
    4.2004  -18.7174   21.5827 C   0  0  0  0  0  0  0  0  0  0  0  0
    2.8265  -19.2666   21.7069 C   0  0  0  0  0  0  0  0  0  0  0  0
    1.8777  -18.8309   20.7205 N   0  0  0  0  0  0  0  0  0  0  0  0
    7.1611  -17.0162   24.5442 C   0  0  0  0  0  0  0  0  0  0  0  0
    6.4732  -17.5276   25.4582 O   0  0  0  0  0  0  0  0  0  0  0  0
    8.4149  -16.4460   24.9310 N   0  0  0  0  0  0  0  0  0  0  0  0
    8.7934  -16.3886   26.3141 C   0  0  0  0  0  0  0  0  0  0  0  0
    9.7128  -17.4666   26.7104 C   0  0  0  0  0  0  0  0  0  0  0  0
   10.0492  -18.3282   25.8809 O   0  0  0  0  0  0  0  0  0  0  0  0
   10.2053  -17.5262   28.0029 O   0  0  0  0  0  0  0  0  0  0  0  0
  2  1  1  0
  3  2  1  0
  4  5  1  0
  4  3  1  0
  5  1  1  0
  6  8  1  0
  5  6  1  1
  7  6  2  0
  9  8  1  0
  9 10  1  6
 10 11  1  0
 11 12  1  0
 12 13  1  0
 13 14  1  0
 15  9  1  0
 16 15  2  0
 17 15  1  0
 18 19  1  0
 18 17  1  0
 19 21  1  0
 20 19  2  0
M  END
$$$$
