PKG.pdb
     RDKit          3D

 21 21  0  0  1  0  0  0  0  0999 V2000
    7.4717  -15.3361   19.5433 N   0  0  0  0  0  0  0  0  0  0  0  0
    6.8653  -14.9812   18.2948 C   0  0  0  0  0  0  0  0  0  0  0  0
    7.5341  -13.7263   17.7956 C   0  0  0  0  0  0  0  0  0  0  0  0
    8.1594  -13.1904   19.0897 C   0  0  0  0  0  0  0  0  0  0  0  0
    8.6119  -14.4613   19.7372 C   0  0  1  0  0  0  0  0  0  0  0  0
    8.9425  -14.2960   21.1699 C   0  0  0  0  0  0  0  0  0  0  0  0
    9.9847  -13.6522   21.4478 O   0  0  0  0  0  0  0  0  0  0  0  0
    8.1621  -14.8147   22.2224 N   0  0  0  0  0  0  0  0  0  0  0  0
    8.4624  -14.4319   23.5858 C   0  0  1  0  0  0  0  0  0  0  0  0
    7.2083  -13.8196   24.1474 C   0  0  0  0  0  0  0  0  0  0  0  0
    7.3322  -13.2614   25.5185 C   0  0  0  0  0  0  0  0  0  0  0  0
    6.1535  -12.4836   26.0055 C   0  0  0  0  0  0  0  0  0  0  0  0
    6.2236  -11.9590   27.3927 C   0  0  0  0  0  0  0  0  0  0  0  0
    5.0409  -11.3101   27.8859 N   0  0  0  0  0  0  0  0  0  0  0  0
    8.9601  -15.5808   24.3780 C   0  0  0  0  0  0  0  0  0  0  0  0
    8.2919  -16.6371   24.4671 O   0  0  0  0  0  0  0  0  0  0  0  0
   10.2090  -15.5541   25.0754 N   0  0  0  0  0  0  0  0  0  0  0  0
   10.5939  -16.6466   25.9225 C   0  0  0  0  0  0  0  0  0  0  0  0
   11.0731  -17.8202   25.1758 C   0  0  0  0  0  0  0  0  0  0  0  0
   12.2336  -17.8390   24.7323 O   0  0  0  0  0  0  0  0  0  0  0  0
   10.2379  -18.9040   24.9645 O   0  0  0  0  0  0  0  0  0  0  0  0
  2  1  1  0
  3  2  1  0
  4  5  1  0
  4  3  1  0
  5  1  1  0
  6  8  1  0
  5  6  1  1
  7  6  2  0
  9  8  1  0
  9 10  1  1
 10 11  1  0
 11 12  1  0
 12 13  1  0
 13 14  1  0
 15  9  1  0
 16 15  2  0
 17 15  1  0
 18 19  1  0
 18 17  1  0
 19 21  1  0
 20 19  2  0
M  END
$$$$
