PKG.pdb
     RDKit          3D

 21 21  0  0  1  0  0  0  0  0999 V2000
    7.6609  -15.2677   19.2217 N   0  0  0  0  0  0  0  0  0  0  0  0
    7.1026  -14.9268   17.9471 C   0  0  0  0  0  0  0  0  0  0  0  0
    7.7140  -13.6209   17.5085 C   0  0  0  0  0  0  0  0  0  0  0  0
    8.2298  -13.0730   18.8451 C   0  0  0  0  0  0  0  0  0  0  0  0
    8.7284  -14.3252   19.4952 C   0  0  1  0  0  0  0  0  0  0  0  0
    8.9674  -14.1690   20.9470 C   0  0  0  0  0  0  0  0  0  0  0  0
    9.9982  -13.5408   21.2946 O   0  0  0  0  0  0  0  0  0  0  0  0
    8.1131  -14.6799   21.9444 N   0  0  0  0  0  0  0  0  0  0  0  0
    8.4633  -14.5059   23.3381 C   0  0  1  0  0  0  0  0  0  0  0  0
    7.3134  -13.7826   23.9842 C   0  0  0  0  0  0  0  0  0  0  0  0
    7.5629  -13.2981   25.3663 C   0  0  0  0  0  0  0  0  0  0  0  0
    6.4344  -12.5523   26.0002 C   0  0  0  0  0  0  0  0  0  0  0  0
    6.6655  -12.0232   27.3681 C   0  0  0  0  0  0  0  0  0  0  0  0
    5.5488  -11.3705   27.9927 N   0  0  0  0  0  0  0  0  0  0  0  0
    8.7814  -15.7997   23.9864 C   0  0  0  0  0  0  0  0  0  0  0  0
    7.8763  -16.6247   24.2517 O   0  0  0  0  0  0  0  0  0  0  0  0
   10.1147  -16.1777   24.3415 N   0  0  0  0  0  0  0  0  0  0  0  0
   10.3619  -17.4067   25.0401 C   0  0  0  0  0  0  0  0  0  0  0  0
   11.7929  -17.6839   25.2401 C   0  0  0  0  0  0  0  0  0  0  0  0
   12.6429  -16.8856   24.8115 O   0  0  0  0  0  0  0  0  0  0  0  0
   12.1974  -18.8297   25.9035 O   0  0  0  0  0  0  0  0  0  0  0  0
  2  1  1  0
  3  2  1  0
  4  5  1  0
  4  3  1  0
  5  1  1  0
  6  8  1  0
  5  6  1  1
  7  6  2  0
  9  8  1  0
  9 10  1  1
 10 11  1  0
 11 12  1  0
 12 13  1  0
 13 14  1  0
 15  9  1  0
 16 15  2  0
 17 15  1  0
 18 19  1  0
 18 17  1  0
 19 21  1  0
 20 19  2  0
M  END
$$$$
