PKG.pdb
     RDKit          3D

 21 21  0  0  1  0  0  0  0  0999 V2000
    7.5335  -15.1612   19.2493 N   0  0  0  0  0  0  0  0  0  0  0  0
    7.0114  -14.7553   17.9784 C   0  0  0  0  0  0  0  0  0  0  0  0
    7.7320  -13.4989   17.5619 C   0  0  0  0  0  0  0  0  0  0  0  0
    8.2861  -13.0165   18.9084 C   0  0  0  0  0  0  0  0  0  0  0  0
    8.6751  -14.3158   19.5406 C   0  0  1  0  0  0  0  0  0  0  0  0
    8.9200  -14.2022   20.9953 C   0  0  0  0  0  0  0  0  0  0  0  0
   10.0455  -13.7768   21.3563 O   0  0  0  0  0  0  0  0  0  0  0  0
    7.9722  -14.5409   21.9816 N   0  0  0  0  0  0  0  0  0  0  0  0
    8.3237  -14.4114   23.3798 C   0  0  1  0  0  0  0  0  0  0  0  0
    7.2699  -13.5424   24.0102 C   0  0  0  0  0  0  0  0  0  0  0  0
    7.4786  -13.2314   25.4478 C   0  0  0  0  0  0  0  0  0  0  0  0
    6.4061  -12.4151   26.0918 C   0  0  0  0  0  0  0  0  0  0  0  0
    6.5530  -12.1413   27.5437 C   0  0  0  0  0  0  0  0  0  0  0  0
    5.4485  -11.4784   28.1791 N   0  0  0  0  0  0  0  0  0  0  0  0
    8.4610  -15.7344   24.0327 C   0  0  0  0  0  0  0  0  0  0  0  0
    7.4807  -16.5093   24.1259 O   0  0  0  0  0  0  0  0  0  0  0  0
    9.6966  -16.1978   24.5851 N   0  0  0  0  0  0  0  0  0  0  0  0
    9.7477  -17.4243   25.3285 C   0  0  0  0  0  0  0  0  0  0  0  0
   11.0882  -17.7315   25.8515 C   0  0  0  0  0  0  0  0  0  0  0  0
   12.0408  -16.9774   25.5918 O   0  0  0  0  0  0  0  0  0  0  0  0
   11.2938  -18.8566   26.6316 O   0  0  0  0  0  0  0  0  0  0  0  0
  2  1  1  0
  3  2  1  0
  4  5  1  0
  4  3  1  0
  5  1  1  0
  6  8  1  0
  5  6  1  1
  7  6  2  0
  9  8  1  0
  9 10  1  1
 10 11  1  0
 11 12  1  0
 12 13  1  0
 13 14  1  0
 15  9  1  0
 16 15  2  0
 17 15  1  0
 18 19  1  0
 18 17  1  0
 19 21  1  0
 20 19  2  0
M  END
$$$$
