PKG.pdb
     RDKit          3D

 21 21  0  0  1  0  0  0  0  0999 V2000
    7.8798  -15.0617   19.1483 N   0  0  0  0  0  0  0  0  0  0  0  0
    7.0512  -14.4634   18.1443 C   0  0  0  0  0  0  0  0  0  0  0  0
    7.1528  -12.9670   18.2917 C   0  0  0  0  0  0  0  0  0  0  0  0
    7.6769  -12.8470   19.7283 C   0  0  0  0  0  0  0  0  0  0  0  0
    8.6330  -13.9967   19.7818 C   0  0  1  0  0  0  0  0  0  0  0  0
    9.0364  -14.3515   21.1604 C   0  0  0  0  0  0  0  0  0  0  0  0
    9.7196  -13.5086   21.7934 O   0  0  0  0  0  0  0  0  0  0  0  0
    8.6998  -15.5661   21.7908 N   0  0  0  0  0  0  0  0  0  0  0  0
    9.2511  -15.8670   23.0950 C   0  0  1  0  0  0  0  0  0  0  0  0
    8.1428  -16.4922   23.8973 C   0  0  0  0  0  0  0  0  0  0  0  0
    8.5360  -17.0002   25.2368 C   0  0  0  0  0  0  0  0  0  0  0  0
    7.5474  -17.9040   25.8979 C   0  0  0  0  0  0  0  0  0  0  0  0
    7.9440  -18.4910   27.2027 C   0  0  0  0  0  0  0  0  0  0  0  0
    7.0497  -19.4692   27.7562 N   0  0  0  0  0  0  0  0  0  0  0  0
   10.4567  -16.7224   22.9936 C   0  0  0  0  0  0  0  0  0  0  0  0
   10.3867  -17.8762   22.5095 O   0  0  0  0  0  0  0  0  0  0  0  0
   11.7479  -16.2914   23.4334 N   0  0  0  0  0  0  0  0  0  0  0  0
   12.7974  -17.2445   23.6563 C   0  0  0  0  0  0  0  0  0  0  0  0
   14.0999  -16.6202   23.9363 C   0  0  0  0  0  0  0  0  0  0  0  0
   15.0925  -17.3338   24.1576 O   0  0  0  0  0  0  0  0  0  0  0  0
   14.2254  -15.2415   23.9545 O   0  0  0  0  0  0  0  0  0  0  0  0
  2  1  1  0
  3  2  1  0
  4  5  1  0
  4  3  1  0
  5  1  1  0
  6  8  1  0
  5  6  1  1
  7  6  2  0
  9  8  1  0
  9 10  1  1
 10 11  1  0
 11 12  1  0
 12 13  1  0
 13 14  1  0
 15  9  1  0
 16 15  2  0
 17 15  1  0
 18 19  1  0
 18 17  1  0
 19 21  1  0
 20 19  2  0
M  END
$$$$
