PKG.pdb
     RDKit          3D

 21 21  0  0  1  0  0  0  0  0999 V2000
    8.1228  -15.1873   19.5978 N   0  0  0  0  0  0  0  0  0  0  0  0
    7.6078  -14.7355   18.3396 C   0  0  0  0  0  0  0  0  0  0  0  0
    7.3161  -13.2619   18.4613 C   0  0  0  0  0  0  0  0  0  0  0  0
    7.2394  -13.1011   19.9848 C   0  0  0  0  0  0  0  0  0  0  0  0
    8.3382  -14.0162   20.4254 C   0  0  1  0  0  0  0  0  0  0  0  0
    8.2781  -14.3418   21.8676 C   0  0  0  0  0  0  0  0  0  0  0  0
    8.4715  -13.4007   22.6769 O   0  0  0  0  0  0  0  0  0  0  0  0
    8.0195  -15.6315   22.3729 N   0  0  0  0  0  0  0  0  0  0  0  0
    7.9444  -15.8325   23.8045 C   0  0  1  0  0  0  0  0  0  0  0  0
    7.0268  -17.0034   24.0275 C   0  0  0  0  0  0  0  0  0  0  0  0
    6.8921  -17.4458   25.4393 C   0  0  0  0  0  0  0  0  0  0  0  0
    7.1659  -18.8929   25.6890 C   0  0  0  0  0  0  0  0  0  0  0  0
    6.9564  -19.3853   27.0740 C   0  0  0  0  0  0  0  0  0  0  0  0
    7.3329  -20.7482   27.3265 N   0  0  0  0  0  0  0  0  0  0  0  0
    9.2882  -16.0181   24.4006 C   0  0  0  0  0  0  0  0  0  0  0  0
    9.4353  -16.0892   25.6430 O   0  0  0  0  0  0  0  0  0  0  0  0
   10.4752  -16.1253   23.6094 N   0  0  0  0  0  0  0  0  0  0  0  0
   11.7467  -16.3607   24.2318 C   0  0  0  0  0  0  0  0  0  0  0  0
   12.8605  -16.4247   23.2725 C   0  0  0  0  0  0  0  0  0  0  0  0
   12.7739  -17.1575   22.2730 O   0  0  0  0  0  0  0  0  0  0  0  0
   14.0046  -15.6726   23.4777 O   0  0  0  0  0  0  0  0  0  0  0  0
  2  1  1  0
  3  2  1  0
  4  5  1  0
  4  3  1  0
  5  1  1  0
  6  8  1  0
  5  6  1  1
  7  6  2  0
  9  8  1  0
  9 10  1  6
 10 11  1  0
 11 12  1  0
 12 13  1  0
 13 14  1  0
 15  9  1  0
 16 15  2  0
 17 15  1  0
 18 19  1  0
 18 17  1  0
 19 21  1  0
 20 19  2  0
M  END
$$$$
