PKG.pdb
     RDKit          3D

 21 21  0  0  1  0  0  0  0  0999 V2000
    7.4191  -15.1381   19.2489 N   0  0  0  0  0  0  0  0  0  0  0  0
    6.8657  -14.7131   17.9977 C   0  0  0  0  0  0  0  0  0  0  0  0
    7.5358  -13.4198   17.6107 C   0  0  0  0  0  0  0  0  0  0  0  0
    8.0909  -12.9586   18.9642 C   0  0  0  0  0  0  0  0  0  0  0  0
    8.5340  -14.2617   19.5515 C   0  0  1  0  0  0  0  0  0  0  0  0
    8.7946  -14.1832   21.0058 C   0  0  0  0  0  0  0  0  0  0  0  0
    9.8368  -13.5843   21.3707 O   0  0  0  0  0  0  0  0  0  0  0  0
    7.9486  -14.7363   21.9877 N   0  0  0  0  0  0  0  0  0  0  0  0
    8.2874  -14.5828   23.3867 C   0  0  1  0  0  0  0  0  0  0  0  0
    7.1670  -13.8022   24.0180 C   0  0  0  0  0  0  0  0  0  0  0  0
    7.3344  -13.5062   25.4641 C   0  0  0  0  0  0  0  0  0  0  0  0
    6.3292  -12.5691   26.0496 C   0  0  0  0  0  0  0  0  0  0  0  0
    6.4160  -12.3207   27.5109 C   0  0  0  0  0  0  0  0  0  0  0  0
    5.4885  -11.3646   28.0480 N   0  0  0  0  0  0  0  0  0  0  0  0
    8.5291  -15.8923   24.0364 C   0  0  0  0  0  0  0  0  0  0  0  0
    7.6282  -16.7620   24.0834 O   0  0  0  0  0  0  0  0  0  0  0  0
    9.7809  -16.2360   24.6377 N   0  0  0  0  0  0  0  0  0  0  0  0
    9.9928  -17.5475   25.1801 C   0  0  0  0  0  0  0  0  0  0  0  0
   11.2701  -17.6802   25.8981 C   0  0  0  0  0  0  0  0  0  0  0  0
   11.3014  -18.2437   27.0050 O   0  0  0  0  0  0  0  0  0  0  0  0
   12.4377  -17.1804   25.3470 O   0  0  0  0  0  0  0  0  0  0  0  0
  2  1  1  0
  3  2  1  0
  4  5  1  0
  4  3  1  0
  5  1  1  0
  6  8  1  0
  5  6  1  1
  7  6  2  0
  9  8  1  0
  9 10  1  1
 10 11  1  0
 11 12  1  0
 12 13  1  0
 13 14  1  0
 15  9  1  0
 16 15  2  0
 17 15  1  0
 18 19  1  0
 18 17  1  0
 19 21  1  0
 20 19  2  0
M  END
$$$$
