PKG.pdb
     RDKit          3D

 21 21  0  0  1  0  0  0  0  0999 V2000
    7.5912  -15.3783   19.6995 N   0  0  0  0  0  0  0  0  0  0  0  0
    7.0358  -15.1027   18.4079 C   0  0  0  0  0  0  0  0  0  0  0  0
    7.6843  -13.8473   17.8836 C   0  0  0  0  0  0  0  0  0  0  0  0
    8.2248  -13.2309   19.1800 C   0  0  0  0  0  0  0  0  0  0  0  0
    8.6887  -14.4536   19.9073 C   0  0  1  0  0  0  0  0  0  0  0  0
    8.9413  -14.2120   21.3450 C   0  0  0  0  0  0  0  0  0  0  0  0
    9.9650  -13.5483   21.6442 O   0  0  0  0  0  0  0  0  0  0  0  0
    8.1072  -14.6799   22.3799 N   0  0  0  0  0  0  0  0  0  0  0  0
    8.4168  -14.3384   23.7521 C   0  0  1  0  0  0  0  0  0  0  0  0
    7.2301  -13.5840   24.2865 C   0  0  0  0  0  0  0  0  0  0  0  0
    7.3716  -13.0778   25.6760 C   0  0  0  0  0  0  0  0  0  0  0  0
    6.1992  -12.3196   26.2071 C   0  0  0  0  0  0  0  0  0  0  0  0
    6.2964  -11.8281   27.6047 C   0  0  0  0  0  0  0  0  0  0  0  0
    5.1336  -11.1657   28.1264 N   0  0  0  0  0  0  0  0  0  0  0  0
    8.7562  -15.5399   24.5501 C   0  0  0  0  0  0  0  0  0  0  0  0
    8.0134  -16.5491   24.5391 O   0  0  0  0  0  0  0  0  0  0  0  0
    9.9292  -15.6188   25.3651 N   0  0  0  0  0  0  0  0  0  0  0  0
   10.1044  -16.7050   26.2866 C   0  0  0  0  0  0  0  0  0  0  0  0
   11.0923  -17.6971   25.8345 C   0  0  0  0  0  0  0  0  0  0  0  0
   11.6063  -17.5888   24.7086 O   0  0  0  0  0  0  0  0  0  0  0  0
   11.4522  -18.7510   26.6570 O   0  0  0  0  0  0  0  0  0  0  0  0
  2  1  1  0
  3  2  1  0
  4  5  1  0
  4  3  1  0
  5  1  1  0
  6  8  1  0
  5  6  1  1
  7  6  2  0
  9  8  1  0
  9 10  1  1
 10 11  1  0
 11 12  1  0
 12 13  1  0
 13 14  1  0
 15  9  1  0
 16 15  2  0
 17 15  1  0
 18 19  1  0
 18 17  1  0
 19 21  1  0
 20 19  2  0
M  END
$$$$
