PKG.pdb
     RDKit          3D

 21 21  0  0  1  0  0  0  0  0999 V2000
    8.1552  -14.9876   19.8042 N   0  0  0  0  0  0  0  0  0  0  0  0
    7.7277  -14.4306   18.5553 C   0  0  0  0  0  0  0  0  0  0  0  0
    7.3285  -12.9981   18.7999 C   0  0  0  0  0  0  0  0  0  0  0  0
    7.1029  -13.0096   20.3171 C   0  0  0  0  0  0  0  0  0  0  0  0
    8.2158  -13.9038   20.7657 C   0  0  1  0  0  0  0  0  0  0  0  0
    8.0466  -14.3880   22.1535 C   0  0  0  0  0  0  0  0  0  0  0  0
    7.9303  -13.5200   23.0541 O   0  0  0  0  0  0  0  0  0  0  0  0
    8.0098  -15.7502   22.5126 N   0  0  0  0  0  0  0  0  0  0  0  0
    7.8316  -16.1147   23.9021 C   0  0  1  0  0  0  0  0  0  0  0  0
    6.9536  -17.3361   23.9178 C   0  0  0  0  0  0  0  0  0  0  0  0
    6.0874  -17.5119   22.7237 C   0  0  0  0  0  0  0  0  0  0  0  0
    5.3498  -18.8087   22.6492 C   0  0  0  0  0  0  0  0  0  0  0  0
    4.4168  -18.9843   21.5076 C   0  0  0  0  0  0  0  0  0  0  0  0
    3.8173  -20.2825   21.3723 N   0  0  0  0  0  0  0  0  0  0  0  0
    9.1313  -16.3176   24.5840 C   0  0  0  0  0  0  0  0  0  0  0  0
    9.1789  -16.6178   25.7996 O   0  0  0  0  0  0  0  0  0  0  0  0
   10.3857  -16.1856   23.9089 N   0  0  0  0  0  0  0  0  0  0  0  0
   11.6179  -16.4000   24.6127 C   0  0  0  0  0  0  0  0  0  0  0  0
   12.8052  -16.3004   23.7496 C   0  0  0  0  0  0  0  0  0  0  0  0
   12.6703  -16.0604   22.5381 O   0  0  0  0  0  0  0  0  0  0  0  0
   14.0722  -16.4727   24.2802 O   0  0  0  0  0  0  0  0  0  0  0  0
  2  1  1  0
  3  2  1  0
  4  5  1  0
  4  3  1  0
  5  1  1  0
  6  8  1  0
  5  6  1  1
  7  6  2  0
  9  8  1  0
  9 10  1  6
 10 11  1  0
 11 12  1  0
 12 13  1  0
 13 14  1  0
 15  9  1  0
 16 15  2  0
 17 15  1  0
 18 19  1  0
 18 17  1  0
 19 21  1  0
 20 19  2  0
M  END
$$$$
