PKG.pdb
     RDKit          3D

 21 21  0  0  1  0  0  0  0  0999 V2000
    8.9369  -14.6777   19.7793 N   0  0  0  0  0  0  0  0  0  0  0  0
    8.9322  -13.7591   18.6800 C   0  0  0  0  0  0  0  0  0  0  0  0
    8.1002  -12.5668   19.0768 C   0  0  0  0  0  0  0  0  0  0  0  0
    7.2797  -13.1514   20.2334 C   0  0  0  0  0  0  0  0  0  0  0  0
    8.3020  -14.0154   20.9023 C   0  0  1  0  0  0  0  0  0  0  0  0
    7.7106  -14.9844   21.8512 C   0  0  0  0  0  0  0  0  0  0  0  0
    7.2259  -14.5235   22.9146 O   0  0  0  0  0  0  0  0  0  0  0  0
    7.6633  -16.3750   21.6285 N   0  0  0  0  0  0  0  0  0  0  0  0
    7.0372  -17.2320   22.6130 C   0  0  1  0  0  0  0  0  0  0  0  0
    6.1878  -18.2130   21.8522 C   0  0  0  0  0  0  0  0  0  0  0  0
    4.7892  -18.3505   22.3338 C   0  0  0  0  0  0  0  0  0  0  0  0
    3.8304  -18.9561   21.3615 C   0  0  0  0  0  0  0  0  0  0  0  0
    2.4212  -19.0949   21.8080 C   0  0  0  0  0  0  0  0  0  0  0  0
    1.4839  -19.5476   20.8182 N   0  0  0  0  0  0  0  0  0  0  0  0
    8.0410  -17.8806   23.4889 C   0  0  0  0  0  0  0  0  0  0  0  0
    7.7329  -18.8667   24.1981 O   0  0  0  0  0  0  0  0  0  0  0  0
    9.3956  -17.4291   23.5763 N   0  0  0  0  0  0  0  0  0  0  0  0
   10.3400  -18.1156   24.4106 C   0  0  0  0  0  0  0  0  0  0  0  0
   10.2384  -17.7446   25.8307 C   0  0  0  0  0  0  0  0  0  0  0  0
    9.3507  -16.9587   26.2022 O   0  0  0  0  0  0  0  0  0  0  0  0
   11.1267  -18.2665   26.7555 O   0  0  0  0  0  0  0  0  0  0  0  0
  2  1  1  0
  3  2  1  0
  4  5  1  0
  4  3  1  0
  5  1  1  0
  6  8  1  0
  5  6  1  1
  7  6  2  0
  9  8  1  0
  9 10  1  6
 10 11  1  0
 11 12  1  0
 12 13  1  0
 13 14  1  0
 15  9  1  0
 16 15  2  0
 17 15  1  0
 18 19  1  0
 18 17  1  0
 19 21  1  0
 20 19  2  0
M  END
$$$$
