YPP.pdb
     RDKit          3D

 27 29  0  0  1  0  0  0  0  0999 V2000
   20.4694  -20.0611  -15.1071 O   0  0  0  0  0  0  0  0  0  0  0  0
   21.4383  -20.2611  -14.1199 C   0  0  0  0  0  0  0  0  0  0  0  0
   22.4536  -19.3623  -13.8980 C   0  0  0  0  0  0  0  0  0  0  0  0
   23.4046  -19.5864  -12.9085 C   0  0  0  0  0  0  0  0  0  0  0  0
   23.3719  -20.7116  -12.1118 C   0  0  0  0  0  0  0  0  0  0  0  0
   24.3668  -20.9596  -11.0679 C   0  0  0  0  0  0  0  0  0  0  0  0
   25.7981  -20.8876  -11.5317 C   0  0  2  0  0  0  0  0  0  0  0  0
   26.1505  -21.8802  -12.4818 N   0  0  0  0  0  0  0  0  0  0  0  0
   26.7677  -20.8167  -10.4485 C   0  0  0  0  0  0  0  0  0  0  0  0
   27.5133  -21.8390  -10.2904 O   0  0  0  0  0  0  0  0  0  0  0  0
   22.3498  -21.6096  -12.3402 C   0  0  0  0  0  0  0  0  0  0  0  0
   21.3935  -21.3896  -13.3312 C   0  0  0  0  0  0  0  0  0  0  0  0
   26.9506  -19.7298   -9.5722 N   0  0  0  0  0  0  0  0  0  0  0  0
   26.0731  -18.5488   -9.5505 C   0  0  0  0  0  0  0  0  0  0  0  0
   27.0659  -17.4249   -9.4514 C   0  0  0  0  0  0  0  0  0  0  0  0
   27.9997  -17.9536   -8.3797 C   0  0  0  0  0  0  0  0  0  0  0  0
   27.9226  -19.4601   -8.5367 C   0  0  1  0  0  0  0  0  0  0  0  0
   27.5587  -20.1116   -7.2533 C   0  0  0  0  0  0  0  0  0  0  0  0
   26.3991  -20.6056   -7.1825 O   0  0  0  0  0  0  0  0  0  0  0  0
   28.4072  -20.2069   -6.1456 N   0  0  0  0  0  0  0  0  0  0  0  0
   29.7063  -19.5498   -6.0400 C   0  0  0  0  0  0  0  0  0  0  0  0
   30.5634  -20.4598   -5.2031 C   0  0  0  0  0  0  0  0  0  0  0  0
   29.6526  -21.5329   -4.6785 C   0  0  0  0  0  0  0  0  0  0  0  0
   28.2757  -20.9127   -4.8841 C   0  0  1  0  0  0  0  0  0  0  0  0
   27.9373  -20.0320   -3.7691 C   0  0  0  0  0  0  0  0  0  0  0  0
   27.6434  -20.4785   -2.6346 O   0  0  0  0  0  0  0  0  0  0  0  0
   27.9363  -18.6620   -3.9535 O   0  0  0  0  0  0  0  0  0  0  0  0
  2  1  1  0
  3  2  2  0
  4  3  1  0
  5 11  1  0
  5  4  2  0
  6  5  1  0
  7  6  1  0
  7  8  1  1
  9 13  1  0
  9  7  1  0
 10  9  2  0
 11 12  2  0
 12  2  1  0
 13 17  1  0
 14 13  1  0
 14 15  1  0
 15 16  1  0
 17 16  1  0
 18 20  1  0
 17 18  1  1
 19 18  2  0
 20 21  1  0
 22 21  1  0
 23 22  1  0
 24 23  1  0
 24 20  1  0
 24 25  1  1
 26 25  2  0
 27 25  1  0
M  END
$$$$
