YPP.pdb
     RDKit          3D

 27 29  0  0  1  0  0  0  0  0999 V2000
   24.8694  -11.9271  -17.9113 O   0  0  0  0  0  0  0  0  0  0  0  0
   24.6727  -13.1054  -17.1859 C   0  0  0  0  0  0  0  0  0  0  0  0
   23.5343  -13.8637  -17.3162 C   0  0  0  0  0  0  0  0  0  0  0  0
   23.3647  -15.0323  -16.5818 C   0  0  0  0  0  0  0  0  0  0  0  0
   24.3234  -15.4792  -15.6969 C   0  0  0  0  0  0  0  0  0  0  0  0
   24.1568  -16.7066  -14.9178 C   0  0  0  0  0  0  0  0  0  0  0  0
   24.5772  -17.9661  -15.6289 C   0  0  2  0  0  0  0  0  0  0  0  0
   23.7142  -18.3504  -16.6870 N   0  0  0  0  0  0  0  0  0  0  0  0
   24.8596  -19.0819  -14.7379 C   0  0  0  0  0  0  0  0  0  0  0  0
   23.8769  -19.8458  -14.4609 O   0  0  0  0  0  0  0  0  0  0  0  0
   25.4637  -14.7129  -15.5713 C   0  0  0  0  0  0  0  0  0  0  0  0
   25.6388  -13.5401  -16.3054 C   0  0  0  0  0  0  0  0  0  0  0  0
   26.1088  -19.3859  -14.1636 N   0  0  0  0  0  0  0  0  0  0  0  0
   27.3566  -18.6936  -14.5227 C   0  0  0  0  0  0  0  0  0  0  0  0
   28.3247  -19.8371  -14.6394 C   0  0  0  0  0  0  0  0  0  0  0  0
   27.9868  -20.6343  -13.3942 C   0  0  0  0  0  0  0  0  0  0  0  0
   26.5176  -20.3411  -13.1585 C   0  0  1  0  0  0  0  0  0  0  0  0
   26.2905  -19.8286  -11.7838 C   0  0  0  0  0  0  0  0  0  0  0  0
   26.3652  -18.5778  -11.6304 O   0  0  0  0  0  0  0  0  0  0  0  0
   26.0052  -20.6336  -10.6762 N   0  0  0  0  0  0  0  0  0  0  0  0
   25.8946  -22.0885  -10.7178 C   0  0  0  0  0  0  0  0  0  0  0  0
   24.8736  -22.4556   -9.6757 C   0  0  0  0  0  0  0  0  0  0  0  0
   24.5720  -21.1945   -8.9175 C   0  0  0  0  0  0  0  0  0  0  0  0
   25.7581  -20.3100   -9.2830 C   0  0  1  0  0  0  0  0  0  0  0  0
   26.8995  -20.5981   -8.4182 C   0  0  0  0  0  0  0  0  0  0  0  0
   26.9730  -20.1589   -7.2459 O   0  0  0  0  0  0  0  0  0  0  0  0
   27.9387  -21.3771   -8.8915 O   0  0  0  0  0  0  0  0  0  0  0  0
  2  1  1  0
  3  2  2  0
  4  3  1  0
  5 11  1  0
  5  4  2  0
  6  5  1  0
  7  6  1  0
  7  8  1  6
  9 13  1  0
  9  7  1  0
 10  9  2  0
 11 12  2  0
 12  2  1  0
 13 17  1  0
 14 13  1  0
 14 15  1  0
 15 16  1  0
 17 16  1  0
 18 20  1  0
 17 18  1  1
 19 18  2  0
 20 21  1  0
 22 21  1  0
 23 22  1  0
 24 23  1  0
 24 20  1  0
 24 25  1  1
 26 25  2  0
 27 25  1  0
M  END
$$$$
