YPP.pdb
     RDKit          3D

 27 29  0  0  1  0  0  0  0  0999 V2000
   24.1009  -17.6948  -16.6570 O   0  0  0  0  0  0  0  0  0  0  0  0
   24.3741  -18.2140  -15.3886 C   0  0  0  0  0  0  0  0  0  0  0  0
   25.6204  -18.1305  -14.8163 C   0  0  0  0  0  0  0  0  0  0  0  0
   25.8644  -18.6560  -13.5521 C   0  0  0  0  0  0  0  0  0  0  0  0
   24.8747  -19.2795  -12.8217 C   0  0  0  0  0  0  0  0  0  0  0  0
   25.1185  -19.8372  -11.4911 C   0  0  0  0  0  0  0  0  0  0  0  0
   25.7753  -21.1927  -11.4866 C   0  0  2  0  0  0  0  0  0  0  0  0
   24.9562  -22.2356  -11.9901 N   0  0  0  0  0  0  0  0  0  0  0  0
   26.3768  -21.5540  -10.2114 C   0  0  0  0  0  0  0  0  0  0  0  0
   25.6261  -22.1752   -9.3889 O   0  0  0  0  0  0  0  0  0  0  0  0
   23.6258  -19.3598  -13.4025 C   0  0  0  0  0  0  0  0  0  0  0  0
   23.3758  -18.8344  -14.6700 C   0  0  0  0  0  0  0  0  0  0  0  0
   27.6996  -21.2802   -9.8140 N   0  0  0  0  0  0  0  0  0  0  0  0
   28.7216  -20.7316  -10.7194 C   0  0  0  0  0  0  0  0  0  0  0  0
   29.9205  -21.5724  -10.3817 C   0  0  0  0  0  0  0  0  0  0  0  0
   29.8675  -21.5615   -8.8661 C   0  0  0  0  0  0  0  0  0  0  0  0
   28.3908  -21.4179   -8.5517 C   0  0  1  0  0  0  0  0  0  0  0  0
   28.1466  -20.2577   -7.6581 C   0  0  0  0  0  0  0  0  0  0  0  0
   27.5908  -19.2522   -8.1812 O   0  0  0  0  0  0  0  0  0  0  0  0
   28.4890  -20.2171   -6.3027 N   0  0  0  0  0  0  0  0  0  0  0  0
   29.2038  -21.2768   -5.5981 C   0  0  0  0  0  0  0  0  0  0  0  0
   28.6897  -21.2535   -4.1845 C   0  0  0  0  0  0  0  0  0  0  0  0
   27.8270  -20.0293   -4.0693 C   0  0  0  0  0  0  0  0  0  0  0  0
   28.2670  -19.2127   -5.2785 C   0  0  1  0  0  0  0  0  0  0  0  0
   29.4663  -18.4392   -4.9672 C   0  0  0  0  0  0  0  0  0  0  0  0
   30.5862  -18.7240   -5.4544 O   0  0  0  0  0  0  0  0  0  0  0  0
   29.3811  -17.3572   -4.1111 O   0  0  0  0  0  0  0  0  0  0  0  0
  2  1  1  0
  3  2  2  0
  4  3  1  0
  5 11  1  0
  5  4  2  0
  6  5  1  0
  7  6  1  0
  7  8  1  1
  9 13  1  0
  9  7  1  0
 10  9  2  0
 11 12  2  0
 12  2  1  0
 13 17  1  0
 14 13  1  0
 14 15  1  0
 15 16  1  0
 17 16  1  0
 18 20  1  0
 17 18  1  1
 19 18  2  0
 20 21  1  0
 22 21  1  0
 23 22  1  0
 24 23  1  0
 24 20  1  0
 24 25  1  1
 26 25  2  0
 27 25  1  0
M  END
$$$$
