YPP.pdb
     RDKit          3D

 27 29  0  0  1  0  0  0  0  0999 V2000
   26.5925  -17.6507  -17.0846 O   0  0  0  0  0  0  0  0  0  0  0  0
   26.5501  -18.1146  -15.7669 C   0  0  0  0  0  0  0  0  0  0  0  0
   27.6726  -18.1789  -14.9771 C   0  0  0  0  0  0  0  0  0  0  0  0
   27.6016  -18.6448  -13.6688 C   0  0  0  0  0  0  0  0  0  0  0  0
   26.4113  -19.0599  -13.1096 C   0  0  0  0  0  0  0  0  0  0  0  0
   26.3233  -19.5528  -11.7347 C   0  0  0  0  0  0  0  0  0  0  0  0
   26.6104  -21.0226  -11.5727 C   0  0  2  0  0  0  0  0  0  0  0  0
   25.5981  -21.8716  -12.0888 N   0  0  0  0  0  0  0  0  0  0  0  0
   26.9907  -21.4052  -10.2208 C   0  0  0  0  0  0  0  0  0  0  0  0
   26.0701  -21.9096   -9.4968 O   0  0  0  0  0  0  0  0  0  0  0  0
   25.2885  -18.9925  -13.9083 C   0  0  0  0  0  0  0  0  0  0  0  0
   25.3542  -18.5261  -15.2210 C   0  0  0  0  0  0  0  0  0  0  0  0
   28.2714  -21.2682   -9.6519 N   0  0  0  0  0  0  0  0  0  0  0  0
   29.4373  -20.7597  -10.3917 C   0  0  0  0  0  0  0  0  0  0  0  0
   30.5158  -21.7175   -9.9697 C   0  0  0  0  0  0  0  0  0  0  0  0
   30.2766  -21.7862   -8.4737 C   0  0  0  0  0  0  0  0  0  0  0  0
   28.7881  -21.5344   -8.3283 C   0  0  1  0  0  0  0  0  0  0  0  0
   28.5267  -20.4090   -7.3959 C   0  0  0  0  0  0  0  0  0  0  0  0
   28.1936  -19.3101   -7.9204 O   0  0  0  0  0  0  0  0  0  0  0  0
   28.6260  -20.4956   -6.0036 N   0  0  0  0  0  0  0  0  0  0  0  0
   29.0556  -21.6868   -5.2775 C   0  0  0  0  0  0  0  0  0  0  0  0
   28.3073  -21.6681   -3.9726 C   0  0  0  0  0  0  0  0  0  0  0  0
   27.6106  -20.3392   -3.9046 C   0  0  0  0  0  0  0  0  0  0  0  0
   28.3636  -19.5290   -4.9530 C   0  0  1  0  0  0  0  0  0  0  0  0
   29.5819  -18.9585   -4.3839 C   0  0  0  0  0  0  0  0  0  0  0  0
   30.7215  -19.3786   -4.6960 O   0  0  0  0  0  0  0  0  0  0  0  0
   29.4931  -17.9233   -3.4721 O   0  0  0  0  0  0  0  0  0  0  0  0
  2  1  1  0
  3  2  2  0
  4  3  1  0
  5 11  1  0
  5  4  2  0
  6  5  1  0
  7  6  1  0
  7  8  1  1
  9 13  1  0
  9  7  1  0
 10  9  2  0
 11 12  2  0
 12  2  1  0
 13 17  1  0
 14 13  1  0
 14 15  1  0
 15 16  1  0
 17 16  1  0
 18 20  1  0
 17 18  1  1
 19 18  2  0
 20 21  1  0
 22 21  1  0
 23 22  1  0
 24 23  1  0
 24 20  1  0
 24 25  1  1
 26 25  2  0
 27 25  1  0
M  END
$$$$
