YPP.pdb
     RDKit          3D

 27 29  0  0  1  0  0  0  0  0999 V2000
   21.8104  -18.4562  -15.8170 O   0  0  0  0  0  0  0  0  0  0  0  0
   22.5392  -18.8648  -14.6966 C   0  0  0  0  0  0  0  0  0  0  0  0
   23.8801  -18.5988  -14.5588 C   0  0  0  0  0  0  0  0  0  0  0  0
   24.5809  -19.0174  -13.4330 C   0  0  0  0  0  0  0  0  0  0  0  0
   23.9669  -19.7126  -12.4125 C   0  0  0  0  0  0  0  0  0  0  0  0
   24.6930  -20.1593  -11.2232 C   0  0  0  0  0  0  0  0  0  0  0  0
   25.6630  -21.2863  -11.4636 C   0  0  2  0  0  0  0  0  0  0  0  0
   25.0855  -22.4277  -12.0766 N   0  0  0  0  0  0  0  0  0  0  0  0
   26.4497  -21.6487  -10.2938 C   0  0  0  0  0  0  0  0  0  0  0  0
   25.9164  -22.4841   -9.4915 O   0  0  0  0  0  0  0  0  0  0  0  0
   22.6205  -19.9762  -12.5577 C   0  0  0  0  0  0  0  0  0  0  0  0
   21.9129  -19.5586  -13.6847 C   0  0  0  0  0  0  0  0  0  0  0  0
   27.7326  -21.1624   -9.9770 N   0  0  0  0  0  0  0  0  0  0  0  0
   28.5607  -20.3875  -10.9147 C   0  0  0  0  0  0  0  0  0  0  0  0
   29.9135  -21.0146  -10.7270 C   0  0  0  0  0  0  0  0  0  0  0  0
   29.9892  -21.0988   -9.2146 C   0  0  0  0  0  0  0  0  0  0  0  0
   28.5426  -21.2432   -8.7824 C   0  0  1  0  0  0  0  0  0  0  0  0
   28.1752  -20.1988   -7.7934 C   0  0  0  0  0  0  0  0  0  0  0  0
   27.4331  -19.2663   -8.2098 O   0  0  0  0  0  0  0  0  0  0  0  0
   28.5943  -20.1900   -6.4591 N   0  0  0  0  0  0  0  0  0  0  0  0
   29.5418  -21.1395   -5.8836 C   0  0  0  0  0  0  0  0  0  0  0  0
   29.1290  -21.3172   -4.4479 C   0  0  0  0  0  0  0  0  0  0  0  0
   28.0607  -20.2941   -4.1862 C   0  0  0  0  0  0  0  0  0  0  0  0
   28.2565  -19.3234   -5.3446 C   0  0  1  0  0  0  0  0  0  0  0  0
   29.3068  -18.3572   -5.0333 C   0  0  0  0  0  0  0  0  0  0  0  0
   29.1311  -17.4256   -4.2124 O   0  0  0  0  0  0  0  0  0  0  0  0
   30.5377  -18.4589   -5.6541 O   0  0  0  0  0  0  0  0  0  0  0  0
  2  1  1  0
  3  2  2  0
  4  3  1  0
  5 11  1  0
  5  4  2  0
  6  5  1  0
  7  6  1  0
  7  8  1  1
  9 13  1  0
  9  7  1  0
 10  9  2  0
 11 12  2  0
 12  2  1  0
 13 17  1  0
 14 13  1  0
 14 15  1  0
 15 16  1  0
 17 16  1  0
 18 20  1  0
 17 18  1  1
 19 18  2  0
 20 21  1  0
 22 21  1  0
 23 22  1  0
 24 23  1  0
 24 20  1  0
 24 25  1  1
 26 25  2  0
 27 25  1  0
M  END
$$$$
