YPP.pdb
     RDKit          3D

 27 29  0  0  1  0  0  0  0  0999 V2000
   21.0243  -18.5588  -15.3659 O   0  0  0  0  0  0  0  0  0  0  0  0
   21.8625  -18.9417  -14.3152 C   0  0  0  0  0  0  0  0  0  0  0  0
   23.1908  -18.5925  -14.2740 C   0  0  0  0  0  0  0  0  0  0  0  0
   24.0023  -18.9873  -13.2160 C   0  0  0  0  0  0  0  0  0  0  0  0
   23.5146  -19.7409  -12.1690 C   0  0  0  0  0  0  0  0  0  0  0  0
   24.3580  -20.1632  -11.0503 C   0  0  0  0  0  0  0  0  0  0  0  0
   25.3783  -21.2169  -11.3933 C   0  0  2  0  0  0  0  0  0  0  0  0
   24.8436  -22.3440  -12.0685 N   0  0  0  0  0  0  0  0  0  0  0  0
   26.2176  -21.6142  -10.2724 C   0  0  0  0  0  0  0  0  0  0  0  0
   25.7419  -22.5115   -9.5012 O   0  0  0  0  0  0  0  0  0  0  0  0
   22.1802  -20.0877  -12.2170 C   0  0  0  0  0  0  0  0  0  0  0  0
   21.3620  -19.6944  -13.2757 C   0  0  0  0  0  0  0  0  0  0  0  0
   27.4931  -21.0995   -9.9712 N   0  0  0  0  0  0  0  0  0  0  0  0
   28.2688  -20.2605  -10.8983 C   0  0  0  0  0  0  0  0  0  0  0  0
   29.6456  -20.8501  -10.7744 C   0  0  0  0  0  0  0  0  0  0  0  0
   29.7677  -20.9933   -9.2695 C   0  0  0  0  0  0  0  0  0  0  0  0
   28.3395  -21.2025   -8.8038 C   0  0  1  0  0  0  0  0  0  0  0  0
   27.9682  -20.2118   -7.7624 C   0  0  0  0  0  0  0  0  0  0  0  0
   27.1996  -19.2777   -8.1235 O   0  0  0  0  0  0  0  0  0  0  0  0
   28.4106  -20.2541   -6.4363 N   0  0  0  0  0  0  0  0  0  0  0  0
   29.4050  -21.1929   -5.9258 C   0  0  0  0  0  0  0  0  0  0  0  0
   29.0255  -21.4598   -4.4948 C   0  0  0  0  0  0  0  0  0  0  0  0
   27.9228  -20.4951   -4.1636 C   0  0  0  0  0  0  0  0  0  0  0  0
   28.0593  -19.4597   -5.2734 C   0  0  1  0  0  0  0  0  0  0  0  0
   29.0763  -18.4691   -4.9296 C   0  0  0  0  0  0  0  0  0  0  0  0
   30.1731  -18.4049   -5.5342 O   0  0  0  0  0  0  0  0  0  0  0  0
   28.8379  -17.5678   -3.9090 O   0  0  0  0  0  0  0  0  0  0  0  0
  2  1  1  0
  3  2  2  0
  4  3  1  0
  5 11  1  0
  5  4  2  0
  6  5  1  0
  7  6  1  0
  7  8  1  1
  9 13  1  0
  9  7  1  0
 10  9  2  0
 11 12  2  0
 12  2  1  0
 13 17  1  0
 14 13  1  0
 14 15  1  0
 15 16  1  0
 17 16  1  0
 18 20  1  0
 17 18  1  1
 19 18  2  0
 20 21  1  0
 22 21  1  0
 23 22  1  0
 24 23  1  0
 24 20  1  0
 24 25  1  1
 26 25  2  0
 27 25  1  0
M  END
$$$$
