YPP.pdb
     RDKit          3D

 27 29  0  0  1  0  0  0  0  0999 V2000
   17.3042  -17.5748  -17.4625 O   0  0  0  0  0  0  0  0  0  0  0  0
   18.5229  -18.1585  -17.1056 C   0  0  0  0  0  0  0  0  0  0  0  0
   18.9081  -19.3921  -17.5722 C   0  0  0  0  0  0  0  0  0  0  0  0
   20.1268  -19.9494  -17.2007 C   0  0  0  0  0  0  0  0  0  0  0  0
   20.9966  -19.2946  -16.3543 C   0  0  0  0  0  0  0  0  0  0  0  0
   22.2813  -19.8702  -15.9552 C   0  0  0  0  0  0  0  0  0  0  0  0
   23.4348  -19.5244  -16.8600 C   0  0  2  0  0  0  0  0  0  0  0  0
   23.3456  -20.0929  -18.1565 N   0  0  0  0  0  0  0  0  0  0  0  0
   24.7429  -19.7548  -16.2646 C   0  0  0  0  0  0  0  0  0  0  0  0
   25.3350  -20.8325  -16.6023 O   0  0  0  0  0  0  0  0  0  0  0  0
   20.6033  -18.0565  -15.8897 C   0  0  0  0  0  0  0  0  0  0  0  0
   19.3821  -17.4931  -16.2592 C   0  0  0  0  0  0  0  0  0  0  0  0
   25.4016  -18.9004  -15.3598 N   0  0  0  0  0  0  0  0  0  0  0  0
   25.0547  -17.4811  -15.1852 C   0  0  0  0  0  0  0  0  0  0  0  0
   26.4097  -16.8329  -15.1371 C   0  0  0  0  0  0  0  0  0  0  0  0
   27.1481  -17.7687  -14.1994 C   0  0  0  0  0  0  0  0  0  0  0  0
   26.4814  -19.1125  -14.4223 C   0  0  1  0  0  0  0  0  0  0  0  0
   25.9971  -19.6860  -13.1414 C   0  0  0  0  0  0  0  0  0  0  0  0
   24.7547  -19.6167  -12.9284 O   0  0  0  0  0  0  0  0  0  0  0  0
   26.8193  -20.2842  -12.1811 N   0  0  0  0  0  0  0  0  0  0  0  0
   28.2640  -20.0943  -12.0954 C   0  0  0  0  0  0  0  0  0  0  0  0
   28.8203  -21.3871  -11.5640 C   0  0  0  0  0  0  0  0  0  0  0  0
   27.6378  -22.2233  -11.1656 C   0  0  0  0  0  0  0  0  0  0  0  0
   26.5254  -21.1850  -11.0816 C   0  0  1  0  0  0  0  0  0  0  0  0
   26.5388  -20.5218   -9.7802 C   0  0  0  0  0  0  0  0  0  0  0  0
   27.1119  -19.4209   -9.6009 O   0  0  0  0  0  0  0  0  0  0  0  0
   25.9049  -21.1126   -8.7032 O   0  0  0  0  0  0  0  0  0  0  0  0
  2  1  1  0
  3  2  2  0
  4  3  1  0
  5 11  1  0
  5  4  2  0
  6  5  1  0
  7  6  1  0
  7  8  1  6
  9 13  1  0
  9  7  1  0
 10  9  2  0
 11 12  2  0
 12  2  1  0
 13 17  1  0
 14 13  1  0
 14 15  1  0
 15 16  1  0
 17 16  1  0
 18 20  1  0
 17 18  1  1
 19 18  2  0
 20 21  1  0
 22 21  1  0
 23 22  1  0
 24 23  1  0
 24 20  1  0
 24 25  1  1
 26 25  2  0
 27 25  1  0
M  END
$$$$
