YPP.pdb
     RDKit          3D

 27 29  0  0  1  0  0  0  0  0999 V2000
   22.4414  -18.2995  -16.1005 O   0  0  0  0  0  0  0  0  0  0  0  0
   23.0180  -18.7143  -14.8969 C   0  0  0  0  0  0  0  0  0  0  0  0
   22.3026  -19.3876  -13.9363 C   0  0  0  0  0  0  0  0  0  0  0  0
   22.9019  -19.7888  -12.7473 C   0  0  0  0  0  0  0  0  0  0  0  0
   24.2302  -19.5312  -12.4807 C   0  0  0  0  0  0  0  0  0  0  0  0
   24.8724  -19.9473  -11.2335 C   0  0  0  0  0  0  0  0  0  0  0  0
   25.6222  -21.2511  -11.3153 C   0  0  2  0  0  0  0  0  0  0  0  0
   24.8415  -22.3410  -11.7786 N   0  0  0  0  0  0  0  0  0  0  0  0
   26.3490  -21.5923  -10.1013 C   0  0  0  0  0  0  0  0  0  0  0  0
   25.7256  -22.3129   -9.2538 O   0  0  0  0  0  0  0  0  0  0  0  0
   24.9423  -18.8549  -13.4497 C   0  0  0  0  0  0  0  0  0  0  0  0
   24.3462  -18.4503  -14.6438 C   0  0  0  0  0  0  0  0  0  0  0  0
   27.6644  -21.2002   -9.7871 N   0  0  0  0  0  0  0  0  0  0  0  0
   28.5634  -20.5364  -10.7443 C   0  0  0  0  0  0  0  0  0  0  0  0
   29.8577  -21.2642  -10.5122 C   0  0  0  0  0  0  0  0  0  0  0  0
   29.9104  -21.2903   -8.9967 C   0  0  0  0  0  0  0  0  0  0  0  0
   28.4524  -21.2968   -8.5790 C   0  0  1  0  0  0  0  0  0  0  0  0
   28.1625  -20.1848   -7.6391 C   0  0  0  0  0  0  0  0  0  0  0  0
   27.5330  -19.1982   -8.1124 O   0  0  0  0  0  0  0  0  0  0  0  0
   28.5379  -20.1691   -6.2920 N   0  0  0  0  0  0  0  0  0  0  0  0
   29.3631  -21.1885   -5.6514 C   0  0  0  0  0  0  0  0  0  0  0  0
   28.8890  -21.2690   -4.2260 C   0  0  0  0  0  0  0  0  0  0  0  0
   27.9250  -20.1326   -4.0371 C   0  0  0  0  0  0  0  0  0  0  0  0
   28.2570  -19.2313   -5.2203 C   0  0  1  0  0  0  0  0  0  0  0  0
   29.3916  -18.3669   -4.9052 C   0  0  0  0  0  0  0  0  0  0  0  0
   30.4792  -18.4452   -5.5246 O   0  0  0  0  0  0  0  0  0  0  0  0
   29.2792  -17.4288   -3.8962 O   0  0  0  0  0  0  0  0  0  0  0  0
  2  1  1  0
  3  2  2  0
  4  3  1  0
  5 11  1  0
  5  4  2  0
  6  5  1  0
  7  6  1  0
  7  8  1  1
  9 13  1  0
  9  7  1  0
 10  9  2  0
 11 12  2  0
 12  2  1  0
 13 17  1  0
 14 13  1  0
 14 15  1  0
 15 16  1  0
 17 16  1  0
 18 20  1  0
 17 18  1  1
 19 18  2  0
 20 21  1  0
 22 21  1  0
 23 22  1  0
 24 23  1  0
 24 20  1  0
 24 25  1  1
 26 25  2  0
 27 25  1  0
M  END
$$$$
