YPP.pdb
     RDKit          3D

 27 29  0  0  1  0  0  0  0  0999 V2000
   21.4657  -18.6668  -15.7991 O   0  0  0  0  0  0  0  0  0  0  0  0
   22.1654  -19.0763  -14.6607 C   0  0  0  0  0  0  0  0  0  0  0  0
   21.6085  -19.9072  -13.7187 C   0  0  0  0  0  0  0  0  0  0  0  0
   22.3278  -20.2990  -12.5949 C   0  0  0  0  0  0  0  0  0  0  0  0
   23.6218  -19.8750  -12.3769 C   0  0  0  0  0  0  0  0  0  0  0  0
   24.3891  -20.2794  -11.1985 C   0  0  0  0  0  0  0  0  0  0  0  0
   25.5160  -21.2387  -11.4791 C   0  0  2  0  0  0  0  0  0  0  0  0
   25.1266  -22.3950  -12.2027 N   0  0  0  0  0  0  0  0  0  0  0  0
   26.3050  -21.5834  -10.3056 C   0  0  0  0  0  0  0  0  0  0  0  0
   25.7545  -22.3699   -9.4662 O   0  0  0  0  0  0  0  0  0  0  0  0
   24.1745  -19.0410  -13.3269 C   0  0  0  0  0  0  0  0  0  0  0  0
   23.4575  -18.6451  -14.4557 C   0  0  0  0  0  0  0  0  0  0  0  0
   27.6072  -21.1289  -10.0221 N   0  0  0  0  0  0  0  0  0  0  0  0
   28.4316  -20.3786  -10.9826 C   0  0  0  0  0  0  0  0  0  0  0  0
   29.7722  -21.0394  -10.8254 C   0  0  0  0  0  0  0  0  0  0  0  0
   29.8826  -21.1203   -9.3150 C   0  0  0  0  0  0  0  0  0  0  0  0
   28.4438  -21.2264   -8.8472 C   0  0  1  0  0  0  0  0  0  0  0  0
   28.1274  -20.1695   -7.8537 C   0  0  0  0  0  0  0  0  0  0  0  0
   27.4182  -19.2082   -8.2619 O   0  0  0  0  0  0  0  0  0  0  0  0
   28.5597  -20.1787   -6.5236 N   0  0  0  0  0  0  0  0  0  0  0  0
   29.4283  -21.1982   -5.9434 C   0  0  0  0  0  0  0  0  0  0  0  0
   29.0169  -21.3203   -4.5015 C   0  0  0  0  0  0  0  0  0  0  0  0
   28.0433  -20.2058   -4.2446 C   0  0  0  0  0  0  0  0  0  0  0  0
   28.3094  -19.2713   -5.4187 C   0  0  1  0  0  0  0  0  0  0  0  0
   29.4419  -18.3947   -5.1312 C   0  0  0  0  0  0  0  0  0  0  0  0
   30.5555  -18.5427   -5.6886 O   0  0  0  0  0  0  0  0  0  0  0  0
   29.2982  -17.3659   -4.2193 O   0  0  0  0  0  0  0  0  0  0  0  0
  2  1  1  0
  3  2  2  0
  4  3  1  0
  5 11  1  0
  5  4  2  0
  6  5  1  0
  7  6  1  0
  7  8  1  1
  9 13  1  0
  9  7  1  0
 10  9  2  0
 11 12  2  0
 12  2  1  0
 13 17  1  0
 14 13  1  0
 14 15  1  0
 15 16  1  0
 17 16  1  0
 18 20  1  0
 17 18  1  1
 19 18  2  0
 20 21  1  0
 22 21  1  0
 23 22  1  0
 24 23  1  0
 24 20  1  0
 24 25  1  1
 26 25  2  0
 27 25  1  0
M  END
$$$$
