YPP.pdb
     RDKit          3D

 27 29  0  0  1  0  0  0  0  0999 V2000
   20.5295  -19.4594  -14.6018 O   0  0  0  0  0  0  0  0  0  0  0  0
   21.6576  -19.5592  -13.7829 C   0  0  0  0  0  0  0  0  0  0  0  0
   22.8808  -19.0578  -14.1575 C   0  0  0  0  0  0  0  0  0  0  0  0
   23.9870  -19.1710  -13.3225 C   0  0  0  0  0  0  0  0  0  0  0  0
   23.9072  -19.7865  -12.0911 C   0  0  0  0  0  0  0  0  0  0  0  0
   25.0637  -19.9128  -11.2036 C   0  0  0  0  0  0  0  0  0  0  0  0
   25.9345  -21.1126  -11.4702 C   0  0  2  0  0  0  0  0  0  0  0  0
   25.2536  -22.2005  -12.0743 N   0  0  0  0  0  0  0  0  0  0  0  0
   26.7156  -21.5434  -10.3201 C   0  0  0  0  0  0  0  0  0  0  0  0
   26.1802  -22.4275   -9.5732 O   0  0  0  0  0  0  0  0  0  0  0  0
   22.6761  -20.2876  -11.7215 C   0  0  0  0  0  0  0  0  0  0  0  0
   21.5634  -20.1767  -12.5551 C   0  0  0  0  0  0  0  0  0  0  0  0
   27.9953  -21.0740   -9.9668 N   0  0  0  0  0  0  0  0  0  0  0  0
   28.8682  -20.3281  -10.8870 C   0  0  0  0  0  0  0  0  0  0  0  0
   30.2027  -20.9749  -10.6435 C   0  0  0  0  0  0  0  0  0  0  0  0
   30.2252  -21.0366   -9.1283 C   0  0  0  0  0  0  0  0  0  0  0  0
   28.7625  -21.1497   -8.7439 C   0  0  1  0  0  0  0  0  0  0  0  0
   28.3799  -20.0838   -7.7840 C   0  0  0  0  0  0  0  0  0  0  0  0
   27.6975  -19.1281   -8.2476 O   0  0  0  0  0  0  0  0  0  0  0  0
   28.7240  -20.0788   -6.4285 N   0  0  0  0  0  0  0  0  0  0  0  0
   29.6051  -21.0552   -5.7953 C   0  0  0  0  0  0  0  0  0  0  0  0
   29.1070  -21.2078   -4.3840 C   0  0  0  0  0  0  0  0  0  0  0  0
   28.0613  -20.1474   -4.1884 C   0  0  0  0  0  0  0  0  0  0  0  0
   28.3544  -19.1928   -5.3397 C   0  0  1  0  0  0  0  0  0  0  0  0
   29.4179  -18.2601   -4.9758 C   0  0  0  0  0  0  0  0  0  0  0  0
   30.5683  -18.3382   -5.4690 O   0  0  0  0  0  0  0  0  0  0  0  0
   29.1649  -17.2549   -4.0612 O   0  0  0  0  0  0  0  0  0  0  0  0
  2  1  1  0
  3  2  2  0
  4  3  1  0
  5 11  1  0
  5  4  2  0
  6  5  1  0
  7  6  1  0
  7  8  1  1
  9 13  1  0
  9  7  1  0
 10  9  2  0
 11 12  2  0
 12  2  1  0
 13 17  1  0
 14 13  1  0
 14 15  1  0
 15 16  1  0
 17 16  1  0
 18 20  1  0
 17 18  1  1
 19 18  2  0
 20 21  1  0
 22 21  1  0
 23 22  1  0
 24 23  1  0
 24 20  1  0
 24 25  1  1
 26 25  2  0
 27 25  1  0
M  END
$$$$
