YPP.pdb
     RDKit          3D

 27 29  0  0  1  0  0  0  0  0999 V2000
   20.2222  -19.4973  -13.6421 O   0  0  0  0  0  0  0  0  0  0  0  0
   21.5323  -19.5860  -13.1637 C   0  0  0  0  0  0  0  0  0  0  0  0
   21.8143  -19.8942  -11.8547 C   0  0  0  0  0  0  0  0  0  0  0  0
   23.1278  -19.9758  -11.4054 C   0  0  0  0  0  0  0  0  0  0  0  0
   24.1978  -19.7530  -12.2463 C   0  0  0  0  0  0  0  0  0  0  0  0
   25.5843  -19.8351  -11.7859 C   0  0  0  0  0  0  0  0  0  0  0  0
   26.1317  -21.2345  -11.6815 C   0  0  2  0  0  0  0  0  0  0  0  0
   25.2473  -22.2396  -12.1501 N   0  0  0  0  0  0  0  0  0  0  0  0
   26.6668  -21.5636  -10.3685 C   0  0  0  0  0  0  0  0  0  0  0  0
   25.8794  -22.1783   -9.5759 O   0  0  0  0  0  0  0  0  0  0  0  0
   23.9073  -19.4440  -13.5591 C   0  0  0  0  0  0  0  0  0  0  0  0
   22.5918  -19.3609  -14.0148 C   0  0  0  0  0  0  0  0  0  0  0  0
   27.9626  -21.2654   -9.9051 N   0  0  0  0  0  0  0  0  0  0  0  0
   28.9976  -20.6355  -10.7401 C   0  0  0  0  0  0  0  0  0  0  0  0
   30.2127  -21.4509  -10.3979 C   0  0  0  0  0  0  0  0  0  0  0  0
   30.1016  -21.5208   -8.8870 C   0  0  0  0  0  0  0  0  0  0  0  0
   28.6097  -21.4447   -8.6250 C   0  0  1  0  0  0  0  0  0  0  0  0
   28.2895  -20.3419   -7.6841 C   0  0  0  0  0  0  0  0  0  0  0  0
   27.6743  -19.3512   -8.1675 O   0  0  0  0  0  0  0  0  0  0  0  0
   28.6226  -20.3388   -6.3257 N   0  0  0  0  0  0  0  0  0  0  0  0
   29.3841  -21.3902   -5.6585 C   0  0  0  0  0  0  0  0  0  0  0  0
   28.8623  -21.4478   -4.2487 C   0  0  0  0  0  0  0  0  0  0  0  0
   27.9409  -20.2720   -4.0914 C   0  0  0  0  0  0  0  0  0  0  0  0
   28.3472  -19.3878   -5.2643 C   0  0  1  0  0  0  0  0  0  0  0  0
   29.5061  -18.5705   -4.9143 C   0  0  0  0  0  0  0  0  0  0  0  0
   30.6478  -18.8026   -5.3783 O   0  0  0  0  0  0  0  0  0  0  0  0
   29.3566  -17.5051   -4.0463 O   0  0  0  0  0  0  0  0  0  0  0  0
  2  1  1  0
  3  2  2  0
  4  3  1  0
  5 11  1  0
  5  4  2  0
  6  5  1  0
  7  6  1  0
  7  8  1  1
  9 13  1  0
  9  7  1  0
 10  9  2  0
 11 12  2  0
 12  2  1  0
 13 17  1  0
 14 13  1  0
 14 15  1  0
 15 16  1  0
 17 16  1  0
 18 20  1  0
 17 18  1  1
 19 18  2  0
 20 21  1  0
 22 21  1  0
 23 22  1  0
 24 23  1  0
 24 20  1  0
 24 25  1  1
 26 25  2  0
 27 25  1  0
M  END
$$$$
