YPP.pdb
     RDKit          3D

 27 29  0  0  1  0  0  0  0  0999 V2000
   21.8686  -18.6708  -16.1220 O   0  0  0  0  0  0  0  0  0  0  0  0
   22.6554  -18.9385  -14.9984 C   0  0  0  0  0  0  0  0  0  0  0  0
   24.0264  -18.8526  -15.0275 C   0  0  0  0  0  0  0  0  0  0  0  0
   24.7850  -19.1246  -13.8941 C   0  0  0  0  0  0  0  0  0  0  0  0
   24.2004  -19.4899  -12.6997 C   0  0  0  0  0  0  0  0  0  0  0  0
   24.9871  -19.7794  -11.5004 C   0  0  0  0  0  0  0  0  0  0  0  0
   25.4830  -21.1981  -11.3995 C   0  0  2  0  0  0  0  0  0  0  0  0
   24.5050  -22.1777  -11.7093 N   0  0  0  0  0  0  0  0  0  0  0  0
   26.1630  -21.4991  -10.1483 C   0  0  0  0  0  0  0  0  0  0  0  0
   25.4695  -22.0919   -9.2573 O   0  0  0  0  0  0  0  0  0  0  0  0
   22.8235  -19.5741  -12.6778 C   0  0  0  0  0  0  0  0  0  0  0  0
   22.0581  -19.3024  -13.8116 C   0  0  0  0  0  0  0  0  0  0  0  0
   27.5035  -21.1961   -9.8419 N   0  0  0  0  0  0  0  0  0  0  0  0
   28.4295  -20.5617  -10.7933 C   0  0  0  0  0  0  0  0  0  0  0  0
   29.6798  -21.3724  -10.5988 C   0  0  0  0  0  0  0  0  0  0  0  0
   29.7493  -21.4436   -9.0854 C   0  0  0  0  0  0  0  0  0  0  0  0
   28.2989  -21.3736   -8.6479 C   0  0  1  0  0  0  0  0  0  0  0  0
   28.0886  -20.2725   -7.6745 C   0  0  0  0  0  0  0  0  0  0  0  0
   27.5043  -19.2414   -8.1095 O   0  0  0  0  0  0  0  0  0  0  0  0
   28.4910  -20.3121   -6.3357 N   0  0  0  0  0  0  0  0  0  0  0  0
   29.2654  -21.3948   -5.7366 C   0  0  0  0  0  0  0  0  0  0  0  0
   28.8157  -21.4811   -4.3036 C   0  0  0  0  0  0  0  0  0  0  0  0
   27.9266  -20.2936   -4.0680 C   0  0  0  0  0  0  0  0  0  0  0  0
   28.2891  -19.3854   -5.2369 C   0  0  1  0  0  0  0  0  0  0  0  0
   29.4801  -18.5990   -4.9263 C   0  0  0  0  0  0  0  0  0  0  0  0
   29.4270  -17.5606   -4.2252 O   0  0  0  0  0  0  0  0  0  0  0  0
   30.7110  -18.9980   -5.4125 O   0  0  0  0  0  0  0  0  0  0  0  0
  2  1  1  0
  3  2  2  0
  4  3  1  0
  5 11  1  0
  5  4  2  0
  6  5  1  0
  7  6  1  0
  7  8  1  1
  9 13  1  0
  9  7  1  0
 10  9  2  0
 11 12  2  0
 12  2  1  0
 13 17  1  0
 14 13  1  0
 14 15  1  0
 15 16  1  0
 17 16  1  0
 18 20  1  0
 17 18  1  1
 19 18  2  0
 20 21  1  0
 22 21  1  0
 23 22  1  0
 24 23  1  0
 24 20  1  0
 24 25  1  1
 26 25  2  0
 27 25  1  0
M  END
$$$$
