YPP.pdb
     RDKit          3D

 27 29  0  0  1  0  0  0  0  0999 V2000
   20.1601  -20.1476  -13.7396 O   0  0  0  0  0  0  0  0  0  0  0  0
   21.2453  -20.3709  -12.8878 C   0  0  0  0  0  0  0  0  0  0  0  0
   21.5408  -19.5295  -11.8425 C   0  0  0  0  0  0  0  0  0  0  0  0
   22.6272  -19.7758  -11.0102 C   0  0  0  0  0  0  0  0  0  0  0  0
   23.4504  -20.8668  -11.1947 C   0  0  0  0  0  0  0  0  0  0  0  0
   24.5969  -21.1368  -10.3266 C   0  0  0  0  0  0  0  0  0  0  0  0
   25.9250  -20.6907  -10.8799 C   0  0  2  0  0  0  0  0  0  0  0  0
   26.3015  -21.3437  -12.0816 N   0  0  0  0  0  0  0  0  0  0  0  0
   27.0055  -20.7016   -9.9047 C   0  0  0  0  0  0  0  0  0  0  0  0
   27.7525  -21.7351   -9.9015 O   0  0  0  0  0  0  0  0  0  0  0  0
   23.1478  -21.7073  -12.2460 C   0  0  0  0  0  0  0  0  0  0  0  0
   22.0594  -21.4648  -13.0837 C   0  0  0  0  0  0  0  0  0  0  0  0
   27.2927  -19.6818   -8.9773 N   0  0  0  0  0  0  0  0  0  0  0  0
   26.4547  -18.4850   -8.8024 C   0  0  0  0  0  0  0  0  0  0  0  0
   27.4845  -17.3939   -8.7144 C   0  0  0  0  0  0  0  0  0  0  0  0
   28.4891  -18.0164   -7.7640 C   0  0  0  0  0  0  0  0  0  0  0  0
   28.3555  -19.5064   -8.0133 C   0  0  1  0  0  0  0  0  0  0  0  0
   28.0818  -20.2356   -6.7494 C   0  0  0  0  0  0  0  0  0  0  0  0
   26.9210  -20.7136   -6.6161 O   0  0  0  0  0  0  0  0  0  0  0  0
   29.0144  -20.4186   -5.7234 N   0  0  0  0  0  0  0  0  0  0  0  0
   30.3394  -19.8070   -5.6914 C   0  0  0  0  0  0  0  0  0  0  0  0
   31.2307  -20.7879   -4.9797 C   0  0  0  0  0  0  0  0  0  0  0  0
   30.3300  -21.8619   -4.4397 C   0  0  0  0  0  0  0  0  0  0  0  0
   28.9628  -21.1909   -4.4954 C   0  0  1  0  0  0  0  0  0  0  0  0
   28.7469  -20.3654   -3.3099 C   0  0  0  0  0  0  0  0  0  0  0  0
   28.6594  -19.1161   -3.3765 O   0  0  0  0  0  0  0  0  0  0  0  0
   28.6335  -20.9640   -2.0691 O   0  0  0  0  0  0  0  0  0  0  0  0
  2  1  1  0
  3  2  2  0
  4  3  1  0
  5 11  1  0
  5  4  2  0
  6  5  1  0
  7  6  1  0
  7  8  1  6
  9 13  1  0
  9  7  1  0
 10  9  2  0
 11 12  2  0
 12  2  1  0
 13 17  1  0
 14 13  1  0
 14 15  1  0
 15 16  1  0
 17 16  1  0
 18 20  1  0
 17 18  1  1
 19 18  2  0
 20 21  1  0
 22 21  1  0
 23 22  1  0
 24 23  1  0
 24 20  1  0
 24 25  1  1
 26 25  2  0
 27 25  1  0
M  END
$$$$
