RPR.pdb
     RDKit          3D

 30 30  0  0  1  0  0  0  0  0999 V2000
   23.1198  -27.0118  -14.5431 N   0  0  0  0  0  0  0  0  0  0  0  0
   22.5312  -25.8168  -14.0361 C   0  0  0  0  0  0  0  0  0  0  0  0
   21.2944  -25.8160  -13.6929 N   0  0  0  0  0  0  0  0  0  0  0  0
   23.2976  -24.6307  -13.9080 N   0  0  0  0  0  0  0  0  0  0  0  0
   24.0260  -24.0440  -15.0285 C   0  0  0  0  0  0  0  0  0  0  0  0
   24.7428  -22.8177  -14.5454 C   0  0  0  0  0  0  0  0  0  0  0  0
   24.1341  -22.3071  -13.2719 C   0  0  0  0  0  0  0  0  0  0  0  0
   25.1033  -21.3999  -12.5175 C   0  0  2  0  0  0  0  0  0  0  0  0
   24.5934  -21.2179  -11.2184 N   0  0  0  0  0  0  0  0  0  0  0  0
   25.3797  -20.2393  -13.3554 C   0  0  0  0  0  0  0  0  0  0  0  0
   24.2970  -19.6611  -13.7790 O   0  0  0  0  0  0  0  0  0  0  0  0
   20.8008  -25.0065  -13.2942 N   0  0  0  0  0  0  0  0  0  0  0  0
   26.5900  -19.6686  -13.7606 C   0  0  0  0  0  0  0  0  0  0  0  0
   27.7386  -19.4604  -12.8248 C   0  0  0  0  0  0  0  0  0  0  0  0
   28.8583  -20.0989  -13.6468 C   0  0  0  0  0  0  0  0  0  0  0  0
   28.3813  -20.0549  -15.1029 C   0  0  2  0  0  0  0  0  0  0  0  0
   27.1442  -19.1643  -14.9678 C   0  0  0  0  0  0  0  0  0  0  0  0
   26.3902  -19.0522  -16.1807 O   0  0  0  0  0  0  0  0  0  0  0  0
   25.8481  -20.0046  -16.7579 N   0  0  0  0  0  0  0  0  0  0  0  0
   19.5310  -16.6673  -17.8728 C   0  0  0  0  0  0  0  0  0  0  0  0
   19.7460  -16.9520  -16.5021 N   0  0  0  0  0  0  0  0  0  0  0  0
   18.7275  -17.3860  -15.8310 N   0  0  0  0  0  0  0  0  0  0  0  0
   20.9949  -16.7836  -15.8667 C   0  0  0  0  0  0  0  0  0  0  0  0
   22.0886  -16.2440  -16.7033 C   0  0  0  0  0  0  0  0  0  0  0  0
   23.1346  -17.2560  -16.9385 C   0  0  0  0  0  0  0  0  0  0  0  0
   24.2841  -16.8358  -17.7107 C   0  0  2  0  0  0  0  0  0  0  0  0
   25.4233  -17.6764  -18.1031 N   0  0  0  0  0  0  0  0  0  0  0  0
   26.2125  -17.7732  -16.8241 C   0  0  0  0  0  0  0  0  0  0  0  0
   26.3786  -17.2651  -19.1029 O   0  0  0  0  0  0  0  0  0  0  0  0
   27.4532  -16.6472  -18.7440 O   0  0  0  0  0  0  0  0  0  0  0  0
  1  2  1  0
  2  4  1  0
  3  2  2  0
  4  5  1  0
  6  7  1  0
  6  5  1  0
  7  8  1  0
  8  9  1  1
 10 12  1  0
 10  8  1  0
 11 10  2  0
 12 16  1  0
 13 14  1  0
 13 12  1  0
 14 15  1  0
 16 15  1  0
 16 17  1  6
 17 27  1  0
 18 17  2  0
 20 19  1  0
 20 22  1  0
 21 20  2  0
 22 23  1  0
 23 24  1  0
 24 25  1  0
 26 27  1  0
 26 28  1  0
 26 25  1  1
 28 29  2  0
 28 30  1  0
M  END
$$$$
