RPR.pdb
     RDKit          3D

 30 30  0  0  1  0  0  0  0  0999 V2000
   27.4640  -26.0254  -16.0381 N   0  0  0  0  0  0  0  0  0  0  0  0
   26.9677  -25.5073  -17.2697 C   0  0  0  0  0  0  0  0  0  0  0  0
   26.6227  -26.3167  -18.2042 N   0  0  0  0  0  0  0  0  0  0  0  0
   26.8522  -24.1087  -17.4722 N   0  0  0  0  0  0  0  0  0  0  0  0
   26.3016  -23.2135  -16.4594 C   0  0  0  0  0  0  0  0  0  0  0  0
   24.8078  -23.3540  -16.4557 C   0  0  0  0  0  0  0  0  0  0  0  0
   24.1433  -22.0236  -16.6591 C   0  0  0  0  0  0  0  0  0  0  0  0
   24.6084  -21.0057  -15.6202 C   0  0  2  0  0  0  0  0  0  0  0  0
   25.4730  -21.6698  -14.7301 N   0  0  0  0  0  0  0  0  0  0  0  0
   23.4314  -20.3160  -15.1062 C   0  0  0  0  0  0  0  0  0  0  0  0
   22.7421  -21.0497  -14.2860 O   0  0  0  0  0  0  0  0  0  0  0  0
   26.3683  -26.0302  -19.1588 N   0  0  0  0  0  0  0  0  0  0  0  0
   22.9444  -19.0282  -15.3495 C   0  0  0  0  0  0  0  0  0  0  0  0
   23.8419  -17.8646  -15.6302 C   0  0  0  0  0  0  0  0  0  0  0  0
   23.1769  -17.3275  -16.8977 C   0  0  0  0  0  0  0  0  0  0  0  0
   21.7317  -17.8368  -16.8560 C   0  0  2  0  0  0  0  0  0  0  0  0
   21.6722  -18.4012  -15.4348 C   0  0  0  0  0  0  0  0  0  0  0  0
   20.4480  -19.0871  -15.1471 O   0  0  0  0  0  0  0  0  0  0  0  0
   20.2461  -20.2864  -15.3823 N   0  0  0  0  0  0  0  0  0  0  0  0
   19.1665  -23.8094  -12.0024 C   0  0  0  0  0  0  0  0  0  0  0  0
   18.2124  -23.7010  -10.9612 N   0  0  0  0  0  0  0  0  0  0  0  0
   17.6158  -24.7926  -10.6025 N   0  0  0  0  0  0  0  0  0  0  0  0
   17.9031  -22.4808  -10.3233 C   0  0  0  0  0  0  0  0  0  0  0  0
   18.5569  -21.2715  -10.8690 C   0  0  0  0  0  0  0  0  0  0  0  0
   17.9254  -20.8420  -12.1300 C   0  0  0  0  0  0  0  0  0  0  0  0
   18.5451  -19.7329  -12.8229 C   0  0  2  0  0  0  0  0  0  0  0  0
   18.1168  -19.1598  -14.1060 N   0  0  0  0  0  0  0  0  0  0  0  0
   19.3368  -18.3928  -14.5435 C   0  0  0  0  0  0  0  0  0  0  0  0
   17.0269  -18.2200  -14.2068 O   0  0  0  0  0  0  0  0  0  0  0  0
   17.2616  -16.9555  -14.1006 O   0  0  0  0  0  0  0  0  0  0  0  0
  1  2  1  0
  2  4  1  0
  3  2  2  0
  4  5  1  0
  6  7  1  0
  6  5  1  0
  7  8  1  0
  8  9  1  1
 10 12  1  0
 10  8  1  0
 11 10  2  0
 12 16  1  0
 13 14  1  0
 13 12  1  0
 14 15  1  0
 16 15  1  0
 16 17  1  6
 17 27  1  0
 18 17  2  0
 20 19  1  0
 20 22  1  0
 21 20  2  0
 22 23  1  0
 23 24  1  0
 24 25  1  0
 26 27  1  0
 26 28  1  0
 26 25  1  6
 28 29  2  0
 28 30  1  0
M  END
$$$$
