RPR.pdb
     RDKit          3D

 30 30  0  0  1  0  0  0  0  0999 V2000
   14.7720  -23.8911  -10.4977 N   0  0  0  0  0  0  0  0  0  0  0  0
   13.7272  -24.8456  -10.6675 C   0  0  0  0  0  0  0  0  0  0  0  0
   13.6259  -25.4832  -11.7769 N   0  0  0  0  0  0  0  0  0  0  0  0
   12.8001  -25.0966   -9.6245 N   0  0  0  0  0  0  0  0  0  0  0  0
   12.2595  -24.0327   -8.7842 C   0  0  0  0  0  0  0  0  0  0  0  0
   11.5536  -23.0406   -9.6609 C   0  0  0  0  0  0  0  0  0  0  0  0
   10.7982  -22.0388   -8.8370 C   0  0  0  0  0  0  0  0  0  0  0  0
   11.7034  -20.8946   -8.3862 C   0  0  2  0  0  0  0  0  0  0  0  0
   12.7557  -20.7923   -9.3152 N   0  0  0  0  0  0  0  0  0  0  0  0
   12.0026  -21.0864   -6.9724 C   0  0  0  0  0  0  0  0  0  0  0  0
   13.0024  -21.8920   -6.7793 O   0  0  0  0  0  0  0  0  0  0  0  0
   12.8935  -26.1741  -11.9870 N   0  0  0  0  0  0  0  0  0  0  0  0
   11.4012  -20.5546   -5.8278 C   0  0  0  0  0  0  0  0  0  0  0  0
   10.6249  -19.2757   -5.8429 C   0  0  0  0  0  0  0  0  0  0  0  0
    9.3496  -19.7413   -5.1401 C   0  0  0  0  0  0  0  0  0  0  0  0
    9.7523  -20.9740   -4.3227 C   0  0  2  0  0  0  0  0  0  0  0  0
   11.2755  -20.9183   -4.4600 C   0  0  0  0  0  0  0  0  0  0  0  0
   11.9384  -22.0557   -3.8952 O   0  0  0  0  0  0  0  0  0  0  0  0
   11.8431  -23.2101   -4.3340 N   0  0  0  0  0  0  0  0  0  0  0  0
   15.6692  -19.7855    2.8589 C   0  0  0  0  0  0  0  0  0  0  0  0
   16.0097  -21.1332    3.1307 N   0  0  0  0  0  0  0  0  0  0  0  0
   16.6688  -21.3583    4.2221 N   0  0  0  0  0  0  0  0  0  0  0  0
   15.6635  -22.2027    2.2776 C   0  0  0  0  0  0  0  0  0  0  0  0
   15.6583  -21.9096    0.8279 C   0  0  0  0  0  0  0  0  0  0  0  0
   14.5839  -22.6440    0.1352 C   0  0  0  0  0  0  0  0  0  0  0  0
   14.5167  -22.4948   -1.3028 C   0  0  1  0  0  0  0  0  0  0  0  0
   13.5267  -23.1112   -2.1962 N   0  0  0  0  0  0  0  0  0  0  0  0
   12.7878  -21.9157   -2.7376 C   0  0  0  0  0  0  0  0  0  0  0  0
   12.4983  -24.0005   -1.7134 O   0  0  0  0  0  0  0  0  0  0  0  0
   11.3699  -23.5166   -1.3162 O   0  0  0  0  0  0  0  0  0  0  0  0
  1  2  1  0
  2  4  1  0
  3  2  2  0
  4  5  1  0
  6  7  1  0
  6  5  1  0
  7  8  1  0
  8  9  1  6
 10 12  1  0
 10  8  1  0
 11 10  2  0
 12 16  1  0
 13 14  1  0
 13 12  1  0
 14 15  1  0
 16 15  1  0
 16 17  1  6
 17 27  1  0
 18 17  2  0
 20 19  1  0
 20 22  1  0
 21 20  2  0
 22 23  1  0
 23 24  1  0
 24 25  1  0
 26 27  1  0
 26 28  1  0
 26 25  1  6
 28 29  2  0
 28 30  1  0
M  END
$$$$
