RPR.pdb
     RDKit          3D

 30 30  0  0  1  0  0  0  0  0999 V2000
   26.0361  -12.8483  -16.6467 N   0  0  0  0  0  0  0  0  0  0  0  0
   26.0274  -14.1357  -17.2581 C   0  0  0  0  0  0  0  0  0  0  0  0
   26.8871  -14.4091  -18.1712 N   0  0  0  0  0  0  0  0  0  0  0  0
   25.0794  -15.1154  -16.8685 N   0  0  0  0  0  0  0  0  0  0  0  0
   25.1507  -15.8076  -15.5855 C   0  0  0  0  0  0  0  0  0  0  0  0
   25.4486  -17.2564  -15.8378 C   0  0  0  0  0  0  0  0  0  0  0  0
   26.9285  -17.4932  -15.9205 C   0  0  0  0  0  0  0  0  0  0  0  0
   27.2445  -18.9762  -16.1010 C   0  0  2  0  0  0  0  0  0  0  0  0
   26.7297  -19.3729  -17.3494 N   0  0  0  0  0  0  0  0  0  0  0  0
   26.8291  -19.6764  -14.8917 C   0  0  0  0  0  0  0  0  0  0  0  0
   25.5490  -19.6016  -14.6872 O   0  0  0  0  0  0  0  0  0  0  0  0
   26.9062  -15.2850  -18.7101 N   0  0  0  0  0  0  0  0  0  0  0  0
   27.5696  -20.3942  -13.9477 C   0  0  0  0  0  0  0  0  0  0  0  0
   28.7706  -21.2085  -14.3125 C   0  0  0  0  0  0  0  0  0  0  0  0
   29.7661  -20.6726  -13.2835 C   0  0  0  0  0  0  0  0  0  0  0  0
   28.9169  -20.1012  -12.1425 C   0  0  2  0  0  0  0  0  0  0  0  0
   27.5290  -20.6064  -12.5434 C   0  0  0  0  0  0  0  0  0  0  0  0
   26.4784  -20.0996  -11.7120 O   0  0  0  0  0  0  0  0  0  0  0  0
   26.2177  -18.8971  -11.5691 N   0  0  0  0  0  0  0  0  0  0  0  0
   19.0591  -22.7142  -10.9676 C   0  0  0  0  0  0  0  0  0  0  0  0
   18.9935  -22.3970   -9.5888 N   0  0  0  0  0  0  0  0  0  0  0  0
   18.0216  -22.9249   -8.9157 N   0  0  0  0  0  0  0  0  0  0  0  0
   19.9242  -21.5522   -8.9471 C   0  0  0  0  0  0  0  0  0  0  0  0
   21.3512  -21.9041   -9.1118 C   0  0  0  0  0  0  0  0  0  0  0  0
   22.0288  -20.9803  -10.0397 C   0  0  0  0  0  0  0  0  0  0  0  0
   23.4081  -21.2773  -10.3615 C   0  0  2  0  0  0  0  0  0  0  0  0
   24.5749  -20.4430  -10.0440 N   0  0  0  0  0  0  0  0  0  0  0  0
   25.6310  -20.9962  -10.9642 C   0  0  0  0  0  0  0  0  0  0  0  0
   25.1846  -20.4331   -8.7364 O   0  0  0  0  0  0  0  0  0  0  0  0
   26.1084  -21.2893   -8.4557 O   0  0  0  0  0  0  0  0  0  0  0  0
  1  2  1  0
  2  4  1  0
  3  2  2  0
  4  5  1  0
  6  7  1  0
  6  5  1  0
  7  8  1  0
  8  9  1  6
 10 12  1  0
 10  8  1  0
 11 10  2  0
 12 16  1  0
 13 14  1  0
 13 12  1  0
 14 15  1  0
 16 15  1  0
 16 17  1  1
 17 27  1  0
 18 17  2  0
 20 19  1  0
 20 22  1  0
 21 20  2  0
 22 23  1  0
 23 24  1  0
 24 25  1  0
 26 27  1  0
 26 28  1  0
 26 25  1  6
 28 29  2  0
 28 30  1  0
M  END
$$$$
