RPR.pdb
     RDKit          3D

 30 30  0  0  1  0  0  0  0  0999 V2000
   28.6356  -20.2989   -9.7876 N   0  0  0  0  0  0  0  0  0  0  0  0
   28.4187  -21.4589  -10.5868 C   0  0  0  0  0  0  0  0  0  0  0  0
   29.4257  -22.1224  -11.0266 N   0  0  0  0  0  0  0  0  0  0  0  0
   27.1036  -21.8860  -10.9004 N   0  0  0  0  0  0  0  0  0  0  0  0
   26.1242  -21.0068  -11.5315 C   0  0  0  0  0  0  0  0  0  0  0  0
   26.5237  -20.7916  -12.9616 C   0  0  0  0  0  0  0  0  0  0  0  0
   25.4848  -21.3381  -13.8969 C   0  0  0  0  0  0  0  0  0  0  0  0
   25.7895  -20.9638  -15.3456 C   0  0  2  0  0  0  0  0  0  0  0  0
   26.9185  -20.1235  -15.3403 N   0  0  0  0  0  0  0  0  0  0  0  0
   24.5507  -20.5071  -15.9637 C   0  0  0  0  0  0  0  0  0  0  0  0
   24.2485  -19.2883  -15.6331 O   0  0  0  0  0  0  0  0  0  0  0  0
   29.3581  -23.0057  -11.5493 N   0  0  0  0  0  0  0  0  0  0  0  0
   23.6654  -21.1551  -16.8303 C   0  0  0  0  0  0  0  0  0  0  0  0
   24.1283  -21.9946  -17.9789 C   0  0  0  0  0  0  0  0  0  0  0  0
   23.3055  -23.2572  -17.7219 C   0  0  0  0  0  0  0  0  0  0  0  0
   22.1074  -22.8075  -16.8781 C   0  0  2  0  0  0  0  0  0  0  0  0
   22.2570  -21.2868  -16.9636 C   0  0  0  0  0  0  0  0  0  0  0  0
   21.3291  -20.5776  -16.1341 O   0  0  0  0  0  0  0  0  0  0  0  0
   21.4102  -20.5015  -14.9005 N   0  0  0  0  0  0  0  0  0  0  0  0
   17.8981  -13.2036  -18.6026 C   0  0  0  0  0  0  0  0  0  0  0  0
   17.2019  -13.3737  -17.3809 N   0  0  0  0  0  0  0  0  0  0  0  0
   16.5133  -12.3623  -16.9576 N   0  0  0  0  0  0  0  0  0  0  0  0
   17.2339  -14.5719  -16.6360 C   0  0  0  0  0  0  0  0  0  0  0  0
   18.1236  -15.6375  -17.1462 C   0  0  0  0  0  0  0  0  0  0  0  0
   18.2228  -16.7571  -16.1922 C   0  0  0  0  0  0  0  0  0  0  0  0
   18.9997  -17.9033  -16.6132 C   0  0  2  0  0  0  0  0  0  0  0  0
   19.2568  -19.1168  -15.8261 N   0  0  0  0  0  0  0  0  0  0  0  0
   20.2031  -19.8845  -16.7111 C   0  0  0  0  0  0  0  0  0  0  0  0
   18.2135  -20.0549  -15.4899 O   0  0  0  0  0  0  0  0  0  0  0  0
   18.0107  -21.0824  -16.2438 O   0  0  0  0  0  0  0  0  0  0  0  0
  1  2  1  0
  2  4  1  0
  3  2  2  0
  4  5  1  0
  6  7  1  0
  6  5  1  0
  7  8  1  0
  8  9  1  1
 10 12  1  0
 10  8  1  0
 11 10  2  0
 12 16  1  0
 13 14  1  0
 13 12  1  0
 14 15  1  0
 16 15  1  0
 16 17  1  1
 17 27  1  0
 18 17  2  0
 20 19  1  0
 20 22  1  0
 21 20  2  0
 22 23  1  0
 23 24  1  0
 24 25  1  0
 26 27  1  0
 26 28  1  0
 26 25  1  1
 28 29  2  0
 28 30  1  0
M  END
$$$$
