RPR.pdb
     RDKit          3D

 30 30  0  0  1  0  0  0  0  0999 V2000
   29.3475  -20.1602  -20.3643 N   0  0  0  0  0  0  0  0  0  0  0  0
   29.2155  -18.7476  -20.5007 C   0  0  0  0  0  0  0  0  0  0  0  0
   29.3324  -18.2095  -21.6602 N   0  0  0  0  0  0  0  0  0  0  0  0
   28.9571  -17.9325  -19.3697 N   0  0  0  0  0  0  0  0  0  0  0  0
   28.8560  -18.4763  -18.0190 C   0  0  0  0  0  0  0  0  0  0  0  0
   27.4072  -18.6977  -17.6979 C   0  0  0  0  0  0  0  0  0  0  0  0
   27.2361  -19.1560  -16.2789 C   0  0  0  0  0  0  0  0  0  0  0  0
   27.8979  -20.5130  -16.0499 C   0  0  2  0  0  0  0  0  0  0  0  0
   27.6524  -21.3044  -17.1875 N   0  0  0  0  0  0  0  0  0  0  0  0
   27.4966  -20.9941  -14.7336 C   0  0  0  0  0  0  0  0  0  0  0  0
   26.2414  -21.3228  -14.6843 O   0  0  0  0  0  0  0  0  0  0  0  0
   29.2149  -17.2057  -21.8512 N   0  0  0  0  0  0  0  0  0  0  0  0
   28.2288  -21.1531  -13.5532 C   0  0  0  0  0  0  0  0  0  0  0  0
   29.5747  -21.8056  -13.5190 C   0  0  0  0  0  0  0  0  0  0  0  0
   30.3533  -20.7470  -12.7377 C   0  0  0  0  0  0  0  0  0  0  0  0
   29.3031  -19.9578  -11.9478 C   0  0  2  0  0  0  0  0  0  0  0  0
   28.0642  -20.8257  -12.1804 C   0  0  0  0  0  0  0  0  0  0  0  0
   26.8611  -20.2490  -11.6589 O   0  0  0  0  0  0  0  0  0  0  0  0
   26.5021  -19.0803  -11.8579 N   0  0  0  0  0  0  0  0  0  0  0  0
   20.3884  -20.7051  -15.1748 C   0  0  0  0  0  0  0  0  0  0  0  0
   20.1378  -20.9291  -13.7989 N   0  0  0  0  0  0  0  0  0  0  0  0
   18.8973  -20.9490  -13.4288 N   0  0  0  0  0  0  0  0  0  0  0  0
   21.1644  -21.1257  -12.8506 C   0  0  0  0  0  0  0  0  0  0  0  0
   22.5451  -21.1694  -13.3788 C   0  0  0  0  0  0  0  0  0  0  0  0
   23.5217  -21.4393  -12.3078 C   0  0  0  0  0  0  0  0  0  0  0  0
   23.8207  -20.3449  -11.4094 C   0  0  1  0  0  0  0  0  0  0  0  0
   24.7307  -20.3889  -10.2569 N   0  0  0  0  0  0  0  0  0  0  0  0
   25.9639  -21.0272  -10.8399 C   0  0  0  0  0  0  0  0  0  0  0  0
   24.4375  -21.1548   -9.0700 O   0  0  0  0  0  0  0  0  0  0  0  0
   23.4051  -20.8561   -8.3556 O   0  0  0  0  0  0  0  0  0  0  0  0
  1  2  1  0
  2  4  1  0
  3  2  2  0
  4  5  1  0
  6  7  1  0
  6  5  1  0
  7  8  1  0
  8  9  1  6
 10 12  1  0
 10  8  1  0
 11 10  2  0
 12 16  1  0
 13 14  1  0
 13 12  1  0
 14 15  1  0
 16 15  1  0
 16 17  1  1
 17 27  1  0
 18 17  2  0
 20 19  1  0
 20 22  1  0
 21 20  2  0
 22 23  1  0
 23 24  1  0
 24 25  1  0
 26 27  1  0
 26 28  1  0
 26 25  1  6
 28 29  2  0
 28 30  1  0
M  END
$$$$
