RPR.pdb
     RDKit          3D

 30 30  0  0  1  0  0  0  0  0999 V2000
   28.5686  -19.3800  -17.6013 N   0  0  0  0  0  0  0  0  0  0  0  0
   27.2739  -19.6930  -18.1081 C   0  0  0  0  0  0  0  0  0  0  0  0
   27.1288  -19.9566  -19.3559 N   0  0  0  0  0  0  0  0  0  0  0  0
   26.1464  -19.7156  -17.2486 N   0  0  0  0  0  0  0  0  0  0  0  0
   26.2607  -19.9510  -15.8127 C   0  0  0  0  0  0  0  0  0  0  0  0
   27.2391  -21.0655  -15.5856 C   0  0  0  0  0  0  0  0  0  0  0  0
   27.2048  -21.5269  -14.1576 C   0  0  0  0  0  0  0  0  0  0  0  0
   26.1930  -22.6537  -13.9620 C   0  0  2  0  0  0  0  0  0  0  0  0
   26.2818  -23.5050  -15.0792 N   0  0  0  0  0  0  0  0  0  0  0  0
   24.9120  -22.0535  -13.6100 C   0  0  0  0  0  0  0  0  0  0  0  0
   24.1674  -21.8227  -14.6484 O   0  0  0  0  0  0  0  0  0  0  0  0
   26.2249  -20.1383  -19.8118 N   0  0  0  0  0  0  0  0  0  0  0  0
   24.3758  -21.6996  -12.3682 C   0  0  0  0  0  0  0  0  0  0  0  0
   24.7867  -22.3635  -11.0919 C   0  0  0  0  0  0  0  0  0  0  0  0
   25.0921  -21.1270  -10.2463 C   0  0  0  0  0  0  0  0  0  0  0  0
   24.2990  -19.9811  -10.8848 C   0  0  2  0  0  0  0  0  0  0  0  0
   23.4318  -20.7574  -11.8784 C   0  0  0  0  0  0  0  0  0  0  0  0
   22.6603  -19.9120  -12.7399 O   0  0  0  0  0  0  0  0  0  0  0  0
   23.1391  -19.0319  -13.4682 N   0  0  0  0  0  0  0  0  0  0  0  0
   24.8098  -19.0778  -18.4053 C   0  0  0  0  0  0  0  0  0  0  0  0
   23.7184  -19.9591  -18.6012 N   0  0  0  0  0  0  0  0  0  0  0  0
   23.3707  -20.1916  -19.8264 N   0  0  0  0  0  0  0  0  0  0  0  0
   23.0221  -20.5718  -17.5375 C   0  0  0  0  0  0  0  0  0  0  0  0
   21.6065  -20.1786  -17.3679 C   0  0  0  0  0  0  0  0  0  0  0  0
   21.4280  -19.3079  -16.1916 C   0  0  0  0  0  0  0  0  0  0  0  0
   20.7125  -19.8722  -15.0674 C   0  0  2  0  0  0  0  0  0  0  0  0
   20.4399  -19.2064  -13.7865 N   0  0  0  0  0  0  0  0  0  0  0  0
   21.2254  -20.0428  -12.8110 C   0  0  0  0  0  0  0  0  0  0  0  0
   19.1131  -19.1234  -13.2260 O   0  0  0  0  0  0  0  0  0  0  0  0
   18.6191  -20.1384  -12.6006 O   0  0  0  0  0  0  0  0  0  0  0  0
  1  2  1  0
  2  4  1  0
  3  2  2  0
  4  5  1  0
  6  7  1  0
  6  5  1  0
  7  8  1  0
  8  9  1  6
 10 12  1  0
 10  8  1  0
 11 10  2  0
 12 16  1  0
 13 14  1  0
 13 12  1  0
 14 15  1  0
 16 15  1  0
 16 17  1  1
 17 27  1  0
 18 17  2  0
 20 19  1  0
 20 22  1  0
 21 20  2  0
 22 23  1  0
 23 24  1  0
 24 25  1  0
 26 27  1  0
 26 28  1  0
 26 25  1  6
 28 29  2  0
 28 30  1  0
M  END
$$$$
