RPR.pdb
     RDKit          3D

 30 30  0  0  1  0  0  0  0  0999 V2000
   20.9621  -14.8178  -15.6280 N   0  0  0  0  0  0  0  0  0  0  0  0
   20.7731  -16.2170  -15.4337 C   0  0  0  0  0  0  0  0  0  0  0  0
   19.7325  -16.6350  -14.8091 N   0  0  0  0  0  0  0  0  0  0  0  0
   21.7223  -17.1501  -15.9224 N   0  0  0  0  0  0  0  0  0  0  0  0
   22.1124  -17.2074  -17.3277 C   0  0  0  0  0  0  0  0  0  0  0  0
   23.0883  -18.3325  -17.5093 C   0  0  0  0  0  0  0  0  0  0  0  0
   24.3561  -17.8451  -18.1481 C   0  0  0  0  0  0  0  0  0  0  0  0
   25.3437  -18.9891  -18.3662 C   0  0  2  0  0  0  0  0  0  0  0  0
   24.8085  -19.8308  -19.3592 N   0  0  0  0  0  0  0  0  0  0  0  0
   25.6916  -19.5394  -17.0619 C   0  0  0  0  0  0  0  0  0  0  0  0
   24.7331  -20.2493  -16.5486 O   0  0  0  0  0  0  0  0  0  0  0  0
   19.5088  -17.6258  -14.6473 N   0  0  0  0  0  0  0  0  0  0  0  0
   26.8595  -19.4272  -16.3014 C   0  0  0  0  0  0  0  0  0  0  0  0
   28.2237  -19.4006  -16.9150 C   0  0  0  0  0  0  0  0  0  0  0  0
   28.7901  -18.1582  -16.2273 C   0  0  0  0  0  0  0  0  0  0  0  0
   27.9701  -17.9837  -14.9440 C   0  0  2  0  0  0  0  0  0  0  0  0
   27.1911  -19.3008  -14.9257 C   0  0  0  0  0  0  0  0  0  0  0  0
   26.2121  -19.3668  -13.8820 O   0  0  0  0  0  0  0  0  0  0  0  0
   25.3008  -18.5428  -13.7246 N   0  0  0  0  0  0  0  0  0  0  0  0
   19.1235  -21.8352  -10.7869 C   0  0  0  0  0  0  0  0  0  0  0  0
   19.5387  -21.7315  -12.1371 N   0  0  0  0  0  0  0  0  0  0  0  0
   19.3006  -22.7507  -12.8992 N   0  0  0  0  0  0  0  0  0  0  0  0
   20.1818  -20.5893  -12.6601 C   0  0  0  0  0  0  0  0  0  0  0  0
   21.5284  -20.8002  -13.2340 C   0  0  0  0  0  0  0  0  0  0  0  0
   22.5837  -20.5400  -12.2380 C   0  0  0  0  0  0  0  0  0  0  0  0
   23.9490  -20.7608  -12.6642 C   0  0  2  0  0  0  0  0  0  0  0  0
   25.1589  -20.5263  -11.8646 N   0  0  0  0  0  0  0  0  0  0  0  0
   26.2328  -20.4389  -12.9169 C   0  0  0  0  0  0  0  0  0  0  0  0
   25.6499  -21.4869  -10.9067 O   0  0  0  0  0  0  0  0  0  0  0  0
   25.1674  -21.4997   -9.7099 O   0  0  0  0  0  0  0  0  0  0  0  0
  1  2  1  0
  2  4  1  0
  3  2  2  0
  4  5  1  0
  6  7  1  0
  6  5  1  0
  7  8  1  0
  8  9  1  6
 10 12  1  0
 10  8  1  0
 11 10  2  0
 12 16  1  0
 13 14  1  0
 13 12  1  0
 14 15  1  0
 16 15  1  0
 16 17  1  6
 17 27  1  0
 18 17  2  0
 20 19  1  0
 20 22  1  0
 21 20  2  0
 22 23  1  0
 23 24  1  0
 24 25  1  0
 26 27  1  0
 26 28  1  0
 26 25  1  6
 28 29  2  0
 28 30  1  0
M  END
$$$$
