RPR.pdb
     RDKit          3D

 30 30  0  0  1  0  0  0  0  0999 V2000
   21.2532  -23.1617  -16.6771 N   0  0  0  0  0  0  0  0  0  0  0  0
   20.4978  -21.9549  -16.6121 C   0  0  0  0  0  0  0  0  0  0  0  0
   19.5233  -21.8615  -15.7820 N   0  0  0  0  0  0  0  0  0  0  0  0
   20.8118  -20.8585  -17.4546 N   0  0  0  0  0  0  0  0  0  0  0  0
   22.1830  -20.4133  -17.6823 C   0  0  0  0  0  0  0  0  0  0  0  0
   22.3491  -19.0465  -17.0860 C   0  0  0  0  0  0  0  0  0  0  0  0
   23.7282  -18.5129  -17.3434 C   0  0  0  0  0  0  0  0  0  0  0  0
   24.7486  -19.6430  -17.4586 C   0  0  2  0  0  0  0  0  0  0  0  0
   24.2228  -20.6035  -18.3427 N   0  0  0  0  0  0  0  0  0  0  0  0
   25.1389  -20.0374  -16.1106 C   0  0  0  0  0  0  0  0  0  0  0  0
   24.1199  -20.3420  -15.3656 O   0  0  0  0  0  0  0  0  0  0  0  0
   18.9298  -21.0287  -15.6715 N   0  0  0  0  0  0  0  0  0  0  0  0
   26.3990  -20.1371  -15.5132 C   0  0  0  0  0  0  0  0  0  0  0  0
   27.6294  -20.5075  -16.2795 C   0  0  0  0  0  0  0  0  0  0  0  0
   28.5585  -19.3778  -15.8348 C   0  0  0  0  0  0  0  0  0  0  0  0
   27.9952  -18.8781  -14.4996 C   0  0  2  0  0  0  0  0  0  0  0  0
   26.9467  -19.9559  -14.2147 C   0  0  0  0  0  0  0  0  0  0  0  0
   26.1405  -19.6736  -13.0647 O   0  0  0  0  0  0  0  0  0  0  0  0
   25.4771  -18.6387  -12.9124 N   0  0  0  0  0  0  0  0  0  0  0  0
   19.5562  -22.3845  -13.2317 C   0  0  0  0  0  0  0  0  0  0  0  0
   19.5328  -21.7474  -11.9669 N   0  0  0  0  0  0  0  0  0  0  0  0
   18.5358  -22.0304  -11.1910 N   0  0  0  0  0  0  0  0  0  0  0  0
   20.5298  -20.8443  -11.5402 C   0  0  0  0  0  0  0  0  0  0  0  0
   21.6862  -20.6690  -12.4454 C   0  0  0  0  0  0  0  0  0  0  0  0
   22.9377  -21.1237  -11.8125 C   0  0  0  0  0  0  0  0  0  0  0  0
   23.8667  -20.0953  -11.3956 C   0  0  1  0  0  0  0  0  0  0  0  0
   25.1847  -20.3097  -10.7832 N   0  0  0  0  0  0  0  0  0  0  0  0
   26.0520  -20.6157  -11.9758 C   0  0  0  0  0  0  0  0  0  0  0  0
   25.4381  -21.3808   -9.8505 O   0  0  0  0  0  0  0  0  0  0  0  0
   24.9680  -21.3081   -8.6509 O   0  0  0  0  0  0  0  0  0  0  0  0
  1  2  1  0
  2  4  1  0
  3  2  2  0
  4  5  1  0
  6  7  1  0
  6  5  1  0
  7  8  1  0
  8  9  1  1
 10 12  1  0
 10  8  1  0
 11 10  2  0
 12 16  1  0
 13 14  1  0
 13 12  1  0
 14 15  1  0
 16 15  1  0
 16 17  1  6
 17 27  1  0
 18 17  2  0
 20 19  1  0
 20 22  1  0
 21 20  2  0
 22 23  1  0
 23 24  1  0
 24 25  1  0
 26 27  1  0
 26 28  1  0
 26 25  1  6
 28 29  2  0
 28 30  1  0
M  END
$$$$
