RPR.pdb
     RDKit          3D

 30 30  0  0  1  0  0  0  0  0999 V2000
   19.9568  -16.4304  -16.4220 N   0  0  0  0  0  0  0  0  0  0  0  0
   19.0078  -17.3233  -15.8445 C   0  0  0  0  0  0  0  0  0  0  0  0
   17.9955  -16.8502  -15.2130 N   0  0  0  0  0  0  0  0  0  0  0  0
   19.1714  -18.7270  -15.9604 N   0  0  0  0  0  0  0  0  0  0  0  0
   20.2953  -19.3285  -16.6713 C   0  0  0  0  0  0  0  0  0  0  0  0
   21.4425  -19.4782  -15.7160 C   0  0  0  0  0  0  0  0  0  0  0  0
   21.0554  -20.3296  -14.5420 C   0  0  0  0  0  0  0  0  0  0  0  0
   22.2267  -20.5148  -13.5799 C   0  0  2  0  0  0  0  0  0  0  0  0
   23.3324  -20.9512  -14.3335 N   0  0  0  0  0  0  0  0  0  0  0  0
   21.7614  -21.3108  -12.4508 C   0  0  0  0  0  0  0  0  0  0  0  0
   21.4787  -22.5332  -12.7853 O   0  0  0  0  0  0  0  0  0  0  0  0
   17.2787  -17.4231  -14.7484 N   0  0  0  0  0  0  0  0  0  0  0  0
   21.5785  -20.9751  -11.1059 C   0  0  0  0  0  0  0  0  0  0  0  0
   22.4646  -20.0074  -10.3870 C   0  0  0  0  0  0  0  0  0  0  0  0
   21.4030  -19.0932   -9.7752 C   0  0  0  0  0  0  0  0  0  0  0  0
   20.1204  -19.9301   -9.7124 C   0  0  2  0  0  0  0  0  0  0  0  0
   20.6687  -21.3139  -10.0685 C   0  0  0  0  0  0  0  0  0  0  0  0
   19.6474  -22.3061  -10.2251 O   0  0  0  0  0  0  0  0  0  0  0  0
   18.9135  -22.4039  -11.2182 N   0  0  0  0  0  0  0  0  0  0  0  0
   18.9442  -27.2726   -3.3381 C   0  0  0  0  0  0  0  0  0  0  0  0
   17.6739  -26.6862   -3.5586 N   0  0  0  0  0  0  0  0  0  0  0  0
   16.7320  -27.0094   -2.7312 N   0  0  0  0  0  0  0  0  0  0  0  0
   17.4121  -25.7897   -4.6166 C   0  0  0  0  0  0  0  0  0  0  0  0
   18.1051  -26.0632   -5.8943 C   0  0  0  0  0  0  0  0  0  0  0  0
   17.7834  -25.0432   -6.9090 C   0  0  0  0  0  0  0  0  0  0  0  0
   18.4693  -25.1502   -8.1789 C   0  0  1  0  0  0  0  0  0  0  0  0
   18.2818  -24.2770   -9.3454 N   0  0  0  0  0  0  0  0  0  0  0  0
   19.4060  -23.2863   -9.1946 C   0  0  0  0  0  0  0  0  0  0  0  0
   17.0967  -23.4746   -9.5271 O   0  0  0  0  0  0  0  0  0  0  0  0
   17.0292  -22.3036   -8.9891 O   0  0  0  0  0  0  0  0  0  0  0  0
  1  2  1  0
  2  4  1  0
  3  2  2  0
  4  5  1  0
  6  7  1  0
  6  5  1  0
  7  8  1  0
  8  9  1  6
 10 12  1  0
 10  8  1  0
 11 10  2  0
 12 16  1  0
 13 14  1  0
 13 12  1  0
 14 15  1  0
 16 15  1  0
 16 17  1  1
 17 27  1  0
 18 17  2  0
 20 19  1  0
 20 22  1  0
 21 20  2  0
 22 23  1  0
 23 24  1  0
 24 25  1  0
 26 27  1  0
 26 28  1  0
 26 25  1  6
 28 29  2  0
 28 30  1  0
M  END
$$$$
