RPR.pdb
     RDKit          3D

 30 30  0  0  1  0  0  0  0  0999 V2000
   19.5436  -15.5916  -16.8025 N   0  0  0  0  0  0  0  0  0  0  0  0
   20.1017  -16.8997  -16.7096 C   0  0  0  0  0  0  0  0  0  0  0  0
   19.3552  -17.8835  -16.3595 N   0  0  0  0  0  0  0  0  0  0  0  0
   21.4714  -17.1243  -16.9991 N   0  0  0  0  0  0  0  0  0  0  0  0
   21.9097  -17.9677  -18.1068 C   0  0  0  0  0  0  0  0  0  0  0  0
   22.6030  -19.1743  -17.5460 C   0  0  0  0  0  0  0  0  0  0  0  0
   23.9400  -18.8063  -16.9716 C   0  0  0  0  0  0  0  0  0  0  0  0
   24.9841  -19.8824  -17.2608 C   0  0  2  0  0  0  0  0  0  0  0  0
   24.4088  -20.8055  -18.1539 N   0  0  0  0  0  0  0  0  0  0  0  0
   25.5191  -20.3458  -15.9864 C   0  0  0  0  0  0  0  0  0  0  0  0
   24.6625  -21.0530  -15.3138 O   0  0  0  0  0  0  0  0  0  0  0  0
   19.6537  -18.8678  -16.3522 N   0  0  0  0  0  0  0  0  0  0  0  0
   26.7710  -20.1552  -15.3939 C   0  0  0  0  0  0  0  0  0  0  0  0
   28.0523  -20.2697  -16.1578 C   0  0  0  0  0  0  0  0  0  0  0  0
   28.7148  -18.9548  -15.7463 C   0  0  0  0  0  0  0  0  0  0  0  0
   28.0569  -18.5554  -14.4207 C   0  0  2  0  0  0  0  0  0  0  0  0
   27.2667  -19.8270  -14.1034 C   0  0  0  0  0  0  0  0  0  0  0  0
   26.4188  -19.6971  -12.9561 O   0  0  0  0  0  0  0  0  0  0  0  0
   25.5269  -18.8457  -12.8383 N   0  0  0  0  0  0  0  0  0  0  0  0
   19.4465  -21.8678  -12.8895 C   0  0  0  0  0  0  0  0  0  0  0  0
   19.4344  -21.4565  -11.5342 N   0  0  0  0  0  0  0  0  0  0  0  0
   18.2885  -21.4711  -10.9317 N   0  0  0  0  0  0  0  0  0  0  0  0
   20.5942  -21.0458  -10.8431 C   0  0  0  0  0  0  0  0  0  0  0  0
   21.8865  -21.3324  -11.5028 C   0  0  0  0  0  0  0  0  0  0  0  0
   23.0227  -20.8918  -10.6731 C   0  0  0  0  0  0  0  0  0  0  0  0
   24.3321  -20.9347  -11.2879 C   0  0  2  0  0  0  0  0  0  0  0  0
   25.5953  -20.5009  -10.6760 N   0  0  0  0  0  0  0  0  0  0  0  0
   26.5613  -20.5853  -11.8283 C   0  0  0  0  0  0  0  0  0  0  0  0
   26.2256  -21.2324   -9.6040 O   0  0  0  0  0  0  0  0  0  0  0  0
   27.0518  -22.1847   -9.8795 O   0  0  0  0  0  0  0  0  0  0  0  0
  1  2  1  0
  2  4  1  0
  3  2  2  0
  4  5  1  0
  6  7  1  0
  6  5  1  0
  7  8  1  0
  8  9  1  1
 10 12  1  0
 10  8  1  0
 11 10  2  0
 12 16  1  0
 13 14  1  0
 13 12  1  0
 14 15  1  0
 16 15  1  0
 16 17  1  6
 17 27  1  0
 18 17  2  0
 20 19  1  0
 20 22  1  0
 21 20  2  0
 22 23  1  0
 23 24  1  0
 24 25  1  0
 26 27  1  0
 26 28  1  0
 26 25  1  6
 28 29  2  0
 28 30  1  0
M  END
$$$$
