RPR.pdb
     RDKit          3D

 30 30  0  0  1  0  0  0  0  0999 V2000
   25.4696  -28.7980  -16.9116 N   0  0  0  0  0  0  0  0  0  0  0  0
   24.0986  -28.4092  -16.9340 C   0  0  0  0  0  0  0  0  0  0  0  0
   23.1849  -29.3105  -16.9560 N   0  0  0  0  0  0  0  0  0  0  0  0
   23.7351  -27.0388  -16.9325 N   0  0  0  0  0  0  0  0  0  0  0  0
   24.7234  -25.9662  -16.9879 C   0  0  0  0  0  0  0  0  0  0  0  0
   24.0027  -24.6505  -17.0149 C   0  0  0  0  0  0  0  0  0  0  0  0
   24.9711  -23.5109  -17.1438 C   0  0  0  0  0  0  0  0  0  0  0  0
   25.4958  -23.0708  -15.7790 C   0  0  2  0  0  0  0  0  0  0  0  0
   26.1655  -24.1680  -15.2057 N   0  0  0  0  0  0  0  0  0  0  0  0
   24.3999  -22.4350  -15.0580 C   0  0  0  0  0  0  0  0  0  0  0  0
   23.6683  -23.2891  -14.4089 O   0  0  0  0  0  0  0  0  0  0  0  0
   22.1771  -29.1169  -17.0260 N   0  0  0  0  0  0  0  0  0  0  0  0
   24.0256  -21.0916  -14.9581 C   0  0  0  0  0  0  0  0  0  0  0  0
   25.0015  -19.9676  -15.1081 C   0  0  0  0  0  0  0  0  0  0  0  0
   24.2544  -19.1141  -16.1330 C   0  0  0  0  0  0  0  0  0  0  0  0
   22.7784  -19.5069  -16.0036 C   0  0  2  0  0  0  0  0  0  0  0  0
   22.8248  -20.3650  -14.7372 C   0  0  0  0  0  0  0  0  0  0  0  0
   21.5769  -21.0009  -14.4364 O   0  0  0  0  0  0  0  0  0  0  0  0
   21.0188  -21.8285  -15.1697 N   0  0  0  0  0  0  0  0  0  0  0  0
   19.2703  -25.5031   -8.2919 C   0  0  0  0  0  0  0  0  0  0  0  0
   18.0212  -24.8355   -8.2970 N   0  0  0  0  0  0  0  0  0  0  0  0
   17.0617  -25.3906   -7.6281 N   0  0  0  0  0  0  0  0  0  0  0  0
   17.7978  -23.6238   -8.9851 C   0  0  0  0  0  0  0  0  0  0  0  0
   18.9555  -23.0599   -9.7126 C   0  0  0  0  0  0  0  0  0  0  0  0
   18.5639  -21.8925  -10.5233 C   0  0  0  0  0  0  0  0  0  0  0  0
   19.5751  -21.3400  -11.3989 C   0  0  2  0  0  0  0  0  0  0  0  0
   19.6183  -21.4592  -12.8625 N   0  0  0  0  0  0  0  0  0  0  0  0
   20.8715  -20.7016  -13.2141 C   0  0  0  0  0  0  0  0  0  0  0  0
   18.5936  -20.9044  -13.7132 O   0  0  0  0  0  0  0  0  0  0  0  0
   18.6233  -19.6500  -14.0146 O   0  0  0  0  0  0  0  0  0  0  0  0
  1  2  1  0
  2  4  1  0
  3  2  2  0
  4  5  1  0
  6  7  1  0
  6  5  1  0
  7  8  1  0
  8  9  1  1
 10 12  1  0
 10  8  1  0
 11 10  2  0
 12 16  1  0
 13 14  1  0
 13 12  1  0
 14 15  1  0
 16 15  1  0
 16 17  1  6
 17 27  1  0
 18 17  2  0
 20 19  1  0
 20 22  1  0
 21 20  2  0
 22 23  1  0
 23 24  1  0
 24 25  1  0
 26 27  1  0
 26 28  1  0
 26 25  1  1
 28 29  2  0
 28 30  1  0
M  END
$$$$
