RPR.pdb
     RDKit          3D

 30 30  0  0  1  0  0  0  0  0999 V2000
   20.5779  -20.8167  -12.3362 N   0  0  0  0  0  0  0  0  0  0  0  0
   20.6766  -21.8668  -13.2948 C   0  0  0  0  0  0  0  0  0  0  0  0
   19.7073  -22.6979  -13.4259 N   0  0  0  0  0  0  0  0  0  0  0  0
   21.8336  -22.0022  -14.1032 N   0  0  0  0  0  0  0  0  0  0  0  0
   22.9194  -21.0270  -14.0863 C   0  0  0  0  0  0  0  0  0  0  0  0
   22.4052  -19.7268  -14.6307 C   0  0  0  0  0  0  0  0  0  0  0  0
   23.4390  -19.0586  -15.4896 C   0  0  0  0  0  0  0  0  0  0  0  0
   22.9681  -17.6833  -15.9570 C   0  0  2  0  0  0  0  0  0  0  0  0
   21.6829  -17.8378  -16.5096 N   0  0  0  0  0  0  0  0  0  0  0  0
   24.0327  -17.0897  -16.7567 C   0  0  0  0  0  0  0  0  0  0  0  0
   24.1916  -17.6881  -17.8981 O   0  0  0  0  0  0  0  0  0  0  0  0
   19.6781  -23.4539  -14.1229 N   0  0  0  0  0  0  0  0  0  0  0  0
   24.8822  -16.0103  -16.4958 C   0  0  0  0  0  0  0  0  0  0  0  0
   24.3862  -14.7010  -15.9685 C   0  0  0  0  0  0  0  0  0  0  0  0
   25.3490  -14.5156  -14.7955 C   0  0  0  0  0  0  0  0  0  0  0  0
   26.5788  -15.3676  -15.1290 C   0  0  2  0  0  0  0  0  0  0  0  0
   26.2754  -15.7450  -16.5807 C   0  0  0  0  0  0  0  0  0  0  0  0
   27.2113  -16.6790  -17.1319 O   0  0  0  0  0  0  0  0  0  0  0  0
   27.4824  -17.7775  -16.6281 N   0  0  0  0  0  0  0  0  0  0  0  0
   28.9296  -22.8472  -16.1982 C   0  0  0  0  0  0  0  0  0  0  0  0
   27.9161  -22.8664  -17.1875 N   0  0  0  0  0  0  0  0  0  0  0  0
   26.9500  -23.7107  -17.0147 N   0  0  0  0  0  0  0  0  0  0  0  0
   27.9261  -22.0211  -18.3175 C   0  0  0  0  0  0  0  0  0  0  0  0
   28.6320  -20.7304  -18.1647 C   0  0  0  0  0  0  0  0  0  0  0  0
   27.6965  -19.5938  -18.2439 C   0  0  0  0  0  0  0  0  0  0  0  0
   28.0259  -18.5448  -19.1849 C   0  0  2  0  0  0  0  0  0  0  0  0
   28.8869  -17.3829  -18.9264 N   0  0  0  0  0  0  0  0  0  0  0  0
   27.9191  -16.3814  -18.3533 C   0  0  0  0  0  0  0  0  0  0  0  0
   29.5727  -16.6794  -19.9830 O   0  0  0  0  0  0  0  0  0  0  0  0
   30.8264  -16.9034  -20.1909 O   0  0  0  0  0  0  0  0  0  0  0  0
  1  2  1  0
  2  4  1  0
  3  2  2  0
  4  5  1  0
  6  7  1  0
  6  5  1  0
  7  8  1  0
  8  9  1  6
 10 12  1  0
 10  8  1  0
 11 10  2  0
 12 16  1  0
 13 14  1  0
 13 12  1  0
 14 15  1  0
 16 15  1  0
 16 17  1  1
 17 27  1  0
 18 17  2  0
 20 19  1  0
 20 22  1  0
 21 20  2  0
 22 23  1  0
 23 24  1  0
 24 25  1  0
 26 27  1  0
 26 28  1  0
 26 25  1  1
 28 29  2  0
 28 30  1  0
M  END
$$$$
