RPR.pdb
     RDKit          3D

 30 30  0  0  1  0  0  0  0  0999 V2000
   23.5879  -25.2525  -17.8452 N   0  0  0  0  0  0  0  0  0  0  0  0
   23.9844  -25.3504  -16.4797 C   0  0  0  0  0  0  0  0  0  0  0  0
   24.9217  -26.1625  -16.1489 N   0  0  0  0  0  0  0  0  0  0  0  0
   23.3539  -24.5609  -15.4849 N   0  0  0  0  0  0  0  0  0  0  0  0
   22.2956  -23.6056  -15.7973 C   0  0  0  0  0  0  0  0  0  0  0  0
   22.6107  -22.3028  -15.1231 C   0  0  0  0  0  0  0  0  0  0  0  0
   22.8364  -22.5007  -13.6524 C   0  0  0  0  0  0  0  0  0  0  0  0
   22.6069  -21.2060  -12.8760 C   0  0  2  0  0  0  0  0  0  0  0  0
   21.3869  -20.6573  -13.3133 N   0  0  0  0  0  0  0  0  0  0  0  0
   23.8266  -20.4113  -12.9536 C   0  0  0  0  0  0  0  0  0  0  0  0
   23.8437  -19.6238  -13.9859 O   0  0  0  0  0  0  0  0  0  0  0  0
   25.3302  -26.2284  -15.2072 N   0  0  0  0  0  0  0  0  0  0  0  0
   24.9453  -20.3648  -12.1162 C   0  0  0  0  0  0  0  0  0  0  0  0
   24.8375  -20.2142  -10.6316 C   0  0  0  0  0  0  0  0  0  0  0  0
   25.7388  -21.3676  -10.1906 C   0  0  0  0  0  0  0  0  0  0  0  0
   26.6712  -21.6426  -11.3757 C   0  0  2  0  0  0  0  0  0  0  0  0
   26.3560  -20.4397  -12.2678 C   0  0  0  0  0  0  0  0  0  0  0  0
   26.9971  -20.4984  -13.5474 O   0  0  0  0  0  0  0  0  0  0  0  0
   27.5105  -21.5188  -14.0265 N   0  0  0  0  0  0  0  0  0  0  0  0
   23.6576  -23.1883  -19.5504 C   0  0  0  0  0  0  0  0  0  0  0  0
   25.0171  -23.3692  -19.9043 N   0  0  0  0  0  0  0  0  0  0  0  0
   25.2613  -24.1885  -20.8767 N   0  0  0  0  0  0  0  0  0  0  0  0
   26.0781  -22.7056  -19.2522 C   0  0  0  0  0  0  0  0  0  0  0  0
   25.7030  -21.8002  -18.1445 C   0  0  0  0  0  0  0  0  0  0  0  0
   26.8785  -21.0881  -17.6111 C   0  0  0  0  0  0  0  0  0  0  0  0
   26.6500  -20.2076  -16.4855 C   0  0  2  0  0  0  0  0  0  0  0  0
   27.6693  -19.4302  -15.7679 N   0  0  0  0  0  0  0  0  0  0  0  0
   27.0849  -19.3262  -14.3838 C   0  0  0  0  0  0  0  0  0  0  0  0
   28.0083  -18.0766  -16.1345 O   0  0  0  0  0  0  0  0  0  0  0  0
   28.7869  -17.8632  -17.1412 O   0  0  0  0  0  0  0  0  0  0  0  0
  1  2  1  0
  2  4  1  0
  3  2  2  0
  4  5  1  0
  6  7  1  0
  6  5  1  0
  7  8  1  0
  8  9  1  6
 10 12  1  0
 10  8  1  0
 11 10  2  0
 12 16  1  0
 13 14  1  0
 13 12  1  0
 14 15  1  0
 16 15  1  0
 16 17  1  1
 17 27  1  0
 18 17  2  0
 20 19  1  0
 20 22  1  0
 21 20  2  0
 22 23  1  0
 23 24  1  0
 24 25  1  0
 26 27  1  0
 26 28  1  0
 26 25  1  1
 28 29  2  0
 28 30  1  0
M  END
$$$$
