FAG.pdb
     RDKit          3D

 21 21  0  0  1  0  0  0  0  0999 V2000
    7.0064  -17.9289   26.1876 N   0  0  0  0  0  0  0  0  0  0  0  0
    7.5631  -16.6519   25.8011 C   0  0  1  0  0  0  0  0  0  0  0  0
    8.9591  -16.5413   26.3612 C   0  0  0  0  0  0  0  0  0  0  0  0
    9.0018  -15.3271   27.2205 C   0  0  0  0  0  0  0  0  0  0  0  0
    8.4215  -14.1340   26.8136 C   0  0  0  0  0  0  0  0  0  0  0  0
    8.4764  -13.0362   27.6231 C   0  0  0  0  0  0  0  0  0  0  0  0
    9.0969  -13.0742   28.8466 C   0  0  0  0  0  0  0  0  0  0  0  0
    9.6809  -14.2643   29.2629 C   0  0  0  0  0  0  0  0  0  0  0  0
    9.6257  -15.3826   28.4395 C   0  0  0  0  0  0  0  0  0  0  0  0
    7.5198  -16.5493   24.3376 C   0  0  0  0  0  0  0  0  0  0  0  0
    7.3900  -17.5613   23.6007 O   0  0  0  0  0  0  0  0  0  0  0  0
    6.9576  -13.7533   21.9242 C   0  0  0  0  0  0  0  0  0  0  0  0
    7.4098  -15.1914   22.2174 C   0  0  2  0  0  0  0  0  0  0  0  0
    7.6222  -15.2909   23.6460 N   0  0  0  0  0  0  0  0  0  0  0  0
    8.7199  -15.3473   21.5393 C   0  0  0  0  0  0  0  0  0  0  0  0
    8.7793  -15.1540   20.3015 O   0  0  0  0  0  0  0  0  0  0  0  0
    9.9013  -15.7075   22.2510 N   0  0  0  0  0  0  0  0  0  0  0  0
   11.0811  -16.0152   21.4702 C   0  0  0  0  0  0  0  0  0  0  0  0
   12.2471  -16.2150   22.3628 C   0  0  0  0  0  0  0  0  0  0  0  0
   12.1131  -16.5462   23.5604 O   0  0  0  0  0  0  0  0  0  0  0  0
   13.5505  -16.0395   21.8966 O   0  0  0  0  0  0  0  0  0  0  0  0
  2  1  1  6
  2  3  1  0
  3  4  1  0
  4  5  2  0
  5  6  1  0
  7  6  2  0
  8  7  1  0
  9  4  1  0
  9  8  2  0
 10 14  1  0
 10  2  1  0
 11 10  2  0
 13 12  1  1
 13 14  1  0
 15 13  1  0
 15 17  1  0
 16 15  2  0
 18 17  1  0
 18 19  1  0
 19 21  1  0
 20 19  2  0
M  END
$$$$
