FAG.pdb
     RDKit          3D

 21 21  0  0  1  0  0  0  0  0999 V2000
    7.0243  -17.4866   25.9593 N   0  0  0  0  0  0  0  0  0  0  0  0
    7.1319  -16.1714   25.3689 C   0  0  1  0  0  0  0  0  0  0  0  0
    8.0902  -15.3469   26.1915 C   0  0  0  0  0  0  0  0  0  0  0  0
    7.4123  -14.0621   26.5142 C   0  0  0  0  0  0  0  0  0  0  0  0
    6.3183  -13.6197   25.7839 C   0  0  0  0  0  0  0  0  0  0  0  0
    5.7166  -12.4367   26.1030 C   0  0  0  0  0  0  0  0  0  0  0  0
    6.1653  -11.6574   27.1397 C   0  0  0  0  0  0  0  0  0  0  0  0
    7.2600  -12.0917   27.8770 C   0  0  0  0  0  0  0  0  0  0  0  0
    7.8735  -13.2961   27.5529 C   0  0  0  0  0  0  0  0  0  0  0  0
    7.5544  -16.3220   23.9714 C   0  0  0  0  0  0  0  0  0  0  0  0
    8.0881  -17.3790   23.5453 O   0  0  0  0  0  0  0  0  0  0  0  0
    7.1352  -14.2932   20.8185 C   0  0  0  0  0  0  0  0  0  0  0  0
    7.7054  -15.4871   21.5984 C   0  0  2  0  0  0  0  0  0  0  0  0
    7.3889  -15.2768   22.9953 N   0  0  0  0  0  0  0  0  0  0  0  0
    9.1778  -15.4071   21.4366 C   0  0  0  0  0  0  0  0  0  0  0  0
    9.6625  -15.5599   20.2901 O   0  0  0  0  0  0  0  0  0  0  0  0
   10.0472  -15.1633   22.5397 N   0  0  0  0  0  0  0  0  0  0  0  0
   11.4678  -15.1028   22.2668 C   0  0  0  0  0  0  0  0  0  0  0  0
   12.0864  -16.4324   22.4805 C   0  0  0  0  0  0  0  0  0  0  0  0
   13.3219  -16.5739   22.6041 O   0  0  0  0  0  0  0  0  0  0  0  0
   11.3066  -17.5874   22.5524 O   0  0  0  0  0  0  0  0  0  0  0  0
  2  1  1  1
  2  3  1  0
  3  4  1  0
  4  5  2  0
  5  6  1  0
  7  6  2  0
  8  7  1  0
  9  4  1  0
  9  8  2  0
 10 14  1  0
 10  2  1  0
 11 10  2  0
 13 12  1  6
 13 14  1  0
 15 13  1  0
 15 17  1  0
 16 15  2  0
 18 17  1  0
 18 19  1  0
 19 21  1  0
 20 19  2  0
M  END
$$$$
