FAG.pdb
     RDKit          3D

 21 21  0  0  1  0  0  0  0  0999 V2000
    6.6157  -17.8347   25.7109 N   0  0  0  0  0  0  0  0  0  0  0  0
    6.8430  -16.4440   25.3883 C   0  0  1  0  0  0  0  0  0  0  0  0
    7.6965  -15.8281   26.4685 C   0  0  0  0  0  0  0  0  0  0  0  0
    7.2386  -14.4246   26.6552 C   0  0  0  0  0  0  0  0  0  0  0  0
    5.8916  -14.1155   26.7821 C   0  0  0  0  0  0  0  0  0  0  0  0
    5.5010  -12.8187   26.9524 C   0  0  0  0  0  0  0  0  0  0  0  0
    6.4116  -11.7932   27.0031 C   0  0  0  0  0  0  0  0  0  0  0  0
    7.7626  -12.0925   26.8770 C   0  0  0  0  0  0  0  0  0  0  0  0
    8.1615  -13.4126   26.7036 C   0  0  0  0  0  0  0  0  0  0  0  0
    7.4563  -16.3695   24.0569 C   0  0  0  0  0  0  0  0  0  0  0  0
    8.1723  -17.2975   23.5986 O   0  0  0  0  0  0  0  0  0  0  0  0
    7.2693  -13.9497   21.1578 C   0  0  0  0  0  0  0  0  0  0  0  0
    7.7288  -15.2623   21.8095 C   0  0  2  0  0  0  0  0  0  0  0  0
    7.2830  -15.2359   23.1866 N   0  0  0  0  0  0  0  0  0  0  0  0
    9.2116  -15.2194   21.7984 C   0  0  0  0  0  0  0  0  0  0  0  0
    9.8011  -15.2043   20.6915 O   0  0  0  0  0  0  0  0  0  0  0  0
    9.9761  -15.1951   23.0013 N   0  0  0  0  0  0  0  0  0  0  0  0
   11.4176  -15.2397   22.8748 C   0  0  0  0  0  0  0  0  0  0  0  0
   11.9059  -16.6242   23.0777 C   0  0  0  0  0  0  0  0  0  0  0  0
   11.1281  -17.6019   23.1031 O   0  0  0  0  0  0  0  0  0  0  0  0
   13.2647  -16.8915   23.2497 O   0  0  0  0  0  0  0  0  0  0  0  0
  2  1  1  1
  2  3  1  0
  3  4  1  0
  4  5  2  0
  5  6  1  0
  7  6  2  0
  8  7  1  0
  9  4  1  0
  9  8  2  0
 10 14  1  0
 10  2  1  0
 11 10  2  0
 13 12  1  6
 13 14  1  0
 15 13  1  0
 15 17  1  0
 16 15  2  0
 18 17  1  0
 18 19  1  0
 19 21  1  0
 20 19  2  0
M  END
$$$$
