FAG.pdb
     RDKit          3D

 21 21  0  0  1  0  0  0  0  0999 V2000
    6.1765  -17.6638   25.3663 N   0  0  0  0  0  0  0  0  0  0  0  0
    6.6252  -16.3289   25.0395 C   0  0  1  0  0  0  0  0  0  0  0  0
    7.5642  -15.8541   26.1201 C   0  0  0  0  0  0  0  0  0  0  0  0
    7.2933  -14.4083   26.3451 C   0  0  0  0  0  0  0  0  0  0  0  0
    8.3270  -13.4894   26.4598 C   0  0  0  0  0  0  0  0  0  0  0  0
    8.0481  -12.1692   26.6660 C   0  0  0  0  0  0  0  0  0  0  0  0
    6.7576  -11.7129   26.7653 C   0  0  0  0  0  0  0  0  0  0  0  0
    5.7157  -12.6251   26.6518 C   0  0  0  0  0  0  0  0  0  0  0  0
    5.9985  -13.9697   26.4418 C   0  0  0  0  0  0  0  0  0  0  0  0
    7.2456  -16.3591   23.7097 C   0  0  0  0  0  0  0  0  0  0  0  0
    7.7997  -17.3934   23.2546 O   0  0  0  0  0  0  0  0  0  0  0  0
    7.2184  -14.0175   20.7548 C   0  0  0  0  0  0  0  0  0  0  0  0
    7.6220  -15.3317   21.4395 C   0  0  2  0  0  0  0  0  0  0  0  0
    7.2635  -15.2142   22.8372 N   0  0  0  0  0  0  0  0  0  0  0  0
    9.1006  -15.3988   21.3413 C   0  0  0  0  0  0  0  0  0  0  0  0
    9.6311  -15.2766   20.2115 O   0  0  0  0  0  0  0  0  0  0  0  0
    9.9260  -15.5967   22.4866 N   0  0  0  0  0  0  0  0  0  0  0  0
   11.3592  -15.6007   22.2816 C   0  0  0  0  0  0  0  0  0  0  0  0
   12.0603  -15.7721   23.5760 C   0  0  0  0  0  0  0  0  0  0  0  0
   13.2995  -15.6469   23.6777 O   0  0  0  0  0  0  0  0  0  0  0  0
   11.3576  -16.0827   24.7409 O   0  0  0  0  0  0  0  0  0  0  0  0
  2  1  1  1
  2  3  1  0
  3  4  1  0
  4  5  2  0
  5  6  1  0
  7  6  2  0
  8  7  1  0
  9  4  1  0
  9  8  2  0
 10 14  1  0
 10  2  1  0
 11 10  2  0
 13 12  1  6
 13 14  1  0
 15 13  1  0
 15 17  1  0
 16 15  2  0
 18 17  1  0
 18 19  1  0
 19 21  1  0
 20 19  2  0
M  END
$$$$
