FAG.pdb
     RDKit          3D

 21 21  0  0  1  0  0  0  0  0999 V2000
   13.2378  -15.2980   44.0203 N   0  0  0  0  0  0  0  0  0  0  0  0
   12.4347  -14.4065   43.2139 C   0  0  1  0  0  0  0  0  0  0  0  0
   11.2813  -13.9051   44.0464 C   0  0  0  0  0  0  0  0  0  0  0  0
   10.1886  -13.5208   43.1121 C   0  0  0  0  0  0  0  0  0  0  0  0
   10.2893  -13.7554   41.7480 C   0  0  0  0  0  0  0  0  0  0  0  0
    9.2707  -13.3921   40.9150 C   0  0  0  0  0  0  0  0  0  0  0  0
    8.1313  -12.7924   41.3900 C   0  0  0  0  0  0  0  0  0  0  0  0
    8.0211  -12.5533   42.7542 C   0  0  0  0  0  0  0  0  0  0  0  0
    9.0575  -12.9228   43.6034 C   0  0  0  0  0  0  0  0  0  0  0  0
   13.2960  -13.3283   42.7140 C   0  0  0  0  0  0  0  0  0  0  0  0
   14.0607  -12.6782   43.4732 O   0  0  0  0  0  0  0  0  0  0  0  0
   14.7042  -12.2579   39.4825 C   0  0  0  0  0  0  0  0  0  0  0  0
   14.1633  -11.8552   40.8623 C   0  0  2  0  0  0  0  0  0  0  0  0
   13.3263  -12.9409   41.3279 N   0  0  0  0  0  0  0  0  0  0  0  0
   13.3023  -10.6705   40.6268 C   0  0  0  0  0  0  0  0  0  0  0  0
   13.8434   -9.6031   40.2516 O   0  0  0  0  0  0  0  0  0  0  0  0
   11.8898  -10.7134   40.8141 N   0  0  0  0  0  0  0  0  0  0  0  0
   11.1420   -9.5100   40.5163 C   0  0  0  0  0  0  0  0  0  0  0  0
   11.0854   -8.6346   41.7108 C   0  0  0  0  0  0  0  0  0  0  0  0
   11.6901   -8.9184   42.7669 O   0  0  0  0  0  0  0  0  0  0  0  0
   10.3484   -7.4497   41.7020 O   0  0  0  0  0  0  0  0  0  0  0  0
  2  1  1  1
  2  3  1  0
  3  4  1  0
  4  5  2  0
  5  6  1  0
  7  6  2  0
  8  7  1  0
  9  4  1  0
  9  8  2  0
 10 14  1  0
 10  2  1  0
 11 10  2  0
 13 12  1  6
 13 14  1  0
 15 13  1  0
 15 17  1  0
 16 15  2  0
 18 17  1  0
 18 19  1  0
 19 21  1  0
 20 19  2  0
M  END
$$$$
