FAG.pdb
     RDKit          3D

 21 21  0  0  1  0  0  0  0  0999 V2000
    6.3168  -17.8675   25.7554 N   0  0  0  0  0  0  0  0  0  0  0  0
    6.6350  -16.4985   25.4170 C   0  0  1  0  0  0  0  0  0  0  0  0
    7.4660  -15.9046   26.5267 C   0  0  0  0  0  0  0  0  0  0  0  0
    7.2728  -14.4296   26.4903 C   0  0  0  0  0  0  0  0  0  0  0  0
    8.3479  -13.5640   26.3455 C   0  0  0  0  0  0  0  0  0  0  0  0
    8.1402  -12.2152   26.3155 C   0  0  0  0  0  0  0  0  0  0  0  0
    6.8823  -11.6778   26.4257 C   0  0  0  0  0  0  0  0  0  0  0  0
    5.7994  -12.5362   26.5711 C   0  0  0  0  0  0  0  0  0  0  0  0
    6.0096  -13.9097   26.6017 C   0  0  0  0  0  0  0  0  0  0  0  0
    7.3168  -16.4870   24.1173 C   0  0  0  0  0  0  0  0  0  0  0  0
    8.0286  -17.4492   23.7280 O   0  0  0  0  0  0  0  0  0  0  0  0
    7.2004  -14.2415   21.0866 C   0  0  0  0  0  0  0  0  0  0  0  0
    7.7160  -15.4736   21.8447 C   0  0  2  0  0  0  0  0  0  0  0  0
    7.2198  -15.3805   23.2015 N   0  0  0  0  0  0  0  0  0  0  0  0
    9.1927  -15.3366   21.8778 C   0  0  0  0  0  0  0  0  0  0  0  0
    9.8239  -15.4039   20.7961 O   0  0  0  0  0  0  0  0  0  0  0  0
    9.9058  -15.1326   23.0952 N   0  0  0  0  0  0  0  0  0  0  0  0
   11.3446  -14.9969   23.0091 C   0  0  0  0  0  0  0  0  0  0  0  0
   11.9988  -16.2941   23.3016 C   0  0  0  0  0  0  0  0  0  0  0  0
   11.3466  -17.3554   23.4003 O   0  0  0  0  0  0  0  0  0  0  0  0
   13.3801  -16.3810   23.4797 O   0  0  0  0  0  0  0  0  0  0  0  0
  2  1  1  1
  2  3  1  0
  3  4  1  0
  4  5  2  0
  5  6  1  0
  7  6  2  0
  8  7  1  0
  9  4  1  0
  9  8  2  0
 10 14  1  0
 10  2  1  0
 11 10  2  0
 13 12  1  6
 13 14  1  0
 15 13  1  0
 15 17  1  0
 16 15  2  0
 18 17  1  0
 18 19  1  0
 19 21  1  0
 20 19  2  0
M  END
$$$$
