FAG.pdb
     RDKit          3D

 21 21  0  0  1  0  0  0  0  0999 V2000
    7.2191  -16.5056   25.9699 N   0  0  0  0  0  0  0  0  0  0  0  0
    7.3144  -15.4350   25.0032 C   0  0  1  0  0  0  0  0  0  0  0  0
    8.2007  -14.3514   25.5644 C   0  0  0  0  0  0  0  0  0  0  0  0
    7.3303  -13.4030   26.3110 C   0  0  0  0  0  0  0  0  0  0  0  0
    6.0848  -13.0309   25.8251 C   0  0  0  0  0  0  0  0  0  0  0  0
    5.3081  -12.1588   26.5318 C   0  0  0  0  0  0  0  0  0  0  0  0
    5.7252  -11.6290   27.7271 C   0  0  0  0  0  0  0  0  0  0  0  0
    6.9707  -11.9955   28.2220 C   0  0  0  0  0  0  0  0  0  0  0  0
    7.7625  -12.8834   27.5032 C   0  0  0  0  0  0  0  0  0  0  0  0
    7.8142  -15.9915   23.7404 C   0  0  0  0  0  0  0  0  0  0  0  0
    8.3445  -17.1311   23.6763 O   0  0  0  0  0  0  0  0  0  0  0  0
    7.6314  -14.9806   20.1116 C   0  0  0  0  0  0  0  0  0  0  0  0
    8.1419  -15.8839   21.2439 C   0  0  2  0  0  0  0  0  0  0  0  0
    7.7335  -15.2770   22.4933 N   0  0  0  0  0  0  0  0  0  0  0  0
    9.6222  -15.8331   21.1628 C   0  0  0  0  0  0  0  0  0  0  0  0
   10.1811  -16.2944   20.1392 O   0  0  0  0  0  0  0  0  0  0  0  0
   10.4179  -15.2790   22.2076 N   0  0  0  0  0  0  0  0  0  0  0  0
   11.8523  -15.2576   22.0121 C   0  0  0  0  0  0  0  0  0  0  0  0
   12.4821  -16.3956   22.7222 C   0  0  0  0  0  0  0  0  0  0  0  0
   13.7147  -16.4497   22.9208 O   0  0  0  0  0  0  0  0  0  0  0  0
   11.7165  -17.4598   23.2005 O   0  0  0  0  0  0  0  0  0  0  0  0
  2  1  1  1
  2  3  1  0
  3  4  1  0
  4  5  2  0
  5  6  1  0
  7  6  2  0
  8  7  1  0
  9  4  1  0
  9  8  2  0
 10 14  1  0
 10  2  1  0
 11 10  2  0
 13 12  1  6
 13 14  1  0
 15 13  1  0
 15 17  1  0
 16 15  2  0
 18 17  1  0
 18 19  1  0
 19 21  1  0
 20 19  2  0
M  END
$$$$
