FAG.pdb
     RDKit          3D

 21 21  0  0  1  0  0  0  0  0999 V2000
    6.2903  -18.1477   25.5434 N   0  0  0  0  0  0  0  0  0  0  0  0
    6.5123  -16.7403   25.2986 C   0  0  1  0  0  0  0  0  0  0  0  0
    7.3109  -16.1685   26.4432 C   0  0  0  0  0  0  0  0  0  0  0  0
    7.1434  -14.6902   26.4114 C   0  0  0  0  0  0  0  0  0  0  0  0
    5.8867  -14.1046   26.4714 C   0  0  0  0  0  0  0  0  0  0  0  0
    5.7637  -12.7454   26.4403 C   0  0  0  0  0  0  0  0  0  0  0  0
    6.8603  -11.9252   26.3500 C   0  0  0  0  0  0  0  0  0  0  0  0
    8.1229  -12.5020   26.2893 C   0  0  0  0  0  0  0  0  0  0  0  0
    8.2494  -13.8858   26.3210 C   0  0  0  0  0  0  0  0  0  0  0  0
    7.1805  -16.5937   24.0001 C   0  0  0  0  0  0  0  0  0  0  0  0
    7.9665  -17.4680   23.5510 O   0  0  0  0  0  0  0  0  0  0  0  0
    6.8910  -14.1692   21.1208 C   0  0  0  0  0  0  0  0  0  0  0  0
    7.4984  -15.4052   21.8006 C   0  0  2  0  0  0  0  0  0  0  0  0
    6.9847  -15.4459   23.1535 N   0  0  0  0  0  0  0  0  0  0  0  0
    8.9588  -15.1527   21.8637 C   0  0  0  0  0  0  0  0  0  0  0  0
    9.5949  -15.0503   20.7878 O   0  0  0  0  0  0  0  0  0  0  0  0
    9.6509  -15.0248   23.1034 N   0  0  0  0  0  0  0  0  0  0  0  0
   11.0747  -14.7685   23.0475 C   0  0  0  0  0  0  0  0  0  0  0  0
   11.8264  -16.0445   23.1037 C   0  0  0  0  0  0  0  0  0  0  0  0
   11.2741  -17.1462   22.8964 O   0  0  0  0  0  0  0  0  0  0  0  0
   13.1914  -16.0650   23.3930 O   0  0  0  0  0  0  0  0  0  0  0  0
  2  1  1  1
  2  3  1  0
  3  4  1  0
  4  5  2  0
  5  6  1  0
  7  6  2  0
  8  7  1  0
  9  4  1  0
  9  8  2  0
 10 14  1  0
 10  2  1  0
 11 10  2  0
 13 12  1  6
 13 14  1  0
 15 13  1  0
 15 17  1  0
 16 15  2  0
 18 17  1  0
 18 19  1  0
 19 21  1  0
 20 19  2  0
M  END
$$$$
