FAG.pdb
     RDKit          3D

 21 21  0  0  1  0  0  0  0  0999 V2000
    5.5198  -18.3298   22.5380 N   0  0  0  0  0  0  0  0  0  0  0  0
    6.3366  -17.3052   21.9271 C   0  0  1  0  0  0  0  0  0  0  0  0
    6.4000  -16.1176   22.8545 C   0  0  0  0  0  0  0  0  0  0  0  0
    7.0174  -14.9931   22.1004 C   0  0  0  0  0  0  0  0  0  0  0  0
    6.6414  -14.7064   20.7956 C   0  0  0  0  0  0  0  0  0  0  0  0
    7.2253  -13.6684   20.1285 C   0  0  0  0  0  0  0  0  0  0  0  0
    8.1879  -12.8859   20.7153 C   0  0  0  0  0  0  0  0  0  0  0  0
    8.5711  -13.1649   22.0213 C   0  0  0  0  0  0  0  0  0  0  0  0
    7.9774  -14.2216   22.7016 C   0  0  0  0  0  0  0  0  0  0  0  0
    7.6558  -17.8766   21.6317 C   0  0  0  0  0  0  0  0  0  0  0  0
    8.2382  -18.6587   22.4273 O   0  0  0  0  0  0  0  0  0  0  0  0
    9.8337  -18.1245   18.5894 C   0  0  0  0  0  0  0  0  0  0  0  0
    9.6333  -18.2248   20.1088 C   0  0  2  0  0  0  0  0  0  0  0  0
    8.3724  -17.5842   20.4178 N   0  0  0  0  0  0  0  0  0  0  0  0
   10.7247  -17.4217   20.7123 C   0  0  0  0  0  0  0  0  0  0  0  0
   11.9109  -17.7250   20.4405 O   0  0  0  0  0  0  0  0  0  0  0  0
   10.4627  -16.3250   21.5845 N   0  0  0  0  0  0  0  0  0  0  0  0
   11.6040  -15.6145   22.1218 C   0  0  0  0  0  0  0  0  0  0  0  0
   12.0849  -16.2788   23.3562 C   0  0  0  0  0  0  0  0  0  0  0  0
   11.5992  -17.3579   23.7577 O   0  0  0  0  0  0  0  0  0  0  0  0
   13.1074  -15.7201   24.1242 O   0  0  0  0  0  0  0  0  0  0  0  0
  2  1  1  1
  2  3  1  0
  3  4  1  0
  4  5  2  0
  5  6  1  0
  7  6  2  0
  8  7  1  0
  9  4  1  0
  9  8  2  0
 10 14  1  0
 10  2  1  0
 11 10  2  0
 13 12  1  6
 13 14  1  0
 15 13  1  0
 15 17  1  0
 16 15  2  0
 18 17  1  0
 18 19  1  0
 19 21  1  0
 20 19  2  0
M  END
$$$$
