FAG.pdb
     RDKit          3D

 21 21  0  0  1  0  0  0  0  0999 V2000
    6.0502  -17.9865   25.6266 N   0  0  0  0  0  0  0  0  0  0  0  0
    6.4803  -16.6234   25.4097 C   0  0  1  0  0  0  0  0  0  0  0  0
    7.3637  -16.2045   26.5581 C   0  0  0  0  0  0  0  0  0  0  0  0
    7.4760  -14.7212   26.5185 C   0  0  0  0  0  0  0  0  0  0  0  0
    8.6957  -14.0950   26.3037 C   0  0  0  0  0  0  0  0  0  0  0  0
    8.7683  -12.7322   26.2725 C   0  0  0  0  0  0  0  0  0  0  0  0
    7.6562  -11.9478   26.4495 C   0  0  0  0  0  0  0  0  0  0  0  0
    6.4304  -12.5653   26.6652 C   0  0  0  0  0  0  0  0  0  0  0  0
    6.3553  -13.9528   26.6972 C   0  0  0  0  0  0  0  0  0  0  0  0
    7.1542  -16.5498   24.1079 C   0  0  0  0  0  0  0  0  0  0  0  0
    7.8877  -17.4796   23.6820 O   0  0  0  0  0  0  0  0  0  0  0  0
    7.0252  -14.1959   21.1617 C   0  0  0  0  0  0  0  0  0  0  0  0
    7.5955  -15.4151   21.9013 C   0  0  2  0  0  0  0  0  0  0  0  0
    7.0242  -15.4151   23.2316 N   0  0  0  0  0  0  0  0  0  0  0  0
    9.0534  -15.1679   22.0199 C   0  0  0  0  0  0  0  0  0  0  0  0
    9.7429  -15.1441   20.9727 O   0  0  0  0  0  0  0  0  0  0  0  0
    9.6844  -14.9589   23.2809 N   0  0  0  0  0  0  0  0  0  0  0  0
   11.0927  -14.6229   23.2729 C   0  0  0  0  0  0  0  0  0  0  0  0
   11.9093  -15.8373   23.5066 C   0  0  0  0  0  0  0  0  0  0  0  0
   11.4172  -16.9847   23.4525 O   0  0  0  0  0  0  0  0  0  0  0  0
   13.2707  -15.7455   23.7987 O   0  0  0  0  0  0  0  0  0  0  0  0
  2  1  1  1
  2  3  1  0
  3  4  1  0
  4  5  2  0
  5  6  1  0
  7  6  2  0
  8  7  1  0
  9  4  1  0
  9  8  2  0
 10 14  1  0
 10  2  1  0
 11 10  2  0
 13 12  1  6
 13 14  1  0
 15 13  1  0
 15 17  1  0
 16 15  2  0
 18 17  1  0
 18 19  1  0
 19 21  1  0
 20 19  2  0
M  END
$$$$
