FAG.pdb
     RDKit          3D

 21 21  0  0  1  0  0  0  0  0999 V2000
    9.3332  -16.0279   22.8714 N   0  0  0  0  0  0  0  0  0  0  0  0
    8.9079  -15.1526   23.9405 C   0  0  1  0  0  0  0  0  0  0  0  0
    7.4014  -15.1686   24.0111 C   0  0  0  0  0  0  0  0  0  0  0  0
    6.9804  -14.0166   24.8536 C   0  0  0  0  0  0  0  0  0  0  0  0
    7.4029  -12.7247   24.5734 C   0  0  0  0  0  0  0  0  0  0  0  0
    7.0004  -11.6873   25.3641 C   0  0  0  0  0  0  0  0  0  0  0  0
    6.1779  -11.8830   26.4452 C   0  0  0  0  0  0  0  0  0  0  0  0
    5.7495  -13.1728   26.7339 C   0  0  0  0  0  0  0  0  0  0  0  0
    6.1587  -14.2299   25.9296 C   0  0  0  0  0  0  0  0  0  0  0  0
    9.5476  -15.5940   25.1856 C   0  0  0  0  0  0  0  0  0  0  0  0
   10.0469  -16.7426   25.3090 O   0  0  0  0  0  0  0  0  0  0  0  0
   10.4026  -13.9588   28.4861 C   0  0  0  0  0  0  0  0  0  0  0  0
   10.4303  -15.1372   27.5014 C   0  0  2  0  0  0  0  0  0  0  0  0
    9.6484  -14.7488   26.3465 N   0  0  0  0  0  0  0  0  0  0  0  0
    9.7291  -16.2504   28.1865 C   0  0  0  0  0  0  0  0  0  0  0  0
   10.2731  -16.7733   29.1883 O   0  0  0  0  0  0  0  0  0  0  0  0
    8.4656  -16.7364   27.7401 N   0  0  0  0  0  0  0  0  0  0  0  0
    7.8725  -17.8288   28.4824 C   0  0  0  0  0  0  0  0  0  0  0  0
    8.1795  -19.1205   27.8239 C   0  0  0  0  0  0  0  0  0  0  0  0
    7.4267  -19.6158   26.9581 O   0  0  0  0  0  0  0  0  0  0  0  0
    9.3306  -19.8395   28.1482 O   0  0  0  0  0  0  0  0  0  0  0  0
  2  1  1  6
  2  3  1  0
  3  4  1  0
  4  5  2  0
  5  6  1  0
  7  6  2  0
  8  7  1  0
  9  4  1  0
  9  8  2  0
 10 14  1  0
 10  2  1  0
 11 10  2  0
 13 12  1  1
 13 14  1  0
 15 13  1  0
 15 17  1  0
 16 15  2  0
 18 17  1  0
 18 19  1  0
 19 21  1  0
 20 19  2  0
M  END
$$$$
