YKV.pdb
     RDKit          3D

 29 29  0  0  1  0  0  0  0  0999 V2000
   11.5698  -14.0664  -15.4978 O   0  0  0  0  0  0  0  0  0  0  0  0
   12.7523  -13.3660  -15.4716 C   0  0  0  0  0  0  0  0  0  0  0  0
   13.7483  -13.8202  -14.6355 C   0  0  0  0  0  0  0  0  0  0  0  0
   14.9444  -13.1382  -14.5883 C   0  0  0  0  0  0  0  0  0  0  0  0
   15.1902  -12.0155  -15.3448 C   0  0  0  0  0  0  0  0  0  0  0  0
   16.5039  -11.3376  -15.2386 C   0  0  0  0  0  0  0  0  0  0  0  0
   17.4343  -11.7629  -16.3530 C   0  0  2  0  0  0  0  0  0  0  0  0
   17.8639  -13.1328  -16.1406 N   0  0  0  0  0  0  0  0  0  0  0  0
   18.6259  -10.8782  -16.4374 C   0  0  0  0  0  0  0  0  0  0  0  0
   19.6311  -11.0765  -15.6954 O   0  0  0  0  0  0  0  0  0  0  0  0
   14.1689  -11.5837  -16.1759 C   0  0  0  0  0  0  0  0  0  0  0  0
   12.9632  -12.2553  -16.2357 C   0  0  0  0  0  0  0  0  0  0  0  0
   18.7025   -9.7833  -17.3357 N   0  0  0  0  0  0  0  0  0  0  0  0
   19.9313   -8.9508  -17.4074 C   0  0  1  0  0  0  0  0  0  0  0  0
   20.0313   -8.3050  -18.7466 C   0  0  0  0  0  0  0  0  0  0  0  0
   21.2529   -7.4529  -18.8796 C   0  0  0  0  0  0  0  0  0  0  0  0
   21.3464   -6.8189  -20.2626 C   0  0  0  0  0  0  0  0  0  0  0  0
   22.6583   -6.0497  -20.2943 C   0  0  0  0  0  0  0  0  0  0  0  0
   22.9240   -5.5039  -21.6032 N   0  0  0  0  0  0  0  0  0  0  0  0
   19.9136   -8.0038  -16.2731 C   0  0  0  0  0  0  0  0  0  0  0  0
   18.9322   -7.2813  -16.0046 O   0  0  0  0  0  0  0  0  0  0  0  0
   22.8048   -8.2955  -13.1034 C   0  0  0  0  0  0  0  0  0  0  0  0
   21.4948   -7.5696  -13.0056 C   0  0  2  0  0  0  0  0  0  0  0  0
   20.4331   -8.5730  -12.5410 C   0  0  0  0  0  0  0  0  0  0  0  0
   21.0768   -6.9266  -14.3135 C   0  0  2  0  0  0  0  0  0  0  0  0
   21.0437   -7.8550  -15.3962 N   0  0  0  0  0  0  0  0  0  0  0  0
   21.9939   -5.7865  -14.5487 C   0  0  0  0  0  0  0  0  0  0  0  0
   22.8186   -5.7696  -15.4961 O   0  0  0  0  0  0  0  0  0  0  0  0
   21.9633   -4.6912  -13.7136 O   0  0  0  0  0  0  0  0  0  0  0  0
  2  1  1  0
  3  2  2  0
  4  3  1  0
  5  4  2  0
  5 11  1  0
  6  5  1  0
  6  7  1  0
  7  9  1  0
  7  8  1  1
  9 10  2  0
 11 12  2  0
 12  2  1  0
 13 14  1  0
 13  9  1  0
 14 15  1  6
 16 15  1  0
 17 16  1  0
 18 19  1  0
 18 17  1  0
 20 26  1  0
 20 14  1  0
 21 20  2  0
 23 22  1  6
 23 24  1  0
 25 26  1  6
 25 23  1  0
 27 29  1  0
 27 25  1  0
 28 27  2  0
M  END
$$$$
