YKV.pdb
     RDKit          3D

 29 29  0  0  1  0  0  0  0  0999 V2000
   29.6266  -14.6284  -17.0671 O   0  0  0  0  0  0  0  0  0  0  0  0
   28.6384  -13.6910  -16.8815 C   0  0  0  0  0  0  0  0  0  0  0  0
   28.7908  -12.4680  -17.4968 C   0  0  0  0  0  0  0  0  0  0  0  0
   27.8163  -11.5089  -17.3287 C   0  0  0  0  0  0  0  0  0  0  0  0
   26.6894  -11.7197  -16.5678 C   0  0  0  0  0  0  0  0  0  0  0  0
   25.6854  -10.6374  -16.4358 C   0  0  0  0  0  0  0  0  0  0  0  0
   24.3623  -11.0361  -17.0512 C   0  0  2  0  0  0  0  0  0  0  0  0
   24.5433  -11.3318  -18.4604 N   0  0  0  0  0  0  0  0  0  0  0  0
   23.3432   -9.9648  -16.8973 C   0  0  0  0  0  0  0  0  0  0  0  0
   23.3845   -8.9261  -17.6184 O   0  0  0  0  0  0  0  0  0  0  0  0
   26.5651  -12.9597  -15.9618 C   0  0  0  0  0  0  0  0  0  0  0  0
   27.5325  -13.9330  -16.1197 C   0  0  0  0  0  0  0  0  0  0  0  0
   22.2883  -10.0438  -15.9526 N   0  0  0  0  0  0  0  0  0  0  0  0
   21.2053   -9.0264  -15.9444 C   0  0  1  0  0  0  0  0  0  0  0  0
   19.9364   -9.6374  -15.4576 C   0  0  0  0  0  0  0  0  0  0  0  0
   19.3313  -10.5699  -16.4579 C   0  0  0  0  0  0  0  0  0  0  0  0
   18.4920  -11.6485  -15.7829 C   0  0  0  0  0  0  0  0  0  0  0  0
   17.8520  -12.4567  -16.9013 C   0  0  0  0  0  0  0  0  0  0  0  0
   17.0280  -13.5221  -16.3839 N   0  0  0  0  0  0  0  0  0  0  0  0
   21.6674   -7.8672  -15.1528 C   0  0  0  0  0  0  0  0  0  0  0  0
   22.3222   -7.9816  -14.0966 O   0  0  0  0  0  0  0  0  0  0  0  0
   22.5675   -2.9748  -14.9494 C   0  0  0  0  0  0  0  0  0  0  0  0
   22.1183   -4.1842  -15.7163 C   0  0  2  0  0  0  0  0  0  0  0  0
   20.8725   -3.7967  -16.5209 C   0  0  0  0  0  0  0  0  0  0  0  0
   21.8213   -5.3730  -14.8234 C   0  0  2  0  0  0  0  0  0  0  0  0
   21.3862   -6.5162  -15.5575 N   0  0  0  0  0  0  0  0  0  0  0  0
   20.8389   -4.9199  -13.8106 C   0  0  0  0  0  0  0  0  0  0  0  0
   19.6235   -5.2331  -13.8634 O   0  0  0  0  0  0  0  0  0  0  0  0
   21.2448   -4.1247  -12.7613 O   0  0  0  0  0  0  0  0  0  0  0  0
  2  1  1  0
  3  2  2  0
  4  3  1  0
  5  4  2  0
  5 11  1  0
  6  5  1  0
  6  7  1  0
  7  9  1  0
  7  8  1  6
  9 10  2  0
 11 12  2  0
 12  2  1  0
 13 14  1  0
 13  9  1  0
 14 15  1  1
 16 15  1  0
 17 16  1  0
 18 19  1  0
 18 17  1  0
 20 26  1  0
 20 14  1  0
 21 20  2  0
 23 22  1  1
 23 24  1  0
 25 26  1  6
 25 23  1  0
 27 29  1  0
 27 25  1  0
 28 27  2  0
M  END
$$$$
