YKV.pdb
     RDKit          3D

 29 29  0  0  1  0  0  0  0  0999 V2000
   17.7614  -18.0698  -15.4389 O   0  0  0  0  0  0  0  0  0  0  0  0
   18.2236  -16.7773  -15.5135 C   0  0  0  0  0  0  0  0  0  0  0  0
   17.2990  -15.7761  -15.7136 C   0  0  0  0  0  0  0  0  0  0  0  0
   17.7332  -14.4710  -15.7926 C   0  0  0  0  0  0  0  0  0  0  0  0
   19.0590  -14.1207  -15.6796 C   0  0  0  0  0  0  0  0  0  0  0  0
   19.4470  -12.6934  -15.7750 C   0  0  0  0  0  0  0  0  0  0  0  0
   19.1936  -12.1458  -17.1622 C   0  0  2  0  0  0  0  0  0  0  0  0
   20.0798  -12.7882  -18.1152 N   0  0  0  0  0  0  0  0  0  0  0  0
   19.3950  -10.6739  -17.2137 C   0  0  0  0  0  0  0  0  0  0  0  0
   20.5583  -10.1793  -17.1633 O   0  0  0  0  0  0  0  0  0  0  0  0
   19.9645  -15.1502  -15.4789 C   0  0  0  0  0  0  0  0  0  0  0  0
   19.5467  -16.4644  -15.3973 C   0  0  0  0  0  0  0  0  0  0  0  0
   18.3168   -9.7585  -17.3196 N   0  0  0  0  0  0  0  0  0  0  0  0
   18.5731   -8.2968  -17.3979 C   0  0  1  0  0  0  0  0  0  0  0  0
   17.3604   -7.5937  -17.9032 C   0  0  0  0  0  0  0  0  0  0  0  0
   17.5382   -6.1096  -17.9484 C   0  0  0  0  0  0  0  0  0  0  0  0
   17.8013   -5.6194  -19.3674 C   0  0  0  0  0  0  0  0  0  0  0  0
   17.9828   -4.1120  -19.2739 C   0  0  0  0  0  0  0  0  0  0  0  0
   18.1369   -3.5125  -20.5772 N   0  0  0  0  0  0  0  0  0  0  0  0
   19.0362   -7.8381  -16.0716 C   0  0  0  0  0  0  0  0  0  0  0  0
   18.6244   -8.3274  -15.0000 O   0  0  0  0  0  0  0  0  0  0  0  0
   22.1901   -5.0612  -13.3715 C   0  0  0  0  0  0  0  0  0  0  0  0
   21.7715   -5.6187  -14.7007 C   0  0  2  0  0  0  0  0  0  0  0  0
   21.8333   -4.4835  -15.7289 C   0  0  0  0  0  0  0  0  0  0  0  0
   20.3852   -6.2319  -14.6739 C   0  0  2  0  0  0  0  0  0  0  0  0
   20.0043   -6.7838  -15.9332 N   0  0  0  0  0  0  0  0  0  0  0  0
   19.4565   -5.1832  -14.1903 C   0  0  0  0  0  0  0  0  0  0  0  0
   18.6832   -4.5608  -14.9601 O   0  0  0  0  0  0  0  0  0  0  0  0
   19.4180   -4.8577  -12.8521 O   0  0  0  0  0  0  0  0  0  0  0  0
  2  1  1  0
  3  2  2  0
  4  3  1  0
  5  4  2  0
  5 11  1  0
  6  5  1  0
  6  7  1  0
  7  9  1  0
  7  8  1  6
  9 10  2  0
 11 12  2  0
 12  2  1  0
 13 14  1  0
 13  9  1  0
 14 15  1  1
 16 15  1  0
 17 16  1  0
 18 19  1  0
 18 17  1  0
 20 26  1  0
 20 14  1  0
 21 20  2  0
 23 22  1  1
 23 24  1  0
 25 26  1  6
 25 23  1  0
 27 29  1  0
 27 25  1  0
 28 27  2  0
M  END
$$$$
