YKV.pdb
     RDKit          3D

 29 29  0  0  1  0  0  0  0  0999 V2000
   28.8833  -19.7764   -3.5841 O   0  0  0  0  0  0  0  0  0  0  0  0
   28.3320  -19.7635   -4.8433 C   0  0  0  0  0  0  0  0  0  0  0  0
   28.8305  -18.8566   -5.7524 C   0  0  0  0  0  0  0  0  0  0  0  0
   28.2974  -18.8208   -7.0222 C   0  0  0  0  0  0  0  0  0  0  0  0
   27.2817  -19.6568   -7.4257 C   0  0  0  0  0  0  0  0  0  0  0  0
   26.7618  -19.5574   -8.8101 C   0  0  0  0  0  0  0  0  0  0  0  0
   27.1209  -20.7823   -9.6220 C   0  0  2  0  0  0  0  0  0  0  0  0
   28.5615  -20.9569   -9.6397 N   0  0  0  0  0  0  0  0  0  0  0  0
   26.6177  -20.6799  -11.0170 C   0  0  0  0  0  0  0  0  0  0  0  0
   27.1761  -19.9085  -11.8498 O   0  0  0  0  0  0  0  0  0  0  0  0
   26.8017  -20.5577   -6.4886 C   0  0  0  0  0  0  0  0  0  0  0  0
   27.3246  -20.6073   -5.2109 C   0  0  0  0  0  0  0  0  0  0  0  0
   25.5055  -21.4254  -11.4846 N   0  0  0  0  0  0  0  0  0  0  0  0
   25.0972  -21.3563  -12.9118 C   0  0  1  0  0  0  0  0  0  0  0  0
   25.4857  -22.6118  -13.6139 C   0  0  0  0  0  0  0  0  0  0  0  0
   25.1819  -22.5651  -15.0773 C   0  0  0  0  0  0  0  0  0  0  0  0
   26.3297  -21.9489  -15.8688 C   0  0  0  0  0  0  0  0  0  0  0  0
   25.8659  -21.8825  -17.3160 C   0  0  0  0  0  0  0  0  0  0  0  0
   26.0090  -23.1556  -17.9797 N   0  0  0  0  0  0  0  0  0  0  0  0
   23.6524  -21.0501  -12.9638 C   0  0  0  0  0  0  0  0  0  0  0  0
   22.8164  -21.5795  -12.2034 O   0  0  0  0  0  0  0  0  0  0  0  0
   19.9971  -18.2372  -14.9469 C   0  0  0  0  0  0  0  0  0  0  0  0
   21.4433  -18.6385  -14.9316 C   0  0  2  0  0  0  0  0  0  0  0  0
   21.8496  -18.9933  -16.3664 C   0  0  0  0  0  0  0  0  0  0  0  0
   21.7235  -19.8019  -14.0007 C   0  0  2  0  0  0  0  0  0  0  0  0
   23.1137  -20.1090  -13.9085 N   0  0  0  0  0  0  0  0  0  0  0  0
   20.9029  -20.9422  -14.4723 C   0  0  0  0  0  0  0  0  0  0  0  0
   21.3062  -21.7450  -15.3503 O   0  0  0  0  0  0  0  0  0  0  0  0
   19.6473  -21.1543  -13.9464 O   0  0  0  0  0  0  0  0  0  0  0  0
  2  1  1  0
  3  2  2  0
  4  3  1  0
  5  4  2  0
  5 11  1  0
  6  5  1  0
  6  7  1  0
  7  9  1  0
  7  8  1  6
  9 10  2  0
 11 12  2  0
 12  2  1  0
 13 14  1  0
 13  9  1  0
 14 15  1  1
 16 15  1  0
 17 16  1  0
 18 19  1  0
 18 17  1  0
 20 26  1  0
 20 14  1  0
 21 20  2  0
 23 22  1  6
 23 24  1  0
 25 26  1  6
 25 23  1  0
 27 29  1  0
 27 25  1  0
 28 27  2  0
M  END
$$$$
