YKV.pdb
     RDKit          3D

 29 29  0  0  1  0  0  0  0  0999 V2000
   28.7881  -19.5114   -5.3633 O   0  0  0  0  0  0  0  0  0  0  0  0
   28.2790  -19.6465   -6.6330 C   0  0  0  0  0  0  0  0  0  0  0  0
   29.1360  -20.0664   -7.6263 C   0  0  0  0  0  0  0  0  0  0  0  0
   28.6536  -20.2108   -8.9087 C   0  0  0  0  0  0  0  0  0  0  0  0
   27.3443  -19.9524   -9.2438 C   0  0  0  0  0  0  0  0  0  0  0  0
   26.9013  -20.1323  -10.6466 C   0  0  0  0  0  0  0  0  0  0  0  0
   26.1336  -21.4242  -10.8199 C   0  0  2  0  0  0  0  0  0  0  0  0
   27.0494  -22.5023  -11.1440 N   0  0  0  0  0  0  0  0  0  0  0  0
   25.1059  -21.3100  -11.8879 C   0  0  0  0  0  0  0  0  0  0  0  0
   25.4091  -21.5110  -13.0996 O   0  0  0  0  0  0  0  0  0  0  0  0
   26.5072  -19.5318   -8.2227 C   0  0  0  0  0  0  0  0  0  0  0  0
   26.9741  -19.3816   -6.9313 C   0  0  0  0  0  0  0  0  0  0  0  0
   23.7548  -20.9757  -11.6156 N   0  0  0  0  0  0  0  0  0  0  0  0
   22.7101  -21.1480  -12.6583 C   0  0  1  0  0  0  0  0  0  0  0  0
   21.4064  -21.4875  -12.0215 C   0  0  0  0  0  0  0  0  0  0  0  0
   20.3458  -21.8055  -13.0266 C   0  0  0  0  0  0  0  0  0  0  0  0
   20.6139  -23.1344  -13.7234 C   0  0  0  0  0  0  0  0  0  0  0  0
   19.4490  -23.3629  -14.6744 C   0  0  0  0  0  0  0  0  0  0  0  0
   19.8025  -23.0421  -16.0361 N   0  0  0  0  0  0  0  0  0  0  0  0
   22.6832  -19.9270  -13.4904 C   0  0  0  0  0  0  0  0  0  0  0  0
   22.5338  -18.7827  -13.0155 O   0  0  0  0  0  0  0  0  0  0  0  0
   23.6596  -20.0335  -17.7588 C   0  0  0  0  0  0  0  0  0  0  0  0
   23.7134  -18.8160  -16.8828 C   0  0  2  0  0  0  0  0  0  0  0  0
   25.1290  -18.7138  -16.3036 C   0  0  0  0  0  0  0  0  0  0  0  0
   22.6874  -18.8452  -15.7670 C   0  0  2  0  0  0  0  0  0  0  0  0
   22.8296  -19.9843  -14.9198 N   0  0  0  0  0  0  0  0  0  0  0  0
   21.3521  -18.7528  -16.4032 C   0  0  0  0  0  0  0  0  0  0  0  0
   20.9626  -17.7215  -17.0053 O   0  0  0  0  0  0  0  0  0  0  0  0
   20.4848  -19.8218  -16.3481 O   0  0  0  0  0  0  0  0  0  0  0  0
  2  1  1  0
  3  2  2  0
  4  3  1  0
  5  4  2  0
  5 11  1  0
  6  5  1  0
  6  7  1  0
  7  9  1  0
  7  8  1  6
  9 10  2  0
 11 12  2  0
 12  2  1  0
 13 14  1  0
 13  9  1  0
 14 15  1  1
 16 15  1  0
 17 16  1  0
 18 19  1  0
 18 17  1  0
 20 26  1  0
 20 14  1  0
 21 20  2  0
 23 22  1  1
 23 24  1  0
 25 26  1  6
 25 23  1  0
 27 29  1  0
 27 25  1  0
 28 27  2  0
M  END
$$$$
