YKV.pdb
     RDKit          3D

 29 29  0  0  1  0  0  0  0  0999 V2000
   19.0399  -24.6815   -7.0372 O   0  0  0  0  0  0  0  0  0  0  0  0
   19.7185  -23.6697   -7.6739 C   0  0  0  0  0  0  0  0  0  0  0  0
   20.6460  -22.9606   -6.9429 C   0  0  0  0  0  0  0  0  0  0  0  0
   21.3415  -21.9407   -7.5546 C   0  0  0  0  0  0  0  0  0  0  0  0
   21.1494  -21.5965   -8.8729 C   0  0  0  0  0  0  0  0  0  0  0  0
   21.9376  -20.4867   -9.4593 C   0  0  0  0  0  0  0  0  0  0  0  0
   22.9440  -20.9986  -10.4661 C   0  0  2  0  0  0  0  0  0  0  0  0
   24.2908  -20.7310   -9.9965 N   0  0  0  0  0  0  0  0  0  0  0  0
   22.7508  -20.3703  -11.7994 C   0  0  0  0  0  0  0  0  0  0  0  0
   23.1766  -19.2015  -12.0301 O   0  0  0  0  0  0  0  0  0  0  0  0
   20.2099  -22.3283   -9.5814 C   0  0  0  0  0  0  0  0  0  0  0  0
   19.5035  -23.3541   -8.9839 C   0  0  0  0  0  0  0  0  0  0  0  0
   22.0915  -21.0311  -12.8672 N   0  0  0  0  0  0  0  0  0  0  0  0
   21.9969  -20.3930  -14.2058 C   0  0  1  0  0  0  0  0  0  0  0  0
   22.2610  -21.4016  -15.2704 C   0  0  0  0  0  0  0  0  0  0  0  0
   22.1728  -20.8179  -16.6444 C   0  0  0  0  0  0  0  0  0  0  0  0
   23.5320  -20.3341  -17.1364 C   0  0  0  0  0  0  0  0  0  0  0  0
   23.3177  -19.8196  -18.5517 C   0  0  0  0  0  0  0  0  0  0  0  0
   22.8667  -20.8666  -19.4361 N   0  0  0  0  0  0  0  0  0  0  0  0
   20.6811  -19.7282  -14.3079 C   0  0  0  0  0  0  0  0  0  0  0  0
   19.6271  -20.2339  -13.8713 O   0  0  0  0  0  0  0  0  0  0  0  0
   20.3224  -15.6122  -15.7909 C   0  0  0  0  0  0  0  0  0  0  0  0
   19.3610  -16.2885  -14.8576 C   0  0  2  0  0  0  0  0  0  0  0  0
   19.8076  -15.9892  -13.4221 C   0  0  0  0  0  0  0  0  0  0  0  0
   19.2741  -17.7854  -15.0821 C   0  0  2  0  0  0  0  0  0  0  0  0
   20.5330  -18.4383  -14.9262 N   0  0  0  0  0  0  0  0  0  0  0  0
   18.6717  -17.9889  -16.4207 C   0  0  0  0  0  0  0  0  0  0  0  0
   19.2923  -18.5433  -17.3616 O   0  0  0  0  0  0  0  0  0  0  0  0
   17.3852  -17.5644  -16.6714 O   0  0  0  0  0  0  0  0  0  0  0  0
  2  1  1  0
  3  2  2  0
  4  3  1  0
  5  4  2  0
  5 11  1  0
  6  5  1  0
  6  7  1  0
  7  9  1  0
  7  8  1  1
  9 10  2  0
 11 12  2  0
 12  2  1  0
 13 14  1  0
 13  9  1  0
 14 15  1  6
 16 15  1  0
 17 16  1  0
 18 19  1  0
 18 17  1  0
 20 26  1  0
 20 14  1  0
 21 20  2  0
 23 22  1  6
 23 24  1  0
 25 26  1  6
 25 23  1  0
 27 29  1  0
 27 25  1  0
 28 27  2  0
M  END
$$$$
