YKV.pdb
     RDKit          3D

 29 29  0  0  1  0  0  0  0  0999 V2000
   32.1180  -12.6509  -17.2681 O   0  0  0  0  0  0  0  0  0  0  0  0
   30.9853  -11.8720  -17.2673 C   0  0  0  0  0  0  0  0  0  0  0  0
   29.8324  -12.4171  -16.7468 C   0  0  0  0  0  0  0  0  0  0  0  0
   28.6817  -11.6597  -16.7329 C   0  0  0  0  0  0  0  0  0  0  0  0
   28.6325  -10.3735  -17.2194 C   0  0  0  0  0  0  0  0  0  0  0  0
   27.3557   -9.6227  -17.1684 C   0  0  0  0  0  0  0  0  0  0  0  0
   26.3744  -10.1352  -18.1993 C   0  0  2  0  0  0  0  0  0  0  0  0
   26.9413  -10.0016  -19.5286 N   0  0  0  0  0  0  0  0  0  0  0  0
   25.0829   -9.4020  -18.1362 C   0  0  0  0  0  0  0  0  0  0  0  0
   24.9181   -8.3277  -18.7836 O   0  0  0  0  0  0  0  0  0  0  0  0
   29.8084   -9.8535  -17.7362 C   0  0  0  0  0  0  0  0  0  0  0  0
   30.9712  -10.5988  -17.7581 C   0  0  0  0  0  0  0  0  0  0  0  0
   23.9841   -9.8550  -17.3622 N   0  0  0  0  0  0  0  0  0  0  0  0
   22.6597   -9.1900  -17.4708 C   0  0  1  0  0  0  0  0  0  0  0  0
   21.5827  -10.2145  -17.5752 C   0  0  0  0  0  0  0  0  0  0  0  0
   20.2310   -9.6044  -17.7674 C   0  0  0  0  0  0  0  0  0  0  0  0
   19.1673  -10.6664  -18.0206 C   0  0  0  0  0  0  0  0  0  0  0  0
   17.8672   -9.9191  -18.2755 C   0  0  0  0  0  0  0  0  0  0  0  0
   16.8233  -10.8063  -18.7286 N   0  0  0  0  0  0  0  0  0  0  0  0
   22.5130   -8.2648  -16.3279 C   0  0  0  0  0  0  0  0  0  0  0  0
   22.7856   -8.5855  -15.1530 O   0  0  0  0  0  0  0  0  0  0  0  0
   23.7593   -4.5348  -16.2274 C   0  0  0  0  0  0  0  0  0  0  0  0
   22.3279   -4.5954  -15.7804 C   0  0  2  0  0  0  0  0  0  0  0  0
   22.1703   -3.6619  -14.5748 C   0  0  0  0  0  0  0  0  0  0  0  0
   21.8795   -5.9990  -15.4234 C   0  0  2  0  0  0  0  0  0  0  0  0
   22.0400   -6.9181  -16.5027 N   0  0  0  0  0  0  0  0  0  0  0  0
   20.4808   -5.8986  -14.9440 C   0  0  0  0  0  0  0  0  0  0  0  0
   19.4965   -6.1683  -15.6764 O   0  0  0  0  0  0  0  0  0  0  0  0
   20.2201   -5.4973  -13.6521 O   0  0  0  0  0  0  0  0  0  0  0  0
  2  1  1  0
  3  2  2  0
  4  3  1  0
  5  4  2  0
  5 11  1  0
  6  5  1  0
  6  7  1  0
  7  9  1  0
  7  8  1  6
  9 10  2  0
 11 12  2  0
 12  2  1  0
 13 14  1  0
 13  9  1  0
 14 15  1  1
 16 15  1  0
 17 16  1  0
 18 19  1  0
 18 17  1  0
 20 26  1  0
 20 14  1  0
 21 20  2  0
 23 22  1  1
 23 24  1  0
 25 26  1  6
 25 23  1  0
 27 29  1  0
 27 25  1  0
 28 27  2  0
M  END
$$$$
