YKV.pdb
     RDKit          3D

 29 29  0  0  1  0  0  0  0  0999 V2000
   17.3439  -22.5116  -13.2817 O   0  0  0  0  0  0  0  0  0  0  0  0
   18.4259  -21.7840  -13.7169 C   0  0  0  0  0  0  0  0  0  0  0  0
   19.6820  -22.2922  -13.4693 C   0  0  0  0  0  0  0  0  0  0  0  0
   20.7852  -21.5847  -13.8939 C   0  0  0  0  0  0  0  0  0  0  0  0
   20.6875  -20.3842  -14.5591 C   0  0  0  0  0  0  0  0  0  0  0  0
   21.9222  -19.6833  -14.9844 C   0  0  0  0  0  0  0  0  0  0  0  0
   22.2634  -19.9949  -16.4249 C   0  0  2  0  0  0  0  0  0  0  0  0
   22.6687  -21.3831  -16.5463 N   0  0  0  0  0  0  0  0  0  0  0  0
   23.3501  -19.1161  -16.9314 C   0  0  0  0  0  0  0  0  0  0  0  0
   24.5602  -19.3620  -16.6563 O   0  0  0  0  0  0  0  0  0  0  0  0
   19.4106  -19.8994  -14.7931 C   0  0  0  0  0  0  0  0  0  0  0  0
   18.2934  -20.5956  -14.3744 C   0  0  0  0  0  0  0  0  0  0  0  0
   23.0979  -17.9750  -17.7350 N   0  0  0  0  0  0  0  0  0  0  0  0
   24.2216  -17.2236  -18.3521 C   0  0  1  0  0  0  0  0  0  0  0  0
   23.9962  -17.0842  -19.8185 C   0  0  0  0  0  0  0  0  0  0  0  0
   23.9835  -18.4036  -20.5222 C   0  0  0  0  0  0  0  0  0  0  0  0
   23.7646  -18.2374  -22.0215 C   0  0  0  0  0  0  0  0  0  0  0  0
   23.6956  -19.6411  -22.6032 C   0  0  0  0  0  0  0  0  0  0  0  0
   24.9021  -20.3869  -22.3387 N   0  0  0  0  0  0  0  0  0  0  0  0
   24.3690  -15.9412  -17.6327 C   0  0  0  0  0  0  0  0  0  0  0  0
   23.4123  -15.1714  -17.4103 O   0  0  0  0  0  0  0  0  0  0  0  0
   27.1389  -13.0162  -14.7037 C   0  0  0  0  0  0  0  0  0  0  0  0
   26.9412  -14.3160  -15.4277 C   0  0  2  0  0  0  0  0  0  0  0  0
   28.2678  -14.6884  -16.0994 C   0  0  0  0  0  0  0  0  0  0  0  0
   25.8278  -14.2565  -16.4550 C   0  0  2  0  0  0  0  0  0  0  0  0
   25.6436  -15.4956  -17.1377 N   0  0  0  0  0  0  0  0  0  0  0  0
   26.1368  -13.1280  -17.3645 C   0  0  0  0  0  0  0  0  0  0  0  0
   26.0049  -11.9279  -17.0181 O   0  0  0  0  0  0  0  0  0  0  0  0
   26.5871  -13.3743  -18.6431 O   0  0  0  0  0  0  0  0  0  0  0  0
  2  1  1  0
  3  2  2  0
  4  3  1  0
  5  4  2  0
  5 11  1  0
  6  5  1  0
  6  7  1  0
  7  9  1  0
  7  8  1  1
  9 10  2  0
 11 12  2  0
 12  2  1  0
 13 14  1  0
 13  9  1  0
 14 15  1  6
 16 15  1  0
 17 16  1  0
 18 19  1  0
 18 17  1  0
 20 26  1  0
 20 14  1  0
 21 20  2  0
 23 22  1  6
 23 24  1  0
 25 26  1  6
 25 23  1  0
 27 29  1  0
 27 25  1  0
 28 27  2  0
M  END
$$$$
