YKV.pdb
     RDKit          3D

 29 29  0  0  1  0  0  0  0  0999 V2000
   13.7946  -15.5421  -19.6512 O   0  0  0  0  0  0  0  0  0  0  0  0
   14.8355  -14.8531  -19.0753 C   0  0  0  0  0  0  0  0  0  0  0  0
   15.1124  -13.5916  -19.5540 C   0  0  0  0  0  0  0  0  0  0  0  0
   16.1499  -12.8774  -18.9961 C   0  0  0  0  0  0  0  0  0  0  0  0
   16.9277  -13.3719  -17.9743 C   0  0  0  0  0  0  0  0  0  0  0  0
   18.0261  -12.5415  -17.4262 C   0  0  0  0  0  0  0  0  0  0  0  0
   19.2567  -12.6080  -18.3036 C   0  0  2  0  0  0  0  0  0  0  0  0
   19.9075  -13.8952  -18.1429 N   0  0  0  0  0  0  0  0  0  0  0  0
   20.2191  -11.5229  -17.9781 C   0  0  0  0  0  0  0  0  0  0  0  0
   21.0726  -11.6719  -17.0563 O   0  0  0  0  0  0  0  0  0  0  0  0
   16.6243  -14.6435  -17.5146 C   0  0  0  0  0  0  0  0  0  0  0  0
   15.5875  -15.3736  -18.0626 C   0  0  0  0  0  0  0  0  0  0  0  0
   20.2351  -10.2836  -18.6677 N   0  0  0  0  0  0  0  0  0  0  0  0
   21.2071   -9.2240  -18.2925 C   0  0  1  0  0  0  0  0  0  0  0  0
   21.5945   -8.4386  -19.4981 C   0  0  0  0  0  0  0  0  0  0  0  0
   22.4349   -7.2492  -19.1587 C   0  0  0  0  0  0  0  0  0  0  0  0
   23.8104   -7.3301  -19.8107 C   0  0  0  0  0  0  0  0  0  0  0  0
   24.5183   -6.0245  -19.4823 C   0  0  0  0  0  0  0  0  0  0  0  0
   25.8252   -5.9600  -20.0903 N   0  0  0  0  0  0  0  0  0  0  0  0
   20.6144   -8.4189  -17.2042 C   0  0  0  0  0  0  0  0  0  0  0  0
   19.5407   -7.7948  -17.3262 O   0  0  0  0  0  0  0  0  0  0  0  0
   21.8230   -8.9226  -13.0964 C   0  0  0  0  0  0  0  0  0  0  0  0
   20.5531   -8.2780  -13.5703 C   0  0  2  0  0  0  0  0  0  0  0  0
   19.5038   -9.3805  -13.7523 C   0  0  0  0  0  0  0  0  0  0  0  0
   20.7308   -7.5005  -14.8598 C   0  0  2  0  0  0  0  0  0  0  0  0
   21.2488   -8.3041  -15.9187 N   0  0  0  0  0  0  0  0  0  0  0  0
   21.5813   -6.3283  -14.5456 C   0  0  0  0  0  0  0  0  0  0  0  0
   22.7408   -6.1934  -15.0096 O   0  0  0  0  0  0  0  0  0  0  0  0
   21.1091   -5.3341  -13.7169 O   0  0  0  0  0  0  0  0  0  0  0  0
  2  1  1  0
  3  2  2  0
  4  3  1  0
  5  4  2  0
  5 11  1  0
  6  5  1  0
  6  7  1  0
  7  9  1  0
  7  8  1  1
  9 10  2  0
 11 12  2  0
 12  2  1  0
 13 14  1  0
 13  9  1  0
 14 15  1  6
 16 15  1  0
 17 16  1  0
 18 19  1  0
 18 17  1  0
 20 26  1  0
 20 14  1  0
 21 20  2  0
 23 22  1  6
 23 24  1  0
 25 26  1  6
 25 23  1  0
 27 29  1  0
 27 25  1  0
 28 27  2  0
M  END
$$$$
