YKV.pdb
     RDKit          3D

 29 29  0  0  1  0  0  0  0  0999 V2000
   21.4431  -22.0126   -7.2081 O   0  0  0  0  0  0  0  0  0  0  0  0
   22.4416  -21.5341   -8.0227 C   0  0  0  0  0  0  0  0  0  0  0  0
   22.1303  -21.2872   -9.3415 C   0  0  0  0  0  0  0  0  0  0  0  0
   23.1110  -20.8071  -10.1816 C   0  0  0  0  0  0  0  0  0  0  0  0
   24.3971  -20.5617   -9.7587 C   0  0  0  0  0  0  0  0  0  0  0  0
   25.3961  -20.0445  -10.7237 C   0  0  0  0  0  0  0  0  0  0  0  0
   25.6135  -21.0148  -11.8638 C   0  0  2  0  0  0  0  0  0  0  0  0
   26.3209  -22.1879  -11.3846 N   0  0  0  0  0  0  0  0  0  0  0  0
   26.3830  -20.3915  -12.9724 C   0  0  0  0  0  0  0  0  0  0  0  0
   27.6336  -20.2260  -12.8770 O   0  0  0  0  0  0  0  0  0  0  0  0
   24.6791  -20.8200   -8.4268 C   0  0  0  0  0  0  0  0  0  0  0  0
   23.7079  -21.3015   -7.5705 C   0  0  0  0  0  0  0  0  0  0  0  0
   25.7720  -19.9552  -14.1757 N   0  0  0  0  0  0  0  0  0  0  0  0
   26.5867  -19.3400  -15.2555 C   0  0  1  0  0  0  0  0  0  0  0  0
   26.8320  -20.3345  -16.3377 C   0  0  0  0  0  0  0  0  0  0  0  0
   27.6987  -19.7899  -17.4279 C   0  0  0  0  0  0  0  0  0  0  0  0
   27.9989  -20.8455  -18.4857 C   0  0  0  0  0  0  0  0  0  0  0  0
   28.9126  -20.1831  -19.5056 C   0  0  0  0  0  0  0  0  0  0  0  0
   29.2682  -21.0900  -20.5700 N   0  0  0  0  0  0  0  0  0  0  0  0
   25.9048  -18.1075  -15.7025 C   0  0  0  0  0  0  0  0  0  0  0  0
   24.6855  -18.0608  -15.9643 O   0  0  0  0  0  0  0  0  0  0  0  0
   26.1005  -13.1426  -16.2443 C   0  0  0  0  0  0  0  0  0  0  0  0
   26.8143  -14.4280  -15.9429 C   0  0  2  0  0  0  0  0  0  0  0  0
   28.1263  -14.4361  -16.7355 C   0  0  0  0  0  0  0  0  0  0  0  0
   25.9882  -15.6547  -16.2770 C   0  0  2  0  0  0  0  0  0  0  0  0
   26.6157  -16.8681  -15.8655 N   0  0  0  0  0  0  0  0  0  0  0  0
   25.7075  -15.6056  -17.7313 C   0  0  0  0  0  0  0  0  0  0  0  0
   26.5806  -15.8683  -18.5953 O   0  0  0  0  0  0  0  0  0  0  0  0
   24.4515  -15.2622  -18.1814 O   0  0  0  0  0  0  0  0  0  0  0  0
  2  1  1  0
  3  2  2  0
  4  3  1  0
  5  4  2  0
  5 11  1  0
  6  5  1  0
  6  7  1  0
  7  9  1  0
  7  8  1  1
  9 10  2  0
 11 12  2  0
 12  2  1  0
 13 14  1  0
 13  9  1  0
 14 15  1  6
 16 15  1  0
 17 16  1  0
 18 19  1  0
 18 17  1  0
 20 26  1  0
 20 14  1  0
 21 20  2  0
 23 22  1  6
 23 24  1  0
 25 26  1  6
 25 23  1  0
 27 29  1  0
 27 25  1  0
 28 27  2  0
M  END
$$$$
