YKV.pdb
     RDKit          3D

 29 29  0  0  1  0  0  0  0  0999 V2000
   30.7043  -16.6428  -19.3044 O   0  0  0  0  0  0  0  0  0  0  0  0
   29.7053  -17.3031  -18.6294 C   0  0  0  0  0  0  0  0  0  0  0  0
   29.7356  -17.2767  -17.2525 C   0  0  0  0  0  0  0  0  0  0  0  0
   28.7473  -17.9298  -16.5493 C   0  0  0  0  0  0  0  0  0  0  0  0
   27.7237  -18.6122  -17.1655 C   0  0  0  0  0  0  0  0  0  0  0  0
   26.6969  -19.2895  -16.3387 C   0  0  0  0  0  0  0  0  0  0  0  0
   27.3046  -20.3935  -15.5019 C   0  0  2  0  0  0  0  0  0  0  0  0
   27.8065  -21.4468  -16.3650 N   0  0  0  0  0  0  0  0  0  0  0  0
   26.3165  -20.9636  -14.5488 C   0  0  0  0  0  0  0  0  0  0  0  0
   25.6154  -21.9668  -14.8687 O   0  0  0  0  0  0  0  0  0  0  0  0
   27.7208  -18.6204  -18.5513 C   0  0  0  0  0  0  0  0  0  0  0  0
   28.7039  -17.9709  -19.2723 C   0  0  0  0  0  0  0  0  0  0  0  0
   26.1072  -20.4264  -13.2530 N   0  0  0  0  0  0  0  0  0  0  0  0
   25.0165  -20.9463  -12.3879 C   0  0  1  0  0  0  0  0  0  0  0  0
   25.2779  -20.5846  -10.9663 C   0  0  0  0  0  0  0  0  0  0  0  0
   24.2152  -21.0903  -10.0438 C   0  0  0  0  0  0  0  0  0  0  0  0
   24.5321  -20.7614   -8.5895 C   0  0  0  0  0  0  0  0  0  0  0  0
   23.4496  -21.4270   -7.7534 C   0  0  0  0  0  0  0  0  0  0  0  0
   23.6685  -21.2260   -6.3415 N   0  0  0  0  0  0  0  0  0  0  0  0
   23.7302  -20.4478  -12.9178 C   0  0  0  0  0  0  0  0  0  0  0  0
   23.5084  -19.2404  -13.1421 O   0  0  0  0  0  0  0  0  0  0  0  0
   20.9526  -22.8206  -15.1906 C   0  0  0  0  0  0  0  0  0  0  0  0
   21.0149  -21.3281  -15.0451 C   0  0  2  0  0  0  0  0  0  0  0  0
   22.0594  -20.8008  -16.0354 C   0  0  0  0  0  0  0  0  0  0  0  0
   21.3538  -20.8857  -13.6350 C   0  0  2  0  0  0  0  0  0  0  0  0
   22.6392  -21.3374  -13.2117 N   0  0  0  0  0  0  0  0  0  0  0  0
   20.2529  -21.3501  -12.7585 C   0  0  0  0  0  0  0  0  0  0  0  0
   20.4190  -22.2287  -11.8762 O   0  0  0  0  0  0  0  0  0  0  0  0
   18.9899  -20.8164  -12.8935 O   0  0  0  0  0  0  0  0  0  0  0  0
  2  1  1  0
  3  2  2  0
  4  3  1  0
  5  4  2  0
  5 11  1  0
  6  5  1  0
  6  7  1  0
  7  9  1  0
  7  8  1  6
  9 10  2  0
 11 12  2  0
 12  2  1  0
 13 14  1  0
 13  9  1  0
 14 15  1  1
 16 15  1  0
 17 16  1  0
 18 19  1  0
 18 17  1  0
 20 26  1  0
 20 14  1  0
 21 20  2  0
 23 22  1  1
 23 24  1  0
 25 26  1  1
 25 23  1  0
 27 29  1  0
 27 25  1  0
 28 27  2  0
M  END
$$$$
