YKV.pdb
     RDKit          3D

 29 29  0  0  1  0  0  0  0  0999 V2000
   28.9774  -19.8365   -4.5124 O   0  0  0  0  0  0  0  0  0  0  0  0
   28.2353  -19.9589   -5.6630 C   0  0  0  0  0  0  0  0  0  0  0  0
   27.8376  -18.8018   -6.2958 C   0  0  0  0  0  0  0  0  0  0  0  0
   27.0928  -18.8936   -7.4511 C   0  0  0  0  0  0  0  0  0  0  0  0
   26.7258  -20.0985   -8.0050 C   0  0  0  0  0  0  0  0  0  0  0  0
   25.9238  -20.1143   -9.2513 C   0  0  0  0  0  0  0  0  0  0  0  0
   26.5314  -21.0366  -10.2850 C   0  0  2  0  0  0  0  0  0  0  0  0
   27.9096  -20.6567  -10.5352 N   0  0  0  0  0  0  0  0  0  0  0  0
   25.7698  -21.0042  -11.5612 C   0  0  0  0  0  0  0  0  0  0  0  0
   25.7845  -19.9743  -12.2958 O   0  0  0  0  0  0  0  0  0  0  0  0
   27.1409  -21.2442   -7.3452 C   0  0  0  0  0  0  0  0  0  0  0  0
   27.8882  -21.1706   -6.1857 C   0  0  0  0  0  0  0  0  0  0  0  0
   24.9985  -22.1029  -12.0188 N   0  0  0  0  0  0  0  0  0  0  0  0
   24.2840  -22.0333  -13.3199 C   0  0  1  0  0  0  0  0  0  0  0  0
   24.1658  -23.3968  -13.9093 C   0  0  0  0  0  0  0  0  0  0  0  0
   25.3807  -23.7896  -14.6877 C   0  0  0  0  0  0  0  0  0  0  0  0
   25.2051  -25.1499  -15.3525 C   0  0  0  0  0  0  0  0  0  0  0  0
   26.3945  -25.3291  -16.2837 C   0  0  0  0  0  0  0  0  0  0  0  0
   26.3374  -26.5896  -16.9835 N   0  0  0  0  0  0  0  0  0  0  0  0
   22.9926  -21.3491  -13.1009 C   0  0  0  0  0  0  0  0  0  0  0  0
   22.3443  -21.4423  -12.0386 O   0  0  0  0  0  0  0  0  0  0  0  0
   19.6814  -17.9599  -14.7045 C   0  0  0  0  0  0  0  0  0  0  0  0
   21.0533  -18.5680  -14.7317 C   0  0  2  0  0  0  0  0  0  0  0  0
   21.4347  -18.8059  -16.1972 C   0  0  0  0  0  0  0  0  0  0  0  0
   21.1415  -19.8620  -13.9466 C   0  0  2  0  0  0  0  0  0  0  0  0
   22.3953  -20.5217  -14.1142 N   0  0  0  0  0  0  0  0  0  0  0  0
   19.9841  -20.6945  -14.3511 C   0  0  0  0  0  0  0  0  0  0  0  0
   18.8129  -20.4523  -13.9671 O   0  0  0  0  0  0  0  0  0  0  0  0
   20.1696  -21.7806  -15.1783 O   0  0  0  0  0  0  0  0  0  0  0  0
  2  1  1  0
  3  2  2  0
  4  3  1  0
  5  4  2  0
  5 11  1  0
  6  5  1  0
  6  7  1  0
  7  9  1  0
  7  8  1  6
  9 10  2  0
 11 12  2  0
 12  2  1  0
 13 14  1  0
 13  9  1  0
 14 15  1  1
 16 15  1  0
 17 16  1  0
 18 19  1  0
 18 17  1  0
 20 26  1  0
 20 14  1  0
 21 20  2  0
 23 22  1  6
 23 24  1  0
 25 26  1  6
 25 23  1  0
 27 29  1  0
 27 25  1  0
 28 27  2  0
M  END
$$$$
