YKV.pdb
     RDKit          3D

 29 29  0  0  1  0  0  0  0  0999 V2000
   29.4305  -20.0261   -3.5097 O   0  0  0  0  0  0  0  0  0  0  0  0
   28.7367  -19.8599   -4.6847 C   0  0  0  0  0  0  0  0  0  0  0  0
   28.9799  -20.7528   -5.7049 C   0  0  0  0  0  0  0  0  0  0  0  0
   28.2991  -20.6109   -6.8942 C   0  0  0  0  0  0  0  0  0  0  0  0
   27.3804  -19.6096   -7.1097 C   0  0  0  0  0  0  0  0  0  0  0  0
   26.6882  -19.5239   -8.4175 C   0  0  0  0  0  0  0  0  0  0  0  0
   27.2295  -20.5442   -9.3944 C   0  0  2  0  0  0  0  0  0  0  0  0
   28.6023  -20.2202   -9.7356 N   0  0  0  0  0  0  0  0  0  0  0  0
   26.4116  -20.6007  -10.6345 C   0  0  0  0  0  0  0  0  0  0  0  0
   26.4871  -19.6812  -11.5001 O   0  0  0  0  0  0  0  0  0  0  0  0
   27.1578  -18.7274   -6.0645 C   0  0  0  0  0  0  0  0  0  0  0  0
   27.8316  -18.8548   -4.8654 C   0  0  0  0  0  0  0  0  0  0  0  0
   25.5180  -21.6664  -10.9125 N   0  0  0  0  0  0  0  0  0  0  0  0
   24.7943  -21.7253  -12.2091 C   0  0  1  0  0  0  0  0  0  0  0  0
   25.1362  -22.9860  -12.9261 C   0  0  0  0  0  0  0  0  0  0  0  0
   24.3968  -23.1262  -14.2184 C   0  0  0  0  0  0  0  0  0  0  0  0
   24.7690  -24.4162  -14.9402 C   0  0  0  0  0  0  0  0  0  0  0  0
   23.5692  -25.3421  -14.8100 C   0  0  0  0  0  0  0  0  0  0  0  0
   23.8023  -26.6098  -15.4585 N   0  0  0  0  0  0  0  0  0  0  0  0
   23.3519  -21.5479  -11.9406 C   0  0  0  0  0  0  0  0  0  0  0  0
   22.7860  -22.0093  -10.9285 O   0  0  0  0  0  0  0  0  0  0  0  0
   21.0789  -18.6909  -14.2379 C   0  0  0  0  0  0  0  0  0  0  0  0
   20.6957  -19.1652  -12.8665 C   0  0  2  0  0  0  0  0  0  0  0  0
   21.3409  -18.2228  -11.8441 C   0  0  0  0  0  0  0  0  0  0  0  0
   21.1119  -20.5984  -12.5995 C   0  0  2  0  0  0  0  0  0  0  0  0
   22.4998  -20.8218  -12.8431 N   0  0  0  0  0  0  0  0  0  0  0  0
   20.2283  -21.4655  -13.4140 C   0  0  0  0  0  0  0  0  0  0  0  0
   20.6536  -22.1363  -14.3871 O   0  0  0  0  0  0  0  0  0  0  0  0
   18.8864  -21.5588  -13.1162 O   0  0  0  0  0  0  0  0  0  0  0  0
  2  1  1  0
  3  2  2  0
  4  3  1  0
  5  4  2  0
  5 11  1  0
  6  5  1  0
  6  7  1  0
  7  9  1  0
  7  8  1  6
  9 10  2  0
 11 12  2  0
 12  2  1  0
 13 14  1  0
 13  9  1  0
 14 15  1  1
 16 15  1  0
 17 16  1  0
 18 19  1  0
 18 17  1  0
 20 26  1  0
 20 14  1  0
 21 20  2  0
 23 22  1  6
 23 24  1  0
 25 26  1  6
 25 23  1  0
 27 29  1  0
 27 25  1  0
 28 27  2  0
M  END
$$$$
