YKV.pdb
     RDKit          3D

 29 29  0  0  1  0  0  0  0  0999 V2000
   25.2055  -11.1625  -18.4255 O   0  0  0  0  0  0  0  0  0  0  0  0
   24.6965  -12.3761  -18.0283 C   0  0  0  0  0  0  0  0  0  0  0  0
   23.7412  -12.9636  -18.8280 C   0  0  0  0  0  0  0  0  0  0  0  0
   23.2129  -14.1800  -18.4551 C   0  0  0  0  0  0  0  0  0  0  0  0
   23.6000  -14.8391  -17.3109 C   0  0  0  0  0  0  0  0  0  0  0  0
   22.9849  -16.1459  -16.9784 C   0  0  0  0  0  0  0  0  0  0  0  0
   23.8845  -17.2949  -17.3770 C   0  0  2  0  0  0  0  0  0  0  0  0
   24.0235  -17.3341  -18.8210 N   0  0  0  0  0  0  0  0  0  0  0  0
   23.3534  -18.5971  -16.8954 C   0  0  0  0  0  0  0  0  0  0  0  0
   22.3345  -19.1180  -17.4349 O   0  0  0  0  0  0  0  0  0  0  0  0
   24.5626  -14.2226  -16.5276 C   0  0  0  0  0  0  0  0  0  0  0  0
   25.1029  -13.0029  -16.8864 C   0  0  0  0  0  0  0  0  0  0  0  0
   23.9457  -19.3152  -15.8254 N   0  0  0  0  0  0  0  0  0  0  0  0
   23.4529  -20.6690  -15.4612 C   0  0  1  0  0  0  0  0  0  0  0  0
   24.5830  -21.5073  -14.9707 C   0  0  0  0  0  0  0  0  0  0  0  0
   25.5143  -21.9094  -16.0694 C   0  0  0  0  0  0  0  0  0  0  0  0
   26.5092  -22.9657  -15.6027 C   0  0  0  0  0  0  0  0  0  0  0  0
   27.4328  -23.2354  -16.7808 C   0  0  0  0  0  0  0  0  0  0  0  0
   28.4017  -24.2596  -16.4741 N   0  0  0  0  0  0  0  0  0  0  0  0
   22.3455  -20.5122  -14.4953 C   0  0  0  0  0  0  0  0  0  0  0  0
   22.4727  -19.9209  -13.4037 O   0  0  0  0  0  0  0  0  0  0  0  0
   17.5189  -21.2832  -14.4239 C   0  0  0  0  0  0  0  0  0  0  0  0
   18.6934  -20.3546  -14.5281 C   0  0  2  0  0  0  0  0  0  0  0  0
   18.9599  -20.0962  -16.0153 C   0  0  0  0  0  0  0  0  0  0  0  0
   19.9383  -20.8991  -13.8556 C   0  0  2  0  0  0  0  0  0  0  0  0
   21.0337  -21.0395  -14.7587 N   0  0  0  0  0  0  0  0  0  0  0  0
   19.5553  -22.1712  -13.1988 C   0  0  0  0  0  0  0  0  0  0  0  0
   18.7774  -22.2131  -12.2134 O   0  0  0  0  0  0  0  0  0  0  0  0
   20.0554  -23.3674  -13.6646 O   0  0  0  0  0  0  0  0  0  0  0  0
  2  1  1  0
  3  2  2  0
  4  3  1  0
  5  4  2  0
  5 11  1  0
  6  5  1  0
  6  7  1  0
  7  9  1  0
  7  8  1  6
  9 10  2  0
 11 12  2  0
 12  2  1  0
 13 14  1  0
 13  9  1  0
 14 15  1  1
 16 15  1  0
 17 16  1  0
 18 19  1  0
 18 17  1  0
 20 26  1  0
 20 14  1  0
 21 20  2  0
 23 22  1  6
 23 24  1  0
 25 26  1  6
 25 23  1  0
 27 29  1  0
 27 25  1  0
 28 27  2  0
M  END
$$$$
