CER.pdb
     RDKit          3D

 27 26  0  0  1  0  0  0  0  0999 V2000
   25.3236  -20.4303   -9.0819 N   0  0  0  0  0  0  0  0  0  0  0  0
   24.1503  -20.9442   -9.7870 C   0  0  1  0  0  0  0  0  0  0  0  0
   22.9381  -20.3120   -9.1013 C   0  0  0  0  0  0  0  0  0  0  0  0
   22.7262  -21.1460   -7.4959 S   0  0  0  0  0  0  0  0  0  0  0  0
   24.2318  -20.4211  -11.1716 C   0  0  0  0  0  0  0  0  0  0  0  0
   24.1097  -19.1811  -11.3279 O   0  0  0  0  0  0  0  0  0  0  0  0
   24.4361  -21.2168  -12.3207 N   0  0  0  0  0  0  0  0  0  0  0  0
   24.5433  -20.6157  -13.6034 C   0  0  1  0  0  0  0  0  0  0  0  0
   25.4983  -21.3299  -14.5322 C   0  0  0  0  0  0  0  0  0  0  0  0
   26.5502  -20.3776  -15.0711 C   0  0  0  0  0  0  0  0  0  0  0  0
   27.5601  -21.0933  -15.8898 C   0  0  0  0  0  0  0  0  0  0  0  0
   27.5216  -22.3477  -15.9492 O   0  0  0  0  0  0  0  0  0  0  0  0
   23.1749  -20.6555  -14.2301 C   0  0  0  0  0  0  0  0  0  0  0  0
   22.3742  -21.5686  -13.8934 O   0  0  0  0  0  0  0  0  0  0  0  0
   28.5420  -20.4250  -16.5892 O   0  0  0  0  0  0  0  0  0  0  0  0
   15.6259  -19.2961  -15.0444 N   0  0  0  0  0  0  0  0  0  0  0  0
   16.3307  -19.2082  -13.8076 C   0  0  0  0  0  0  0  0  0  0  0  0
   15.8015  -19.7149  -12.7493 N   0  0  0  0  0  0  0  0  0  0  0  0
   17.5959  -18.5815  -13.7023 N   0  0  0  0  0  0  0  0  0  0  0  0
   18.1957  -17.8710  -14.8403 C   0  0  0  0  0  0  0  0  0  0  0  0
   19.1035  -18.7962  -15.6213 C   0  0  0  0  0  0  0  0  0  0  0  0
   20.4631  -18.8635  -14.9622 C   0  0  0  0  0  0  0  0  0  0  0  0
   21.4392  -19.6751  -15.7857 C   0  0  2  0  0  0  0  0  0  0  0  0
   22.7532  -19.7131  -15.1777 N   0  0  0  0  0  0  0  0  0  0  0  0
   21.5606  -19.0706  -17.1210 C   0  0  0  0  0  0  0  0  0  0  0  0
   22.2591  -18.0563  -17.2950 O   0  0  0  0  0  0  0  0  0  0  0  0
   20.8959  -19.6311  -18.1891 O   0  0  0  0  0  0  0  0  0  0  0  0
  2  1  1  1
  2  3  1  0
  3  4  1  0
  5  6  2  0
  5  2  1  0
  7  5  1  0
  8  7  1  0
  8  9  1  6
 10 11  1  0
 10  9  1  0
 11 15  1  0
 12 11  2  0
 13 24  1  0
 13  8  1  0
 14 13  2  0
 17 16  1  0
 18 17  2  0
 19 17  1  0
 20 19  1  0
 21 20  1  0
 22 21  1  0
 23 22  1  1
 23 24  1  0
 25 23  1  0
 25 27  1  0
 26 25  2  0
M  END
$$$$
