CER.pdb
     RDKit          3D

 27 26  0  0  1  0  0  0  0  0999 V2000
   27.8916  -20.6385  -10.4554 N   0  0  0  0  0  0  0  0  0  0  0  0
   26.5631  -21.1638  -10.1437 C   0  0  1  0  0  0  0  0  0  0  0  0
   26.0825  -20.3886   -8.9159 C   0  0  0  0  0  0  0  0  0  0  0  0
   27.3574  -20.5681   -7.6274 S   0  0  0  0  0  0  0  0  0  0  0  0
   25.6936  -20.8107  -11.2913 C   0  0  0  0  0  0  0  0  0  0  0  0
   25.3236  -19.6147  -11.3880 O   0  0  0  0  0  0  0  0  0  0  0  0
   25.2553  -21.7218  -12.2777 N   0  0  0  0  0  0  0  0  0  0  0  0
   24.4984  -21.2688  -13.3913 C   0  0  1  0  0  0  0  0  0  0  0  0
   25.2204  -21.4025  -14.7126 C   0  0  0  0  0  0  0  0  0  0  0  0
   26.6458  -20.8915  -14.6098 C   0  0  0  0  0  0  0  0  0  0  0  0
   27.3939  -21.1159  -15.8718 C   0  0  0  0  0  0  0  0  0  0  0  0
   28.1861  -22.0880  -15.9484 O   0  0  0  0  0  0  0  0  0  0  0  0
   23.2545  -22.1143  -13.4584 C   0  0  0  0  0  0  0  0  0  0  0  0
   23.2669  -23.2631  -12.9405 O   0  0  0  0  0  0  0  0  0  0  0  0
   27.2476  -20.2903  -16.9659 O   0  0  0  0  0  0  0  0  0  0  0  0
   16.0858  -23.3677  -11.0583 N   0  0  0  0  0  0  0  0  0  0  0  0
   17.0183  -23.9565  -10.1539 C   0  0  0  0  0  0  0  0  0  0  0  0
   16.7057  -25.0557   -9.5615 N   0  0  0  0  0  0  0  0  0  0  0  0
   18.2797  -23.3732   -9.8839 N   0  0  0  0  0  0  0  0  0  0  0  0
   18.6927  -22.1138  -10.5187 C   0  0  0  0  0  0  0  0  0  0  0  0
   18.9864  -22.3340  -11.9868 C   0  0  0  0  0  0  0  0  0  0  0  0
   20.4012  -21.9014  -12.3012 C   0  0  0  0  0  0  0  0  0  0  0  0
   20.7435  -22.1388  -13.7558 C   0  0  2  0  0  0  0  0  0  0  0  0
   22.0768  -21.6729  -14.0768 N   0  0  0  0  0  0  0  0  0  0  0  0
   19.7810  -21.4156  -14.6006 C   0  0  0  0  0  0  0  0  0  0  0  0
   18.6939  -21.9356  -14.9084 O   0  0  0  0  0  0  0  0  0  0  0  0
   20.0843  -20.1515  -15.0556 O   0  0  0  0  0  0  0  0  0  0  0  0
  2  1  1  6
  2  3  1  0
  3  4  1  0
  5  6  2  0
  5  2  1  0
  7  5  1  0
  8  7  1  0
  8  9  1  6
 10 11  1  0
 10  9  1  0
 11 15  1  0
 12 11  2  0
 13 24  1  0
 13  8  1  0
 14 13  2  0
 17 16  1  0
 18 17  2  0
 19 17  1  0
 20 19  1  0
 21 20  1  0
 22 21  1  0
 23 22  1  1
 23 24  1  0
 25 23  1  0
 25 27  1  0
 26 25  2  0
M  END
$$$$
