CER.pdb
     RDKit          3D

 27 26  0  0  1  0  0  0  0  0999 V2000
   27.4579  -21.1725  -15.3174 N   0  0  0  0  0  0  0  0  0  0  0  0
   26.7745  -20.4200  -14.2664 C   0  0  1  0  0  0  0  0  0  0  0  0
   27.1659  -18.9563  -14.4756 C   0  0  0  0  0  0  0  0  0  0  0  0
   28.7957  -18.7139  -13.6991 S   0  0  0  0  0  0  0  0  0  0  0  0
   25.3222  -20.5593  -14.5288 C   0  0  0  0  0  0  0  0  0  0  0  0
   24.9598  -20.6626  -15.7266 O   0  0  0  0  0  0  0  0  0  0  0  0
   24.3236  -20.5838  -13.5300 N   0  0  0  0  0  0  0  0  0  0  0  0
   22.9623  -20.7943  -13.8773 C   0  0  1  0  0  0  0  0  0  0  0  0
   22.1232  -21.3418  -12.7455 C   0  0  0  0  0  0  0  0  0  0  0  0
   20.6713  -21.4869  -13.1633 C   0  0  0  0  0  0  0  0  0  0  0  0
   19.8561  -22.0989  -12.0847 C   0  0  0  0  0  0  0  0  0  0  0  0
   20.4128  -22.4217  -11.0056 O   0  0  0  0  0  0  0  0  0  0  0  0
   22.3907  -19.4579  -14.2699 C   0  0  0  0  0  0  0  0  0  0  0  0
   22.6115  -18.4583  -13.5348 O   0  0  0  0  0  0  0  0  0  0  0  0
   18.5040  -22.3254  -12.2283 O   0  0  0  0  0  0  0  0  0  0  0  0
   21.9141  -15.9993  -21.9787 N   0  0  0  0  0  0  0  0  0  0  0  0
   22.8000  -16.1173  -20.8672 C   0  0  0  0  0  0  0  0  0  0  0  0
   24.0699  -16.1118  -21.0768 N   0  0  0  0  0  0  0  0  0  0  0  0
   22.3305  -16.2406  -19.5372 N   0  0  0  0  0  0  0  0  0  0  0  0
   20.8940  -16.2268  -19.2278 C   0  0  0  0  0  0  0  0  0  0  0  0
   20.6710  -16.4373  -17.7459 C   0  0  0  0  0  0  0  0  0  0  0  0
   21.3000  -17.7415  -17.3089 C   0  0  0  0  0  0  0  0  0  0  0  0
   21.0293  -18.0256  -15.8475 C   0  0  2  0  0  0  0  0  0  0  0  0
   21.6190  -19.2795  -15.4260 N   0  0  0  0  0  0  0  0  0  0  0  0
   19.5762  -18.0984  -15.6330 C   0  0  0  0  0  0  0  0  0  0  0  0
   18.9727  -19.1795  -15.7508 O   0  0  0  0  0  0  0  0  0  0  0  0
   18.8758  -16.9605  -15.2986 O   0  0  0  0  0  0  0  0  0  0  0  0
  2  1  1  6
  2  3  1  0
  3  4  1  0
  5  6  2  0
  5  2  1  0
  7  5  1  0
  8  7  1  0
  8  9  1  1
 10 11  1  0
 10  9  1  0
 11 15  1  0
 12 11  2  0
 13 24  1  0
 13  8  1  0
 14 13  2  0
 17 16  1  0
 18 17  2  0
 19 17  1  0
 20 19  1  0
 21 20  1  0
 22 21  1  0
 23 22  1  6
 23 24  1  0
 25 23  1  0
 25 27  1  0
 26 25  2  0
M  END
$$$$
