CER.pdb
     RDKit          3D

 27 26  0  0  1  0  0  0  0  0999 V2000
   27.8575  -20.8616   -8.5104 N   0  0  0  0  0  0  0  0  0  0  0  0
   26.7320  -20.1662   -7.8878 C   0  0  1  0  0  0  0  0  0  0  0  0
   27.1011  -18.6820   -7.8921 C   0  0  0  0  0  0  0  0  0  0  0  0
   28.1628  -18.3824   -6.4426 S   0  0  0  0  0  0  0  0  0  0  0  0
   25.5696  -20.3632   -8.7864 C   0  0  0  0  0  0  0  0  0  0  0  0
   25.8061  -20.5178  -10.0099 O   0  0  0  0  0  0  0  0  0  0  0  0
   24.2221  -20.3888   -8.3636 N   0  0  0  0  0  0  0  0  0  0  0  0
   23.2299  -21.0242   -9.1574 C   0  0  1  0  0  0  0  0  0  0  0  0
   21.9497  -21.3193   -8.4100 C   0  0  0  0  0  0  0  0  0  0  0  0
   22.1957  -22.2872   -7.2670 C   0  0  0  0  0  0  0  0  0  0  0  0
   20.9279  -22.6632   -6.5933 C   0  0  0  0  0  0  0  0  0  0  0  0
   20.3641  -23.7408   -6.9085 O   0  0  0  0  0  0  0  0  0  0  0  0
   22.8976  -20.0882  -10.2888 C   0  0  0  0  0  0  0  0  0  0  0  0
   22.8531  -18.8489  -10.0646 O   0  0  0  0  0  0  0  0  0  0  0  0
   20.3468  -21.8664   -5.6303 O   0  0  0  0  0  0  0  0  0  0  0  0
   25.2164  -18.6074  -17.7836 N   0  0  0  0  0  0  0  0  0  0  0  0
   23.8773  -18.5175  -18.2662 C   0  0  0  0  0  0  0  0  0  0  0  0
   23.6723  -18.1005  -19.4665 N   0  0  0  0  0  0  0  0  0  0  0  0
   22.7620  -18.8721  -17.4694 N   0  0  0  0  0  0  0  0  0  0  0  0
   22.8885  -19.8196  -16.3533 C   0  0  0  0  0  0  0  0  0  0  0  0
   23.0887  -19.0768  -15.0502 C   0  0  0  0  0  0  0  0  0  0  0  0
   23.2481  -20.0617  -13.9134 C   0  0  0  0  0  0  0  0  0  0  0  0
   22.3794  -19.6898  -12.7315 C   0  0  2  0  0  0  0  0  0  0  0  0
   22.6343  -20.5419  -11.5884 N   0  0  0  0  0  0  0  0  0  0  0  0
   20.9654  -19.8295  -13.1112 C   0  0  0  0  0  0  0  0  0  0  0  0
   20.3908  -20.9284  -13.0167 O   0  0  0  0  0  0  0  0  0  0  0  0
   20.2700  -18.7351  -13.5755 O   0  0  0  0  0  0  0  0  0  0  0  0
  2  1  1  6
  2  3  1  0
  3  4  1  0
  5  6  2  0
  5  2  1  0
  7  5  1  0
  8  7  1  0
  8  9  1  1
 10 11  1  0
 10  9  1  0
 11 15  1  0
 12 11  2  0
 13 24  1  0
 13  8  1  0
 14 13  2  0
 17 16  1  0
 18 17  2  0
 19 17  1  0
 20 19  1  0
 21 20  1  0
 22 21  1  0
 23 22  1  6
 23 24  1  0
 25 23  1  0
 25 27  1  0
 26 25  2  0
M  END
$$$$
