CER.pdb
     RDKit          3D

 27 26  0  0  1  0  0  0  0  0999 V2000
   20.2456  -14.4807  -17.3489 N   0  0  0  0  0  0  0  0  0  0  0  0
   20.6184  -15.0832  -16.0698 C   0  0  1  0  0  0  0  0  0  0  0  0
   19.6118  -16.2088  -15.8266 C   0  0  0  0  0  0  0  0  0  0  0  0
   19.9952  -16.9382  -14.2021 S   0  0  0  0  0  0  0  0  0  0  0  0
   21.9583  -15.6863  -16.2660 C   0  0  0  0  0  0  0  0  0  0  0  0
   22.1878  -16.2339  -17.3725 O   0  0  0  0  0  0  0  0  0  0  0  0
   22.9885  -15.6875  -15.2997 N   0  0  0  0  0  0  0  0  0  0  0  0
   24.2603  -16.2431  -15.6033 C   0  0  1  0  0  0  0  0  0  0  0  0
   25.3924  -15.6473  -14.7983 C   0  0  0  0  0  0  0  0  0  0  0  0
   26.7296  -16.2219  -15.2288 C   0  0  0  0  0  0  0  0  0  0  0  0
   27.2511  -15.5341  -16.4360 C   0  0  0  0  0  0  0  0  0  0  0  0
   28.2680  -15.9958  -17.0116 O   0  0  0  0  0  0  0  0  0  0  0  0
   24.1921  -17.7130  -15.2845 C   0  0  0  0  0  0  0  0  0  0  0  0
   23.6576  -18.0805  -14.2040 O   0  0  0  0  0  0  0  0  0  0  0  0
   26.6547  -14.4018  -16.9482 O   0  0  0  0  0  0  0  0  0  0  0  0
   28.1937  -24.7507  -17.1688 N   0  0  0  0  0  0  0  0  0  0  0  0
   26.8860  -25.3176  -17.2224 C   0  0  0  0  0  0  0  0  0  0  0  0
   26.7143  -26.5311  -16.8291 N   0  0  0  0  0  0  0  0  0  0  0  0
   25.7666  -24.5905  -17.6941 N   0  0  0  0  0  0  0  0  0  0  0  0
   25.8383  -23.1417  -17.9296 C   0  0  0  0  0  0  0  0  0  0  0  0
   25.3452  -22.3844  -16.7157 C   0  0  0  0  0  0  0  0  0  0  0  0
   25.3735  -20.8970  -16.9881 C   0  0  0  0  0  0  0  0  0  0  0  0
   24.7276  -20.1151  -15.8651 C   0  0  2  0  0  0  0  0  0  0  0  0
   24.7016  -18.6944  -16.1455 N   0  0  0  0  0  0  0  0  0  0  0  0
   25.4911  -20.3321  -14.6270 C   0  0  0  0  0  0  0  0  0  0  0  0
   26.5929  -19.7804  -14.4584 O   0  0  0  0  0  0  0  0  0  0  0  0
   24.9831  -21.1529  -13.6445 O   0  0  0  0  0  0  0  0  0  0  0  0
  2  1  1  6
  2  3  1  0
  3  4  1  0
  5  6  2  0
  5  2  1  0
  7  5  1  0
  8  7  1  0
  8  9  1  1
 10 11  1  0
 10  9  1  0
 11 15  1  0
 12 11  2  0
 13 24  1  0
 13  8  1  0
 14 13  2  0
 17 16  1  0
 18 17  2  0
 19 17  1  0
 20 19  1  0
 21 20  1  0
 22 21  1  0
 23 22  1  6
 23 24  1  0
 25 23  1  0
 25 27  1  0
 26 25  2  0
M  END
$$$$
