CER.pdb
     RDKit          3D

 27 26  0  0  1  0  0  0  0  0999 V2000
   18.6539  -13.5282  -16.5519 N   0  0  0  0  0  0  0  0  0  0  0  0
   17.3921  -13.1208  -15.9355 C   0  0  1  0  0  0  0  0  0  0  0  0
   17.5744  -13.3254  -14.4308 C   0  0  0  0  0  0  0  0  0  0  0  0
   17.5352  -15.1195  -14.1183 S   0  0  0  0  0  0  0  0  0  0  0  0
   17.2480  -11.6688  -16.1974 C   0  0  0  0  0  0  0  0  0  0  0  0
   18.2899  -11.0278  -16.4811 O   0  0  0  0  0  0  0  0  0  0  0  0
   16.0267  -10.9608  -16.1502 N   0  0  0  0  0  0  0  0  0  0  0  0
   15.9706   -9.5945  -16.5352 C   0  0  1  0  0  0  0  0  0  0  0  0
   14.7971   -9.2615  -17.4278 C   0  0  0  0  0  0  0  0  0  0  0  0
   14.8946   -9.9940  -18.7535 C   0  0  0  0  0  0  0  0  0  0  0  0
   13.5846  -10.5645  -19.1546 C   0  0  0  0  0  0  0  0  0  0  0  0
   12.5479   -9.8667  -19.0239 O   0  0  0  0  0  0  0  0  0  0  0  0
   15.8363   -8.7815  -15.2751 C   0  0  0  0  0  0  0  0  0  0  0  0
   15.1007   -9.2102  -14.3460 O   0  0  0  0  0  0  0  0  0  0  0  0
   13.4674  -11.8386  -19.6673 O   0  0  0  0  0  0  0  0  0  0  0  0
   22.1468   -6.2235  -10.8416 N   0  0  0  0  0  0  0  0  0  0  0  0
   20.8374   -6.1532  -10.2807 C   0  0  0  0  0  0  0  0  0  0  0  0
   20.6865   -5.6463   -9.1073 N   0  0  0  0  0  0  0  0  0  0  0  0
   19.6940   -6.6227  -10.9711 N   0  0  0  0  0  0  0  0  0  0  0  0
   19.8002   -7.2282  -12.3059 C   0  0  0  0  0  0  0  0  0  0  0  0
   18.4293   -7.6001  -12.8277 C   0  0  0  0  0  0  0  0  0  0  0  0
   17.7153   -6.3651  -13.3301 C   0  0  0  0  0  0  0  0  0  0  0  0
   16.3687   -6.7081  -13.9292 C   0  0  2  0  0  0  0  0  0  0  0  0
   16.4999   -7.5607  -15.0926 N   0  0  0  0  0  0  0  0  0  0  0  0
   15.6926   -5.4666  -14.3348 C   0  0  0  0  0  0  0  0  0  0  0  0
   15.4688   -5.2315  -15.5354 O   0  0  0  0  0  0  0  0  0  0  0  0
   15.3031   -4.5554  -13.3783 O   0  0  0  0  0  0  0  0  0  0  0  0
  2  1  1  6
  2  3  1  0
  3  4  1  0
  5  6  2  0
  5  2  1  0
  7  5  1  0
  8  7  1  0
  8  9  1  6
 10 11  1  0
 10  9  1  0
 11 15  1  0
 12 11  2  0
 13 24  1  0
 13  8  1  0
 14 13  2  0
 17 16  1  0
 18 17  2  0
 19 17  1  0
 20 19  1  0
 21 20  1  0
 22 21  1  0
 23 22  1  6
 23 24  1  0
 25 23  1  0
 25 27  1  0
 26 25  2  0
M  END
$$$$
