CER.pdb
     RDKit          3D

 27 26  0  0  1  0  0  0  0  0999 V2000
   18.9074  -14.5733  -17.4138 N   0  0  0  0  0  0  0  0  0  0  0  0
   18.9653  -13.9353  -16.0994 C   0  0  1  0  0  0  0  0  0  0  0  0
   20.1570  -14.5669  -15.3782 C   0  0  0  0  0  0  0  0  0  0  0  0
   19.5500  -16.0624  -14.5337 S   0  0  0  0  0  0  0  0  0  0  0  0
   19.2681  -12.5046  -16.3417 C   0  0  0  0  0  0  0  0  0  0  0  0
   20.1277  -12.2372  -17.2172 O   0  0  0  0  0  0  0  0  0  0  0  0
   18.6599  -11.4275  -15.6596 N   0  0  0  0  0  0  0  0  0  0  0  0
   19.0102  -10.0868  -15.9723 C   0  0  1  0  0  0  0  0  0  0  0  0
   17.9901   -9.0690  -15.5160 C   0  0  0  0  0  0  0  0  0  0  0  0
   18.3704   -7.6725  -15.9728 C   0  0  0  0  0  0  0  0  0  0  0  0
   17.3333   -6.6791  -15.5985 C   0  0  0  0  0  0  0  0  0  0  0  0
   17.6852   -5.6048  -15.0501 O   0  0  0  0  0  0  0  0  0  0  0  0
   20.3062   -9.7885  -15.2663 C   0  0  0  0  0  0  0  0  0  0  0  0
   20.4813  -10.2270  -14.0979 O   0  0  0  0  0  0  0  0  0  0  0  0
   15.9927   -6.8969  -15.8336 O   0  0  0  0  0  0  0  0  0  0  0  0
   27.6050  -11.8565  -15.3934 N   0  0  0  0  0  0  0  0  0  0  0  0
   26.5971  -11.9282  -16.4001 C   0  0  0  0  0  0  0  0  0  0  0  0
   26.2839  -13.0764  -16.8901 N   0  0  0  0  0  0  0  0  0  0  0  0
   25.9267  -10.7776  -16.8808 N   0  0  0  0  0  0  0  0  0  0  0  0
   26.2208   -9.4407  -16.3464 C   0  0  0  0  0  0  0  0  0  0  0  0
   25.0973   -8.9725  -15.4472 C   0  0  0  0  0  0  0  0  0  0  0  0
   23.7626   -9.2363  -16.1080 C   0  0  0  0  0  0  0  0  0  0  0  0
   22.6136   -8.7545  -15.2493 C   0  0  2  0  0  0  0  0  0  0  0  0
   21.3312   -9.0389  -15.8593 N   0  0  0  0  0  0  0  0  0  0  0  0
   22.7292   -7.3002  -15.0633 C   0  0  0  0  0  0  0  0  0  0  0  0
   22.3922   -6.5179  -15.9696 O   0  0  0  0  0  0  0  0  0  0  0  0
   23.2146   -6.7984  -13.8761 O   0  0  0  0  0  0  0  0  0  0  0  0
  2  1  1  6
  2  3  1  0
  3  4  1  0
  5  6  2  0
  5  2  1  0
  7  5  1  0
  8  7  1  0
  8  9  1  1
 10 11  1  0
 10  9  1  0
 11 15  1  0
 12 11  2  0
 13 24  1  0
 13  8  1  0
 14 13  2  0
 17 16  1  0
 18 17  2  0
 19 17  1  0
 20 19  1  0
 21 20  1  0
 22 21  1  0
 23 22  1  6
 23 24  1  0
 25 23  1  0
 25 27  1  0
 26 25  2  0
M  END
$$$$
