CER.pdb
     RDKit          3D

 27 26  0  0  1  0  0  0  0  0999 V2000
   28.4293  -21.1657  -16.6155 N   0  0  0  0  0  0  0  0  0  0  0  0
   28.1801  -20.1214  -15.6228 C   0  0  1  0  0  0  0  0  0  0  0  0
   27.6309  -18.9247  -16.4009 C   0  0  0  0  0  0  0  0  0  0  0  0
   29.0583  -17.9995  -17.0524 S   0  0  0  0  0  0  0  0  0  0  0  0
   27.1098  -20.6349  -14.7349 C   0  0  0  0  0  0  0  0  0  0  0  0
   26.2947  -21.4532  -15.2277 O   0  0  0  0  0  0  0  0  0  0  0  0
   26.9445  -20.2691  -13.3806 N   0  0  0  0  0  0  0  0  0  0  0  0
   25.8610  -20.7870  -12.6216 C   0  0  1  0  0  0  0  0  0  0  0  0
   25.9868  -20.5413  -11.1355 C   0  0  0  0  0  0  0  0  0  0  0  0
   24.8407  -21.1852  -10.3769 C   0  0  0  0  0  0  0  0  0  0  0  0
   24.9400  -20.9218   -8.9198 C   0  0  0  0  0  0  0  0  0  0  0  0
   25.2303  -21.8680   -8.1458 O   0  0  0  0  0  0  0  0  0  0  0  0
   24.6118  -20.0953  -13.0988 C   0  0  0  0  0  0  0  0  0  0  0  0
   24.7029  -18.9390  -13.5916 O   0  0  0  0  0  0  0  0  0  0  0  0
   24.7235  -19.6695   -8.3861 O   0  0  0  0  0  0  0  0  0  0  0  0
   20.4066  -20.5947  -19.9987 N   0  0  0  0  0  0  0  0  0  0  0  0
   19.9931  -19.8420  -18.8599 C   0  0  0  0  0  0  0  0  0  0  0  0
   19.2605  -18.7980  -19.0332 N   0  0  0  0  0  0  0  0  0  0  0  0
   20.3610  -20.2037  -17.5415 N   0  0  0  0  0  0  0  0  0  0  0  0
   21.2606  -21.3361  -17.2808 C   0  0  0  0  0  0  0  0  0  0  0  0
   21.4555  -21.5237  -15.7919 C   0  0  0  0  0  0  0  0  0  0  0  0
   22.3595  -20.4397  -15.2485 C   0  0  0  0  0  0  0  0  0  0  0  0
   22.1760  -20.2603  -13.7573 C   0  0  2  0  0  0  0  0  0  0  0  0
   23.3448  -20.6886  -13.0169 N   0  0  0  0  0  0  0  0  0  0  0  0
   21.0245  -21.0610  -13.3147 C   0  0  0  0  0  0  0  0  0  0  0  0
   19.8663  -20.6241  -13.4357 O   0  0  0  0  0  0  0  0  0  0  0  0
   21.2284  -22.3056  -12.7613 O   0  0  0  0  0  0  0  0  0  0  0  0
  2  1  1  6
  2  3  1  0
  3  4  1  0
  5  6  2  0
  5  2  1  0
  7  5  1  0
  8  7  1  0
  8  9  1  1
 10 11  1  0
 10  9  1  0
 11 15  1  0
 12 11  2  0
 13 24  1  0
 13  8  1  0
 14 13  2  0
 17 16  1  0
 18 17  2  0
 19 17  1  0
 20 19  1  0
 21 20  1  0
 22 21  1  0
 23 22  1  6
 23 24  1  0
 25 23  1  0
 25 27  1  0
 26 25  2  0
M  END
$$$$
