CER.pdb
     RDKit          3D

 27 26  0  0  1  0  0  0  0  0999 V2000
   28.0733  -20.9971  -16.0840 N   0  0  0  0  0  0  0  0  0  0  0  0
   27.5722  -20.0910  -15.0516 C   0  0  1  0  0  0  0  0  0  0  0  0
   27.2063  -18.7932  -15.7734 C   0  0  0  0  0  0  0  0  0  0  0  0
   28.7644  -17.9878  -16.2652 S   0  0  0  0  0  0  0  0  0  0  0  0
   26.3281  -20.7024  -14.5263 C   0  0  0  0  0  0  0  0  0  0  0  0
   25.6476  -21.3981  -15.3198 O   0  0  0  0  0  0  0  0  0  0  0  0
   25.8580  -20.5571  -13.2022 N   0  0  0  0  0  0  0  0  0  0  0  0
   24.6319  -21.1536  -12.8035 C   0  0  1  0  0  0  0  0  0  0  0  0
   24.3992  -21.1264  -11.3102 C   0  0  0  0  0  0  0  0  0  0  0  0
   25.7146  -21.1097  -10.5531 C   0  0  0  0  0  0  0  0  0  0  0  0
   25.4947  -21.0549   -9.0865 C   0  0  0  0  0  0  0  0  0  0  0  0
   26.4701  -20.8200   -8.3302 O   0  0  0  0  0  0  0  0  0  0  0  0
   23.5230  -20.3723  -13.4568 C   0  0  0  0  0  0  0  0  0  0  0  0
   23.7835  -19.2491  -13.9655 O   0  0  0  0  0  0  0  0  0  0  0  0
   24.2516  -21.2538   -8.5250 O   0  0  0  0  0  0  0  0  0  0  0  0
   18.3004  -22.0028  -18.5759 N   0  0  0  0  0  0  0  0  0  0  0  0
   18.8085  -20.9901  -19.4423 C   0  0  0  0  0  0  0  0  0  0  0  0
   18.0328  -20.4866  -20.3376 N   0  0  0  0  0  0  0  0  0  0  0  0
   20.1400  -20.5175  -19.3521 N   0  0  0  0  0  0  0  0  0  0  0  0
   21.0576  -21.0067  -18.3137 C   0  0  0  0  0  0  0  0  0  0  0  0
   20.6324  -20.5006  -16.9523 C   0  0  0  0  0  0  0  0  0  0  0  0
   21.6590  -20.8906  -15.9124 C   0  0  0  0  0  0  0  0  0  0  0  0
   21.2328  -20.4635  -14.5248 C   0  0  2  0  0  0  0  0  0  0  0  0
   22.2058  -20.8462  -13.5224 N   0  0  0  0  0  0  0  0  0  0  0  0
   19.9498  -21.1036  -14.1975 C   0  0  0  0  0  0  0  0  0  0  0  0
   19.9214  -22.2028  -13.6162 O   0  0  0  0  0  0  0  0  0  0  0  0
   18.7685  -20.4820  -14.5368 O   0  0  0  0  0  0  0  0  0  0  0  0
  2  1  1  6
  2  3  1  0
  3  4  1  0
  5  6  2  0
  5  2  1  0
  7  5  1  0
  8  7  1  0
  8  9  1  1
 10 11  1  0
 10  9  1  0
 11 15  1  0
 12 11  2  0
 13 24  1  0
 13  8  1  0
 14 13  2  0
 17 16  1  0
 18 17  2  0
 19 17  1  0
 20 19  1  0
 21 20  1  0
 22 21  1  0
 23 22  1  6
 23 24  1  0
 25 23  1  0
 25 27  1  0
 26 25  2  0
M  END
$$$$
