CER.pdb
     RDKit          3D

 27 26  0  0  1  0  0  0  0  0999 V2000
   27.8598  -20.4283  -12.8296 N   0  0  0  0  0  0  0  0  0  0  0  0
   26.9026  -21.0438  -11.9115 C   0  0  1  0  0  0  0  0  0  0  0  0
   27.2584  -20.5187  -10.5198 C   0  0  0  0  0  0  0  0  0  0  0  0
   28.8719  -21.2321  -10.0664 S   0  0  0  0  0  0  0  0  0  0  0  0
   25.5677  -20.5179  -12.2843 C   0  0  0  0  0  0  0  0  0  0  0  0
   25.3580  -19.2936  -12.0997 O   0  0  0  0  0  0  0  0  0  0  0  0
   24.5214  -21.2945  -12.8295 N   0  0  0  0  0  0  0  0  0  0  0  0
   23.3157  -20.6785  -13.2597 C   0  0  1  0  0  0  0  0  0  0  0  0
   23.4500  -19.9210  -14.5609 C   0  0  0  0  0  0  0  0  0  0  0  0
   24.4764  -20.5736  -15.4688 C   0  0  0  0  0  0  0  0  0  0  0  0
   24.6508  -19.8073  -16.7277 C   0  0  0  0  0  0  0  0  0  0  0  0
   24.2417  -20.3032  -17.8072 O   0  0  0  0  0  0  0  0  0  0  0  0
   22.3045  -21.7745  -13.4669 C   0  0  0  0  0  0  0  0  0  0  0  0
   22.6445  -22.8085  -14.1020 O   0  0  0  0  0  0  0  0  0  0  0  0
   25.2485  -18.5655  -16.7516 O   0  0  0  0  0  0  0  0  0  0  0  0
   14.2816  -23.4235   -9.5666 N   0  0  0  0  0  0  0  0  0  0  0  0
   14.6464  -24.5492  -10.3629 C   0  0  0  0  0  0  0  0  0  0  0  0
   13.8956  -25.5946  -10.3483 N   0  0  0  0  0  0  0  0  0  0  0  0
   15.8085  -24.5574  -11.1715 N   0  0  0  0  0  0  0  0  0  0  0  0
   16.7690  -23.4456  -11.1432 C   0  0  0  0  0  0  0  0  0  0  0  0
   17.8754  -23.6779  -12.1491 C   0  0  0  0  0  0  0  0  0  0  0  0
   18.9208  -22.5918  -12.0273 C   0  0  0  0  0  0  0  0  0  0  0  0
   20.0008  -22.7412  -13.0767 C   0  0  2  0  0  0  0  0  0  0  0  0
   20.9932  -21.6908  -12.9794 N   0  0  0  0  0  0  0  0  0  0  0  0
   19.3862  -22.6797  -14.4114 C   0  0  0  0  0  0  0  0  0  0  0  0
   19.2123  -21.5863  -14.9779 O   0  0  0  0  0  0  0  0  0  0  0  0
   18.9991  -23.8420  -15.0409 O   0  0  0  0  0  0  0  0  0  0  0  0
  2  1  1  6
  2  3  1  0
  3  4  1  0
  5  6  2  0
  5  2  1  0
  7  5  1  0
  8  7  1  0
  8  9  1  6
 10 11  1  0
 10  9  1  0
 11 15  1  0
 12 11  2  0
 13 24  1  0
 13  8  1  0
 14 13  2  0
 17 16  1  0
 18 17  2  0
 19 17  1  0
 20 19  1  0
 21 20  1  0
 22 21  1  0
 23 22  1  1
 23 24  1  0
 25 23  1  0
 25 27  1  0
 26 25  2  0
M  END
$$$$
