CER.pdb
     RDKit          3D

 27 26  0  0  1  0  0  0  0  0999 V2000
   28.8345  -20.9784  -10.3371 N   0  0  0  0  0  0  0  0  0  0  0  0
   27.5056  -21.0347   -9.7298 C   0  0  1  0  0  0  0  0  0  0  0  0
   27.5097  -19.9899   -8.6127 C   0  0  0  0  0  0  0  0  0  0  0  0
   28.7707  -20.4970   -7.3999 S   0  0  0  0  0  0  0  0  0  0  0  0
   26.5489  -20.5997  -10.7753 C   0  0  0  0  0  0  0  0  0  0  0  0
   26.5689  -19.3890  -11.1077 O   0  0  0  0  0  0  0  0  0  0  0  0
   25.6217  -21.4485  -11.4197 N   0  0  0  0  0  0  0  0  0  0  0  0
   24.7627  -20.9412  -12.4310 C   0  0  1  0  0  0  0  0  0  0  0  0
   25.4479  -20.7295  -13.7616 C   0  0  0  0  0  0  0  0  0  0  0  0
   26.2726  -21.9430  -14.1499 C   0  0  0  0  0  0  0  0  0  0  0  0
   26.9914  -21.7224  -15.4295 C   0  0  0  0  0  0  0  0  0  0  0  0
   27.9913  -20.9618  -15.4460 O   0  0  0  0  0  0  0  0  0  0  0  0
   23.6662  -21.9530  -12.6332 C   0  0  0  0  0  0  0  0  0  0  0  0
   23.8078  -23.1117  -12.1583 O   0  0  0  0  0  0  0  0  0  0  0  0
   26.5968  -22.3264  -16.6040 O   0  0  0  0  0  0  0  0  0  0  0  0
   19.1401  -24.8263   -7.7107 N   0  0  0  0  0  0  0  0  0  0  0  0
   18.0172  -24.6658   -8.5754 C   0  0  0  0  0  0  0  0  0  0  0  0
   16.9868  -25.4187   -8.4080 N   0  0  0  0  0  0  0  0  0  0  0  0
   17.9957  -23.7044   -9.6145 N   0  0  0  0  0  0  0  0  0  0  0  0
   19.1676  -22.8678   -9.9082 C   0  0  0  0  0  0  0  0  0  0  0  0
   19.4981  -22.9214  -11.3841 C   0  0  0  0  0  0  0  0  0  0  0  0
   20.7582  -22.1319  -11.6603 C   0  0  0  0  0  0  0  0  0  0  0  0
   21.2028  -22.2822  -13.0988 C   0  0  2  0  0  0  0  0  0  0  0  0
   22.4881  -21.6567  -13.3320 N   0  0  0  0  0  0  0  0  0  0  0  0
   20.2091  -21.6477  -13.9780 C   0  0  0  0  0  0  0  0  0  0  0  0
   19.9353  -20.4407  -13.8555 O   0  0  0  0  0  0  0  0  0  0  0  0
   19.5752  -22.3949  -14.9459 O   0  0  0  0  0  0  0  0  0  0  0  0
  2  1  1  6
  2  3  1  0
  3  4  1  0
  5  6  2  0
  5  2  1  0
  7  5  1  0
  8  7  1  0
  8  9  1  6
 10 11  1  0
 10  9  1  0
 11 15  1  0
 12 11  2  0
 13 24  1  0
 13  8  1  0
 14 13  2  0
 17 16  1  0
 18 17  2  0
 19 17  1  0
 20 19  1  0
 21 20  1  0
 22 21  1  0
 23 22  1  1
 23 24  1  0
 25 23  1  0
 25 27  1  0
 26 25  2  0
M  END
$$$$
