CER.pdb
     RDKit          3D

 27 26  0  0  1  0  0  0  0  0999 V2000
   21.6085  -10.6730  -14.7842 N   0  0  0  0  0  0  0  0  0  0  0  0
   20.5725   -9.7891  -15.3168 C   0  0  1  0  0  0  0  0  0  0  0  0
   19.2963  -10.6296  -15.3822 C   0  0  0  0  0  0  0  0  0  0  0  0
   19.3337  -11.5519  -16.9526 S   0  0  0  0  0  0  0  0  0  0  0  0
   20.3779   -8.7184  -14.3102 C   0  0  0  0  0  0  0  0  0  0  0  0
   20.3773   -9.0568  -13.1009 O   0  0  0  0  0  0  0  0  0  0  0  0
   20.1942   -7.3516  -14.6158 N   0  0  0  0  0  0  0  0  0  0  0  0
   20.1140   -6.3857  -13.5772 C   0  0  1  0  0  0  0  0  0  0  0  0
   20.6740   -5.0345  -13.9584 C   0  0  0  0  0  0  0  0  0  0  0  0
   22.1782   -5.1015  -14.1501 C   0  0  0  0  0  0  0  0  0  0  0  0
   22.7385   -3.7740  -14.5056 C   0  0  0  0  0  0  0  0  0  0  0  0
   23.4437   -3.6649  -15.5397 O   0  0  0  0  0  0  0  0  0  0  0  0
   18.6558   -6.2041  -13.2491 C   0  0  0  0  0  0  0  0  0  0  0  0
   17.8067   -6.2722  -14.1778 O   0  0  0  0  0  0  0  0  0  0  0  0
   22.5099   -2.6535  -13.7361 O   0  0  0  0  0  0  0  0  0  0  0  0
   13.0451   -8.7238   -7.0854 N   0  0  0  0  0  0  0  0  0  0  0  0
   13.5735   -9.1475   -8.3407 C   0  0  0  0  0  0  0  0  0  0  0  0
   13.5074  -10.3931   -8.6582 N   0  0  0  0  0  0  0  0  0  0  0  0
   14.1698   -8.2437   -9.2527 N   0  0  0  0  0  0  0  0  0  0  0  0
   14.4445   -6.8491   -8.8799 C   0  0  0  0  0  0  0  0  0  0  0  0
   14.9017   -6.0598  -10.0874 C   0  0  0  0  0  0  0  0  0  0  0  0
   16.3380   -6.4024  -10.4150 C   0  0  0  0  0  0  0  0  0  0  0  0
   16.8460   -5.5969  -11.5909 C   0  0  2  0  0  0  0  0  0  0  0  0
   18.2022   -5.9610  -11.9455 N   0  0  0  0  0  0  0  0  0  0  0  0
   16.8230   -4.1686  -11.2411 C   0  0  0  0  0  0  0  0  0  0  0  0
   17.8663   -3.5843  -10.8991 O   0  0  0  0  0  0  0  0  0  0  0  0
   15.6369   -3.4703  -11.2921 O   0  0  0  0  0  0  0  0  0  0  0  0
  2  1  1  1
  2  3  1  0
  3  4  1  0
  5  6  2  0
  5  2  1  0
  7  5  1  0
  8  7  1  0
  8  9  1  6
 10 11  1  0
 10  9  1  0
 11 15  1  0
 12 11  2  0
 13 24  1  0
 13  8  1  0
 14 13  2  0
 17 16  1  0
 18 17  2  0
 19 17  1  0
 20 19  1  0
 21 20  1  0
 22 21  1  0
 23 22  1  1
 23 24  1  0
 25 23  1  0
 25 27  1  0
 26 25  2  0
M  END
$$$$
