CER.pdb
     RDKit          3D

 27 26  0  0  1  0  0  0  0  0999 V2000
   19.5929   -9.9385  -22.6709 N   0  0  0  0  0  0  0  0  0  0  0  0
   19.6576   -8.5891  -22.1114 C   0  0  1  0  0  0  0  0  0  0  0  0
   18.2148   -8.1997  -21.7860 C   0  0  0  0  0  0  0  0  0  0  0  0
   17.5081   -7.4363  -23.2812 S   0  0  0  0  0  0  0  0  0  0  0  0
   20.4120   -8.6989  -20.8401 C   0  0  0  0  0  0  0  0  0  0  0  0
   20.1857   -9.7024  -20.1199 O   0  0  0  0  0  0  0  0  0  0  0  0
   21.3624   -7.7579  -20.3856 N   0  0  0  0  0  0  0  0  0  0  0  0
   22.0664   -7.9744  -19.1708 C   0  0  1  0  0  0  0  0  0  0  0  0
   23.4192   -7.3016  -19.1233 C   0  0  0  0  0  0  0  0  0  0  0  0
   24.1501   -7.6360  -17.8358 C   0  0  0  0  0  0  0  0  0  0  0  0
   25.4963   -7.0125  -17.7997 C   0  0  0  0  0  0  0  0  0  0  0  0
   26.2381   -7.2160  -16.8063 O   0  0  0  0  0  0  0  0  0  0  0  0
   21.2270   -7.4000  -18.0607 C   0  0  0  0  0  0  0  0  0  0  0  0
   20.6018   -6.3242  -18.2604 O   0  0  0  0  0  0  0  0  0  0  0  0
   25.9611   -6.2151  -18.8235 O   0  0  0  0  0  0  0  0  0  0  0  0
   15.8321  -10.6877  -11.8418 N   0  0  0  0  0  0  0  0  0  0  0  0
   16.1507   -9.3588  -11.4335 C   0  0  0  0  0  0  0  0  0  0  0  0
   15.5774   -8.8715  -10.3891 N   0  0  0  0  0  0  0  0  0  0  0  0
   17.0782   -8.5542  -12.1382 N   0  0  0  0  0  0  0  0  0  0  0  0
   17.8553   -9.0892  -13.2648 C   0  0  0  0  0  0  0  0  0  0  0  0
   18.7606   -8.0200  -13.8369 C   0  0  0  0  0  0  0  0  0  0  0  0
   19.4899   -8.5549  -15.0492 C   0  0  0  0  0  0  0  0  0  0  0  0
   20.3573   -7.4924  -15.6882 C   0  0  2  0  0  0  0  0  0  0  0  0
   21.1120   -8.0168  -16.8076 N   0  0  0  0  0  0  0  0  0  0  0  0
   21.3043   -6.9787  -14.6871 C   0  0  0  0  0  0  0  0  0  0  0  0
   22.3668   -7.5816  -14.4536 O   0  0  0  0  0  0  0  0  0  0  0  0
   21.0139   -5.8201  -14.0012 O   0  0  0  0  0  0  0  0  0  0  0  0
  2  1  1  1
  2  3  1  0
  3  4  1  0
  5  6  2  0
  5  2  1  0
  7  5  1  0
  8  7  1  0
  8  9  1  6
 10 11  1  0
 10  9  1  0
 11 15  1  0
 12 11  2  0
 13 24  1  0
 13  8  1  0
 14 13  2  0
 17 16  1  0
 18 17  2  0
 19 17  1  0
 20 19  1  0
 21 20  1  0
 22 21  1  0
 23 22  1  1
 23 24  1  0
 25 23  1  0
 25 27  1  0
 26 25  2  0
M  END
$$$$
