LYH.pdb
     RDKit          3D

 31 32  0  0  1  0  0  0  0  0999 V2000
    7.4339  -12.8896   17.2845 C   0  0  0  0  0  0  0  0  0  0  0  0
    7.7544  -14.2262   17.8955 C   0  0  1  0  0  0  0  0  0  0  0  0
    8.0150  -15.2130   16.7803 C   0  0  0  0  0  0  0  0  0  0  0  0
    8.8551  -14.1670   18.9044 C   0  0  0  0  0  0  0  0  0  0  0  0
    8.9798  -15.4408   19.7117 C   0  0  2  0  0  0  0  0  0  0  0  0
    7.7649  -16.1971   19.6305 N   0  0  0  0  0  0  0  0  0  0  0  0
    9.3445  -15.0918   21.1099 C   0  0  0  0  0  0  0  0  0  0  0  0
   10.4293  -14.5211   21.3963 O   0  0  0  0  0  0  0  0  0  0  0  0
    7.0016  -12.5433   29.2423 O   0  0  0  0  0  0  0  0  0  0  0  0
    7.0869  -13.0488   27.9547 C   0  0  0  0  0  0  0  0  0  0  0  0
    6.9636  -14.3880   27.6856 C   0  0  0  0  0  0  0  0  0  0  0  0
    7.0488  -14.8890   26.4041 C   0  0  0  0  0  0  0  0  0  0  0  0
    7.2641  -14.0154   25.3657 C   0  0  0  0  0  0  0  0  0  0  0  0
    7.3623  -14.4751   23.9940 C   0  0  0  0  0  0  0  0  0  0  0  0
    8.6928  -15.0335   23.5560 C   0  0  2  0  0  0  0  0  0  0  0  0
    8.4505  -15.4095   22.1368 N   0  0  0  0  0  0  0  0  0  0  0  0
    9.0798  -16.2710   24.2401 C   0  0  0  0  0  0  0  0  0  0  0  0
    8.4074  -17.3417   24.0544 O   0  0  0  0  0  0  0  0  0  0  0  0
    7.3895  -12.6628   25.6302 C   0  0  0  0  0  0  0  0  0  0  0  0
    7.3046  -12.1551   26.9163 C   0  0  0  0  0  0  0  0  0  0  0  0
   10.1907  -16.3700   25.1218 N   0  0  0  0  0  0  0  0  0  0  0  0
   10.5192  -17.5730   25.8337 C   0  0  1  0  0  0  0  0  0  0  0  0
   12.0029  -17.8428   25.5214 C   0  0  0  0  0  0  0  0  0  0  0  0
   12.1873  -18.1670   24.0980 C   0  0  0  0  0  0  0  0  0  0  0  0
   11.2528  -18.3368   23.1004 C   0  0  0  0  0  0  0  0  0  0  0  0
   11.9096  -18.6281   21.9415 N   0  0  0  0  0  0  0  0  0  0  0  0
   13.2173  -18.6388   22.2130 C   0  0  0  0  0  0  0  0  0  0  0  0
   13.3919  -18.3599   23.5188 N   0  0  0  0  0  0  0  0  0  0  0  0
   10.3046  -17.5262   27.2862 C   0  0  0  0  0  0  0  0  0  0  0  0
   10.5471  -18.6679   28.0812 O   0  0  0  0  0  0  0  0  0  0  0  0
    9.9073  -16.5315   27.9430 O   0  0  0  0  0  0  0  0  0  0  0  0
  2  1  1  6
  3  2  1  0
  4  2  1  0
  5  4  1  0
  5  6  1  1
  7  5  1  0
  7  8  2  0
  9 10  1  0
 10 20  2  0
 10 11  1  0
 11 12  2  0
 12 13  1  0
 13 14  1  0
 15 14  1  1
 15 16  1  0
 16  7  1  0
 17 21  1  0
 17 15  1  0
 18 17  2  0
 19 13  2  0
 20 19  1  0
 22 21  1  0
 22 29  1  0
 22 23  1  1
 24 23  1  0
 24 25  2  0
 26 25  1  0
 27 26  1  0
 28 27  2  0
 28 24  1  0
 29 31  2  0
 29 30  1  0
M  END
$$$$
