LYH.pdb
     RDKit          3D

 31 32  0  0  1  0  0  0  0  0999 V2000
    9.6662  -13.2542   28.0223 C   0  0  0  0  0  0  0  0  0  0  0  0
    8.3773  -13.9542   27.6885 C   0  0  1  0  0  0  0  0  0  0  0  0
    7.4645  -12.9711   26.9916 C   0  0  0  0  0  0  0  0  0  0  0  0
    8.5739  -15.2242   26.9260 C   0  0  0  0  0  0  0  0  0  0  0  0
    7.2712  -15.8320   26.4533 C   0  0  2  0  0  0  0  0  0  0  0  0
    6.9115  -16.9393   27.2895 N   0  0  0  0  0  0  0  0  0  0  0  0
    7.4086  -16.2152   25.0237 C   0  0  0  0  0  0  0  0  0  0  0  0
    7.2196  -17.3943   24.6253 O   0  0  0  0  0  0  0  0  0  0  0  0
    7.9978  -13.9857   16.4244 O   0  0  0  0  0  0  0  0  0  0  0  0
    7.9286  -13.9952   17.8086 C   0  0  0  0  0  0  0  0  0  0  0  0
    8.1615  -12.8715   18.5597 C   0  0  0  0  0  0  0  0  0  0  0  0
    8.0921  -12.8829   19.9365 C   0  0  0  0  0  0  0  0  0  0  0  0
    7.7793  -14.0597   20.5730 C   0  0  0  0  0  0  0  0  0  0  0  0
    7.6882  -14.1410   22.0179 C   0  0  0  0  0  0  0  0  0  0  0  0
    7.8633  -15.5052   22.6361 C   0  0  2  0  0  0  0  0  0  0  0  0
    7.7593  -15.2307   24.0949 N   0  0  0  0  0  0  0  0  0  0  0  0
    9.1908  -16.0922   22.4304 C   0  0  0  0  0  0  0  0  0  0  0  0
    9.5589  -16.4469   21.2591 O   0  0  0  0  0  0  0  0  0  0  0  0
    7.5431  -15.1972   19.8211 C   0  0  0  0  0  0  0  0  0  0  0  0
    7.6118  -15.1903   18.4376 C   0  0  0  0  0  0  0  0  0  0  0  0
   10.1325  -16.2977   23.4755 N   0  0  0  0  0  0  0  0  0  0  0  0
   11.4787  -16.7381   23.2397 C   0  0  1  0  0  0  0  0  0  0  0  0
   11.4292  -17.5176   21.9124 C   0  0  0  0  0  0  0  0  0  0  0  0
   10.8805  -18.8673   22.1186 C   0  0  0  0  0  0  0  0  0  0  0  0
   10.4413  -19.4776   23.2727 C   0  0  0  0  0  0  0  0  0  0  0  0
   10.0206  -20.7363   22.9597 N   0  0  0  0  0  0  0  0  0  0  0  0
   10.1941  -20.9025   21.6459 C   0  0  0  0  0  0  0  0  0  0  0  0
   10.7151  -19.7727   21.1304 N   0  0  0  0  0  0  0  0  0  0  0  0
   12.4883  -15.6734   23.1678 C   0  0  0  0  0  0  0  0  0  0  0  0
   12.6790  -14.9495   21.9704 O   0  0  0  0  0  0  0  0  0  0  0  0
   13.2467  -15.3096   24.1012 O   0  0  0  0  0  0  0  0  0  0  0  0
  2  1  1  6
  3  2  1  0
  4  2  1  0
  5  4  1  0
  5  6  1  1
  7  5  1  0
  7  8  2  0
  9 10  1  0
 10 20  2  0
 10 11  1  0
 11 12  2  0
 12 13  1  0
 13 14  1  0
 15 14  1  6
 15 16  1  0
 16  7  1  0
 17 21  1  0
 17 15  1  0
 18 17  2  0
 19 13  2  0
 20 19  1  0
 22 21  1  0
 22 29  1  0
 22 23  1  6
 24 23  1  0
 24 25  2  0
 26 25  1  0
 27 26  1  0
 28 27  2  0
 28 24  1  0
 29 31  2  0
 29 30  1  0
M  END
$$$$
