LYH.pdb
     RDKit          3D

 31 32  0  0  1  0  0  0  0  0999 V2000
    7.2582  -19.1135   16.9656 C   0  0  0  0  0  0  0  0  0  0  0  0
    7.3647  -19.3916   18.4400 C   0  0  1  0  0  0  0  0  0  0  0  0
    7.1170  -20.8653   18.6690 C   0  0  0  0  0  0  0  0  0  0  0  0
    8.6418  -18.9041   19.0434 C   0  0  0  0  0  0  0  0  0  0  0  0
    8.5746  -18.7969   20.5513 C   0  0  2  0  0  0  0  0  0  0  0  0
    7.2091  -18.8153   20.9867 N   0  0  0  0  0  0  0  0  0  0  0  0
    9.2957  -17.5699   20.9802 C   0  0  0  0  0  0  0  0  0  0  0  0
   10.4654  -17.3110   20.5935 O   0  0  0  0  0  0  0  0  0  0  0  0
    7.7825  -12.5098   16.8714 O   0  0  0  0  0  0  0  0  0  0  0  0
    7.9463  -12.9732   18.1673 C   0  0  0  0  0  0  0  0  0  0  0  0
    9.1748  -13.3175   18.6705 C   0  0  0  0  0  0  0  0  0  0  0  0
    9.3359  -13.7783   19.9597 C   0  0  0  0  0  0  0  0  0  0  0  0
    8.2275  -13.8948   20.7634 C   0  0  0  0  0  0  0  0  0  0  0  0
    8.3263  -14.3711   22.1294 C   0  0  0  0  0  0  0  0  0  0  0  0
    9.3217  -15.4716   22.3972 C   0  0  2  0  0  0  0  0  0  0  0  0
    8.6500  -16.6773   21.8410 N   0  0  0  0  0  0  0  0  0  0  0  0
    9.5394  -15.7519   23.8197 C   0  0  0  0  0  0  0  0  0  0  0  0
    8.5466  -15.7905   24.6233 O   0  0  0  0  0  0  0  0  0  0  0  0
    6.9849  -13.5492   20.2620 C   0  0  0  0  0  0  0  0  0  0  0  0
    6.8185  -13.0858   18.9671 C   0  0  0  0  0  0  0  0  0  0  0  0
   10.8193  -15.9973   24.3879 N   0  0  0  0  0  0  0  0  0  0  0  0
   11.0388  -16.9525   25.4374 C   0  0  1  0  0  0  0  0  0  0  0  0
   10.4399  -18.2742   24.9216 C   0  0  0  0  0  0  0  0  0  0  0  0
    9.1961  -18.5995   25.6374 C   0  0  0  0  0  0  0  0  0  0  0  0
    8.5202  -17.8899   26.6052 C   0  0  0  0  0  0  0  0  0  0  0  0
    7.4143  -18.6014   26.9660 N   0  0  0  0  0  0  0  0  0  0  0  0
    7.4044  -19.7230   26.2410 C   0  0  0  0  0  0  0  0  0  0  0  0
    8.4822  -19.7276   25.4336 N   0  0  0  0  0  0  0  0  0  0  0  0
   12.4406  -17.1476   25.8311 C   0  0  0  0  0  0  0  0  0  0  0  0
   12.7673  -17.4972   27.1597 O   0  0  0  0  0  0  0  0  0  0  0  0
   13.4419  -17.0334   25.0807 O   0  0  0  0  0  0  0  0  0  0  0  0
  2  1  1  6
  3  2  1  0
  4  2  1  0
  5  4  1  0
  5  6  1  6
  7  5  1  0
  7  8  2  0
  9 10  1  0
 10 20  2  0
 10 11  1  0
 11 12  2  0
 12 13  1  0
 13 14  1  0
 15 14  1  1
 15 16  1  0
 16  7  1  0
 17 21  1  0
 17 15  1  0
 18 17  2  0
 19 13  2  0
 20 19  1  0
 22 21  1  0
 22 29  1  0
 22 23  1  6
 24 23  1  0
 24 25  2  0
 26 25  1  0
 27 26  1  0
 28 27  2  0
 28 24  1  0
 29 31  2  0
 29 30  1  0
M  END
$$$$
