LYH.pdb
     RDKit          3D

 31 32  0  0  1  0  0  0  0  0999 V2000
    8.3520  -16.2073   16.6509 C   0  0  0  0  0  0  0  0  0  0  0  0
    9.0381  -15.0418   17.3093 C   0  0  1  0  0  0  0  0  0  0  0  0
    8.2529  -13.7871   17.0019 C   0  0  0  0  0  0  0  0  0  0  0  0
    9.2816  -15.2463   18.7694 C   0  0  0  0  0  0  0  0  0  0  0  0
    9.8817  -14.0297   19.4399 C   0  0  2  0  0  0  0  0  0  0  0  0
   11.1351  -13.6978   18.8290 N   0  0  0  0  0  0  0  0  0  0  0  0
   10.0075  -14.2951   20.8971 C   0  0  0  0  0  0  0  0  0  0  0  0
   11.0623  -14.7583   21.4047 O   0  0  0  0  0  0  0  0  0  0  0  0
    6.9136  -12.9910   29.1896 O   0  0  0  0  0  0  0  0  0  0  0  0
    7.1412  -13.0574   27.8242 C   0  0  0  0  0  0  0  0  0  0  0  0
    7.9186  -12.1379   27.1674 C   0  0  0  0  0  0  0  0  0  0  0  0
    8.1440  -12.2055   25.8090 C   0  0  0  0  0  0  0  0  0  0  0  0
    7.5696  -13.2283   25.0937 C   0  0  0  0  0  0  0  0  0  0  0  0
    7.7670  -13.3592   23.6631 C   0  0  0  0  0  0  0  0  0  0  0  0
    8.9946  -14.1086   23.2103 C   0  0  2  0  0  0  0  0  0  0  0  0
    8.9165  -14.0198   21.7269 N   0  0  0  0  0  0  0  0  0  0  0  0
    8.9772  -15.5393   23.5296 C   0  0  0  0  0  0  0  0  0  0  0  0
    8.6530  -16.3908   22.6335 O   0  0  0  0  0  0  0  0  0  0  0  0
    6.7840  -14.1594   25.7501 C   0  0  0  0  0  0  0  0  0  0  0  0
    6.5549  -14.0953   27.1148 C   0  0  0  0  0  0  0  0  0  0  0  0
    9.3114  -16.0660   24.8072 N   0  0  0  0  0  0  0  0  0  0  0  0
    9.8654  -17.3779   24.9915 C   0  0  1  0  0  0  0  0  0  0  0  0
   11.1680  -17.3927   24.1702 C   0  0  0  0  0  0  0  0  0  0  0  0
   10.9917  -18.1542   22.9235 C   0  0  0  0  0  0  0  0  0  0  0  0
   10.3807  -19.3696   22.7074 C   0  0  0  0  0  0  0  0  0  0  0  0
   10.4694  -19.6649   21.3791 N   0  0  0  0  0  0  0  0  0  0  0  0
   11.1184  -18.6591   20.7868 C   0  0  0  0  0  0  0  0  0  0  0  0
   11.4376  -17.7401   21.7179 N   0  0  0  0  0  0  0  0  0  0  0  0
   10.1366  -17.7591   26.3841 C   0  0  0  0  0  0  0  0  0  0  0  0
   10.1075  -19.1168   26.7716 O   0  0  0  0  0  0  0  0  0  0  0  0
   10.4075  -16.9732   27.3263 O   0  0  0  0  0  0  0  0  0  0  0  0
  2  1  1  1
  3  2  1  0
  4  2  1  0
  5  4  1  0
  5  6  1  6
  7  5  1  0
  7  8  2  0
  9 10  1  0
 10 20  2  0
 10 11  1  0
 11 12  2  0
 12 13  1  0
 13 14  1  0
 15 14  1  1
 15 16  1  0
 16  7  1  0
 17 21  1  0
 17 15  1  0
 18 17  2  0
 19 13  2  0
 20 19  1  0
 22 21  1  0
 22 29  1  0
 22 23  1  6
 24 23  1  0
 24 25  2  0
 26 25  1  0
 27 26  1  0
 28 27  2  0
 28 24  1  0
 29 31  2  0
 29 30  1  0
M  END
$$$$
