LYH.pdb
     RDKit          3D

 31 32  0  0  1  0  0  0  0  0999 V2000
    7.0829  -12.1501   18.7634 C   0  0  0  0  0  0  0  0  0  0  0  0
    7.4451  -13.5265   19.2501 C   0  0  1  0  0  0  0  0  0  0  0  0
    7.9964  -14.3171   18.0855 C   0  0  0  0  0  0  0  0  0  0  0  0
    8.3491  -13.5146   20.4399 C   0  0  0  0  0  0  0  0  0  0  0  0
    8.6044  -14.8984   20.9962 C   0  0  2  0  0  0  0  0  0  0  0  0
    7.3625  -15.5365   21.3205 N   0  0  0  0  0  0  0  0  0  0  0  0
    9.5137  -14.7873   22.1669 C   0  0  0  0  0  0  0  0  0  0  0  0
   10.6717  -14.3030   22.0716 O   0  0  0  0  0  0  0  0  0  0  0  0
   10.6664  -15.2078   31.0289 O   0  0  0  0  0  0  0  0  0  0  0  0
   10.2212  -15.1201   29.7194 C   0  0  0  0  0  0  0  0  0  0  0  0
   10.1891  -13.9311   29.0365 C   0  0  0  0  0  0  0  0  0  0  0  0
    9.7459  -13.8458   27.7339 C   0  0  0  0  0  0  0  0  0  0  0  0
    9.3235  -14.9909   27.1029 C   0  0  0  0  0  0  0  0  0  0  0  0
    8.8469  -14.9722   25.7336 C   0  0  0  0  0  0  0  0  0  0  0  0
    9.8835  -15.1243   24.6490 C   0  0  2  0  0  0  0  0  0  0  0  0
    9.0640  -15.2367   23.4121 N   0  0  0  0  0  0  0  0  0  0  0  0
   10.6614  -16.3642   24.7309 C   0  0  0  0  0  0  0  0  0  0  0  0
   10.0872  -17.4923   24.5557 O   0  0  0  0  0  0  0  0  0  0  0  0
    9.3532  -16.1940   27.7862 C   0  0  0  0  0  0  0  0  0  0  0  0
    9.7977  -16.2843   29.0951 C   0  0  0  0  0  0  0  0  0  0  0  0
   12.0577  -16.4027   24.9953 N   0  0  0  0  0  0  0  0  0  0  0  0
   12.8101  -17.6246   25.0484 C   0  0  1  0  0  0  0  0  0  0  0  0
   14.1669  -17.3001   24.3962 C   0  0  0  0  0  0  0  0  0  0  0  0
   14.0073  -17.0449   22.9558 C   0  0  0  0  0  0  0  0  0  0  0  0
   12.9154  -17.2369   22.1385 C   0  0  0  0  0  0  0  0  0  0  0  0
   13.2522  -16.8525   20.8742 N   0  0  0  0  0  0  0  0  0  0  0  0
   14.5198  -16.4330   20.9065 C   0  0  0  0  0  0  0  0  0  0  0  0
   14.9830  -16.5473   22.1658 N   0  0  0  0  0  0  0  0  0  0  0  0
   13.0113  -18.1848   26.3914 C   0  0  0  0  0  0  0  0  0  0  0  0
   12.4451  -17.5537   27.5207 O   0  0  0  0  0  0  0  0  0  0  0  0
   13.6664  -19.2201   26.6700 O   0  0  0  0  0  0  0  0  0  0  0  0
  2  1  1  6
  3  2  1  0
  4  2  1  0
  5  4  1  0
  5  6  1  1
  7  5  1  0
  7  8  2  0
  9 10  1  0
 10 20  2  0
 10 11  1  0
 11 12  2  0
 12 13  1  0
 13 14  1  0
 15 14  1  1
 15 16  1  0
 16  7  1  0
 17 21  1  0
 17 15  1  0
 18 17  2  0
 19 13  2  0
 20 19  1  0
 22 21  1  0
 22 29  1  0
 22 23  1  1
 24 23  1  0
 24 25  2  0
 26 25  1  0
 27 26  1  0
 28 27  2  0
 28 24  1  0
 29 31  2  0
 29 30  1  0
M  END
$$$$
