LYH.pdb
     RDKit          3D

 31 32  0  0  1  0  0  0  0  0999 V2000
    7.3770  -12.2538   19.1786 C   0  0  0  0  0  0  0  0  0  0  0  0
    7.7296  -13.6790   19.5058 C   0  0  1  0  0  0  0  0  0  0  0  0
    8.2820  -14.3342   18.2604 C   0  0  0  0  0  0  0  0  0  0  0  0
    8.6283  -13.8087   20.6926 C   0  0  0  0  0  0  0  0  0  0  0  0
    8.8232  -15.2452   21.1265 C   0  0  2  0  0  0  0  0  0  0  0  0
    7.6020  -15.9785   20.9671 N   0  0  0  0  0  0  0  0  0  0  0  0
    9.3229  -15.2626   22.5263 C   0  0  0  0  0  0  0  0  0  0  0  0
   10.3431  -14.6162   22.8812 O   0  0  0  0  0  0  0  0  0  0  0  0
    6.3556  -10.5125   26.8292 O   0  0  0  0  0  0  0  0  0  0  0  0
    6.7216  -11.8184   26.5440 C   0  0  0  0  0  0  0  0  0  0  0  0
    7.9612  -12.3149   26.8569 C   0  0  0  0  0  0  0  0  0  0  0  0
    8.3235  -13.6143   26.5724 C   0  0  0  0  0  0  0  0  0  0  0  0
    7.4106  -14.4352   25.9556 C   0  0  0  0  0  0  0  0  0  0  0  0
    7.7259  -15.8125   25.6296 C   0  0  0  0  0  0  0  0  0  0  0  0
    9.0278  -16.0618   24.9107 C   0  0  2  0  0  0  0  0  0  0  0  0
    8.6343  -16.0230   23.4762 N   0  0  0  0  0  0  0  0  0  0  0  0
    9.5934  -17.3952   25.1373 C   0  0  0  0  0  0  0  0  0  0  0  0
    8.8541  -18.4314   25.0243 O   0  0  0  0  0  0  0  0  0  0  0  0
    6.1580  -13.9406   25.6371 C   0  0  0  0  0  0  0  0  0  0  0  0
    5.7897  -12.6357   25.9211 C   0  0  0  0  0  0  0  0  0  0  0  0
   10.9535  -17.6265   25.4806 N   0  0  0  0  0  0  0  0  0  0  0  0
   11.4619  -18.9229   25.8312 C   0  0  1  0  0  0  0  0  0  0  0  0
   12.9438  -18.9099   25.4124 C   0  0  0  0  0  0  0  0  0  0  0  0
   13.0766  -18.6750   23.9659 C   0  0  0  0  0  0  0  0  0  0  0  0
   12.1081  -18.5921   22.9900 C   0  0  0  0  0  0  0  0  0  0  0  0
   12.7218  -18.3619   21.7942 N   0  0  0  0  0  0  0  0  0  0  0  0
   14.0365  -18.3036   22.0224 C   0  0  0  0  0  0  0  0  0  0  0  0
   14.2577  -18.4927   23.3372 N   0  0  0  0  0  0  0  0  0  0  0  0
   11.3361  -19.2887   27.2484 C   0  0  0  0  0  0  0  0  0  0  0  0
   11.6866  -20.5851   27.6853 O   0  0  0  0  0  0  0  0  0  0  0  0
   10.9296  -18.5399   28.1719 O   0  0  0  0  0  0  0  0  0  0  0  0
  2  1  1  6
  3  2  1  0
  4  2  1  0
  5  4  1  0
  5  6  1  1
  7  5  1  0
  7  8  2  0
  9 10  1  0
 10 20  2  0
 10 11  1  0
 11 12  2  0
 12 13  1  0
 13 14  1  0
 15 14  1  1
 15 16  1  0
 16  7  1  0
 17 21  1  0
 17 15  1  0
 18 17  2  0
 19 13  2  0
 20 19  1  0
 22 21  1  0
 22 29  1  0
 22 23  1  1
 24 23  1  0
 24 25  2  0
 26 25  1  0
 27 26  1  0
 28 27  2  0
 28 24  1  0
 29 31  2  0
 29 30  1  0
M  END
$$$$
