LYH.pdb
     RDKit          3D

 31 32  0  0  1  0  0  0  0  0999 V2000
    6.8258  -11.7581   26.3450 C   0  0  0  0  0  0  0  0  0  0  0  0
    7.0665  -13.2427   26.3691 C   0  0  1  0  0  0  0  0  0  0  0  0
    7.6245  -13.6159   27.7236 C   0  0  0  0  0  0  0  0  0  0  0  0
    5.8659  -14.0432   25.9812 C   0  0  0  0  0  0  0  0  0  0  0  0
    6.1545  -15.5257   25.8880 C   0  0  2  0  0  0  0  0  0  0  0  0
    6.7966  -15.9794   27.0866 N   0  0  0  0  0  0  0  0  0  0  0  0
    6.9674  -15.7832   24.6705 C   0  0  0  0  0  0  0  0  0  0  0  0
    7.7051  -16.7973   24.5599 O   0  0  0  0  0  0  0  0  0  0  0  0
    8.5452  -14.0400   16.0436 O   0  0  0  0  0  0  0  0  0  0  0  0
    8.1824  -14.0472   17.3811 C   0  0  0  0  0  0  0  0  0  0  0  0
    7.5749  -15.1279   17.9677 C   0  0  0  0  0  0  0  0  0  0  0  0
    7.2147  -15.1333   19.2984 C   0  0  0  0  0  0  0  0  0  0  0  0
    7.4742  -14.0183   20.0581 C   0  0  0  0  0  0  0  0  0  0  0  0
    7.1230  -13.9580   21.4636 C   0  0  0  0  0  0  0  0  0  0  0  0
    7.6656  -15.0512   22.3492 C   0  0  2  0  0  0  0  0  0  0  0  0
    6.9077  -14.8666   23.6165 N   0  0  0  0  0  0  0  0  0  0  0  0
    9.0805  -14.8942   22.6995 C   0  0  0  0  0  0  0  0  0  0  0  0
    9.6021  -13.7286   22.7471 O   0  0  0  0  0  0  0  0  0  0  0  0
    8.0869  -12.9243   19.4725 C   0  0  0  0  0  0  0  0  0  0  0  0
    8.4505  -12.9146   18.1358 C   0  0  0  0  0  0  0  0  0  0  0  0
    9.9423  -15.9827   23.0054 N   0  0  0  0  0  0  0  0  0  0  0  0
   10.8097  -15.9956   24.1497 C   0  0  1  0  0  0  0  0  0  0  0  0
    9.8860  -15.8060   25.3673 C   0  0  0  0  0  0  0  0  0  0  0  0
   10.6671  -15.7505   26.6130 C   0  0  0  0  0  0  0  0  0  0  0  0
   12.0269  -15.8470   26.8102 C   0  0  0  0  0  0  0  0  0  0  0  0
   12.2761  -15.7374   28.1464 N   0  0  0  0  0  0  0  0  0  0  0  0
   11.1017  -15.5771   28.7619 C   0  0  0  0  0  0  0  0  0  0  0  0
   10.1224  -15.5842   27.8375 N   0  0  0  0  0  0  0  0  0  0  0  0
   11.6238  -17.2076   24.3117 C   0  0  0  0  0  0  0  0  0  0  0  0
   11.4339  -18.3152   23.4565 O   0  0  0  0  0  0  0  0  0  0  0  0
   12.5221  -17.3852   25.1721 O   0  0  0  0  0  0  0  0  0  0  0  0
  2  1  1  1
  3  2  1  0
  4  2  1  0
  5  4  1  0
  5  6  1  1
  7  5  1  0
  7  8  2  0
  9 10  1  0
 10 20  2  0
 10 11  1  0
 11 12  2  0
 12 13  1  0
 13 14  1  0
 15 14  1  6
 15 16  1  0
 16  7  1  0
 17 21  1  0
 17 15  1  0
 18 17  2  0
 19 13  2  0
 20 19  1  0
 22 21  1  0
 22 29  1  0
 22 23  1  1
 24 23  1  0
 24 25  2  0
 26 25  1  0
 27 26  1  0
 28 27  2  0
 28 24  1  0
 29 31  2  0
 29 30  1  0
M  END
$$$$
