LYH.pdb
     RDKit          3D

 31 32  0  0  1  0  0  0  0  0999 V2000
    8.4154  -11.8191   19.8923 C   0  0  0  0  0  0  0  0  0  0  0  0
    8.1518  -13.2366   20.3211 C   0  0  1  0  0  0  0  0  0  0  0  0
    6.7280  -13.5907   19.9568 C   0  0  0  0  0  0  0  0  0  0  0  0
    9.1576  -14.2099   19.7976 C   0  0  0  0  0  0  0  0  0  0  0  0
    8.9930  -15.5953   20.3835 C   0  0  2  0  0  0  0  0  0  0  0  0
    7.6266  -16.0156   20.2797 N   0  0  0  0  0  0  0  0  0  0  0  0
    9.4845  -15.5872   21.7863 C   0  0  0  0  0  0  0  0  0  0  0  0
   10.6816  -15.3257   22.0749 O   0  0  0  0  0  0  0  0  0  0  0  0
    6.4292  -10.6673   27.0340 O   0  0  0  0  0  0  0  0  0  0  0  0
    6.7616  -11.9182   26.5384 C   0  0  0  0  0  0  0  0  0  0  0  0
    7.9370  -12.5450   26.8650 C   0  0  0  0  0  0  0  0  0  0  0  0
    8.2660  -13.7892   26.3710 C   0  0  0  0  0  0  0  0  0  0  0  0
    7.3855  -14.4184   25.5244 C   0  0  0  0  0  0  0  0  0  0  0  0
    7.6685  -15.7281   24.9704 C   0  0  0  0  0  0  0  0  0  0  0  0
    8.9824  -15.8937   24.2491 C   0  0  2  0  0  0  0  0  0  0  0  0
    8.5845  -15.8802   22.8153 N   0  0  0  0  0  0  0  0  0  0  0  0
    9.6327  -17.1881   24.4745 C   0  0  0  0  0  0  0  0  0  0  0  0
    9.0598  -18.2661   24.0969 O   0  0  0  0  0  0  0  0  0  0  0  0
    6.1977  -13.7915   25.1907 C   0  0  0  0  0  0  0  0  0  0  0  0
    5.8632  -12.5414   25.6848 C   0  0  0  0  0  0  0  0  0  0  0  0
   10.9010  -17.3347   25.0999 N   0  0  0  0  0  0  0  0  0  0  0  0
   11.7315  -18.4925   24.9217 C   0  0  1  0  0  0  0  0  0  0  0  0
   11.8660  -18.6707   23.3979 C   0  0  0  0  0  0  0  0  0  0  0  0
   12.7289  -19.8193   23.0797 C   0  0  0  0  0  0  0  0  0  0  0  0
   13.3761  -20.6995   23.9185 C   0  0  0  0  0  0  0  0  0  0  0  0
   14.0585  -21.5989   23.1536 N   0  0  0  0  0  0  0  0  0  0  0  0
   13.8403  -21.2848   21.8739 C   0  0  0  0  0  0  0  0  0  0  0  0
   13.0349  -20.2067   21.8227 N   0  0  0  0  0  0  0  0  0  0  0  0
   13.0596  -18.4193   25.5452 C   0  0  0  0  0  0  0  0  0  0  0  0
   13.8382  -19.5864   25.7068 O   0  0  0  0  0  0  0  0  0  0  0  0
   13.6172  -17.3795   25.9772 O   0  0  0  0  0  0  0  0  0  0  0  0
  2  1  1  6
  3  2  1  0
  4  2  1  0
  5  4  1  0
  5  6  1  1
  7  5  1  0
  7  8  2  0
  9 10  1  0
 10 20  2  0
 10 11  1  0
 11 12  2  0
 12 13  1  0
 13 14  1  0
 15 14  1  1
 15 16  1  0
 16  7  1  0
 17 21  1  0
 17 15  1  0
 18 17  2  0
 19 13  2  0
 20 19  1  0
 22 21  1  0
 22 29  1  0
 22 23  1  6
 24 23  1  0
 24 25  2  0
 26 25  1  0
 27 26  1  0
 28 27  2  0
 28 24  1  0
 29 31  2  0
 29 30  1  0
M  END
$$$$
