LYH.pdb
     RDKit          3D

 31 32  0  0  1  0  0  0  0  0999 V2000
    7.6087  -12.7127   19.0991 C   0  0  0  0  0  0  0  0  0  0  0  0
    7.9092  -14.1556   19.3992 C   0  0  1  0  0  0  0  0  0  0  0  0
    7.4709  -14.9922   18.2188 C   0  0  0  0  0  0  0  0  0  0  0  0
    9.3289  -14.3934   19.8002 C   0  0  0  0  0  0  0  0  0  0  0  0
    9.5134  -15.6850   20.5666 C   0  0  2  0  0  0  0  0  0  0  0  0
    8.3267  -16.4843   20.4791 N   0  0  0  0  0  0  0  0  0  0  0  0
    9.8854  -15.3644   21.9696 C   0  0  0  0  0  0  0  0  0  0  0  0
   10.8764  -14.6407   22.2508 O   0  0  0  0  0  0  0  0  0  0  0  0
    6.1087  -11.3362   28.6016 O   0  0  0  0  0  0  0  0  0  0  0  0
    6.5137  -12.1479   27.5539 C   0  0  0  0  0  0  0  0  0  0  0  0
    7.7924  -12.6349   27.4588 C   0  0  0  0  0  0  0  0  0  0  0  0
    8.1935  -13.4423   26.4159 C   0  0  0  0  0  0  0  0  0  0  0  0
    7.2800  -13.7674   25.4424 C   0  0  0  0  0  0  0  0  0  0  0  0
    7.6350  -14.6132   24.3194 C   0  0  0  0  0  0  0  0  0  0  0  0
    9.0089  -15.2343   24.3416 C   0  0  2  0  0  0  0  0  0  0  0  0
    9.1067  -15.8856   23.0072 N   0  0  0  0  0  0  0  0  0  0  0  0
    9.1670  -16.3085   25.3266 C   0  0  0  0  0  0  0  0  0  0  0  0
    9.1902  -16.0339   26.5744 O   0  0  0  0  0  0  0  0  0  0  0  0
    5.9881  -13.2794   25.5322 C   0  0  0  0  0  0  0  0  0  0  0  0
    5.5809  -12.4678   26.5784 C   0  0  0  0  0  0  0  0  0  0  0  0
    9.2956  -17.6818   24.9817 N   0  0  0  0  0  0  0  0  0  0  0  0
    9.4377  -18.7236   25.9595 C   0  0  1  0  0  0  0  0  0  0  0  0
    8.9042  -19.9991   25.2812 C   0  0  0  0  0  0  0  0  0  0  0  0
    7.6261  -19.7347   24.6016 C   0  0  0  0  0  0  0  0  0  0  0  0
    6.4700  -19.1607   25.0825 C   0  0  0  0  0  0  0  0  0  0  0  0
    5.5534  -19.1306   24.0734 N   0  0  0  0  0  0  0  0  0  0  0  0
    6.1258  -19.6718   22.9949 C   0  0  0  0  0  0  0  0  0  0  0  0
    7.3825  -20.0400   23.3089 N   0  0  0  0  0  0  0  0  0  0  0  0
   10.8031  -18.9430   26.4549 C   0  0  0  0  0  0  0  0  0  0  0  0
   11.8938  -18.2658   25.8667 O   0  0  0  0  0  0  0  0  0  0  0  0
   11.1343  -19.7073   27.3956 O   0  0  0  0  0  0  0  0  0  0  0  0
  2  1  1  6
  3  2  1  0
  4  2  1  0
  5  4  1  0
  5  6  1  1
  7  5  1  0
  7  8  2  0
  9 10  1  0
 10 20  2  0
 10 11  1  0
 11 12  2  0
 12 13  1  0
 13 14  1  0
 15 14  1  6
 15 16  1  0
 16  7  1  0
 17 21  1  0
 17 15  1  0
 18 17  2  0
 19 13  2  0
 20 19  1  0
 22 21  1  0
 22 29  1  0
 22 23  1  6
 24 23  1  0
 24 25  2  0
 26 25  1  0
 27 26  1  0
 28 27  2  0
 28 24  1  0
 29 31  2  0
 29 30  1  0
M  END
$$$$
