LYH.pdb
     RDKit          3D

 31 32  0  0  1  0  0  0  0  0999 V2000
    7.6125  -13.5351   16.6920 C   0  0  0  0  0  0  0  0  0  0  0  0
    8.0286  -14.7170   17.5243 C   0  0  1  0  0  0  0  0  0  0  0  0
    8.4630  -15.8281   16.5957 C   0  0  0  0  0  0  0  0  0  0  0  0
    9.0483  -14.3796   18.5632 C   0  0  0  0  0  0  0  0  0  0  0  0
    9.2017  -15.4633   19.6080 C   0  0  2  0  0  0  0  0  0  0  0  0
    8.0344  -16.2950   19.6311 N   0  0  0  0  0  0  0  0  0  0  0  0
    9.4788  -14.8291   20.9235 C   0  0  0  0  0  0  0  0  0  0  0  0
   10.4843  -14.0964   21.1151 O   0  0  0  0  0  0  0  0  0  0  0  0
    6.3262  -11.8988   28.7402 O   0  0  0  0  0  0  0  0  0  0  0  0
    6.5706  -12.4272   27.4825 C   0  0  0  0  0  0  0  0  0  0  0  0
    7.1025  -11.6765   26.4653 C   0  0  0  0  0  0  0  0  0  0  0  0
    7.3450  -12.2037   25.2148 C   0  0  0  0  0  0  0  0  0  0  0  0
    7.0428  -13.5241   24.9841 C   0  0  0  0  0  0  0  0  0  0  0  0
    7.2742  -14.1420   23.6929 C   0  0  0  0  0  0  0  0  0  0  0  0
    8.7105  -14.3638   23.2909 C   0  0  2  0  0  0  0  0  0  0  0  0
    8.5911  -15.0566   21.9795 N   0  0  0  0  0  0  0  0  0  0  0  0
    9.4445  -15.2824   24.1665 C   0  0  0  0  0  0  0  0  0  0  0  0
    9.3727  -15.1511   25.4356 O   0  0  0  0  0  0  0  0  0  0  0  0
    6.5059  -14.2872   26.0061 C   0  0  0  0  0  0  0  0  0  0  0  0
    6.2606  -13.7615   27.2640 C   0  0  0  0  0  0  0  0  0  0  0  0
   10.2543  -16.3488   23.6886 N   0  0  0  0  0  0  0  0  0  0  0  0
   10.7965  -17.3642   24.5471 C   0  0  1  0  0  0  0  0  0  0  0  0
    9.5814  -18.1570   25.0636 C   0  0  0  0  0  0  0  0  0  0  0  0
    9.4702  -18.0495   26.5269 C   0  0  0  0  0  0  0  0  0  0  0  0
   10.1942  -17.2863   27.4160 C   0  0  0  0  0  0  0  0  0  0  0  0
    9.7217  -17.5265   28.6724 N   0  0  0  0  0  0  0  0  0  0  0  0
    8.7306  -18.4153   28.5655 C   0  0  0  0  0  0  0  0  0  0  0  0
    8.5734  -18.7363   27.2671 N   0  0  0  0  0  0  0  0  0  0  0  0
   11.7667  -18.2708   23.9187 C   0  0  0  0  0  0  0  0  0  0  0  0
   12.9318  -18.6629   24.6137 O   0  0  0  0  0  0  0  0  0  0  0  0
   11.6766  -18.7676   22.7682 O   0  0  0  0  0  0  0  0  0  0  0  0
  2  1  1  6
  3  2  1  0
  4  2  1  0
  5  4  1  0
  5  6  1  1
  7  5  1  0
  7  8  2  0
  9 10  1  0
 10 20  2  0
 10 11  1  0
 11 12  2  0
 12 13  1  0
 13 14  1  0
 15 14  1  1
 15 16  1  0
 16  7  1  0
 17 21  1  0
 17 15  1  0
 18 17  2  0
 19 13  2  0
 20 19  1  0
 22 21  1  0
 22 29  1  0
 22 23  1  6
 24 23  1  0
 24 25  2  0
 26 25  1  0
 27 26  1  0
 28 27  2  0
 28 24  1  0
 29 31  2  0
 29 30  1  0
M  END
$$$$
