LYH.pdb
     RDKit          3D

 31 32  0  0  1  0  0  0  0  0999 V2000
    7.8018  -12.7894   17.5253 C   0  0  0  0  0  0  0  0  0  0  0  0
    7.9826  -14.1604   18.1172 C   0  0  1  0  0  0  0  0  0  0  0  0
    7.8440  -15.1820   17.0115 C   0  0  0  0  0  0  0  0  0  0  0  0
    9.2458  -14.3040   18.9024 C   0  0  0  0  0  0  0  0  0  0  0  0
    9.2460  -15.5263   19.7944 C   0  0  2  0  0  0  0  0  0  0  0  0
    8.0012  -16.2263   19.6723 N   0  0  0  0  0  0  0  0  0  0  0  0
    9.5308  -15.1041   21.1909 C   0  0  0  0  0  0  0  0  0  0  0  0
   10.6228  -14.5713   21.5199 O   0  0  0  0  0  0  0  0  0  0  0  0
    6.6358  -12.0443   28.9833 O   0  0  0  0  0  0  0  0  0  0  0  0
    6.8397  -12.5351   27.7034 C   0  0  0  0  0  0  0  0  0  0  0  0
    7.5512  -11.8402   26.7590 C   0  0  0  0  0  0  0  0  0  0  0  0
    7.7530  -12.3300   25.4862 C   0  0  0  0  0  0  0  0  0  0  0  0
    7.2228  -13.5540   25.1571 C   0  0  0  0  0  0  0  0  0  0  0  0
    7.3988  -14.1282   23.8374 C   0  0  0  0  0  0  0  0  0  0  0  0
    8.7050  -14.8323   23.5691 C   0  0  2  0  0  0  0  0  0  0  0  0
    8.5510  -15.3074   22.1674 N   0  0  0  0  0  0  0  0  0  0  0  0
    8.9174  -16.0345   24.3808 C   0  0  0  0  0  0  0  0  0  0  0  0
    8.0734  -16.9930   24.3374 O   0  0  0  0  0  0  0  0  0  0  0  0
    6.5037  -14.2605   26.1053 C   0  0  0  0  0  0  0  0  0  0  0  0
    6.2985  -13.7721   27.3853 C   0  0  0  0  0  0  0  0  0  0  0  0
   10.0361  -16.2190   25.2385 N   0  0  0  0  0  0  0  0  0  0  0  0
   10.1374  -17.3088   26.1681 C   0  0  1  0  0  0  0  0  0  0  0  0
   11.5497  -17.8893   25.9680 C   0  0  0  0  0  0  0  0  0  0  0  0
   11.7283  -18.3667   24.5876 C   0  0  0  0  0  0  0  0  0  0  0  0
   10.8510  -18.3533   23.5258 C   0  0  0  0  0  0  0  0  0  0  0  0
   11.4739  -18.9076   22.4468 N   0  0  0  0  0  0  0  0  0  0  0  0
   12.7053  -19.2557   22.8293 C   0  0  0  0  0  0  0  0  0  0  0  0
   12.8655  -18.9303   24.1262 N   0  0  0  0  0  0  0  0  0  0  0  0
    9.9261  -16.9576   27.5788 C   0  0  0  0  0  0  0  0  0  0  0  0
    9.8159  -17.9691   28.5580 O   0  0  0  0  0  0  0  0  0  0  0  0
    9.8259  -15.7947   28.0440 O   0  0  0  0  0  0  0  0  0  0  0  0
  2  1  1  6
  3  2  1  0
  4  2  1  0
  5  4  1  0
  5  6  1  1
  7  5  1  0
  7  8  2  0
  9 10  1  0
 10 20  2  0
 10 11  1  0
 11 12  2  0
 12 13  1  0
 13 14  1  0
 15 14  1  1
 15 16  1  0
 16  7  1  0
 17 21  1  0
 17 15  1  0
 18 17  2  0
 19 13  2  0
 20 19  1  0
 22 21  1  0
 22 29  1  0
 22 23  1  1
 24 23  1  0
 24 25  2  0
 26 25  1  0
 27 26  1  0
 28 27  2  0
 28 24  1  0
 29 31  2  0
 29 30  1  0
M  END
$$$$
