LYH.pdb
     RDKit          3D

 31 32  0  0  1  0  0  0  0  0999 V2000
    7.8627  -12.2452   19.6304 C   0  0  0  0  0  0  0  0  0  0  0  0
    7.8346  -13.6952   20.0296 C   0  0  1  0  0  0  0  0  0  0  0  0
    7.4116  -14.5142   18.8314 C   0  0  0  0  0  0  0  0  0  0  0  0
    9.1121  -14.1637   20.6471 C   0  0  0  0  0  0  0  0  0  0  0  0
    8.9984  -15.5458   21.2528 C   0  0  2  0  0  0  0  0  0  0  0  0
    7.6450  -16.0106   21.1703 N   0  0  0  0  0  0  0  0  0  0  0  0
    9.5051  -15.5034   22.6495 C   0  0  0  0  0  0  0  0  0  0  0  0
   10.5844  -14.9310   22.9533 O   0  0  0  0  0  0  0  0  0  0  0  0
    6.0456  -10.5174   26.7985 O   0  0  0  0  0  0  0  0  0  0  0  0
    6.4866  -11.8051   26.5376 C   0  0  0  0  0  0  0  0  0  0  0  0
    7.8151  -12.1440   26.5739 C   0  0  0  0  0  0  0  0  0  0  0  0
    8.2520  -13.4254   26.3141 C   0  0  0  0  0  0  0  0  0  0  0  0
    7.3236  -14.3914   26.0094 C   0  0  0  0  0  0  0  0  0  0  0  0
    7.7147  -15.7589   25.7273 C   0  0  0  0  0  0  0  0  0  0  0  0
    9.0709  -15.9646   25.1011 C   0  0  2  0  0  0  0  0  0  0  0  0
    8.7553  -16.1206   23.6553 N   0  0  0  0  0  0  0  0  0  0  0  0
    9.7368  -17.2069   25.5044 C   0  0  0  0  0  0  0  0  0  0  0  0
   10.2542  -17.3065   26.6686 O   0  0  0  0  0  0  0  0  0  0  0  0
    5.9815  -14.0563   25.9710 C   0  0  0  0  0  0  0  0  0  0  0  0
    5.5381  -12.7699   26.2313 C   0  0  0  0  0  0  0  0  0  0  0  0
    9.8475  -18.3499   24.6662 N   0  0  0  0  0  0  0  0  0  0  0  0
   11.1085  -18.9272   24.2938 C   0  0  1  0  0  0  0  0  0  0  0  0
   11.5525  -18.1647   23.0316 C   0  0  0  0  0  0  0  0  0  0  0  0
   12.7748  -18.7569   22.4655 C   0  0  0  0  0  0  0  0  0  0  0  0
   13.5092  -19.8433   22.8868 C   0  0  0  0  0  0  0  0  0  0  0  0
   14.5625  -20.0058   22.0362 N   0  0  0  0  0  0  0  0  0  0  0  0
   14.4836  -19.0453   21.1115 C   0  0  0  0  0  0  0  0  0  0  0  0
   13.4018  -18.2849   21.3665 N   0  0  0  0  0  0  0  0  0  0  0  0
   12.1579  -18.8684   25.3201 C   0  0  0  0  0  0  0  0  0  0  0  0
   12.8759  -20.0316   25.6749 O   0  0  0  0  0  0  0  0  0  0  0  0
   12.5126  -17.8450   25.9569 O   0  0  0  0  0  0  0  0  0  0  0  0
  2  1  1  6
  3  2  1  0
  4  2  1  0
  5  4  1  0
  5  6  1  1
  7  5  1  0
  7  8  2  0
  9 10  1  0
 10 20  2  0
 10 11  1  0
 11 12  2  0
 12 13  1  0
 13 14  1  0
 15 14  1  1
 15 16  1  0
 16  7  1  0
 17 21  1  0
 17 15  1  0
 18 17  2  0
 19 13  2  0
 20 19  1  0
 22 21  1  0
 22 29  1  0
 22 23  1  6
 24 23  1  0
 24 25  2  0
 26 25  1  0
 27 26  1  0
 28 27  2  0
 28 24  1  0
 29 31  2  0
 29 30  1  0
M  END
$$$$
