LYH.pdb
     RDKit          3D

 31 32  0  0  1  0  0  0  0  0999 V2000
    8.4888  -20.4434   18.9070 C   0  0  0  0  0  0  0  0  0  0  0  0
    8.8565  -19.0030   18.6778 C   0  0  1  0  0  0  0  0  0  0  0  0
    7.8891  -18.4148   17.6761 C   0  0  0  0  0  0  0  0  0  0  0  0
    8.9581  -18.2101   19.9403 C   0  0  0  0  0  0  0  0  0  0  0  0
    9.2221  -16.7412   19.6907 C   0  0  2  0  0  0  0  0  0  0  0  0
   10.2732  -16.5855   18.7286 N   0  0  0  0  0  0  0  0  0  0  0  0
    9.5289  -16.0795   20.9859 C   0  0  0  0  0  0  0  0  0  0  0  0
   10.7086  -15.9331   21.4001 O   0  0  0  0  0  0  0  0  0  0  0  0
    6.7646  -11.8044   28.3458 O   0  0  0  0  0  0  0  0  0  0  0  0
    6.8964  -12.4381   27.1203 C   0  0  0  0  0  0  0  0  0  0  0  0
    6.3052  -13.6470   26.8554 C   0  0  0  0  0  0  0  0  0  0  0  0
    6.4374  -14.2760   25.6359 C   0  0  0  0  0  0  0  0  0  0  0  0
    7.1862  -13.6690   24.6567 C   0  0  0  0  0  0  0  0  0  0  0  0
    7.3645  -14.2748   23.3515 C   0  0  0  0  0  0  0  0  0  0  0  0
    8.6740  -14.9791   23.1001 C   0  0  2  0  0  0  0  0  0  0  0  0
    8.4698  -15.6057   21.7659 N   0  0  0  0  0  0  0  0  0  0  0  0
    8.9503  -16.0823   24.0252 C   0  0  0  0  0  0  0  0  0  0  0  0
    8.1384  -17.0656   24.1087 O   0  0  0  0  0  0  0  0  0  0  0  0
    7.7855  -12.4492   24.9173 C   0  0  0  0  0  0  0  0  0  0  0  0
    7.6553  -11.8137   26.1413 C   0  0  0  0  0  0  0  0  0  0  0  0
   10.0987  -16.1411   24.8612 N   0  0  0  0  0  0  0  0  0  0  0  0
   10.2292  -17.0728   25.9461 C   0  0  1  0  0  0  0  0  0  0  0  0
   11.5520  -17.8186   25.6900 C   0  0  0  0  0  0  0  0  0  0  0  0
   11.4051  -18.7803   24.5860 C   0  0  0  0  0  0  0  0  0  0  0  0
   10.3102  -19.0660   23.8007 C   0  0  0  0  0  0  0  0  0  0  0  0
   10.6630  -20.0340   22.9074 N   0  0  0  0  0  0  0  0  0  0  0  0
   11.9432  -20.3408   23.1328 C   0  0  0  0  0  0  0  0  0  0  0  0
   12.3986  -19.5840   24.1493 N   0  0  0  0  0  0  0  0  0  0  0  0
   10.2300  -16.4809   27.2906 C   0  0  0  0  0  0  0  0  0  0  0  0
   10.1473  -17.3054   28.4341 O   0  0  0  0  0  0  0  0  0  0  0  0
   10.2997  -15.2553   27.5586 O   0  0  0  0  0  0  0  0  0  0  0  0
  2  1  1  1
  3  2  1  0
  4  2  1  0
  5  4  1  0
  5  6  1  6
  7  5  1  0
  7  8  2  0
  9 10  1  0
 10 20  2  0
 10 11  1  0
 11 12  2  0
 12 13  1  0
 13 14  1  0
 15 14  1  1
 15 16  1  0
 16  7  1  0
 17 21  1  0
 17 15  1  0
 18 17  2  0
 19 13  2  0
 20 19  1  0
 22 21  1  0
 22 29  1  0
 22 23  1  6
 24 23  1  0
 24 25  2  0
 26 25  1  0
 27 26  1  0
 28 27  2  0
 28 24  1  0
 29 31  2  0
 29 30  1  0
M  END
$$$$
