LYH.pdb
     RDKit          3D

 31 32  0  0  1  0  0  0  0  0999 V2000
    7.2112  -12.4992   18.9138 C   0  0  0  0  0  0  0  0  0  0  0  0
    7.4448  -13.8849   19.4504 C   0  0  1  0  0  0  0  0  0  0  0  0
    7.4586  -14.8527   18.2892 C   0  0  0  0  0  0  0  0  0  0  0  0
    8.6549  -13.9860   20.3212 C   0  0  0  0  0  0  0  0  0  0  0  0
    8.7876  -15.3389   20.9860 C   0  0  2  0  0  0  0  0  0  0  0  0
    7.4942  -15.8392   21.3487 N   0  0  0  0  0  0  0  0  0  0  0  0
    9.7013  -15.2158   22.1520 C   0  0  0  0  0  0  0  0  0  0  0  0
   10.8852  -14.8042   22.0344 O   0  0  0  0  0  0  0  0  0  0  0  0
   10.8009  -15.3238   31.0481 O   0  0  0  0  0  0  0  0  0  0  0  0
   10.3581  -15.3179   29.7349 C   0  0  0  0  0  0  0  0  0  0  0  0
   10.3944  -14.1893   28.9564 C   0  0  0  0  0  0  0  0  0  0  0  0
    9.9534  -14.1854   27.6503 C   0  0  0  0  0  0  0  0  0  0  0  0
    9.4625  -15.3516   27.1147 C   0  0  0  0  0  0  0  0  0  0  0  0
    8.9841  -15.4174   25.7475 C   0  0  0  0  0  0  0  0  0  0  0  0
   10.0259  -15.3751   24.6581 C   0  0  2  0  0  0  0  0  0  0  0  0
    9.2262  -15.5697   23.4184 N   0  0  0  0  0  0  0  0  0  0  0  0
   10.9829  -16.4849   24.6984 C   0  0  0  0  0  0  0  0  0  0  0  0
   12.1502  -16.3056   25.1867 O   0  0  0  0  0  0  0  0  0  0  0  0
    9.4229  -16.4940   27.8947 C   0  0  0  0  0  0  0  0  0  0  0  0
    9.8649  -16.5024   29.2076 C   0  0  0  0  0  0  0  0  0  0  0  0
   10.6939  -17.7927   24.2215 N   0  0  0  0  0  0  0  0  0  0  0  0
   11.5858  -18.9042   24.3981 C   0  0  1  0  0  0  0  0  0  0  0  0
   12.9428  -18.4342   23.8421 C   0  0  0  0  0  0  0  0  0  0  0  0
   12.9187  -18.3904   22.3715 C   0  0  0  0  0  0  0  0  0  0  0  0
   11.8595  -18.2168   21.5082 C   0  0  0  0  0  0  0  0  0  0  0  0
   12.3364  -18.2493   20.2311 N   0  0  0  0  0  0  0  0  0  0  0  0
   13.6568  -18.4381   20.3003 C   0  0  0  0  0  0  0  0  0  0  0  0
   14.0157  -18.5244   21.5953 N   0  0  0  0  0  0  0  0  0  0  0  0
   11.7382  -19.3785   25.7801 C   0  0  0  0  0  0  0  0  0  0  0  0
   12.6237  -20.4373   26.0783 O   0  0  0  0  0  0  0  0  0  0  0  0
   11.1380  -18.9265   26.7872 O   0  0  0  0  0  0  0  0  0  0  0  0
  2  1  1  6
  3  2  1  0
  4  2  1  0
  5  4  1  0
  5  6  1  1
  7  5  1  0
  7  8  2  0
  9 10  1  0
 10 20  2  0
 10 11  1  0
 11 12  2  0
 12 13  1  0
 13 14  1  0
 15 14  1  1
 15 16  1  0
 16  7  1  0
 17 21  1  0
 17 15  1  0
 18 17  2  0
 19 13  2  0
 20 19  1  0
 22 21  1  0
 22 29  1  0
 22 23  1  1
 24 23  1  0
 24 25  2  0
 26 25  1  0
 27 26  1  0
 28 27  2  0
 28 24  1  0
 29 31  2  0
 29 30  1  0
M  END
$$$$
