AKY.pdb
     RDKit          3D

 27 27  0  0  1  0  0  0  0  0999 V2000
   12.8151  -13.2382  -11.9942 C   0  0  0  0  0  0  0  0  0  0  0  0
   12.6433  -11.7675  -12.2795 C   0  0  2  0  0  0  0  0  0  0  0  0
   12.1253  -11.4884  -13.5852 N   0  0  0  0  0  0  0  0  0  0  0  0
   13.8973  -11.0082  -11.9957 C   0  0  0  0  0  0  0  0  0  0  0  0
   14.5940  -11.3430  -11.0089 O   0  0  0  0  0  0  0  0  0  0  0  0
   14.2752   -9.9329  -12.8381 N   0  0  0  0  0  0  0  0  0  0  0  0
   15.6050   -9.2757  -12.6447 C   0  0  1  0  0  0  0  0  0  0  0  0
   16.0914   -8.9278  -14.0141 C   0  0  0  0  0  0  0  0  0  0  0  0
   17.3876   -8.2139  -14.1060 C   0  0  0  0  0  0  0  0  0  0  0  0
   17.7255   -7.9621  -15.5567 C   0  0  0  0  0  0  0  0  0  0  0  0
   19.0277   -7.2126  -15.7203 C   0  0  0  0  0  0  0  0  0  0  0  0
   18.8418   -5.8338  -15.3128 N   0  0  0  0  0  0  0  0  0  0  0  0
   15.3525   -8.1081  -11.7741 C   0  0  0  0  0  0  0  0  0  0  0  0
   14.4046   -7.2911  -12.0533 O   0  0  0  0  0  0  0  0  0  0  0  0
   10.1037   -8.6119   -7.7721 O   0  0  0  0  0  0  0  0  0  0  0  0
   11.4360   -8.2348   -7.9280 C   0  0  0  0  0  0  0  0  0  0  0  0
   12.3608   -9.1770   -8.3154 C   0  0  0  0  0  0  0  0  0  0  0  0
   13.6965   -8.8526   -8.4844 C   0  0  0  0  0  0  0  0  0  0  0  0
   14.1101   -7.5629   -8.2611 C   0  0  0  0  0  0  0  0  0  0  0  0
   15.5217   -7.2145   -8.4201 C   0  0  0  0  0  0  0  0  0  0  0  0
   15.7444   -6.6591   -9.8079 C   0  0  2  0  0  0  0  0  0  0  0  0
   16.0997   -7.8350  -10.6357 N   0  0  0  0  0  0  0  0  0  0  0  0
   16.8521   -5.6806   -9.8577 C   0  0  0  0  0  0  0  0  0  0  0  0
   16.7307   -4.5883   -9.2200 O   0  0  0  0  0  0  0  0  0  0  0  0
   13.1852   -6.6259   -7.8749 C   0  0  0  0  0  0  0  0  0  0  0  0
   11.8529   -6.9356   -7.7030 C   0  0  0  0  0  0  0  0  0  0  0  0
   18.0072   -5.9280  -10.5759 O   0  0  0  0  0  0  0  0  0  0  0  0
  2  1  1  6
  3  2  1  0
  4  5  2  0
  4  2  1  0
  6  4  1  0
  7  6  1  0
  7  8  1  6
  8  9  1  0
 10  9  1  0
 11 12  1  0
 11 10  1  0
 13  7  1  0
 14 13  2  0
 15 16  1  0
 16 26  2  0
 17 18  2  0
 17 16  1  0
 18 19  1  0
 19 20  1  0
 19 25  2  0
 21 20  1  1
 21 23  1  0
 21 22  1  0
 22 13  1  0
 23 27  1  0
 24 23  2  0
 26 25  1  0
M  END
$$$$
