AKY.pdb
     RDKit          3D

 27 27  0  0  1  0  0  0  0  0999 V2000
   25.9784  -12.2435  -17.9156 C   0  0  0  0  0  0  0  0  0  0  0  0
   25.1319  -12.2189  -16.6681 C   0  0  2  0  0  0  0  0  0  0  0  0
   24.5589  -13.4879  -16.3330 N   0  0  0  0  0  0  0  0  0  0  0  0
   24.1067  -11.1349  -16.7276 C   0  0  0  0  0  0  0  0  0  0  0  0
   24.4899   -9.9510  -16.8781 O   0  0  0  0  0  0  0  0  0  0  0  0
   22.7317  -11.4592  -16.6142 N   0  0  0  0  0  0  0  0  0  0  0  0
   21.7016  -10.4007  -16.8507 C   0  0  1  0  0  0  0  0  0  0  0  0
   20.4693  -11.1216  -17.2922 C   0  0  0  0  0  0  0  0  0  0  0  0
   20.3080  -11.3474  -18.7486 C   0  0  0  0  0  0  0  0  0  0  0  0
   19.6147  -12.6691  -18.9825 C   0  0  0  0  0  0  0  0  0  0  0  0
   19.3832  -12.9431  -20.4507 C   0  0  0  0  0  0  0  0  0  0  0  0
   18.7792  -14.2520  -20.6047 N   0  0  0  0  0  0  0  0  0  0  0  0
   21.5596   -9.6848  -15.5652 C   0  0  0  0  0  0  0  0  0  0  0  0
   21.5178  -10.3417  -14.4649 O   0  0  0  0  0  0  0  0  0  0  0  0
   22.6690   -2.1753  -16.9141 O   0  0  0  0  0  0  0  0  0  0  0  0
   22.6867   -3.3489  -16.1633 C   0  0  0  0  0  0  0  0  0  0  0  0
   23.1214   -4.5156  -16.7489 C   0  0  0  0  0  0  0  0  0  0  0  0
   23.1582   -5.7079  -16.0454 C   0  0  0  0  0  0  0  0  0  0  0  0
   22.7525   -5.7295  -14.7342 C   0  0  0  0  0  0  0  0  0  0  0  0
   22.7713   -6.9873  -13.9882 C   0  0  0  0  0  0  0  0  0  0  0  0
   21.4319   -7.6723  -14.1327 C   0  0  2  0  0  0  0  0  0  0  0  0
   21.4694   -8.3020  -15.4729 N   0  0  0  0  0  0  0  0  0  0  0  0
   20.2990   -6.7233  -14.0762 C   0  0  0  0  0  0  0  0  0  0  0  0
   19.6915   -6.4332  -15.1538 O   0  0  0  0  0  0  0  0  0  0  0  0
   22.3195   -4.5642  -14.1535 C   0  0  0  0  0  0  0  0  0  0  0  0
   22.2778   -3.3708  -14.8424 C   0  0  0  0  0  0  0  0  0  0  0  0
   19.8900   -6.1516  -12.8858 O   0  0  0  0  0  0  0  0  0  0  0  0
  2  1  1  6
  3  2  1  0
  4  5  2  0
  4  2  1  0
  6  4  1  0
  7  6  1  0
  7  8  1  1
  8  9  1  0
 10  9  1  0
 11 12  1  0
 11 10  1  0
 13  7  1  0
 14 13  2  0
 15 16  1  0
 16 26  2  0
 17 18  2  0
 17 16  1  0
 18 19  1  0
 19 20  1  0
 19 25  2  0
 21 20  1  6
 21 23  1  0
 21 22  1  0
 22 13  1  0
 23 27  1  0
 24 23  2  0
 26 25  1  0
M  END
$$$$
