AKY.pdb
     RDKit          3D

 27 27  0  0  1  0  0  0  0  0999 V2000
   23.9279  -16.4531  -19.7086 C   0  0  0  0  0  0  0  0  0  0  0  0
   24.6841  -16.9991  -18.5238 C   0  0  2  0  0  0  0  0  0  0  0  0
   26.1002  -17.0716  -18.7252 N   0  0  0  0  0  0  0  0  0  0  0  0
   24.1119  -18.3000  -18.0657 C   0  0  0  0  0  0  0  0  0  0  0  0
   22.9050  -18.3423  -17.7297 O   0  0  0  0  0  0  0  0  0  0  0  0
   24.9343  -19.4534  -18.0188 N   0  0  0  0  0  0  0  0  0  0  0  0
   24.3583  -20.7522  -17.5509 C   0  0  1  0  0  0  0  0  0  0  0  0
   24.8484  -21.7860  -18.5122 C   0  0  0  0  0  0  0  0  0  0  0  0
   24.1053  -21.9241  -19.7877 C   0  0  0  0  0  0  0  0  0  0  0  0
   24.7311  -23.0163  -20.6228 C   0  0  0  0  0  0  0  0  0  0  0  0
   24.1026  -23.1214  -21.9933 C   0  0  0  0  0  0  0  0  0  0  0  0
   24.8270  -24.1010  -22.7791 N   0  0  0  0  0  0  0  0  0  0  0  0
   24.8438  -20.9306  -16.1662 C   0  0  0  0  0  0  0  0  0  0  0  0
   26.0914  -20.8006  -15.9007 O   0  0  0  0  0  0  0  0  0  0  0  0
   26.4166  -20.7141   -7.8077 O   0  0  0  0  0  0  0  0  0  0  0  0
   26.0732  -20.5707   -9.1504 C   0  0  0  0  0  0  0  0  0  0  0  0
   24.7587  -20.3446   -9.4881 C   0  0  0  0  0  0  0  0  0  0  0  0
   24.3665  -20.1950  -10.8078 C   0  0  0  0  0  0  0  0  0  0  0  0
   25.3079  -20.2735  -11.8037 C   0  0  0  0  0  0  0  0  0  0  0  0
   24.9007  -20.1341  -13.2015 C   0  0  0  0  0  0  0  0  0  0  0  0
   24.6008  -21.5013  -13.7716 C   0  0  2  0  0  0  0  0  0  0  0  0
   24.0056  -21.2364  -15.1019 N   0  0  0  0  0  0  0  0  0  0  0  0
   23.6318  -22.2594  -12.9509 C   0  0  0  0  0  0  0  0  0  0  0  0
   22.3930  -22.0097  -13.0831 O   0  0  0  0  0  0  0  0  0  0  0  0
   26.6178  -20.4992  -11.4633 C   0  0  0  0  0  0  0  0  0  0  0  0
   27.0215  -20.6500  -10.1538 C   0  0  0  0  0  0  0  0  0  0  0  0
   24.0421  -23.2265  -12.0523 O   0  0  0  0  0  0  0  0  0  0  0  0
  2  1  1  6
  3  2  1  0
  4  5  2  0
  4  2  1  0
  6  4  1  0
  7  6  1  0
  7  8  1  6
  8  9  1  0
 10  9  1  0
 11 12  1  0
 11 10  1  0
 13  7  1  0
 14 13  2  0
 15 16  1  0
 16 26  2  0
 17 18  2  0
 17 16  1  0
 18 19  1  0
 19 20  1  0
 19 25  2  0
 21 20  1  1
 21 23  1  0
 21 22  1  0
 22 13  1  0
 23 27  1  0
 24 23  2  0
 26 25  1  0
M  END
$$$$
