AKY.pdb
     RDKit          3D

 27 27  0  0  1  0  0  0  0  0999 V2000
   24.4412  -25.0187  -16.4060 C   0  0  0  0  0  0  0  0  0  0  0  0
   25.2932  -24.0351  -17.1679 C   0  0  2  0  0  0  0  0  0  0  0  0
   26.2101  -24.6497  -18.0804 N   0  0  0  0  0  0  0  0  0  0  0  0
   25.9717  -23.0755  -16.2469 C   0  0  0  0  0  0  0  0  0  0  0  0
   27.0643  -23.4071  -15.7296 O   0  0  0  0  0  0  0  0  0  0  0  0
   25.3753  -21.8187  -15.9756 N   0  0  0  0  0  0  0  0  0  0  0  0
   26.1102  -20.8175  -15.1418 C   0  0  1  0  0  0  0  0  0  0  0  0
   25.6446  -19.4766  -15.6092 C   0  0  0  0  0  0  0  0  0  0  0  0
   26.2982  -18.9221  -16.8189 C   0  0  0  0  0  0  0  0  0  0  0  0
   25.6523  -17.6066  -17.1857 C   0  0  0  0  0  0  0  0  0  0  0  0
   26.2630  -16.9940  -18.4251 C   0  0  0  0  0  0  0  0  0  0  0  0
   25.5867  -15.7476  -18.7267 N   0  0  0  0  0  0  0  0  0  0  0  0
   25.7595  -21.1283  -13.7399 C   0  0  0  0  0  0  0  0  0  0  0  0
   24.5861  -21.5565  -13.4506 O   0  0  0  0  0  0  0  0  0  0  0  0
   26.6136  -18.2564   -5.7773 O   0  0  0  0  0  0  0  0  0  0  0  0
   26.7936  -19.0241   -6.9260 C   0  0  0  0  0  0  0  0  0  0  0  0
   27.8023  -18.6967   -7.8027 C   0  0  0  0  0  0  0  0  0  0  0  0
   28.0224  -19.4282   -8.9577 C   0  0  0  0  0  0  0  0  0  0  0  0
   27.2178  -20.5047   -9.2372 C   0  0  0  0  0  0  0  0  0  0  0  0
   27.4314  -21.2729  -10.4634 C   0  0  0  0  0  0  0  0  0  0  0  0
   26.1759  -21.2290  -11.3036 C   0  0  2  0  0  0  0  0  0  0  0  0
   26.6512  -20.9837  -12.6850 N   0  0  0  0  0  0  0  0  0  0  0  0
   25.2631  -20.1358  -10.9053 C   0  0  0  0  0  0  0  0  0  0  0  0
   25.4821  -18.9655  -11.3493 O   0  0  0  0  0  0  0  0  0  0  0  0
   26.2128  -20.8283   -8.3609 C   0  0  0  0  0  0  0  0  0  0  0  0
   25.9830  -20.1085   -7.2078 C   0  0  0  0  0  0  0  0  0  0  0  0
   24.1853  -20.3589  -10.0688 O   0  0  0  0  0  0  0  0  0  0  0  0
  2  1  1  1
  3  2  1  0
  4  5  2  0
  4  2  1  0
  6  4  1  0
  7  6  1  0
  7  8  1  6
  8  9  1  0
 10  9  1  0
 11 12  1  0
 11 10  1  0
 13  7  1  0
 14 13  2  0
 15 16  1  0
 16 26  2  0
 17 18  2  0
 17 16  1  0
 18 19  1  0
 19 20  1  0
 19 25  2  0
 21 20  1  1
 21 23  1  0
 21 22  1  0
 22 13  1  0
 23 27  1  0
 24 23  2  0
 26 25  1  0
M  END
$$$$
