AKY.pdb
     RDKit          3D

 27 27  0  0  1  0  0  0  0  0999 V2000
   20.5010  -27.0125  -14.4837 C   0  0  0  0  0  0  0  0  0  0  0  0
   21.3823  -25.8898  -14.9700 C   0  0  2  0  0  0  0  0  0  0  0  0
   22.2972  -25.4032  -13.9814 N   0  0  0  0  0  0  0  0  0  0  0  0
   20.5766  -24.7919  -15.5823 C   0  0  0  0  0  0  0  0  0  0  0  0
   20.1334  -24.9461  -16.7447 O   0  0  0  0  0  0  0  0  0  0  0  0
   20.3288  -23.6060  -14.8468 N   0  0  0  0  0  0  0  0  0  0  0  0
   19.4516  -22.5446  -15.4312 C   0  0  1  0  0  0  0  0  0  0  0  0
   18.7193  -21.9394  -14.2778 C   0  0  0  0  0  0  0  0  0  0  0  0
   17.2502  -22.1345  -14.2371 C   0  0  0  0  0  0  0  0  0  0  0  0
   16.8936  -23.0614  -13.0987 C   0  0  0  0  0  0  0  0  0  0  0  0
   15.4351  -23.4572  -13.1171 C   0  0  0  0  0  0  0  0  0  0  0  0
   15.1504  -24.2921  -11.9666 N   0  0  0  0  0  0  0  0  0  0  0  0
   20.3612  -21.6126  -16.1306 C   0  0  0  0  0  0  0  0  0  0  0  0
   21.4224  -21.1911  -15.5473 O   0  0  0  0  0  0  0  0  0  0  0  0
   16.3465  -17.6380  -21.0904 O   0  0  0  0  0  0  0  0  0  0  0  0
   17.4587  -18.3827  -20.7033 C   0  0  0  0  0  0  0  0  0  0  0  0
   18.7145  -17.8378  -20.8419 C   0  0  0  0  0  0  0  0  0  0  0  0
   19.8511  -18.5370  -20.4717 C   0  0  0  0  0  0  0  0  0  0  0  0
   19.7254  -19.8022  -19.9545 C   0  0  0  0  0  0  0  0  0  0  0  0
   20.9210  -20.5552  -19.5768 C   0  0  0  0  0  0  0  0  0  0  0  0
   21.1845  -20.3641  -18.1009 C   0  0  2  0  0  0  0  0  0  0  0  0
   20.1318  -21.1541  -17.4213 N   0  0  0  0  0  0  0  0  0  0  0  0
   21.0738  -18.9501  -17.6821 C   0  0  0  0  0  0  0  0  0  0  0  0
   20.0922  -18.6046  -16.9529 O   0  0  0  0  0  0  0  0  0  0  0  0
   18.4716  -20.3425  -19.8176 C   0  0  0  0  0  0  0  0  0  0  0  0
   17.3322  -19.6575  -20.1823 C   0  0  0  0  0  0  0  0  0  0  0  0
   22.0085  -18.0053  -18.0626 O   0  0  0  0  0  0  0  0  0  0  0  0
  2  1  1  1
  3  2  1  0
  4  5  2  0
  4  2  1  0
  6  4  1  0
  7  6  1  0
  7  8  1  1
  8  9  1  0
 10  9  1  0
 11 12  1  0
 11 10  1  0
 13  7  1  0
 14 13  2  0
 15 16  1  0
 16 26  2  0
 17 18  2  0
 17 16  1  0
 18 19  1  0
 19 20  1  0
 19 25  2  0
 21 20  1  6
 21 23  1  0
 21 22  1  0
 22 13  1  0
 23 27  1  0
 24 23  2  0
 26 25  1  0
M  END
$$$$
