AKY.pdb
     RDKit          3D

 27 27  0  0  1  0  0  0  0  0999 V2000
   14.9101  -12.2721  -14.5854 C   0  0  0  0  0  0  0  0  0  0  0  0
   15.5030  -13.0310  -15.7457 C   0  0  2  0  0  0  0  0  0  0  0  0
   15.2380  -14.4380  -15.7123 N   0  0  0  0  0  0  0  0  0  0  0  0
   16.9579  -12.7344  -15.9031 C   0  0  0  0  0  0  0  0  0  0  0  0
   17.7341  -13.0070  -14.9573 O   0  0  0  0  0  0  0  0  0  0  0  0
   17.4323  -12.1555  -17.1067 N   0  0  0  0  0  0  0  0  0  0  0  0
   18.8968  -11.9036  -17.2777 C   0  0  1  0  0  0  0  0  0  0  0  0
   19.1888  -12.1567  -18.7212 C   0  0  0  0  0  0  0  0  0  0  0  0
   20.5360  -11.7781  -19.2110 C   0  0  0  0  0  0  0  0  0  0  0  0
   21.4718  -12.9570  -19.0817 C   0  0  0  0  0  0  0  0  0  0  0  0
   22.8622  -12.6431  -19.5843 C   0  0  0  0  0  0  0  0  0  0  0  0
   23.7363  -13.7665  -19.3094 N   0  0  0  0  0  0  0  0  0  0  0  0
   19.1162  -10.5061  -16.8488 C   0  0  0  0  0  0  0  0  0  0  0  0
   18.2103   -9.6217  -17.0517 O   0  0  0  0  0  0  0  0  0  0  0  0
   22.8246   -3.1374  -14.0387 O   0  0  0  0  0  0  0  0  0  0  0  0
   22.4801   -4.4746  -14.2243 C   0  0  0  0  0  0  0  0  0  0  0  0
   23.1609   -5.2213  -15.1581 C   0  0  0  0  0  0  0  0  0  0  0  0
   22.8567   -6.5540  -15.3800 C   0  0  0  0  0  0  0  0  0  0  0  0
   21.8539   -7.1462  -14.6535 C   0  0  0  0  0  0  0  0  0  0  0  0
   21.5137   -8.5484  -14.8929 C   0  0  0  0  0  0  0  0  0  0  0  0
   20.4842   -8.6298  -15.9963 C   0  0  2  0  0  0  0  0  0  0  0  0
   20.2773  -10.0798  -16.2173 N   0  0  0  0  0  0  0  0  0  0  0  0
   20.9506   -8.0106  -17.2558 C   0  0  0  0  0  0  0  0  0  0  0  0
   21.7180   -8.6789  -18.0168 O   0  0  0  0  0  0  0  0  0  0  0  0
   21.1770   -6.3987  -13.7231 C   0  0  0  0  0  0  0  0  0  0  0  0
   21.4697   -5.0714  -13.4926 C   0  0  0  0  0  0  0  0  0  0  0  0
   20.5712   -6.7321  -17.6198 O   0  0  0  0  0  0  0  0  0  0  0  0
  2  1  1  1
  3  2  1  0
  4  5  2  0
  4  2  1  0
  6  4  1  0
  7  6  1  0
  7  8  1  6
  8  9  1  0
 10  9  1  0
 11 12  1  0
 11 10  1  0
 13  7  1  0
 14 13  2  0
 15 16  1  0
 16 26  2  0
 17 18  2  0
 17 16  1  0
 18 19  1  0
 19 20  1  0
 19 25  2  0
 21 20  1  1
 21 23  1  0
 21 22  1  0
 22 13  1  0
 23 27  1  0
 24 23  2  0
 26 25  1  0
M  END
$$$$
