AKY.pdb
     RDKit          3D

 27 27  0  0  1  0  0  0  0  0999 V2000
   25.6319  -19.1713  -14.7245 C   0  0  0  0  0  0  0  0  0  0  0  0
   24.7858  -19.5659  -15.9087 C   0  0  2  0  0  0  0  0  0  0  0  0
   25.1176  -18.8681  -17.1145 N   0  0  0  0  0  0  0  0  0  0  0  0
   23.3297  -19.4803  -15.5895 C   0  0  0  0  0  0  0  0  0  0  0  0
   22.7653  -18.3625  -15.6461 O   0  0  0  0  0  0  0  0  0  0  0  0
   22.6172  -20.6521  -15.2316 N   0  0  0  0  0  0  0  0  0  0  0  0
   21.1474  -20.5703  -14.9664 C   0  0  1  0  0  0  0  0  0  0  0  0
   20.4798  -20.8934  -16.2637 C   0  0  0  0  0  0  0  0  0  0  0  0
   19.1464  -20.2906  -16.5021 C   0  0  0  0  0  0  0  0  0  0  0  0
   18.2076  -21.3389  -17.0514 C   0  0  0  0  0  0  0  0  0  0  0  0
   16.7992  -20.8163  -17.2183 C   0  0  0  0  0  0  0  0  0  0  0  0
   15.9630  -21.8614  -17.7754 N   0  0  0  0  0  0  0  0  0  0  0  0
   20.8800  -21.5432  -13.8860 C   0  0  0  0  0  0  0  0  0  0  0  0
   21.4775  -22.6775  -13.8801 O   0  0  0  0  0  0  0  0  0  0  0  0
   17.6585  -25.5453   -6.8479 O   0  0  0  0  0  0  0  0  0  0  0  0
   18.0548  -24.5880   -7.7794 C   0  0  0  0  0  0  0  0  0  0  0  0
   17.1105  -24.0186   -8.6022 C   0  0  0  0  0  0  0  0  0  0  0  0
   17.4534  -23.0628   -9.5438 C   0  0  0  0  0  0  0  0  0  0  0  0
   18.7642  -22.6727   -9.6614 C   0  0  0  0  0  0  0  0  0  0  0  0
   19.1389  -21.6766  -10.6647 C   0  0  0  0  0  0  0  0  0  0  0  0
   19.7011  -22.3796  -11.8787 C   0  0  2  0  0  0  0  0  0  0  0  0
   19.9968  -21.2951  -12.8433 N   0  0  0  0  0  0  0  0  0  0  0  0
   18.7362  -23.3195  -12.4891 C   0  0  0  0  0  0  0  0  0  0  0  0
   18.8546  -24.5606  -12.2440 O   0  0  0  0  0  0  0  0  0  0  0  0
   19.7034  -23.2426   -8.8393 C   0  0  0  0  0  0  0  0  0  0  0  0
   19.3754  -24.1949   -7.8981 C   0  0  0  0  0  0  0  0  0  0  0  0
   17.7162  -22.8796  -13.3121 O   0  0  0  0  0  0  0  0  0  0  0  0
  2  1  1  1
  3  2  1  0
  4  5  2  0
  4  2  1  0
  6  4  1  0
  7  6  1  0
  7  8  1  6
  8  9  1  0
 10  9  1  0
 11 12  1  0
 11 10  1  0
 13  7  1  0
 14 13  2  0
 15 16  1  0
 16 26  2  0
 17 18  2  0
 17 16  1  0
 18 19  1  0
 19 20  1  0
 19 25  2  0
 21 20  1  1
 21 23  1  0
 21 22  1  0
 22 13  1  0
 23 27  1  0
 24 23  2  0
 26 25  1  0
M  END
$$$$
