AKY.pdb
     RDKit          3D

 27 27  0  0  1  0  0  0  0  0999 V2000
   21.2354  -12.2658  -18.6510 C   0  0  0  0  0  0  0  0  0  0  0  0
   20.4500  -11.2265  -17.8916 C   0  0  2  0  0  0  0  0  0  0  0  0
   19.1206  -11.0303  -18.3869 N   0  0  0  0  0  0  0  0  0  0  0  0
   21.2070   -9.9440  -17.7837 C   0  0  0  0  0  0  0  0  0  0  0  0
   22.3432   -9.9578  -17.2544 O   0  0  0  0  0  0  0  0  0  0  0  0
   20.6344   -8.7447  -18.2764 N   0  0  0  0  0  0  0  0  0  0  0  0
   21.3469   -7.4462  -18.0673 C   0  0  1  0  0  0  0  0  0  0  0  0
   21.0560   -6.6213  -19.2789 C   0  0  0  0  0  0  0  0  0  0  0  0
   21.5224   -5.2141  -19.2620 C   0  0  0  0  0  0  0  0  0  0  0  0
   21.1367   -4.5369  -20.5561 C   0  0  0  0  0  0  0  0  0  0  0  0
   21.6054   -3.1012  -20.6139 C   0  0  0  0  0  0  0  0  0  0  0  0
   21.0633   -2.4673  -21.7996 N   0  0  0  0  0  0  0  0  0  0  0  0
   20.8062   -6.8901  -16.8089 C   0  0  0  0  0  0  0  0  0  0  0  0
   19.5675   -7.0461  -16.5171 O   0  0  0  0  0  0  0  0  0  0  0  0
   18.6369   -5.6678   -8.7824 O   0  0  0  0  0  0  0  0  0  0  0  0
   19.1801   -5.9945  -10.0232 C   0  0  0  0  0  0  0  0  0  0  0  0
   20.5335   -6.2198  -10.1268 C   0  0  0  0  0  0  0  0  0  0  0  0
   21.1216   -6.5474  -11.3370 C   0  0  0  0  0  0  0  0  0  0  0  0
   20.3394   -6.6506  -12.4603 C   0  0  0  0  0  0  0  0  0  0  0  0
   20.9539   -6.9791  -13.7462 C   0  0  0  0  0  0  0  0  0  0  0  0
   20.9670   -5.7469  -14.6212 C   0  0  2  0  0  0  0  0  0  0  0  0
   21.5820   -6.1906  -15.8937 N   0  0  0  0  0  0  0  0  0  0  0  0
   21.7787   -4.6514  -14.0484 C   0  0  0  0  0  0  0  0  0  0  0  0
   23.0269   -4.6285  -14.2851 O   0  0  0  0  0  0  0  0  0  0  0  0
   18.9902   -6.4253  -12.3534 C   0  0  0  0  0  0  0  0  0  0  0  0
   18.3922   -6.0983  -11.1550 C   0  0  0  0  0  0  0  0  0  0  0  0
   21.2125   -3.6599  -13.2690 O   0  0  0  0  0  0  0  0  0  0  0  0
  2  1  1  6
  3  2  1  0
  4  5  2  0
  4  2  1  0
  6  4  1  0
  7  6  1  0
  7  8  1  6
  8  9  1  0
 10  9  1  0
 11 12  1  0
 11 10  1  0
 13  7  1  0
 14 13  2  0
 15 16  1  0
 16 26  2  0
 17 18  2  0
 17 16  1  0
 18 19  1  0
 19 20  1  0
 19 25  2  0
 21 20  1  1
 21 23  1  0
 21 22  1  0
 22 13  1  0
 23 27  1  0
 24 23  2  0
 26 25  1  0
M  END
$$$$
