AKY.pdb
     RDKit          3D

 27 27  0  0  1  0  0  0  0  0999 V2000
   26.1651  -16.8877  -15.9099 C   0  0  0  0  0  0  0  0  0  0  0  0
   27.0613  -17.4694  -14.8460 C   0  0  2  0  0  0  0  0  0  0  0  0
   28.2432  -18.0919  -15.3625 N   0  0  0  0  0  0  0  0  0  0  0  0
   26.3029  -18.3718  -13.9295 C   0  0  0  0  0  0  0  0  0  0  0  0
   25.2504  -17.9451  -13.3989 O   0  0  0  0  0  0  0  0  0  0  0  0
   26.7804  -19.6822  -13.6773 N   0  0  0  0  0  0  0  0  0  0  0  0
   25.9547  -20.6243  -12.8599 C   0  0  1  0  0  0  0  0  0  0  0  0
   26.0638  -21.9533  -13.5343 C   0  0  0  0  0  0  0  0  0  0  0  0
   24.8698  -22.4339  -14.2702 C   0  0  0  0  0  0  0  0  0  0  0  0
   25.1521  -23.7961  -14.8592 C   0  0  0  0  0  0  0  0  0  0  0  0
   24.0470  -24.2635  -15.7783 C   0  0  0  0  0  0  0  0  0  0  0  0
   24.3735  -25.5801  -16.2897 N   0  0  0  0  0  0  0  0  0  0  0  0
   26.5297  -20.5840  -11.4987 C   0  0  0  0  0  0  0  0  0  0  0  0
   27.7733  -20.8384  -11.3185 O   0  0  0  0  0  0  0  0  0  0  0  0
   29.0928  -19.5959   -3.4155 O   0  0  0  0  0  0  0  0  0  0  0  0
   28.4642  -19.5002   -4.6552 C   0  0  0  0  0  0  0  0  0  0  0  0
   29.1695  -19.0127   -5.7313 C   0  0  0  0  0  0  0  0  0  0  0  0
   28.5903  -18.8982   -6.9839 C   0  0  0  0  0  0  0  0  0  0  0  0
   27.2831  -19.2789   -7.1592 C   0  0  0  0  0  0  0  0  0  0  0  0
   26.6574  -19.1455   -8.4744 C   0  0  0  0  0  0  0  0  0  0  0  0
   26.3699  -20.5209   -9.0311 C   0  0  2  0  0  0  0  0  0  0  0  0
   25.7836  -20.2749  -10.3689 N   0  0  0  0  0  0  0  0  0  0  0  0
   25.3991  -21.2753   -8.2092 C   0  0  0  0  0  0  0  0  0  0  0  0
   24.1579  -21.0739   -8.3921 O   0  0  0  0  0  0  0  0  0  0  0  0
   26.5827  -19.7646   -6.0840 C   0  0  0  0  0  0  0  0  0  0  0  0
   27.1472  -19.8836   -4.8320 C   0  0  0  0  0  0  0  0  0  0  0  0
   25.8102  -22.1882   -7.2558 O   0  0  0  0  0  0  0  0  0  0  0  0
  2  1  1  6
  3  2  1  0
  4  5  2  0
  4  2  1  0
  6  4  1  0
  7  6  1  0
  7  8  1  6
  8  9  1  0
 10  9  1  0
 11 12  1  0
 11 10  1  0
 13  7  1  0
 14 13  2  0
 15 16  1  0
 16 26  2  0
 17 18  2  0
 17 16  1  0
 18 19  1  0
 19 20  1  0
 19 25  2  0
 21 20  1  1
 21 23  1  0
 21 22  1  0
 22 13  1  0
 23 27  1  0
 24 23  2  0
 26 25  1  0
M  END
$$$$
