AKY.pdb
     RDKit          3D

 27 27  0  0  1  0  0  0  0  0999 V2000
   26.7380  -26.7302  -17.1352 C   0  0  0  0  0  0  0  0  0  0  0  0
   28.0654  -26.2818  -17.6927 C   0  0  2  0  0  0  0  0  0  0  0  0
   29.1258  -27.2225  -17.4885 N   0  0  0  0  0  0  0  0  0  0  0  0
   28.4236  -24.9145  -17.2113 C   0  0  0  0  0  0  0  0  0  0  0  0
   29.1063  -24.8036  -16.1658 O   0  0  0  0  0  0  0  0  0  0  0  0
   27.9904  -23.7766  -17.9367 N   0  0  0  0  0  0  0  0  0  0  0  0
   28.3703  -22.4099  -17.4621 C   0  0  1  0  0  0  0  0  0  0  0  0
   28.1051  -21.4907  -18.6101 C   0  0  0  0  0  0  0  0  0  0  0  0
   28.3256  -20.0432  -18.3772 C   0  0  0  0  0  0  0  0  0  0  0  0
   29.2134  -19.4847  -19.4644 C   0  0  0  0  0  0  0  0  0  0  0  0
   29.4482  -18.0000  -19.3066 C   0  0  0  0  0  0  0  0  0  0  0  0
   30.3966  -17.5554  -20.3089 N   0  0  0  0  0  0  0  0  0  0  0  0
   27.5340  -22.1520  -16.2709 C   0  0  0  0  0  0  0  0  0  0  0  0
   26.3473  -22.6327  -16.2023 O   0  0  0  0  0  0  0  0  0  0  0  0
   24.6815  -19.4888   -8.4715 O   0  0  0  0  0  0  0  0  0  0  0  0
   25.4709  -19.7763   -9.5831 C   0  0  0  0  0  0  0  0  0  0  0  0
   26.1330  -18.7526  -10.2209 C   0  0  0  0  0  0  0  0  0  0  0  0
   26.9297  -18.9863  -11.3292 C   0  0  0  0  0  0  0  0  0  0  0  0
   27.0641  -20.2671  -11.8045 C   0  0  0  0  0  0  0  0  0  0  0  0
   27.8894  -20.5215  -12.9849 C   0  0  0  0  0  0  0  0  0  0  0  0
   27.0407  -21.1657  -14.0567 C   0  0  2  0  0  0  0  0  0  0  0  0
   27.9691  -21.4011  -15.1866 N   0  0  0  0  0  0  0  0  0  0  0  0
   25.9383  -20.2910  -14.5112 C   0  0  0  0  0  0  0  0  0  0  0  0
   26.1866  -19.3972  -15.3795 O   0  0  0  0  0  0  0  0  0  0  0  0
   26.4024  -21.2855  -11.1661 C   0  0  0  0  0  0  0  0  0  0  0  0
   25.6062  -21.0665  -10.0622 C   0  0  0  0  0  0  0  0  0  0  0  0
   24.6543  -20.4254  -14.0165 O   0  0  0  0  0  0  0  0  0  0  0  0
  2  1  1  1
  3  2  1  0
  4  5  2  0
  4  2  1  0
  6  4  1  0
  7  6  1  0
  7  8  1  6
  8  9  1  0
 10  9  1  0
 11 12  1  0
 11 10  1  0
 13  7  1  0
 14 13  2  0
 15 16  1  0
 16 26  2  0
 17 18  2  0
 17 16  1  0
 18 19  1  0
 19 20  1  0
 19 25  2  0
 21 20  1  1
 21 23  1  0
 21 22  1  0
 22 13  1  0
 23 27  1  0
 24 23  2  0
 26 25  1  0
M  END
$$$$
