AKY.pdb
     RDKit          3D

 27 27  0  0  1  0  0  0  0  0999 V2000
   19.8443  -22.0387  -16.4754 C   0  0  0  0  0  0  0  0  0  0  0  0
   20.6545  -21.0046  -15.7351 C   0  0  2  0  0  0  0  0  0  0  0  0
   20.5905  -19.6965  -16.3146 N   0  0  0  0  0  0  0  0  0  0  0  0
   22.0607  -21.4618  -15.5276 C   0  0  0  0  0  0  0  0  0  0  0  0
   22.2608  -22.5322  -14.9067 O   0  0  0  0  0  0  0  0  0  0  0  0
   23.1348  -20.6859  -16.0308 N   0  0  0  0  0  0  0  0  0  0  0  0
   24.5409  -21.1571  -15.8351 C   0  0  1  0  0  0  0  0  0  0  0  0
   25.3042  -20.6687  -17.0233 C   0  0  0  0  0  0  0  0  0  0  0  0
   26.7804  -20.7976  -16.9735 C   0  0  0  0  0  0  0  0  0  0  0  0
   27.1687  -22.2464  -17.1534 C   0  0  0  0  0  0  0  0  0  0  0  0
   28.6675  -22.4401  -17.1724 C   0  0  0  0  0  0  0  0  0  0  0  0
   28.9668  -23.8560  -17.2577 N   0  0  0  0  0  0  0  0  0  0  0  0
   24.9826  -20.5783  -14.5487 C   0  0  0  0  0  0  0  0  0  0  0  0
   24.7111  -19.3575  -14.2661 O   0  0  0  0  0  0  0  0  0  0  0  0
   27.7200  -19.3891   -6.4086 O   0  0  0  0  0  0  0  0  0  0  0  0
   27.4663  -19.9555   -7.6560 C   0  0  0  0  0  0  0  0  0  0  0  0
   26.1647  -20.0919   -8.0807 C   0  0  0  0  0  0  0  0  0  0  0  0
   25.8601  -20.6482   -9.3118 C   0  0  0  0  0  0  0  0  0  0  0  0
   26.8775  -21.0740  -10.1291 C   0  0  0  0  0  0  0  0  0  0  0  0
   26.5650  -21.6787  -11.4237 C   0  0  0  0  0  0  0  0  0  0  0  0
   26.2372  -20.5877  -12.4168 C   0  0  2  0  0  0  0  0  0  0  0  0
   25.6923  -21.2985  -13.5966 N   0  0  0  0  0  0  0  0  0  0  0  0
   27.4296  -19.8147  -12.8265 C   0  0  0  0  0  0  0  0  0  0  0  0
   28.2929  -20.3740  -13.5723 O   0  0  0  0  0  0  0  0  0  0  0  0
   28.1742  -20.9365   -9.7024 C   0  0  0  0  0  0  0  0  0  0  0  0
   28.4911  -20.3848   -8.4795 C   0  0  0  0  0  0  0  0  0  0  0  0
   27.6218  -18.5075  -12.4197 O   0  0  0  0  0  0  0  0  0  0  0  0
  2  1  1  6
  3  2  1  0
  4  5  2  0
  4  2  1  0
  6  4  1  0
  7  6  1  0
  7  8  1  6
  8  9  1  0
 10  9  1  0
 11 12  1  0
 11 10  1  0
 13  7  1  0
 14 13  2  0
 15 16  1  0
 16 26  2  0
 17 18  2  0
 17 16  1  0
 18 19  1  0
 19 20  1  0
 19 25  2  0
 21 20  1  1
 21 23  1  0
 21 22  1  0
 22 13  1  0
 23 27  1  0
 24 23  2  0
 26 25  1  0
M  END
$$$$
