AKY.pdb
     RDKit          3D

 27 27  0  0  1  0  0  0  0  0999 V2000
   27.3939  -27.2713  -16.9818 C   0  0  0  0  0  0  0  0  0  0  0  0
   28.3580  -26.4459  -17.7960 C   0  0  2  0  0  0  0  0  0  0  0  0
   29.6926  -26.9651  -17.8130 N   0  0  0  0  0  0  0  0  0  0  0  0
   28.3169  -25.0083  -17.3946 C   0  0  0  0  0  0  0  0  0  0  0  0
   29.1541  -24.5917  -16.5599 O   0  0  0  0  0  0  0  0  0  0  0  0
   27.3422  -24.1474  -17.9582 N   0  0  0  0  0  0  0  0  0  0  0  0
   27.3334  -22.6985  -17.5866 C   0  0  1  0  0  0  0  0  0  0  0  0
   26.6515  -21.9922  -18.7131 C   0  0  0  0  0  0  0  0  0  0  0  0
   26.3385  -20.5566  -18.5153 C   0  0  0  0  0  0  0  0  0  0  0  0
   27.5180  -19.7169  -18.9465 C   0  0  0  0  0  0  0  0  0  0  0  0
   27.3023  -18.2451  -18.6791 C   0  0  0  0  0  0  0  0  0  0  0  0
   28.4257  -17.4931  -19.2027 N   0  0  0  0  0  0  0  0  0  0  0  0
   26.6163  -22.6197  -16.2964 C   0  0  0  0  0  0  0  0  0  0  0  0
   25.6401  -23.4148  -16.0539 O   0  0  0  0  0  0  0  0  0  0  0  0
   23.9495  -20.0663   -8.3667 O   0  0  0  0  0  0  0  0  0  0  0  0
   24.6425  -20.2073   -9.5672 C   0  0  0  0  0  0  0  0  0  0  0  0
   25.7764  -20.9858   -9.6020 C   0  0  0  0  0  0  0  0  0  0  0  0
   26.5001  -21.1577  -10.7701 C   0  0  0  0  0  0  0  0  0  0  0  0
   26.0793  -20.5388  -11.9208 C   0  0  0  0  0  0  0  0  0  0  0  0
   26.8467  -20.7003  -13.1554 C   0  0  0  0  0  0  0  0  0  0  0  0
   26.1274  -21.6686  -14.0659 C   0  0  2  0  0  0  0  0  0  0  0  0
   26.9472  -21.7119  -15.2988 N   0  0  0  0  0  0  0  0  0  0  0  0
   24.7613  -21.2181  -14.4094 C   0  0  0  0  0  0  0  0  0  0  0  0
   23.7741  -21.7577  -13.8188 O   0  0  0  0  0  0  0  0  0  0  0  0
   24.9481  -19.7631  -11.8825 C   0  0  0  0  0  0  0  0  0  0  0  0
   24.2187  -19.5837  -10.7265 C   0  0  0  0  0  0  0  0  0  0  0  0
   24.5382  -20.2299  -15.3502 O   0  0  0  0  0  0  0  0  0  0  0  0
  2  1  1  1
  3  2  1  0
  4  5  2  0
  4  2  1  0
  6  4  1  0
  7  6  1  0
  7  8  1  6
  8  9  1  0
 10  9  1  0
 11 12  1  0
 11 10  1  0
 13  7  1  0
 14 13  2  0
 15 16  1  0
 16 26  2  0
 17 18  2  0
 17 16  1  0
 18 19  1  0
 19 20  1  0
 19 25  2  0
 21 20  1  1
 21 23  1  0
 21 22  1  0
 22 13  1  0
 23 27  1  0
 24 23  2  0
 26 25  1  0
M  END
$$$$
