AKY.pdb
     RDKit          3D

 27 27  0  0  1  0  0  0  0  0999 V2000
   20.9977  -16.5546  -14.5616 C   0  0  0  0  0  0  0  0  0  0  0  0
   21.0173  -17.7822  -15.4370 C   0  0  2  0  0  0  0  0  0  0  0  0
   19.7442  -18.1058  -16.0078 N   0  0  0  0  0  0  0  0  0  0  0  0
   21.6304  -18.9453  -14.7293 C   0  0  0  0  0  0  0  0  0  0  0  0
   20.9509  -19.5536  -13.8693 O   0  0  0  0  0  0  0  0  0  0  0  0
   22.9567  -19.3382  -15.0383 N   0  0  0  0  0  0  0  0  0  0  0  0
   23.5037  -20.6063  -14.4638 C   0  0  1  0  0  0  0  0  0  0  0  0
   24.1107  -21.3460  -15.6117 C   0  0  0  0  0  0  0  0  0  0  0  0
   24.7288  -22.6601  -15.3132 C   0  0  0  0  0  0  0  0  0  0  0  0
   23.6721  -23.6137  -14.8071 C   0  0  0  0  0  0  0  0  0  0  0  0
   24.2260  -24.9946  -14.5411 C   0  0  0  0  0  0  0  0  0  0  0  0
   23.1662  -25.8480  -14.0409 N   0  0  0  0  0  0  0  0  0  0  0  0
   24.4724  -20.1919  -13.4270 C   0  0  0  0  0  0  0  0  0  0  0  0
   25.2257  -19.1729  -13.6217 O   0  0  0  0  0  0  0  0  0  0  0  0
   28.8569  -18.6528   -6.1450 O   0  0  0  0  0  0  0  0  0  0  0  0
   27.9489  -19.1461   -7.0797 C   0  0  0  0  0  0  0  0  0  0  0  0
   27.0243  -18.2919   -7.6351 C   0  0  0  0  0  0  0  0  0  0  0  0
   26.1010  -18.7331   -8.5682 C   0  0  0  0  0  0  0  0  0  0  0  0
   26.1059  -20.0517   -8.9496 C   0  0  0  0  0  0  0  0  0  0  0  0
   25.1235  -20.5308   -9.9215 C   0  0  0  0  0  0  0  0  0  0  0  0
   25.7202  -20.4618  -11.3083 C   0  0  2  0  0  0  0  0  0  0  0  0
   24.6187  -20.8567  -12.2165 N   0  0  0  0  0  0  0  0  0  0  0  0
   26.8525  -21.3962  -11.4871 C   0  0  0  0  0  0  0  0  0  0  0  0
   26.6073  -22.6378  -11.6001 O   0  0  0  0  0  0  0  0  0  0  0  0
   27.0293  -20.9008   -8.3937 C   0  0  0  0  0  0  0  0  0  0  0  0
   27.9536  -20.4746   -7.4639 C   0  0  0  0  0  0  0  0  0  0  0  0
   28.1603  -20.9507  -11.5351 O   0  0  0  0  0  0  0  0  0  0  0  0
  2  1  1  1
  3  2  1  0
  4  5  2  0
  4  2  1  0
  6  4  1  0
  7  6  1  0
  7  8  1  6
  8  9  1  0
 10  9  1  0
 11 12  1  0
 11 10  1  0
 13  7  1  0
 14 13  2  0
 15 16  1  0
 16 26  2  0
 17 18  2  0
 17 16  1  0
 18 19  1  0
 19 20  1  0
 19 25  2  0
 21 20  1  1
 21 23  1  0
 21 22  1  0
 22 13  1  0
 23 27  1  0
 24 23  2  0
 26 25  1  0
M  END
$$$$
