AKY.pdb
     RDKit          3D

 27 27  0  0  1  0  0  0  0  0999 V2000
   30.3404  -22.2269  -18.7296 C   0  0  0  0  0  0  0  0  0  0  0  0
   29.3052  -22.6678  -17.7257 C   0  0  2  0  0  0  0  0  0  0  0  0
   28.7017  -23.9295  -18.0337 N   0  0  0  0  0  0  0  0  0  0  0  0
   28.2895  -21.5997  -17.4869 C   0  0  0  0  0  0  0  0  0  0  0  0
   28.6073  -20.6129  -16.7824 O   0  0  0  0  0  0  0  0  0  0  0  0
   26.9963  -21.7182  -18.0549 N   0  0  0  0  0  0  0  0  0  0  0  0
   25.9818  -20.6465  -17.8106 C   0  0  1  0  0  0  0  0  0  0  0  0
   25.0857  -20.6524  -19.0065 C   0  0  0  0  0  0  0  0  0  0  0  0
   24.0306  -19.6123  -19.0611 C   0  0  0  0  0  0  0  0  0  0  0  0
   22.6934  -20.2291  -18.7242 C   0  0  0  0  0  0  0  0  0  0  0  0
   21.5528  -19.2516  -18.8910 C   0  0  0  0  0  0  0  0  0  0  0  0
   20.2944  -19.9469  -18.7045 N   0  0  0  0  0  0  0  0  0  0  0  0
   25.3098  -21.0111  -16.5454 C   0  0  0  0  0  0  0  0  0  0  0  0
   25.0546  -22.2402  -16.2842 O   0  0  0  0  0  0  0  0  0  0  0  0
   22.8034  -21.0763   -8.2274 O   0  0  0  0  0  0  0  0  0  0  0  0
   23.2946  -20.7116   -9.4793 C   0  0  0  0  0  0  0  0  0  0  0  0
   24.5349  -21.1594   -9.8719 C   0  0  0  0  0  0  0  0  0  0  0  0
   25.0673  -20.8252  -11.1058 C   0  0  0  0  0  0  0  0  0  0  0  0
   24.3438  -20.0294  -11.9587 C   0  0  0  0  0  0  0  0  0  0  0  0
   24.9050  -19.6567  -13.2569 C   0  0  0  0  0  0  0  0  0  0  0  0
   24.3176  -20.5471  -14.3275 C   0  0  2  0  0  0  0  0  0  0  0  0
   24.9293  -20.0761  -15.5917 N   0  0  0  0  0  0  0  0  0  0  0  0
   22.8473  -20.4232  -14.4265 C   0  0  0  0  0  0  0  0  0  0  0  0
   22.3597  -19.4577  -15.0932 O   0  0  0  0  0  0  0  0  0  0  0  0
   23.1073  -19.5845  -11.5640 C   0  0  0  0  0  0  0  0  0  0  0  0
   22.5658  -19.9096  -10.3386 C   0  0  0  0  0  0  0  0  0  0  0  0
   22.0000  -21.3287  -13.8155 O   0  0  0  0  0  0  0  0  0  0  0  0
  2  1  1  6
  3  2  1  0
  4  5  2  0
  4  2  1  0
  6  4  1  0
  7  6  1  0
  7  8  1  6
  8  9  1  0
 10  9  1  0
 11 12  1  0
 11 10  1  0
 13  7  1  0
 14 13  2  0
 15 16  1  0
 16 26  2  0
 17 18  2  0
 17 16  1  0
 18 19  1  0
 19 20  1  0
 19 25  2  0
 21 20  1  1
 21 23  1  0
 21 22  1  0
 22 13  1  0
 23 27  1  0
 24 23  2  0
 26 25  1  0
M  END
$$$$
