AKY.pdb
     RDKit          3D

 27 27  0  0  1  0  0  0  0  0999 V2000
   25.5000  -17.0566  -16.9518 C   0  0  0  0  0  0  0  0  0  0  0  0
   26.2029  -18.2498  -17.5484 C   0  0  2  0  0  0  0  0  0  0  0  0
   25.7077  -18.6275  -18.8380 N   0  0  0  0  0  0  0  0  0  0  0  0
   26.2285  -19.3988  -16.5951 C   0  0  0  0  0  0  0  0  0  0  0  0
   25.1425  -19.8271  -16.1386 O   0  0  0  0  0  0  0  0  0  0  0  0
   27.4674  -19.9799  -16.2259 N   0  0  0  0  0  0  0  0  0  0  0  0
   27.4824  -21.1884  -15.3445 C   0  0  1  0  0  0  0  0  0  0  0  0
   28.7218  -21.9413  -15.7050 C   0  0  0  0  0  0  0  0  0  0  0  0
   28.6963  -22.7109  -16.9720 C   0  0  0  0  0  0  0  0  0  0  0  0
   29.7563  -22.1802  -17.9084 C   0  0  0  0  0  0  0  0  0  0  0  0
   29.7414  -22.8812  -19.2474 C   0  0  0  0  0  0  0  0  0  0  0  0
   30.7468  -22.2907  -20.1088 N   0  0  0  0  0  0  0  0  0  0  0  0
   27.4646  -20.6744  -13.9587 C   0  0  0  0  0  0  0  0  0  0  0  0
   28.3450  -19.8239  -13.5772 O   0  0  0  0  0  0  0  0  0  0  0  0
   20.4860  -20.6831  -12.6950 O   0  0  0  0  0  0  0  0  0  0  0  0
   21.8161  -20.3724  -12.4200 C   0  0  0  0  0  0  0  0  0  0  0  0
   22.2292  -20.2831  -11.1106 C   0  0  0  0  0  0  0  0  0  0  0  0
   23.5401  -19.9775  -10.7851 C   0  0  0  0  0  0  0  0  0  0  0  0
   24.4502  -19.7582  -11.7890 C   0  0  0  0  0  0  0  0  0  0  0  0
   25.8328  -19.4178  -11.4551 C   0  0  0  0  0  0  0  0  0  0  0  0
   26.6989  -20.6470  -11.6067 C   0  0  2  0  0  0  0  0  0  0  0  0
   26.5221  -21.0654  -13.0166 N   0  0  0  0  0  0  0  0  0  0  0  0
   26.2783  -21.7520  -10.7183 C   0  0  0  0  0  0  0  0  0  0  0  0
   26.3413  -21.5817   -9.4607 O   0  0  0  0  0  0  0  0  0  0  0  0
   24.0348  -19.8481  -13.0936 C   0  0  0  0  0  0  0  0  0  0  0  0
   22.7330  -20.1513  -13.4313 C   0  0  0  0  0  0  0  0  0  0  0  0
   25.8207  -22.9548  -11.2231 O   0  0  0  0  0  0  0  0  0  0  0  0
  2  1  1  1
  3  2  1  0
  4  5  2  0
  4  2  1  0
  6  4  1  0
  7  6  1  0
  7  8  1  1
  8  9  1  0
 10  9  1  0
 11 12  1  0
 11 10  1  0
 13  7  1  0
 14 13  2  0
 15 16  1  0
 16 26  2  0
 17 18  2  0
 17 16  1  0
 18 19  1  0
 19 20  1  0
 19 25  2  0
 21 20  1  1
 21 23  1  0
 21 22  1  0
 22 13  1  0
 23 27  1  0
 24 23  2  0
 26 25  1  0
M  END
$$$$
