AKY.pdb
     RDKit          3D

 27 27  0  0  1  0  0  0  0  0999 V2000
   28.3031  -21.1604  -17.1550 C   0  0  0  0  0  0  0  0  0  0  0  0
   28.1496  -21.9286  -15.8666 C   0  0  2  0  0  0  0  0  0  0  0  0
   27.7982  -23.3045  -16.0522 N   0  0  0  0  0  0  0  0  0  0  0  0
   27.2240  -21.2319  -14.9247 C   0  0  0  0  0  0  0  0  0  0  0  0
   27.4697  -20.0446  -14.6065 O   0  0  0  0  0  0  0  0  0  0  0  0
   26.0946  -21.9173  -14.4114 N   0  0  0  0  0  0  0  0  0  0  0  0
   25.1302  -21.1924  -13.5271 C   0  0  1  0  0  0  0  0  0  0  0  0
   23.7926  -21.8022  -13.7954 C   0  0  0  0  0  0  0  0  0  0  0  0
   22.6783  -21.3972  -12.9052 C   0  0  0  0  0  0  0  0  0  0  0  0
   21.4207  -22.1355  -13.2998 C   0  0  0  0  0  0  0  0  0  0  0  0
   20.2212  -21.6975  -12.4913 C   0  0  0  0  0  0  0  0  0  0  0  0
   19.0595  -22.4590  -12.9063 N   0  0  0  0  0  0  0  0  0  0  0  0
   25.6234  -21.3911  -12.1478 C   0  0  0  0  0  0  0  0  0  0  0  0
   25.8940  -22.5711  -11.7257 O   0  0  0  0  0  0  0  0  0  0  0  0
   28.8732  -20.0758   -4.1843 O   0  0  0  0  0  0  0  0  0  0  0  0
   28.5154  -19.9813   -5.5275 C   0  0  0  0  0  0  0  0  0  0  0  0
   27.5836  -19.0444   -5.9112 C   0  0  0  0  0  0  0  0  0  0  0  0
   27.1946  -18.9107   -7.2335 C   0  0  0  0  0  0  0  0  0  0  0  0
   27.7493  -19.7296   -8.1853 C   0  0  0  0  0  0  0  0  0  0  0  0
   27.3321  -19.6076   -9.5817 C   0  0  0  0  0  0  0  0  0  0  0  0
   26.2814  -20.6520   -9.8807 C   0  0  2  0  0  0  0  0  0  0  0  0
   25.8210  -20.3458  -11.2549 N   0  0  0  0  0  0  0  0  0  0  0  0
   25.1285  -20.5792   -8.9573 C   0  0  0  0  0  0  0  0  0  0  0  0
   24.1664  -19.7998   -9.2425 O   0  0  0  0  0  0  0  0  0  0  0  0
   28.6782  -20.6628   -7.7992 C   0  0  0  0  0  0  0  0  0  0  0  0
   29.0741  -20.8064   -6.4865 C   0  0  0  0  0  0  0  0  0  0  0  0
   25.0756  -21.3360   -7.8016 O   0  0  0  0  0  0  0  0  0  0  0  0
  2  1  1  6
  3  2  1  0
  4  5  2  0
  4  2  1  0
  6  4  1  0
  7  6  1  0
  7  8  1  1
  8  9  1  0
 10  9  1  0
 11 12  1  0
 11 10  1  0
 13  7  1  0
 14 13  2  0
 15 16  1  0
 16 26  2  0
 17 18  2  0
 17 16  1  0
 18 19  1  0
 19 20  1  0
 19 25  2  0
 21 20  1  1
 21 23  1  0
 21 22  1  0
 22 13  1  0
 23 27  1  0
 24 23  2  0
 26 25  1  0
M  END
$$$$
