AKY.pdb
     RDKit          3D

 27 27  0  0  1  0  0  0  0  0999 V2000
   26.7704  -17.4606  -18.5686 C   0  0  0  0  0  0  0  0  0  0  0  0
   27.3081  -18.7681  -18.0442 C   0  0  2  0  0  0  0  0  0  0  0  0
   28.3497  -19.3300  -18.8507 N   0  0  0  0  0  0  0  0  0  0  0  0
   26.2080  -19.7434  -17.7835 C   0  0  0  0  0  0  0  0  0  0  0  0
   25.1349  -19.6255  -18.4206 O   0  0  0  0  0  0  0  0  0  0  0  0
   26.3932  -20.7754  -16.8298 N   0  0  0  0  0  0  0  0  0  0  0  0
   25.3103  -21.7846  -16.6145 C   0  0  1  0  0  0  0  0  0  0  0  0
   25.9789  -22.9794  -16.0157 C   0  0  0  0  0  0  0  0  0  0  0  0
   26.7719  -23.8350  -16.9307 C   0  0  0  0  0  0  0  0  0  0  0  0
   27.2508  -25.0613  -16.1897 C   0  0  0  0  0  0  0  0  0  0  0  0
   28.1037  -25.9585  -17.0569 C   0  0  0  0  0  0  0  0  0  0  0  0
   28.6359  -27.0394  -16.2506 N   0  0  0  0  0  0  0  0  0  0  0  0
   24.3240  -21.1316  -15.7279 C   0  0  0  0  0  0  0  0  0  0  0  0
   24.7215  -20.4047  -14.7494 O   0  0  0  0  0  0  0  0  0  0  0  0
   18.1769  -16.1647  -12.6397 O   0  0  0  0  0  0  0  0  0  0  0  0
   19.1630  -16.8938  -13.3009 C   0  0  0  0  0  0  0  0  0  0  0  0
   20.2782  -17.3016  -12.6057 C   0  0  0  0  0  0  0  0  0  0  0  0
   21.2860  -18.0284  -13.2171 C   0  0  0  0  0  0  0  0  0  0  0  0
   21.1728  -18.3509  -14.5466 C   0  0  0  0  0  0  0  0  0  0  0  0
   22.2400  -19.1033  -15.2053 C   0  0  0  0  0  0  0  0  0  0  0  0
   22.0443  -20.5788  -14.9431 C   0  0  2  0  0  0  0  0  0  0  0  0
   22.9514  -21.2582  -15.8968 N   0  0  0  0  0  0  0  0  0  0  0  0
   20.6564  -21.0221  -15.1966 C   0  0  0  0  0  0  0  0  0  0  0  0
   19.8465  -21.0816  -14.2194 O   0  0  0  0  0  0  0  0  0  0  0  0
   20.0595  -17.9427  -15.2368 C   0  0  0  0  0  0  0  0  0  0  0  0
   19.0493  -17.2187  -14.6404 C   0  0  0  0  0  0  0  0  0  0  0  0
   20.2253  -21.3684  -16.4637 O   0  0  0  0  0  0  0  0  0  0  0  0
  2  1  1  6
  3  2  1  0
  4  5  2  0
  4  2  1  0
  6  4  1  0
  7  6  1  0
  7  8  1  1
  8  9  1  0
 10  9  1  0
 11 12  1  0
 11 10  1  0
 13  7  1  0
 14 13  2  0
 15 16  1  0
 16 26  2  0
 17 18  2  0
 17 16  1  0
 18 19  1  0
 19 20  1  0
 19 25  2  0
 21 20  1  6
 21 23  1  0
 21 22  1  0
 22 13  1  0
 23 27  1  0
 24 23  2  0
 26 25  1  0
M  END
$$$$
