AKY.pdb
     RDKit          3D

 27 27  0  0  1  0  0  0  0  0999 V2000
   19.5023  -18.5603  -11.9913 C   0  0  0  0  0  0  0  0  0  0  0  0
   20.0713  -18.7970  -13.3675 C   0  0  2  0  0  0  0  0  0  0  0  0
   19.5009  -17.9607  -14.3807 N   0  0  0  0  0  0  0  0  0  0  0  0
   20.0213  -20.2432  -13.7355 C   0  0  0  0  0  0  0  0  0  0  0  0
   18.9037  -20.7787  -13.9237 O   0  0  0  0  0  0  0  0  0  0  0  0
   21.2259  -20.9790  -13.8644 N   0  0  0  0  0  0  0  0  0  0  0  0
   21.1679  -22.4438  -14.1614 C   0  0  1  0  0  0  0  0  0  0  0  0
   22.5257  -22.8124  -14.6649 C   0  0  0  0  0  0  0  0  0  0  0  0
   22.7859  -24.2521  -14.9050 C   0  0  0  0  0  0  0  0  0  0  0  0
   24.1528  -24.4234  -15.5248 C   0  0  0  0  0  0  0  0  0  0  0  0
   24.4834  -25.8737  -15.7923 C   0  0  0  0  0  0  0  0  0  0  0  0
   25.8242  -25.9675  -16.3357 N   0  0  0  0  0  0  0  0  0  0  0  0
   20.7933  -23.0966  -12.8892 C   0  0  0  0  0  0  0  0  0  0  0  0
   21.3718  -22.7555  -11.7970 O   0  0  0  0  0  0  0  0  0  0  0  0
   17.1300  -25.0915   -5.6313 O   0  0  0  0  0  0  0  0  0  0  0  0
   17.5532  -24.6789   -6.8931 C   0  0  0  0  0  0  0  0  0  0  0  0
   18.9005  -24.6281   -7.1674 C   0  0  0  0  0  0  0  0  0  0  0  0
   19.3718  -24.2252   -8.4057 C   0  0  0  0  0  0  0  0  0  0  0  0
   18.4771  -23.8680   -9.3835 C   0  0  0  0  0  0  0  0  0  0  0  0
   18.9656  -23.4245  -10.6889 C   0  0  0  0  0  0  0  0  0  0  0  0
   19.4609  -24.6211  -11.4680 C   0  0  2  0  0  0  0  0  0  0  0  0
   19.8211  -24.0845  -12.8009 N   0  0  0  0  0  0  0  0  0  0  0  0
   18.4237  -25.6627  -11.6306 C   0  0  0  0  0  0  0  0  0  0  0  0
   17.5748  -25.5376  -12.5677 O   0  0  0  0  0  0  0  0  0  0  0  0
   17.1343  -23.9198   -9.1066 C   0  0  0  0  0  0  0  0  0  0  0  0
   16.6520  -24.3188   -7.8783 C   0  0  0  0  0  0  0  0  0  0  0  0
   18.3602  -26.7604  -10.7927 O   0  0  0  0  0  0  0  0  0  0  0  0
  2  1  1  1
  3  2  1  0
  4  5  2  0
  4  2  1  0
  6  4  1  0
  7  6  1  0
  7  8  1  1
  8  9  1  0
 10  9  1  0
 11 12  1  0
 11 10  1  0
 13  7  1  0
 14 13  2  0
 15 16  1  0
 16 26  2  0
 17 18  2  0
 17 16  1  0
 18 19  1  0
 19 20  1  0
 19 25  2  0
 21 20  1  1
 21 23  1  0
 21 22  1  0
 22 13  1  0
 23 27  1  0
 24 23  2  0
 26 25  1  0
M  END
$$$$
