AKY.pdb
     RDKit          3D

 27 27  0  0  1  0  0  0  0  0999 V2000
   19.8820  -11.2408  -21.5641 C   0  0  0  0  0  0  0  0  0  0  0  0
   20.9540  -10.2754  -21.1254 C   0  0  2  0  0  0  0  0  0  0  0  0
   22.2050  -10.4551  -21.7991 N   0  0  0  0  0  0  0  0  0  0  0  0
   21.1084  -10.2720  -19.6402 C   0  0  0  0  0  0  0  0  0  0  0  0
   20.0990  -10.0523  -18.9302 O   0  0  0  0  0  0  0  0  0  0  0  0
   22.3803  -10.5148  -19.0639 N   0  0  0  0  0  0  0  0  0  0  0  0
   22.5321  -10.4966  -17.5759 C   0  0  1  0  0  0  0  0  0  0  0  0
   23.7260  -11.3442  -17.2770 C   0  0  0  0  0  0  0  0  0  0  0  0
   23.7169  -12.0904  -15.9960 C   0  0  0  0  0  0  0  0  0  0  0  0
   23.0769  -13.4432  -16.2022 C   0  0  0  0  0  0  0  0  0  0  0  0
   22.8211  -14.1614  -14.8972 C   0  0  0  0  0  0  0  0  0  0  0  0
   22.2491  -15.4650  -15.1715 N   0  0  0  0  0  0  0  0  0  0  0  0
   22.6883   -9.0740  -17.2060 C   0  0  0  0  0  0  0  0  0  0  0  0
   23.4655   -8.3145  -17.8865 O   0  0  0  0  0  0  0  0  0  0  0  0
   21.2738   -0.8114  -15.7779 O   0  0  0  0  0  0  0  0  0  0  0  0
   21.2476   -2.1854  -16.0077 C   0  0  0  0  0  0  0  0  0  0  0  0
   22.1163   -2.7308  -16.9249 C   0  0  0  0  0  0  0  0  0  0  0  0
   22.1297   -4.0901  -17.1888 C   0  0  0  0  0  0  0  0  0  0  0  0
   21.2581   -4.9147  -16.5220 C   0  0  0  0  0  0  0  0  0  0  0  0
   21.2529   -6.3493  -16.8067 C   0  0  0  0  0  0  0  0  0  0  0  0
   22.2139   -7.0461  -15.8713 C   0  0  2  0  0  0  0  0  0  0  0  0
   22.0221   -8.4909  -16.1360 N   0  0  0  0  0  0  0  0  0  0  0  0
   21.9208   -6.7726  -14.4478 C   0  0  0  0  0  0  0  0  0  0  0  0
   21.0744   -7.5056  -13.8471 O   0  0  0  0  0  0  0  0  0  0  0  0
   20.3932   -4.3675  -15.6081 C   0  0  0  0  0  0  0  0  0  0  0  0
   20.3695   -3.0162  -15.3361 C   0  0  0  0  0  0  0  0  0  0  0  0
   22.5441   -5.7462  -13.7628 O   0  0  0  0  0  0  0  0  0  0  0  0
  2  1  1  1
  3  2  1  0
  4  5  2  0
  4  2  1  0
  6  4  1  0
  7  6  1  0
  7  8  1  6
  8  9  1  0
 10  9  1  0
 11 12  1  0
 11 10  1  0
 13  7  1  0
 14 13  2  0
 15 16  1  0
 16 26  2  0
 17 18  2  0
 17 16  1  0
 18 19  1  0
 19 20  1  0
 19 25  2  0
 21 20  1  6
 21 23  1  0
 21 22  1  0
 22 13  1  0
 23 27  1  0
 24 23  2  0
 26 25  1  0
M  END
$$$$
