ITG.pdb
     RDKit          3D

 20 19  0  0  1  0  0  0  0  0999 V2000
   18.5377  -15.6516  -18.3568 C   0  0  0  0  0  0  0  0  0  0  0  0
   18.8106  -14.1797  -18.4509 C   0  0  0  0  0  0  0  0  0  0  0  0
   19.4025  -13.6329  -17.1429 C   0  0  2  0  0  0  0  0  0  0  0  0
   18.3646  -13.8176  -16.0890 C   0  0  0  0  0  0  0  0  0  0  0  0
   19.7737  -12.2049  -17.4334 C   0  0  2  0  0  0  0  0  0  0  0  0
   20.7954  -12.2705  -18.4969 N   0  0  0  0  0  0  0  0  0  0  0  0
   20.3983  -11.4866  -16.3147 C   0  0  0  0  0  0  0  0  0  0  0  0
   19.8468  -11.3682  -15.1793 O   0  0  0  0  0  0  0  0  0  0  0  0
   24.4653   -9.7822  -14.2064 C   0  0  0  0  0  0  0  0  0  0  0  0
   23.7460  -10.5838  -15.2738 C   0  0  1  0  0  0  0  0  0  0  0  0
   23.8495  -11.9482  -15.0353 O   0  0  0  0  0  0  0  0  0  0  0  0
   22.3001  -10.1363  -15.3524 C   0  0  2  0  0  0  0  0  0  0  0  0
   21.6760  -10.8718  -16.4343 N   0  0  0  0  0  0  0  0  0  0  0  0
   22.3188   -8.6717  -15.6307 C   0  0  0  0  0  0  0  0  0  0  0  0
   22.7775   -8.2551  -16.7242 O   0  0  0  0  0  0  0  0  0  0  0  0
   21.8363   -7.7152  -14.7052 N   0  0  0  0  0  0  0  0  0  0  0  0
   21.8407   -6.2908  -14.9346 C   0  0  0  0  0  0  0  0  0  0  0  0
   22.2230   -5.5946  -13.7012 C   0  0  0  0  0  0  0  0  0  0  0  0
   22.3374   -6.2310  -12.6357 O   0  0  0  0  0  0  0  0  0  0  0  0
   22.4687   -4.2242  -13.6696 O   0  0  0  0  0  0  0  0  0  0  0  0
  1  2  1  0
  2  3  1  0
  3  4  1  1
  5  3  1  0
  5  6  1  6
  7  5  1  0
  7  8  2  0
 10  9  1  1
 10 12  1  0
 10 11  1  0
 12 13  1  6
 13  7  1  0
 14 12  1  0
 15 14  2  0
 16 14  1  0
 17 16  1  0
 18 20  1  0
 18 17  1  0
 19 18  2  0
M  END
$$$$
