ITG.pdb
     RDKit          3D

 20 19  0  0  1  0  0  0  0  0999 V2000
   16.9416  -13.5438  -14.7469 C   0  0  0  0  0  0  0  0  0  0  0  0
   17.5076  -12.7394  -15.8793 C   0  0  0  0  0  0  0  0  0  0  0  0
   18.7286  -11.9212  -15.4325 C   0  0  2  0  0  0  0  0  0  0  0  0
   18.2443  -10.9413  -14.4189 C   0  0  0  0  0  0  0  0  0  0  0  0
   19.2920  -11.3174  -16.6893 C   0  0  2  0  0  0  0  0  0  0  0  0
   19.6821  -12.4613  -17.5370 N   0  0  0  0  0  0  0  0  0  0  0  0
   20.5100  -10.5181  -16.5013 C   0  0  0  0  0  0  0  0  0  0  0  0
   21.6568  -11.0369  -16.3491 O   0  0  0  0  0  0  0  0  0  0  0  0
   22.2553   -8.3709  -18.6348 C   0  0  0  0  0  0  0  0  0  0  0  0
   21.9061   -7.4565  -17.4767 C   0  0  1  0  0  0  0  0  0  0  0  0
   20.8160   -6.6512  -17.7809 O   0  0  0  0  0  0  0  0  0  0  0  0
   21.6595   -8.2880  -16.2338 C   0  0  2  0  0  0  0  0  0  0  0  0
   20.4810   -9.0957  -16.4784 N   0  0  0  0  0  0  0  0  0  0  0  0
   21.4387   -7.3296  -15.1134 C   0  0  0  0  0  0  0  0  0  0  0  0
   20.2660   -7.0083  -14.7955 O   0  0  0  0  0  0  0  0  0  0  0  0
   22.5061   -6.7569  -14.3806 N   0  0  0  0  0  0  0  0  0  0  0  0
   22.3336   -5.8816  -13.2468 C   0  0  0  0  0  0  0  0  0  0  0  0
   22.0070   -4.5297  -13.7136 C   0  0  0  0  0  0  0  0  0  0  0  0
   21.8624   -4.3085  -14.9316 O   0  0  0  0  0  0  0  0  0  0  0  0
   21.8485   -3.4606  -12.8353 O   0  0  0  0  0  0  0  0  0  0  0  0
  1  2  1  0
  2  3  1  0
  3  4  1  1
  5  3  1  0
  5  6  1  6
  7  5  1  0
  7  8  2  0
 10  9  1  6
 10 12  1  0
 10 11  1  0
 12 13  1  6
 13  7  1  0
 14 12  1  0
 15 14  2  0
 16 14  1  0
 17 16  1  0
 18 20  1  0
 18 17  1  0
 19 18  2  0
M  END
$$$$
