ITG.pdb
     RDKit          3D

 20 19  0  0  1  0  0  0  0  0999 V2000
   26.9667  -20.5368   -7.5749 C   0  0  0  0  0  0  0  0  0  0  0  0
   26.3268  -21.1826   -8.7679 C   0  0  0  0  0  0  0  0  0  0  0  0
   25.7565  -20.1349   -9.7360 C   0  0  2  0  0  0  0  0  0  0  0  0
   24.6842  -19.4060   -9.0005 C   0  0  0  0  0  0  0  0  0  0  0  0
   25.2956  -20.9072  -10.9412 C   0  0  2  0  0  0  0  0  0  0  0  0
   26.4185  -21.7988  -11.2926 N   0  0  0  0  0  0  0  0  0  0  0  0
   25.0344  -20.0939  -12.1362 C   0  0  0  0  0  0  0  0  0  0  0  0
   24.2242  -19.1187  -12.1412 O   0  0  0  0  0  0  0  0  0  0  0  0
   27.6546  -18.5639  -14.4650 C   0  0  0  0  0  0  0  0  0  0  0  0
   26.7198  -19.4052  -15.3120 C   0  0  1  0  0  0  0  0  0  0  0  0
   27.2989  -20.6232  -15.6441 O   0  0  0  0  0  0  0  0  0  0  0  0
   25.4053  -19.5902  -14.5806 C   0  0  2  0  0  0  0  0  0  0  0  0
   25.6808  -20.3505  -13.3776 N   0  0  0  0  0  0  0  0  0  0  0  0
   24.5034  -20.3388  -15.5020 C   0  0  0  0  0  0  0  0  0  0  0  0
   24.6135  -21.5872  -15.5974 O   0  0  0  0  0  0  0  0  0  0  0  0
   23.5142  -19.6975  -16.2859 N   0  0  0  0  0  0  0  0  0  0  0  0
   22.6305  -20.3837  -17.1967 C   0  0  0  0  0  0  0  0  0  0  0  0
   21.7119  -19.4193  -17.8119 C   0  0  0  0  0  0  0  0  0  0  0  0
   21.7717  -18.2143  -17.4994 O   0  0  0  0  0  0  0  0  0  0  0  0
   20.7558  -19.8011  -18.7497 O   0  0  0  0  0  0  0  0  0  0  0  0
  1  2  1  0
  2  3  1  0
  3  4  1  1
  5  3  1  0
  5  6  1  6
  7  5  1  0
  7  8  2  0
 10  9  1  1
 10 12  1  0
 10 11  1  0
 12 13  1  1
 13  7  1  0
 14 12  1  0
 15 14  2  0
 16 14  1  0
 17 16  1  0
 18 20  1  0
 18 17  1  0
 19 18  2  0
M  END
$$$$
