ITG.pdb
     RDKit          3D

 20 19  0  0  1  0  0  0  0  0999 V2000
   27.0800  -21.1684   -8.6880 C   0  0  0  0  0  0  0  0  0  0  0  0
   26.1785  -21.6158   -9.8001 C   0  0  0  0  0  0  0  0  0  0  0  0
   25.6345  -20.4210  -10.5981 C   0  0  2  0  0  0  0  0  0  0  0  0
   24.8557  -19.5825   -9.6430 C   0  0  0  0  0  0  0  0  0  0  0  0
   24.8369  -21.0175  -11.7249 C   0  0  2  0  0  0  0  0  0  0  0  0
   25.6856  -22.0862  -12.2877 N   0  0  0  0  0  0  0  0  0  0  0  0
   24.5506  -20.0999  -12.8355 C   0  0  0  0  0  0  0  0  0  0  0  0
   23.8283  -19.0661  -12.7052 O   0  0  0  0  0  0  0  0  0  0  0  0
   27.2321  -18.7118  -15.1611 C   0  0  0  0  0  0  0  0  0  0  0  0
   26.1431  -19.3113  -16.0293 C   0  0  1  0  0  0  0  0  0  0  0  0
   26.5193  -20.5535  -16.5240 O   0  0  0  0  0  0  0  0  0  0  0  0
   24.8530  -19.3902  -15.2379 C   0  0  2  0  0  0  0  0  0  0  0  0
   25.0713  -20.3139  -14.1424 N   0  0  0  0  0  0  0  0  0  0  0  0
   23.8063  -19.8934  -16.1728 C   0  0  0  0  0  0  0  0  0  0  0  0
   23.4784  -21.1063  -16.1403 O   0  0  0  0  0  0  0  0  0  0  0  0
   23.1556  -19.0543  -17.1093 N   0  0  0  0  0  0  0  0  0  0  0  0
   22.1317  -19.4997  -18.0228 C   0  0  0  0  0  0  0  0  0  0  0  0
   20.8115  -19.3179  -17.4093 C   0  0  0  0  0  0  0  0  0  0  0  0
   20.6743  -19.4417  -16.1768 O   0  0  0  0  0  0  0  0  0  0  0  0
   19.6815  -19.0066  -18.1613 O   0  0  0  0  0  0  0  0  0  0  0  0
  1  2  1  0
  2  3  1  0
  3  4  1  1
  5  3  1  0
  5  6  1  6
  7  5  1  0
  7  8  2  0
 10  9  1  1
 10 12  1  0
 10 11  1  0
 12 13  1  1
 13  7  1  0
 14 12  1  0
 15 14  2  0
 16 14  1  0
 17 16  1  0
 18 20  1  0
 18 17  1  0
 19 18  2  0
M  END
$$$$
