ITG.pdb
     RDKit          3D

 20 19  0  0  1  0  0  0  0  0999 V2000
   18.4635  -15.5277  -18.4078 C   0  0  0  0  0  0  0  0  0  0  0  0
   18.7772  -14.6011  -17.2708 C   0  0  0  0  0  0  0  0  0  0  0  0
   19.5732  -13.3764  -17.7468 C   0  0  2  0  0  0  0  0  0  0  0  0
   20.8174  -13.8919  -18.3857 C   0  0  0  0  0  0  0  0  0  0  0  0
   19.7850  -12.5311  -16.5212 C   0  0  2  0  0  0  0  0  0  0  0  0
   18.4332  -12.2288  -16.0110 N   0  0  0  0  0  0  0  0  0  0  0  0
   20.4255  -11.2323  -16.7669 C   0  0  0  0  0  0  0  0  0  0  0  0
   21.6519  -11.1156  -17.0667 O   0  0  0  0  0  0  0  0  0  0  0  0
   19.7683   -8.7160  -19.3393 C   0  0  0  0  0  0  0  0  0  0  0  0
   19.5104   -8.0305  -18.0117 C   0  0  1  0  0  0  0  0  0  0  0  0
   18.1545   -8.0071  -17.7112 O   0  0  0  0  0  0  0  0  0  0  0  0
   20.3138   -8.7165  -16.9250 C   0  0  2  0  0  0  0  0  0  0  0  0
   19.7034  -10.0090  -16.6840 N   0  0  0  0  0  0  0  0  0  0  0  0
   20.2352   -7.8448  -15.7182 C   0  0  0  0  0  0  0  0  0  0  0  0
   19.6153   -8.2484  -14.7020 O   0  0  0  0  0  0  0  0  0  0  0  0
   20.8361   -6.5640  -15.6643 N   0  0  0  0  0  0  0  0  0  0  0  0
   20.8402   -5.7187  -14.4952 C   0  0  0  0  0  0  0  0  0  0  0  0
   22.2187   -5.5258  -14.0318 C   0  0  0  0  0  0  0  0  0  0  0  0
   23.1262   -6.2728  -14.4464 O   0  0  0  0  0  0  0  0  0  0  0  0
   22.5636   -4.5227  -13.1295 O   0  0  0  0  0  0  0  0  0  0  0  0
  1  2  1  0
  2  3  1  0
  3  4  1  1
  5  3  1  0
  5  6  1  6
  7  5  1  0
  7  8  2  0
 10  9  1  6
 10 12  1  0
 10 11  1  0
 12 13  1  1
 13  7  1  0
 14 12  1  0
 15 14  2  0
 16 14  1  0
 17 16  1  0
 18 20  1  0
 18 17  1  0
 19 18  2  0
M  END
$$$$
