ITG.pdb
     RDKit          3D

 20 19  0  0  1  0  0  0  0  0999 V2000
   16.7101  -13.4239  -14.9294 C   0  0  0  0  0  0  0  0  0  0  0  0
   17.5695  -12.8512  -16.0171 C   0  0  0  0  0  0  0  0  0  0  0  0
   18.5831  -11.8404  -15.4594 C   0  0  2  0  0  0  0  0  0  0  0  0
   17.7966  -10.7581  -14.8023 C   0  0  0  0  0  0  0  0  0  0  0  0
   19.4106  -11.4063  -16.6377 C   0  0  2  0  0  0  0  0  0  0  0  0
   20.0593  -12.6339  -17.1391 N   0  0  0  0  0  0  0  0  0  0  0  0
   20.4995  -10.4728  -16.3204 C   0  0  0  0  0  0  0  0  0  0  0  0
   21.5751  -10.8364  -15.7563 O   0  0  0  0  0  0  0  0  0  0  0  0
   22.9101   -8.7295  -18.0856 C   0  0  0  0  0  0  0  0  0  0  0  0
   22.1056   -7.6096  -17.4550 C   0  0  1  0  0  0  0  0  0  0  0  0
   21.1989   -7.0696  -18.3580 O   0  0  0  0  0  0  0  0  0  0  0  0
   21.4157   -8.1245  -16.2076 C   0  0  2  0  0  0  0  0  0  0  0  0
   20.4166   -9.0863  -16.6295 N   0  0  0  0  0  0  0  0  0  0  0  0
   20.7890   -6.9446  -15.5459 C   0  0  0  0  0  0  0  0  0  0  0  0
   19.6027   -6.6362  -15.8242 O   0  0  0  0  0  0  0  0  0  0  0  0
   21.4799   -6.1442  -14.6045 N   0  0  0  0  0  0  0  0  0  0  0  0
   20.9510   -4.9325  -14.0271 C   0  0  0  0  0  0  0  0  0  0  0  0
   21.8924   -4.4103  -13.0305 C   0  0  0  0  0  0  0  0  0  0  0  0
   22.8296   -5.1242  -12.6237 O   0  0  0  0  0  0  0  0  0  0  0  0
   21.7811   -3.1240  -12.5086 O   0  0  0  0  0  0  0  0  0  0  0  0
  1  2  1  0
  2  3  1  0
  3  4  1  6
  5  3  1  0
  5  6  1  1
  7  5  1  0
  7  8  2  0
 10  9  1  6
 10 12  1  0
 10 11  1  0
 12 13  1  6
 13  7  1  0
 14 12  1  0
 15 14  2  0
 16 14  1  0
 17 16  1  0
 18 20  1  0
 18 17  1  0
 19 18  2  0
M  END
$$$$
