ITG.pdb
     RDKit          3D

 20 19  0  0  1  0  0  0  0  0999 V2000
   28.7078  -12.4833  -16.5531 C   0  0  0  0  0  0  0  0  0  0  0  0
   27.2647  -12.5141  -16.1453 C   0  0  0  0  0  0  0  0  0  0  0  0
   26.5792  -11.1633  -16.4013 C   0  0  2  0  0  0  0  0  0  0  0  0
   27.2208  -10.1739  -15.4895 C   0  0  0  0  0  0  0  0  0  0  0  0
   25.1142  -11.4017  -16.1594 C   0  0  2  0  0  0  0  0  0  0  0  0
   24.7429  -12.5186  -17.0505 N   0  0  0  0  0  0  0  0  0  0  0  0
   24.2354  -10.2826  -16.5241 C   0  0  0  0  0  0  0  0  0  0  0  0
   24.0899   -9.8829  -17.7184 O   0  0  0  0  0  0  0  0  0  0  0  0
   21.1656   -9.7853  -17.2699 C   0  0  0  0  0  0  0  0  0  0  0  0
   21.2483   -8.8831  -16.0541 C   0  0  1  0  0  0  0  0  0  0  0  0
   20.7732   -9.5240  -14.9171 O   0  0  0  0  0  0  0  0  0  0  0  0
   22.6763   -8.4081  -15.8745 C   0  0  2  0  0  0  0  0  0  0  0  0
   23.4825   -9.5683  -15.5505 N   0  0  0  0  0  0  0  0  0  0  0  0
   22.6637   -7.4249  -14.7538 C   0  0  0  0  0  0  0  0  0  0  0  0
   23.0640   -7.7779  -13.6159 O   0  0  0  0  0  0  0  0  0  0  0  0
   22.2144   -6.0922  -14.9160 N   0  0  0  0  0  0  0  0  0  0  0  0
   22.1693   -5.1167  -13.8540 C   0  0  0  0  0  0  0  0  0  0  0  0
   21.7148   -3.8281  -14.3879 C   0  0  0  0  0  0  0  0  0  0  0  0
   21.4652   -3.7098  -15.6032 O   0  0  0  0  0  0  0  0  0  0  0  0
   21.5468   -2.7080  -13.5776 O   0  0  0  0  0  0  0  0  0  0  0  0
  1  2  1  0
  2  3  1  0
  3  4  1  1
  5  3  1  0
  5  6  1  6
  7  5  1  0
  7  8  2  0
 10  9  1  6
 10 12  1  0
 10 11  1  0
 12 13  1  1
 13  7  1  0
 14 12  1  0
 15 14  2  0
 16 14  1  0
 17 16  1  0
 18 20  1  0
 18 17  1  0
 19 18  2  0
M  END
$$$$
