ITG.pdb
     RDKit          3D

 20 19  0  0  1  0  0  0  0  0999 V2000
   21.8555  -13.9897  -17.0791 C   0  0  0  0  0  0  0  0  0  0  0  0
   22.3779  -12.7162  -16.4832 C   0  0  0  0  0  0  0  0  0  0  0  0
   23.7377  -12.3303  -17.0849 C   0  0  2  0  0  0  0  0  0  0  0  0
   24.6926  -13.4172  -16.7261 C   0  0  0  0  0  0  0  0  0  0  0  0
   24.0627  -10.9776  -16.5139 C   0  0  2  0  0  0  0  0  0  0  0  0
   23.9815  -11.1370  -15.0486 N   0  0  0  0  0  0  0  0  0  0  0  0
   23.1106   -9.9137  -16.8595 C   0  0  0  0  0  0  0  0  0  0  0  0
   23.0482   -9.3946  -18.0145 O   0  0  0  0  0  0  0  0  0  0  0  0
   19.5598   -9.9633  -17.2965 C   0  0  0  0  0  0  0  0  0  0  0  0
   19.8253   -9.0743  -16.0973 C   0  0  1  0  0  0  0  0  0  0  0  0
   19.7370   -9.7895  -14.9099 O   0  0  0  0  0  0  0  0  0  0  0  0
   21.1783   -8.4091  -16.2520 C   0  0  2  0  0  0  0  0  0  0  0  0
   22.1872   -9.3923  -15.9106 N   0  0  0  0  0  0  0  0  0  0  0  0
   21.2005   -7.2568  -15.3063 C   0  0  0  0  0  0  0  0  0  0  0  0
   20.3076   -6.3756  -15.3830 O   0  0  0  0  0  0  0  0  0  0  0  0
   22.1966   -7.1081  -14.3113 N   0  0  0  0  0  0  0  0  0  0  0  0
   22.2458   -6.0160  -13.3699 C   0  0  0  0  0  0  0  0  0  0  0  0
   22.5126   -4.7624  -14.0836 C   0  0  0  0  0  0  0  0  0  0  0  0
   23.0009   -4.7892  -15.2300 O   0  0  0  0  0  0  0  0  0  0  0  0
   22.2378   -3.5176  -13.5230 O   0  0  0  0  0  0  0  0  0  0  0  0
  1  2  1  0
  2  3  1  0
  3  4  1  1
  5  3  1  0
  5  6  1  1
  7  5  1  0
  7  8  2  0
 10  9  1  6
 10 12  1  0
 10 11  1  0
 12 13  1  1
 13  7  1  0
 14 12  1  0
 15 14  2  0
 16 14  1  0
 17 16  1  0
 18 20  1  0
 18 17  1  0
 19 18  2  0
M  END
$$$$
