ITG.pdb
     RDKit          3D

 20 19  0  0  1  0  0  0  0  0999 V2000
   15.1312  -18.8366    5.8129 C   0  0  0  0  0  0  0  0  0  0  0  0
   16.6264  -18.8800    5.9231 C   0  0  0  0  0  0  0  0  0  0  0  0
   17.1152  -18.2007    7.2114 C   0  0  2  0  0  0  0  0  0  0  0  0
   16.7254  -16.7651    7.1173 C   0  0  0  0  0  0  0  0  0  0  0  0
   18.5954  -18.4604    7.2683 C   0  0  2  0  0  0  0  0  0  0  0  0
   18.7356  -19.9252    7.3857 N   0  0  0  0  0  0  0  0  0  0  0  0
   19.2800  -17.8926    8.4373 C   0  0  0  0  0  0  0  0  0  0  0  0
   19.3808  -16.6446    8.6367 O   0  0  0  0  0  0  0  0  0  0  0  0
   18.4652  -17.7517   11.8622 C   0  0  0  0  0  0  0  0  0  0  0  0
   19.7371  -18.5757   11.8138 C   0  0  1  0  0  0  0  0  0  0  0  0
   19.4573  -19.9361   11.8212 O   0  0  0  0  0  0  0  0  0  0  0  0
   20.5505  -18.1771   10.5986 C   0  0  2  0  0  0  0  0  0  0  0  0
   19.8799  -18.7150    9.4316 N   0  0  0  0  0  0  0  0  0  0  0  0
   21.9040  -18.7776   10.7726 C   0  0  0  0  0  0  0  0  0  0  0  0
   22.2068  -19.8173   10.1347 O   0  0  0  0  0  0  0  0  0  0  0  0
   22.8777  -18.2213   11.6367 N   0  0  0  0  0  0  0  0  0  0  0  0
   24.2192  -18.7318   11.7823 C   0  0  0  0  0  0  0  0  0  0  0  0
   24.1881  -19.9902   12.5358 C   0  0  0  0  0  0  0  0  0  0  0  0
   23.1001  -20.4576   12.9245 O   0  0  0  0  0  0  0  0  0  0  0  0
   25.3468  -20.6996   12.8415 O   0  0  0  0  0  0  0  0  0  0  0  0
  1  2  1  0
  2  3  1  0
  3  4  1  6
  5  3  1  0
  5  6  1  1
  7  5  1  0
  7  8  2  0
 10  9  1  6
 10 12  1  0
 10 11  1  0
 12 13  1  6
 13  7  1  0
 14 12  1  0
 15 14  2  0
 16 14  1  0
 17 16  1  0
 18 20  1  0
 18 17  1  0
 19 18  2  0
M  END
$$$$
