ITG.pdb
     RDKit          3D

 20 19  0  0  1  0  0  0  0  0999 V2000
   23.5012  -14.6292  -17.5703 C   0  0  0  0  0  0  0  0  0  0  0  0
   23.1773  -13.6934  -16.4437 C   0  0  0  0  0  0  0  0  0  0  0  0
   23.7712  -12.2971  -16.6842 C   0  0  2  0  0  0  0  0  0  0  0  0
   25.2514  -12.4623  -16.7450 C   0  0  0  0  0  0  0  0  0  0  0  0
   23.2676  -11.4437  -15.5530 C   0  0  2  0  0  0  0  0  0  0  0  0
   21.8060  -11.6488  -15.5234 N   0  0  0  0  0  0  0  0  0  0  0  0
   23.4710   -9.9995  -15.7277 C   0  0  0  0  0  0  0  0  0  0  0  0
   24.6209   -9.4685  -15.7852 O   0  0  0  0  0  0  0  0  0  0  0  0
   22.3520   -7.8886  -18.4859 C   0  0  0  0  0  0  0  0  0  0  0  0
   21.7469   -7.2622  -17.2448 C   0  0  1  0  0  0  0  0  0  0  0  0
   20.4079   -7.6054  -17.1082 O   0  0  0  0  0  0  0  0  0  0  0  0
   22.5563   -7.6674  -16.0292 C   0  0  2  0  0  0  0  0  0  0  0  0
   22.3795   -9.0943  -15.8455 N   0  0  0  0  0  0  0  0  0  0  0  0
   22.0100   -6.8988  -14.8744 C   0  0  0  0  0  0  0  0  0  0  0  0
   21.3668   -7.5014  -13.9783 O   0  0  0  0  0  0  0  0  0  0  0  0
   22.1856   -5.5005  -14.7396 N   0  0  0  0  0  0  0  0  0  0  0  0
   21.6557   -4.7180  -13.6496 C   0  0  0  0  0  0  0  0  0  0  0  0
   22.0787   -3.3208  -13.7952 C   0  0  0  0  0  0  0  0  0  0  0  0
   22.8686   -3.0000  -14.7043 O   0  0  0  0  0  0  0  0  0  0  0  0
   21.6256   -2.3168  -12.9432 O   0  0  0  0  0  0  0  0  0  0  0  0
  1  2  1  0
  2  3  1  0
  3  4  1  1
  5  3  1  0
  5  6  1  6
  7  5  1  0
  7  8  2  0
 10  9  1  6
 10 12  1  0
 10 11  1  0
 12 13  1  1
 13  7  1  0
 14 12  1  0
 15 14  2  0
 16 14  1  0
 17 16  1  0
 18 20  1  0
 18 17  1  0
 19 18  2  0
M  END
$$$$
