ITG.pdb
     RDKit          3D

 20 19  0  0  1  0  0  0  0  0999 V2000
   20.5919  -14.2211  -20.0592 C   0  0  0  0  0  0  0  0  0  0  0  0
   21.0151  -13.5315  -18.7962 C   0  0  0  0  0  0  0  0  0  0  0  0
   21.1282  -12.0125  -18.9958 C   0  0  2  0  0  0  0  0  0  0  0  0
   22.0662  -11.7951  -20.1337 C   0  0  0  0  0  0  0  0  0  0  0  0
   21.5877  -11.4644  -17.6729 C   0  0  2  0  0  0  0  0  0  0  0  0
   20.5228  -11.8096  -16.7105 N   0  0  0  0  0  0  0  0  0  0  0  0
   21.7233  -10.0027  -17.6206 C   0  0  0  0  0  0  0  0  0  0  0  0
   22.6272   -9.3727  -18.2477 O   0  0  0  0  0  0  0  0  0  0  0  0
   19.4604   -5.7367  -17.1508 C   0  0  0  0  0  0  0  0  0  0  0  0
   19.4583   -7.2467  -17.0129 C   0  0  1  0  0  0  0  0  0  0  0  0
   18.8046   -7.8496  -18.0799 O   0  0  0  0  0  0  0  0  0  0  0  0
   20.8838   -7.7428  -16.8760 C   0  0  2  0  0  0  0  0  0  0  0  0
   20.8394   -9.1915  -16.8555 N   0  0  0  0  0  0  0  0  0  0  0  0
   21.4065   -7.1968  -15.5909 C   0  0  0  0  0  0  0  0  0  0  0  0
   20.9754   -7.6546  -14.5027 O   0  0  0  0  0  0  0  0  0  0  0  0
   22.3808   -6.1708  -15.5404 N   0  0  0  0  0  0  0  0  0  0  0  0
   23.0906   -5.7847  -14.3452 C   0  0  0  0  0  0  0  0  0  0  0  0
   22.2113   -4.9821  -13.4879 C   0  0  0  0  0  0  0  0  0  0  0  0
   21.2441   -4.3722  -13.9838 O   0  0  0  0  0  0  0  0  0  0  0  0
   22.4155   -4.8704  -12.1149 O   0  0  0  0  0  0  0  0  0  0  0  0
  1  2  1  0
  2  3  1  0
  3  4  1  6
  5  3  1  0
  5  6  1  1
  7  5  1  0
  7  8  2  0
 10  9  1  6
 10 12  1  0
 10 11  1  0
 12 13  1  1
 13  7  1  0
 14 12  1  0
 15 14  2  0
 16 14  1  0
 17 16  1  0
 18 20  1  0
 18 17  1  0
 19 18  2  0
M  END
$$$$
