ITG.pdb
     RDKit          3D

 20 19  0  0  1  0  0  0  0  0999 V2000
   19.4526  -14.8964  -18.3906 C   0  0  0  0  0  0  0  0  0  0  0  0
   20.3863  -14.0844  -17.5428 C   0  0  0  0  0  0  0  0  0  0  0  0
   20.3537  -12.5993  -17.9346 C   0  0  2  0  0  0  0  0  0  0  0  0
   20.6370  -12.5321  -19.3965 C   0  0  0  0  0  0  0  0  0  0  0  0
   21.3699  -11.9267  -17.0534 C   0  0  2  0  0  0  0  0  0  0  0  0
   20.9867  -12.2750  -15.6710 N   0  0  0  0  0  0  0  0  0  0  0  0
   21.3708  -10.4592  -17.1163 C   0  0  0  0  0  0  0  0  0  0  0  0
   21.8391   -9.8130  -18.1015 O   0  0  0  0  0  0  0  0  0  0  0  0
   18.6380   -8.3371  -17.4428 C   0  0  0  0  0  0  0  0  0  0  0  0
   19.2698   -7.8598  -16.1497 C   0  0  1  0  0  0  0  0  0  0  0  0
   18.6119   -8.3829  -15.0439 O   0  0  0  0  0  0  0  0  0  0  0  0
   20.7429   -8.2162  -16.1462 C   0  0  2  0  0  0  0  0  0  0  0  0
   20.8402   -9.6601  -16.0652 N   0  0  0  0  0  0  0  0  0  0  0  0
   21.3394   -7.5630  -14.9461 C   0  0  0  0  0  0  0  0  0  0  0  0
   21.2254   -8.1122  -13.8213 O   0  0  0  0  0  0  0  0  0  0  0  0
   22.0387   -6.3341  -15.0174 N   0  0  0  0  0  0  0  0  0  0  0  0
   22.7446   -5.7374  -13.9097 C   0  0  0  0  0  0  0  0  0  0  0  0
   22.0185   -4.5503  -13.4451 C   0  0  0  0  0  0  0  0  0  0  0  0
   20.8933   -4.2856  -13.9110 O   0  0  0  0  0  0  0  0  0  0  0  0
   22.5441   -3.6886  -12.4856 O   0  0  0  0  0  0  0  0  0  0  0  0
  1  2  1  0
  2  3  1  0
  3  4  1  6
  5  3  1  0
  5  6  1  1
  7  5  1  0
  7  8  2  0
 10  9  1  6
 10 12  1  0
 10 11  1  0
 12 13  1  1
 13  7  1  0
 14 12  1  0
 15 14  2  0
 16 14  1  0
 17 16  1  0
 18 20  1  0
 18 17  1  0
 19 18  2  0
M  END
$$$$
