LMI.pdb
     RDKit          3D

 25 24  0  0  1  0  0  0  0  0999 V2000
    9.2078  -14.5062   19.7135 C   0  0  0  0  0  0  0  0  0  0  0  0
    7.7997  -14.1568   19.3083 C   0  0  2  0  0  0  0  0  0  0  0  0
    7.6685  -12.6741   19.0631 C   0  0  0  0  0  0  0  0  0  0  0  0
    6.7895  -14.6821   20.2745 C   0  0  0  0  0  0  0  0  0  0  0  0
    6.9261  -16.1685   20.5189 C   0  0  2  0  0  0  0  0  0  0  0  0
    6.1546  -16.9631   19.6270 N   0  0  0  0  0  0  0  0  0  0  0  0
    6.6961  -16.4131   21.9427 C   0  0  0  0  0  0  0  0  0  0  0  0
    5.5459  -16.1160   22.3947 O   0  0  0  0  0  0  0  0  0  0  0  0
    8.8649  -21.1307   26.0952 C   0  0  0  0  0  0  0  0  0  0  0  0
    7.3085  -20.4261   26.6797 S   0  0  0  0  0  0  0  0  0  0  0  0
    7.0972  -18.7295   26.1492 C   0  0  0  0  0  0  0  0  0  0  0  0
    7.3108  -18.4994   24.6928 C   0  0  0  0  0  0  0  0  0  0  0  0
    7.2958  -17.0378   24.2896 C   0  0  2  0  0  0  0  0  0  0  0  0
    7.6211  -16.9419   22.8504 N   0  0  0  0  0  0  0  0  0  0  0  0
    8.2296  -16.1831   25.0107 C   0  0  0  0  0  0  0  0  0  0  0  0
    9.4757  -16.1445   24.7193 O   0  0  0  0  0  0  0  0  0  0  0  0
    6.6319  -11.4160   26.4295 C   0  0  0  0  0  0  0  0  0  0  0  0
    7.5588  -12.5683   26.0922 C   0  0  0  0  0  0  0  0  0  0  0  0
    8.0554  -13.2574   27.3395 C   0  0  2  0  0  0  0  0  0  0  0  0
    9.0758  -12.4517   28.0781 C   0  0  0  0  0  0  0  0  0  0  0  0
    8.7999  -14.5305   26.8527 C   0  0  2  0  0  0  0  0  0  0  0  0
    7.8471  -15.3119   26.0909 N   0  0  0  0  0  0  0  0  0  0  0  0
    9.3538  -15.2338   28.0213 C   0  0  0  0  0  0  0  0  0  0  0  0
    8.7223  -16.3189   28.6051 O   0  0  0  0  0  0  0  0  0  0  0  0
   10.4353  -14.8498   28.5187 O   0  0  0  0  0  0  0  0  0  0  0  0
  2  1  1  1
  3  2  1  0
  4  2  1  0
  4  5  1  0
  5  6  1  6
  7  8  2  0
  7  5  1  0
 10 11  1  0
 10  9  1  0
 11 12  1  0
 13 12  1  1
 13 14  1  0
 14  7  1  0
 15 16  2  0
 15 13  1  0
 18 19  1  0
 18 17  1  0
 19 21  1  0
 19 20  1  6
 21 22  1  1
 22 15  1  0
 23 21  1  0
 24 23  1  0
 25 23  2  0
M  END
$$$$
