LMI.pdb
     RDKit          3D

 25 24  0  0  1  0  0  0  0  0999 V2000
    9.3819  -13.5062   18.9590 C   0  0  0  0  0  0  0  0  0  0  0  0
    7.8912  -13.6985   18.8605 C   0  0  2  0  0  0  0  0  0  0  0  0
    7.2183  -12.4250   18.4122 C   0  0  0  0  0  0  0  0  0  0  0  0
    7.3115  -14.2554   20.1191 C   0  0  0  0  0  0  0  0  0  0  0  0
    8.0976  -15.4288   20.6604 C   0  0  2  0  0  0  0  0  0  0  0  0
    8.1675  -16.5279   19.7608 N   0  0  0  0  0  0  0  0  0  0  0  0
    7.5839  -15.7367   21.9950 C   0  0  0  0  0  0  0  0  0  0  0  0
    7.0082  -14.7901   22.6177 O   0  0  0  0  0  0  0  0  0  0  0  0
    6.3095  -21.4200   25.5543 C   0  0  0  0  0  0  0  0  0  0  0  0
    5.6894  -20.9823   23.9158 S   0  0  0  0  0  0  0  0  0  0  0  0
    5.9619  -19.2550   23.5330 C   0  0  0  0  0  0  0  0  0  0  0  0
    7.0267  -18.5968   24.3410 C   0  0  0  0  0  0  0  0  0  0  0  0
    7.2036  -17.1204   24.0441 C   0  0  2  0  0  0  0  0  0  0  0  0
    7.6671  -16.9721   22.6478 N   0  0  0  0  0  0  0  0  0  0  0  0
    8.1531  -16.4222   24.9004 C   0  0  0  0  0  0  0  0  0  0  0  0
    9.4128  -16.4430   24.6726 O   0  0  0  0  0  0  0  0  0  0  0  0
    6.2628  -12.0601   27.1965 C   0  0  0  0  0  0  0  0  0  0  0  0
    7.1930  -13.0894   26.5832 C   0  0  0  0  0  0  0  0  0  0  0  0
    7.9534  -13.8450   27.6453 C   0  0  2  0  0  0  0  0  0  0  0  0
    8.9966  -13.0088   28.3151 C   0  0  0  0  0  0  0  0  0  0  0  0
    8.7301  -14.9624   26.8968 C   0  0  2  0  0  0  0  0  0  0  0  0
    7.7731  -15.6509   26.0549 N   0  0  0  0  0  0  0  0  0  0  0  0
    9.3897  -15.8288   27.8873 C   0  0  0  0  0  0  0  0  0  0  0  0
   10.6633  -15.5750   28.3674 O   0  0  0  0  0  0  0  0  0  0  0  0
    8.7912  -16.8372   28.3227 O   0  0  0  0  0  0  0  0  0  0  0  0
  2  1  1  1
  3  2  1  0
  4  2  1  0
  4  5  1  0
  5  6  1  6
  7  8  2  0
  7  5  1  0
 10 11  1  0
 10  9  1  0
 11 12  1  0
 13 12  1  1
 13 14  1  0
 14  7  1  0
 15 16  2  0
 15 13  1  0
 18 19  1  0
 18 17  1  0
 19 21  1  0
 19 20  1  6
 21 22  1  1
 22 15  1  0
 23 21  1  0
 24 23  1  0
 25 23  2  0
M  END
$$$$
