LMI.pdb
     RDKit          3D

 25 24  0  0  1  0  0  0  0  0999 V2000
    8.9239  -14.7470   17.6361 C   0  0  0  0  0  0  0  0  0  0  0  0
    7.9311  -13.9789   18.4689 C   0  0  2  0  0  0  0  0  0  0  0  0
    7.5330  -12.6989   17.7770 C   0  0  0  0  0  0  0  0  0  0  0  0
    8.4151  -13.7639   19.8651 C   0  0  0  0  0  0  0  0  0  0  0  0
    8.6878  -15.0578   20.5994 C   0  0  2  0  0  0  0  0  0  0  0  0
    7.8554  -16.1327   20.1827 N   0  0  0  0  0  0  0  0  0  0  0  0
    8.6785  -14.7712   22.0339 C   0  0  0  0  0  0  0  0  0  0  0  0
    9.4936  -13.8869   22.4449 O   0  0  0  0  0  0  0  0  0  0  0  0
    5.8387  -11.8357   24.9877 C   0  0  0  0  0  0  0  0  0  0  0  0
    5.9608  -12.7329   26.5500 S   0  0  0  0  0  0  0  0  0  0  0  0
    6.2408  -14.4832   26.3000 C   0  0  0  0  0  0  0  0  0  0  0  0
    6.3982  -14.8934   24.8764 C   0  0  0  0  0  0  0  0  0  0  0  0
    7.8328  -14.8828   24.3855 C   0  0  2  0  0  0  0  0  0  0  0  0
    7.8586  -15.3779   22.9925 N   0  0  0  0  0  0  0  0  0  0  0  0
    8.7620  -15.6952   25.1596 C   0  0  0  0  0  0  0  0  0  0  0  0
    9.0082  -16.9150   24.8584 O   0  0  0  0  0  0  0  0  0  0  0  0
   10.1110  -13.3190   29.7710 C   0  0  0  0  0  0  0  0  0  0  0  0
   10.3784  -14.0036   28.4441 C   0  0  0  0  0  0  0  0  0  0  0  0
   10.2733  -15.5039   28.5688 C   0  0  2  0  0  0  0  0  0  0  0  0
   11.4407  -16.1082   29.2816 C   0  0  0  0  0  0  0  0  0  0  0  0
   10.3377  -16.0555   27.1183 C   0  0  2  0  0  0  0  0  0  0  0  0
    9.4840  -15.2117   26.3072 N   0  0  0  0  0  0  0  0  0  0  0  0
    9.9420  -17.4733   27.1305 C   0  0  0  0  0  0  0  0  0  0  0  0
   10.8334  -18.4972   26.8579 O   0  0  0  0  0  0  0  0  0  0  0  0
    8.7594  -17.7830   27.3951 O   0  0  0  0  0  0  0  0  0  0  0  0
  2  1  1  6
  3  2  1  0
  4  2  1  0
  4  5  1  0
  5  6  1  1
  7  8  2  0
  7  5  1  0
 10 11  1  0
 10  9  1  0
 11 12  1  0
 13 12  1  1
 13 14  1  0
 14  7  1  0
 15 16  2  0
 15 13  1  0
 18 19  1  0
 18 17  1  0
 19 21  1  0
 19 20  1  1
 21 22  1  6
 22 15  1  0
 23 21  1  0
 24 23  1  0
 25 23  2  0
M  END
$$$$
