LMI.pdb
     RDKit          3D

 25 24  0  0  1  0  0  0  0  0999 V2000
    9.0953  -20.2426   20.1181 C   0  0  0  0  0  0  0  0  0  0  0  0
   10.5721  -20.1096   20.3830 C   0  0  2  0  0  0  0  0  0  0  0  0
   11.0967  -21.3293   21.0992 C   0  0  0  0  0  0  0  0  0  0  0  0
   10.9057  -18.8322   21.0807 C   0  0  0  0  0  0  0  0  0  0  0  0
   10.2090  -17.6327   20.4776 C   0  0  2  0  0  0  0  0  0  0  0  0
   10.7992  -17.1852   19.2638 N   0  0  0  0  0  0  0  0  0  0  0  0
   10.0712  -16.6198   21.5240 C   0  0  0  0  0  0  0  0  0  0  0  0
   10.9980  -15.7541   21.6064 O   0  0  0  0  0  0  0  0  0  0  0  0
    5.6544  -11.9586   26.0823 C   0  0  0  0  0  0  0  0  0  0  0  0
    5.7493  -13.2776   24.8527 S   0  0  0  0  0  0  0  0  0  0  0  0
    7.4080  -13.9323   24.6956 C   0  0  0  0  0  0  0  0  0  0  0  0
    7.5770  -14.9547   23.6251 C   0  0  0  0  0  0  0  0  0  0  0  0
    9.0034  -15.4400   23.4542 C   0  0  2  0  0  0  0  0  0  0  0  0
    9.0175  -16.5154   22.4395 N   0  0  0  0  0  0  0  0  0  0  0  0
    9.6320  -15.9631   24.6599 C   0  0  0  0  0  0  0  0  0  0  0  0
    9.7319  -17.2204   24.8806 O   0  0  0  0  0  0  0  0  0  0  0  0
   10.9732  -14.1931   30.4446 C   0  0  0  0  0  0  0  0  0  0  0  0
   11.1641  -15.1365   29.2723 C   0  0  0  0  0  0  0  0  0  0  0  0
   10.5926  -14.5568   28.0016 C   0  0  2  0  0  0  0  0  0  0  0  0
    9.1256  -14.2840   28.0989 C   0  0  0  0  0  0  0  0  0  0  0  0
   10.7413  -15.6662   26.9250 C   0  0  2  0  0  0  0  0  0  0  0  0
   10.1972  -15.1343   25.6922 N   0  0  0  0  0  0  0  0  0  0  0  0
   10.0669  -16.8849   27.4013 C   0  0  0  0  0  0  0  0  0  0  0  0
    8.7417  -17.1635   27.1126 O   0  0  0  0  0  0  0  0  0  0  0  0
   10.7002  -17.7112   28.0947 O   0  0  0  0  0  0  0  0  0  0  0  0
  2  1  1  1
  3  2  1  0
  4  2  1  0
  4  5  1  0
  5  6  1  6
  7  8  2  0
  7  5  1  0
 10 11  1  0
 10  9  1  0
 11 12  1  0
 13 12  1  1
 13 14  1  0
 14  7  1  0
 15 16  2  0
 15 13  1  0
 18 19  1  0
 18 17  1  0
 19 21  1  0
 19 20  1  1
 21 22  1  6
 22 15  1  0
 23 21  1  0
 24 23  1  0
 25 23  2  0
M  END
$$$$
