LMI.pdb
     RDKit          3D

 25 24  0  0  1  0  0  0  0  0999 V2000
    9.1284  -14.4367   19.7180 C   0  0  0  0  0  0  0  0  0  0  0  0
    7.7754  -13.9832   19.2355 C   0  0  2  0  0  0  0  0  0  0  0  0
    7.6174  -12.4939   19.4157 C   0  0  0  0  0  0  0  0  0  0  0  0
    6.6657  -14.7688   19.8531 C   0  0  0  0  0  0  0  0  0  0  0  0
    7.0902  -16.1593   20.2705 C   0  0  2  0  0  0  0  0  0  0  0  0
    6.5115  -17.1901   19.4802 N   0  0  0  0  0  0  0  0  0  0  0  0
    6.8830  -16.2783   21.7138 C   0  0  0  0  0  0  0  0  0  0  0  0
    5.9103  -15.6256   22.2068 O   0  0  0  0  0  0  0  0  0  0  0  0
    6.1107  -21.4601   26.4368 C   0  0  0  0  0  0  0  0  0  0  0  0
    7.6193  -20.4688   26.4831 S   0  0  0  0  0  0  0  0  0  0  0  0
    7.3363  -18.7878   25.9367 C   0  0  0  0  0  0  0  0  0  0  0  0
    7.4241  -18.5870   24.4631 C   0  0  0  0  0  0  0  0  0  0  0  0
    7.2839  -17.1414   24.0272 C   0  0  2  0  0  0  0  0  0  0  0  0
    7.6534  -17.0412   22.5991 N   0  0  0  0  0  0  0  0  0  0  0  0
    8.1027  -16.1869   24.7627 C   0  0  0  0  0  0  0  0  0  0  0  0
    9.3476  -16.0268   24.5102 O   0  0  0  0  0  0  0  0  0  0  0  0
    5.9502  -11.6295   26.5491 C   0  0  0  0  0  0  0  0  0  0  0  0
    6.9469  -12.6759   26.0881 C   0  0  0  0  0  0  0  0  0  0  0  0
    7.5533  -13.4105   27.2586 C   0  0  2  0  0  0  0  0  0  0  0  0
    8.4698  -12.5509   28.0691 C   0  0  0  0  0  0  0  0  0  0  0  0
    8.4526  -14.5178   26.6444 C   0  0  2  0  0  0  0  0  0  0  0  0
    7.5990  -15.3438   25.8150 N   0  0  0  0  0  0  0  0  0  0  0  0
    9.1184  -15.2492   27.7347 C   0  0  0  0  0  0  0  0  0  0  0  0
   10.3518  -14.8730   28.2388 O   0  0  0  0  0  0  0  0  0  0  0  0
    8.5629  -16.2513   28.2365 O   0  0  0  0  0  0  0  0  0  0  0  0
  2  1  1  1
  3  2  1  0
  4  2  1  0
  4  5  1  0
  5  6  1  6
  7  8  2  0
  7  5  1  0
 10 11  1  0
 10  9  1  0
 11 12  1  0
 13 12  1  1
 13 14  1  0
 14  7  1  0
 15 16  2  0
 15 13  1  0
 18 19  1  0
 18 17  1  0
 19 21  1  0
 19 20  1  6
 21 22  1  1
 22 15  1  0
 23 21  1  0
 24 23  1  0
 25 23  2  0
M  END
$$$$
