LMI.pdb
     RDKit          3D

 25 24  0  0  1  0  0  0  0  0999 V2000
    9.2917  -14.5977   19.6504 C   0  0  0  0  0  0  0  0  0  0  0  0
    7.9640  -14.2820   19.0126 C   0  0  2  0  0  0  0  0  0  0  0  0
    7.8104  -12.7950   18.8108 C   0  0  0  0  0  0  0  0  0  0  0  0
    6.8228  -14.8929   19.7573 C   0  0  0  0  0  0  0  0  0  0  0  0
    7.0702  -16.3373   20.1319 C   0  0  2  0  0  0  0  0  0  0  0  0
    6.4418  -17.2656   19.2569 N   0  0  0  0  0  0  0  0  0  0  0  0
    6.7542  -16.4940   21.5516 C   0  0  0  0  0  0  0  0  0  0  0  0
    5.5255  -16.4419   21.8723 O   0  0  0  0  0  0  0  0  0  0  0  0
    8.5769  -21.0175   25.6391 C   0  0  0  0  0  0  0  0  0  0  0  0
    7.1052  -20.2361   26.3349 S   0  0  0  0  0  0  0  0  0  0  0  0
    6.9406  -18.5306   25.8165 C   0  0  0  0  0  0  0  0  0  0  0  0
    7.2539  -18.2811   24.3815 C   0  0  0  0  0  0  0  0  0  0  0  0
    7.2215  -16.8171   23.9877 C   0  0  2  0  0  0  0  0  0  0  0  0
    7.6756  -16.6954   22.5859 N   0  0  0  0  0  0  0  0  0  0  0  0
    8.0512  -15.9356   24.7982 C   0  0  0  0  0  0  0  0  0  0  0  0
    9.3167  -15.8479   24.6245 O   0  0  0  0  0  0  0  0  0  0  0  0
    5.5883  -11.6459   26.8802 C   0  0  0  0  0  0  0  0  0  0  0  0
    6.6382  -12.5742   26.3000 C   0  0  0  0  0  0  0  0  0  0  0  0
    7.4466  -13.2378   27.3879 C   0  0  2  0  0  0  0  0  0  0  0  0
    8.3547  -12.2846   28.0970 C   0  0  0  0  0  0  0  0  0  0  0  0
    8.3809  -14.2471   26.6662 C   0  0  2  0  0  0  0  0  0  0  0  0
    7.5373  -15.0899   25.8436 N   0  0  0  0  0  0  0  0  0  0  0  0
    9.1588  -14.9819   27.6771 C   0  0  0  0  0  0  0  0  0  0  0  0
   10.4070  -14.5627   28.1052 O   0  0  0  0  0  0  0  0  0  0  0  0
    8.6894  -16.0271   28.1789 O   0  0  0  0  0  0  0  0  0  0  0  0
  2  1  1  1
  3  2  1  0
  4  2  1  0
  4  5  1  0
  5  6  1  6
  7  8  2  0
  7  5  1  0
 10 11  1  0
 10  9  1  0
 11 12  1  0
 13 12  1  1
 13 14  1  0
 14  7  1  0
 15 16  2  0
 15 13  1  0
 18 19  1  0
 18 17  1  0
 19 21  1  0
 19 20  1  6
 21 22  1  1
 22 15  1  0
 23 21  1  0
 24 23  1  0
 25 23  2  0
M  END
$$$$
