LMI.pdb
     RDKit          3D

 25 24  0  0  1  0  0  0  0  0999 V2000
    5.5580  -20.0058   26.8415 C   0  0  0  0  0  0  0  0  0  0  0  0
    7.0020  -20.4115   26.9801 C   0  0  2  0  0  0  0  0  0  0  0  0
    7.4310  -20.3679   28.4257 C   0  0  0  0  0  0  0  0  0  0  0  0
    7.8963  -19.6243   26.0798 C   0  0  0  0  0  0  0  0  0  0  0  0
    7.3842  -19.5514   24.6585 C   0  0  2  0  0  0  0  0  0  0  0  0
    7.3854  -20.8066   23.9902 N   0  0  0  0  0  0  0  0  0  0  0  0
    8.1001  -18.4727   23.9774 C   0  0  0  0  0  0  0  0  0  0  0  0
    9.2113  -18.7751   23.4398 O   0  0  0  0  0  0  0  0  0  0  0  0
    5.8640  -12.5907   21.6362 C   0  0  0  0  0  0  0  0  0  0  0  0
    7.3741  -13.0059   20.7374 S   0  0  0  0  0  0  0  0  0  0  0  0
    8.4001  -14.1596   21.6433 C   0  0  0  0  0  0  0  0  0  0  0  0
    7.6497  -15.1774   22.4310 C   0  0  0  0  0  0  0  0  0  0  0  0
    8.5345  -16.1322   23.2086 C   0  0  2  0  0  0  0  0  0  0  0  0
    7.6770  -17.1434   23.8631 N   0  0  0  0  0  0  0  0  0  0  0  0
    9.3579  -15.5173   24.2412 C   0  0  0  0  0  0  0  0  0  0  0  0
    9.8737  -14.3548   24.0930 O   0  0  0  0  0  0  0  0  0  0  0  0
    8.3387  -12.1449   26.0591 C   0  0  0  0  0  0  0  0  0  0  0  0
    9.2116  -13.3580   25.8001 C   0  0  0  0  0  0  0  0  0  0  0  0
    9.2275  -14.2876   26.9888 C   0  0  2  0  0  0  0  0  0  0  0  0
    9.7808  -13.6433   28.2196 C   0  0  0  0  0  0  0  0  0  0  0  0
   10.2242  -15.4223   26.6265 C   0  0  2  0  0  0  0  0  0  0  0  0
    9.6565  -16.1407   25.5039 N   0  0  0  0  0  0  0  0  0  0  0  0
   10.4504  -16.2554   27.8189 C   0  0  0  0  0  0  0  0  0  0  0  0
   11.3460  -15.9028   28.8142 O   0  0  0  0  0  0  0  0  0  0  0  0
    9.8180  -17.3261   27.9541 O   0  0  0  0  0  0  0  0  0  0  0  0
  2  1  1  1
  3  2  1  0
  4  2  1  0
  4  5  1  0
  5  6  1  6
  7  8  2  0
  7  5  1  0
 10 11  1  0
 10  9  1  0
 11 12  1  0
 13 12  1  1
 13 14  1  0
 14  7  1  0
 15 16  2  0
 15 13  1  0
 18 19  1  0
 18 17  1  0
 19 21  1  0
 19 20  1  1
 21 22  1  6
 22 15  1  0
 23 21  1  0
 24 23  1  0
 25 23  2  0
M  END
$$$$
