LMI.pdb
     RDKit          3D

 25 24  0  0  1  0  0  0  0  0999 V2000
    8.4902  -14.2391   18.2318 C   0  0  0  0  0  0  0  0  0  0  0  0
    7.5698  -13.5157   19.1798 C   0  0  2  0  0  0  0  0  0  0  0  0
    7.2983  -12.1140   18.6928 C   0  0  0  0  0  0  0  0  0  0  0  0
    8.0643  -13.5609   20.5882 C   0  0  0  0  0  0  0  0  0  0  0  0
    8.2075  -14.9708   21.1168 C   0  0  2  0  0  0  0  0  0  0  0  0
    7.0981  -15.8063   20.8116 N   0  0  0  0  0  0  0  0  0  0  0  0
    8.5634  -14.8859   22.5332 C   0  0  0  0  0  0  0  0  0  0  0  0
    9.6301  -14.2560   22.8172 O   0  0  0  0  0  0  0  0  0  0  0  0
    7.6150  -11.5637   27.7119 C   0  0  0  0  0  0  0  0  0  0  0  0
    6.2391  -12.4956   27.0053 S   0  0  0  0  0  0  0  0  0  0  0  0
    6.7359  -13.4443   25.5709 C   0  0  0  0  0  0  0  0  0  0  0  0
    7.1939  -14.8307   25.8672 C   0  0  0  0  0  0  0  0  0  0  0  0
    8.3352  -15.3052   24.9888 C   0  0  2  0  0  0  0  0  0  0  0  0
    7.8412  -15.4316   23.6009 N   0  0  0  0  0  0  0  0  0  0  0  0
    8.9217  -16.5842   25.3664 C   0  0  0  0  0  0  0  0  0  0  0  0
    8.2402  -17.6680   25.3663 O   0  0  0  0  0  0  0  0  0  0  0  0
   13.9413  -17.2584   24.0166 C   0  0  0  0  0  0  0  0  0  0  0  0
   12.4928  -17.4590   24.4195 C   0  0  0  0  0  0  0  0  0  0  0  0
   12.3815  -17.9626   25.8377 C   0  0  2  0  0  0  0  0  0  0  0  0
   12.8836  -19.3623   25.9955 C   0  0  0  0  0  0  0  0  0  0  0  0
   10.8608  -18.0263   26.1470 C   0  0  2  0  0  0  0  0  0  0  0  0
   10.2968  -16.7497   25.7586 N   0  0  0  0  0  0  0  0  0  0  0  0
   10.6781  -18.3543   27.5703 C   0  0  0  0  0  0  0  0  0  0  0  0
   10.6149  -17.3836   28.5557 O   0  0  0  0  0  0  0  0  0  0  0  0
   10.5743  -19.5505   27.9209 O   0  0  0  0  0  0  0  0  0  0  0  0
  2  1  1  6
  3  2  1  0
  4  2  1  0
  4  5  1  0
  5  6  1  1
  7  8  2  0
  7  5  1  0
 10 11  1  0
 10  9  1  0
 11 12  1  0
 13 12  1  1
 13 14  1  0
 14  7  1  0
 15 16  2  0
 15 13  1  0
 18 19  1  0
 18 17  1  0
 19 21  1  0
 19 20  1  6
 21 22  1  1
 22 15  1  0
 23 21  1  0
 24 23  1  0
 25 23  2  0
M  END
$$$$
