LMI.pdb
     RDKit          3D

 25 24  0  0  1  0  0  0  0  0999 V2000
    8.8574  -14.4684   18.1385 C   0  0  0  0  0  0  0  0  0  0  0  0
    7.7456  -13.8082   18.9114 C   0  0  2  0  0  0  0  0  0  0  0  0
    7.3746  -12.4863   18.2865 C   0  0  0  0  0  0  0  0  0  0  0  0
    8.0597  -13.7001   20.3673 C   0  0  0  0  0  0  0  0  0  0  0  0
    8.3849  -15.0350   21.0000 C   0  0  2  0  0  0  0  0  0  0  0  0
    7.4427  -16.0539   20.6902 N   0  0  0  0  0  0  0  0  0  0  0  0
    8.6263  -14.8101   22.4252 C   0  0  0  0  0  0  0  0  0  0  0  0
    9.5198  -13.9576   22.7255 O   0  0  0  0  0  0  0  0  0  0  0  0
    6.7113  -11.2196   26.4135 C   0  0  0  0  0  0  0  0  0  0  0  0
    5.5023  -12.5564   26.3042 S   0  0  0  0  0  0  0  0  0  0  0  0
    5.9389  -13.7570   25.0501 C   0  0  0  0  0  0  0  0  0  0  0  0
    6.7801  -14.8875   25.5338 C   0  0  0  0  0  0  0  0  0  0  0  0
    8.1430  -14.9696   24.8744 C   0  0  2  0  0  0  0  0  0  0  0  0
    7.9673  -15.4439   23.4850 N   0  0  0  0  0  0  0  0  0  0  0  0
    9.0977  -15.8565   25.5258 C   0  0  0  0  0  0  0  0  0  0  0  0
    9.2698  -17.0657   25.1416 O   0  0  0  0  0  0  0  0  0  0  0  0
   11.2384  -14.5998   30.6095 C   0  0  0  0  0  0  0  0  0  0  0  0
   10.6055  -15.1242   29.3347 C   0  0  0  0  0  0  0  0  0  0  0  0
   11.6532  -15.5136   28.3207 C   0  0  2  0  0  0  0  0  0  0  0  0
   12.2278  -14.3354   27.6011 C   0  0  0  0  0  0  0  0  0  0  0  0
   10.9087  -16.3423   27.2385 C   0  0  2  0  0  0  0  0  0  0  0  0
    9.9280  -15.4639   26.6343 N   0  0  0  0  0  0  0  0  0  0  0  0
   10.3321  -17.5405   27.8700 C   0  0  0  0  0  0  0  0  0  0  0  0
   11.1001  -18.6349   28.2298 O   0  0  0  0  0  0  0  0  0  0  0  0
    9.1031  -17.5889   28.0974 O   0  0  0  0  0  0  0  0  0  0  0  0
  2  1  1  6
  3  2  1  0
  4  2  1  0
  4  5  1  0
  5  6  1  1
  7  8  2  0
  7  5  1  0
 10 11  1  0
 10  9  1  0
 11 12  1  0
 13 12  1  1
 13 14  1  0
 14  7  1  0
 15 16  2  0
 15 13  1  0
 18 19  1  0
 18 17  1  0
 19 21  1  0
 19 20  1  6
 21 22  1  1
 22 15  1  0
 23 21  1  0
 24 23  1  0
 25 23  2  0
M  END
$$$$
