LMI.pdb
     RDKit          3D

 25 24  0  0  1  0  0  0  0  0999 V2000
    8.4585  -17.2518   17.8701 C   0  0  0  0  0  0  0  0  0  0  0  0
    8.2061  -15.8188   18.2601 C   0  0  2  0  0  0  0  0  0  0  0  0
    8.7089  -14.8797   17.1920 C   0  0  0  0  0  0  0  0  0  0  0  0
    8.7421  -15.5025   19.6176 C   0  0  0  0  0  0  0  0  0  0  0  0
    8.1110  -16.3381   20.7091 C   0  0  2  0  0  0  0  0  0  0  0  0
    6.7027  -16.4798   20.5721 N   0  0  0  0  0  0  0  0  0  0  0  0
    8.5712  -15.8179   21.9965 C   0  0  0  0  0  0  0  0  0  0  0  0
    9.8212  -15.6250   22.1206 O   0  0  0  0  0  0  0  0  0  0  0  0
    5.6708  -11.6130   26.0463 C   0  0  0  0  0  0  0  0  0  0  0  0
    7.2626  -12.0192   26.7957 S   0  0  0  0  0  0  0  0  0  0  0  0
    7.7729  -13.6943   26.4242 C   0  0  0  0  0  0  0  0  0  0  0  0
    7.3158  -14.2077   25.1024 C   0  0  0  0  0  0  0  0  0  0  0  0
    8.3645  -15.0073   24.3540 C   0  0  2  0  0  0  0  0  0  0  0  0
    7.7661  -15.5138   23.1004 N   0  0  0  0  0  0  0  0  0  0  0  0
    8.9091  -16.1497   25.0757 C   0  0  0  0  0  0  0  0  0  0  0  0
    8.2149  -17.2015   25.3016 O   0  0  0  0  0  0  0  0  0  0  0  0
   13.6365  -17.6685   23.7987 C   0  0  0  0  0  0  0  0  0  0  0  0
   12.2372  -17.5263   24.3665 C   0  0  0  0  0  0  0  0  0  0  0  0
   12.2536  -17.5271   25.8755 C   0  0  2  0  0  0  0  0  0  0  0  0
   12.6856  -18.8390   26.4485 C   0  0  0  0  0  0  0  0  0  0  0  0
   10.7754  -17.3448   26.3158 C   0  0  2  0  0  0  0  0  0  0  0  0
   10.2542  -16.2076   25.5852 N   0  0  0  0  0  0  0  0  0  0  0  0
   10.7305  -17.1891   27.7789 C   0  0  0  0  0  0  0  0  0  0  0  0
   10.6066  -18.2673   28.6387 O   0  0  0  0  0  0  0  0  0  0  0  0
   10.8059  -16.0463   28.2817 O   0  0  0  0  0  0  0  0  0  0  0  0
  2  1  1  6
  3  2  1  0
  4  2  1  0
  4  5  1  0
  5  6  1  1
  7  8  2  0
  7  5  1  0
 10 11  1  0
 10  9  1  0
 11 12  1  0
 13 12  1  1
 13 14  1  0
 14  7  1  0
 15 16  2  0
 15 13  1  0
 18 19  1  0
 18 17  1  0
 19 21  1  0
 19 20  1  1
 21 22  1  6
 22 15  1  0
 23 21  1  0
 24 23  1  0
 25 23  2  0
M  END
$$$$
