LMI.pdb
     RDKit          3D

 25 24  0  0  1  0  0  0  0  0999 V2000
   10.1891  -19.5763   19.5233 C   0  0  0  0  0  0  0  0  0  0  0  0
   11.5428  -19.1517   20.0297 C   0  0  2  0  0  0  0  0  0  0  0  0
   12.3541  -20.3516   20.4513 C   0  0  0  0  0  0  0  0  0  0  0  0
   11.4434  -18.1087   21.0939 C   0  0  0  0  0  0  0  0  0  0  0  0
   10.5467  -16.9544   20.7049 C   0  0  2  0  0  0  0  0  0  0  0  0
   11.0986  -16.1244   19.6907 N   0  0  0  0  0  0  0  0  0  0  0  0
   10.1402  -16.2679   21.9310 C   0  0  0  0  0  0  0  0  0  0  0  0
   10.9279  -15.3737   22.3728 O   0  0  0  0  0  0  0  0  0  0  0  0
    6.9208  -12.1163   26.3259 C   0  0  0  0  0  0  0  0  0  0  0  0
    6.4256  -13.0831   24.8834 S   0  0  0  0  0  0  0  0  0  0  0  0
    6.6415  -14.8407   25.1455 C   0  0  0  0  0  0  0  0  0  0  0  0
    7.1192  -15.5958   23.9534 C   0  0  0  0  0  0  0  0  0  0  0  0
    8.6290  -15.6678   23.8320 C   0  0  2  0  0  0  0  0  0  0  0  0
    8.9689  -16.5032   22.6603 N   0  0  0  0  0  0  0  0  0  0  0  0
    9.3207  -16.2252   24.9867 C   0  0  0  0  0  0  0  0  0  0  0  0
    9.5230  -17.4832   25.1126 O   0  0  0  0  0  0  0  0  0  0  0  0
   10.4536  -12.5917   28.9541 C   0  0  0  0  0  0  0  0  0  0  0  0
   10.7143  -13.6711   27.9208 C   0  0  0  0  0  0  0  0  0  0  0  0
   10.2565  -15.0230   28.4107 C   0  0  2  0  0  0  0  0  0  0  0  0
   11.0907  -15.5428   29.5376 C   0  0  0  0  0  0  0  0  0  0  0  0
   10.4911  -16.0038   27.2295 C   0  0  2  0  0  0  0  0  0  0  0  0
    9.8402  -15.4310   26.0690 N   0  0  0  0  0  0  0  0  0  0  0  0
    9.9831  -17.3329   27.6067 C   0  0  0  0  0  0  0  0  0  0  0  0
    8.6325  -17.6378   27.6183 O   0  0  0  0  0  0  0  0  0  0  0  0
   10.7883  -18.2332   27.9321 O   0  0  0  0  0  0  0  0  0  0  0  0
  2  1  1  1
  3  2  1  0
  4  2  1  0
  4  5  1  0
  5  6  1  6
  7  8  2  0
  7  5  1  0
 10 11  1  0
 10  9  1  0
 11 12  1  0
 13 12  1  1
 13 14  1  0
 14  7  1  0
 15 16  2  0
 15 13  1  0
 18 19  1  0
 18 17  1  0
 19 21  1  0
 19 20  1  1
 21 22  1  6
 22 15  1  0
 23 21  1  0
 24 23  1  0
 25 23  2  0
M  END
$$$$
