LMI.pdb
     RDKit          3D

 25 24  0  0  1  0  0  0  0  0999 V2000
    9.1733  -19.7438   19.9038 C   0  0  0  0  0  0  0  0  0  0  0  0
   10.6342  -19.4870   20.1665 C   0  0  2  0  0  0  0  0  0  0  0  0
   11.3182  -20.7436   20.6448 C   0  0  0  0  0  0  0  0  0  0  0  0
   10.8458  -18.3223   21.0769 C   0  0  0  0  0  0  0  0  0  0  0  0
    9.9914  -17.1283   20.7134 C   0  0  2  0  0  0  0  0  0  0  0  0
   10.5184  -16.3598   19.6393 N   0  0  0  0  0  0  0  0  0  0  0  0
    9.7097  -16.3863   21.9422 C   0  0  0  0  0  0  0  0  0  0  0  0
   10.6142  -15.5918   22.3497 O   0  0  0  0  0  0  0  0  0  0  0  0
    6.3523  -12.0603   26.8260 C   0  0  0  0  0  0  0  0  0  0  0  0
    6.9211  -12.9163   25.3413 S   0  0  0  0  0  0  0  0  0  0  0  0
    6.5781  -14.6722   25.4044 C   0  0  0  0  0  0  0  0  0  0  0  0
    6.8913  -15.4150   24.1515 C   0  0  0  0  0  0  0  0  0  0  0  0
    8.3730  -15.6395   23.9204 C   0  0  2  0  0  0  0  0  0  0  0  0
    8.5411  -16.4693   22.7083 N   0  0  0  0  0  0  0  0  0  0  0  0
    9.0800  -16.3006   25.0091 C   0  0  0  0  0  0  0  0  0  0  0  0
    9.0294  -17.5688   25.1779 O   0  0  0  0  0  0  0  0  0  0  0  0
   10.1248  -13.5587   29.7160 C   0  0  0  0  0  0  0  0  0  0  0  0
    9.7976  -14.6292   28.6924 C   0  0  0  0  0  0  0  0  0  0  0  0
   11.0485  -15.1732   28.0471 C   0  0  2  0  0  0  0  0  0  0  0  0
   11.7525  -14.1587   27.2038 C   0  0  0  0  0  0  0  0  0  0  0  0
   10.5727  -16.2771   27.0636 C   0  0  2  0  0  0  0  0  0  0  0  0
    9.8934  -15.6072   25.9733 N   0  0  0  0  0  0  0  0  0  0  0  0
    9.7297  -17.2359   27.7963 C   0  0  0  0  0  0  0  0  0  0  0  0
   10.2595  -18.2174   28.6167 O   0  0  0  0  0  0  0  0  0  0  0  0
    8.4853  -17.1763   27.6849 O   0  0  0  0  0  0  0  0  0  0  0  0
  2  1  1  1
  3  2  1  0
  4  2  1  0
  4  5  1  0
  5  6  1  6
  7  8  2  0
  7  5  1  0
 10 11  1  0
 10  9  1  0
 11 12  1  0
 13 12  1  1
 13 14  1  0
 14  7  1  0
 15 16  2  0
 15 13  1  0
 18 19  1  0
 18 17  1  0
 19 21  1  0
 19 20  1  6
 21 22  1  6
 22 15  1  0
 23 21  1  0
 24 23  1  0
 25 23  2  0
M  END
$$$$
