LMI.pdb
     RDKit          3D

 25 24  0  0  1  0  0  0  0  0999 V2000
    9.1042  -20.6630   19.9496 C   0  0  0  0  0  0  0  0  0  0  0  0
    8.1594  -19.7043   19.2734 C   0  0  2  0  0  0  0  0  0  0  0  0
    8.3482  -19.7368   17.7771 C   0  0  0  0  0  0  0  0  0  0  0  0
    8.2500  -18.3277   19.8453 C   0  0  0  0  0  0  0  0  0  0  0  0
    8.0517  -18.2989   21.3445 C   0  0  2  0  0  0  0  0  0  0  0  0
    6.7809  -18.7851   21.7578 N   0  0  0  0  0  0  0  0  0  0  0  0
    8.4002  -16.9596   21.8184 C   0  0  0  0  0  0  0  0  0  0  0  0
    8.1576  -15.9934   21.0291 O   0  0  0  0  0  0  0  0  0  0  0  0
    6.2240  -11.9537   26.6793 C   0  0  0  0  0  0  0  0  0  0  0  0
    6.3343  -13.5939   25.9322 S   0  0  0  0  0  0  0  0  0  0  0  0
    7.2010  -13.5625   24.3662 C   0  0  0  0  0  0  0  0  0  0  0  0
    7.4268  -14.9004   23.7506 C   0  0  0  0  0  0  0  0  0  0  0  0
    8.8892  -15.2713   23.5984 C   0  0  2  0  0  0  0  0  0  0  0  0
    8.9738  -16.6441   23.0556 N   0  0  0  0  0  0  0  0  0  0  0  0
    9.6725  -15.2334   24.8261 C   0  0  0  0  0  0  0  0  0  0  0  0
   10.2006  -14.1504   25.2593 O   0  0  0  0  0  0  0  0  0  0  0  0
   10.1561  -12.7646   28.1061 C   0  0  0  0  0  0  0  0  0  0  0  0
   10.5744  -13.9215   27.2188 C   0  0  0  0  0  0  0  0  0  0  0  0
   10.0971  -15.2409   27.7746 C   0  0  2  0  0  0  0  0  0  0  0  0
   10.6242  -15.5150   29.1469 C   0  0  0  0  0  0  0  0  0  0  0  0
   10.7170  -16.3344   26.8623 C   0  0  2  0  0  0  0  0  0  0  0  0
    9.9148  -16.3836   25.6570 N   0  0  0  0  0  0  0  0  0  0  0  0
   10.7616  -17.6045   27.6051 C   0  0  0  0  0  0  0  0  0  0  0  0
    9.8806  -18.6434   27.3566 O   0  0  0  0  0  0  0  0  0  0  0  0
   11.6217  -17.7686   28.4984 O   0  0  0  0  0  0  0  0  0  0  0  0
  2  1  1  1
  3  2  1  0
  4  2  1  0
  4  5  1  0
  5  6  1  6
  7  8  2  0
  7  5  1  0
 10 11  1  0
 10  9  1  0
 11 12  1  0
 13 12  1  1
 13 14  1  0
 14  7  1  0
 15 16  2  0
 15 13  1  0
 18 19  1  0
 18 17  1  0
 19 21  1  0
 19 20  1  1
 21 22  1  6
 22 15  1  0
 23 21  1  0
 24 23  1  0
 25 23  2  0
M  END
$$$$
