HAS.pdb
     RDKit          3D

 22 22  0  0  1  0  0  0  0  0999 V2000
    8.1260  -17.7820   17.6174 N   0  0  0  0  0  0  0  0  0  0  0  0
    8.8127  -17.1096   18.6853 C   0  0  1  0  0  0  0  0  0  0  0  0
    8.0870  -15.8766   19.1396 C   0  0  0  0  0  0  0  0  0  0  0  0
    7.9329  -14.9510   17.9762 C   0  0  0  0  0  0  0  0  0  0  0  0
    8.7803  -13.9152   17.6315 C   0  0  0  0  0  0  0  0  0  0  0  0
    8.2854  -13.3364   16.5301 N   0  0  0  0  0  0  0  0  0  0  0  0
    7.1592  -13.9823   16.1838 C   0  0  0  0  0  0  0  0  0  0  0  0
    6.9548  -14.9673   17.0761 N   0  0  0  0  0  0  0  0  0  0  0  0
    8.9743  -18.0286   19.8621 C   0  0  0  0  0  0  0  0  0  0  0  0
    9.5474  -17.6556   20.9149 O   0  0  0  0  0  0  0  0  0  0  0  0
    7.5649  -21.3483   20.9391 C   0  0  0  0  0  0  0  0  0  0  0  0
    8.5830  -20.2342   20.9728 C   0  0  2  0  0  0  0  0  0  0  0  0
    8.4865  -19.3616   19.8384 N   0  0  0  0  0  0  0  0  0  0  0  0
    9.9491  -20.7192   21.2182 C   0  0  0  0  0  0  0  0  0  0  0  0
   10.6546  -21.0805   20.2564 O   0  0  0  0  0  0  0  0  0  0  0  0
   11.7072  -19.9978   24.6665 O   0  0  0  0  0  0  0  0  0  0  0  0
   12.5460  -20.3052   23.5865 C   0  0  0  0  0  0  0  0  0  0  0  0
   11.7991  -21.3092   22.7222 C   0  0  2  0  0  0  0  0  0  0  0  0
   10.4669  -20.7801   22.5206 N   0  0  0  0  0  0  0  0  0  0  0  0
   11.6876  -22.6135   23.4044 C   0  0  0  0  0  0  0  0  0  0  0  0
   10.5550  -23.0599   23.6929 O   0  0  0  0  0  0  0  0  0  0  0  0
   12.7965  -23.3708   23.7414 O   0  0  0  0  0  0  0  0  0  0  0  0
  2  1  1  6
  2  9  1  0
  2  3  1  0
  3  4  1  0
  4  5  2  0
  4  8  1  0
  5  6  1  0
  6  7  1  0
  8  7  2  0
  9 10  2  0
  9 13  1  0
 12 11  1  6
 12 14  1  0
 13 12  1  0
 14 15  2  0
 14 19  1  0
 16 17  1  0
 18 20  1  0
 18 17  1  1
 19 18  1  0
 20 22  1  0
 21 20  2  0
M  END
$$$$
