HAS.pdb
     RDKit          3D

 22 22  0  0  1  0  0  0  0  0999 V2000
    9.5216  -13.6160   21.8916 N   0  0  0  0  0  0  0  0  0  0  0  0
    8.6264  -14.1912   22.8569 C   0  0  1  0  0  0  0  0  0  0  0  0
    8.0426  -15.4914   22.3858 C   0  0  0  0  0  0  0  0  0  0  0  0
    7.1439  -15.2234   21.2221 C   0  0  0  0  0  0  0  0  0  0  0  0
    6.9203  -13.9996   20.6203 C   0  0  0  0  0  0  0  0  0  0  0  0
    6.0526  -14.1931   19.6188 N   0  0  0  0  0  0  0  0  0  0  0  0
    5.7335  -15.4979   19.5833 C   0  0  0  0  0  0  0  0  0  0  0  0
    6.4074  -16.1167   20.5688 N   0  0  0  0  0  0  0  0  0  0  0  0
    9.3433  -14.4327   24.1544 C   0  0  0  0  0  0  0  0  0  0  0  0
   10.4725  -14.9801   24.1906 O   0  0  0  0  0  0  0  0  0  0  0  0
    8.8323  -13.4541   27.7758 C   0  0  0  0  0  0  0  0  0  0  0  0
    9.4779  -14.2121   26.6413 C   0  0  2  0  0  0  0  0  0  0  0  0
    8.7773  -14.0531   25.3997 N   0  0  0  0  0  0  0  0  0  0  0  0
    9.7512  -15.6169   26.9785 C   0  0  0  0  0  0  0  0  0  0  0  0
    8.9169  -16.4935   26.6803 O   0  0  0  0  0  0  0  0  0  0  0  0
   12.8325  -18.9135   28.4971 O   0  0  0  0  0  0  0  0  0  0  0  0
   12.6407  -17.5873   28.0858 C   0  0  0  0  0  0  0  0  0  0  0  0
   11.1385  -17.3664   28.0018 C   0  0  2  0  0  0  0  0  0  0  0  0
   10.9382  -15.9815   27.6311 N   0  0  0  0  0  0  0  0  0  0  0  0
   10.4964  -17.5992   29.3104 C   0  0  0  0  0  0  0  0  0  0  0  0
   10.1629  -16.6193   30.0131 O   0  0  0  0  0  0  0  0  0  0  0  0
   10.2456  -18.8708   29.7971 O   0  0  0  0  0  0  0  0  0  0  0  0
  2  1  1  6
  2  9  1  0
  2  3  1  0
  3  4  1  0
  4  5  2  0
  4  8  1  0
  5  6  1  0
  6  7  1  0
  8  7  2  0
  9 10  2  0
  9 13  1  0
 12 11  1  1
 12 14  1  0
 13 12  1  0
 14 15  2  0
 14 19  1  0
 16 17  1  0
 18 20  1  0
 18 17  1  1
 19 18  1  0
 20 22  1  0
 21 20  2  0
M  END
$$$$
