HAS.pdb
     RDKit          3D

 22 22  0  0  1  0  0  0  0  0999 V2000
   12.6665  -16.4926   15.7641 N   0  0  0  0  0  0  0  0  0  0  0  0
   13.3374  -16.9965   16.9304 C   0  0  1  0  0  0  0  0  0  0  0  0
   14.5309  -16.1656   17.3024 C   0  0  0  0  0  0  0  0  0  0  0  0
   15.6023  -16.3756   16.2818 C   0  0  0  0  0  0  0  0  0  0  0  0
   16.3132  -17.5404   16.0634 C   0  0  0  0  0  0  0  0  0  0  0  0
   17.1740  -17.3084   15.0641 N   0  0  0  0  0  0  0  0  0  0  0  0
   17.0169  -16.0369   14.6588 C   0  0  0  0  0  0  0  0  0  0  0  0
   16.0530  -15.4776   15.4112 N   0  0  0  0  0  0  0  0  0  0  0  0
   12.3961  -17.0298   18.1002 C   0  0  0  0  0  0  0  0  0  0  0  0
   11.6696  -16.0474   18.3888 O   0  0  0  0  0  0  0  0  0  0  0  0
   11.0493  -19.6503   20.4508 C   0  0  0  0  0  0  0  0  0  0  0  0
   11.3655  -18.2344   20.0336 C   0  0  2  0  0  0  0  0  0  0  0  0
   12.2843  -18.1735   18.9337 N   0  0  0  0  0  0  0  0  0  0  0  0
   11.7570  -17.3818   21.1656 C   0  0  0  0  0  0  0  0  0  0  0  0
   12.9583  -17.0942   21.3313 O   0  0  0  0  0  0  0  0  0  0  0  0
    9.5976  -14.4652   22.7045 O   0  0  0  0  0  0  0  0  0  0  0  0
    9.9979  -15.3598   23.7065 C   0  0  0  0  0  0  0  0  0  0  0  0
   11.2284  -16.0840   23.1828 C   0  0  2  0  0  0  0  0  0  0  0  0
   10.7954  -16.8889   22.0603 N   0  0  0  0  0  0  0  0  0  0  0  0
   11.7924  -16.9792   24.2121 C   0  0  0  0  0  0  0  0  0  0  0  0
   11.6543  -18.2167   24.0911 O   0  0  0  0  0  0  0  0  0  0  0  0
   12.4751  -16.5004   25.3173 O   0  0  0  0  0  0  0  0  0  0  0  0
  2  1  1  6
  2  9  1  0
  2  3  1  0
  3  4  1  0
  4  5  2  0
  4  8  1  0
  5  6  1  0
  6  7  1  0
  8  7  2  0
  9 10  2  0
  9 13  1  0
 12 11  1  1
 12 14  1  0
 13 12  1  0
 14 15  2  0
 14 19  1  0
 16 17  1  0
 18 20  1  0
 18 17  1  1
 19 18  1  0
 20 22  1  0
 21 20  2  0
M  END
$$$$
