HAS.pdb
     RDKit          3D

 22 22  0  0  1  0  0  0  0  0999 V2000
    9.7351  -15.7769   20.4433 N   0  0  0  0  0  0  0  0  0  0  0  0
    9.1080  -14.7671   21.2503 C   0  0  1  0  0  0  0  0  0  0  0  0
    7.7082  -14.4675   20.7987 C   0  0  0  0  0  0  0  0  0  0  0  0
    7.7267  -14.1709   19.3339 C   0  0  0  0  0  0  0  0  0  0  0  0
    8.1343  -12.9923   18.7385 C   0  0  0  0  0  0  0  0  0  0  0  0
    7.9946  -13.1377   17.4146 N   0  0  0  0  0  0  0  0  0  0  0  0
    7.5136  -14.3691   17.1740 C   0  0  0  0  0  0  0  0  0  0  0  0
    7.3542  -14.9905   18.3558 N   0  0  0  0  0  0  0  0  0  0  0  0
    9.0629  -15.2012   22.6873 C   0  0  0  0  0  0  0  0  0  0  0  0
    8.4816  -14.5160   23.5641 O   0  0  0  0  0  0  0  0  0  0  0  0
   10.0890  -18.2715   24.6564 C   0  0  0  0  0  0  0  0  0  0  0  0
    9.6239  -16.8456   24.4853 C   0  0  2  0  0  0  0  0  0  0  0  0
    9.6753  -16.4063   23.1207 N   0  0  0  0  0  0  0  0  0  0  0  0
   10.2785  -15.9178   25.4194 C   0  0  0  0  0  0  0  0  0  0  0  0
   11.4197  -15.4889   25.1604 O   0  0  0  0  0  0  0  0  0  0  0  0
    8.2134  -13.6581   27.8085 O   0  0  0  0  0  0  0  0  0  0  0  0
    9.5477  -13.3225   27.5406 C   0  0  0  0  0  0  0  0  0  0  0  0
   10.3303  -14.6260   27.5077 C   0  0  2  0  0  0  0  0  0  0  0  0
    9.6345  -15.5103   26.5972 N   0  0  0  0  0  0  0  0  0  0  0  0
   10.3620  -15.2568   28.8419 C   0  0  0  0  0  0  0  0  0  0  0  0
   10.7986  -14.6066   29.8176 O   0  0  0  0  0  0  0  0  0  0  0  0
    9.9238  -16.5518   29.0600 O   0  0  0  0  0  0  0  0  0  0  0  0
  2  1  1  6
  2  9  1  0
  2  3  1  0
  3  4  1  0
  4  5  2  0
  4  8  1  0
  5  6  1  0
  6  7  1  0
  8  7  2  0
  9 10  2  0
  9 13  1  0
 12 11  1  6
 12 14  1  0
 13 12  1  0
 14 15  2  0
 14 19  1  0
 16 17  1  0
 18 20  1  0
 18 17  1  1
 19 18  1  0
 20 22  1  0
 21 20  2  0
M  END
$$$$
