HAS.pdb
     RDKit          3D

 22 22  0  0  1  0  0  0  0  0999 V2000
   11.8983  -18.5180   18.1398 N   0  0  0  0  0  0  0  0  0  0  0  0
   10.9071  -18.9454   19.0879 C   0  0  1  0  0  0  0  0  0  0  0  0
   10.6384  -20.4198   19.0028 C   0  0  0  0  0  0  0  0  0  0  0  0
   10.0451  -20.7259   17.6656 C   0  0  0  0  0  0  0  0  0  0  0  0
    8.7270  -20.5479   17.2904 C   0  0  0  0  0  0  0  0  0  0  0  0
    8.6116  -20.9427   16.0161 N   0  0  0  0  0  0  0  0  0  0  0  0
    9.8170  -21.3590   15.5927 C   0  0  0  0  0  0  0  0  0  0  0  0
   10.6846  -21.2212   16.6107 N   0  0  0  0  0  0  0  0  0  0  0  0
   11.3485  -18.6210   20.4863 C   0  0  0  0  0  0  0  0  0  0  0  0
   12.4986  -18.9112   20.8975 O   0  0  0  0  0  0  0  0  0  0  0  0
   10.0824  -16.4832   23.3130 C   0  0  0  0  0  0  0  0  0  0  0  0
   10.9111  -17.6003   22.7264 C   0  0  2  0  0  0  0  0  0  0  0  0
   10.4858  -17.9714   21.4077 N   0  0  0  0  0  0  0  0  0  0  0  0
   11.0470  -18.7465   23.6372 C   0  0  0  0  0  0  0  0  0  0  0  0
   10.3196  -19.7461   23.4791 O   0  0  0  0  0  0  0  0  0  0  0  0
   14.3910  -19.2943   25.5161 O   0  0  0  0  0  0  0  0  0  0  0  0
   13.5479  -20.4009   25.3447 C   0  0  0  0  0  0  0  0  0  0  0  0
   12.1232  -19.8989   25.5203 C   0  0  2  0  0  0  0  0  0  0  0  0
   11.9844  -18.7280   24.6807 N   0  0  0  0  0  0  0  0  0  0  0  0
   11.8708  -19.5048   26.9203 C   0  0  0  0  0  0  0  0  0  0  0  0
   11.6118  -18.3096   27.1839 O   0  0  0  0  0  0  0  0  0  0  0  0
   11.9095  -20.4132   27.9644 O   0  0  0  0  0  0  0  0  0  0  0  0
  2  1  1  6
  2  9  1  0
  2  3  1  0
  3  4  1  0
  4  5  2  0
  4  8  1  0
  5  6  1  0
  6  7  1  0
  8  7  2  0
  9 10  2  0
  9 13  1  0
 12 11  1  1
 12 14  1  0
 13 12  1  0
 14 15  2  0
 14 19  1  0
 16 17  1  0
 18 20  1  0
 18 17  1  1
 19 18  1  0
 20 22  1  0
 21 20  2  0
M  END
$$$$
