HAS.pdb
     RDKit          3D

 22 22  0  0  1  0  0  0  0  0999 V2000
   10.0275  -15.6253   15.6126 N   0  0  0  0  0  0  0  0  0  0  0  0
    8.7816  -15.3344   16.2663 C   0  0  1  0  0  0  0  0  0  0  0  0
    7.8089  -16.4734   16.1671 C   0  0  0  0  0  0  0  0  0  0  0  0
    7.3804  -16.6196   14.7427 C   0  0  0  0  0  0  0  0  0  0  0  0
    6.8893  -15.6198   13.9248 C   0  0  0  0  0  0  0  0  0  0  0  0
    6.6259  -16.1659   12.7308 N   0  0  0  0  0  0  0  0  0  0  0  0
    6.9391  -17.4714   12.7858 C   0  0  0  0  0  0  0  0  0  0  0  0
    7.3992  -17.7360   14.0213 N   0  0  0  0  0  0  0  0  0  0  0  0
    9.0131  -15.0301   17.7187 C   0  0  0  0  0  0  0  0  0  0  0  0
    9.8107  -15.7058   18.4139 O   0  0  0  0  0  0  0  0  0  0  0  0
    7.7107  -12.5019   20.2358 C   0  0  0  0  0  0  0  0  0  0  0  0
    8.5822  -13.6335   19.7473 C   0  0  2  0  0  0  0  0  0  0  0  0
    8.3407  -13.9645   18.3726 N   0  0  0  0  0  0  0  0  0  0  0  0
    8.5518  -14.8012   20.6401 C   0  0  0  0  0  0  0  0  0  0  0  0
    7.6308  -15.6338   20.5311 O   0  0  0  0  0  0  0  0  0  0  0  0
   11.7526  -16.4433   22.0096 O   0  0  0  0  0  0  0  0  0  0  0  0
   10.5291  -17.1271   21.9935 C   0  0  0  0  0  0  0  0  0  0  0  0
    9.4718  -16.1469   22.4772 C   0  0  2  0  0  0  0  0  0  0  0  0
    9.5460  -14.9889   21.6119 N   0  0  0  0  0  0  0  0  0  0  0  0
    9.7455  -15.7158   23.8623 C   0  0  0  0  0  0  0  0  0  0  0  0
    9.9975  -14.5120   24.0915 O   0  0  0  0  0  0  0  0  0  0  0  0
    9.7346  -16.5982   24.9290 O   0  0  0  0  0  0  0  0  0  0  0  0
  2  1  1  1
  2  9  1  0
  2  3  1  0
  3  4  1  0
  4  5  2  0
  4  8  1  0
  5  6  1  0
  6  7  1  0
  8  7  2  0
  9 10  2  0
  9 13  1  0
 12 11  1  1
 12 14  1  0
 13 12  1  0
 14 15  2  0
 14 19  1  0
 16 17  1  0
 18 20  1  0
 18 17  1  6
 19 18  1  0
 20 22  1  0
 21 20  2  0
M  END
$$$$
