HAS.pdb
     RDKit          3D

 22 22  0  0  1  0  0  0  0  0999 V2000
    9.4675  -16.2025   15.5645 N   0  0  0  0  0  0  0  0  0  0  0  0
    8.3388  -16.1237   16.4500 C   0  0  1  0  0  0  0  0  0  0  0  0
    7.6866  -17.4595   16.6588 C   0  0  0  0  0  0  0  0  0  0  0  0
    7.0851  -17.9101   15.3669 C   0  0  0  0  0  0  0  0  0  0  0  0
    5.9170  -17.4418   14.7959 C   0  0  0  0  0  0  0  0  0  0  0  0
    5.7343  -18.1036   13.6462 N   0  0  0  0  0  0  0  0  0  0  0  0
    6.7528  -18.9659   13.4895 C   0  0  0  0  0  0  0  0  0  0  0  0
    7.5717  -18.8376   14.5483 N   0  0  0  0  0  0  0  0  0  0  0  0
    8.7611  -15.5851   17.7869 C   0  0  0  0  0  0  0  0  0  0  0  0
    9.7497  -16.0534   18.4029 O   0  0  0  0  0  0  0  0  0  0  0  0
    7.5711  -12.8589   20.1484 C   0  0  0  0  0  0  0  0  0  0  0  0
    8.4325  -14.0170   19.7064 C   0  0  2  0  0  0  0  0  0  0  0  0
    8.0620  -14.5216   18.4157 N   0  0  0  0  0  0  0  0  0  0  0  0
    8.5442  -15.0662   20.7303 C   0  0  0  0  0  0  0  0  0  0  0  0
    7.6897  -15.9723   20.7769 O   0  0  0  0  0  0  0  0  0  0  0  0
   11.9834  -15.5373   22.6805 O   0  0  0  0  0  0  0  0  0  0  0  0
   11.1563  -16.6546   22.5009 C   0  0  0  0  0  0  0  0  0  0  0  0
    9.7217  -16.1578   22.5889 C   0  0  2  0  0  0  0  0  0  0  0  0
    9.5999  -15.0594   21.6541 N   0  0  0  0  0  0  0  0  0  0  0  0
    9.4186  -15.6564   23.9438 C   0  0  0  0  0  0  0  0  0  0  0  0
    9.4589  -16.4461   24.9133 O   0  0  0  0  0  0  0  0  0  0  0  0
    9.0883  -14.3343   24.1882 O   0  0  0  0  0  0  0  0  0  0  0  0
  2  1  1  6
  2  9  1  0
  2  3  1  0
  3  4  1  0
  4  5  2  0
  4  8  1  0
  5  6  1  0
  6  7  1  0
  8  7  2  0
  9 10  2  0
  9 13  1  0
 12 11  1  1
 12 14  1  0
 13 12  1  0
 14 15  2  0
 14 19  1  0
 16 17  1  0
 18 20  1  0
 18 17  1  1
 19 18  1  0
 20 22  1  0
 21 20  2  0
M  END
$$$$
