HAS.pdb
     RDKit          3D

 22 22  0  0  1  0  0  0  0  0999 V2000
    9.6178  -14.9853   14.6793 N   0  0  0  0  0  0  0  0  0  0  0  0
    8.9656  -15.7065   15.7370 C   0  0  1  0  0  0  0  0  0  0  0  0
    9.3841  -17.1473   15.7840 C   0  0  0  0  0  0  0  0  0  0  0  0
    8.8842  -17.8355   14.5551 C   0  0  0  0  0  0  0  0  0  0  0  0
    7.6013  -18.3005   14.3371 C   0  0  0  0  0  0  0  0  0  0  0  0
    7.5714  -18.8502   13.1164 N   0  0  0  0  0  0  0  0  0  0  0  0
    8.7957  -18.7390   12.5737 C   0  0  0  0  0  0  0  0  0  0  0  0
    9.5890  -18.1169   13.4635 N   0  0  0  0  0  0  0  0  0  0  0  0
    9.2737  -15.0768   17.0651 C   0  0  0  0  0  0  0  0  0  0  0  0
   10.4537  -14.9423   17.4720 O   0  0  0  0  0  0  0  0  0  0  0  0
    7.3141  -13.3872   19.8349 C   0  0  0  0  0  0  0  0  0  0  0  0
    8.5179  -14.0597   19.2205 C   0  0  2  0  0  0  0  0  0  0  0  0
    8.2451  -14.6045   17.9219 N   0  0  0  0  0  0  0  0  0  0  0  0
    9.1591  -15.0202   20.1305 C   0  0  0  0  0  0  0  0  0  0  0  0
    9.0031  -16.2424   19.9427 O   0  0  0  0  0  0  0  0  0  0  0  0
   12.4618  -15.7610   23.4811 O   0  0  0  0  0  0  0  0  0  0  0  0
   11.7003  -14.7997   22.8023 C   0  0  0  0  0  0  0  0  0  0  0  0
   10.6404  -15.5546   22.0154 C   0  0  2  0  0  0  0  0  0  0  0  0
    9.9433  -14.5776   21.2062 N   0  0  0  0  0  0  0  0  0  0  0  0
    9.6660  -16.1946   22.9210 C   0  0  0  0  0  0  0  0  0  0  0  0
    8.5621  -15.6418   23.1237 O   0  0  0  0  0  0  0  0  0  0  0  0
    9.9266  -17.3938   23.5619 O   0  0  0  0  0  0  0  0  0  0  0  0
  2  1  1  6
  2  9  1  0
  2  3  1  0
  3  4  1  0
  4  5  2  0
  4  8  1  0
  5  6  1  0
  6  7  1  0
  8  7  2  0
  9 10  2  0
  9 13  1  0
 12 11  1  1
 12 14  1  0
 13 12  1  0
 14 15  2  0
 14 19  1  0
 16 17  1  0
 18 20  1  0
 18 17  1  1
 19 18  1  0
 20 22  1  0
 21 20  2  0
M  END
$$$$
