HAS.pdb
     RDKit          3D

 22 22  0  0  1  0  0  0  0  0999 V2000
   10.5614  -14.0528   19.5459 N   0  0  0  0  0  0  0  0  0  0  0  0
    9.2771  -14.0220   20.1891 C   0  0  1  0  0  0  0  0  0  0  0  0
    8.2845  -14.9267   19.5188 C   0  0  0  0  0  0  0  0  0  0  0  0
    8.1645  -14.5317   18.0823 C   0  0  0  0  0  0  0  0  0  0  0  0
    7.9715  -13.2532   17.5943 C   0  0  0  0  0  0  0  0  0  0  0  0
    7.9195  -13.3330   16.2586 N   0  0  0  0  0  0  0  0  0  0  0  0
    8.0744  -14.6205   15.9066 C   0  0  0  0  0  0  0  0  0  0  0  0
    8.2232  -15.3430   17.0309 N   0  0  0  0  0  0  0  0  0  0  0  0
    9.4039  -14.4356   21.6273 C   0  0  0  0  0  0  0  0  0  0  0  0
   10.3990  -15.0787   22.0421 O   0  0  0  0  0  0  0  0  0  0  0  0
    7.4560  -13.8215   24.8248 C   0  0  0  0  0  0  0  0  0  0  0  0
    8.5548  -14.4181   23.9790 C   0  0  2  0  0  0  0  0  0  0  0  0
    8.4044  -14.1184   22.5842 N   0  0  0  0  0  0  0  0  0  0  0  0
    8.7657  -15.8483   24.2465 C   0  0  0  0  0  0  0  0  0  0  0  0
    8.0271  -16.6907   23.7005 O   0  0  0  0  0  0  0  0  0  0  0  0
   11.4292  -17.9015   23.6457 O   0  0  0  0  0  0  0  0  0  0  0  0
   11.3113  -18.1069   25.0272 C   0  0  0  0  0  0  0  0  0  0  0  0
    9.9027  -17.6851   25.4153 C   0  0  2  0  0  0  0  0  0  0  0  0
    9.7872  -16.2753   25.1080 N   0  0  0  0  0  0  0  0  0  0  0  0
    9.6758  -17.8699   26.8622 C   0  0  0  0  0  0  0  0  0  0  0  0
    9.4804  -16.8678   27.5853 O   0  0  0  0  0  0  0  0  0  0  0  0
    9.6705  -19.1197   27.4578 O   0  0  0  0  0  0  0  0  0  0  0  0
  2  1  1  6
  2  9  1  0
  2  3  1  0
  3  4  1  0
  4  5  2  0
  4  8  1  0
  5  6  1  0
  6  7  1  0
  8  7  2  0
  9 10  2  0
  9 13  1  0
 12 11  1  1
 12 14  1  0
 13 12  1  0
 14 15  2  0
 14 19  1  0
 16 17  1  0
 18 20  1  0
 18 17  1  1
 19 18  1  0
 20 22  1  0
 21 20  2  0
M  END
$$$$
