HAS.pdb
     RDKit          3D

 22 22  0  0  1  0  0  0  0  0999 V2000
    7.3609  -17.1573   19.0548 N   0  0  0  0  0  0  0  0  0  0  0  0
    8.5704  -16.7714   19.7273 C   0  0  1  0  0  0  0  0  0  0  0  0
    8.3565  -15.6171   20.6628 C   0  0  0  0  0  0  0  0  0  0  0  0
    8.0242  -14.4007   19.8606 C   0  0  0  0  0  0  0  0  0  0  0  0
    7.9163  -14.3270   18.4848 C   0  0  0  0  0  0  0  0  0  0  0  0
    7.6054  -13.0631   18.1699 N   0  0  0  0  0  0  0  0  0  0  0  0
    7.5180  -12.3542   19.3080 C   0  0  0  0  0  0  0  0  0  0  0  0
    7.7762  -13.1836   20.3343 N   0  0  0  0  0  0  0  0  0  0  0  0
    9.1219  -17.9263   20.5132 C   0  0  0  0  0  0  0  0  0  0  0  0
    8.3996  -18.5996   21.2884 O   0  0  0  0  0  0  0  0  0  0  0  0
   11.9014  -20.2975   20.1874 C   0  0  0  0  0  0  0  0  0  0  0  0
   11.0044  -19.4719   21.0776 C   0  0  2  0  0  0  0  0  0  0  0  0
   10.4851  -18.3101   20.4157 N   0  0  0  0  0  0  0  0  0  0  0  0
   11.6153  -19.1736   22.3812 C   0  0  0  0  0  0  0  0  0  0  0  0
   12.1798  -18.0766   22.5583 O   0  0  0  0  0  0  0  0  0  0  0  0
   10.6359  -21.3254   25.5021 O   0  0  0  0  0  0  0  0  0  0  0  0
   11.1876  -20.0671   25.7795 C   0  0  0  0  0  0  0  0  0  0  0  0
   12.2057  -19.7831   24.6861 C   0  0  2  0  0  0  0  0  0  0  0  0
   11.5705  -20.1080   23.4267 N   0  0  0  0  0  0  0  0  0  0  0  0
   13.4004  -20.6359   24.8426 C   0  0  0  0  0  0  0  0  0  0  0  0
   13.6291  -21.5319   23.9999 O   0  0  0  0  0  0  0  0  0  0  0  0
   14.2874  -20.4832   25.8946 O   0  0  0  0  0  0  0  0  0  0  0  0
  2  1  1  1
  2  9  1  0
  2  3  1  0
  3  4  1  0
  4  5  2  0
  4  8  1  0
  5  6  1  0
  6  7  1  0
  8  7  2  0
  9 10  2  0
  9 13  1  0
 12 11  1  6
 12 14  1  0
 13 12  1  0
 14 15  2  0
 14 19  1  0
 16 17  1  0
 18 20  1  0
 18 17  1  1
 19 18  1  0
 20 22  1  0
 21 20  2  0
M  END
$$$$
