HAS.pdb
     RDKit          3D

 22 22  0  0  1  0  0  0  0  0999 V2000
    8.3416  -17.1541   17.2112 N   0  0  0  0  0  0  0  0  0  0  0  0
    9.3979  -16.3283   17.7274 C   0  0  1  0  0  0  0  0  0  0  0  0
    8.9484  -14.9168   17.9696 C   0  0  0  0  0  0  0  0  0  0  0  0
    8.5056  -14.3218   16.6721 C   0  0  0  0  0  0  0  0  0  0  0  0
    9.2906  -14.1076   15.5551 C   0  0  0  0  0  0  0  0  0  0  0  0
    8.5133  -13.5590   14.6127 N   0  0  0  0  0  0  0  0  0  0  0  0
    7.2730  -13.4278   15.1128 C   0  0  0  0  0  0  0  0  0  0  0  0
    7.2817  -13.8979   16.3726 N   0  0  0  0  0  0  0  0  0  0  0  0
    9.9169  -16.8919   19.0191 C   0  0  0  0  0  0  0  0  0  0  0  0
    9.2016  -16.9430   20.0496 O   0  0  0  0  0  0  0  0  0  0  0  0
   12.6831  -19.1120   20.1198 C   0  0  0  0  0  0  0  0  0  0  0  0
   11.7445  -17.9535   20.3550 C   0  0  2  0  0  0  0  0  0  0  0  0
   11.2400  -17.3931   19.1347 N   0  0  0  0  0  0  0  0  0  0  0  0
   12.3017  -16.9466   21.2701 C   0  0  0  0  0  0  0  0  0  0  0  0
   12.8822  -15.9472   20.8036 O   0  0  0  0  0  0  0  0  0  0  0  0
   11.7932  -17.3720   25.2376 O   0  0  0  0  0  0  0  0  0  0  0  0
   11.8766  -16.0500   24.7791 C   0  0  0  0  0  0  0  0  0  0  0  0
   12.7356  -16.0737   23.5245 C   0  0  2  0  0  0  0  0  0  0  0  0
   12.1877  -17.0974   22.6601 N   0  0  0  0  0  0  0  0  0  0  0  0
   14.1315  -16.4296   23.8467 C   0  0  0  0  0  0  0  0  0  0  0  0
   14.5674  -17.5569   23.5235 O   0  0  0  0  0  0  0  0  0  0  0  0
   14.9870  -15.5579   24.4987 O   0  0  0  0  0  0  0  0  0  0  0  0
  2  1  1  1
  2  9  1  0
  2  3  1  0
  3  4  1  0
  4  5  2  0
  4  8  1  0
  5  6  1  0
  6  7  1  0
  8  7  2  0
  9 10  2  0
  9 13  1  0
 12 11  1  6
 12 14  1  0
 13 12  1  0
 14 15  2  0
 14 19  1  0
 16 17  1  0
 18 20  1  0
 18 17  1  1
 19 18  1  0
 20 22  1  0
 21 20  2  0
M  END
$$$$
