HAS.pdb
     RDKit          3D

 22 22  0  0  1  0  0  0  0  0999 V2000
   10.4186  -14.4915   19.9859 N   0  0  0  0  0  0  0  0  0  0  0  0
    9.1799  -14.3292   20.6954 C   0  0  1  0  0  0  0  0  0  0  0  0
    8.0652  -15.1250   20.0811 C   0  0  0  0  0  0  0  0  0  0  0  0
    7.8520  -14.6542   18.6787 C   0  0  0  0  0  0  0  0  0  0  0  0
    7.8058  -13.3412   18.2500 C   0  0  0  0  0  0  0  0  0  0  0  0
    7.5972  -13.3540   16.9273 N   0  0  0  0  0  0  0  0  0  0  0  0
    7.5131  -14.6336   16.5259 C   0  0  0  0  0  0  0  0  0  0  0  0
    7.6706  -15.4185   17.6062 N   0  0  0  0  0  0  0  0  0  0  0  0
    9.3384  -14.7564   22.1265 C   0  0  0  0  0  0  0  0  0  0  0  0
   10.2384  -15.5577   22.4784 O   0  0  0  0  0  0  0  0  0  0  0  0
    7.6856  -13.9037   25.4370 C   0  0  0  0  0  0  0  0  0  0  0  0
    8.6628  -14.6108   24.5293 C   0  0  2  0  0  0  0  0  0  0  0  0
    8.4780  -14.2739   23.1473 N   0  0  0  0  0  0  0  0  0  0  0  0
    8.7183  -16.0598   24.7718 C   0  0  0  0  0  0  0  0  0  0  0  0
    7.8518  -16.8005   24.2678 O   0  0  0  0  0  0  0  0  0  0  0  0
   10.9851  -19.9731   25.2486 O   0  0  0  0  0  0  0  0  0  0  0  0
   10.8952  -18.6070   24.9480 C   0  0  0  0  0  0  0  0  0  0  0  0
    9.7494  -18.0491   25.7778 C   0  0  2  0  0  0  0  0  0  0  0  0
    9.7337  -16.6178   25.5627 N   0  0  0  0  0  0  0  0  0  0  0  0
    9.9649  -18.3052   27.2155 C   0  0  0  0  0  0  0  0  0  0  0  0
   10.1576  -17.3403   27.9882 O   0  0  0  0  0  0  0  0  0  0  0  0
    9.9625  -19.5826   27.7493 O   0  0  0  0  0  0  0  0  0  0  0  0
  2  1  1  6
  2  9  1  0
  2  3  1  0
  3  4  1  0
  4  5  2  0
  4  8  1  0
  5  6  1  0
  6  7  1  0
  8  7  2  0
  9 10  2  0
  9 13  1  0
 12 11  1  1
 12 14  1  0
 13 12  1  0
 14 15  2  0
 14 19  1  0
 16 17  1  0
 18 20  1  0
 18 17  1  6
 19 18  1  0
 20 22  1  0
 21 20  2  0
M  END
$$$$
