RSL.pdb
     RDKit          3D

 26 25  0  0  1  0  0  0  0  0999 V2000
    6.6047  -12.9848   17.9539 N   0  0  0  0  0  0  0  0  0  0  0  0
    7.7857  -13.3395   17.2479 C   0  0  0  0  0  0  0  0  0  0  0  0
    7.6760  -13.7710   16.0266 N   0  0  0  0  0  0  0  0  0  0  0  0
    9.0918  -13.2524   17.7951 N   0  0  0  0  0  0  0  0  0  0  0  0
    9.3357  -13.5364   19.1932 C   0  0  0  0  0  0  0  0  0  0  0  0
   10.3798  -14.6255   19.3040 C   0  0  0  0  0  0  0  0  0  0  0  0
   10.8690  -14.7956   20.7114 C   0  0  0  0  0  0  0  0  0  0  0  0
   10.3725  -16.1574   21.2034 C   0  0  2  0  0  0  0  0  0  0  0  0
    9.6578  -16.8068   20.1474 N   0  0  0  0  0  0  0  0  0  0  0  0
    9.5660  -15.9055   22.4206 C   0  0  0  0  0  0  0  0  0  0  0  0
    9.7254  -14.7964   22.9891 O   0  0  0  0  0  0  0  0  0  0  0  0
    8.4568  -14.1298   15.4621 O   0  0  0  0  0  0  0  0  0  0  0  0
    7.7630  -18.9252   24.3714 C   0  0  0  0  0  0  0  0  0  0  0  0
    7.0632  -17.7219   24.5511 C   0  0  1  0  0  0  0  0  0  0  0  0
    8.0435  -16.6115   24.2224 N   0  0  0  0  0  0  0  0  0  0  0  0
    8.6612  -16.8555   22.9257 C   0  0  0  0  0  0  0  0  0  0  0  0
    9.0993  -16.5167   25.2760 O   0  0  0  0  0  0  0  0  0  0  0  0
    9.9923  -15.6241   25.2226 C   0  0  0  0  0  0  0  0  0  0  0  0
    9.3029  -13.8185   29.5797 C   0  0  1  0  0  0  0  0  0  0  0  0
   10.0748  -14.9072   28.8987 C   0  0  0  0  0  0  0  0  0  0  0  0
   11.3100  -14.3891   28.2192 C   0  0  0  0  0  0  0  0  0  0  0  0
    9.3169  -15.8787   28.1254 C   0  0  2  0  0  0  0  0  0  0  0  0
    9.9029  -17.1191   27.6041 N   0  0  0  0  0  0  0  0  0  0  0  0
    9.1351  -17.4216   26.3683 C   0  0  0  0  0  0  0  0  0  0  0  0
    9.8058  -18.3324   28.4283 O   0  0  0  0  0  0  0  0  0  0  0  0
   10.8310  -18.8003   28.9699 O   0  0  0  0  0  0  0  0  0  0  0  0
  1  2  1  0
  2  3  2  0
  4  2  1  0
  5  4  1  0
  6  5  1  0
  7  8  1  0
  7  6  1  0
  8  9  1  6
 10 15  1  0
 10  8  1  0
 11 10  2  0
 14 13  1  6
 13 12  1  0
 14 15  1  0
 16 17  2  0
 16 14  1  0
 19 18  1  1
 19 21  1  0
 20 19  1  0
 22 21  1  6
 22 23  1  0
 23 16  1  0
 24 22  1  0
 25 24  2  0
 26 24  1  0
M  END
$$$$
