RSL.pdb
     RDKit          3D

 26 25  0  0  1  0  0  0  0  0999 V2000
    8.3505  -11.8328   19.2169 N   0  0  0  0  0  0  0  0  0  0  0  0
    9.3210  -12.8544   19.4000 C   0  0  0  0  0  0  0  0  0  0  0  0
   10.5325  -12.5124   19.7242 N   0  0  0  0  0  0  0  0  0  0  0  0
    9.0511  -14.2392   19.2502 N   0  0  0  0  0  0  0  0  0  0  0  0
    8.5119  -15.0170   20.3452 C   0  0  0  0  0  0  0  0  0  0  0  0
    7.0161  -14.8028   20.4172 C   0  0  0  0  0  0  0  0  0  0  0  0
    6.2520  -15.9904   19.9124 C   0  0  0  0  0  0  0  0  0  0  0  0
    6.9627  -17.2424   20.4324 C   0  0  2  0  0  0  0  0  0  0  0  0
    6.3362  -18.4032   19.8778 N   0  0  0  0  0  0  0  0  0  0  0  0
    6.9214  -17.1754   21.9120 C   0  0  0  0  0  0  0  0  0  0  0  0
    5.7983  -16.9830   22.4416 O   0  0  0  0  0  0  0  0  0  0  0  0
   11.3187  -13.1683   19.8179 O   0  0  0  0  0  0  0  0  0  0  0  0
    9.8613  -18.6035   24.3373 C   0  0  0  0  0  0  0  0  0  0  0  0
    8.5242  -18.5422   24.7597 C   0  0  1  0  0  0  0  0  0  0  0  0
    7.9469  -17.2792   24.1482 N   0  0  0  0  0  0  0  0  0  0  0  0
    8.0782  -17.3190   22.6978 C   0  0  0  0  0  0  0  0  0  0  0  0
    8.6437  -16.0716   24.6864 O   0  0  0  0  0  0  0  0  0  0  0  0
    9.6745  -15.6096   24.1197 C   0  0  0  0  0  0  0  0  0  0  0  0
    7.5245  -11.9515   24.7625 C   0  0  2  0  0  0  0  0  0  0  0  0
    6.9432  -12.6917   25.9283 C   0  0  0  0  0  0  0  0  0  0  0  0
    5.8164  -11.9386   26.5756 C   0  0  0  0  0  0  0  0  0  0  0  0
    7.8758  -13.3094   26.8583 C   0  0  2  0  0  0  0  0  0  0  0  0
    8.9129  -14.2593   26.4391 N   0  0  0  0  0  0  0  0  0  0  0  0
    8.1738  -15.4045   25.8472 C   0  0  0  0  0  0  0  0  0  0  0  0
    9.7751  -14.8470   27.4745 O   0  0  0  0  0  0  0  0  0  0  0  0
   10.6018  -14.1284   28.0774 O   0  0  0  0  0  0  0  0  0  0  0  0
  1  2  1  0
  2  3  2  0
  4  2  1  0
  5  4  1  0
  6  5  1  0
  7  8  1  0
  7  6  1  0
  8  9  1  6
 10 15  1  0
 10  8  1  0
 11 10  2  0
 14 13  1  6
 13 12  1  0
 14 15  1  0
 16 17  2  0
 16 14  1  0
 19 18  1  6
 19 21  1  0
 20 19  1  0
 22 21  1  6
 22 23  1  0
 23 16  1  0
 24 22  1  0
 25 24  2  0
 26 24  1  0
M  END
$$$$
