RSL.pdb
     RDKit          3D

 26 25  0  0  1  0  0  0  0  0999 V2000
    8.6991  -17.3572   14.4094 N   0  0  0  0  0  0  0  0  0  0  0  0
    7.7084  -17.8049   15.3243 C   0  0  0  0  0  0  0  0  0  0  0  0
    6.4807  -17.9119   14.9106 N   0  0  0  0  0  0  0  0  0  0  0  0
    7.9746  -18.1467   16.6753 N   0  0  0  0  0  0  0  0  0  0  0  0
    7.9030  -17.1525   17.7247 C   0  0  0  0  0  0  0  0  0  0  0  0
    6.5923  -17.3051   18.4646 C   0  0  0  0  0  0  0  0  0  0  0  0
    6.7939  -17.4463   19.9440 C   0  0  0  0  0  0  0  0  0  0  0  0
    7.8068  -16.3800   20.3684 C   0  0  2  0  0  0  0  0  0  0  0  0
    9.0068  -16.5416   19.6057 N   0  0  0  0  0  0  0  0  0  0  0  0
    7.9907  -16.5217   21.8318 C   0  0  0  0  0  0  0  0  0  0  0  0
    6.9838  -16.3147   22.5542 O   0  0  0  0  0  0  0  0  0  0  0  0
    5.7094  -18.3028   15.4669 O   0  0  0  0  0  0  0  0  0  0  0  0
   11.5979  -17.4042   23.5483 C   0  0  0  0  0  0  0  0  0  0  0  0
   10.4839  -18.0067   24.1533 C   0  0  1  0  0  0  0  0  0  0  0  0
    9.2976  -17.1170   23.8319 N   0  0  0  0  0  0  0  0  0  0  0  0
    9.2293  -16.8709   22.3976 C   0  0  0  0  0  0  0  0  0  0  0  0
    9.4042  -15.8182   24.5637 O   0  0  0  0  0  0  0  0  0  0  0  0
    9.7209  -14.7552   23.9579 C   0  0  0  0  0  0  0  0  0  0  0  0
    8.6431  -11.6391   25.6422 C   0  0  2  0  0  0  0  0  0  0  0  0
    7.6295  -12.7303   25.8056 C   0  0  0  0  0  0  0  0  0  0  0  0
    6.2401  -12.1922   25.9953 C   0  0  0  0  0  0  0  0  0  0  0  0
    7.9777  -13.8384   26.6814 C   0  0  2  0  0  0  0  0  0  0  0  0
    9.3090  -14.4559   26.6999 N   0  0  0  0  0  0  0  0  0  0  0  0
    9.1542  -15.7339   25.9578 C   0  0  0  0  0  0  0  0  0  0  0  0
    9.8827  -14.8293   28.0008 O   0  0  0  0  0  0  0  0  0  0  0  0
    9.7229  -15.9884   28.4416 O   0  0  0  0  0  0  0  0  0  0  0  0
  1  2  1  0
  2  3  2  0
  4  2  1  0
  5  4  1  0
  6  5  1  0
  7  8  1  0
  7  6  1  0
  8  9  1  6
 10 15  1  0
 10  8  1  0
 11 10  2  0
 14 13  1  6
 13 12  1  0
 14 15  1  0
 16 17  2  0
 16 14  1  0
 19 18  1  6
 19 21  1  0
 20 19  1  0
 22 21  1  6
 22 23  1  0
 23 16  1  0
 24 22  1  0
 25 24  2  0
 26 24  1  0
M  END
$$$$
