RSL.pdb
     RDKit          3D

 26 25  0  0  1  0  0  0  0  0999 V2000
   10.6384  -12.7201   18.7382 N   0  0  0  0  0  0  0  0  0  0  0  0
    9.2622  -12.4441   18.5178 C   0  0  0  0  0  0  0  0  0  0  0  0
    8.7456  -11.3800   19.0569 N   0  0  0  0  0  0  0  0  0  0  0  0
    8.4050  -13.2635   17.7388 N   0  0  0  0  0  0  0  0  0  0  0  0
    8.2087  -14.6600   18.0645 C   0  0  0  0  0  0  0  0  0  0  0  0
    7.0185  -14.7918   18.9889 C   0  0  0  0  0  0  0  0  0  0  0  0
    7.4254  -14.8070   20.4323 C   0  0  0  0  0  0  0  0  0  0  0  0
    8.1150  -16.1479   20.6958 C   0  0  2  0  0  0  0  0  0  0  0  0
    7.5189  -17.1534   19.8704 N   0  0  0  0  0  0  0  0  0  0  0  0
    8.0044  -16.4085   22.1502 C   0  0  0  0  0  0  0  0  0  0  0  0
    6.9028  -16.1434   22.6933 O   0  0  0  0  0  0  0  0  0  0  0  0
    7.7722  -11.0746   18.9286 O   0  0  0  0  0  0  0  0  0  0  0  0
   10.9122  -18.3116   24.2386 C   0  0  0  0  0  0  0  0  0  0  0  0
    9.6110  -18.4164   24.7542 C   0  0  1  0  0  0  0  0  0  0  0  0
    8.8851  -17.1550   24.3250 N   0  0  0  0  0  0  0  0  0  0  0  0
    9.0751  -16.9279   22.8985 C   0  0  0  0  0  0  0  0  0  0  0  0
    9.3844  -15.9760   25.0960 O   0  0  0  0  0  0  0  0  0  0  0  0
   10.3265  -15.2605   24.6514 C   0  0  0  0  0  0  0  0  0  0  0  0
    8.2609  -12.0218   25.5764 C   0  0  2  0  0  0  0  0  0  0  0  0
    7.5077  -12.9459   26.4838 C   0  0  0  0  0  0  0  0  0  0  0  0
    6.2221  -12.3413   26.9715 C   0  0  0  0  0  0  0  0  0  0  0  0
    8.2720  -13.6523   27.5002 C   0  0  2  0  0  0  0  0  0  0  0  0
    9.3997  -14.5364   27.1830 N   0  0  0  0  0  0  0  0  0  0  0  0
    8.8200  -15.6204   26.3483 C   0  0  0  0  0  0  0  0  0  0  0  0
   10.0779  -15.2214   28.2928 O   0  0  0  0  0  0  0  0  0  0  0  0
   10.8272  -14.5755   29.0576 O   0  0  0  0  0  0  0  0  0  0  0  0
  1  2  1  0
  2  3  2  0
  4  2  1  0
  5  4  1  0
  6  5  1  0
  7  8  1  0
  7  6  1  0
  8  9  1  6
 10 15  1  0
 10  8  1  0
 11 10  2  0
 14 13  1  6
 13 12  1  0
 14 15  1  0
 16 17  2  0
 16 14  1  0
 19 18  1  6
 19 21  1  0
 20 19  1  0
 22 21  1  6
 22 23  1  0
 23 16  1  0
 24 22  1  0
 25 24  2  0
 26 24  1  0
M  END
$$$$
