RSL.pdb
     RDKit          3D

 26 25  0  0  1  0  0  0  0  0999 V2000
    7.6452  -13.6805   16.0625 N   0  0  0  0  0  0  0  0  0  0  0  0
    8.9195  -14.0371   16.5799 C   0  0  0  0  0  0  0  0  0  0  0  0
    9.6280  -14.9188   15.9393 N   0  0  0  0  0  0  0  0  0  0  0  0
    9.4757  -13.4873   17.7638 N   0  0  0  0  0  0  0  0  0  0  0  0
    8.6294  -12.9271   18.7956 C   0  0  0  0  0  0  0  0  0  0  0  0
    7.3463  -13.7247   18.8728 C   0  0  0  0  0  0  0  0  0  0  0  0
    7.0912  -14.2488   20.2547 C   0  0  0  0  0  0  0  0  0  0  0  0
    7.5131  -15.7201   20.2675 C   0  0  2  0  0  0  0  0  0  0  0  0
    6.6044  -16.4769   19.4618 N   0  0  0  0  0  0  0  0  0  0  0  0
    7.5631  -16.1394   21.6878 C   0  0  0  0  0  0  0  0  0  0  0  0
    6.4627  -16.2942   22.2742 O   0  0  0  0  0  0  0  0  0  0  0  0
   10.5820  -15.2012   16.1987 O   0  0  0  0  0  0  0  0  0  0  0  0
   10.8298  -17.7578   23.3054 C   0  0  0  0  0  0  0  0  0  0  0  0
    9.5980  -18.0496   23.9116 C   0  0  1  0  0  0  0  0  0  0  0  0
    8.7416  -16.8084   23.7436 N   0  0  0  0  0  0  0  0  0  0  0  0
    8.7790  -16.3568   22.3590 C   0  0  0  0  0  0  0  0  0  0  0  0
    9.2203  -15.7166   24.6450 O   0  0  0  0  0  0  0  0  0  0  0  0
   10.1716  -14.9595   24.3001 C   0  0  0  0  0  0  0  0  0  0  0  0
    7.9084  -11.9453   25.4469 C   0  0  2  0  0  0  0  0  0  0  0  0
    7.1865  -12.9086   26.3391 C   0  0  0  0  0  0  0  0  0  0  0  0
    5.9419  -12.3119   26.9314 C   0  0  0  0  0  0  0  0  0  0  0  0
    7.9901  -13.6871   27.2688 C   0  0  2  0  0  0  0  0  0  0  0  0
    9.1581  -14.4727   26.8535 N   0  0  0  0  0  0  0  0  0  0  0  0
    8.6254  -15.4929   25.9136 C   0  0  0  0  0  0  0  0  0  0  0  0
    9.8841  -15.2328   27.8811 O   0  0  0  0  0  0  0  0  0  0  0  0
    9.7403  -16.4727   27.9555 O   0  0  0  0  0  0  0  0  0  0  0  0
  1  2  1  0
  2  3  2  0
  4  2  1  0
  5  4  1  0
  6  5  1  0
  7  8  1  0
  7  6  1  0
  8  9  1  6
 10 15  1  0
 10  8  1  0
 11 10  2  0
 14 13  1  6
 13 12  1  0
 14 15  1  0
 16 17  2  0
 16 14  1  0
 19 18  1  6
 19 21  1  0
 20 19  1  0
 22 21  1  6
 22 23  1  0
 23 16  1  0
 24 22  1  0
 25 24  2  0
 26 24  1  0
M  END
$$$$
