RSL.pdb
     RDKit          3D

 26 25  0  0  1  0  0  0  0  0999 V2000
    9.3305  -15.5554   16.5867 N   0  0  0  0  0  0  0  0  0  0  0  0
    8.5932  -14.3768   16.2931 C   0  0  0  0  0  0  0  0  0  0  0  0
    8.2489  -14.1477   15.0607 N   0  0  0  0  0  0  0  0  0  0  0  0
    8.2038  -13.4227   17.2683 N   0  0  0  0  0  0  0  0  0  0  0  0
    8.9226  -13.2972   18.5182 C   0  0  0  0  0  0  0  0  0  0  0  0
    7.9471  -13.4273   19.6672 C   0  0  0  0  0  0  0  0  0  0  0  0
    7.3329  -14.7939   19.7327 C   0  0  0  0  0  0  0  0  0  0  0  0
    8.3786  -15.7333   20.3385 C   0  0  2  0  0  0  0  0  0  0  0  0
    8.5376  -16.8718   19.4863 N   0  0  0  0  0  0  0  0  0  0  0  0
    7.9206  -16.0574   21.7098 C   0  0  0  0  0  0  0  0  0  0  0  0
    6.8766  -16.7490   21.8122 O   0  0  0  0  0  0  0  0  0  0  0  0
    7.6730  -13.3532   14.7537 O   0  0  0  0  0  0  0  0  0  0  0  0
   10.5625  -17.6990   23.6052 C   0  0  0  0  0  0  0  0  0  0  0  0
    9.1683  -17.8412   23.6836 C   0  0  1  0  0  0  0  0  0  0  0  0
    8.6241  -16.4687   24.0333 N   0  0  0  0  0  0  0  0  0  0  0  0
    8.6133  -15.6173   22.8512 C   0  0  0  0  0  0  0  0  0  0  0  0
    9.4510  -15.8356   25.1054 O   0  0  0  0  0  0  0  0  0  0  0  0
   10.3093  -16.5069   25.7455 C   0  0  0  0  0  0  0  0  0  0  0  0
    7.8867  -11.5702   25.4468 C   0  0  2  0  0  0  0  0  0  0  0  0
    7.0889  -12.7321   25.9552 C   0  0  0  0  0  0  0  0  0  0  0  0
    5.6704  -12.3530   26.2715 C   0  0  0  0  0  0  0  0  0  0  0  0
    7.7219  -13.5961   26.9396 C   0  0  2  0  0  0  0  0  0  0  0  0
    9.1231  -14.0224   26.8470 N   0  0  0  0  0  0  0  0  0  0  0  0
    9.3019  -14.4648   25.4397 C   0  0  0  0  0  0  0  0  0  0  0  0
    9.5582  -15.1601   27.6699 O   0  0  0  0  0  0  0  0  0  0  0  0
    9.4506  -16.3248   27.2281 O   0  0  0  0  0  0  0  0  0  0  0  0
  1  2  1  0
  2  3  2  0
  4  2  1  0
  5  4  1  0
  6  5  1  0
  7  8  1  0
  7  6  1  0
  8  9  1  6
 10 15  1  0
 10  8  1  0
 11 10  2  0
 14 13  1  6
 13 12  1  0
 14 15  1  0
 16 17  2  0
 16 14  1  0
 19 18  1  6
 19 21  1  0
 20 19  1  0
 22 21  1  6
 22 23  1  0
 23 16  1  0
 24 22  1  0
 25 24  2  0
 26 24  1  0
M  END
$$$$
