RSL.pdb
     RDKit          3D

 26 25  0  0  1  0  0  0  0  0999 V2000
    8.9252  -15.0142   14.1670 N   0  0  0  0  0  0  0  0  0  0  0  0
    8.0219  -14.4890   15.1298 C   0  0  0  0  0  0  0  0  0  0  0  0
    7.8777  -13.1996   15.2112 N   0  0  0  0  0  0  0  0  0  0  0  0
    7.2582  -15.2890   16.0185 N   0  0  0  0  0  0  0  0  0  0  0  0
    7.8943  -16.0440   17.0769 C   0  0  0  0  0  0  0  0  0  0  0  0
    7.6993  -15.3190   18.3903 C   0  0  0  0  0  0  0  0  0  0  0  0
    8.9155  -14.5367   18.7878 C   0  0  0  0  0  0  0  0  0  0  0  0
    9.6347  -15.3371   19.8764 C   0  0  2  0  0  0  0  0  0  0  0  0
    9.9052  -16.6552   19.3897 N   0  0  0  0  0  0  0  0  0  0  0  0
    8.7709  -15.2967   21.0796 C   0  0  0  0  0  0  0  0  0  0  0  0
    8.3100  -14.1759   21.4115 O   0  0  0  0  0  0  0  0  0  0  0  0
    7.2801  -12.7214   15.8976 O   0  0  0  0  0  0  0  0  0  0  0  0
    8.2029  -18.5133   23.5705 C   0  0  0  0  0  0  0  0  0  0  0  0
    7.0807  -17.6880   23.3979 C   0  0  1  0  0  0  0  0  0  0  0  0
    7.6170  -16.3269   22.9954 N   0  0  0  0  0  0  0  0  0  0  0  0
    8.4735  -16.4519   21.8235 C   0  0  0  0  0  0  0  0  0  0  0  0
    8.3857  -15.7136   24.1209 O   0  0  0  0  0  0  0  0  0  0  0  0
    9.6495  -15.7144   24.1209 C   0  0  0  0  0  0  0  0  0  0  0  0
    7.8552  -11.5103   25.2991 C   0  0  2  0  0  0  0  0  0  0  0  0
    6.9526  -12.4327   26.0603 C   0  0  0  0  0  0  0  0  0  0  0  0
    5.8236  -11.7007   26.7278 C   0  0  0  0  0  0  0  0  0  0  0  0
    7.5825  -13.4567   26.8792 C   0  0  2  0  0  0  0  0  0  0  0  0
    8.4851  -14.4762   26.3316 N   0  0  0  0  0  0  0  0  0  0  0  0
    7.7260  -15.1115   25.2233 C   0  0  0  0  0  0  0  0  0  0  0  0
    8.8936  -15.5839   27.2074 O   0  0  0  0  0  0  0  0  0  0  0  0
    8.3324  -16.6966   27.1061 O   0  0  0  0  0  0  0  0  0  0  0  0
  1  2  1  0
  2  3  2  0
  4  2  1  0
  5  4  1  0
  6  5  1  0
  7  8  1  0
  7  6  1  0
  8  9  1  6
 10 15  1  0
 10  8  1  0
 11 10  2  0
 14 13  1  6
 13 12  1  0
 14 15  1  0
 16 17  2  0
 16 14  1  0
 19 18  1  6
 19 21  1  0
 20 19  1  0
 22 21  1  6
 22 23  1  0
 23 16  1  0
 24 22  1  0
 25 24  2  0
 26 24  1  0
M  END
$$$$
