RSL.pdb
     RDKit          3D

 26 25  0  0  1  0  0  0  0  0999 V2000
    9.4291  -13.5833   17.1588 N   0  0  0  0  0  0  0  0  0  0  0  0
    8.8364  -12.6783   18.0800 C   0  0  0  0  0  0  0  0  0  0  0  0
    9.4868  -11.5992   18.3999 N   0  0  0  0  0  0  0  0  0  0  0  0
    7.5665  -12.8777   18.6804 N   0  0  0  0  0  0  0  0  0  0  0  0
    6.8828  -14.1491   18.5755 C   0  0  0  0  0  0  0  0  0  0  0  0
    7.7358  -15.2254   19.2099 C   0  0  0  0  0  0  0  0  0  0  0  0
    7.2615  -15.5811   20.5875 C   0  0  0  0  0  0  0  0  0  0  0  0
    8.4525  -15.4164   21.5347 C   0  0  2  0  0  0  0  0  0  0  0  0
    9.6154  -15.9933   20.9326 N   0  0  0  0  0  0  0  0  0  0  0  0
    8.0635  -16.0340   22.8242 C   0  0  0  0  0  0  0  0  0  0  0  0
    6.9062  -15.7872   23.2468 O   0  0  0  0  0  0  0  0  0  0  0  0
    9.1757  -10.9173   19.1037 O   0  0  0  0  0  0  0  0  0  0  0  0
   10.5608  -18.3788   25.2522 C   0  0  0  0  0  0  0  0  0  0  0  0
    9.2265  -18.7630   25.0472 C   0  0  1  0  0  0  0  0  0  0  0  0
    8.4571  -17.4839   24.7750 N   0  0  0  0  0  0  0  0  0  0  0  0
    8.9396  -16.8594   23.5503 C   0  0  0  0  0  0  0  0  0  0  0  0
    8.6017  -16.5328   25.9188 O   0  0  0  0  0  0  0  0  0  0  0  0
    8.2462  -16.8616   27.0861 C   0  0  0  0  0  0  0  0  0  0  0  0
    5.9973  -12.1547   26.9026 C   0  0  1  0  0  0  0  0  0  0  0  0
    7.3163  -12.6649   26.4080 C   0  0  0  0  0  0  0  0  0  0  0  0
    7.3622  -12.7643   24.9100 C   0  0  0  0  0  0  0  0  0  0  0  0
    7.8998  -13.7969   27.1112 C   0  0  2  0  0  0  0  0  0  0  0  0
    9.2649  -14.2754   26.8636 N   0  0  0  0  0  0  0  0  0  0  0  0
    9.1414  -15.2336   25.7346 C   0  0  0  0  0  0  0  0  0  0  0  0
    9.9435  -15.0210   27.9333 O   0  0  0  0  0  0  0  0  0  0  0  0
    9.8241  -16.2640   27.9977 O   0  0  0  0  0  0  0  0  0  0  0  0
  1  2  1  0
  2  3  2  0
  4  2  1  0
  5  4  1  0
  6  5  1  0
  7  8  1  0
  7  6  1  0
  8  9  1  6
 10 15  1  0
 10  8  1  0
 11 10  2  0
 14 13  1  6
 13 12  1  0
 14 15  1  0
 16 17  2  0
 16 14  1  0
 19 18  1  6
 19 21  1  0
 20 19  1  0
 22 21  1  6
 22 23  1  0
 23 16  1  0
 24 22  1  0
 25 24  2  0
 26 24  1  0
M  END
$$$$
