RSL.pdb
     RDKit          3D

 26 25  0  0  1  0  0  0  0  0999 V2000
    8.8432  -12.2253   17.3022 N   0  0  0  0  0  0  0  0  0  0  0  0
    9.2382  -12.5804   18.6201 C   0  0  0  0  0  0  0  0  0  0  0  0
   10.0893  -11.8198   19.2421 N   0  0  0  0  0  0  0  0  0  0  0  0
    8.7589  -13.7241   19.3094 N   0  0  0  0  0  0  0  0  0  0  0  0
    8.2268  -14.8611   18.5890 C   0  0  0  0  0  0  0  0  0  0  0  0
    6.9135  -15.2754   19.2152 C   0  0  0  0  0  0  0  0  0  0  0  0
    7.0156  -15.4023   20.7061 C   0  0  0  0  0  0  0  0  0  0  0  0
    7.7786  -16.6962   21.0007 C   0  0  2  0  0  0  0  0  0  0  0  0
    7.1752  -17.7730   20.2766 N   0  0  0  0  0  0  0  0  0  0  0  0
    7.7727  -16.8719   22.4719 C   0  0  0  0  0  0  0  0  0  0  0  0
    6.6582  -16.8046   23.0483 O   0  0  0  0  0  0  0  0  0  0  0  0
   10.5015  -12.0338   20.1594 O   0  0  0  0  0  0  0  0  0  0  0  0
   10.9827  -18.2040   24.5741 C   0  0  0  0  0  0  0  0  0  0  0  0
    9.7079  -18.3839   25.1333 C   0  0  1  0  0  0  0  0  0  0  0  0
    8.8677  -17.2165   24.6502 N   0  0  0  0  0  0  0  0  0  0  0  0
    8.9526  -17.1037   23.2002 C   0  0  0  0  0  0  0  0  0  0  0  0
    9.3268  -15.9435   25.2845 O   0  0  0  0  0  0  0  0  0  0  0  0
   10.2762  -15.2747   24.7861 C   0  0  0  0  0  0  0  0  0  0  0  0
    7.8828  -12.0676   25.3977 C   0  0  2  0  0  0  0  0  0  0  0  0
    7.2425  -12.8750   26.4854 C   0  0  0  0  0  0  0  0  0  0  0  0
    5.9923  -12.2300   27.0116 C   0  0  0  0  0  0  0  0  0  0  0  0
    8.1170  -13.4302   27.5068 C   0  0  2  0  0  0  0  0  0  0  0  0
    9.2739  -14.2777   27.1953 N   0  0  0  0  0  0  0  0  0  0  0  0
    8.7149  -15.4436   26.4631 C   0  0  0  0  0  0  0  0  0  0  0  0
   10.0357  -14.8508   28.3143 O   0  0  0  0  0  0  0  0  0  0  0  0
    9.9252  -16.0667   28.5840 O   0  0  0  0  0  0  0  0  0  0  0  0
  1  2  1  0
  2  3  2  0
  4  2  1  0
  5  4  1  0
  6  5  1  0
  7  8  1  0
  7  6  1  0
  8  9  1  6
 10 15  1  0
 10  8  1  0
 11 10  2  0
 14 13  1  6
 13 12  1  0
 14 15  1  0
 16 17  2  0
 16 14  1  0
 19 18  1  6
 19 21  1  0
 20 19  1  0
 22 21  1  6
 22 23  1  0
 23 16  1  0
 24 22  1  0
 25 24  2  0
 26 24  1  0
M  END
$$$$
