RSL.pdb
     RDKit          3D

 26 25  0  0  1  0  0  0  0  0999 V2000
    9.3835  -22.3179   19.8785 N   0  0  0  0  0  0  0  0  0  0  0  0
   10.3214  -22.7480   20.8553 C   0  0  0  0  0  0  0  0  0  0  0  0
   11.2753  -23.5529   20.4919 N   0  0  0  0  0  0  0  0  0  0  0  0
   10.2845  -22.3518   22.2172 N   0  0  0  0  0  0  0  0  0  0  0  0
    9.0701  -21.8353   22.8114 C   0  0  0  0  0  0  0  0  0  0  0  0
    8.8680  -20.4043   22.3641 C   0  0  0  0  0  0  0  0  0  0  0  0
    7.6440  -19.7905   22.9758 C   0  0  0  0  0  0  0  0  0  0  0  0
    6.9671  -18.9493   21.8908 C   0  0  2  0  0  0  0  0  0  0  0  0
    6.8727  -19.7200   20.6889 N   0  0  0  0  0  0  0  0  0  0  0  0
    7.7597  -17.7047   21.7564 C   0  0  0  0  0  0  0  0  0  0  0  0
    8.9681  -17.8316   21.4363 O   0  0  0  0  0  0  0  0  0  0  0  0
   11.9540  -23.9812   21.1345 O   0  0  0  0  0  0  0  0  0  0  0  0
    6.0233  -14.1826   21.3544 C   0  0  0  0  0  0  0  0  0  0  0  0
    7.3588  -14.2389   20.9264 C   0  0  1  0  0  0  0  0  0  0  0  0
    8.0434  -15.2595   21.8164 N   0  0  0  0  0  0  0  0  0  0  0  0
    7.1972  -16.4349   21.9744 C   0  0  0  0  0  0  0  0  0  0  0  0
    8.3434  -14.6681   23.1558 O   0  0  0  0  0  0  0  0  0  0  0  0
    8.3207  -13.4171   23.3335 C   0  0  0  0  0  0  0  0  0  0  0  0
    8.1665  -12.0167   26.4991 C   0  0  2  0  0  0  0  0  0  0  0  0
    7.1658  -12.9778   25.9337 C   0  0  0  0  0  0  0  0  0  0  0  0
    5.7609  -12.6456   26.3485 C   0  0  0  0  0  0  0  0  0  0  0  0
    7.4971  -14.3933   25.9860 C   0  0  2  0  0  0  0  0  0  0  0  0
    8.8212  -14.9188   25.6332 N   0  0  0  0  0  0  0  0  0  0  0  0
    8.6623  -15.4873   24.2695 C   0  0  0  0  0  0  0  0  0  0  0  0
    9.3739  -16.0108   26.4473 O   0  0  0  0  0  0  0  0  0  0  0  0
    9.0479  -17.1935   26.2055 O   0  0  0  0  0  0  0  0  0  0  0  0
  1  2  1  0
  2  3  2  0
  4  2  1  0
  5  4  1  0
  6  5  1  0
  7  8  1  0
  7  6  1  0
  8  9  1  6
 10 15  1  0
 10  8  1  0
 11 10  2  0
 14 13  1  6
 13 12  1  0
 14 15  1  0
 16 17  2  0
 16 14  1  0
 19 18  1  6
 19 21  1  0
 20 19  1  0
 22 21  1  6
 22 23  1  0
 23 16  1  0
 24 22  1  0
 25 24  2  0
 26 24  1  0
M  END
$$$$
