RSL.pdb
     RDKit          3D

 26 25  0  0  1  0  0  0  0  0999 V2000
    9.9951  -14.3554   16.7681 N   0  0  0  0  0  0  0  0  0  0  0  0
    8.7123  -14.3254   16.1580 C   0  0  0  0  0  0  0  0  0  0  0  0
    8.5485  -14.9332   15.0207 N   0  0  0  0  0  0  0  0  0  0  0  0
    7.5854  -13.6678   16.7154 N   0  0  0  0  0  0  0  0  0  0  0  0
    7.6596  -13.0302   18.0127 C   0  0  0  0  0  0  0  0  0  0  0  0
    8.4901  -13.8886   18.9411 C   0  0  0  0  0  0  0  0  0  0  0  0
    7.7081  -14.3449   20.1366 C   0  0  0  0  0  0  0  0  0  0  0  0
    7.8090  -15.8714   20.1898 C   0  0  2  0  0  0  0  0  0  0  0  0
    6.7935  -16.4389   19.3565 N   0  0  0  0  0  0  0  0  0  0  0  0
    7.7130  -16.2579   21.6169 C   0  0  0  0  0  0  0  0  0  0  0  0
    6.5790  -16.1800   22.1524 O   0  0  0  0  0  0  0  0  0  0  0  0
    7.6645  -14.9621   14.4964 O   0  0  0  0  0  0  0  0  0  0  0  0
   10.6926  -18.1623   23.6428 C   0  0  0  0  0  0  0  0  0  0  0  0
    9.3701  -18.3166   24.0869 C   0  0  1  0  0  0  0  0  0  0  0  0
    8.6615  -17.0155   23.7592 N   0  0  0  0  0  0  0  0  0  0  0  0
    8.8317  -16.6932   22.3487 C   0  0  0  0  0  0  0  0  0  0  0  0
    9.1962  -15.9022   24.6008 O   0  0  0  0  0  0  0  0  0  0  0  0
   10.2720  -15.3145   24.2937 C   0  0  0  0  0  0  0  0  0  0  0  0
    8.1561  -11.8611   25.1529 C   0  0  2  0  0  0  0  0  0  0  0  0
    7.3181  -12.7437   26.0267 C   0  0  0  0  0  0  0  0  0  0  0  0
    6.0898  -12.0425   26.5322 C   0  0  0  0  0  0  0  0  0  0  0  0
    8.0105  -13.5501   27.0199 C   0  0  2  0  0  0  0  0  0  0  0  0
    9.1117  -14.4607   26.6849 N   0  0  0  0  0  0  0  0  0  0  0  0
    8.5171  -15.4680   25.7685 C   0  0  0  0  0  0  0  0  0  0  0  0
    9.7242  -15.2381   27.7717 O   0  0  0  0  0  0  0  0  0  0  0  0
    9.4157  -16.4398   27.9276 O   0  0  0  0  0  0  0  0  0  0  0  0
  1  2  1  0
  2  3  2  0
  4  2  1  0
  5  4  1  0
  6  5  1  0
  7  8  1  0
  7  6  1  0
  8  9  1  6
 10 15  1  0
 10  8  1  0
 11 10  2  0
 14 13  1  6
 13 12  1  0
 14 15  1  0
 16 17  2  0
 16 14  1  0
 19 18  1  6
 19 21  1  0
 20 19  1  0
 22 21  1  6
 22 23  1  0
 23 16  1  0
 24 22  1  0
 25 24  2  0
 26 24  1  0
M  END
$$$$
