RSL.pdb
     RDKit          3D

 26 25  0  0  1  0  0  0  0  0999 V2000
    8.2679  -12.6088   14.9291 N   0  0  0  0  0  0  0  0  0  0  0  0
    8.0855  -14.0179   14.9142 C   0  0  0  0  0  0  0  0  0  0  0  0
    8.3170  -14.6648   13.8107 N   0  0  0  0  0  0  0  0  0  0  0  0
    7.6623  -14.7736   16.0379 N   0  0  0  0  0  0  0  0  0  0  0  0
    7.5755  -14.1725   17.3516 C   0  0  0  0  0  0  0  0  0  0  0  0
    8.3811  -14.9986   18.3299 C   0  0  0  0  0  0  0  0  0  0  0  0
    9.6247  -14.2889   18.7761 C   0  0  0  0  0  0  0  0  0  0  0  0
   10.3353  -15.2034   19.7770 C   0  0  2  0  0  0  0  0  0  0  0  0
   10.6362  -16.4504   19.1430 N   0  0  0  0  0  0  0  0  0  0  0  0
    9.4478  -15.3182   20.9579 C   0  0  0  0  0  0  0  0  0  0  0  0
    8.4064  -14.6150   20.9572 O   0  0  0  0  0  0  0  0  0  0  0  0
    8.2669  -15.6870   13.7120 O   0  0  0  0  0  0  0  0  0  0  0  0
    9.8591  -18.2639   23.8002 C   0  0  0  0  0  0  0  0  0  0  0  0
    8.5870  -17.7965   23.4351 C   0  0  1  0  0  0  0  0  0  0  0  0
    8.7595  -16.3278   23.0956 N   0  0  0  0  0  0  0  0  0  0  0  0
    9.7461  -16.1707   22.0352 C   0  0  0  0  0  0  0  0  0  0  0  0
    9.1878  -15.5584   24.3033 O   0  0  0  0  0  0  0  0  0  0  0  0
   10.3941  -15.2164   24.4616 C   0  0  0  0  0  0  0  0  0  0  0  0
    7.7621  -11.6035   25.5803 C   0  0  2  0  0  0  0  0  0  0  0  0
    6.8818  -12.6847   26.1286 C   0  0  0  0  0  0  0  0  0  0  0  0
    5.5866  -12.1460   26.6655 C   0  0  0  0  0  0  0  0  0  0  0  0
    7.5106  -13.6989   26.9607 C   0  0  2  0  0  0  0  0  0  0  0  0
    8.6876  -14.4656   26.5357 N   0  0  0  0  0  0  0  0  0  0  0  0
    8.2589  -15.1866   25.3092 C   0  0  0  0  0  0  0  0  0  0  0  0
    9.2009  -15.5061   27.4384 O   0  0  0  0  0  0  0  0  0  0  0  0
    8.9412  -16.7083   27.2136 O   0  0  0  0  0  0  0  0  0  0  0  0
  1  2  1  0
  2  3  2  0
  4  2  1  0
  5  4  1  0
  6  5  1  0
  7  8  1  0
  7  6  1  0
  8  9  1  6
 10 15  1  0
 10  8  1  0
 11 10  2  0
 14 13  1  6
 13 12  1  0
 14 15  1  0
 16 17  2  0
 16 14  1  0
 19 18  1  6
 19 21  1  0
 20 19  1  0
 22 21  1  6
 22 23  1  0
 23 16  1  0
 24 22  1  0
 25 24  2  0
 26 24  1  0
M  END
$$$$
