RSL.pdb
     RDKit          3D

 26 25  0  0  1  0  0  0  0  0999 V2000
   16.2056  -14.7651   19.4093 N   0  0  0  0  0  0  0  0  0  0  0  0
   15.2831  -14.4750   18.3683 C   0  0  0  0  0  0  0  0  0  0  0  0
   15.4569  -13.3963   17.6641 N   0  0  0  0  0  0  0  0  0  0  0  0
   14.1719  -15.2952   18.0434 N   0  0  0  0  0  0  0  0  0  0  0  0
   13.2694  -15.7702   19.0704 C   0  0  0  0  0  0  0  0  0  0  0  0
   12.2408  -14.6997   19.3613 C   0  0  0  0  0  0  0  0  0  0  0  0
   11.3598  -15.0649   20.5188 C   0  0  0  0  0  0  0  0  0  0  0  0
   10.0246  -15.5408   19.9410 C   0  0  2  0  0  0  0  0  0  0  0  0
    9.6596  -14.6973   18.8442 N   0  0  0  0  0  0  0  0  0  0  0  0
    9.0510  -15.5441   21.0579 C   0  0  0  0  0  0  0  0  0  0  0  0
    8.4346  -14.4716   21.2784 O   0  0  0  0  0  0  0  0  0  0  0  0
   14.8105  -13.0635   16.9370 O   0  0  0  0  0  0  0  0  0  0  0  0
    8.5959  -18.7071   23.6393 C   0  0  0  0  0  0  0  0  0  0  0  0
    7.4236  -17.9863   23.3628 C   0  0  1  0  0  0  0  0  0  0  0  0
    7.8716  -16.5982   22.9449 N   0  0  0  0  0  0  0  0  0  0  0  0
    8.8188  -16.6878   21.8417 C   0  0  0  0  0  0  0  0  0  0  0  0
    8.5017  -15.8830   24.0961 O   0  0  0  0  0  0  0  0  0  0  0  0
    9.7581  -15.7840   24.1904 C   0  0  0  0  0  0  0  0  0  0  0  0
    5.7946  -11.7207   26.6807 C   0  0  1  0  0  0  0  0  0  0  0  0
    7.1252  -12.3595   26.4229 C   0  0  0  0  0  0  0  0  0  0  0  0
    7.6541  -12.0396   25.0541 C   0  0  0  0  0  0  0  0  0  0  0  0
    7.2891  -13.7465   26.8298 C   0  0  2  0  0  0  0  0  0  0  0  0
    8.3364  -14.6207   26.2887 N   0  0  0  0  0  0  0  0  0  0  0  0
    7.7145  -15.2927   25.1183 C   0  0  0  0  0  0  0  0  0  0  0  0
    8.8397  -15.7090   27.1391 O   0  0  0  0  0  0  0  0  0  0  0  0
    9.6194  -15.4518   28.0822 O   0  0  0  0  0  0  0  0  0  0  0  0
  1  2  1  0
  2  3  2  0
  4  2  1  0
  5  4  1  0
  6  5  1  0
  7  8  1  0
  7  6  1  0
  8  9  1  6
 10 15  1  0
 10  8  1  0
 11 10  2  0
 14 13  1  6
 13 12  1  0
 14 15  1  0
 16 17  2  0
 16 14  1  0
 19 18  1  1
 19 21  1  0
 20 19  1  0
 22 21  1  6
 22 23  1  0
 23 16  1  0
 24 22  1  0
 25 24  2  0
 26 24  1  0
M  END
$$$$
