RSL.pdb
     RDKit          3D

 26 25  0  0  1  0  0  0  0  0999 V2000
    9.5269  -14.7904   14.7728 N   0  0  0  0  0  0  0  0  0  0  0  0
    8.3652  -14.0235   14.4880 C   0  0  0  0  0  0  0  0  0  0  0  0
    8.2497  -13.4799   13.3129 N   0  0  0  0  0  0  0  0  0  0  0  0
    7.3110  -13.8096   15.4131 N   0  0  0  0  0  0  0  0  0  0  0  0
    7.2415  -14.5563   16.6511 C   0  0  0  0  0  0  0  0  0  0  0  0
    7.6703  -13.6632   17.7944 C   0  0  0  0  0  0  0  0  0  0  0  0
    7.5589  -14.3539   19.1209 C   0  0  0  0  0  0  0  0  0  0  0  0
    8.9779  -14.5066   19.6742 C   0  0  2  0  0  0  0  0  0  0  0  0
    9.7538  -15.2956   18.7669 N   0  0  0  0  0  0  0  0  0  0  0  0
    8.8488  -15.0879   21.0309 C   0  0  0  0  0  0  0  0  0  0  0  0
    8.0800  -14.4988   21.8314 O   0  0  0  0  0  0  0  0  0  0  0  0
    7.4744  -12.8683   13.0264 O   0  0  0  0  0  0  0  0  0  0  0  0
   11.3404  -17.7850   22.7683 C   0  0  0  0  0  0  0  0  0  0  0  0
    9.9926  -18.1688   22.8471 C   0  0  1  0  0  0  0  0  0  0  0  0
    9.1820  -16.8991   22.6653 N   0  0  0  0  0  0  0  0  0  0  0  0
    9.5488  -16.2445   21.4166 C   0  0  0  0  0  0  0  0  0  0  0  0
    9.4071  -15.9661   23.8110 O   0  0  0  0  0  0  0  0  0  0  0  0
   10.2939  -15.0676   23.7526 C   0  0  0  0  0  0  0  0  0  0  0  0
    6.2393  -12.2427   26.7551 C   0  0  1  0  0  0  0  0  0  0  0  0
    7.5136  -13.0192   26.8896 C   0  0  0  0  0  0  0  0  0  0  0  0
    8.7082  -12.1258   27.0647 C   0  0  0  0  0  0  0  0  0  0  0  0
    7.7154  -14.1331   25.9760 C   0  0  2  0  0  0  0  0  0  0  0  0
    8.8151  -15.0947   26.1172 N   0  0  0  0  0  0  0  0  0  0  0  0
    8.6359  -16.0562   24.9986 C   0  0  0  0  0  0  0  0  0  0  0  0
    8.8645  -15.9187   27.3335 O   0  0  0  0  0  0  0  0  0  0  0  0
    8.1798  -16.9624   27.4061 O   0  0  0  0  0  0  0  0  0  0  0  0
  1  2  1  0
  2  3  2  0
  4  2  1  0
  5  4  1  0
  6  5  1  0
  7  8  1  0
  7  6  1  0
  8  9  1  6
 10 15  1  0
 10  8  1  0
 11 10  2  0
 14 13  1  6
 13 12  1  0
 14 15  1  0
 16 17  2  0
 16 14  1  0
 19 18  1  1
 19 21  1  0
 20 19  1  0
 22 21  1  6
 22 23  1  0
 23 16  1  0
 24 22  1  0
 25 24  2  0
 26 24  1  0
M  END
$$$$
