PSY.pdb
     RDKit          3D

 26 27  0  0  1  0  0  0  0  0999 V2000
   20.5624  -11.3900  -18.6880 N   0  0  0  0  0  0  0  0  0  0  0  0
   20.3162  -12.8173  -18.9819 C   0  0  0  0  0  0  0  0  0  0  0  0
   20.9843  -13.4078  -17.7323 C   0  0  0  0  0  0  0  0  0  0  0  0
   20.3472  -12.5755  -16.6493 C   0  0  0  0  0  0  0  0  0  0  0  0
   20.1695  -11.2329  -17.3207 C   0  0  1  0  0  0  0  0  0  0  0  0
   20.9318  -10.2187  -16.5613 C   0  0  0  0  0  0  0  0  0  0  0  0
   20.5984   -9.9194  -15.3597 O   0  0  0  0  0  0  0  0  0  0  0  0
   24.9089   -7.5474  -16.1264 O   0  0  0  0  0  0  0  0  0  0  0  0
   24.1887   -8.5130  -16.8172 C   0  0  0  0  0  0  0  0  0  0  0  0
   22.7733   -8.5952  -16.2733 C   0  0  2  0  0  0  0  0  0  0  0  0
   22.0497   -9.5317  -17.1024 N   0  0  0  0  0  0  0  0  0  0  0  0
   22.1318   -7.2553  -16.2775 C   0  0  0  0  0  0  0  0  0  0  0  0
   21.7511   -6.7626  -17.3606 O   0  0  0  0  0  0  0  0  0  0  0  0
   18.3230   -6.7344   -9.6738 O   0  0  0  0  0  0  0  0  0  0  0  0
   18.7045   -6.4419  -10.9869 C   0  0  0  0  0  0  0  0  0  0  0  0
   19.1336   -7.4316  -11.8505 C   0  0  0  0  0  0  0  0  0  0  0  0
   19.5108   -7.1485  -13.1459 C   0  0  0  0  0  0  0  0  0  0  0  0
   19.4640   -5.8634  -13.5984 C   0  0  0  0  0  0  0  0  0  0  0  0
   19.8596   -5.5040  -14.9654 C   0  0  0  0  0  0  0  0  0  0  0  0
   21.3507   -5.2593  -15.0142 C   0  0  2  0  0  0  0  0  0  0  0  0
   21.9776   -6.5871  -15.0428 N   0  0  0  0  0  0  0  0  0  0  0  0
   21.8752   -4.5573  -13.8338 C   0  0  0  0  0  0  0  0  0  0  0  0
   21.5979   -3.2266  -13.5778 O   0  0  0  0  0  0  0  0  0  0  0  0
   19.0401   -4.8534  -12.7607 C   0  0  0  0  0  0  0  0  0  0  0  0
   18.6725   -5.1584  -11.4850 C   0  0  0  0  0  0  0  0  0  0  0  0
   22.6019   -5.1616  -13.0138 O   0  0  0  0  0  0  0  0  0  0  0  0
  1  2  1  0
  3  2  1  0
  4  3  1  0
  4  5  1  0
  5  6  1  1
  5  1  1  0
  6  7  2  0
 10  9  1  6
  9  8  1  0
 11  6  1  0
 11 10  1  0
 12 10  1  0
 12 21  1  0
 13 12  2  0
 15 14  1  0
 16 15  2  0
 17 16  1  0
 18 24  1  0
 18 17  2  0
 19 18  1  0
 20 21  1  0
 20 19  1  1
 22 20  1  0
 23 22  1  0
 24 25  2  0
 25 15  1  0
 26 22  2  0
M  END
$$$$
