PSY.pdb
     RDKit          3D

 26 27  0  0  1  0  0  0  0  0999 V2000
   27.8757  -15.9233  -19.4031 N   0  0  0  0  0  0  0  0  0  0  0  0
   28.5920  -14.9113  -20.2074 C   0  0  0  0  0  0  0  0  0  0  0  0
   29.0561  -14.0139  -19.0517 C   0  0  0  0  0  0  0  0  0  0  0  0
   29.6594  -15.0361  -18.1228 C   0  0  0  0  0  0  0  0  0  0  0  0
   28.7832  -16.2476  -18.3449 C   0  0  1  0  0  0  0  0  0  0  0  0
   28.1458  -16.6130  -17.0617 C   0  0  0  0  0  0  0  0  0  0  0  0
   28.8614  -16.8521  -16.0247 O   0  0  0  0  0  0  0  0  0  0  0  0
   24.1304  -17.8963  -16.5789 O   0  0  0  0  0  0  0  0  0  0  0  0
   24.6970  -16.9843  -15.6981 C   0  0  0  0  0  0  0  0  0  0  0  0
   26.2020  -17.1792  -15.6435 C   0  0  2  0  0  0  0  0  0  0  0  0
   26.7393  -16.7195  -16.9037 N   0  0  0  0  0  0  0  0  0  0  0  0
   26.5370  -18.6052  -15.3962 C   0  0  0  0  0  0  0  0  0  0  0  0
   26.5407  -19.4077  -16.3537 O   0  0  0  0  0  0  0  0  0  0  0  0
   24.1867  -20.7026   -8.2686 O   0  0  0  0  0  0  0  0  0  0  0  0
   25.1181  -20.6367   -9.3093 C   0  0  0  0  0  0  0  0  0  0  0  0
   26.0431  -21.6427   -9.5139 C   0  0  0  0  0  0  0  0  0  0  0  0
   26.9635  -21.5825  -10.5386 C   0  0  0  0  0  0  0  0  0  0  0  0
   26.9718  -20.5084  -11.3780 C   0  0  0  0  0  0  0  0  0  0  0  0
   27.9327  -20.3892  -12.4811 C   0  0  0  0  0  0  0  0  0  0  0  0
   27.1941  -20.3970  -13.8002 C   0  0  2  0  0  0  0  0  0  0  0  0
   26.8408  -18.9981  -14.0741 N   0  0  0  0  0  0  0  0  0  0  0  0
   25.9401  -21.1639  -13.7730 C   0  0  0  0  0  0  0  0  0  0  0  0
   24.6980  -20.5560  -13.7988 O   0  0  0  0  0  0  0  0  0  0  0  0
   26.0612  -19.4882  -11.1999 C   0  0  0  0  0  0  0  0  0  0  0  0
   25.1617  -19.5707  -10.1803 C   0  0  0  0  0  0  0  0  0  0  0  0
   25.9681  -22.4139  -13.7247 O   0  0  0  0  0  0  0  0  0  0  0  0
  1  2  1  0
  3  2  1  0
  4  3  1  0
  4  5  1  0
  5  6  1  1
  5  1  1  0
  6  7  2  0
 10  9  1  6
  9  8  1  0
 11  6  1  0
 11 10  1  0
 12 10  1  0
 12 21  1  0
 13 12  2  0
 15 14  1  0
 16 15  2  0
 17 16  1  0
 18 24  1  0
 18 17  2  0
 19 18  1  0
 20 21  1  0
 20 19  1  1
 22 20  1  0
 23 22  1  0
 24 25  2  0
 25 15  1  0
 26 22  2  0
M  END
$$$$
