PSY.pdb
     RDKit          3D

 26 27  0  0  1  0  0  0  0  0999 V2000
   25.5366  -20.1351  -16.7657 N   0  0  0  0  0  0  0  0  0  0  0  0
   26.5674  -19.6493  -17.7067 C   0  0  0  0  0  0  0  0  0  0  0  0
   26.4519  -18.1515  -17.3907 C   0  0  0  0  0  0  0  0  0  0  0  0
   26.5267  -18.1722  -15.8855 C   0  0  0  0  0  0  0  0  0  0  0  0
   25.8332  -19.4686  -15.5343 C   0  0  1  0  0  0  0  0  0  0  0  0
   24.6600  -19.1641  -14.6873 C   0  0  0  0  0  0  0  0  0  0  0  0
   24.8023  -18.5257  -13.5841 O   0  0  0  0  0  0  0  0  0  0  0  0
   20.7663  -19.5253  -16.0264 O   0  0  0  0  0  0  0  0  0  0  0  0
   21.1645  -18.5703  -15.1002 C   0  0  0  0  0  0  0  0  0  0  0  0
   22.2385  -19.1421  -14.1917 C   0  0  2  0  0  0  0  0  0  0  0  0
   23.3391  -19.5505  -15.0342 N   0  0  0  0  0  0  0  0  0  0  0  0
   21.7048  -20.2817  -13.4022 C   0  0  0  0  0  0  0  0  0  0  0  0
   21.9049  -21.4488  -13.8004 O   0  0  0  0  0  0  0  0  0  0  0  0
   18.2023  -24.5923   -6.6676 O   0  0  0  0  0  0  0  0  0  0  0  0
   18.6585  -23.5767   -7.5137 C   0  0  0  0  0  0  0  0  0  0  0  0
   17.7820  -22.8104   -8.2580 C   0  0  0  0  0  0  0  0  0  0  0  0
   18.2266  -21.8081   -9.0936 C   0  0  0  0  0  0  0  0  0  0  0  0
   19.5625  -21.5568   -9.1971 C   0  0  0  0  0  0  0  0  0  0  0  0
   20.0918  -20.5066  -10.0754 C   0  0  0  0  0  0  0  0  0  0  0  0
   20.4396  -21.0992  -11.4221 C   0  0  2  0  0  0  0  0  0  0  0  0
   20.9853  -19.9945  -12.2213 N   0  0  0  0  0  0  0  0  0  0  0  0
   19.2803  -21.6317  -12.1527 C   0  0  0  0  0  0  0  0  0  0  0  0
   18.9560  -22.9763  -12.1512 O   0  0  0  0  0  0  0  0  0  0  0  0
   20.4624  -22.3042   -8.4670 C   0  0  0  0  0  0  0  0  0  0  0  0
   19.9985  -23.2891   -7.6483 C   0  0  0  0  0  0  0  0  0  0  0  0
   18.5425  -20.8627  -12.8083 O   0  0  0  0  0  0  0  0  0  0  0  0
  1  2  1  0
  3  2  1  0
  4  3  1  0
  4  5  1  0
  5  6  1  6
  5  1  1  0
  6  7  2  0
 10  9  1  6
  9  8  1  0
 11  6  1  0
 11 10  1  0
 12 10  1  0
 12 21  1  0
 13 12  2  0
 15 14  1  0
 16 15  2  0
 17 16  1  0
 18 24  1  0
 18 17  2  0
 19 18  1  0
 20 21  1  0
 20 19  1  1
 22 20  1  0
 23 22  1  0
 24 25  2  0
 25 15  1  0
 26 22  2  0
M  END
$$$$
