PSY.pdb
     RDKit          3D

 26 27  0  0  1  0  0  0  0  0999 V2000
   26.8646  -16.3398  -15.8179 N   0  0  0  0  0  0  0  0  0  0  0  0
   27.3539  -15.0433  -16.3315 C   0  0  0  0  0  0  0  0  0  0  0  0
   28.1827  -15.5814  -17.5062 C   0  0  0  0  0  0  0  0  0  0  0  0
   27.1854  -16.5041  -18.1584 C   0  0  0  0  0  0  0  0  0  0  0  0
   26.3994  -17.0329  -16.9805 C   0  0  1  0  0  0  0  0  0  0  0  0
   26.5461  -18.5036  -16.9348 C   0  0  0  0  0  0  0  0  0  0  0  0
   25.9980  -19.2402  -17.8301 O   0  0  0  0  0  0  0  0  0  0  0  0
   29.2538  -21.2714  -17.3242 O   0  0  0  0  0  0  0  0  0  0  0  0
   28.8885  -20.9347  -16.0275 C   0  0  0  0  0  0  0  0  0  0  0  0
   27.4058  -20.6115  -15.9715 C   0  0  2  0  0  0  0  0  0  0  0  0
   27.2828  -19.1725  -15.9227 N   0  0  0  0  0  0  0  0  0  0  0  0
   26.7740  -21.2526  -14.7898 C   0  0  0  0  0  0  0  0  0  0  0  0
   26.8128  -22.4960  -14.6746 O   0  0  0  0  0  0  0  0  0  0  0  0
   22.6225  -21.7855   -7.1070 O   0  0  0  0  0  0  0  0  0  0  0  0
   23.4088  -21.3833   -8.1911 C   0  0  0  0  0  0  0  0  0  0  0  0
   24.7759  -21.5842   -8.2042 C   0  0  0  0  0  0  0  0  0  0  0  0
   25.5555  -21.1895   -9.2705 C   0  0  0  0  0  0  0  0  0  0  0  0
   24.9749  -20.5844  -10.3453 C   0  0  0  0  0  0  0  0  0  0  0  0
   25.7570  -20.1383  -11.5046 C   0  0  0  0  0  0  0  0  0  0  0  0
   25.4581  -21.0273  -12.6904 C   0  0  2  0  0  0  0  0  0  0  0  0
   26.1491  -20.4202  -13.8353 N   0  0  0  0  0  0  0  0  0  0  0  0
   24.0303  -21.0982  -13.0333 C   0  0  0  0  0  0  0  0  0  0  0  0
   23.2050  -22.1068  -12.5699 O   0  0  0  0  0  0  0  0  0  0  0  0
   23.6128  -20.3699  -10.3623 C   0  0  0  0  0  0  0  0  0  0  0  0
   22.8639  -20.7690   -9.2968 C   0  0  0  0  0  0  0  0  0  0  0  0
   23.5162  -20.2269  -13.7697 O   0  0  0  0  0  0  0  0  0  0  0  0
  1  2  1  0
  3  2  1  0
  4  3  1  0
  4  5  1  0
  5  6  1  1
  5  1  1  0
  6  7  2  0
 10  9  1  1
  9  8  1  0
 11  6  1  0
 11 10  1  0
 12 10  1  0
 12 21  1  0
 13 12  2  0
 15 14  1  0
 16 15  2  0
 17 16  1  0
 18 24  1  0
 18 17  2  0
 19 18  1  0
 20 21  1  0
 20 19  1  1
 22 20  1  0
 23 22  1  0
 24 25  2  0
 25 15  1  0
 26 22  2  0
M  END
$$$$
