PSY.pdb
     RDKit          3D

 26 27  0  0  1  0  0  0  0  0999 V2000
   27.0073  -21.2331  -15.8223 N   0  0  0  0  0  0  0  0  0  0  0  0
   26.9165  -21.6171  -17.2466 C   0  0  0  0  0  0  0  0  0  0  0  0
   25.4018  -21.4351  -17.4175 C   0  0  0  0  0  0  0  0  0  0  0  0
   25.2126  -20.0607  -16.8285 C   0  0  0  0  0  0  0  0  0  0  0  0
   26.2488  -20.0231  -15.7286 C   0  0  1  0  0  0  0  0  0  0  0  0
   25.5609  -19.8121  -14.4367 C   0  0  0  0  0  0  0  0  0  0  0  0
   24.8147  -18.7847  -14.2572 O   0  0  0  0  0  0  0  0  0  0  0  0
   22.8376  -21.1444  -11.1552 O   0  0  0  0  0  0  0  0  0  0  0  0
   23.6109  -21.2727  -12.3015 C   0  0  0  0  0  0  0  0  0  0  0  0
   24.8992  -20.4830  -12.1515 C   0  0  2  0  0  0  0  0  0  0  0  0
   25.6822  -20.7104  -13.3445 N   0  0  0  0  0  0  0  0  0  0  0  0
   25.6326  -20.9038  -10.9301 C   0  0  0  0  0  0  0  0  0  0  0  0
   26.1986  -22.0175  -10.9096 O   0  0  0  0  0  0  0  0  0  0  0  0
   29.6444  -20.1695   -3.2139 O   0  0  0  0  0  0  0  0  0  0  0  0
   29.0135  -19.9142   -4.4354 C   0  0  0  0  0  0  0  0  0  0  0  0
   27.7503  -19.3568   -4.4919 C   0  0  0  0  0  0  0  0  0  0  0  0
   27.1240  -19.1030   -5.6935 C   0  0  0  0  0  0  0  0  0  0  0  0
   27.7564  -19.4054   -6.8628 C   0  0  0  0  0  0  0  0  0  0  0  0
   27.1346  -19.1625   -8.1701 C   0  0  0  0  0  0  0  0  0  0  0  0
   26.3866  -20.3993   -8.6135 C   0  0  2  0  0  0  0  0  0  0  0  0
   25.6596  -20.0173   -9.8311 N   0  0  0  0  0  0  0  0  0  0  0  0
   25.3885  -20.8688   -7.6416 C   0  0  0  0  0  0  0  0  0  0  0  0
   25.7114  -21.7158   -6.5969 O   0  0  0  0  0  0  0  0  0  0  0  0
   29.0177  -19.9624   -6.8396 C   0  0  0  0  0  0  0  0  0  0  0  0
   29.6157  -20.2036   -5.6397 C   0  0  0  0  0  0  0  0  0  0  0  0
   24.1955  -20.5045   -7.7392 O   0  0  0  0  0  0  0  0  0  0  0  0
  1  2  1  0
  3  2  1  0
  4  3  1  0
  4  5  1  0
  5  6  1  1
  5  1  1  0
  6  7  2  0
 10  9  1  6
  9  8  1  0
 11  6  1  0
 11 10  1  0
 12 10  1  0
 12 21  1  0
 13 12  2  0
 15 14  1  0
 16 15  2  0
 17 16  1  0
 18 24  1  0
 18 17  2  0
 19 18  1  0
 20 21  1  0
 20 19  1  1
 22 20  1  0
 23 22  1  0
 24 25  2  0
 25 15  1  0
 26 22  2  0
M  END
$$$$
