PSY.pdb
     RDKit          3D

 26 27  0  0  1  0  0  0  0  0999 V2000
   19.4535  -10.7788  -18.2190 N   0  0  0  0  0  0  0  0  0  0  0  0
   19.5533  -12.1300  -18.8093 C   0  0  0  0  0  0  0  0  0  0  0  0
   20.8238  -11.9033  -19.6406 C   0  0  0  0  0  0  0  0  0  0  0  0
   21.7332  -11.2887  -18.6077 C   0  0  0  0  0  0  0  0  0  0  0  0
   20.7753  -10.4948  -17.7491 C   0  0  1  0  0  0  0  0  0  0  0  0
   21.1656   -9.0694  -17.7976 C   0  0  0  0  0  0  0  0  0  0  0  0
   22.2492   -8.6722  -17.2384 O   0  0  0  0  0  0  0  0  0  0  0  0
   18.6232   -6.1059  -19.1677 O   0  0  0  0  0  0  0  0  0  0  0  0
   19.9803   -5.9302  -19.4042 C   0  0  0  0  0  0  0  0  0  0  0  0
   20.7917   -6.6947  -18.3732 C   0  0  2  0  0  0  0  0  0  0  0  0
   20.3844   -8.0791  -18.4484 N   0  0  0  0  0  0  0  0  0  0  0  0
   20.5726   -6.1355  -17.0144 C   0  0  0  0  0  0  0  0  0  0  0  0
   19.6640   -6.6068  -16.2981 O   0  0  0  0  0  0  0  0  0  0  0  0
   18.4060   -9.0012  -11.6929 O   0  0  0  0  0  0  0  0  0  0  0  0
   19.2997   -8.1468  -12.3458 C   0  0  0  0  0  0  0  0  0  0  0  0
   19.0826   -6.7833  -12.4028 C   0  0  0  0  0  0  0  0  0  0  0  0
   19.9606   -5.9366  -13.0452 C   0  0  0  0  0  0  0  0  0  0  0  0
   21.0751   -6.4451  -13.6435 C   0  0  0  0  0  0  0  0  0  0  0  0
   22.0401   -5.5913  -14.3464 C   0  0  0  0  0  0  0  0  0  0  0  0
   21.3007   -4.5906  -15.2053 C   0  0  2  0  0  0  0  0  0  0  0  0
   21.4102   -5.0827  -16.5847 N   0  0  0  0  0  0  0  0  0  0  0  0
   21.8836   -3.2412  -15.1786 C   0  0  0  0  0  0  0  0  0  0  0  0
   21.5510   -2.3083  -14.2132 O   0  0  0  0  0  0  0  0  0  0  0  0
   21.3198   -7.8016  -13.6039 C   0  0  0  0  0  0  0  0  0  0  0  0
   20.4373   -8.6177  -12.9629 C   0  0  0  0  0  0  0  0  0  0  0  0
   22.7138   -2.8973  -16.0492 O   0  0  0  0  0  0  0  0  0  0  0  0
  1  2  1  0
  3  2  1  0
  4  3  1  0
  4  5  1  0
  5  6  1  6
  5  1  1  0
  6  7  2  0
 10  9  1  6
  9  8  1  0
 11  6  1  0
 11 10  1  0
 12 10  1  0
 12 21  1  0
 13 12  2  0
 15 14  1  0
 16 15  2  0
 17 16  1  0
 18 24  1  0
 18 17  2  0
 19 18  1  0
 20 21  1  0
 20 19  1  1
 22 20  1  0
 23 22  1  0
 24 25  2  0
 25 15  1  0
 26 22  2  0
M  END
$$$$
