PSY.pdb
     RDKit          3D

 26 27  0  0  1  0  0  0  0  0999 V2000
   18.7256  -10.9948  -17.3930 N   0  0  0  0  0  0  0  0  0  0  0  0
   19.1533  -11.2967  -18.7750 C   0  0  0  0  0  0  0  0  0  0  0  0
   20.2104  -10.1923  -18.9143 C   0  0  0  0  0  0  0  0  0  0  0  0
   21.0025  -10.3959  -17.6483 C   0  0  0  0  0  0  0  0  0  0  0  0
   19.9483  -10.8479  -16.6637 C   0  0  1  0  0  0  0  0  0  0  0  0
   19.8995   -9.8821  -15.5451 C   0  0  0  0  0  0  0  0  0  0  0  0
   20.9190   -9.7145  -14.7854 O   0  0  0  0  0  0  0  0  0  0  0  0
   17.8544   -6.0576  -14.8301 O   0  0  0  0  0  0  0  0  0  0  0  0
   19.0412   -6.7779  -14.7964 C   0  0  0  0  0  0  0  0  0  0  0  0
   18.8047   -8.1420  -14.1726 C   0  0  2  0  0  0  0  0  0  0  0  0
   18.7506   -9.1024  -15.2510 N   0  0  0  0  0  0  0  0  0  0  0  0
   17.5498   -8.1442  -13.3777 C   0  0  0  0  0  0  0  0  0  0  0  0
   16.4706   -8.4290  -13.9388 O   0  0  0  0  0  0  0  0  0  0  0  0
   12.2167   -7.1157   -6.5386 O   0  0  0  0  0  0  0  0  0  0  0  0
   13.3379   -7.3332   -7.3453 C   0  0  0  0  0  0  0  0  0  0  0  0
   14.3745   -6.4211   -7.4003 C   0  0  0  0  0  0  0  0  0  0  0  0
   15.4820   -6.6308   -8.1940 C   0  0  0  0  0  0  0  0  0  0  0  0
   15.5687   -7.7628   -8.9487 C   0  0  0  0  0  0  0  0  0  0  0  0
   16.7212   -8.0344   -9.8160 C   0  0  0  0  0  0  0  0  0  0  0  0
   16.3947   -7.6286  -11.2353 C   0  0  2  0  0  0  0  0  0  0  0  0
   17.6305   -7.8206  -12.0053 N   0  0  0  0  0  0  0  0  0  0  0  0
   16.0118   -6.2161  -11.3748 C   0  0  0  0  0  0  0  0  0  0  0  0
   16.9414   -5.2114  -11.5733 O   0  0  0  0  0  0  0  0  0  0  0  0
   14.5506   -8.6923   -8.9153 C   0  0  0  0  0  0  0  0  0  0  0  0
   13.4665   -8.4624   -8.1231 C   0  0  0  0  0  0  0  0  0  0  0  0
   14.8074   -5.8820  -11.3158 O   0  0  0  0  0  0  0  0  0  0  0  0
  1  2  1  0
  3  2  1  0
  4  3  1  0
  4  5  1  0
  5  6  1  1
  5  1  1  0
  6  7  2  0
 10  9  1  6
  9  8  1  0
 11  6  1  0
 11 10  1  0
 12 10  1  0
 12 21  1  0
 13 12  2  0
 15 14  1  0
 16 15  2  0
 17 16  1  0
 18 24  1  0
 18 17  2  0
 19 18  1  0
 20 21  1  0
 20 19  1  1
 22 20  1  0
 23 22  1  0
 24 25  2  0
 25 15  1  0
 26 22  2  0
M  END
$$$$
