PSY.pdb
     RDKit          3D

 26 27  0  0  1  0  0  0  0  0999 V2000
   25.9420  -19.1706  -16.3822 N   0  0  0  0  0  0  0  0  0  0  0  0
   27.3719  -18.9867  -16.7075 C   0  0  0  0  0  0  0  0  0  0  0  0
   27.4053  -17.4530  -16.6504 C   0  0  0  0  0  0  0  0  0  0  0  0
   26.7307  -17.2033  -15.3260 C   0  0  0  0  0  0  0  0  0  0  0  0
   25.7212  -18.3257  -15.2483 C   0  0  1  0  0  0  0  0  0  0  0  0
   24.3668  -17.7393  -15.1570 C   0  0  0  0  0  0  0  0  0  0  0  0
   24.0604  -16.9576  -14.1876 O   0  0  0  0  0  0  0  0  0  0  0  0
   21.8880  -17.5996  -18.3180 O   0  0  0  0  0  0  0  0  0  0  0  0
   21.7085  -16.7092  -17.2676 C   0  0  0  0  0  0  0  0  0  0  0  0
   22.0533  -17.3815  -15.9505 C   0  0  2  0  0  0  0  0  0  0  0  0
   23.3494  -17.9998  -16.1117 N   0  0  0  0  0  0  0  0  0  0  0  0
   21.0156  -18.3793  -15.5840 C   0  0  0  0  0  0  0  0  0  0  0  0
   21.2027  -19.5844  -15.8553 O   0  0  0  0  0  0  0  0  0  0  0  0
   22.0611  -20.4347   -9.2884 O   0  0  0  0  0  0  0  0  0  0  0  0
   21.1523  -19.9561  -10.2373 C   0  0  0  0  0  0  0  0  0  0  0  0
   20.3041  -20.8088  -10.9177 C   0  0  0  0  0  0  0  0  0  0  0  0
   19.4064  -20.3420  -11.8540 C   0  0  0  0  0  0  0  0  0  0  0  0
   19.3443  -19.0073  -12.1248 C   0  0  0  0  0  0  0  0  0  0  0  0
   18.4126  -18.4561  -13.1160 C   0  0  0  0  0  0  0  0  0  0  0  0
   18.8334  -18.8875  -14.5025 C   0  0  2  0  0  0  0  0  0  0  0  0
   19.8478  -17.9185  -14.9370 N   0  0  0  0  0  0  0  0  0  0  0  0
   17.7457  -18.8495  -15.4909 C   0  0  0  0  0  0  0  0  0  0  0  0
   17.5658  -17.7851  -16.3556 O   0  0  0  0  0  0  0  0  0  0  0  0
   20.1777  -18.1307  -11.4623 C   0  0  0  0  0  0  0  0  0  0  0  0
   21.0561  -18.6164  -10.5414 C   0  0  0  0  0  0  0  0  0  0  0  0
   16.9384  -19.8017  -15.5747 O   0  0  0  0  0  0  0  0  0  0  0  0
  1  2  1  0
  3  2  1  0
  4  3  1  0
  4  5  1  0
  5  6  1  6
  5  1  1  0
  6  7  2  0
 10  9  1  6
  9  8  1  0
 11  6  1  0
 11 10  1  0
 12 10  1  0
 12 21  1  0
 13 12  2  0
 15 14  1  0
 16 15  2  0
 17 16  1  0
 18 24  1  0
 18 17  2  0
 19 18  1  0
 20 21  1  0
 20 19  1  1
 22 20  1  0
 23 22  1  0
 24 25  2  0
 25 15  1  0
 26 22  2  0
M  END
$$$$
