PSY.pdb
     RDKit          3D

 26 27  0  0  1  0  0  0  0  0999 V2000
   23.3357   -9.5282  -19.4267 N   0  0  0  0  0  0  0  0  0  0  0  0
   23.6704  -10.2092  -20.6949 C   0  0  0  0  0  0  0  0  0  0  0  0
   23.3206  -11.6404  -20.2641 C   0  0  0  0  0  0  0  0  0  0  0  0
   21.9496  -11.4323  -19.6737 C   0  0  0  0  0  0  0  0  0  0  0  0
   22.0532  -10.0518  -19.0668 C   0  0  1  0  0  0  0  0  0  0  0  0
   21.8024  -10.1533  -17.6131 C   0  0  0  0  0  0  0  0  0  0  0  0
   20.6469  -10.4957  -17.1746 O   0  0  0  0  0  0  0  0  0  0  0  0
   24.7625   -9.6861  -14.7057 O   0  0  0  0  0  0  0  0  0  0  0  0
   23.6588  -10.5037  -14.5012 C   0  0  0  0  0  0  0  0  0  0  0  0
   22.4538   -9.9457  -15.2376 C   0  0  2  0  0  0  0  0  0  0  0  0
   22.7994   -9.8841  -16.6394 N   0  0  0  0  0  0  0  0  0  0  0  0
   22.0893   -8.6069  -14.7071 C   0  0  0  0  0  0  0  0  0  0  0  0
   21.6446   -8.5101  -13.5437 O   0  0  0  0  0  0  0  0  0  0  0  0
   21.4535    0.1490  -14.8629 O   0  0  0  0  0  0  0  0  0  0  0  0
   21.8395   -1.1934  -14.9269 C   0  0  0  0  0  0  0  0  0  0  0  0
   21.8533   -1.9942  -13.8008 C   0  0  0  0  0  0  0  0  0  0  0  0
   22.2330   -3.3182  -13.8585 C   0  0  0  0  0  0  0  0  0  0  0  0
   22.6068   -3.8632  -15.0509 C   0  0  0  0  0  0  0  0  0  0  0  0
   23.0260   -5.2648  -15.1694 C   0  0  0  0  0  0  0  0  0  0  0  0
   21.8135   -6.1649  -15.0949 C   0  0  2  0  0  0  0  0  0  0  0  0
   22.2628   -7.4870  -15.5499 N   0  0  0  0  0  0  0  0  0  0  0  0
   20.7138   -5.7524  -15.9789 C   0  0  0  0  0  0  0  0  0  0  0  0
   19.6981   -4.9131  -15.5579 O   0  0  0  0  0  0  0  0  0  0  0  0
   22.6035   -3.0899  -16.1927 C   0  0  0  0  0  0  0  0  0  0  0  0
   22.2242   -1.7842  -16.1099 C   0  0  0  0  0  0  0  0  0  0  0  0
   20.6699   -6.1607  -17.1609 O   0  0  0  0  0  0  0  0  0  0  0  0
  1  2  1  0
  3  2  1  0
  4  3  1  0
  4  5  1  0
  5  6  1  1
  5  1  1  0
  6  7  2  0
 10  9  1  1
  9  8  1  0
 11  6  1  0
 11 10  1  0
 12 10  1  0
 12 21  1  0
 13 12  2  0
 15 14  1  0
 16 15  2  0
 17 16  1  0
 18 24  1  0
 18 17  2  0
 19 18  1  0
 20 21  1  0
 20 19  1  6
 22 20  1  0
 23 22  1  0
 24 25  2  0
 25 15  1  0
 26 22  2  0
M  END
$$$$
