PSY.pdb
     RDKit          3D

 26 27  0  0  1  0  0  0  0  0999 V2000
   23.1687  -11.2024  -16.5575 N   0  0  0  0  0  0  0  0  0  0  0  0
   24.0006  -12.3350  -16.1002 C   0  0  0  0  0  0  0  0  0  0  0  0
   24.7180  -11.6177  -14.9481 C   0  0  0  0  0  0  0  0  0  0  0  0
   23.5488  -10.9949  -14.2293 C   0  0  0  0  0  0  0  0  0  0  0  0
   22.5969  -10.6707  -15.3580 C   0  0  1  0  0  0  0  0  0  0  0  0
   22.3563   -9.2118  -15.3706 C   0  0  0  0  0  0  0  0  0  0  0  0
   21.7706   -8.6406  -14.3830 O   0  0  0  0  0  0  0  0  0  0  0  0
   23.0826   -6.8299  -18.6891 O   0  0  0  0  0  0  0  0  0  0  0  0
   23.3127   -6.2783  -17.4356 C   0  0  0  0  0  0  0  0  0  0  0  0
   22.4433   -6.9649  -16.3971 C   0  0  2  0  0  0  0  0  0  0  0  0
   22.7479   -8.3765  -16.4491 N   0  0  0  0  0  0  0  0  0  0  0  0
   21.0049   -6.7078  -16.6651 C   0  0  0  0  0  0  0  0  0  0  0  0
   20.2835   -7.6401  -17.0787 O   0  0  0  0  0  0  0  0  0  0  0  0
   12.8466   -4.6399  -15.7439 O   0  0  0  0  0  0  0  0  0  0  0  0
   14.2034   -4.9778  -15.7346 C   0  0  0  0  0  0  0  0  0  0  0  0
   14.7250   -5.8918  -16.6301 C   0  0  0  0  0  0  0  0  0  0  0  0
   16.0619   -6.2284  -16.6251 C   0  0  0  0  0  0  0  0  0  0  0  0
   16.9010   -5.6519  -15.7184 C   0  0  0  0  0  0  0  0  0  0  0  0
   18.3312   -5.9774  -15.6638 C   0  0  0  0  0  0  0  0  0  0  0  0
   19.0833   -5.1276  -16.6628 C   0  0  2  0  0  0  0  0  0  0  0  0
   20.5078   -5.4054  -16.4385 N   0  0  0  0  0  0  0  0  0  0  0  0
   18.8887   -3.6823  -16.4769 C   0  0  0  0  0  0  0  0  0  0  0  0
   19.6993   -2.9246  -15.6511 O   0  0  0  0  0  0  0  0  0  0  0  0
   16.4107   -4.7359  -14.8116 C   0  0  0  0  0  0  0  0  0  0  0  0
   15.0860   -4.4197  -14.8366 C   0  0  0  0  0  0  0  0  0  0  0  0
   17.9633   -3.0900  -17.0757 O   0  0  0  0  0  0  0  0  0  0  0  0
  1  2  1  0
  3  2  1  0
  4  3  1  0
  4  5  1  0
  5  6  1  6
  5  1  1  0
  6  7  2  0
 10  9  1  6
  9  8  1  0
 11  6  1  0
 11 10  1  0
 12 10  1  0
 12 21  1  0
 13 12  2  0
 15 14  1  0
 16 15  2  0
 17 16  1  0
 18 24  1  0
 18 17  2  0
 19 18  1  0
 20 21  1  0
 20 19  1  1
 22 20  1  0
 23 22  1  0
 24 25  2  0
 25 15  1  0
 26 22  2  0
M  END
$$$$
