PSY.pdb
     RDKit          3D

 26 27  0  0  1  0  0  0  0  0999 V2000
   28.2948  -18.8119  -18.3505 N   0  0  0  0  0  0  0  0  0  0  0  0
   29.6699  -18.6271  -18.8592 C   0  0  0  0  0  0  0  0  0  0  0  0
   29.5183  -17.1826  -19.3562 C   0  0  0  0  0  0  0  0  0  0  0  0
   28.8962  -16.5304  -18.1483 C   0  0  0  0  0  0  0  0  0  0  0  0
   28.0382  -17.6357  -17.5764 C   0  0  1  0  0  0  0  0  0  0  0  0
   26.6297  -17.1856  -17.5671 C   0  0  0  0  0  0  0  0  0  0  0  0
   26.2785  -16.1620  -16.8790 O   0  0  0  0  0  0  0  0  0  0  0  0
   23.6865  -18.8139  -20.0221 O   0  0  0  0  0  0  0  0  0  0  0  0
   23.6672  -17.4787  -19.6412 C   0  0  0  0  0  0  0  0  0  0  0  0
   24.2585  -17.3253  -18.2510 C   0  0  2  0  0  0  0  0  0  0  0  0
   25.6069  -17.8425  -18.2997 N   0  0  0  0  0  0  0  0  0  0  0  0
   23.4339  -18.0474  -17.2483 C   0  0  0  0  0  0  0  0  0  0  0  0
   23.7801  -19.1900  -16.8801 O   0  0  0  0  0  0  0  0  0  0  0  0
   16.7514  -19.4871  -11.7750 O   0  0  0  0  0  0  0  0  0  0  0  0
   17.6784  -18.8788  -12.6270 C   0  0  0  0  0  0  0  0  0  0  0  0
   17.3889  -18.6440  -13.9577 C   0  0  0  0  0  0  0  0  0  0  0  0
   18.2993  -18.0447  -14.8018 C   0  0  0  0  0  0  0  0  0  0  0  0
   19.5197  -17.6697  -14.3239 C   0  0  0  0  0  0  0  0  0  0  0  0
   20.5292  -17.0337  -15.1788 C   0  0  0  0  0  0  0  0  0  0  0  0
   21.4483  -18.0896  -15.7499 C   0  0  2  0  0  0  0  0  0  0  0  0
   22.2803  -17.4047  -16.7476 N   0  0  0  0  0  0  0  0  0  0  0  0
   20.7430  -19.1760  -16.4453 C   0  0  0  0  0  0  0  0  0  0  0  0
   20.4183  -20.3678  -15.8228 O   0  0  0  0  0  0  0  0  0  0  0  0
   19.8385  -17.8904  -13.0005 C   0  0  0  0  0  0  0  0  0  0  0  0
   18.9220  -18.4841  -12.1862 C   0  0  0  0  0  0  0  0  0  0  0  0
   20.4124  -19.0448  -17.6449 O   0  0  0  0  0  0  0  0  0  0  0  0
  1  2  1  0
  3  2  1  0
  4  3  1  0
  4  5  1  0
  5  6  1  6
  5  1  1  0
  6  7  2  0
 10  9  1  6
  9  8  1  0
 11  6  1  0
 11 10  1  0
 12 10  1  0
 12 21  1  0
 13 12  2  0
 15 14  1  0
 16 15  2  0
 17 16  1  0
 18 24  1  0
 18 17  2  0
 19 18  1  0
 20 21  1  0
 20 19  1  6
 22 20  1  0
 23 22  1  0
 24 25  2  0
 25 15  1  0
 26 22  2  0
M  END
$$$$
