PSY.pdb
     RDKit          3D

 26 27  0  0  1  0  0  0  0  0999 V2000
   24.1187  -20.3559  -17.1412 N   0  0  0  0  0  0  0  0  0  0  0  0
   25.0023  -19.9890  -18.2676 C   0  0  0  0  0  0  0  0  0  0  0  0
   24.8546  -18.4646  -18.1631 C   0  0  0  0  0  0  0  0  0  0  0  0
   25.1137  -18.2541  -16.6933 C   0  0  0  0  0  0  0  0  0  0  0  0
   24.5313  -19.5018  -16.0694 C   0  0  1  0  0  0  0  0  0  0  0  0
   23.4573  -19.1063  -15.1332 C   0  0  0  0  0  0  0  0  0  0  0  0
   23.7146  -18.3501  -14.1299 O   0  0  0  0  0  0  0  0  0  0  0  0
   19.4350  -19.5183  -15.9125 O   0  0  0  0  0  0  0  0  0  0  0  0
   19.9362  -18.5838  -15.0158 C   0  0  0  0  0  0  0  0  0  0  0  0
   21.1366  -19.1569  -14.2834 C   0  0  2  0  0  0  0  0  0  0  0  0
   22.1108  -19.5293  -15.2836 N   0  0  0  0  0  0  0  0  0  0  0  0
   20.7365  -20.3214  -13.4525 C   0  0  0  0  0  0  0  0  0  0  0  0
   20.9825  -21.4767  -13.8594 O   0  0  0  0  0  0  0  0  0  0  0  0
   17.5472  -24.8385   -6.6930 O   0  0  0  0  0  0  0  0  0  0  0  0
   18.0472  -23.8198   -7.5099 C   0  0  0  0  0  0  0  0  0  0  0  0
   17.2181  -22.8525   -8.0453 C   0  0  0  0  0  0  0  0  0  0  0  0
   17.7060  -21.8461   -8.8513 C   0  0  0  0  0  0  0  0  0  0  0  0
   19.0384  -21.7929   -9.1350 C   0  0  0  0  0  0  0  0  0  0  0  0
   19.6112  -20.7478   -9.9918 C   0  0  0  0  0  0  0  0  0  0  0  0
   19.5756  -21.1988  -11.4345 C   0  0  2  0  0  0  0  0  0  0  0  0
   20.0874  -20.0708  -12.2235 N   0  0  0  0  0  0  0  0  0  0  0  0
   18.2236  -21.4963  -11.9293 C   0  0  0  0  0  0  0  0  0  0  0  0
   17.7000  -22.7766  -11.9335 O   0  0  0  0  0  0  0  0  0  0  0  0
   19.8916  -22.7437   -8.6157 C   0  0  0  0  0  0  0  0  0  0  0  0
   19.3855  -23.7281   -7.8218 C   0  0  0  0  0  0  0  0  0  0  0  0
   17.4979  -20.5765  -12.3687 O   0  0  0  0  0  0  0  0  0  0  0  0
  1  2  1  0
  3  2  1  0
  4  3  1  0
  4  5  1  0
  5  6  1  1
  5  1  1  0
  6  7  2  0
 10  9  1  6
  9  8  1  0
 11  6  1  0
 11 10  1  0
 12 10  1  0
 12 21  1  0
 13 12  2  0
 15 14  1  0
 16 15  2  0
 17 16  1  0
 18 24  1  0
 18 17  2  0
 19 18  1  0
 20 21  1  0
 20 19  1  1
 22 20  1  0
 23 22  1  0
 24 25  2  0
 25 15  1  0
 26 22  2  0
M  END
$$$$
