NAC.pdb
     RDKit          3D

 20 19  0  0  1  0  0  0  0  0999 V2000
   26.3008  -14.2125  -14.7598 N   0  0  0  0  0  0  0  0  0  0  0  0
   25.6817  -14.9586  -15.8021 C   0  0  0  0  0  0  0  0  0  0  0  0
   24.5568  -14.6734  -16.2423 O   0  0  0  0  0  0  0  0  0  0  0  0
   26.3939  -16.1216  -16.3938 C   0  0  0  0  0  0  0  0  0  0  0  0
   25.4976  -17.3640  -16.3736 C   0  0  2  0  0  0  0  0  0  0  0  0
   24.4226  -17.1910  -15.4256 N   0  0  0  0  0  0  0  0  0  0  0  0
   26.3491  -18.4853  -15.9278 C   0  0  0  0  0  0  0  0  0  0  0  0
   27.2439  -18.9113  -16.6944 O   0  0  0  0  0  0  0  0  0  0  0  0
   28.2529  -19.5921  -13.4925 C   0  0  0  0  0  0  0  0  0  0  0  0
   27.0948  -20.1640  -14.2747 C   0  0  2  0  0  0  0  0  0  0  0  0
   26.2015  -19.1098  -14.6610 N   0  0  0  0  0  0  0  0  0  0  0  0
   26.3815  -21.2247  -13.5250 C   0  0  0  0  0  0  0  0  0  0  0  0
   27.0678  -22.1662  -13.0280 O   0  0  0  0  0  0  0  0  0  0  0  0
   24.9888  -21.2525  -13.3300 N   0  0  0  0  0  0  0  0  0  0  0  0
   24.4514  -21.2583  -12.0047 C   0  0  1  0  0  0  0  0  0  0  0  0
   25.3837  -20.4535  -11.1238 C   0  0  0  0  0  0  0  0  0  0  0  0
   25.5364  -21.3604   -9.5533 S   0  0  0  0  0  0  0  0  0  0  0  0
   23.0778  -20.7313  -11.9203 C   0  0  0  0  0  0  0  0  0  0  0  0
   22.6614  -19.7044  -12.5135 O   0  0  0  0  0  0  0  0  0  0  0  0
   22.1701  -21.4178  -11.1259 O   0  0  0  0  0  0  0  0  0  0  0  0
  2  4  1  0
  2  1  1  0
  3  2  2  0
  5  6  1  1
  5  7  1  0
  5  4  1  0
  7 11  1  0
  8  7  2  0
 10  9  1  1
 11 10  1  0
 12 14  1  0
 12 10  1  0
 13 12  2  0
 15 14  1  0
 15 18  1  0
 15 16  1  1
 17 16  1  0
 18 20  1  0
 19 18  2  0
M  END
$$$$
