NAC.pdb
     RDKit          3D

 20 19  0  0  1  0  0  0  0  0999 V2000
   17.0299  -12.3371  -11.2059 N   0  0  0  0  0  0  0  0  0  0  0  0
   17.5939  -11.1991  -11.8486 C   0  0  0  0  0  0  0  0  0  0  0  0
   18.5763  -11.2835  -12.6024 O   0  0  0  0  0  0  0  0  0  0  0  0
   16.9974   -9.8569  -11.6193 C   0  0  0  0  0  0  0  0  0  0  0  0
   15.8780   -9.9403  -10.5765 C   0  0  2  0  0  0  0  0  0  0  0  0
   14.7715  -10.7125  -11.0899 N   0  0  0  0  0  0  0  0  0  0  0  0
   15.4229   -8.5551  -10.3415 C   0  0  0  0  0  0  0  0  0  0  0  0
   14.6692   -8.0119  -11.1822 O   0  0  0  0  0  0  0  0  0  0  0  0
   15.3980   -6.0992   -7.5423 C   0  0  0  0  0  0  0  0  0  0  0  0
   15.2582   -6.4901   -8.9941 C   0  0  2  0  0  0  0  0  0  0  0  0
   15.8014   -7.8021   -9.1985 N   0  0  0  0  0  0  0  0  0  0  0  0
   15.8843   -5.5017   -9.9035 C   0  0  0  0  0  0  0  0  0  0  0  0
   17.1425   -5.5371  -10.0451 O   0  0  0  0  0  0  0  0  0  0  0  0
   15.1692   -4.5255  -10.6204 N   0  0  0  0  0  0  0  0  0  0  0  0
   15.8666   -3.5909  -11.4482 C   0  0  1  0  0  0  0  0  0  0  0  0
   15.1056   -3.4696  -12.7518 C   0  0  0  0  0  0  0  0  0  0  0  0
   15.1922   -5.0958  -13.5643 S   0  0  0  0  0  0  0  0  0  0  0  0
   16.0424   -2.2660  -10.8277 C   0  0  0  0  0  0  0  0  0  0  0  0
   16.7365   -1.3326  -11.3041 O   0  0  0  0  0  0  0  0  0  0  0  0
   15.3939   -2.0249   -9.6245 O   0  0  0  0  0  0  0  0  0  0  0  0
  2  4  1  0
  2  1  1  0
  3  2  2  0
  5  6  1  6
  5  7  1  0
  5  4  1  0
  7 11  1  0
  8  7  2  0
 10  9  1  1
 11 10  1  0
 12 14  1  0
 12 10  1  0
 13 12  2  0
 15 14  1  0
 15 18  1  0
 15 16  1  6
 17 16  1  0
 18 20  1  0
 19 18  2  0
M  END
$$$$
