NAC.pdb
     RDKit          3D

 20 19  0  0  1  0  0  0  0  0999 V2000
   16.4292  -13.3348  -15.9844 N   0  0  0  0  0  0  0  0  0  0  0  0
   16.5477  -12.3822  -14.9334 C   0  0  0  0  0  0  0  0  0  0  0  0
   15.8276  -12.4180  -13.9231 O   0  0  0  0  0  0  0  0  0  0  0  0
   17.5636  -11.3016  -15.0343 C   0  0  0  0  0  0  0  0  0  0  0  0
   18.3067  -11.3896  -16.3713 C   0  0  2  0  0  0  0  0  0  0  0  0
   19.2548  -12.4781  -16.3470 N   0  0  0  0  0  0  0  0  0  0  0  0
   19.0447  -10.1193  -16.5226 C   0  0  0  0  0  0  0  0  0  0  0  0
   20.1984  -10.0255  -16.0430 O   0  0  0  0  0  0  0  0  0  0  0  0
   18.6858   -6.9878  -18.5218 C   0  0  0  0  0  0  0  0  0  0  0  0
   19.3437   -7.8609  -17.4803 C   0  0  2  0  0  0  0  0  0  0  0  0
   18.5052   -8.9887  -17.1915 N   0  0  0  0  0  0  0  0  0  0  0  0
   19.6762   -7.1090  -16.2474 C   0  0  0  0  0  0  0  0  0  0  0  0
   18.8091   -7.0655  -15.3250 O   0  0  0  0  0  0  0  0  0  0  0  0
   20.8950   -6.4397  -16.0360 N   0  0  0  0  0  0  0  0  0  0  0  0
   21.0801   -5.6425  -14.8632 C   0  0  1  0  0  0  0  0  0  0  0  0
   22.3885   -6.0571  -14.2236 C   0  0  0  0  0  0  0  0  0  0  0  0
   22.6379   -4.9706  -12.7850 S   0  0  0  0  0  0  0  0  0  0  0  0
   21.0700   -4.1924  -15.1250 C   0  0  0  0  0  0  0  0  0  0  0  0
   20.4672   -3.3376  -14.4280 O   0  0  0  0  0  0  0  0  0  0  0  0
   21.7791   -3.7294  -16.2247 O   0  0  0  0  0  0  0  0  0  0  0  0
  2  4  1  0
  2  1  1  0
  3  2  2  0
  5  6  1  1
  5  7  1  0
  5  4  1  0
  7 11  1  0
  8  7  2  0
 10  9  1  6
 11 10  1  0
 12 14  1  0
 12 10  1  0
 13 12  2  0
 15 14  1  0
 15 18  1  0
 15 16  1  6
 17 16  1  0
 18 20  1  0
 19 18  2  0
M  END
$$$$
