NAC.pdb
     RDKit          3D

 20 19  0  0  1  0  0  0  0  0999 V2000
   13.9666  -10.1828   -9.1609 N   0  0  0  0  0  0  0  0  0  0  0  0
   13.9215   -9.0652  -10.0412 C   0  0  0  0  0  0  0  0  0  0  0  0
   12.9773   -8.2595  -10.0406 O   0  0  0  0  0  0  0  0  0  0  0  0
   15.0355   -8.8415  -10.9998 C   0  0  0  0  0  0  0  0  0  0  0  0
   14.5578   -9.0705  -12.4374 C   0  0  2  0  0  0  0  0  0  0  0  0
   14.3320  -10.4769  -12.6724 N   0  0  0  0  0  0  0  0  0  0  0  0
   15.6504   -8.6105  -13.3182 C   0  0  0  0  0  0  0  0  0  0  0  0
   16.6520   -9.3459  -13.4793 O   0  0  0  0  0  0  0  0  0  0  0  0
   16.2622   -5.8769  -15.7819 C   0  0  0  0  0  0  0  0  0  0  0  0
   16.6991   -6.9989  -14.8707 C   0  0  2  0  0  0  0  0  0  0  0  0
   15.6207   -7.3638  -13.9976 N   0  0  0  0  0  0  0  0  0  0  0  0
   17.9189   -6.6547  -14.1028 C   0  0  0  0  0  0  0  0  0  0  0  0
   17.7737   -6.1431  -12.9533 O   0  0  0  0  0  0  0  0  0  0  0  0
   19.2295   -6.8603  -14.5702 N   0  0  0  0  0  0  0  0  0  0  0  0
   20.3460   -6.5035  -13.7509 C   0  0  1  0  0  0  0  0  0  0  0  0
   21.2096   -7.7360  -13.5831 C   0  0  0  0  0  0  0  0  0  0  0  0
   22.5988   -7.2620  -12.5071 S   0  0  0  0  0  0  0  0  0  0  0  0
   21.1412   -5.3850  -14.2878 C   0  0  0  0  0  0  0  0  0  0  0  0
   21.3547   -5.1721  -15.5081 O   0  0  0  0  0  0  0  0  0  0  0  0
   21.6997   -4.4953  -13.3807 O   0  0  0  0  0  0  0  0  0  0  0  0
  2  4  1  0
  2  1  1  0
  3  2  2  0
  5  6  1  1
  5  7  1  0
  5  4  1  0
  7 11  1  0
  8  7  2  0
 10  9  1  1
 11 10  1  0
 12 14  1  0
 12 10  1  0
 13 12  2  0
 15 14  1  0
 15 18  1  0
 15 16  1  6
 17 16  1  0
 18 20  1  0
 19 18  2  0
M  END
$$$$
