NAC.pdb
     RDKit          3D

 20 19  0  0  1  0  0  0  0  0999 V2000
   16.1844  -13.0973  -13.8766 N   0  0  0  0  0  0  0  0  0  0  0  0
   17.4037  -12.4977  -14.3009 C   0  0  0  0  0  0  0  0  0  0  0  0
   18.3410  -13.1632  -14.7689 O   0  0  0  0  0  0  0  0  0  0  0  0
   17.5757  -11.0256  -14.1860 C   0  0  0  0  0  0  0  0  0  0  0  0
   16.3307  -10.3892  -13.5597 C   0  0  2  0  0  0  0  0  0  0  0  0
   15.2930  -10.2367  -14.5517 N   0  0  0  0  0  0  0  0  0  0  0  0
   16.7389   -9.0502  -13.0887 C   0  0  0  0  0  0  0  0  0  0  0  0
   16.9172   -8.1383  -13.9292 O   0  0  0  0  0  0  0  0  0  0  0  0
   17.3132   -7.2699   -9.8471 C   0  0  0  0  0  0  0  0  0  0  0  0
   17.4506   -7.4565  -11.3392 C   0  0  2  0  0  0  0  0  0  0  0  0
   16.9411   -8.7434  -11.7169 N   0  0  0  0  0  0  0  0  0  0  0  0
   18.8471   -7.2752  -11.8005 C   0  0  0  0  0  0  0  0  0  0  0  0
   19.6269   -8.2716  -11.7426 O   0  0  0  0  0  0  0  0  0  0  0  0
   19.3624   -6.0652  -12.2992 N   0  0  0  0  0  0  0  0  0  0  0  0
   20.6891   -6.0171  -12.8310 C   0  0  1  0  0  0  0  0  0  0  0  0
   20.7176   -6.8707  -14.0814 C   0  0  0  0  0  0  0  0  0  0  0  0
   22.3933   -6.7280  -14.7771 S   0  0  0  0  0  0  0  0  0  0  0  0
   21.1596   -4.6523  -13.1266 C   0  0  0  0  0  0  0  0  0  0  0  0
   20.4601   -3.7437  -13.6415 O   0  0  0  0  0  0  0  0  0  0  0  0
   22.4756   -4.3408  -12.8144 O   0  0  0  0  0  0  0  0  0  0  0  0
  2  4  1  0
  2  1  1  0
  3  2  2  0
  5  6  1  6
  5  7  1  0
  5  4  1  0
  7 11  1  0
  8  7  2  0
 10  9  1  1
 11 10  1  0
 12 14  1  0
 12 10  1  0
 13 12  2  0
 15 14  1  0
 15 18  1  0
 15 16  1  6
 17 16  1  0
 18 20  1  0
 19 18  2  0
M  END
$$$$
