NAC.pdb
     RDKit          3D

 20 19  0  0  1  0  0  0  0  0999 V2000
   18.3940  -15.5156  -18.4778 N   0  0  0  0  0  0  0  0  0  0  0  0
   19.3295  -14.6138  -17.8966 C   0  0  0  0  0  0  0  0  0  0  0  0
   20.4360  -14.9875  -17.4765 O   0  0  0  0  0  0  0  0  0  0  0  0
   18.9843  -13.1725  -17.7817 C   0  0  0  0  0  0  0  0  0  0  0  0
   19.0750  -12.7157  -16.3221 C   0  0  2  0  0  0  0  0  0  0  0  0
   18.0736  -13.3835  -15.5249 N   0  0  0  0  0  0  0  0  0  0  0  0
   18.7949  -11.2656  -16.3207 C   0  0  0  0  0  0  0  0  0  0  0  0
   17.7807  -10.8417  -16.9219 O   0  0  0  0  0  0  0  0  0  0  0  0
   17.8926   -8.6827  -15.3224 C   0  0  0  0  0  0  0  0  0  0  0  0
   19.3219   -8.9203  -15.7473 C   0  0  2  0  0  0  0  0  0  0  0  0
   19.6270  -10.3198  -15.6651 N   0  0  0  0  0  0  0  0  0  0  0  0
   20.2827   -8.1139  -14.9582 C   0  0  0  0  0  0  0  0  0  0  0  0
   20.5394   -8.4846  -13.7746 O   0  0  0  0  0  0  0  0  0  0  0  0
   20.9286   -6.9614  -15.4409 N   0  0  0  0  0  0  0  0  0  0  0  0
   21.9550   -6.3378  -14.6647 C   0  0  1  0  0  0  0  0  0  0  0  0
   23.2193   -6.3206  -15.4979 C   0  0  0  0  0  0  0  0  0  0  0  0
   23.7647   -8.0492  -15.6612 S   0  0  0  0  0  0  0  0  0  0  0  0
   21.6138   -4.9763  -14.2159 C   0  0  0  0  0  0  0  0  0  0  0  0
   20.7510   -4.2353  -14.7512 O   0  0  0  0  0  0  0  0  0  0  0  0
   22.2944   -4.4681  -13.1183 O   0  0  0  0  0  0  0  0  0  0  0  0
  2  4  1  0
  2  1  1  0
  3  2  2  0
  5  6  1  1
  5  7  1  0
  5  4  1  0
  7 11  1  0
  8  7  2  0
 10  9  1  1
 11 10  1  0
 12 14  1  0
 12 10  1  0
 13 12  2  0
 15 14  1  0
 15 18  1  0
 15 16  1  6
 17 16  1  0
 18 20  1  0
 19 18  2  0
M  END
$$$$
