NAC.pdb
     RDKit          3D

 20 19  0  0  1  0  0  0  0  0999 V2000
   16.1732  -10.8407  -17.9394 N   0  0  0  0  0  0  0  0  0  0  0  0
   15.9027   -9.5067  -17.5230 C   0  0  0  0  0  0  0  0  0  0  0  0
   15.0536   -8.7969  -18.0852 O   0  0  0  0  0  0  0  0  0  0  0  0
   16.6540   -8.9294  -16.3776 C   0  0  0  0  0  0  0  0  0  0  0  0
   17.6555   -9.9496  -15.8266 C   0  0  2  0  0  0  0  0  0  0  0  0
   17.0194  -10.7971  -14.8461 N   0  0  0  0  0  0  0  0  0  0  0  0
   18.7211   -9.1715  -15.1630 C   0  0  0  0  0  0  0  0  0  0  0  0
   18.4344   -8.4841  -14.1555 O   0  0  0  0  0  0  0  0  0  0  0  0
   22.4367   -8.9268  -15.2485 C   0  0  0  0  0  0  0  0  0  0  0  0
   21.0593   -8.4168  -14.8982 C   0  0  2  0  0  0  0  0  0  0  0  0
   20.0671   -9.1646  -15.6156 N   0  0  0  0  0  0  0  0  0  0  0  0
   20.9200   -6.9626  -15.1472 C   0  0  0  0  0  0  0  0  0  0  0  0
   20.7331   -6.5784  -16.3396 O   0  0  0  0  0  0  0  0  0  0  0  0
   20.9821   -5.9806  -14.1422 N   0  0  0  0  0  0  0  0  0  0  0  0
   20.9710   -4.5944  -14.4939 C   0  0  1  0  0  0  0  0  0  0  0  0
   19.8619   -3.9267  -13.7085 C   0  0  0  0  0  0  0  0  0  0  0  0
   18.2974   -4.6586  -14.2819 S   0  0  0  0  0  0  0  0  0  0  0  0
   22.2554   -3.9125  -14.2556 C   0  0  0  0  0  0  0  0  0  0  0  0
   23.2572   -4.4334  -13.7033 O   0  0  0  0  0  0  0  0  0  0  0  0
   22.3735   -2.5935  -14.6710 O   0  0  0  0  0  0  0  0  0  0  0  0
  2  4  1  0
  2  1  1  0
  3  2  2  0
  5  6  1  1
  5  7  1  0
  5  4  1  0
  7 11  1  0
  8  7  2  0
 10  9  1  6
 11 10  1  0
 12 14  1  0
 12 10  1  0
 13 12  2  0
 15 14  1  0
 15 18  1  0
 15 16  1  1
 17 16  1  0
 18 20  1  0
 19 18  2  0
M  END
$$$$
