NAC.pdb
     RDKit          3D

 20 19  0  0  1  0  0  0  0  0999 V2000
   17.3654  -13.8325  -16.1904 N   0  0  0  0  0  0  0  0  0  0  0  0
   17.9401  -13.0747  -15.1313 C   0  0  0  0  0  0  0  0  0  0  0  0
   17.8417  -13.4179  -13.9425 O   0  0  0  0  0  0  0  0  0  0  0  0
   18.6867  -11.8277  -15.4432 C   0  0  0  0  0  0  0  0  0  0  0  0
   18.6359  -11.5360  -16.9465 C   0  0  2  0  0  0  0  0  0  0  0  0
   19.5952  -12.3553  -17.6485 N   0  0  0  0  0  0  0  0  0  0  0  0
   19.0129  -10.1173  -17.1090 C   0  0  0  0  0  0  0  0  0  0  0  0
   20.2252   -9.8184  -17.2130 O   0  0  0  0  0  0  0  0  0  0  0  0
   17.2931   -6.8555  -17.7304 C   0  0  0  0  0  0  0  0  0  0  0  0
   18.4883   -7.7214  -17.4114 C   0  0  2  0  0  0  0  0  0  0  0  0
   18.0593   -9.0659  -17.1535 N   0  0  0  0  0  0  0  0  0  0  0  0
   19.2834   -7.1852  -16.2816 C   0  0  0  0  0  0  0  0  0  0  0  0
   19.3817   -7.8919  -15.2351 O   0  0  0  0  0  0  0  0  0  0  0  0
   19.9366   -5.9397  -16.2976 N   0  0  0  0  0  0  0  0  0  0  0  0
   20.6331   -5.4815  -15.1357 C   0  0  1  0  0  0  0  0  0  0  0  0
   21.8182   -6.3979  -14.9152 C   0  0  0  0  0  0  0  0  0  0  0  0
   22.7099   -5.7636  -13.4610 S   0  0  0  0  0  0  0  0  0  0  0  0
   21.0748   -4.0785  -15.2246 C   0  0  0  0  0  0  0  0  0  0  0  0
   21.4047   -3.4919  -16.2863 O   0  0  0  0  0  0  0  0  0  0  0  0
   21.1328   -3.3435  -14.0487 O   0  0  0  0  0  0  0  0  0  0  0  0
  2  4  1  0
  2  1  1  0
  3  2  2  0
  5  6  1  6
  5  7  1  0
  5  4  1  0
  7 11  1  0
  8  7  2  0
 10  9  1  1
 11 10  1  0
 12 14  1  0
 12 10  1  0
 13 12  2  0
 15 14  1  0
 15 18  1  0
 15 16  1  6
 17 16  1  0
 18 20  1  0
 19 18  2  0
M  END
$$$$
