NAC.pdb
     RDKit          3D

 20 19  0  0  1  0  0  0  0  0999 V2000
   23.0017  -21.0147   -9.3843 N   0  0  0  0  0  0  0  0  0  0  0  0
   24.0130  -21.4750  -10.2739 C   0  0  0  0  0  0  0  0  0  0  0  0
   24.6194  -22.5426  -10.0914 O   0  0  0  0  0  0  0  0  0  0  0  0
   24.3665  -20.6611  -11.4665 C   0  0  0  0  0  0  0  0  0  0  0  0
   25.8796  -20.4280  -11.5253 C   0  0  2  0  0  0  0  0  0  0  0  0
   26.3311  -19.7626  -10.3263 N   0  0  0  0  0  0  0  0  0  0  0  0
   26.1203  -19.5406  -12.6811 C   0  0  0  0  0  0  0  0  0  0  0  0
   25.3833  -18.5404  -12.8435 O   0  0  0  0  0  0  0  0  0  0  0  0
   28.6841  -19.0168  -15.3306 C   0  0  0  0  0  0  0  0  0  0  0  0
   27.2896  -18.9031  -14.7627 C   0  0  2  0  0  0  0  0  0  0  0  0
   27.1559  -19.7679  -13.6258 N   0  0  0  0  0  0  0  0  0  0  0  0
   26.2467  -19.1842  -15.7771 C   0  0  0  0  0  0  0  0  0  0  0  0
   25.5571  -20.2385  -15.6451 O   0  0  0  0  0  0  0  0  0  0  0  0
   25.9734  -18.3536  -16.8788 N   0  0  0  0  0  0  0  0  0  0  0  0
   24.9032  -18.6764  -17.7709 C   0  0  1  0  0  0  0  0  0  0  0  0
   23.6117  -18.6246  -16.9821 C   0  0  0  0  0  0  0  0  0  0  0  0
   22.2651  -18.9762  -18.1548 S   0  0  0  0  0  0  0  0  0  0  0  0
   24.8257  -17.7925  -18.9474 C   0  0  0  0  0  0  0  0  0  0  0  0
   24.9690  -16.5440  -18.9224 O   0  0  0  0  0  0  0  0  0  0  0  0
   24.5753  -18.3784  -20.1804 O   0  0  0  0  0  0  0  0  0  0  0  0
  2  4  1  0
  2  1  1  0
  3  2  2  0
  5  6  1  1
  5  7  1  0
  5  4  1  0
  7 11  1  0
  8  7  2  0
 10  9  1  6
 11 10  1  0
 12 14  1  0
 12 10  1  0
 13 12  2  0
 15 14  1  0
 15 18  1  0
 15 16  1  1
 17 16  1  0
 18 20  1  0
 19 18  2  0
M  END
$$$$
