NAC.pdb
     RDKit          3D

 20 19  0  0  1  0  0  0  0  0999 V2000
   15.6489  -14.5153  -16.5529 N   0  0  0  0  0  0  0  0  0  0  0  0
   16.1096  -13.6396  -15.5297 C   0  0  0  0  0  0  0  0  0  0  0  0
   15.3946  -13.3075  -14.5709 O   0  0  0  0  0  0  0  0  0  0  0  0
   17.4914  -13.0958  -15.5973 C   0  0  0  0  0  0  0  0  0  0  0  0
   18.1834  -13.5528  -16.8856 C   0  0  2  0  0  0  0  0  0  0  0  0
   18.6474  -14.9131  -16.7496 N   0  0  0  0  0  0  0  0  0  0  0  0
   19.3515  -12.6678  -17.0681 C   0  0  0  0  0  0  0  0  0  0  0  0
   20.3843  -12.8765  -16.3900 O   0  0  0  0  0  0  0  0  0  0  0  0
   20.6252  -10.2045  -19.5034 C   0  0  0  0  0  0  0  0  0  0  0  0
   20.5284  -10.7560  -18.1010 C   0  0  2  0  0  0  0  0  0  0  0  0
   19.3612  -11.5818  -17.9831 N   0  0  0  0  0  0  0  0  0  0  0  0
   20.5349   -9.6857  -17.0762 C   0  0  0  0  0  0  0  0  0  0  0  0
   19.4195   -9.2676  -16.6454 O   0  0  0  0  0  0  0  0  0  0  0  0
   21.7026   -9.1037  -16.5506 N   0  0  0  0  0  0  0  0  0  0  0  0
   21.6107   -7.9610  -15.6957 C   0  0  1  0  0  0  0  0  0  0  0  0
   22.7749   -8.0118  -14.7287 C   0  0  0  0  0  0  0  0  0  0  0  0
   22.3319   -9.2129  -13.4352 S   0  0  0  0  0  0  0  0  0  0  0  0
   21.5973   -6.6783  -16.4209 C   0  0  0  0  0  0  0  0  0  0  0  0
   21.8267   -6.5414  -17.6491 O   0  0  0  0  0  0  0  0  0  0  0  0
   21.3097   -5.5296  -15.6967 O   0  0  0  0  0  0  0  0  0  0  0  0
  2  4  1  0
  2  1  1  0
  3  2  2  0
  5  6  1  1
  5  7  1  0
  5  4  1  0
  7 11  1  0
  8  7  2  0
 10  9  1  6
 11 10  1  0
 12 14  1  0
 12 10  1  0
 13 12  2  0
 15 14  1  0
 15 18  1  0
 15 16  1  1
 17 16  1  0
 18 20  1  0
 19 18  2  0
M  END
$$$$
