NAC.pdb
     RDKit          3D

 20 19  0  0  1  0  0  0  0  0999 V2000
   17.1063  -13.1809  -14.5057 N   0  0  0  0  0  0  0  0  0  0  0  0
   18.0913  -13.3034  -15.5260 C   0  0  0  0  0  0  0  0  0  0  0  0
   18.5415  -14.4036  -15.8830 O   0  0  0  0  0  0  0  0  0  0  0  0
   18.6084  -12.0815  -16.1963 C   0  0  0  0  0  0  0  0  0  0  0  0
   17.9045  -10.8344  -15.6516 C   0  0  2  0  0  0  0  0  0  0  0  0
   16.5876  -10.7094  -16.2298 N   0  0  0  0  0  0  0  0  0  0  0  0
   18.7206   -9.6776  -16.0725 C   0  0  0  0  0  0  0  0  0  0  0  0
   19.9413   -9.6600  -15.7908 O   0  0  0  0  0  0  0  0  0  0  0  0
   18.3344   -6.6186  -18.1871 C   0  0  0  0  0  0  0  0  0  0  0  0
   19.0376   -7.4870  -17.1716 C   0  0  2  0  0  0  0  0  0  0  0  0
   18.1839   -8.5742  -16.7876 N   0  0  0  0  0  0  0  0  0  0  0  0
   19.4883   -6.7147  -15.9899 C   0  0  0  0  0  0  0  0  0  0  0  0
   18.6592   -6.5257  -15.0511 O   0  0  0  0  0  0  0  0  0  0  0  0
   20.7800   -6.1774  -15.8443 N   0  0  0  0  0  0  0  0  0  0  0  0
   21.1186   -5.4354  -14.6697 C   0  0  1  0  0  0  0  0  0  0  0  0
   22.2119   -6.1911  -13.9440 C   0  0  0  0  0  0  0  0  0  0  0  0
   22.6737   -5.1876  -12.4977 S   0  0  0  0  0  0  0  0  0  0  0  0
   21.5429   -4.0514  -14.9451 C   0  0  0  0  0  0  0  0  0  0  0  0
   22.2494   -3.6942  -15.9216 O   0  0  0  0  0  0  0  0  0  0  0  0
   21.1339   -3.0621  -14.0617 O   0  0  0  0  0  0  0  0  0  0  0  0
  2  4  1  0
  2  1  1  0
  3  2  2  0
  5  6  1  6
  5  7  1  0
  5  4  1  0
  7 11  1  0
  8  7  2  0
 10  9  1  6
 11 10  1  0
 12 14  1  0
 12 10  1  0
 13 12  2  0
 15 14  1  0
 15 18  1  0
 15 16  1  6
 17 16  1  0
 18 20  1  0
 19 18  2  0
M  END
$$$$
