NAC.pdb
     RDKit          3D

 20 19  0  0  1  0  0  0  0  0999 V2000
   18.1888  -17.7016  -15.0254 N   0  0  0  0  0  0  0  0  0  0  0  0
   17.5280  -16.4593  -14.8109 C   0  0  0  0  0  0  0  0  0  0  0  0
   16.3254  -16.3921  -14.5110 O   0  0  0  0  0  0  0  0  0  0  0  0
   18.2902  -15.1903  -14.9469 C   0  0  0  0  0  0  0  0  0  0  0  0
   17.5768  -14.2391  -15.9132 C   0  0  2  0  0  0  0  0  0  0  0  0
   17.6280  -14.7602  -17.2586 N   0  0  0  0  0  0  0  0  0  0  0  0
   18.3206  -12.9639  -15.8684 C   0  0  0  0  0  0  0  0  0  0  0  0
   18.4933  -12.3993  -14.7633 O   0  0  0  0  0  0  0  0  0  0  0  0
   20.2550  -10.7566  -18.1824 C   0  0  0  0  0  0  0  0  0  0  0  0
   19.4694  -11.0488  -16.9264 C   0  0  2  0  0  0  0  0  0  0  0  0
   18.8544  -12.3411  -17.0276 N   0  0  0  0  0  0  0  0  0  0  0  0
   18.4662   -9.9978  -16.6355 C   0  0  0  0  0  0  0  0  0  0  0  0
   17.3241  -10.1001  -17.1736 O   0  0  0  0  0  0  0  0  0  0  0  0
   18.7019   -8.8922  -15.7986 N   0  0  0  0  0  0  0  0  0  0  0  0
   17.7555   -7.8214  -15.7432 C   0  0  1  0  0  0  0  0  0  0  0  0
   17.2457   -7.7276  -14.3205 C   0  0  0  0  0  0  0  0  0  0  0  0
   16.1626   -6.2669  -14.2455 S   0  0  0  0  0  0  0  0  0  0  0  0
   18.3013   -6.5251  -16.1828 C   0  0  0  0  0  0  0  0  0  0  0  0
   19.4852   -6.1428  -16.0037 O   0  0  0  0  0  0  0  0  0  0  0  0
   17.4466   -5.6557  -16.8461 O   0  0  0  0  0  0  0  0  0  0  0  0
  2  4  1  0
  2  1  1  0
  3  2  2  0
  5  6  1  6
  5  7  1  0
  5  4  1  0
  7 11  1  0
  8  7  2  0
 10  9  1  6
 11 10  1  0
 12 14  1  0
 12 10  1  0
 13 12  2  0
 15 14  1  0
 15 18  1  0
 15 16  1  1
 17 16  1  0
 18 20  1  0
 19 18  2  0
M  END
$$$$
