NAC.pdb
     RDKit          3D

 20 19  0  0  1  0  0  0  0  0999 V2000
   17.9753  -11.9742  -16.5784 N   0  0  0  0  0  0  0  0  0  0  0  0
   17.5072  -10.8040  -15.9169 C   0  0  0  0  0  0  0  0  0  0  0  0
   16.3000  -10.5926  -15.7206 O   0  0  0  0  0  0  0  0  0  0  0  0
   18.4848   -9.7913  -15.4388 C   0  0  0  0  0  0  0  0  0  0  0  0
   19.9161  -10.2429  -15.7467 C   0  0  2  0  0  0  0  0  0  0  0  0
   20.3476  -11.2303  -14.7859 N   0  0  0  0  0  0  0  0  0  0  0  0
   20.7692   -9.0448  -15.6132 C   0  0  0  0  0  0  0  0  0  0  0  0
   20.9278   -8.5345  -14.4799 O   0  0  0  0  0  0  0  0  0  0  0  0
   23.0848   -7.0211  -17.7385 C   0  0  0  0  0  0  0  0  0  0  0  0
   22.2383   -7.2734  -16.5138 C   0  0  2  0  0  0  0  0  0  0  0  0
   21.4246   -8.4375  -16.7170 N   0  0  0  0  0  0  0  0  0  0  0  0
   21.4127   -6.0975  -16.1511 C   0  0  0  0  0  0  0  0  0  0  0  0
   20.2144   -6.0629  -16.5603 O   0  0  0  0  0  0  0  0  0  0  0  0
   21.8757   -5.0160  -15.3803 N   0  0  0  0  0  0  0  0  0  0  0  0
   21.0233   -3.8940  -15.1360 C   0  0  1  0  0  0  0  0  0  0  0  0
   19.8958   -4.3565  -14.2373 C   0  0  0  0  0  0  0  0  0  0  0  0
   18.9647   -2.8691  -13.7544 S   0  0  0  0  0  0  0  0  0  0  0  0
   21.7192   -2.7402  -14.5394 C   0  0  0  0  0  0  0  0  0  0  0  0
   21.2701   -1.5667  -14.5031 O   0  0  0  0  0  0  0  0  0  0  0  0
   22.9667   -2.9605  -13.9724 O   0  0  0  0  0  0  0  0  0  0  0  0
  2  4  1  0
  2  1  1  0
  3  2  2  0
  5  6  1  1
  5  7  1  0
  5  4  1  0
  7 11  1  0
  8  7  2  0
 10  9  1  6
 11 10  1  0
 12 14  1  0
 12 10  1  0
 13 12  2  0
 15 14  1  0
 15 18  1  0
 15 16  1  1
 17 16  1  0
 18 20  1  0
 19 18  2  0
M  END
$$$$
