HAT.pdb
     RDKit          3D

 23 23  0  0  1  0  0  0  0  0999 V2000
   19.2725  -14.8042  -17.6664 N   0  0  0  0  0  0  0  0  0  0  0  0
   19.3723  -14.0862  -16.4209 C   0  0  1  0  0  0  0  0  0  0  0  0
   20.6043  -14.5301  -15.6932 C   0  0  0  0  0  0  0  0  0  0  0  0
   20.4210  -15.9588  -15.3250 C   0  0  0  0  0  0  0  0  0  0  0  0
   19.6488  -16.4910  -14.2939 C   0  0  0  0  0  0  0  0  0  0  0  0
   19.7559  -17.8372  -14.3023 N   0  0  0  0  0  0  0  0  0  0  0  0
   20.5738  -18.1660  -15.3096 C   0  0  0  0  0  0  0  0  0  0  0  0
   20.9697  -17.0543  -15.9179 N   0  0  0  0  0  0  0  0  0  0  0  0
   19.3694  -12.6273  -16.7036 C   0  0  0  0  0  0  0  0  0  0  0  0
   20.2361  -12.0968  -17.4528 O   0  0  0  0  0  0  0  0  0  0  0  0
   16.9502   -9.7640  -16.2845 C   0  0  0  0  0  0  0  0  0  0  0  0
   18.3262  -10.3477  -16.4389 C   0  0  2  0  0  0  0  0  0  0  0  0
   18.3961  -11.7435  -16.1511 N   0  0  0  0  0  0  0  0  0  0  0  0
   19.3088   -9.5667  -15.6006 C   0  0  0  0  0  0  0  0  0  0  0  0
   19.5069   -9.8600  -14.4029 O   0  0  0  0  0  0  0  0  0  0  0  0
   22.8622   -8.5959  -16.7955 C   0  0  0  0  0  0  0  0  0  0  0  0
   22.1668   -7.3101  -16.3667 C   0  0  1  0  0  0  0  0  0  0  0  0
   21.7298   -6.7361  -17.5917 O   0  0  0  0  0  0  0  0  0  0  0  0
   20.9871   -7.6565  -15.5398 C   0  0  2  0  0  0  0  0  0  0  0  0
   20.0191   -8.4879  -16.1686 N   0  0  0  0  0  0  0  0  0  0  0  0
   20.4336   -6.4294  -14.8912 C   0  0  0  0  0  0  0  0  0  0  0  0
   19.2381   -6.0738  -15.0545 O   0  0  0  0  0  0  0  0  0  0  0  0
   21.1954   -5.6105  -14.0795 O   0  0  0  0  0  0  0  0  0  0  0  0
  2  1  1  6
  2  3  1  0
  3  4  1  0
  4  8  1  0
  4  5  2  0
  5  6  1  0
  7  6  1  0
  8  7  2  0
  9  2  1  0
  9 13  1  0
 10  9  2  0
 12 11  1  1
 12 13  1  0
 12 14  1  0
 14 20  1  0
 15 14  2  0
 17 18  1  0
 17 16  1  6
 19 17  1  0
 19 20  1  6
 21 19  1  0
 21 23  1  0
 22 21  2  0
M  END
$$$$
