HAT.pdb
     RDKit          3D

 23 23  0  0  1  0  0  0  0  0999 V2000
   17.7373  -12.3032  -17.9142 N   0  0  0  0  0  0  0  0  0  0  0  0
   17.5240  -11.6209  -16.6629 C   0  0  1  0  0  0  0  0  0  0  0  0
   18.1167  -12.4321  -15.5517 C   0  0  0  0  0  0  0  0  0  0  0  0
   17.2017  -13.5739  -15.2884 C   0  0  0  0  0  0  0  0  0  0  0  0
   15.9338  -13.8028  -15.8203 C   0  0  0  0  0  0  0  0  0  0  0  0
   15.4400  -14.9567  -15.3219 N   0  0  0  0  0  0  0  0  0  0  0  0
   16.3619  -15.4594  -14.4918 C   0  0  0  0  0  0  0  0  0  0  0  0
   17.4075  -14.6417  -14.4699 N   0  0  0  0  0  0  0  0  0  0  0  0
   18.1091  -10.2577  -16.7510 C   0  0  0  0  0  0  0  0  0  0  0  0
   19.3063  -10.0733  -17.1068 O   0  0  0  0  0  0  0  0  0  0  0  0
   16.8262   -6.6889  -16.5243 C   0  0  0  0  0  0  0  0  0  0  0  0
   17.8826   -7.7575  -16.5216 C   0  0  2  0  0  0  0  0  0  0  0  0
   17.3613   -9.0833  -16.4420 N   0  0  0  0  0  0  0  0  0  0  0  0
   18.8738   -7.4923  -15.4148 C   0  0  0  0  0  0  0  0  0  0  0  0
   18.6348   -7.8439  -14.2404 O   0  0  0  0  0  0  0  0  0  0  0  0
   22.2067   -8.6798  -14.9330 C   0  0  0  0  0  0  0  0  0  0  0  0
   22.4243   -7.1737  -15.0047 C   0  0  1  0  0  0  0  0  0  0  0  0
   22.8523   -6.9562  -16.3429 O   0  0  0  0  0  0  0  0  0  0  0  0
   21.1268   -6.4917  -14.7885 C   0  0  2  0  0  0  0  0  0  0  0  0
   20.0913   -6.8385  -15.7001 N   0  0  0  0  0  0  0  0  0  0  0  0
   21.3394   -5.0234  -14.6099 C   0  0  0  0  0  0  0  0  0  0  0  0
   22.0505   -4.5638  -13.6797 O   0  0  0  0  0  0  0  0  0  0  0  0
   20.7692   -4.0833  -15.4472 O   0  0  0  0  0  0  0  0  0  0  0  0
  2  1  1  6
  2  3  1  0
  3  4  1  0
  4  8  1  0
  4  5  2  0
  5  6  1  0
  7  6  1  0
  8  7  2  0
  9  2  1  0
  9 13  1  0
 10  9  2  0
 12 11  1  1
 12 13  1  0
 12 14  1  0
 14 20  1  0
 15 14  2  0
 17 18  1  0
 17 16  1  6
 19 17  1  0
 19 20  1  6
 21 19  1  0
 21 23  1  0
 22 21  2  0
M  END
$$$$
