HAT.pdb
     RDKit          3D

 23 23  0  0  1  0  0  0  0  0999 V2000
   13.8097   -8.7008  -11.8763 N   0  0  0  0  0  0  0  0  0  0  0  0
   14.6484   -8.5928  -10.7095 C   0  0  1  0  0  0  0  0  0  0  0  0
   15.1304   -9.9570  -10.3208 C   0  0  0  0  0  0  0  0  0  0  0  0
   13.9667  -10.7114   -9.7854 C   0  0  0  0  0  0  0  0  0  0  0  0
   13.2813  -10.5041   -8.5895 C   0  0  0  0  0  0  0  0  0  0  0  0
   12.2848  -11.4092   -8.4810 N   0  0  0  0  0  0  0  0  0  0  0  0
   12.3247  -12.1794   -9.5750 C   0  0  0  0  0  0  0  0  0  0  0  0
   13.3209  -11.7681  -10.3503 N   0  0  0  0  0  0  0  0  0  0  0  0
   15.7628   -7.6541  -11.0017 C   0  0  0  0  0  0  0  0  0  0  0  0
   16.3419   -7.6433  -12.1234 O   0  0  0  0  0  0  0  0  0  0  0  0
   17.3197   -4.6507   -9.2639 C   0  0  0  0  0  0  0  0  0  0  0  0
   17.2235   -5.7164  -10.3188 C   0  0  2  0  0  0  0  0  0  0  0  0
   16.2432   -6.7154  -10.0416 N   0  0  0  0  0  0  0  0  0  0  0  0
   18.5824   -6.3324  -10.5473 C   0  0  0  0  0  0  0  0  0  0  0  0
   19.1225   -7.0401   -9.6713 O   0  0  0  0  0  0  0  0  0  0  0  0
   19.7927   -8.7206  -12.9240 C   0  0  0  0  0  0  0  0  0  0  0  0
   20.6380   -7.4973  -13.2559 C   0  0  1  0  0  0  0  0  0  0  0  0
   19.9869   -6.9317  -14.3861 O   0  0  0  0  0  0  0  0  0  0  0  0
   20.5677   -6.5451  -12.1229 C   0  0  2  0  0  0  0  0  0  0  0  0
   19.2609   -6.1120  -11.7647 N   0  0  0  0  0  0  0  0  0  0  0  0
   21.5632   -5.4465  -12.3100 C   0  0  0  0  0  0  0  0  0  0  0  0
   21.2146   -4.2403  -12.3854 O   0  0  0  0  0  0  0  0  0  0  0  0
   22.9205   -5.6843  -12.4154 O   0  0  0  0  0  0  0  0  0  0  0  0
  2  1  1  6
  2  3  1  0
  3  4  1  0
  4  8  1  0
  4  5  2  0
  5  6  1  0
  7  6  1  0
  8  7  2  0
  9  2  1  0
  9 13  1  0
 10  9  2  0
 12 11  1  1
 12 13  1  0
 12 14  1  0
 14 20  1  0
 15 14  2  0
 17 18  1  0
 17 16  1  1
 19 17  1  0
 19 20  1  6
 21 19  1  0
 21 23  1  0
 22 21  2  0
M  END
$$$$
