HAT.pdb
     RDKit          3D

 23 23  0  0  1  0  0  0  0  0999 V2000
   15.3738  -18.7410    2.8864 N   0  0  0  0  0  0  0  0  0  0  0  0
   16.2272  -19.5202    3.7473 C   0  0  1  0  0  0  0  0  0  0  0  0
   17.2854  -20.1855    2.9214 C   0  0  0  0  0  0  0  0  0  0  0  0
   16.6151  -21.1860    2.0496 C   0  0  0  0  0  0  0  0  0  0  0  0
   16.3343  -21.0919    0.6876 C   0  0  0  0  0  0  0  0  0  0  0  0
   15.7151  -22.2202    0.2784 N   0  0  0  0  0  0  0  0  0  0  0  0
   15.5989  -23.0207    1.3449 C   0  0  0  0  0  0  0  0  0  0  0  0
   16.1317  -22.4102    2.3966 N   0  0  0  0  0  0  0  0  0  0  0  0
   16.7938  -18.6329    4.7961 C   0  0  0  0  0  0  0  0  0  0  0  0
   17.2918  -17.5080    4.5129 O   0  0  0  0  0  0  0  0  0  0  0  0
   16.3289  -17.8567    8.2975 C   0  0  0  0  0  0  0  0  0  0  0  0
   17.3252  -18.1630    7.2151 C   0  0  2  0  0  0  0  0  0  0  0  0
   16.8101  -18.9938    6.1757 N   0  0  0  0  0  0  0  0  0  0  0  0
   18.5723  -18.7574    7.8228 C   0  0  0  0  0  0  0  0  0  0  0  0
   18.8717  -19.9550    7.6328 O   0  0  0  0  0  0  0  0  0  0  0  0
   21.7223  -18.6237    7.1055 C   0  0  0  0  0  0  0  0  0  0  0  0
   21.8718  -18.0783    8.5201 C   0  0  1  0  0  0  0  0  0  0  0  0
   22.0149  -16.6767    8.3298 O   0  0  0  0  0  0  0  0  0  0  0  0
   20.6225  -18.3455    9.2707 C   0  0  2  0  0  0  0  0  0  0  0  0
   19.4193  -17.9572    8.6188 N   0  0  0  0  0  0  0  0  0  0  0  0
   20.7551  -17.8663   10.6799 C   0  0  0  0  0  0  0  0  0  0  0  0
   21.6706  -18.2781   11.4379 O   0  0  0  0  0  0  0  0  0  0  0  0
   19.8841  -16.9497   11.2376 O   0  0  0  0  0  0  0  0  0  0  0  0
  2  1  1  6
  2  3  1  0
  3  4  1  0
  4  8  1  0
  4  5  2  0
  5  6  1  0
  7  6  1  0
  8  7  2  0
  9  2  1  0
  9 13  1  0
 10  9  2  0
 12 11  1  1
 12 13  1  0
 12 14  1  0
 14 20  1  0
 15 14  2  0
 17 18  1  0
 17 16  1  6
 19 17  1  0
 19 20  1  6
 21 19  1  0
 21 23  1  0
 22 21  2  0
M  END
$$$$
