HAT.pdb
     RDKit          3D

 23 23  0  0  1  0  0  0  0  0999 V2000
   15.0057  -13.0313  -16.6503 N   0  0  0  0  0  0  0  0  0  0  0  0
   15.2488  -11.9436  -15.7367 C   0  0  1  0  0  0  0  0  0  0  0  0
   15.4367  -12.4925  -14.3555 C   0  0  0  0  0  0  0  0  0  0  0  0
   14.1195  -12.9994  -13.8881 C   0  0  0  0  0  0  0  0  0  0  0  0
   13.0630  -12.2753  -13.3384 C   0  0  0  0  0  0  0  0  0  0  0  0
   12.0468  -13.1157  -13.0472 N   0  0  0  0  0  0  0  0  0  0  0  0
   12.4350  -14.3477  -13.3985 C   0  0  0  0  0  0  0  0  0  0  0  0
   13.6635  -14.2819  -13.8974 N   0  0  0  0  0  0  0  0  0  0  0  0
   16.4262  -11.1703  -16.2100 C   0  0  0  0  0  0  0  0  0  0  0  0
   17.5154  -11.7369  -16.5038 O   0  0  0  0  0  0  0  0  0  0  0  0
   17.1665   -7.5701  -17.1825 C   0  0  0  0  0  0  0  0  0  0  0  0
   17.5220   -8.9676  -16.7596 C   0  0  2  0  0  0  0  0  0  0  0  0
   16.3993   -9.7523  -16.3603 N   0  0  0  0  0  0  0  0  0  0  0  0
   18.5704   -8.9212  -15.6748 C   0  0  0  0  0  0  0  0  0  0  0  0
   18.2473   -8.9305  -14.4683 O   0  0  0  0  0  0  0  0  0  0  0  0
   23.3118   -9.4600  -14.5048 C   0  0  0  0  0  0  0  0  0  0  0  0
   22.3245   -9.3295  -15.6577 C   0  0  1  0  0  0  0  0  0  0  0  0
   22.1155  -10.6711  -16.0788 O   0  0  0  0  0  0  0  0  0  0  0  0
   21.0523   -8.7754  -15.1380 C   0  0  2  0  0  0  0  0  0  0  0  0
   19.9380   -8.8666  -16.0177 N   0  0  0  0  0  0  0  0  0  0  0  0
   21.2808   -7.4192  -14.5538 C   0  0  0  0  0  0  0  0  0  0  0  0
   21.2595   -6.3793  -15.2612 O   0  0  0  0  0  0  0  0  0  0  0  0
   21.5324   -7.2226  -13.2092 O   0  0  0  0  0  0  0  0  0  0  0  0
  2  1  1  6
  2  3  1  0
  3  4  1  0
  4  8  1  0
  4  5  2  0
  5  6  1  0
  7  6  1  0
  8  7  2  0
  9  2  1  0
  9 13  1  0
 10  9  2  0
 12 11  1  1
 12 13  1  0
 12 14  1  0
 14 20  1  0
 15 14  2  0
 17 18  1  0
 17 16  1  1
 19 17  1  0
 19 20  1  6
 21 19  1  0
 21 23  1  0
 22 21  2  0
M  END
$$$$
