HAT.pdb
     RDKit          3D

 23 23  0  0  1  0  0  0  0  0999 V2000
   20.2984  -10.4484  -18.2944 N   0  0  0  0  0  0  0  0  0  0  0  0
   20.2680   -9.4217  -17.2836 C   0  0  1  0  0  0  0  0  0  0  0  0
   20.4942  -10.0454  -15.9404 C   0  0  0  0  0  0  0  0  0  0  0  0
   19.3590  -10.9676  -15.6739 C   0  0  0  0  0  0  0  0  0  0  0  0
   17.9935  -10.7005  -15.7575 C   0  0  0  0  0  0  0  0  0  0  0  0
   17.2985  -11.8121  -15.4336 N   0  0  0  0  0  0  0  0  0  0  0  0
   18.1887  -12.7703  -15.1488 C   0  0  0  0  0  0  0  0  0  0  0  0
   19.4112  -12.2725  -15.2903 N   0  0  0  0  0  0  0  0  0  0  0  0
   21.2850   -8.3897  -17.6137 C   0  0  0  0  0  0  0  0  0  0  0  0
   22.5206   -8.6478  -17.5927 O   0  0  0  0  0  0  0  0  0  0  0  0
   21.4062   -5.2216  -19.5333 C   0  0  0  0  0  0  0  0  0  0  0  0
   21.8700   -6.0588  -18.3749 C   0  0  2  0  0  0  0  0  0  0  0  0
   20.9317   -7.0552  -17.9716 N   0  0  0  0  0  0  0  0  0  0  0  0
   22.2494   -5.1652  -17.2191 C   0  0  0  0  0  0  0  0  0  0  0  0
   23.1194   -4.2789  -17.3509 O   0  0  0  0  0  0  0  0  0  0  0  0
   20.4432   -2.7522  -15.4572 C   0  0  0  0  0  0  0  0  0  0  0  0
   20.7928   -3.7012  -14.3179 C   0  0  1  0  0  0  0  0  0  0  0  0
   19.6009   -4.4515  -14.1236 O   0  0  0  0  0  0  0  0  0  0  0  0
   21.8752   -4.6086  -14.7657 C   0  0  2  0  0  0  0  0  0  0  0  0
   21.6181   -5.3252  -15.9674 N   0  0  0  0  0  0  0  0  0  0  0  0
   22.3496   -5.4481  -13.6242 C   0  0  0  0  0  0  0  0  0  0  0  0
   22.4146   -6.7017  -13.7039 O   0  0  0  0  0  0  0  0  0  0  0  0
   22.7409   -4.9048  -12.4152 O   0  0  0  0  0  0  0  0  0  0  0  0
  2  1  1  6
  2  3  1  0
  3  4  1  0
  4  8  1  0
  4  5  2  0
  5  6  1  0
  7  6  1  0
  8  7  2  0
  9  2  1  0
  9 13  1  0
 10  9  2  0
 12 11  1  6
 12 13  1  0
 12 14  1  0
 14 20  1  0
 15 14  2  0
 17 18  1  0
 17 16  1  6
 19 17  1  0
 19 20  1  6
 21 19  1  0
 21 23  1  0
 22 21  2  0
M  END
$$$$
