HAT.pdb
     RDKit          3D

 23 23  0  0  1  0  0  0  0  0999 V2000
   25.9277  -15.7098  -18.8169 N   0  0  0  0  0  0  0  0  0  0  0  0
   25.7721  -16.7940  -17.8805 C   0  0  1  0  0  0  0  0  0  0  0  0
   26.6983  -16.5820  -16.7223 C   0  0  0  0  0  0  0  0  0  0  0  0
   28.0899  -16.6217  -17.2439 C   0  0  0  0  0  0  0  0  0  0  0  0
   28.6486  -17.5304  -18.1411 C   0  0  0  0  0  0  0  0  0  0  0  0
   29.9438  -17.2126  -18.3533 N   0  0  0  0  0  0  0  0  0  0  0  0
   30.2149  -16.1297  -17.6146 C   0  0  0  0  0  0  0  0  0  0  0  0
   29.1177  -15.7770  -16.9558 N   0  0  0  0  0  0  0  0  0  0  0  0
   24.3471  -16.8728  -17.4663 C   0  0  0  0  0  0  0  0  0  0  0  0
   23.8051  -15.9598  -16.7834 O   0  0  0  0  0  0  0  0  0  0  0  0
   21.2162  -18.1391  -18.6695 C   0  0  0  0  0  0  0  0  0  0  0  0
   22.1266  -18.0661  -17.4762 C   0  0  2  0  0  0  0  0  0  0  0  0
   23.5105  -17.9749  -17.8116 N   0  0  0  0  0  0  0  0  0  0  0  0
   21.8619  -19.2362  -16.5602 C   0  0  0  0  0  0  0  0  0  0  0  0
   22.5231  -20.2912  -16.6582 O   0  0  0  0  0  0  0  0  0  0  0  0
   22.3541  -19.9200  -13.2838 C   0  0  0  0  0  0  0  0  0  0  0  0
   20.8401  -20.0878  -13.3052 C   0  0  1  0  0  0  0  0  0  0  0  0
   20.3569  -18.8794  -12.7330 O   0  0  0  0  0  0  0  0  0  0  0  0
   20.3882  -20.1779  -14.7135 C   0  0  2  0  0  0  0  0  0  0  0  0
   20.8553  -19.1471  -15.5754 N   0  0  0  0  0  0  0  0  0  0  0  0
   18.9148  -20.4212  -14.7677 C   0  0  0  0  0  0  0  0  0  0  0  0
   18.1275  -19.6088  -15.3177 O   0  0  0  0  0  0  0  0  0  0  0  0
   18.3269  -21.5443  -14.2175 O   0  0  0  0  0  0  0  0  0  0  0  0
  2  1  1  6
  2  3  1  0
  3  4  1  0
  4  8  1  0
  4  5  2  0
  5  6  1  0
  7  6  1  0
  8  7  2  0
  9  2  1  0
  9 13  1  0
 10  9  2  0
 12 11  1  6
 12 13  1  0
 12 14  1  0
 14 20  1  0
 15 14  2  0
 17 18  1  0
 17 16  1  6
 19 17  1  0
 19 20  1  6
 21 19  1  0
 21 23  1  0
 22 21  2  0
M  END
$$$$
