HAT.pdb
     RDKit          3D

 23 23  0  0  1  0  0  0  0  0999 V2000
   25.1043  -21.1026   -9.2678 N   0  0  0  0  0  0  0  0  0  0  0  0
   26.0908  -20.2839   -9.9259 C   0  0  1  0  0  0  0  0  0  0  0  0
   27.4527  -20.6516   -9.4215 C   0  0  0  0  0  0  0  0  0  0  0  0
   27.5989  -20.0785   -8.0575 C   0  0  0  0  0  0  0  0  0  0  0  0
   26.7374  -20.2112   -6.9699 C   0  0  0  0  0  0  0  0  0  0  0  0
   27.2392  -19.5337   -5.9150 N   0  0  0  0  0  0  0  0  0  0  0  0
   28.3919  -18.9789   -6.3090 C   0  0  0  0  0  0  0  0  0  0  0  0
   28.6078  -19.3002   -7.5789 N   0  0  0  0  0  0  0  0  0  0  0  0
   25.9591  -20.4577  -11.3958 C   0  0  0  0  0  0  0  0  0  0  0  0
   26.6397  -19.7703  -12.2070 O   0  0  0  0  0  0  0  0  0  0  0  0
   24.4379  -22.7869  -13.9057 C   0  0  0  0  0  0  0  0  0  0  0  0
   24.6897  -21.4123  -13.3535 C   0  0  2  0  0  0  0  0  0  0  0  0
   25.0635  -21.4036  -11.9765 N   0  0  0  0  0  0  0  0  0  0  0  0
   23.4860  -20.5354  -13.5988 C   0  0  0  0  0  0  0  0  0  0  0  0
   23.0618  -19.7639  -12.7129 O   0  0  0  0  0  0  0  0  0  0  0  0
   22.8488  -17.7571  -15.6963 C   0  0  0  0  0  0  0  0  0  0  0  0
   21.8967  -18.8018  -16.2644 C   0  0  1  0  0  0  0  0  0  0  0  0
   22.6172  -19.3597  -17.3556 O   0  0  0  0  0  0  0  0  0  0  0  0
   21.6692  -19.8491  -15.2412 C   0  0  2  0  0  0  0  0  0  0  0  0
   22.8229  -20.5801  -14.8435 N   0  0  0  0  0  0  0  0  0  0  0  0
   20.4924  -20.6900  -15.6167 C   0  0  0  0  0  0  0  0  0  0  0  0
   20.6014  -21.9234  -15.8385 O   0  0  0  0  0  0  0  0  0  0  0  0
   19.2190  -20.1693  -15.7471 O   0  0  0  0  0  0  0  0  0  0  0  0
  2  1  1  1
  2  3  1  0
  3  4  1  0
  4  8  1  0
  4  5  2  0
  5  6  1  0
  7  6  1  0
  8  7  2  0
  9  2  1  0
  9 13  1  0
 10  9  2  0
 12 11  1  1
 12 13  1  0
 12 14  1  0
 14 20  1  0
 15 14  2  0
 17 18  1  0
 17 16  1  1
 19 17  1  0
 19 20  1  6
 21 19  1  0
 21 23  1  0
 22 21  2  0
M  END
$$$$
