HAT.pdb
     RDKit          3D

 23 23  0  0  1  0  0  0  0  0999 V2000
   27.2633  -21.1268  -16.8905 N   0  0  0  0  0  0  0  0  0  0  0  0
   27.0314  -20.2865  -15.7430 C   0  0  1  0  0  0  0  0  0  0  0  0
   26.5796  -18.9349  -16.2048 C   0  0  0  0  0  0  0  0  0  0  0  0
   27.7122  -18.3048  -16.9330 C   0  0  0  0  0  0  0  0  0  0  0  0
   28.8124  -17.6342  -16.4013 C   0  0  0  0  0  0  0  0  0  0  0  0
   29.6101  -17.2136  -17.4066 N   0  0  0  0  0  0  0  0  0  0  0  0
   29.0422  -17.6010  -18.5551 C   0  0  0  0  0  0  0  0  0  0  0  0
   27.9168  -18.2482  -18.2775 N   0  0  0  0  0  0  0  0  0  0  0  0
   26.0413  -20.9475  -14.8535 C   0  0  0  0  0  0  0  0  0  0  0  0
   25.0095  -21.5102  -15.3145 O   0  0  0  0  0  0  0  0  0  0  0  0
   25.5756  -21.3353  -11.0859 C   0  0  0  0  0  0  0  0  0  0  0  0
   25.1551  -21.3520  -12.5284 C   0  0  2  0  0  0  0  0  0  0  0  0
   26.1937  -20.9870  -13.4360 N   0  0  0  0  0  0  0  0  0  0  0  0
   23.9356  -20.4823  -12.7146 C   0  0  0  0  0  0  0  0  0  0  0  0
   24.0129  -19.2392  -12.6219 O   0  0  0  0  0  0  0  0  0  0  0  0
   22.2137  -19.0947  -15.0124 C   0  0  0  0  0  0  0  0  0  0  0  0
   21.0745  -19.9544  -14.4793 C   0  0  1  0  0  0  0  0  0  0  0  0
   21.0445  -21.0654  -15.3659 O   0  0  0  0  0  0  0  0  0  0  0  0
   21.4251  -20.4234  -13.1182 C   0  0  2  0  0  0  0  0  0  0  0  0
   22.6854  -21.0720  -12.9977 N   0  0  0  0  0  0  0  0  0  0  0  0
   20.2769  -21.1674  -12.5174 C   0  0  0  0  0  0  0  0  0  0  0  0
   20.3857  -22.3612  -12.1363 O   0  0  0  0  0  0  0  0  0  0  0  0
   19.0299  -20.5967  -12.3469 O   0  0  0  0  0  0  0  0  0  0  0  0
  2  1  1  6
  2  3  1  0
  3  4  1  0
  4  8  1  0
  4  5  2  0
  5  6  1  0
  7  6  1  0
  8  7  2  0
  9  2  1  0
  9 13  1  0
 10  9  2  0
 12 11  1  1
 12 13  1  0
 12 14  1  0
 14 20  1  0
 15 14  2  0
 17 18  1  0
 17 16  1  6
 19 17  1  0
 19 20  1  6
 21 19  1  0
 21 23  1  0
 22 21  2  0
M  END
$$$$
