HAT.pdb
     RDKit          3D

 23 23  0  0  1  0  0  0  0  0999 V2000
   15.9058  -12.2901  -13.7411 N   0  0  0  0  0  0  0  0  0  0  0  0
   15.2350  -11.0400  -13.9940 C   0  0  1  0  0  0  0  0  0  0  0  0
   13.7863  -11.1770  -13.6381 C   0  0  0  0  0  0  0  0  0  0  0  0
   13.1647  -12.1007  -14.6233 C   0  0  0  0  0  0  0  0  0  0  0  0
   12.7504  -11.8214  -15.9245 C   0  0  0  0  0  0  0  0  0  0  0  0
   12.2373  -12.9395  -16.4815 N   0  0  0  0  0  0  0  0  0  0  0  0
   12.3174  -13.9137  -15.5669 C   0  0  0  0  0  0  0  0  0  0  0  0
   12.8669  -13.4193  -14.4641 N   0  0  0  0  0  0  0  0  0  0  0  0
   15.9137   -9.9644  -13.2254 C   0  0  0  0  0  0  0  0  0  0  0  0
   16.1848  -10.0973  -11.9996 O   0  0  0  0  0  0  0  0  0  0  0  0
   17.6575   -6.6912  -14.0106 C   0  0  0  0  0  0  0  0  0  0  0  0
   16.9467   -7.6675  -13.1164 C   0  0  2  0  0  0  0  0  0  0  0  0
   16.2976   -8.7260  -13.8193 N   0  0  0  0  0  0  0  0  0  0  0  0
   15.9790   -6.9302  -12.2231 C   0  0  0  0  0  0  0  0  0  0  0  0
   14.7879   -6.7678  -12.5620 O   0  0  0  0  0  0  0  0  0  0  0  0
   15.4890   -7.6131   -8.4630 C   0  0  0  0  0  0  0  0  0  0  0  0
   15.8675   -6.1443   -8.6048 C   0  0  1  0  0  0  0  0  0  0  0  0
   17.2613   -6.1247   -8.3255 O   0  0  0  0  0  0  0  0  0  0  0  0
   15.6434   -5.7255  -10.0084 C   0  0  2  0  0  0  0  0  0  0  0  0
   16.4159   -6.4130  -10.9852 N   0  0  0  0  0  0  0  0  0  0  0  0
   15.6808   -4.2354  -10.1142 C   0  0  0  0  0  0  0  0  0  0  0  0
   16.4791   -3.6443  -10.8859 O   0  0  0  0  0  0  0  0  0  0  0  0
   14.8491   -3.4173   -9.3733 O   0  0  0  0  0  0  0  0  0  0  0  0
  2  1  1  1
  2  3  1  0
  3  4  1  0
  4  8  1  0
  4  5  2  0
  5  6  1  0
  7  6  1  0
  8  7  2  0
  9  2  1  0
  9 13  1  0
 10  9  2  0
 12 11  1  6
 12 13  1  0
 12 14  1  0
 14 20  1  0
 15 14  2  0
 17 18  1  0
 17 16  1  6
 19 17  1  0
 19 20  1  6
 21 19  1  0
 21 23  1  0
 22 21  2  0
M  END
$$$$
