HAT.pdb
     RDKit          3D

 23 23  0  0  1  0  0  0  0  0999 V2000
   17.3023  -13.5839  -17.0288 N   0  0  0  0  0  0  0  0  0  0  0  0
   18.3401  -12.9374  -16.2660 C   0  0  1  0  0  0  0  0  0  0  0  0
   19.6742  -13.4502  -16.7149 C   0  0  0  0  0  0  0  0  0  0  0  0
   19.7207  -14.9065  -16.4198 C   0  0  0  0  0  0  0  0  0  0  0  0
   19.7486  -15.5333  -15.1752 C   0  0  0  0  0  0  0  0  0  0  0  0
   19.7883  -16.8721  -15.3480 N   0  0  0  0  0  0  0  0  0  0  0  0
   19.7862  -17.1043  -16.6663 C   0  0  0  0  0  0  0  0  0  0  0  0
   19.7462  -15.9408  -17.3043 N   0  0  0  0  0  0  0  0  0  0  0  0
   18.2099  -11.4657  -16.4250 C   0  0  0  0  0  0  0  0  0  0  0  0
   18.5073  -10.8883  -17.5076 O   0  0  0  0  0  0  0  0  0  0  0  0
   16.4100   -8.6863  -14.6669 C   0  0  0  0  0  0  0  0  0  0  0  0
   17.5371   -9.2161  -15.5077 C   0  0  2  0  0  0  0  0  0  0  0  0
   17.7451  -10.6213  -15.3739 N   0  0  0  0  0  0  0  0  0  0  0  0
   18.8007   -8.4457  -15.2112 C   0  0  0  0  0  0  0  0  0  0  0  0
   19.5586   -8.7885  -14.2796 O   0  0  0  0  0  0  0  0  0  0  0  0
   21.4588   -7.4583  -17.7029 C   0  0  0  0  0  0  0  0  0  0  0  0
   21.0161   -6.1487  -17.0628 C   0  0  1  0  0  0  0  0  0  0  0  0
   20.1398   -5.5793  -18.0266 O   0  0  0  0  0  0  0  0  0  0  0  0
   20.2552   -6.4524  -15.8281 C   0  0  2  0  0  0  0  0  0  0  0  0
   19.1400   -7.3202  -15.9918 N   0  0  0  0  0  0  0  0  0  0  0  0
   19.9651   -5.1930  -15.0781 C   0  0  0  0  0  0  0  0  0  0  0  0
   18.7890   -4.8326  -14.8153 O   0  0  0  0  0  0  0  0  0  0  0  0
   20.9633   -4.3477  -14.6320 O   0  0  0  0  0  0  0  0  0  0  0  0
  2  1  1  6
  2  3  1  0
  3  4  1  0
  4  8  1  0
  4  5  2  0
  5  6  1  0
  7  6  1  0
  8  7  2  0
  9  2  1  0
  9 13  1  0
 10  9  2  0
 12 11  1  1
 12 13  1  0
 12 14  1  0
 14 20  1  0
 15 14  2  0
 17 18  1  0
 17 16  1  6
 19 17  1  0
 19 20  1  6
 21 19  1  0
 21 23  1  0
 22 21  2  0
M  END
$$$$
