HAT.pdb
     RDKit          3D

 23 23  0  0  1  0  0  0  0  0999 V2000
   35.0297  -11.2236  -18.8902 N   0  0  0  0  0  0  0  0  0  0  0  0
   34.3096  -10.6676  -17.7726 C   0  0  1  0  0  0  0  0  0  0  0  0
   35.1656   -9.6413  -17.0958 C   0  0  0  0  0  0  0  0  0  0  0  0
   36.3492  -10.3418  -16.5313 C   0  0  0  0  0  0  0  0  0  0  0  0
   37.6983  -10.0623  -16.7428 C   0  0  0  0  0  0  0  0  0  0  0  0
   38.4526  -10.9372  -16.0434 N   0  0  0  0  0  0  0  0  0  0  0  0
   37.6156  -11.7587  -15.3982 C   0  0  0  0  0  0  0  0  0  0  0  0
   36.3678  -11.4082  -15.6856 N   0  0  0  0  0  0  0  0  0  0  0  0
   33.0219  -10.1076  -18.2591 C   0  0  0  0  0  0  0  0  0  0  0  0
   32.9579   -9.4125  -19.3109 O   0  0  0  0  0  0  0  0  0  0  0  0
   29.3516  -10.3363  -17.2826 C   0  0  0  0  0  0  0  0  0  0  0  0
   30.5484   -9.7267  -17.9563 C   0  0  2  0  0  0  0  0  0  0  0  0
   31.7890  -10.3187  -17.5739 N   0  0  0  0  0  0  0  0  0  0  0  0
   30.5599   -8.2353  -17.7246 C   0  0  0  0  0  0  0  0  0  0  0  0
   30.8846   -7.7598  -16.6163 O   0  0  0  0  0  0  0  0  0  0  0  0
   32.5435   -5.7041  -19.3249 C   0  0  0  0  0  0  0  0  0  0  0  0
   31.1253   -5.2639  -19.6650 C   0  0  1  0  0  0  0  0  0  0  0  0
   30.9235   -5.7579  -20.9827 O   0  0  0  0  0  0  0  0  0  0  0  0
   30.1811   -5.9346  -18.7407 C   0  0  2  0  0  0  0  0  0  0  0  0
   30.2003   -7.3567  -18.7685 N   0  0  0  0  0  0  0  0  0  0  0  0
   28.8227   -5.3232  -18.8578 C   0  0  0  0  0  0  0  0  0  0  0  0
   27.8146   -6.0023  -19.1816 O   0  0  0  0  0  0  0  0  0  0  0  0
   28.5896   -3.9813  -18.6235 O   0  0  0  0  0  0  0  0  0  0  0  0
  2  1  1  6
  2  3  1  0
  3  4  1  0
  4  8  1  0
  4  5  2  0
  5  6  1  0
  7  6  1  0
  8  7  2  0
  9  2  1  0
  9 13  1  0
 10  9  2  0
 12 11  1  1
 12 13  1  0
 12 14  1  0
 14 20  1  0
 15 14  2  0
 17 18  1  0
 17 16  1  1
 19 17  1  0
 19 20  1  6
 21 19  1  0
 21 23  1  0
 22 21  2  0
M  END
$$$$
