HAT.pdb
     RDKit          3D

 23 23  0  0  1  0  0  0  0  0999 V2000
   17.9793  -10.5711  -17.5163 N   0  0  0  0  0  0  0  0  0  0  0  0
   17.8913  -10.1410  -16.1437 C   0  0  1  0  0  0  0  0  0  0  0  0
   18.7464  -11.0293  -15.2928 C   0  0  0  0  0  0  0  0  0  0  0  0
   18.1061  -12.3704  -15.2546 C   0  0  0  0  0  0  0  0  0  0  0  0
   16.7491  -12.6802  -15.3294 C   0  0  0  0  0  0  0  0  0  0  0  0
   16.5903  -14.0194  -15.2580 N   0  0  0  0  0  0  0  0  0  0  0  0
   17.8092  -14.5600  -15.1404 C   0  0  0  0  0  0  0  0  0  0  0  0
   18.7099  -13.5848  -15.1382 N   0  0  0  0  0  0  0  0  0  0  0  0
   18.2901   -8.7119  -16.0596 C   0  0  0  0  0  0  0  0  0  0  0  0
   19.3166   -8.2755  -16.6510 O   0  0  0  0  0  0  0  0  0  0  0  0
   16.7504   -5.4909  -14.7844 C   0  0  0  0  0  0  0  0  0  0  0  0
   17.8904   -6.3723  -15.2102 C   0  0  2  0  0  0  0  0  0  0  0  0
   17.5448   -7.7529  -15.3122 N   0  0  0  0  0  0  0  0  0  0  0  0
   19.0654   -6.1697  -14.2847 C   0  0  0  0  0  0  0  0  0  0  0  0
   19.0924   -6.7014  -13.1549 O   0  0  0  0  0  0  0  0  0  0  0  0
   22.3101   -7.3013  -14.5036 C   0  0  0  0  0  0  0  0  0  0  0  0
   22.5657   -5.7994  -14.4938 C   0  0  1  0  0  0  0  0  0  0  0  0
   22.7417   -5.4763  -15.8670 O   0  0  0  0  0  0  0  0  0  0  0  0
   21.3581   -5.1116  -13.9797 C   0  0  2  0  0  0  0  0  0  0  0  0
   20.1542   -5.3700  -14.6921 N   0  0  0  0  0  0  0  0  0  0  0  0
   21.6494   -3.6651  -13.7443 C   0  0  0  0  0  0  0  0  0  0  0  0
   21.0051   -2.7547  -14.3259 O   0  0  0  0  0  0  0  0  0  0  0  0
   22.6410   -3.2382  -12.8815 O   0  0  0  0  0  0  0  0  0  0  0  0
  2  1  1  6
  2  3  1  0
  3  4  1  0
  4  8  1  0
  4  5  2  0
  5  6  1  0
  7  6  1  0
  8  7  2  0
  9  2  1  0
  9 13  1  0
 10  9  2  0
 12 11  1  1
 12 13  1  0
 12 14  1  0
 14 20  1  0
 15 14  2  0
 17 18  1  0
 17 16  1  6
 19 17  1  0
 19 20  1  6
 21 19  1  0
 21 23  1  0
 22 21  2  0
M  END
$$$$
