DDN.pdb
     RDKit          3D

 25 24  0  0  1  0  0  0  0  0999 V2000
   15.0000  -19.6519   19.4780 N   0  0  0  0  0  0  0  0  0  0  0  0
   14.5872  -20.6651   20.4140 C   0  0  1  0  0  0  0  0  0  0  0  0
   15.8628  -21.4240   20.8063 C   0  0  0  0  0  0  0  0  0  0  0  0
   16.3185  -22.1394   19.6051 C   0  0  0  0  0  0  0  0  0  0  0  0
   15.7207  -22.0267   18.5105 O   0  0  0  0  0  0  0  0  0  0  0  0
   14.0029  -20.0714   21.6557 C   0  0  0  0  0  0  0  0  0  0  0  0
   14.5018  -19.0161   22.1243 O   0  0  0  0  0  0  0  0  0  0  0  0
   17.4288  -22.9569   19.6718 O   0  0  0  0  0  0  0  0  0  0  0  0
   12.9100  -20.6376   22.3381 N   0  0  0  0  0  0  0  0  0  0  0  0
   12.2989  -19.9438   23.4920 C   0  0  1  0  0  0  0  0  0  0  0  0
   10.8060  -20.0291   23.3481 C   0  0  0  0  0  0  0  0  0  0  0  0
   10.2755  -19.3336   22.1699 C   0  0  0  0  0  0  0  0  0  0  0  0
   10.6621  -18.1501   21.9610 O   0  0  0  0  0  0  0  0  0  0  0  0
   12.8494  -20.4996   24.7361 C   0  0  0  0  0  0  0  0  0  0  0  0
   12.9044  -21.7853   24.8043 O   0  0  0  0  0  0  0  0  0  0  0  0
    9.3852  -19.9786   21.3366 O   0  0  0  0  0  0  0  0  0  0  0  0
   11.7934  -20.5664   29.6869 N   0  0  0  0  0  0  0  0  0  0  0  0
   11.0086  -19.8122   28.7900 C   0  0  0  0  0  0  0  0  0  0  0  0
    9.8520  -19.4081   29.1008 O   0  0  0  0  0  0  0  0  0  0  0  0
   11.5453  -19.4853   27.4586 C   0  0  0  0  0  0  0  0  0  0  0  0
   12.9218  -20.0657   27.1971 C   0  0  2  0  0  0  0  0  0  0  0  0
   13.3182  -19.7499   25.8425 N   0  0  0  0  0  0  0  0  0  0  0  0
   13.0245  -21.5039   27.5133 C   0  0  0  0  0  0  0  0  0  0  0  0
   12.2186  -22.4538   26.9128 O   0  0  0  0  0  0  0  0  0  0  0  0
   13.8622  -21.9117   28.3526 O   0  0  0  0  0  0  0  0  0  0  0  0
  2  1  1  6
  2  6  1  0
  3  2  1  0
  4  3  1  0
  4  8  1  0
  5  4  2  0
  6  7  2  0
  9  6  1  0
  9 10  1  0
 10 14  1  0
 10 11  1  1
 12 16  1  0
 12 11  1  0
 13 12  2  0
 14 15  2  0
 14 22  1  0
 18 19  2  0
 18 17  1  0
 21 20  1  6
 20 18  1  0
 21 23  1  0
 22 21  1  0
 23 24  1  0
 25 23  2  0
M  END
$$$$
