DDN.pdb
     RDKit          3D

 25 24  0  0  1  0  0  0  0  0999 V2000
   10.2190  -18.2380   19.5319 N   0  0  0  0  0  0  0  0  0  0  0  0
   10.9338  -19.3322   20.1360 C   0  0  1  0  0  0  0  0  0  0  0  0
   12.3469  -18.8063   20.4252 C   0  0  0  0  0  0  0  0  0  0  0  0
   12.9411  -18.4479   19.1287 C   0  0  0  0  0  0  0  0  0  0  0  0
   12.2312  -18.0967   18.1586 O   0  0  0  0  0  0  0  0  0  0  0  0
   10.3212  -19.7482   21.4349 C   0  0  0  0  0  0  0  0  0  0  0  0
    9.8422  -18.8691   22.1964 O   0  0  0  0  0  0  0  0  0  0  0  0
   14.3108  -18.4955   18.9636 O   0  0  0  0  0  0  0  0  0  0  0  0
   10.2510  -21.0888   21.8575 N   0  0  0  0  0  0  0  0  0  0  0  0
    9.6590  -21.4376   23.1667 C   0  0  1  0  0  0  0  0  0  0  0  0
    9.1531  -22.8498   23.0865 C   0  0  0  0  0  0  0  0  0  0  0  0
    8.1409  -23.0669   22.0465 C   0  0  0  0  0  0  0  0  0  0  0  0
    7.0946  -22.3617   22.0866 O   0  0  0  0  0  0  0  0  0  0  0  0
   10.6426  -21.1750   24.2266 C   0  0  0  0  0  0  0  0  0  0  0  0
   11.3653  -20.1186   24.0770 O   0  0  0  0  0  0  0  0  0  0  0  0
    8.3546  -24.0179   21.0702 O   0  0  0  0  0  0  0  0  0  0  0  0
   11.6715  -19.8373   28.9139 N   0  0  0  0  0  0  0  0  0  0  0  0
   10.9559  -19.1956   27.8818 C   0  0  0  0  0  0  0  0  0  0  0  0
   10.6276  -17.9777   27.9620 O   0  0  0  0  0  0  0  0  0  0  0  0
   10.5802  -19.9587   26.6801 C   0  0  0  0  0  0  0  0  0  0  0  0
   11.1006  -21.3832   26.6754 C   0  0  2  0  0  0  0  0  0  0  0  0
   10.8530  -21.9724   25.3779 N   0  0  0  0  0  0  0  0  0  0  0  0
   10.5894  -22.2008   27.7930 C   0  0  0  0  0  0  0  0  0  0  0  0
   11.2466  -22.2906   29.0065 O   0  0  0  0  0  0  0  0  0  0  0  0
    9.5236  -22.8499   27.6699 O   0  0  0  0  0  0  0  0  0  0  0  0
  2  1  1  1
  2  6  1  0
  3  2  1  0
  4  3  1  0
  4  8  1  0
  5  4  2  0
  6  7  2  0
  9  6  1  0
  9 10  1  0
 10 14  1  0
 10 11  1  6
 12 16  1  0
 12 11  1  0
 13 12  2  0
 14 15  2  0
 14 22  1  0
 18 19  2  0
 18 17  1  0
 21 20  1  6
 20 18  1  0
 21 23  1  0
 22 21  1  0
 23 24  1  0
 25 23  2  0
M  END
$$$$
