DDN.pdb
     RDKit          3D

 25 24  0  0  1  0  0  0  0  0999 V2000
    9.8997  -15.4586   18.9665 N   0  0  0  0  0  0  0  0  0  0  0  0
    9.0000  -14.6138   19.7080 C   0  0  1  0  0  0  0  0  0  0  0  0
    7.7295  -14.4959   18.8541 C   0  0  0  0  0  0  0  0  0  0  0  0
    8.1314  -13.8918   17.5751 C   0  0  0  0  0  0  0  0  0  0  0  0
    9.0391  -14.3919   16.8721 O   0  0  0  0  0  0  0  0  0  0  0  0
    8.6195  -15.2215   21.0202 C   0  0  0  0  0  0  0  0  0  0  0  0
    7.8150  -14.6097   21.7690 O   0  0  0  0  0  0  0  0  0  0  0  0
    7.5020  -12.7476   17.1275 O   0  0  0  0  0  0  0  0  0  0  0  0
    9.1199  -16.4580   21.4689 N   0  0  0  0  0  0  0  0  0  0  0  0
    8.6874  -17.0218   22.7655 C   0  0  1  0  0  0  0  0  0  0  0  0
    8.9384  -18.5025   22.7353 C   0  0  0  0  0  0  0  0  0  0  0  0
    8.0438  -19.2451   21.8400 C   0  0  0  0  0  0  0  0  0  0  0  0
    6.8034  -19.1894   22.0678 O   0  0  0  0  0  0  0  0  0  0  0  0
    9.3471  -16.2883   23.8549 C   0  0  0  0  0  0  0  0  0  0  0  0
   10.5450  -15.8783   23.6150 O   0  0  0  0  0  0  0  0  0  0  0  0
    8.5713  -19.9711   20.7921 O   0  0  0  0  0  0  0  0  0  0  0  0
   10.4421  -13.5371   28.1119 N   0  0  0  0  0  0  0  0  0  0  0  0
    9.2058  -13.1716   27.5403 C   0  0  0  0  0  0  0  0  0  0  0  0
    8.5950  -12.1243   27.8976 O   0  0  0  0  0  0  0  0  0  0  0  0
    8.6083  -14.0273   26.5018 C   0  0  0  0  0  0  0  0  0  0  0  0
    9.4825  -15.2002   26.1016 C   0  0  2  0  0  0  0  0  0  0  0  0
    8.7813  -15.9989   25.1205 N   0  0  0  0  0  0  0  0  0  0  0  0
    9.9737  -15.9875   27.2495 C   0  0  0  0  0  0  0  0  0  0  0  0
    9.7449  -17.3462   27.3682 O   0  0  0  0  0  0  0  0  0  0  0  0
   10.6247  -15.4343   28.1674 O   0  0  0  0  0  0  0  0  0  0  0  0
  2  1  1  6
  2  6  1  0
  3  2  1  0
  4  3  1  0
  4  8  1  0
  5  4  2  0
  6  7  2  0
  9  6  1  0
  9 10  1  0
 10 14  1  0
 10 11  1  6
 12 16  1  0
 12 11  1  0
 13 12  2  0
 14 15  2  0
 14 22  1  0
 18 19  2  0
 18 17  1  0
 21 20  1  1
 20 18  1  0
 21 23  1  0
 22 21  1  0
 23 24  1  0
 25 23  2  0
M  END
$$$$
