DDN.pdb
     RDKit          3D

 25 24  0  0  1  0  0  0  0  0999 V2000
   10.8603  -17.3407   20.1490 N   0  0  0  0  0  0  0  0  0  0  0  0
    9.9063  -16.3632   19.6934 C   0  0  1  0  0  0  0  0  0  0  0  0
    9.2731  -16.9496   18.4236 C   0  0  0  0  0  0  0  0  0  0  0  0
   10.3764  -17.2585   17.5018 C   0  0  0  0  0  0  0  0  0  0  0  0
   11.4614  -16.6348   17.5480 O   0  0  0  0  0  0  0  0  0  0  0  0
    8.8163  -16.1409   20.6925 C   0  0  0  0  0  0  0  0  0  0  0  0
    7.9188  -15.2958   20.4429 O   0  0  0  0  0  0  0  0  0  0  0  0
   10.2259  -18.2559   16.5594 O   0  0  0  0  0  0  0  0  0  0  0  0
    8.7394  -16.8357   21.9139 N   0  0  0  0  0  0  0  0  0  0  0  0
    7.6455  -16.5624   22.8704 C   0  0  1  0  0  0  0  0  0  0  0  0
    7.0164  -17.8743   23.2441 C   0  0  0  0  0  0  0  0  0  0  0  0
    5.8587  -17.7523   24.1375 C   0  0  0  0  0  0  0  0  0  0  0  0
    6.0338  -17.9915   25.3646 O   0  0  0  0  0  0  0  0  0  0  0  0
    8.1705  -15.7684   23.9901 C   0  0  0  0  0  0  0  0  0  0  0  0
    8.9022  -14.7568   23.6707 O   0  0  0  0  0  0  0  0  0  0  0  0
    4.6320  -17.3859   23.6233 O   0  0  0  0  0  0  0  0  0  0  0  0
    5.8495  -13.1246   25.7112 N   0  0  0  0  0  0  0  0  0  0  0  0
    7.1463  -13.1853   26.2624 C   0  0  0  0  0  0  0  0  0  0  0  0
    7.9858  -12.2575   26.0837 O   0  0  0  0  0  0  0  0  0  0  0  0
    7.5360  -14.3556   27.0662 C   0  0  0  0  0  0  0  0  0  0  0  0
    8.5762  -15.2344   26.3985 C   0  0  2  0  0  0  0  0  0  0  0  0
    7.9382  -16.0191   25.3645 N   0  0  0  0  0  0  0  0  0  0  0  0
    9.3568  -16.0497   27.3496 C   0  0  0  0  0  0  0  0  0  0  0  0
   10.1342  -15.4858   28.3447 O   0  0  0  0  0  0  0  0  0  0  0  0
    9.3363  -17.3016   27.2795 O   0  0  0  0  0  0  0  0  0  0  0  0
  2  1  1  1
  2  6  1  0
  3  2  1  0
  4  3  1  0
  4  8  1  0
  5  4  2  0
  6  7  2  0
  9  6  1  0
  9 10  1  0
 10 14  1  0
 10 11  1  1
 12 16  1  0
 12 11  1  0
 13 12  2  0
 14 15  2  0
 14 22  1  0
 18 19  2  0
 18 17  1  0
 21 20  1  1
 20 18  1  0
 21 23  1  0
 22 21  1  0
 23 24  1  0
 25 23  2  0
M  END
$$$$
