DDN.pdb
     RDKit          3D

 25 24  0  0  1  0  0  0  0  0999 V2000
   14.0785  -15.2004   16.7179 N   0  0  0  0  0  0  0  0  0  0  0  0
   14.3118  -15.4942   18.1080 C   0  0  1  0  0  0  0  0  0  0  0  0
   14.8534  -14.1989   18.7293 C   0  0  0  0  0  0  0  0  0  0  0  0
   16.2327  -14.0392   18.2450 C   0  0  0  0  0  0  0  0  0  0  0  0
   17.0355  -15.0002   18.2286 O   0  0  0  0  0  0  0  0  0  0  0  0
   13.0479  -15.8548   18.8208 C   0  0  0  0  0  0  0  0  0  0  0  0
   11.9794  -15.2691   18.5088 O   0  0  0  0  0  0  0  0  0  0  0  0
   16.6651  -12.8077   17.7956 O   0  0  0  0  0  0  0  0  0  0  0  0
   12.9884  -16.8275   19.8363 N   0  0  0  0  0  0  0  0  0  0  0  0
   11.6904  -17.2392   20.4122 C   0  0  1  0  0  0  0  0  0  0  0  0
   11.4457  -18.6712   20.0301 C   0  0  0  0  0  0  0  0  0  0  0  0
   10.2173  -19.2419   20.5945 C   0  0  0  0  0  0  0  0  0  0  0  0
   10.2406  -19.6134   21.8008 O   0  0  0  0  0  0  0  0  0  0  0  0
   11.6917  -16.9586   21.8549 C   0  0  0  0  0  0  0  0  0  0  0  0
   12.8111  -17.1455   22.4653 O   0  0  0  0  0  0  0  0  0  0  0  0
    9.0898  -19.3553   19.8076 O   0  0  0  0  0  0  0  0  0  0  0  0
   10.7432  -15.1961   26.5480 N   0  0  0  0  0  0  0  0  0  0  0  0
    9.5045  -15.1281   25.8772 C   0  0  0  0  0  0  0  0  0  0  0  0
    8.5095  -14.5349   26.3829 O   0  0  0  0  0  0  0  0  0  0  0  0
    9.3621  -15.7617   24.5559 C   0  0  0  0  0  0  0  0  0  0  0  0
   10.6342  -16.4181   24.0547 C   0  0  2  0  0  0  0  0  0  0  0  0
   10.5841  -16.5050   22.6119 N   0  0  0  0  0  0  0  0  0  0  0  0
   10.9263  -17.7102   24.7058 C   0  0  0  0  0  0  0  0  0  0  0  0
   10.4790  -18.9150   24.1952 O   0  0  0  0  0  0  0  0  0  0  0  0
   11.6015  -17.7513   25.7617 O   0  0  0  0  0  0  0  0  0  0  0  0
  2  1  1  6
  2  6  1  0
  3  2  1  0
  4  3  1  0
  4  8  1  0
  5  4  2  0
  6  7  2  0
  9  6  1  0
  9 10  1  0
 10 14  1  0
 10 11  1  1
 12 16  1  0
 12 11  1  0
 13 12  2  0
 14 15  2  0
 14 22  1  0
 18 19  2  0
 18 17  1  0
 21 20  1  1
 20 18  1  0
 21 23  1  0
 22 21  1  0
 23 24  1  0
 25 23  2  0
M  END
$$$$
