DDN.pdb
     RDKit          3D

 25 24  0  0  1  0  0  0  0  0999 V2000
    9.6088  -14.5721   17.0086 N   0  0  0  0  0  0  0  0  0  0  0  0
    8.7337  -14.0355   18.0183 C   0  0  1  0  0  0  0  0  0  0  0  0
    7.3577  -13.8913   17.3527 C   0  0  0  0  0  0  0  0  0  0  0  0
    7.5901  -13.8437   15.9015 C   0  0  0  0  0  0  0  0  0  0  0  0
    8.1021  -14.8086   15.2891 O   0  0  0  0  0  0  0  0  0  0  0  0
    8.5891  -14.9644   19.1809 C   0  0  0  0  0  0  0  0  0  0  0  0
    8.0910  -14.5329   20.2523 O   0  0  0  0  0  0  0  0  0  0  0  0
    7.2406  -12.7161   15.1860 O   0  0  0  0  0  0  0  0  0  0  0  0
    8.9858  -16.3141   19.1408 N   0  0  0  0  0  0  0  0  0  0  0  0
    8.7460  -17.2062   20.2952 C   0  0  1  0  0  0  0  0  0  0  0  0
    8.3502  -18.5551   19.7658 C   0  0  0  0  0  0  0  0  0  0  0  0
    7.7993  -19.4606   20.7806 C   0  0  0  0  0  0  0  0  0  0  0  0
    7.2150  -18.9458   21.7743 O   0  0  0  0  0  0  0  0  0  0  0  0
    9.9257  -17.1894   21.1715 C   0  0  0  0  0  0  0  0  0  0  0  0
   10.0752  -18.2155   21.9367 O   0  0  0  0  0  0  0  0  0  0  0  0
    7.9312  -20.8251   20.6256 O   0  0  0  0  0  0  0  0  0  0  0  0
   13.0622  -14.2438   19.4629 N   0  0  0  0  0  0  0  0  0  0  0  0
   13.4303  -15.2779   20.3484 C   0  0  0  0  0  0  0  0  0  0  0  0
   14.0890  -16.2826   19.9557 O   0  0  0  0  0  0  0  0  0  0  0  0
   13.0406  -15.1892   21.7654 C   0  0  0  0  0  0  0  0  0  0  0  0
   11.9949  -16.2086   22.1746 C   0  0  2  0  0  0  0  0  0  0  0  0
   10.8938  -16.1579   21.2382 N   0  0  0  0  0  0  0  0  0  0  0  0
   11.5683  -16.0823   23.5820 C   0  0  0  0  0  0  0  0  0  0  0  0
   12.4355  -16.2843   24.6401 O   0  0  0  0  0  0  0  0  0  0  0  0
   10.3833  -15.7827   23.8624 O   0  0  0  0  0  0  0  0  0  0  0  0
  2  1  1  6
  2  6  1  0
  3  2  1  0
  4  3  1  0
  4  8  1  0
  5  4  2  0
  6  7  2  0
  9  6  1  0
  9 10  1  0
 10 14  1  0
 10 11  1  6
 12 16  1  0
 12 11  1  0
 13 12  2  0
 14 15  2  0
 14 22  1  0
 18 19  2  0
 18 17  1  0
 21 20  1  6
 20 18  1  0
 21 23  1  0
 22 21  1  0
 23 24  1  0
 25 23  2  0
M  END
$$$$
