DDN.pdb
     RDKit          3D

 25 24  0  0  1  0  0  0  0  0999 V2000
    9.5965  -16.5357   14.9107 N   0  0  0  0  0  0  0  0  0  0  0  0
    9.8463  -17.7276   15.6788 C   0  0  1  0  0  0  0  0  0  0  0  0
   11.2607  -18.1878   15.2982 C   0  0  0  0  0  0  0  0  0  0  0  0
   11.2600  -18.4061   13.8440 C   0  0  0  0  0  0  0  0  0  0  0  0
   10.4239  -19.1605   13.2962 O   0  0  0  0  0  0  0  0  0  0  0  0
    9.8291  -17.4566   17.1492 C   0  0  0  0  0  0  0  0  0  0  0  0
    9.5759  -16.2934   17.5554 O   0  0  0  0  0  0  0  0  0  0  0  0
   12.1967  -17.7714   13.0532 O   0  0  0  0  0  0  0  0  0  0  0  0
   10.0847  -18.4463   18.1166 N   0  0  0  0  0  0  0  0  0  0  0  0
   10.0531  -18.1190   19.5581 C   0  0  1  0  0  0  0  0  0  0  0  0
    9.6239  -19.3498   20.3048 C   0  0  0  0  0  0  0  0  0  0  0  0
    9.5130  -19.1636   21.7561 C   0  0  0  0  0  0  0  0  0  0  0  0
    9.7789  -18.0223   22.2255 O   0  0  0  0  0  0  0  0  0  0  0  0
   11.3521  -17.5571   19.9540 C   0  0  0  0  0  0  0  0  0  0  0  0
   12.3794  -18.3052   19.7408 O   0  0  0  0  0  0  0  0  0  0  0  0
    9.1281  -20.2204   22.5550 O   0  0  0  0  0  0  0  0  0  0  0  0
   11.8879  -13.5760   18.6194 N   0  0  0  0  0  0  0  0  0  0  0  0
   13.0460  -14.1318   19.2015 C   0  0  0  0  0  0  0  0  0  0  0  0
   14.0685  -14.4048   18.5105 O   0  0  0  0  0  0  0  0  0  0  0  0
   13.0692  -14.4022   20.6486 C   0  0  0  0  0  0  0  0  0  0  0  0
   12.8658  -15.8638   20.9987 C   0  0  2  0  0  0  0  0  0  0  0  0
   11.5611  -16.2831   20.5363 N   0  0  0  0  0  0  0  0  0  0  0  0
   13.1034  -16.1667   22.4237 C   0  0  0  0  0  0  0  0  0  0  0  0
   14.3301  -15.9651   23.0295 O   0  0  0  0  0  0  0  0  0  0  0  0
   12.1804  -16.6251   23.1383 O   0  0  0  0  0  0  0  0  0  0  0  0
  2  1  1  6
  2  6  1  0
  3  2  1  0
  4  3  1  0
  4  8  1  0
  5  4  2  0
  6  7  2  0
  9  6  1  0
  9 10  1  0
 10 14  1  0
 10 11  1  1
 12 16  1  0
 12 11  1  0
 13 12  2  0
 14 15  2  0
 14 22  1  0
 18 19  2  0
 18 17  1  0
 21 20  1  1
 20 18  1  0
 21 23  1  0
 22 21  1  0
 23 24  1  0
 25 23  2  0
M  END
$$$$
