DDN.pdb
     RDKit          3D

 25 24  0  0  1  0  0  0  0  0999 V2000
    9.9122  -17.3812   16.0934 N   0  0  0  0  0  0  0  0  0  0  0  0
    9.3003  -16.2860   16.8000 C   0  0  1  0  0  0  0  0  0  0  0  0
    8.0504  -15.9072   15.9929 C   0  0  0  0  0  0  0  0  0  0  0  0
    8.5083  -15.5522   14.6413 C   0  0  0  0  0  0  0  0  0  0  0  0
    9.6893  -15.7539   14.2768 O   0  0  0  0  0  0  0  0  0  0  0  0
    8.8603  -16.6849   18.1722 C   0  0  0  0  0  0  0  0  0  0  0  0
    8.4167  -15.8049   18.9539 O   0  0  0  0  0  0  0  0  0  0  0  0
    7.6267  -14.9832   13.7443 O   0  0  0  0  0  0  0  0  0  0  0  0
    8.9168  -18.0100   18.6430 N   0  0  0  0  0  0  0  0  0  0  0  0
    8.6111  -18.3230   20.0553 C   0  0  1  0  0  0  0  0  0  0  0  0
    7.9168  -19.6545   20.0963 C   0  0  0  0  0  0  0  0  0  0  0  0
    6.6272  -19.6812   19.3965 C   0  0  0  0  0  0  0  0  0  0  0  0
    6.5630  -19.1372   18.2592 O   0  0  0  0  0  0  0  0  0  0  0  0
    9.8440  -18.2255   20.8491 C   0  0  0  0  0  0  0  0  0  0  0  0
    9.8193  -18.7984   22.0032 O   0  0  0  0  0  0  0  0  0  0  0  0
    5.5390  -20.2887   19.9882 O   0  0  0  0  0  0  0  0  0  0  0  0
   15.0426  -17.5948   22.2725 N   0  0  0  0  0  0  0  0  0  0  0  0
   14.5096  -16.5849   21.4448 C   0  0  0  0  0  0  0  0  0  0  0  0
   15.0078  -15.4237   21.4127 O   0  0  0  0  0  0  0  0  0  0  0  0
   13.3452  -16.8859   20.5957 C   0  0  0  0  0  0  0  0  0  0  0  0
   12.1365  -17.3751   21.3702 C   0  0  2  0  0  0  0  0  0  0  0  0
   11.0345  -17.5683   20.4535 N   0  0  0  0  0  0  0  0  0  0  0  0
   11.7911  -16.5216   22.5238 C   0  0  0  0  0  0  0  0  0  0  0  0
   10.5894  -15.8426   22.6096 O   0  0  0  0  0  0  0  0  0  0  0  0
   12.5947  -16.3856   23.4768 O   0  0  0  0  0  0  0  0  0  0  0  0
  2  1  1  6
  2  6  1  0
  3  2  1  0
  4  3  1  0
  4  8  1  0
  5  4  2  0
  6  7  2  0
  9  6  1  0
  9 10  1  0
 10 14  1  0
 10 11  1  6
 12 16  1  0
 12 11  1  0
 13 12  2  0
 14 15  2  0
 14 22  1  0
 18 19  2  0
 18 17  1  0
 21 20  1  6
 20 18  1  0
 21 23  1  0
 22 21  1  0
 23 24  1  0
 25 23  2  0
M  END
$$$$
