DDN.pdb
     RDKit          3D

 25 24  0  0  1  0  0  0  0  0999 V2000
   12.0751  -16.6080   14.9455 N   0  0  0  0  0  0  0  0  0  0  0  0
   10.7999  -16.1362   15.4191 C   0  0  1  0  0  0  0  0  0  0  0  0
    9.7832  -16.4953   14.3262 C   0  0  0  0  0  0  0  0  0  0  0  0
   10.1932  -15.7760   13.1109 C   0  0  0  0  0  0  0  0  0  0  0  0
    9.4167  -15.6401   12.1379 O   0  0  0  0  0  0  0  0  0  0  0  0
   10.3846  -16.8243   16.6799 C   0  0  0  0  0  0  0  0  0  0  0  0
    9.3130  -16.4807   17.2418 O   0  0  0  0  0  0  0  0  0  0  0  0
   11.4599  -15.2335   13.0277 O   0  0  0  0  0  0  0  0  0  0  0  0
   11.1386  -17.8499   17.2804 N   0  0  0  0  0  0  0  0  0  0  0  0
   10.7732  -18.3739   18.6138 C   0  0  1  0  0  0  0  0  0  0  0  0
   10.8946  -19.8706   18.5741 C   0  0  0  0  0  0  0  0  0  0  0  0
    9.9560  -20.5251   17.6554 C   0  0  0  0  0  0  0  0  0  0  0  0
   10.3272  -21.5951   17.0977 O   0  0  0  0  0  0  0  0  0  0  0  0
   11.5838  -17.6982   19.6367 C   0  0  0  0  0  0  0  0  0  0  0  0
   11.9876  -18.4346   20.6141 O   0  0  0  0  0  0  0  0  0  0  0  0
    8.7155  -19.9652   17.4294 O   0  0  0  0  0  0  0  0  0  0  0  0
   15.2662  -15.3408   19.1485 N   0  0  0  0  0  0  0  0  0  0  0  0
   14.1321  -14.5037   19.1009 C   0  0  0  0  0  0  0  0  0  0  0  0
   13.8473  -13.8329   18.0681 O   0  0  0  0  0  0  0  0  0  0  0  0
   13.2559  -14.4057   20.2799 C   0  0  0  0  0  0  0  0  0  0  0  0
   12.6864  -15.7380   20.7282 C   0  0  2  0  0  0  0  0  0  0  0  0
   11.9522  -16.3308   19.6321 N   0  0  0  0  0  0  0  0  0  0  0  0
   11.9021  -15.6534   21.9758 C   0  0  0  0  0  0  0  0  0  0  0  0
   12.4911  -15.4357   23.2080 O   0  0  0  0  0  0  0  0  0  0  0  0
   10.6547  -15.7799   21.9520 O   0  0  0  0  0  0  0  0  0  0  0  0
  2  1  1  6
  2  6  1  0
  3  2  1  0
  4  3  1  0
  4  8  1  0
  5  4  2  0
  6  7  2  0
  9  6  1  0
  9 10  1  0
 10 14  1  0
 10 11  1  6
 12 16  1  0
 12 11  1  0
 13 12  2  0
 14 15  2  0
 14 22  1  0
 18 19  2  0
 18 17  1  0
 21 20  1  6
 20 18  1  0
 21 23  1  0
 22 21  1  0
 23 24  1  0
 25 23  2  0
M  END
$$$$
