DDN.pdb
     RDKit          3D

 25 24  0  0  1  0  0  0  0  0999 V2000
    7.9426  -13.3931   18.3377 N   0  0  0  0  0  0  0  0  0  0  0  0
    9.1234  -14.2093   18.4498 C   0  0  1  0  0  0  0  0  0  0  0  0
   10.2693  -13.2500   18.8016 C   0  0  0  0  0  0  0  0  0  0  0  0
   11.5068  -14.0443   18.7932 C   0  0  0  0  0  0  0  0  0  0  0  0
   11.8182  -14.7597   17.8136 O   0  0  0  0  0  0  0  0  0  0  0  0
    9.0052  -15.2114   19.5532 C   0  0  0  0  0  0  0  0  0  0  0  0
    8.5829  -14.8384   20.6777 O   0  0  0  0  0  0  0  0  0  0  0  0
   12.3531  -14.0098   19.8832 O   0  0  0  0  0  0  0  0  0  0  0  0
    9.3458  -16.5683   19.3993 N   0  0  0  0  0  0  0  0  0  0  0  0
    9.2930  -17.4951   20.5502 C   0  0  1  0  0  0  0  0  0  0  0  0
    8.7261  -18.8006   20.0699 C   0  0  0  0  0  0  0  0  0  0  0  0
    7.3495  -18.7098   19.5698 C   0  0  0  0  0  0  0  0  0  0  0  0
    6.4363  -18.4522   20.4024 O   0  0  0  0  0  0  0  0  0  0  0  0
   10.6233  -17.5706   21.1704 C   0  0  0  0  0  0  0  0  0  0  0  0
   11.6166  -17.7080   20.3610 O   0  0  0  0  0  0  0  0  0  0  0  0
    7.0936  -18.9045   18.2282 O   0  0  0  0  0  0  0  0  0  0  0  0
   14.9808  -17.7441   23.5935 N   0  0  0  0  0  0  0  0  0  0  0  0
   14.5344  -16.6531   22.8192 C   0  0  0  0  0  0  0  0  0  0  0  0
   15.3138  -15.7162   22.4840 O   0  0  0  0  0  0  0  0  0  0  0  0
   13.1275  -16.6000   22.3886 C   0  0  0  0  0  0  0  0  0  0  0  0
   12.2409  -17.6207   23.0758 C   0  0  2  0  0  0  0  0  0  0  0  0
   10.8955  -17.5022   22.5585 N   0  0  0  0  0  0  0  0  0  0  0  0
   12.3055  -17.5599   24.5492 C   0  0  0  0  0  0  0  0  0  0  0  0
   13.3738  -18.0677   25.2656 O   0  0  0  0  0  0  0  0  0  0  0  0
   11.3738  -17.0359   25.2050 O   0  0  0  0  0  0  0  0  0  0  0  0
  2  1  1  1
  2  6  1  0
  3  2  1  0
  4  3  1  0
  4  8  1  0
  5  4  2  0
  6  7  2  0
  9  6  1  0
  9 10  1  0
 10 14  1  0
 10 11  1  6
 12 16  1  0
 12 11  1  0
 13 12  2  0
 14 15  2  0
 14 22  1  0
 18 19  2  0
 18 17  1  0
 21 20  1  6
 20 18  1  0
 21 23  1  0
 22 21  1  0
 23 24  1  0
 25 23  2  0
M  END
$$$$
