DDN.pdb
     RDKit          3D

 25 24  0  0  1  0  0  0  0  0999 V2000
   14.2733  -18.3639   17.8478 N   0  0  0  0  0  0  0  0  0  0  0  0
   14.6551  -19.3639   18.8108 C   0  0  1  0  0  0  0  0  0  0  0  0
   15.9279  -18.8357   19.4875 C   0  0  0  0  0  0  0  0  0  0  0  0
   16.9691  -18.7799   18.4505 C   0  0  0  0  0  0  0  0  0  0  0  0
   17.5594  -17.7109   18.1732 O   0  0  0  0  0  0  0  0  0  0  0  0
   13.6126  -19.5468   19.8670 C   0  0  0  0  0  0  0  0  0  0  0  0
   12.8511  -18.5864   20.1498 O   0  0  0  0  0  0  0  0  0  0  0  0
   17.3131  -19.9245   17.7597 O   0  0  0  0  0  0  0  0  0  0  0  0
   13.4352  -20.7520   20.5717 N   0  0  0  0  0  0  0  0  0  0  0  0
   12.2932  -20.9258   21.4945 C   0  0  1  0  0  0  0  0  0  0  0  0
   12.0368  -22.3984   21.6445 C   0  0  0  0  0  0  0  0  0  0  0  0
   11.4103  -23.0212   20.4728 C   0  0  0  0  0  0  0  0  0  0  0  0
   10.2409  -22.6572   20.1670 O   0  0  0  0  0  0  0  0  0  0  0  0
   12.5659  -20.1988   22.7423 C   0  0  0  0  0  0  0  0  0  0  0  0
   13.7569  -20.3222   23.2188 O   0  0  0  0  0  0  0  0  0  0  0  0
   12.1023  -23.9704   19.7492 O   0  0  0  0  0  0  0  0  0  0  0  0
   10.9070  -15.8607   22.6500 N   0  0  0  0  0  0  0  0  0  0  0  0
   11.8706  -16.4908   23.4646 C   0  0  0  0  0  0  0  0  0  0  0  0
   13.1078  -16.3877   23.2273 O   0  0  0  0  0  0  0  0  0  0  0  0
   11.4295  -17.2889   24.6205 C   0  0  0  0  0  0  0  0  0  0  0  0
   12.0173  -18.6865   24.6559 C   0  0  2  0  0  0  0  0  0  0  0  0
   11.6439  -19.3868   23.4468 N   0  0  0  0  0  0  0  0  0  0  0  0
   11.6882  -19.4330   25.8861 C   0  0  0  0  0  0  0  0  0  0  0  0
   11.0519  -20.6605   25.8600 O   0  0  0  0  0  0  0  0  0  0  0  0
   11.9822  -18.9644   27.0115 O   0  0  0  0  0  0  0  0  0  0  0  0
  2  1  1  6
  2  6  1  0
  3  2  1  0
  4  3  1  0
  4  8  1  0
  5  4  2  0
  6  7  2  0
  9  6  1  0
  9 10  1  0
 10 14  1  0
 10 11  1  1
 12 16  1  0
 12 11  1  0
 13 12  2  0
 14 15  2  0
 14 22  1  0
 18 19  2  0
 18 17  1  0
 21 20  1  1
 20 18  1  0
 21 23  1  0
 22 21  1  0
 23 24  1  0
 25 23  2  0
M  END
$$$$
