DDN.pdb
     RDKit          3D

 25 24  0  0  1  0  0  0  0  0999 V2000
    8.5748  -18.4289   14.5242 N   0  0  0  0  0  0  0  0  0  0  0  0
    8.1673  -17.2434   15.2324 C   0  0  1  0  0  0  0  0  0  0  0  0
    6.9760  -16.6718   14.4506 C   0  0  0  0  0  0  0  0  0  0  0  0
    7.4986  -16.2115   13.1555 C   0  0  0  0  0  0  0  0  0  0  0  0
    8.7187  -16.2783   12.8814 O   0  0  0  0  0  0  0  0  0  0  0  0
    7.7028  -17.5549   16.6191 C   0  0  0  0  0  0  0  0  0  0  0  0
    6.4794  -17.4537   16.8932 O   0  0  0  0  0  0  0  0  0  0  0  0
    6.6357  -15.6920   12.2115 O   0  0  0  0  0  0  0  0  0  0  0  0
    8.5726  -17.9607   17.6484 N   0  0  0  0  0  0  0  0  0  0  0  0
    8.0398  -18.4860   18.9237 C   0  0  1  0  0  0  0  0  0  0  0  0
    7.0366  -19.5569   18.6022 C   0  0  0  0  0  0  0  0  0  0  0  0
    6.3875  -20.1447   19.7797 C   0  0  0  0  0  0  0  0  0  0  0  0
    6.5067  -21.3887   19.9584 O   0  0  0  0  0  0  0  0  0  0  0  0
    9.1597  -18.9018   19.7798 C   0  0  0  0  0  0  0  0  0  0  0  0
    9.1768  -18.4039   20.9683 O   0  0  0  0  0  0  0  0  0  0  0  0
    5.6775  -19.3381   20.6449 O   0  0  0  0  0  0  0  0  0  0  0  0
   10.8541  -23.1257   18.5949 N   0  0  0  0  0  0  0  0  0  0  0  0
   11.0597  -22.4607   19.8215 C   0  0  0  0  0  0  0  0  0  0  0  0
   10.4565  -22.8129   20.8749 O   0  0  0  0  0  0  0  0  0  0  0  0
   11.9988  -21.3284   19.8813 C   0  0  0  0  0  0  0  0  0  0  0  0
   11.3455  -20.0144   20.2641 C   0  0  2  0  0  0  0  0  0  0  0  0
   10.1987  -19.7910   19.4115 N   0  0  0  0  0  0  0  0  0  0  0  0
   12.2836  -18.8750   20.2881 C   0  0  0  0  0  0  0  0  0  0  0  0
   13.0023  -18.5308   21.4183 O   0  0  0  0  0  0  0  0  0  0  0  0
   12.4575  -18.1735   19.2634 O   0  0  0  0  0  0  0  0  0  0  0  0
  2  1  1  6
  2  6  1  0
  3  2  1  0
  4  3  1  0
  4  8  1  0
  5  4  2  0
  6  7  2  0
  9  6  1  0
  9 10  1  0
 10 14  1  0
 10 11  1  6
 12 16  1  0
 12 11  1  0
 13 12  2  0
 14 15  2  0
 14 22  1  0
 18 19  2  0
 18 17  1  0
 21 20  1  6
 20 18  1  0
 21 23  1  0
 22 21  1  0
 23 24  1  0
 25 23  2  0
M  END
$$$$
