DDN.pdb
     RDKit          3D

 25 24  0  0  1  0  0  0  0  0999 V2000
   16.0738  -14.4648   18.9984 N   0  0  0  0  0  0  0  0  0  0  0  0
   14.8626  -13.7826   18.6234 C   0  0  1  0  0  0  0  0  0  0  0  0
   14.9375  -13.5927   17.1018 C   0  0  0  0  0  0  0  0  0  0  0  0
   16.2382  -14.1259   16.6701 C   0  0  0  0  0  0  0  0  0  0  0  0
   16.3352  -14.8998   15.6904 O   0  0  0  0  0  0  0  0  0  0  0  0
   13.6469  -14.5982   18.9275 C   0  0  0  0  0  0  0  0  0  0  0  0
   12.5123  -14.0611   18.8475 O   0  0  0  0  0  0  0  0  0  0  0  0
   17.3858  -13.7734   17.3514 O   0  0  0  0  0  0  0  0  0  0  0  0
   13.7044  -15.9531   19.3039 N   0  0  0  0  0  0  0  0  0  0  0  0
   12.4811  -16.6753   19.7139 C   0  0  1  0  0  0  0  0  0  0  0  0
   12.2903  -17.8348   18.7781 C   0  0  0  0  0  0  0  0  0  0  0  0
   11.0820  -18.6253   19.0399 C   0  0  0  0  0  0  0  0  0  0  0  0
   10.0529  -18.0132   19.4398 O   0  0  0  0  0  0  0  0  0  0  0  0
   12.5787  -17.0195   21.1393 C   0  0  0  0  0  0  0  0  0  0  0  0
   11.9953  -18.1113   21.4977 O   0  0  0  0  0  0  0  0  0  0  0  0
   11.1013  -19.9911   18.8458 O   0  0  0  0  0  0  0  0  0  0  0  0
   15.9537  -17.2638   22.3815 N   0  0  0  0  0  0  0  0  0  0  0  0
   15.7824  -16.1745   23.2608 C   0  0  0  0  0  0  0  0  0  0  0  0
   16.6247  -15.2339   23.3216 O   0  0  0  0  0  0  0  0  0  0  0  0
   14.5955  -16.1272   24.1305 C   0  0  0  0  0  0  0  0  0  0  0  0
   13.3525  -16.7230   23.4980 C   0  0  2  0  0  0  0  0  0  0  0  0
   13.2522  -16.2642   22.1300 N   0  0  0  0  0  0  0  0  0  0  0  0
   12.1234  -16.4902   24.2816 C   0  0  0  0  0  0  0  0  0  0  0  0
   11.0450  -15.7869   23.7767 O   0  0  0  0  0  0  0  0  0  0  0  0
   12.0218  -16.9325   25.4506 O   0  0  0  0  0  0  0  0  0  0  0  0
  2  1  1  6
  2  6  1  0
  3  2  1  0
  4  3  1  0
  4  8  1  0
  5  4  2  0
  6  7  2  0
  9  6  1  0
  9 10  1  0
 10 14  1  0
 10 11  1  6
 12 16  1  0
 12 11  1  0
 13 12  2  0
 14 15  2  0
 14 22  1  0
 18 19  2  0
 18 17  1  0
 21 20  1  1
 20 18  1  0
 21 23  1  0
 22 21  1  0
 23 24  1  0
 25 23  2  0
M  END
$$$$
