DDN.pdb
     RDKit          3D

 25 24  0  0  1  0  0  0  0  0999 V2000
   13.3796  -19.2812   19.5777 N   0  0  0  0  0  0  0  0  0  0  0  0
   13.6532  -17.9385   20.0198 C   0  0  1  0  0  0  0  0  0  0  0  0
   13.2897  -17.0228   18.8423 C   0  0  0  0  0  0  0  0  0  0  0  0
   14.3491  -17.1840   17.8353 C   0  0  0  0  0  0  0  0  0  0  0  0
   14.5032  -18.2606   17.2146 O   0  0  0  0  0  0  0  0  0  0  0  0
   12.8010  -17.5515   21.1858 C   0  0  0  0  0  0  0  0  0  0  0  0
   13.0280  -16.4649   21.7774 O   0  0  0  0  0  0  0  0  0  0  0  0
   15.1999  -16.1327   17.5585 O   0  0  0  0  0  0  0  0  0  0  0  0
   11.7441  -18.3484   21.6639 N   0  0  0  0  0  0  0  0  0  0  0  0
   11.0171  -17.9778   22.8968 C   0  0  1  0  0  0  0  0  0  0  0  0
    9.5861  -18.4069   22.7392 C   0  0  0  0  0  0  0  0  0  0  0  0
    9.0437  -18.2052   21.3907 C   0  0  0  0  0  0  0  0  0  0  0  0
    9.3790  -17.1573   20.7717 O   0  0  0  0  0  0  0  0  0  0  0  0
   11.7225  -18.5354   24.0593 C   0  0  0  0  0  0  0  0  0  0  0  0
   13.0047  -18.4069   24.0565 O   0  0  0  0  0  0  0  0  0  0  0  0
    8.1976  -19.1480   20.8444 O   0  0  0  0  0  0  0  0  0  0  0  0
   15.1531  -18.5430   27.8245 N   0  0  0  0  0  0  0  0  0  0  0  0
   14.2265  -19.3280   27.1074 C   0  0  0  0  0  0  0  0  0  0  0  0
   14.2907  -20.5903   27.1042 O   0  0  0  0  0  0  0  0  0  0  0  0
   13.1569  -18.6656   26.3427 C   0  0  0  0  0  0  0  0  0  0  0  0
   11.8249  -19.3879   26.4072 C   0  0  2  0  0  0  0  0  0  0  0  0
   11.1174  -19.1865   25.1618 N   0  0  0  0  0  0  0  0  0  0  0  0
   11.0222  -19.0383   27.5956 C   0  0  0  0  0  0  0  0  0  0  0  0
   11.1890  -19.6701   28.8144 O   0  0  0  0  0  0  0  0  0  0  0  0
   10.1489  -18.1406   27.5309 O   0  0  0  0  0  0  0  0  0  0  0  0
  2  1  1  6
  2  6  1  0
  3  2  1  0
  4  3  1  0
  4  8  1  0
  5  4  2  0
  6  7  2  0
  9  6  1  0
  9 10  1  0
 10 14  1  0
 10 11  1  6
 12 16  1  0
 12 11  1  0
 13 12  2  0
 14 15  2  0
 14 22  1  0
 18 19  2  0
 18 17  1  0
 21 20  1  6
 20 18  1  0
 21 23  1  0
 22 21  1  0
 23 24  1  0
 25 23  2  0
M  END
$$$$
