DDN.pdb
     RDKit          3D

 25 24  0  0  1  0  0  0  0  0999 V2000
    9.5770  -16.8779   16.0720 N   0  0  0  0  0  0  0  0  0  0  0  0
    9.9307  -15.4881   16.2005 C   0  0  1  0  0  0  0  0  0  0  0  0
    8.6287  -14.6997   16.0004 C   0  0  0  0  0  0  0  0  0  0  0  0
    8.1333  -15.0308   14.6560 C   0  0  0  0  0  0  0  0  0  0  0  0
    8.6431  -15.9534   13.9799 O   0  0  0  0  0  0  0  0  0  0  0  0
   10.4575  -15.1711   17.5634 C   0  0  0  0  0  0  0  0  0  0  0  0
   10.8067  -13.9918   17.8269 O   0  0  0  0  0  0  0  0  0  0  0  0
    7.0832  -14.3164   14.1152 O   0  0  0  0  0  0  0  0  0  0  0  0
   10.5857  -16.1344   18.5815 N   0  0  0  0  0  0  0  0  0  0  0  0
   11.1427  -15.7684   19.9013 C   0  0  1  0  0  0  0  0  0  0  0  0
   10.4113  -16.5577   20.9494 C   0  0  0  0  0  0  0  0  0  0  0  0
   10.9007  -16.3400   22.3156 C   0  0  0  0  0  0  0  0  0  0  0  0
   11.9959  -16.8767   22.6414 O   0  0  0  0  0  0  0  0  0  0  0  0
   12.6014  -15.9462   19.8757 C   0  0  0  0  0  0  0  0  0  0  0  0
   13.0256  -17.0629   19.3922 O   0  0  0  0  0  0  0  0  0  0  0  0
   10.1655  -15.5689   23.1921 O   0  0  0  0  0  0  0  0  0  0  0  0
   14.3186  -12.9366   17.9159 N   0  0  0  0  0  0  0  0  0  0  0  0
   15.2427  -13.9638   18.1984 C   0  0  0  0  0  0  0  0  0  0  0  0
   15.6935  -14.7174   17.2892 O   0  0  0  0  0  0  0  0  0  0  0  0
   15.6964  -14.1671   19.5842 C   0  0  0  0  0  0  0  0  0  0  0  0
   14.9763  -15.2923   20.3023 C   0  0  2  0  0  0  0  0  0  0  0  0
   13.5589  -15.0057   20.3277 N   0  0  0  0  0  0  0  0  0  0  0  0
   15.5336  -15.5919   21.6358 C   0  0  0  0  0  0  0  0  0  0  0  0
   16.8617  -15.9273   21.8256 O   0  0  0  0  0  0  0  0  0  0  0  0
   14.8027  -15.5500   22.6540 O   0  0  0  0  0  0  0  0  0  0  0  0
  2  1  1  1
  2  6  1  0
  3  2  1  0
  4  3  1  0
  4  8  1  0
  5  4  2  0
  6  7  2  0
  9  6  1  0
  9 10  1  0
 10 14  1  0
 10 11  1  1
 12 16  1  0
 12 11  1  0
 13 12  2  0
 14 15  2  0
 14 22  1  0
 18 19  2  0
 18 17  1  0
 21 20  1  1
 20 18  1  0
 21 23  1  0
 22 21  1  0
 23 24  1  0
 25 23  2  0
M  END
$$$$
