MYW.pdb
     RDKit          3D

 35 37  0  0  1  0  0  0  0  0999 V2000
    7.6816  -13.2224   19.7889 C   0  0  0  0  0  0  0  0  0  0  0  0
    7.1527  -14.3355   18.4628 S   0  0  0  0  0  0  0  0  0  0  0  0
    6.9549  -16.0286   19.1014 C   0  0  0  0  0  0  0  0  0  0  0  0
    8.3021  -16.7086   19.0891 C   0  0  0  0  0  0  0  0  0  0  0  0
    8.4708  -17.5796   20.3210 C   0  0  2  0  0  0  0  0  0  0  0  0
    7.5531  -17.1083   21.3721 N   0  0  0  0  0  0  0  0  0  0  0  0
    9.8422  -17.4349   20.8781 C   0  0  0  0  0  0  0  0  0  0  0  0
   10.8387  -17.9827   20.3427 O   0  0  0  0  0  0  0  0  0  0  0  0
   13.5497  -13.7365   17.2522 O   0  0  0  0  0  0  0  0  0  0  0  0
   13.1190  -14.0687   18.5281 C   0  0  0  0  0  0  0  0  0  0  0  0
   13.9093  -14.8620   19.3345 C   0  0  0  0  0  0  0  0  0  0  0  0
   13.5539  -15.2343   20.6074 C   0  0  0  0  0  0  0  0  0  0  0  0
   12.3290  -14.7726   21.0804 C   0  0  0  0  0  0  0  0  0  0  0  0
   11.8530  -15.1087   22.4117 C   0  0  0  0  0  0  0  0  0  0  0  0
   11.4283  -16.5311   22.6288 C   0  0  2  0  0  0  0  0  0  0  0  0
   10.1052  -16.6694   22.0481 N   0  0  0  0  0  0  0  0  0  0  0  0
   11.3002  -16.8388   24.0781 C   0  0  0  0  0  0  0  0  0  0  0  0
   12.2159  -16.5144   24.9036 O   0  0  0  0  0  0  0  0  0  0  0  0
   11.5254  -13.9746   20.2797 C   0  0  0  0  0  0  0  0  0  0  0  0
   11.9145  -13.6220   19.0095 C   0  0  0  0  0  0  0  0  0  0  0  0
   10.1650  -17.4961   24.5788 N   0  0  0  0  0  0  0  0  0  0  0  0
    9.8057  -17.4311   26.0117 C   0  0  1  0  0  0  0  0  0  0  0  0
    9.7081  -15.9907   26.3870 C   0  0  0  0  0  0  0  0  0  0  0  0
    8.4098  -15.3779   26.1348 C   0  0  0  0  0  0  0  0  0  0  0  0
    7.2592  -16.0511   25.7300 C   0  0  0  0  0  0  0  0  0  0  0  0
    6.2794  -15.1472   25.5682 N   0  0  0  0  0  0  0  0  0  0  0  0
    6.7543  -13.9165   25.8542 C   0  0  0  0  0  0  0  0  0  0  0  0
    6.1525  -12.6769   25.8577 C   0  0  0  0  0  0  0  0  0  0  0  0
    6.8526  -11.5462   26.2136 C   0  0  0  0  0  0  0  0  0  0  0  0
    8.1807  -11.6341   26.5762 C   0  0  0  0  0  0  0  0  0  0  0  0
    8.7478  -12.8882   26.5600 C   0  0  0  0  0  0  0  0  0  0  0  0
    8.0852  -14.0434   26.2105 C   0  0  0  0  0  0  0  0  0  0  0  0
    8.6042  -18.2011   26.2564 C   0  0  0  0  0  0  0  0  0  0  0  0
    7.8740  -18.6341   25.3499 O   0  0  0  0  0  0  0  0  0  0  0  0
    8.2231  -18.4870   27.5714 O   0  0  0  0  0  0  0  0  0  0  0  0
  2  1  1  0
  3  2  1  0
  4  3  1  0
  5  4  1  0
  5  6  1  1
  7  5  1  0
  7  8  2  0
  9 10  1  0
 10 11  2  0
 10 20  1  0
 11 12  1  0
 12 13  2  0
 13 14  1  0
 15 14  1  1
 15 17  1  0
 15 16  1  0
 16  7  1  0
 17 21  1  0
 18 17  2  0
 19 13  1  0
 20 19  2  0
 21 22  1  0
 22 33  1  0
 23 24  1  0
 22 23  1  6
 24 25  2  0
 26 25  1  0
 27 26  1  0
 28 27  2  0
 29 28  1  0
 30 29  2  0
 30 31  1  0
 31 32  2  0
 32 27  1  0
 32 24  1  0
 33 34  2  0
 33 35  1  0
M  END
$$$$
