MYW.pdb
     RDKit          3D

 35 37  0  0  1  0  0  0  0  0999 V2000
    8.0761  -11.4274   19.8613 C   0  0  0  0  0  0  0  0  0  0  0  0
    7.6671  -12.3203   18.3406 S   0  0  0  0  0  0  0  0  0  0  0  0
    8.0616  -14.0881   18.5213 C   0  0  0  0  0  0  0  0  0  0  0  0
    7.5349  -14.5656   19.8526 C   0  0  0  0  0  0  0  0  0  0  0  0
    8.2653  -15.8206   20.2957 C   0  0  2  0  0  0  0  0  0  0  0  0
    8.0213  -16.8907   19.3136 N   0  0  0  0  0  0  0  0  0  0  0  0
    7.7165  -16.3150   21.5866 C   0  0  0  0  0  0  0  0  0  0  0  0
    7.4356  -15.5356   22.5319 O   0  0  0  0  0  0  0  0  0  0  0  0
    1.6798  -19.5224   19.7502 O   0  0  0  0  0  0  0  0  0  0  0  0
    2.8350  -19.5262   20.5179 C   0  0  0  0  0  0  0  0  0  0  0  0
    4.0557  -19.7636   19.9199 C   0  0  0  0  0  0  0  0  0  0  0  0
    5.2426  -19.7839   20.6100 C   0  0  0  0  0  0  0  0  0  0  0  0
    5.1789  -19.5496   21.9805 C   0  0  0  0  0  0  0  0  0  0  0  0
    6.3736  -19.5514   22.8080 C   0  0  0  0  0  0  0  0  0  0  0  0
    6.9903  -18.2135   23.0919 C   0  0  2  0  0  0  0  0  0  0  0  0
    7.4782  -17.6969   21.8262 N   0  0  0  0  0  0  0  0  0  0  0  0
    8.1683  -18.3442   23.9901 C   0  0  0  0  0  0  0  0  0  0  0  0
    9.3157  -18.6559   23.5303 O   0  0  0  0  0  0  0  0  0  0  0  0
    3.9581  -19.3097   22.5935 C   0  0  0  0  0  0  0  0  0  0  0  0
    2.7897  -19.2971   21.8698 C   0  0  0  0  0  0  0  0  0  0  0  0
    8.0496  -18.1272   25.3722 N   0  0  0  0  0  0  0  0  0  0  0  0
    9.2103  -17.7157   26.1906 C   0  0  1  0  0  0  0  0  0  0  0  0
    9.4394  -16.2616   25.9488 C   0  0  0  0  0  0  0  0  0  0  0  0
    8.2469  -15.4288   26.0444 C   0  0  0  0  0  0  0  0  0  0  0  0
    6.9504  -15.8277   25.7267 C   0  0  0  0  0  0  0  0  0  0  0  0
    6.1322  -14.7787   25.9088 N   0  0  0  0  0  0  0  0  0  0  0  0
    6.8518  -13.7184   26.3328 C   0  0  0  0  0  0  0  0  0  0  0  0
    6.4842  -12.4344   26.6720 C   0  0  0  0  0  0  0  0  0  0  0  0
    7.4154  -11.5179   27.1060 C   0  0  0  0  0  0  0  0  0  0  0  0
    8.7449  -11.8712   27.2100 C   0  0  0  0  0  0  0  0  0  0  0  0
    9.0744  -13.1615   26.8619 C   0  0  0  0  0  0  0  0  0  0  0  0
    8.1763  -14.1083   26.4230 C   0  0  0  0  0  0  0  0  0  0  0  0
    8.9892  -18.0692   27.5770 C   0  0  0  0  0  0  0  0  0  0  0  0
    9.8342  -17.8929   28.4700 O   0  0  0  0  0  0  0  0  0  0  0  0
    7.7704  -18.6397   27.9584 O   0  0  0  0  0  0  0  0  0  0  0  0
  2  1  1  0
  3  2  1  0
  4  3  1  0
  5  4  1  0
  5  6  1  6
  7  5  1  0
  7  8  2  0
  9 10  1  0
 10 11  2  0
 10 20  1  0
 11 12  1  0
 12 13  2  0
 13 14  1  0
 15 14  1  6
 15 17  1  0
 15 16  1  0
 16  7  1  0
 17 21  1  0
 18 17  2  0
 19 13  1  0
 20 19  2  0
 21 22  1  0
 22 33  1  0
 23 24  1  0
 22 23  1  1
 24 25  2  0
 26 25  1  0
 27 26  1  0
 28 27  2  0
 29 28  1  0
 30 29  2  0
 30 31  1  0
 31 32  2  0
 32 27  1  0
 32 24  1  0
 33 34  2  0
 33 35  1  0
M  END
$$$$
