MYW.pdb
     RDKit          3D

 35 37  0  0  1  0  0  0  0  0999 V2000
    8.5933  -12.8262   19.8541 C   0  0  0  0  0  0  0  0  0  0  0  0
    7.7952  -13.7670   18.5293 S   0  0  0  0  0  0  0  0  0  0  0  0
    6.7751  -15.1021   19.2297 C   0  0  0  0  0  0  0  0  0  0  0  0
    7.6511  -16.3103   19.4546 C   0  0  0  0  0  0  0  0  0  0  0  0
    7.6601  -16.6963   20.9228 C   0  0  2  0  0  0  0  0  0  0  0  0
    7.1638  -15.5623   21.7209 N   0  0  0  0  0  0  0  0  0  0  0  0
    9.0504  -16.9481   21.3873 C   0  0  0  0  0  0  0  0  0  0  0  0
    9.7300  -17.9145   20.9585 O   0  0  0  0  0  0  0  0  0  0  0  0
   12.4181  -15.1463   16.5616 O   0  0  0  0  0  0  0  0  0  0  0  0
   12.2716  -15.1332   17.9408 C   0  0  0  0  0  0  0  0  0  0  0  0
   12.6910  -16.2163   18.6858 C   0  0  0  0  0  0  0  0  0  0  0  0
   12.5807  -16.2797   20.0529 C   0  0  0  0  0  0  0  0  0  0  0  0
   12.0131  -15.1807   20.6911 C   0  0  0  0  0  0  0  0  0  0  0  0
   11.8453  -15.1431   22.1342 C   0  0  0  0  0  0  0  0  0  0  0  0
   11.0753  -16.2760   22.7459 C   0  0  2  0  0  0  0  0  0  0  0  0
    9.6907  -16.1109   22.3429 N   0  0  0  0  0  0  0  0  0  0  0  0
   11.1060  -16.2071   24.2311 C   0  0  0  0  0  0  0  0  0  0  0  0
   11.8003  -15.3249   24.8351 O   0  0  0  0  0  0  0  0  0  0  0  0
   11.5876  -14.0859   19.9536 C   0  0  0  0  0  0  0  0  0  0  0  0
   11.7142  -14.0580   18.5853 C   0  0  0  0  0  0  0  0  0  0  0  0
   10.3698  -17.1133   25.0110 N   0  0  0  0  0  0  0  0  0  0  0  0
   10.3832  -17.0474   26.4882 C   0  0  1  0  0  0  0  0  0  0  0  0
    9.8944  -15.6947   26.8834 C   0  0  0  0  0  0  0  0  0  0  0  0
    8.4827  -15.4502   26.6151 C   0  0  0  0  0  0  0  0  0  0  0  0
    7.5565  -16.4071   26.2059 C   0  0  0  0  0  0  0  0  0  0  0  0
    6.3735  -15.7969   26.0284 N   0  0  0  0  0  0  0  0  0  0  0  0
    6.5015  -14.4827   26.3084 C   0  0  0  0  0  0  0  0  0  0  0  0
    5.5920  -13.4476   26.2968 C   0  0  0  0  0  0  0  0  0  0  0  0
    5.9629  -12.1695   26.6496 C   0  0  0  0  0  0  0  0  0  0  0  0
    7.2628  -11.8995   27.0243 C   0  0  0  0  0  0  0  0  0  0  0  0
    8.1428  -12.9578   27.0231 C   0  0  0  0  0  0  0  0  0  0  0  0
    7.8145  -14.2494   26.6773 C   0  0  0  0  0  0  0  0  0  0  0  0
    9.6225  -18.1488   27.0400 C   0  0  0  0  0  0  0  0  0  0  0  0
    8.9752  -18.9483   26.3439 O   0  0  0  0  0  0  0  0  0  0  0  0
    9.5983  -18.3464   28.4244 O   0  0  0  0  0  0  0  0  0  0  0  0
  2  1  1  0
  3  2  1  0
  4  3  1  0
  5  4  1  0
  5  6  1  1
  7  5  1  0
  7  8  2  0
  9 10  1  0
 10 11  2  0
 10 20  1  0
 11 12  1  0
 12 13  2  0
 13 14  1  0
 15 14  1  6
 15 17  1  0
 15 16  1  0
 16  7  1  0
 17 21  1  0
 18 17  2  0
 19 13  1  0
 20 19  2  0
 21 22  1  0
 22 33  1  0
 23 24  1  0
 22 23  1  6
 24 25  2  0
 26 25  1  0
 27 26  1  0
 28 27  2  0
 29 28  1  0
 30 29  2  0
 30 31  1  0
 31 32  2  0
 32 27  1  0
 32 24  1  0
 33 34  2  0
 33 35  1  0
M  END
$$$$
