MYW.pdb
     RDKit          3D

 35 37  0  0  1  0  0  0  0  0999 V2000
    6.1436  -12.7478   18.6875 C   0  0  0  0  0  0  0  0  0  0  0  0
    7.2672  -12.6692   20.1047 S   0  0  0  0  0  0  0  0  0  0  0  0
    7.4014  -14.3034   20.8950 C   0  0  0  0  0  0  0  0  0  0  0  0
    7.5441  -15.3498   19.8168 C   0  0  0  0  0  0  0  0  0  0  0  0
    7.7332  -16.7254   20.4307 C   0  0  2  0  0  0  0  0  0  0  0  0
    7.0677  -16.7610   21.7442 N   0  0  0  0  0  0  0  0  0  0  0  0
    9.1738  -16.9857   20.6931 C   0  0  0  0  0  0  0  0  0  0  0  0
    9.8709  -17.6985   19.9278 O   0  0  0  0  0  0  0  0  0  0  0  0
   16.8248  -15.2911   18.9085 O   0  0  0  0  0  0  0  0  0  0  0  0
   15.5841  -15.2524   19.5273 C   0  0  0  0  0  0  0  0  0  0  0  0
   14.6067  -16.1556   19.1624 C   0  0  0  0  0  0  0  0  0  0  0  0
   13.3553  -16.1820   19.7268 C   0  0  0  0  0  0  0  0  0  0  0  0
   13.0891  -15.2377   20.7141 C   0  0  0  0  0  0  0  0  0  0  0  0
   11.7967  -15.1737   21.3756 C   0  0  0  0  0  0  0  0  0  0  0  0
   11.2892  -16.4527   21.9732 C   0  0  2  0  0  0  0  0  0  0  0  0
    9.8454  -16.4441   21.8243 N   0  0  0  0  0  0  0  0  0  0  0  0
   11.5745  -16.5154   23.4314 C   0  0  0  0  0  0  0  0  0  0  0  0
   12.7721  -16.5426   23.8674 O   0  0  0  0  0  0  0  0  0  0  0  0
   14.0629  -14.3244   21.0898 C   0  0  0  0  0  0  0  0  0  0  0  0
   15.3054  -14.3282   20.5021 C   0  0  0  0  0  0  0  0  0  0  0  0
   10.5311  -16.5461   24.3703 N   0  0  0  0  0  0  0  0  0  0  0  0
   10.8022  -16.6173   25.8222 C   0  0  1  0  0  0  0  0  0  0  0  0
   10.3028  -15.3530   26.4364 C   0  0  0  0  0  0  0  0  0  0  0  0
    8.8947  -15.0666   26.1914 C   0  0  0  0  0  0  0  0  0  0  0  0
    7.9091  -16.0130   25.9196 C   0  0  0  0  0  0  0  0  0  0  0  0
    6.7502  -15.3655   25.7174 N   0  0  0  0  0  0  0  0  0  0  0  0
    6.9509  -14.0373   25.8495 C   0  0  0  0  0  0  0  0  0  0  0  0
    6.0914  -12.9641   25.7570 C   0  0  0  0  0  0  0  0  0  0  0  0
    6.5357  -11.6765   25.9569 C   0  0  0  0  0  0  0  0  0  0  0  0
    7.8606  -11.4349   26.2559 C   0  0  0  0  0  0  0  0  0  0  0  0
    8.6890  -12.5309   26.3391 C   0  0  0  0  0  0  0  0  0  0  0  0
    8.2869  -13.8335   26.1461 C   0  0  0  0  0  0  0  0  0  0  0  0
   10.2262  -17.8252   26.3749 C   0  0  0  0  0  0  0  0  0  0  0  0
    9.5100  -18.6014   25.7214 O   0  0  0  0  0  0  0  0  0  0  0  0
   10.4732  -18.1596   27.7104 O   0  0  0  0  0  0  0  0  0  0  0  0
  2  1  1  0
  3  2  1  0
  4  3  1  0
  5  4  1  0
  5  6  1  1
  7  5  1  0
  7  8  2  0
  9 10  1  0
 10 11  2  0
 10 20  1  0
 11 12  1  0
 12 13  2  0
 13 14  1  0
 15 14  1  1
 15 17  1  0
 15 16  1  0
 16  7  1  0
 17 21  1  0
 18 17  2  0
 19 13  1  0
 20 19  2  0
 21 22  1  0
 22 33  1  0
 23 24  1  0
 22 23  1  1
 24 25  2  0
 26 25  1  0
 27 26  1  0
 28 27  2  0
 29 28  1  0
 30 29  2  0
 30 31  1  0
 31 32  2  0
 32 27  1  0
 32 24  1  0
 33 34  2  0
 33 35  1  0
M  END
$$$$
