MYW.pdb
     RDKit          3D

 35 37  0  0  1  0  0  0  0  0999 V2000
    7.2458  -18.1814   28.5337 C   0  0  0  0  0  0  0  0  0  0  0  0
    7.6282  -19.9187   28.1979 S   0  0  0  0  0  0  0  0  0  0  0  0
    7.2832  -20.3153   26.4552 C   0  0  0  0  0  0  0  0  0  0  0  0
    6.0403  -19.5727   26.0290 C   0  0  0  0  0  0  0  0  0  0  0  0
    5.7573  -19.8084   24.5562 C   0  0  2  0  0  0  0  0  0  0  0  0
    6.1009  -21.2000   24.2175 N   0  0  0  0  0  0  0  0  0  0  0  0
    6.6340  -18.9522   23.7133 C   0  0  0  0  0  0  0  0  0  0  0  0
    7.6750  -19.3989   23.1689 O   0  0  0  0  0  0  0  0  0  0  0  0
    8.6268  -12.1049   18.4785 O   0  0  0  0  0  0  0  0  0  0  0  0
    8.0766  -12.9503   19.4305 C   0  0  0  0  0  0  0  0  0  0  0  0
    6.8344  -13.5110   19.2148 C   0  0  0  0  0  0  0  0  0  0  0  0
    6.2228  -14.3562   20.1074 C   0  0  0  0  0  0  0  0  0  0  0  0
    6.9158  -14.6433   21.2799 C   0  0  0  0  0  0  0  0  0  0  0  0
    6.3606  -15.5231   22.2947 C   0  0  0  0  0  0  0  0  0  0  0  0
    7.1890  -16.7167   22.6682 C   0  0  2  0  0  0  0  0  0  0  0  0
    6.3455  -17.5796   23.4749 N   0  0  0  0  0  0  0  0  0  0  0  0
    8.3456  -16.3244   23.5167 C   0  0  0  0  0  0  0  0  0  0  0  0
    8.1970  -15.5401   24.5107 O   0  0  0  0  0  0  0  0  0  0  0  0
    8.1651  -14.0861   21.5086 C   0  0  0  0  0  0  0  0  0  0  0  0
    8.7464  -13.2435   20.5914 C   0  0  0  0  0  0  0  0  0  0  0  0
    9.6358  -16.8077   23.2463 N   0  0  0  0  0  0  0  0  0  0  0  0
   10.8212  -16.2794   23.9550 C   0  0  1  0  0  0  0  0  0  0  0  0
   10.6656  -16.6089   25.4015 C   0  0  0  0  0  0  0  0  0  0  0  0
    9.6671  -15.8154   26.1072 C   0  0  0  0  0  0  0  0  0  0  0  0
    8.2869  -15.9854   26.0226 C   0  0  0  0  0  0  0  0  0  0  0  0
    7.7012  -15.0480   26.7850 N   0  0  0  0  0  0  0  0  0  0  0  0
    8.6515  -14.2802   27.3589 C   0  0  0  0  0  0  0  0  0  0  0  0
    8.5707  -13.2135   28.2276 C   0  0  0  0  0  0  0  0  0  0  0  0
    9.7048  -12.5935   28.7017 C   0  0  0  0  0  0  0  0  0  0  0  0
   10.9535  -13.0324   28.3125 C   0  0  0  0  0  0  0  0  0  0  0  0
   10.9946  -14.0992   27.4438 C   0  0  0  0  0  0  0  0  0  0  0  0
    9.8866  -14.7471   26.9455 C   0  0  0  0  0  0  0  0  0  0  0  0
   12.0311  -16.7913   23.3463 C   0  0  0  0  0  0  0  0  0  0  0  0
   12.0321  -17.6085   22.4110 O   0  0  0  0  0  0  0  0  0  0  0  0
   13.2761  -16.3602   23.8156 O   0  0  0  0  0  0  0  0  0  0  0  0
  2  1  1  0
  3  2  1  0
  4  3  1  0
  5  4  1  0
  5  6  1  6
  7  5  1  0
  7  8  2  0
  9 10  1  0
 10 11  2  0
 10 20  1  0
 11 12  1  0
 12 13  2  0
 13 14  1  0
 15 14  1  1
 15 17  1  0
 15 16  1  0
 16  7  1  0
 17 21  1  0
 18 17  2  0
 19 13  1  0
 20 19  2  0
 21 22  1  0
 22 33  1  0
 23 24  1  0
 22 23  1  1
 24 25  2  0
 26 25  1  0
 27 26  1  0
 28 27  2  0
 29 28  1  0
 30 29  2  0
 30 31  1  0
 31 32  2  0
 32 27  1  0
 32 24  1  0
 33 34  2  0
 33 35  1  0
M  END
$$$$
