MYW.pdb
     RDKit          3D

 35 37  0  0  1  0  0  0  0  0999 V2000
    6.6980  -12.5508   20.9473 C   0  0  0  0  0  0  0  0  0  0  0  0
    8.0871  -13.4602   21.6688 S   0  0  0  0  0  0  0  0  0  0  0  0
    7.4791  -14.8732   22.6419 C   0  0  0  0  0  0  0  0  0  0  0  0
    7.6772  -16.1339   21.8363 C   0  0  0  0  0  0  0  0  0  0  0  0
    9.0654  -16.1614   21.2223 C   0  0  2  0  0  0  0  0  0  0  0  0
    9.0396  -17.0019   20.0132 N   0  0  0  0  0  0  0  0  0  0  0  0
   10.0331  -16.8059   22.1498 C   0  0  0  0  0  0  0  0  0  0  0  0
    9.9256  -18.0108   22.4911 O   0  0  0  0  0  0  0  0  0  0  0  0
   18.4407  -18.0145   24.4682 O   0  0  0  0  0  0  0  0  0  0  0  0
   17.2078  -17.4924   24.1058 C   0  0  0  0  0  0  0  0  0  0  0  0
   16.8507  -16.2253   24.5193 C   0  0  0  0  0  0  0  0  0  0  0  0
   15.6503  -15.6388   24.2028 C   0  0  0  0  0  0  0  0  0  0  0  0
   14.7702  -16.3848   23.4242 C   0  0  0  0  0  0  0  0  0  0  0  0
   13.4714  -15.8625   23.0335 C   0  0  0  0  0  0  0  0  0  0  0  0
   12.2905  -16.7517   23.2894 C   0  0  2  0  0  0  0  0  0  0  0  0
   11.1349  -16.0969   22.7041 N   0  0  0  0  0  0  0  0  0  0  0  0
   12.0226  -16.8838   24.7462 C   0  0  0  0  0  0  0  0  0  0  0  0
   12.7956  -17.5629   25.4990 O   0  0  0  0  0  0  0  0  0  0  0  0
   15.1172  -17.6596   23.0023 C   0  0  0  0  0  0  0  0  0  0  0  0
   16.3288  -18.2145   23.3390 C   0  0  0  0  0  0  0  0  0  0  0  0
   10.9090  -16.2632   25.3344 N   0  0  0  0  0  0  0  0  0  0  0  0
   10.6530  -16.3558   26.7878 C   0  0  1  0  0  0  0  0  0  0  0  0
    9.8827  -15.1427   27.1881 C   0  0  0  0  0  0  0  0  0  0  0  0
    8.5033  -15.1095   26.7179 C   0  0  0  0  0  0  0  0  0  0  0  0
    7.6821  -16.2193   26.5316 C   0  0  0  0  0  0  0  0  0  0  0  0
    6.5004  -15.7920   26.0580 N   0  0  0  0  0  0  0  0  0  0  0  0
    6.5282  -14.4484   25.9327 C   0  0  0  0  0  0  0  0  0  0  0  0
    5.5764  -13.5445   25.5130 C   0  0  0  0  0  0  0  0  0  0  0  0
    5.8380  -12.1930   25.4918 C   0  0  0  0  0  0  0  0  0  0  0  0
    7.0680  -11.7148   25.8936 C   0  0  0  0  0  0  0  0  0  0  0  0
    7.9932  -12.6471   26.3052 C   0  0  0  0  0  0  0  0  0  0  0  0
    7.7738  -14.0058   26.3414 C   0  0  0  0  0  0  0  0  0  0  0  0
   10.0034  -17.6123   27.0972 C   0  0  0  0  0  0  0  0  0  0  0  0
    9.6165  -18.4128   26.2300 O   0  0  0  0  0  0  0  0  0  0  0  0
    9.7884  -17.9681   28.4326 O   0  0  0  0  0  0  0  0  0  0  0  0
  2  1  1  0
  3  2  1  0
  4  3  1  0
  5  4  1  0
  5  6  1  6
  7  5  1  0
  7  8  2  0
  9 10  1  0
 10 11  2  0
 10 20  1  0
 11 12  1  0
 12 13  2  0
 13 14  1  0
 15 14  1  1
 15 17  1  0
 15 16  1  0
 16  7  1  0
 17 21  1  0
 18 17  2  0
 19 13  1  0
 20 19  2  0
 21 22  1  0
 22 33  1  0
 23 24  1  0
 22 23  1  6
 24 25  2  0
 26 25  1  0
 27 26  1  0
 28 27  2  0
 29 28  1  0
 30 29  2  0
 30 31  1  0
 31 32  2  0
 32 27  1  0
 32 24  1  0
 33 34  2  0
 33 35  1  0
M  END
$$$$
