MYW.pdb
     RDKit          3D

 35 37  0  0  1  0  0  0  0  0999 V2000
    6.9368  -16.6101   15.8548 C   0  0  0  0  0  0  0  0  0  0  0  0
    8.4020  -17.6733   15.8473 S   0  0  0  0  0  0  0  0  0  0  0  0
    9.6264  -17.0687   17.0508 C   0  0  0  0  0  0  0  0  0  0  0  0
    8.9322  -16.1451   18.0218 C   0  0  0  0  0  0  0  0  0  0  0  0
    9.9172  -15.6106   19.0460 C   0  0  2  0  0  0  0  0  0  0  0  0
   11.2823  -15.7244   18.5050 N   0  0  0  0  0  0  0  0  0  0  0  0
    9.8928  -16.4442   20.2775 C   0  0  0  0  0  0  0  0  0  0  0  0
    8.8457  -16.5985   20.9554 O   0  0  0  0  0  0  0  0  0  0  0  0
   13.3793  -21.7551   26.5579 O   0  0  0  0  0  0  0  0  0  0  0  0
   13.1478  -20.9464   25.4550 C   0  0  0  0  0  0  0  0  0  0  0  0
   12.4617  -21.4481   24.3680 C   0  0  0  0  0  0  0  0  0  0  0  0
   12.1930  -20.7123   23.2404 C   0  0  0  0  0  0  0  0  0  0  0  0
   12.6483  -19.3971   23.2226 C   0  0  0  0  0  0  0  0  0  0  0  0
   12.4219  -18.5300   22.0785 C   0  0  0  0  0  0  0  0  0  0  0  0
   11.0800  -17.8637   22.0018 C   0  0  2  0  0  0  0  0  0  0  0  0
   11.0518  -17.1140   20.7592 N   0  0  0  0  0  0  0  0  0  0  0  0
   10.9032  -16.8821   23.1048 C   0  0  0  0  0  0  0  0  0  0  0  0
   11.1011  -15.6369   22.9162 O   0  0  0  0  0  0  0  0  0  0  0  0
   13.3392  -18.8810   24.3088 C   0  0  0  0  0  0  0  0  0  0  0  0
   13.5899  -19.6481   25.4214 C   0  0  0  0  0  0  0  0  0  0  0  0
   10.5124  -17.2999   24.3870 N   0  0  0  0  0  0  0  0  0  0  0  0
    9.7605  -16.4058   25.2935 C   0  0  1  0  0  0  0  0  0  0  0  0
    8.5878  -15.8793   24.5367 C   0  0  0  0  0  0  0  0  0  0  0  0
    7.6473  -15.0971   25.3294 C   0  0  0  0  0  0  0  0  0  0  0  0
    6.5228  -15.5977   25.9819 C   0  0  0  0  0  0  0  0  0  0  0  0
    5.8902  -14.5720   26.5744 N   0  0  0  0  0  0  0  0  0  0  0  0
    6.5648  -13.4288   26.3294 C   0  0  0  0  0  0  0  0  0  0  0  0
    6.3408  -12.1271   26.7222 C   0  0  0  0  0  0  0  0  0  0  0  0
    7.1992  -11.1149   26.3562 C   0  0  0  0  0  0  0  0  0  0  0  0
    8.3088  -11.3875   25.5831 C   0  0  0  0  0  0  0  0  0  0  0  0
    8.4993  -12.6985   25.2095 C   0  0  0  0  0  0  0  0  0  0  0  0
    7.6665  -13.7399   25.5523 C   0  0  0  0  0  0  0  0  0  0  0  0
    9.4249  -17.1071   26.5148 C   0  0  0  0  0  0  0  0  0  0  0  0
    9.1278  -16.5304   27.5740 O   0  0  0  0  0  0  0  0  0  0  0  0
    9.4270  -18.5057   26.5310 O   0  0  0  0  0  0  0  0  0  0  0  0
  2  1  1  0
  3  2  1  0
  4  3  1  0
  5  4  1  0
  5  6  1  6
  7  5  1  0
  7  8  2  0
  9 10  1  0
 10 11  2  0
 10 20  1  0
 11 12  1  0
 12 13  2  0
 13 14  1  0
 15 14  1  1
 15 17  1  0
 15 16  1  0
 16  7  1  0
 17 21  1  0
 18 17  2  0
 19 13  1  0
 20 19  2  0
 21 22  1  0
 22 33  1  0
 23 24  1  0
 22 23  1  6
 24 25  2  0
 26 25  1  0
 27 26  1  0
 28 27  2  0
 29 28  1  0
 30 29  2  0
 30 31  1  0
 31 32  2  0
 32 27  1  0
 32 24  1  0
 33 34  2  0
 33 35  1  0
M  END
$$$$
