MYW.pdb
     RDKit          3D

 35 37  0  0  1  0  0  0  0  0999 V2000
    7.5070  -11.9496   21.7612 C   0  0  0  0  0  0  0  0  0  0  0  0
    7.8698  -12.0227   19.9891 S   0  0  0  0  0  0  0  0  0  0  0  0
    8.0479  -13.7529   19.4523 C   0  0  0  0  0  0  0  0  0  0  0  0
    8.4485  -14.5882   20.6438 C   0  0  0  0  0  0  0  0  0  0  0  0
    8.6975  -16.0265   20.2268 C   0  0  2  0  0  0  0  0  0  0  0  0
    7.4378  -16.6089   19.7337 N   0  0  0  0  0  0  0  0  0  0  0  0
    9.0980  -16.8478   21.4003 C   0  0  0  0  0  0  0  0  0  0  0  0
    8.2522  -17.4386   22.1183 O   0  0  0  0  0  0  0  0  0  0  0  0
   14.6033  -21.8523   26.2448 O   0  0  0  0  0  0  0  0  0  0  0  0
   14.0453  -20.9307   25.3712 C   0  0  0  0  0  0  0  0  0  0  0  0
   12.9069  -21.2579   24.6635 C   0  0  0  0  0  0  0  0  0  0  0  0
   12.2952  -20.4022   23.7809 C   0  0  0  0  0  0  0  0  0  0  0  0
   12.8762  -19.1486   23.6132 C   0  0  0  0  0  0  0  0  0  0  0  0
   12.3136  -18.1661   22.7019 C   0  0  0  0  0  0  0  0  0  0  0  0
   10.8790  -17.7904   22.9290 C   0  0  2  0  0  0  0  0  0  0  0  0
   10.4598  -17.0118   21.7781 N   0  0  0  0  0  0  0  0  0  0  0  0
   10.7351  -16.9138   24.1216 C   0  0  0  0  0  0  0  0  0  0  0  0
   11.2353  -15.7414   24.1413 O   0  0  0  0  0  0  0  0  0  0  0  0
   14.0206  -18.8076   24.3186 C   0  0  0  0  0  0  0  0  0  0  0  0
   14.6055  -19.6910   25.1942 C   0  0  0  0  0  0  0  0  0  0  0  0
   10.0429  -17.3535   25.2613 N   0  0  0  0  0  0  0  0  0  0  0  0
   10.0941  -16.6005   26.5328 C   0  0  1  0  0  0  0  0  0  0  0  0
    8.7003  -16.5030   27.0554 C   0  0  0  0  0  0  0  0  0  0  0  0
    7.7879  -15.7246   26.2270 C   0  0  0  0  0  0  0  0  0  0  0  0
    6.8330  -16.2482   25.3581 C   0  0  0  0  0  0  0  0  0  0  0  0
    6.2140  -15.2242   24.7487 N   0  0  0  0  0  0  0  0  0  0  0  0
    6.7329  -14.0598   25.1924 C   0  0  0  0  0  0  0  0  0  0  0  0
    6.4344  -12.7478   24.8948 C   0  0  0  0  0  0  0  0  0  0  0  0
    7.1012  -11.7095   25.5054 C   0  0  0  0  0  0  0  0  0  0  0  0
    8.0886  -11.9656   26.4341 C   0  0  0  0  0  0  0  0  0  0  0  0
    8.3595  -13.2876   26.7050 C   0  0  0  0  0  0  0  0  0  0  0  0
    7.7183  -14.3552   26.1177 C   0  0  0  0  0  0  0  0  0  0  0  0
   11.0362  -17.2226   27.4393 C   0  0  0  0  0  0  0  0  0  0  0  0
   11.4458  -16.6785   28.4779 O   0  0  0  0  0  0  0  0  0  0  0  0
   11.5259  -18.5017   27.1556 O   0  0  0  0  0  0  0  0  0  0  0  0
  2  1  1  0
  3  2  1  0
  4  3  1  0
  5  4  1  0
  5  6  1  1
  7  5  1  0
  7  8  2  0
  9 10  1  0
 10 11  2  0
 10 20  1  0
 11 12  1  0
 12 13  2  0
 13 14  1  0
 15 14  1  6
 15 17  1  0
 15 16  1  0
 16  7  1  0
 17 21  1  0
 18 17  2  0
 19 13  1  0
 20 19  2  0
 21 22  1  0
 22 33  1  0
 23 24  1  0
 22 23  1  1
 24 25  2  0
 26 25  1  0
 27 26  1  0
 28 27  2  0
 29 28  1  0
 30 29  2  0
 30 31  1  0
 31 32  2  0
 32 27  1  0
 32 24  1  0
 33 34  2  0
 33 35  1  0
M  END
$$$$
