MYW.pdb
     RDKit          3D

 35 37  0  0  1  0  0  0  0  0999 V2000
    4.1381  -21.5955   26.2391 C   0  0  0  0  0  0  0  0  0  0  0  0
    3.7182  -22.3035   24.6268 S   0  0  0  0  0  0  0  0  0  0  0  0
    5.1822  -22.3220   23.5452 C   0  0  0  0  0  0  0  0  0  0  0  0
    5.4683  -20.9094   23.0976 C   0  0  0  0  0  0  0  0  0  0  0  0
    6.7839  -20.4225   23.6782 C   0  0  2  0  0  0  0  0  0  0  0  0
    6.5239  -19.7578   24.9665 N   0  0  0  0  0  0  0  0  0  0  0  0
    7.3915  -19.3889   22.7981 C   0  0  0  0  0  0  0  0  0  0  0  0
    8.1606  -19.6907   21.8509 O   0  0  0  0  0  0  0  0  0  0  0  0
    8.2813  -11.7796   18.4401 O   0  0  0  0  0  0  0  0  0  0  0  0
    7.8961  -12.8136   19.2804 C   0  0  0  0  0  0  0  0  0  0  0  0
    7.7268  -14.0849   18.7713 C   0  0  0  0  0  0  0  0  0  0  0  0
    7.3476  -15.1598   19.5368 C   0  0  0  0  0  0  0  0  0  0  0  0
    7.1306  -14.9238   20.8913 C   0  0  0  0  0  0  0  0  0  0  0  0
    6.7235  -15.9888   21.7924 C   0  0  0  0  0  0  0  0  0  0  0  0
    7.7890  -16.9645   22.1964 C   0  0  2  0  0  0  0  0  0  0  0  0
    7.1380  -18.0005   22.9773 N   0  0  0  0  0  0  0  0  0  0  0  0
    8.7976  -16.3235   23.0814 C   0  0  0  0  0  0  0  0  0  0  0  0
    9.5177  -15.3566   22.6668 O   0  0  0  0  0  0  0  0  0  0  0  0
    7.2974  -13.6506   21.4152 C   0  0  0  0  0  0  0  0  0  0  0  0
    7.6781  -12.5979   20.6176 C   0  0  0  0  0  0  0  0  0  0  0  0
    8.9853  -16.7658   24.4006 N   0  0  0  0  0  0  0  0  0  0  0  0
    9.9997  -16.1505   25.2832 C   0  0  1  0  0  0  0  0  0  0  0  0
    9.3454  -15.8686   26.5938 C   0  0  0  0  0  0  0  0  0  0  0  0
    8.0479  -15.2107   26.5025 C   0  0  0  0  0  0  0  0  0  0  0  0
    6.8263  -15.8492   26.3006 C   0  0  0  0  0  0  0  0  0  0  0  0
    5.8677  -14.9109   26.2389 N   0  0  0  0  0  0  0  0  0  0  0  0
    6.4248  -13.6913   26.3942 C   0  0  0  0  0  0  0  0  0  0  0  0
    5.8764  -12.4275   26.4253 C   0  0  0  0  0  0  0  0  0  0  0  0
    6.6626  -11.3145   26.6220 C   0  0  0  0  0  0  0  0  0  0  0  0
    8.0253  -11.4453   26.7930 C   0  0  0  0  0  0  0  0  0  0  0  0
    8.5369  -12.7225   26.7551 C   0  0  0  0  0  0  0  0  0  0  0  0
    7.7878  -13.8612   26.5604 C   0  0  0  0  0  0  0  0  0  0  0  0
   11.1684  -17.0013   25.3629 C   0  0  0  0  0  0  0  0  0  0  0  0
   12.1909  -16.6993   26.0000 O   0  0  0  0  0  0  0  0  0  0  0  0
   11.1733  -18.2321   24.6986 O   0  0  0  0  0  0  0  0  0  0  0  0
  2  1  1  0
  3  2  1  0
  4  3  1  0
  5  4  1  0
  5  6  1  1
  7  5  1  0
  7  8  2  0
  9 10  1  0
 10 11  2  0
 10 20  1  0
 11 12  1  0
 12 13  2  0
 13 14  1  0
 15 14  1  1
 15 17  1  0
 15 16  1  0
 16  7  1  0
 17 21  1  0
 18 17  2  0
 19 13  1  0
 20 19  2  0
 21 22  1  0
 22 33  1  0
 23 24  1  0
 22 23  1  1
 24 25  2  0
 26 25  1  0
 27 26  1  0
 28 27  2  0
 29 28  1  0
 30 29  2  0
 30 31  1  0
 31 32  2  0
 32 27  1  0
 32 24  1  0
 33 34  2  0
 33 35  1  0
M  END
$$$$
