MYW.pdb
     RDKit          3D

 35 37  0  0  1  0  0  0  0  0999 V2000
    8.5587  -11.6758   20.5095 C   0  0  0  0  0  0  0  0  0  0  0  0
    7.9661  -12.4086   18.9639 S   0  0  0  0  0  0  0  0  0  0  0  0
    6.8525  -13.8053   19.3140 C   0  0  0  0  0  0  0  0  0  0  0  0
    7.3535  -14.5247   20.5425 C   0  0  0  0  0  0  0  0  0  0  0  0
    7.7079  -15.9631   20.2104 C   0  0  2  0  0  0  0  0  0  0  0  0
    6.4768  -16.6938   19.8645 N   0  0  0  0  0  0  0  0  0  0  0  0
    8.2716  -16.6499   21.4031 C   0  0  0  0  0  0  0  0  0  0  0  0
    7.5532  -16.9872   22.3778 O   0  0  0  0  0  0  0  0  0  0  0  0
   14.1456  -21.6000   25.8206 O   0  0  0  0  0  0  0  0  0  0  0  0
   13.4957  -20.7675   24.9214 C   0  0  0  0  0  0  0  0  0  0  0  0
   14.0560  -19.5530   24.5821 C   0  0  0  0  0  0  0  0  0  0  0  0
   13.4756  -18.6742   23.7012 C   0  0  0  0  0  0  0  0  0  0  0  0
   12.2611  -19.0558   23.1383 C   0  0  0  0  0  0  0  0  0  0  0  0
   11.5582  -18.2009   22.1965 C   0  0  0  0  0  0  0  0  0  0  0  0
   10.2259  -17.6733   22.6406 C   0  0  2  0  0  0  0  0  0  0  0  0
    9.6551  -16.9641   21.5101 N   0  0  0  0  0  0  0  0  0  0  0  0
   10.3786  -16.6845   23.7407 C   0  0  0  0  0  0  0  0  0  0  0  0
   11.1116  -15.6510   23.6001 O   0  0  0  0  0  0  0  0  0  0  0  0
   11.6875  -20.2739   23.4712 C   0  0  0  0  0  0  0  0  0  0  0  0
   12.2982  -21.1285   24.3578 C   0  0  0  0  0  0  0  0  0  0  0  0
    9.7186  -16.8617   24.9672 N   0  0  0  0  0  0  0  0  0  0  0  0
   10.3541  -16.4808   26.2469 C   0  0  1  0  0  0  0  0  0  0  0  0
    9.7959  -15.1579   26.6512 C   0  0  0  0  0  0  0  0  0  0  0  0
    8.3915  -14.9568   26.3164 C   0  0  0  0  0  0  0  0  0  0  0  0
    7.4684  -15.9651   26.0477 C   0  0  0  0  0  0  0  0  0  0  0  0
    6.2931  -15.3889   25.7482 N   0  0  0  0  0  0  0  0  0  0  0  0
    6.4230  -14.0470   25.8144 C   0  0  0  0  0  0  0  0  0  0  0  0
    5.5200  -13.0252   25.6156 C   0  0  0  0  0  0  0  0  0  0  0  0
    5.8910  -11.7078   25.7646 C   0  0  0  0  0  0  0  0  0  0  0  0
    7.1844  -11.3837   26.1186 C   0  0  0  0  0  0  0  0  0  0  0  0
    8.0579  -12.4304   26.3078 C   0  0  0  0  0  0  0  0  0  0  0  0
    7.7293  -13.7602   26.1688 C   0  0  0  0  0  0  0  0  0  0  0  0
   10.1739  -17.5353   27.2225 C   0  0  0  0  0  0  0  0  0  0  0  0
    9.4578  -18.5312   27.0275 O   0  0  0  0  0  0  0  0  0  0  0  0
   10.8284  -17.4543   28.4559 O   0  0  0  0  0  0  0  0  0  0  0  0
  2  1  1  0
  3  2  1  0
  4  3  1  0
  5  4  1  0
  5  6  1  1
  7  5  1  0
  7  8  2  0
  9 10  1  0
 10 11  2  0
 10 20  1  0
 11 12  1  0
 12 13  2  0
 13 14  1  0
 15 14  1  6
 15 17  1  0
 15 16  1  0
 16  7  1  0
 17 21  1  0
 18 17  2  0
 19 13  1  0
 20 19  2  0
 21 22  1  0
 22 33  1  0
 23 24  1  0
 22 23  1  1
 24 25  2  0
 26 25  1  0
 27 26  1  0
 28 27  2  0
 29 28  1  0
 30 29  2  0
 30 31  1  0
 31 32  2  0
 32 27  1  0
 32 24  1  0
 33 34  2  0
 33 35  1  0
M  END
$$$$
