YCD.pdb
     RDKit          3D

 27 27  0  0  1  0  0  0  0  0999 V2000
   12.8251  -13.7248  -11.7699 O   0  0  0  0  0  0  0  0  0  0  0  0
   13.6060  -12.5970  -11.9177 C   0  0  0  0  0  0  0  0  0  0  0  0
   13.3181  -11.4635  -11.1689 C   0  0  0  0  0  0  0  0  0  0  0  0
   14.0985  -10.3455  -11.3209 C   0  0  0  0  0  0  0  0  0  0  0  0
   15.1550  -10.3156  -12.1915 C   0  0  0  0  0  0  0  0  0  0  0  0
   16.0153   -9.1452  -12.3887 C   0  0  0  0  0  0  0  0  0  0  0  0
   17.3421   -9.3406  -11.6867 C   0  0  2  0  0  0  0  0  0  0  0  0
   17.1083   -9.3584  -10.2800 N   0  0  0  0  0  0  0  0  0  0  0  0
   18.2073   -8.1964  -12.1095 C   0  0  0  0  0  0  0  0  0  0  0  0
   17.9999   -7.0823  -11.5997 O   0  0  0  0  0  0  0  0  0  0  0  0
   15.4332  -11.4565  -12.9353 C   0  0  0  0  0  0  0  0  0  0  0  0
   14.6610  -12.6066  -12.8046 C   0  0  0  0  0  0  0  0  0  0  0  0
   19.2401   -8.3308  -13.0558 N   0  0  0  0  0  0  0  0  0  0  0  0
   20.0714   -7.2687  -13.5486 C   0  0  1  0  0  0  0  0  0  0  0  0
   21.4591   -7.6644  -13.8842 C   0  0  0  0  0  0  0  0  0  0  0  0
   22.3745   -8.4785  -12.5985 S   0  0  0  0  0  0  0  0  0  0  0  0
   19.3857   -6.4817  -14.6224 C   0  0  0  0  0  0  0  0  0  0  0  0
   18.5981   -7.0256  -15.4383 O   0  0  0  0  0  0  0  0  0  0  0  0
   19.6121   -5.0832  -14.7469 N   0  0  0  0  0  0  0  0  0  0  0  0
   18.8673   -4.3112  -15.7714 C   0  0  1  0  0  0  0  0  0  0  0  0
   17.3890   -4.3962  -15.4634 C   0  0  0  0  0  0  0  0  0  0  0  0
   16.5553   -3.5129  -16.2431 C   0  0  0  0  0  0  0  0  0  0  0  0
   16.9715   -2.7632  -17.1483 O   0  0  0  0  0  0  0  0  0  0  0  0
   19.3012   -2.9144  -15.5746 C   0  0  0  0  0  0  0  0  0  0  0  0
   18.8460   -2.0043  -16.2964 O   0  0  0  0  0  0  0  0  0  0  0  0
   15.1814   -3.4692  -15.9930 O   0  0  0  0  0  0  0  0  0  0  0  0
   20.2069   -2.5851  -14.6011 O   0  0  0  0  0  0  0  0  0  0  0  0
  2 12  2  0
  2  1  1  0
  3  2  1  0
  4  5  1  0
  4  3  2  0
  5 11  2  0
  6  7  1  0
  6  5  1  0
  7  9  1  0
  7  8  1  1
  9 13  1  0
  9 10  2  0
 11 12  1  0
 13 14  1  0
 14 15  1  6
 14 17  1  0
 16 15  1  0
 17 18  2  0
 19 20  1  0
 19 17  1  0
 20 24  1  0
 21 22  1  0
 20 21  1  1
 22 26  1  0
 23 22  2  0
 24 27  1  0
 25 24  2  0
M  END
$$$$
