YCD.pdb
     RDKit          3D

 27 27  0  0  1  0  0  0  0  0999 V2000
   28.4729  -19.1002   -5.2290 O   0  0  0  0  0  0  0  0  0  0  0  0
   28.3297  -19.4799   -6.5477 C   0  0  0  0  0  0  0  0  0  0  0  0
   29.0451  -20.5695   -7.0266 C   0  0  0  0  0  0  0  0  0  0  0  0
   28.8982  -20.9416   -8.3388 C   0  0  0  0  0  0  0  0  0  0  0  0
   28.0646  -20.2680   -9.1911 C   0  0  0  0  0  0  0  0  0  0  0  0
   27.8763  -20.6273  -10.5997 C   0  0  0  0  0  0  0  0  0  0  0  0
   26.4031  -20.7745  -10.9149 C   0  0  2  0  0  0  0  0  0  0  0  0
   25.8156  -21.6246   -9.9319 N   0  0  0  0  0  0  0  0  0  0  0  0
   26.3293  -21.3539  -12.2916 C   0  0  0  0  0  0  0  0  0  0  0  0
   27.3926  -21.5596  -12.9010 O   0  0  0  0  0  0  0  0  0  0  0  0
   27.3538  -19.1791   -8.6999 C   0  0  0  0  0  0  0  0  0  0  0  0
   27.4805  -18.7760   -7.3741 C   0  0  0  0  0  0  0  0  0  0  0  0
   25.1114  -21.6729  -12.9201 N   0  0  0  0  0  0  0  0  0  0  0  0
   24.9655  -22.2292  -14.2359 C   0  0  1  0  0  0  0  0  0  0  0  0
   25.5788  -23.5649  -14.4222 C   0  0  0  0  0  0  0  0  0  0  0  0
   25.3974  -24.2929  -16.0318 S   0  0  0  0  0  0  0  0  0  0  0  0
   23.5529  -22.1341  -14.7237 C   0  0  0  0  0  0  0  0  0  0  0  0
   23.2266  -22.5126  -15.8779 O   0  0  0  0  0  0  0  0  0  0  0  0
   22.5341  -21.6065  -13.8832 N   0  0  0  0  0  0  0  0  0  0  0  0
   21.1115  -21.8854  -14.1967 C   0  0  1  0  0  0  0  0  0  0  0  0
   20.5285  -22.7361  -13.0906 C   0  0  0  0  0  0  0  0  0  0  0  0
   19.1293  -23.0556  -13.2444 C   0  0  0  0  0  0  0  0  0  0  0  0
   18.5566  -23.2155  -14.3404 O   0  0  0  0  0  0  0  0  0  0  0  0
   20.4550  -20.5641  -14.1590 C   0  0  0  0  0  0  0  0  0  0  0  0
   19.2185  -20.4693  -14.2955 O   0  0  0  0  0  0  0  0  0  0  0  0
   18.3310  -23.2034  -12.1073 O   0  0  0  0  0  0  0  0  0  0  0  0
   21.1817  -19.4179  -13.9733 O   0  0  0  0  0  0  0  0  0  0  0  0
  2 12  2  0
  2  1  1  0
  3  2  1  0
  4  5  1  0
  4  3  2  0
  5 11  2  0
  6  7  1  0
  6  5  1  0
  7  9  1  0
  7  8  1  1
  9 13  1  0
  9 10  2  0
 11 12  1  0
 13 14  1  0
 14 15  1  1
 14 17  1  0
 16 15  1  0
 17 18  2  0
 19 20  1  0
 19 17  1  0
 20 24  1  0
 21 22  1  0
 20 21  1  1
 22 26  1  0
 23 22  2  0
 24 27  1  0
 25 24  2  0
M  END
$$$$
