YCD.pdb
     RDKit          3D

 27 27  0  0  1  0  0  0  0  0999 V2000
   25.6827  -15.1511  -19.5674 O   0  0  0  0  0  0  0  0  0  0  0  0
   24.9376  -16.0235  -18.8010 C   0  0  0  0  0  0  0  0  0  0  0  0
   24.2943  -17.0917  -19.4121 C   0  0  0  0  0  0  0  0  0  0  0  0
   23.5550  -17.9553  -18.6441 C   0  0  0  0  0  0  0  0  0  0  0  0
   23.4334  -17.7935  -17.2899 C   0  0  0  0  0  0  0  0  0  0  0  0
   22.6543  -18.6885  -16.4292 C   0  0  0  0  0  0  0  0  0  0  0  0
   23.5698  -19.6452  -15.6957 C   0  0  2  0  0  0  0  0  0  0  0  0
   24.2281  -20.4654  -16.6590 N   0  0  0  0  0  0  0  0  0  0  0  0
   22.6940  -20.4333  -14.7746 C   0  0  0  0  0  0  0  0  0  0  0  0
   22.1023  -21.4259  -15.2315 O   0  0  0  0  0  0  0  0  0  0  0  0
   24.0822  -16.7205  -16.6898 C   0  0  0  0  0  0  0  0  0  0  0  0
   24.8396  -15.8266  -17.4403 C   0  0  0  0  0  0  0  0  0  0  0  0
   22.5144  -20.0970  -13.4200 N   0  0  0  0  0  0  0  0  0  0  0  0
   21.7289  -20.8321  -12.4690 C   0  0  1  0  0  0  0  0  0  0  0  0
   22.1662  -20.6988  -11.0598 C   0  0  0  0  0  0  0  0  0  0  0  0
   21.2851  -19.5127  -10.0747 S   0  0  0  0  0  0  0  0  0  0  0  0
   20.2619  -20.6126  -12.6750 C   0  0  0  0  0  0  0  0  0  0  0  0
   19.7783  -19.4580  -12.7970 O   0  0  0  0  0  0  0  0  0  0  0  0
   19.3696  -21.7183  -12.7377 N   0  0  0  0  0  0  0  0  0  0  0  0
   17.9173  -21.4754  -12.9163 C   0  0  1  0  0  0  0  0  0  0  0  0
   17.4895  -22.0492  -14.2485 C   0  0  0  0  0  0  0  0  0  0  0  0
   16.0653  -22.0408  -14.4832 C   0  0  0  0  0  0  0  0  0  0  0  0
   15.2136  -21.6678  -13.6525 O   0  0  0  0  0  0  0  0  0  0  0  0
   17.2732  -22.2611  -11.8458 C   0  0  0  0  0  0  0  0  0  0  0  0
   17.8932  -23.1840  -11.2798 O   0  0  0  0  0  0  0  0  0  0  0  0
   15.5714  -22.4745  -15.7162 O   0  0  0  0  0  0  0  0  0  0  0  0
   15.9887  -21.9976  -11.4495 O   0  0  0  0  0  0  0  0  0  0  0  0
  2 12  2  0
  2  1  1  0
  3  2  1  0
  4  5  1  0
  4  3  2  0
  5 11  2  0
  6  7  1  0
  6  5  1  0
  7  9  1  0
  7  8  1  6
  9 13  1  0
  9 10  2  0
 11 12  1  0
 13 14  1  0
 14 15  1  1
 14 17  1  0
 16 15  1  0
 17 18  2  0
 19 20  1  0
 19 17  1  0
 20 24  1  0
 21 22  1  0
 20 21  1  6
 22 26  1  0
 23 22  2  0
 24 27  1  0
 25 24  2  0
M  END
$$$$
