YCD.pdb
     RDKit          3D

 27 27  0  0  1  0  0  0  0  0999 V2000
   33.1899   -8.0280  -18.6337 O   0  0  0  0  0  0  0  0  0  0  0  0
   31.8325   -8.1473  -18.4174 C   0  0  0  0  0  0  0  0  0  0  0  0
   30.9571   -7.3011  -19.0852 C   0  0  0  0  0  0  0  0  0  0  0  0
   29.6086   -7.4251  -18.8653 C   0  0  0  0  0  0  0  0  0  0  0  0
   29.1007   -8.3611  -18.0046 C   0  0  0  0  0  0  0  0  0  0  0  0
   27.6694   -8.5299  -17.7368 C   0  0  0  0  0  0  0  0  0  0  0  0
   27.2576   -9.9702  -17.9544 C   0  0  2  0  0  0  0  0  0  0  0  0
   27.5536  -10.3236  -19.3040 N   0  0  0  0  0  0  0  0  0  0  0  0
   25.7941  -10.0331  -17.6532 C   0  0  0  0  0  0  0  0  0  0  0  0
   24.9941   -9.9346  -18.5990 O   0  0  0  0  0  0  0  0  0  0  0  0
   29.9871   -9.2023  -17.3421 C   0  0  0  0  0  0  0  0  0  0  0  0
   31.3603   -9.1024  -17.5430 C   0  0  0  0  0  0  0  0  0  0  0  0
   25.2906  -10.1979  -16.3495 N   0  0  0  0  0  0  0  0  0  0  0  0
   23.9102  -10.3813  -15.9991 C   0  0  1  0  0  0  0  0  0  0  0  0
   23.6387  -11.5318  -15.1059 C   0  0  0  0  0  0  0  0  0  0  0  0
   24.6109  -12.9906  -15.3896 S   0  0  0  0  0  0  0  0  0  0  0  0
   23.2777   -9.0999  -15.5513 C   0  0  0  0  0  0  0  0  0  0  0  0
   23.9670   -8.0838  -15.2790 O   0  0  0  0  0  0  0  0  0  0  0  0
   21.8649   -9.0005  -15.4213 N   0  0  0  0  0  0  0  0  0  0  0  0
   21.2530   -7.6924  -15.0832 C   0  0  1  0  0  0  0  0  0  0  0  0
   21.5282   -6.7220  -16.2101 C   0  0  0  0  0  0  0  0  0  0  0  0
   20.8420   -5.4567  -16.1022 C   0  0  0  0  0  0  0  0  0  0  0  0
   20.5387   -4.9061  -15.0254 O   0  0  0  0  0  0  0  0  0  0  0  0
   19.8017   -7.9579  -15.0455 C   0  0  0  0  0  0  0  0  0  0  0  0
   19.3452   -9.0339  -15.4818 O   0  0  0  0  0  0  0  0  0  0  0  0
   20.4771   -4.7737  -17.2651 O   0  0  0  0  0  0  0  0  0  0  0  0
   18.9267   -7.0368  -14.5333 O   0  0  0  0  0  0  0  0  0  0  0  0
  2 12  2  0
  2  1  1  0
  3  2  1  0
  4  5  1  0
  4  3  2  0
  5 11  2  0
  6  7  1  0
  6  5  1  0
  7  9  1  0
  7  8  1  6
  9 13  1  0
  9 10  2  0
 11 12  1  0
 13 14  1  0
 14 15  1  1
 14 17  1  0
 16 15  1  0
 17 18  2  0
 19 20  1  0
 19 17  1  0
 20 24  1  0
 21 22  1  0
 20 21  1  6
 22 26  1  0
 23 22  2  0
 24 27  1  0
 25 24  2  0
M  END
$$$$
