YCD.pdb
     RDKit          3D

 27 27  0  0  1  0  0  0  0  0999 V2000
   26.7707  -24.2224  -15.6989 O   0  0  0  0  0  0  0  0  0  0  0  0
   25.6483  -23.7572  -15.0452 C   0  0  0  0  0  0  0  0  0  0  0  0
   25.4383  -22.3887  -14.9373 C   0  0  0  0  0  0  0  0  0  0  0  0
   24.3202  -21.9330  -14.2859 C   0  0  0  0  0  0  0  0  0  0  0  0
   23.4041  -22.7907  -13.7382 C   0  0  0  0  0  0  0  0  0  0  0  0
   22.1967  -22.3510  -13.0326 C   0  0  0  0  0  0  0  0  0  0  0  0
   20.9858  -22.4700  -13.9330 C   0  0  2  0  0  0  0  0  0  0  0  0
   20.8160  -21.2340  -14.6240 N   0  0  0  0  0  0  0  0  0  0  0  0
   19.8320  -22.7886  -13.0364 C   0  0  0  0  0  0  0  0  0  0  0  0
   19.1386  -21.8481  -12.6134 O   0  0  0  0  0  0  0  0  0  0  0  0
   23.6253  -24.1582  -13.8528 C   0  0  0  0  0  0  0  0  0  0  0  0
   24.7493  -24.6528  -14.5072 C   0  0  0  0  0  0  0  0  0  0  0  0
   19.5030  -24.1026  -12.6552 N   0  0  0  0  0  0  0  0  0  0  0  0
   18.3546  -24.4915  -11.8860 C   0  0  1  0  0  0  0  0  0  0  0  0
   17.4346  -25.4322  -12.5669 C   0  0  0  0  0  0  0  0  0  0  0  0
   18.1971  -26.7282  -13.5119 S   0  0  0  0  0  0  0  0  0  0  0  0
   18.7328  -24.9068  -10.4978 C   0  0  0  0  0  0  0  0  0  0  0  0
   19.7767  -25.5698  -10.2687 O   0  0  0  0  0  0  0  0  0  0  0  0
   17.9099  -24.5574   -9.3917 N   0  0  0  0  0  0  0  0  0  0  0  0
   18.3101  -24.9706   -8.0245 C   0  0  1  0  0  0  0  0  0  0  0  0
   17.7052  -24.0057   -7.0293 C   0  0  0  0  0  0  0  0  0  0  0  0
   17.9602  -24.3234   -5.6446 C   0  0  0  0  0  0  0  0  0  0  0  0
   18.8656  -25.0836   -5.2484 O   0  0  0  0  0  0  0  0  0  0  0  0
   17.6770  -26.2900   -7.8331 C   0  0  0  0  0  0  0  0  0  0  0  0
   18.0048  -27.0139   -6.8713 O   0  0  0  0  0  0  0  0  0  0  0  0
   17.1557  -23.7575   -4.6523 O   0  0  0  0  0  0  0  0  0  0  0  0
   16.7202  -26.7482   -8.6996 O   0  0  0  0  0  0  0  0  0  0  0  0
  2 12  2  0
  2  1  1  0
  3  2  1  0
  4  5  1  0
  4  3  2  0
  5 11  2  0
  6  7  1  0
  6  5  1  0
  7  9  1  0
  7  8  1  1
  9 13  1  0
  9 10  2  0
 11 12  1  0
 13 14  1  0
 14 15  1  6
 14 17  1  0
 16 15  1  0
 17 18  2  0
 19 20  1  0
 19 17  1  0
 20 24  1  0
 21 22  1  0
 20 21  1  1
 22 26  1  0
 23 22  2  0
 24 27  1  0
 25 24  2  0
M  END
$$$$
