YCD.pdb
     RDKit          3D

 27 27  0  0  1  0  0  0  0  0999 V2000
   19.9645  -19.1403  -14.3981 O   0  0  0  0  0  0  0  0  0  0  0  0
   20.3443  -17.9049  -14.8809 C   0  0  0  0  0  0  0  0  0  0  0  0
   21.5491  -17.7773  -15.5594 C   0  0  0  0  0  0  0  0  0  0  0  0
   21.9208  -16.5459  -16.0367 C   0  0  0  0  0  0  0  0  0  0  0  0
   21.1360  -15.4374  -15.8626 C   0  0  0  0  0  0  0  0  0  0  0  0
   21.4914  -14.1025  -16.3529 C   0  0  0  0  0  0  0  0  0  0  0  0
   20.6325  -13.7307  -17.5426 C   0  0  2  0  0  0  0  0  0  0  0  0
   20.9516  -14.6094  -18.6198 N   0  0  0  0  0  0  0  0  0  0  0  0
   20.9510  -12.3031  -17.8541 C   0  0  0  0  0  0  0  0  0  0  0  0
   21.9950  -12.0566  -18.4815 O   0  0  0  0  0  0  0  0  0  0  0  0
   19.9322  -15.5780  -15.1820 C   0  0  0  0  0  0  0  0  0  0  0  0
   19.5264  -16.8128  -14.6853 C   0  0  0  0  0  0  0  0  0  0  0  0
   20.1208  -11.2349  -17.4669 N   0  0  0  0  0  0  0  0  0  0  0  0
   20.2973   -9.8580  -17.8340 C   0  0  1  0  0  0  0  0  0  0  0  0
   19.5928   -9.4444  -19.0700 C   0  0  0  0  0  0  0  0  0  0  0  0
   17.9026   -9.9681  -19.2212 S   0  0  0  0  0  0  0  0  0  0  0  0
   20.0748   -8.9419  -16.6705 C   0  0  0  0  0  0  0  0  0  0  0  0
   19.2272   -9.2022  -15.7785 O   0  0  0  0  0  0  0  0  0  0  0  0
   20.8256   -7.7406  -16.5451 N   0  0  0  0  0  0  0  0  0  0  0  0
   20.6891   -6.9188  -15.3179 C   0  0  1  0  0  0  0  0  0  0  0  0
   22.0604   -6.4335  -14.9038 C   0  0  0  0  0  0  0  0  0  0  0  0
   22.0723   -5.5533  -13.7599 C   0  0  0  0  0  0  0  0  0  0  0  0
   21.0595   -5.2185  -13.1143 O   0  0  0  0  0  0  0  0  0  0  0  0
   19.8922   -5.7498  -15.7384 C   0  0  0  0  0  0  0  0  0  0  0  0
   19.9299   -5.3521  -16.9203 O   0  0  0  0  0  0  0  0  0  0  0  0
   23.2860   -5.0206  -13.3177 O   0  0  0  0  0  0  0  0  0  0  0  0
   19.0965   -5.0785  -14.8481 O   0  0  0  0  0  0  0  0  0  0  0  0
  2 12  2  0
  2  1  1  0
  3  2  1  0
  4  5  1  0
  4  3  2  0
  5 11  2  0
  6  7  1  0
  6  5  1  0
  7  9  1  0
  7  8  1  6
  9 13  1  0
  9 10  2  0
 11 12  1  0
 13 14  1  0
 14 15  1  6
 14 17  1  0
 16 15  1  0
 17 18  2  0
 19 20  1  0
 19 17  1  0
 20 24  1  0
 21 22  1  0
 20 21  1  6
 22 26  1  0
 23 22  2  0
 24 27  1  0
 25 24  2  0
M  END
$$$$
