YCD.pdb
     RDKit          3D

 27 27  0  0  1  0  0  0  0  0999 V2000
   29.4691  -11.8913  -16.7242 O   0  0  0  0  0  0  0  0  0  0  0  0
   28.5974  -12.9512  -16.8670 C   0  0  0  0  0  0  0  0  0  0  0  0
   27.9784  -13.4831  -15.7436 C   0  0  0  0  0  0  0  0  0  0  0  0
   27.1129  -14.5371  -15.8928 C   0  0  0  0  0  0  0  0  0  0  0  0
   26.8417  -15.0801  -17.1202 C   0  0  0  0  0  0  0  0  0  0  0  0
   25.9263  -16.2059  -17.3287 C   0  0  0  0  0  0  0  0  0  0  0  0
   26.6163  -17.5143  -17.0072 C   0  0  2  0  0  0  0  0  0  0  0  0
   27.6830  -17.7001  -17.9354 N   0  0  0  0  0  0  0  0  0  0  0  0
   25.5677  -18.5747  -17.1193 C   0  0  0  0  0  0  0  0  0  0  0  0
   25.7774  -19.5307  -17.8850 O   0  0  0  0  0  0  0  0  0  0  0  0
   27.4673  -14.5388  -18.2372 C   0  0  0  0  0  0  0  0  0  0  0  0
   28.3504  -13.4699  -18.1199 C   0  0  0  0  0  0  0  0  0  0  0  0
   24.3607  -18.5325  -16.3971 N   0  0  0  0  0  0  0  0  0  0  0  0
   23.3783  -19.5783  -16.3410 C   0  0  1  0  0  0  0  0  0  0  0  0
   23.8872  -20.8910  -15.8796 C   0  0  0  0  0  0  0  0  0  0  0  0
   22.6669  -22.1509  -15.6019 S   0  0  0  0  0  0  0  0  0  0  0  0
   22.1309  -19.1294  -15.6445 C   0  0  0  0  0  0  0  0  0  0  0  0
   22.1505  -18.2175  -14.7786 O   0  0  0  0  0  0  0  0  0  0  0  0
   20.8790  -19.7316  -15.9491 N   0  0  0  0  0  0  0  0  0  0  0  0
   19.6262  -19.0842  -15.4892 C   0  0  1  0  0  0  0  0  0  0  0  0
   19.5012  -17.7358  -16.1625 C   0  0  0  0  0  0  0  0  0  0  0  0
   18.2552  -17.0492  -15.9187 C   0  0  0  0  0  0  0  0  0  0  0  0
   17.3523  -17.4676  -15.1673 O   0  0  0  0  0  0  0  0  0  0  0  0
   18.5482  -19.9558  -15.9956 C   0  0  0  0  0  0  0  0  0  0  0  0
   18.3948  -20.1223  -17.2225 O   0  0  0  0  0  0  0  0  0  0  0  0
   18.0100  -15.8283  -16.5522 O   0  0  0  0  0  0  0  0  0  0  0  0
   17.6966  -20.5995  -15.1373 O   0  0  0  0  0  0  0  0  0  0  0  0
  2 12  2  0
  2  1  1  0
  3  2  1  0
  4  5  1  0
  4  3  2  0
  5 11  2  0
  6  7  1  0
  6  5  1  0
  7  9  1  0
  7  8  1  6
  9 13  1  0
  9 10  2  0
 11 12  1  0
 13 14  1  0
 14 15  1  1
 14 17  1  0
 16 15  1  0
 17 18  2  0
 19 20  1  0
 19 17  1  0
 20 24  1  0
 21 22  1  0
 20 21  1  6
 22 26  1  0
 23 22  2  0
 24 27  1  0
 25 24  2  0
M  END
$$$$
