YCD.pdb
     RDKit          3D

 27 27  0  0  1  0  0  0  0  0999 V2000
   19.7871  -12.8151  -16.6573 O   0  0  0  0  0  0  0  0  0  0  0  0
   19.0829  -11.8234  -16.0060 C   0  0  0  0  0  0  0  0  0  0  0  0
   17.7069  -11.7400  -16.1730 C   0  0  0  0  0  0  0  0  0  0  0  0
   17.0129  -10.7514  -15.5225 C   0  0  0  0  0  0  0  0  0  0  0  0
   17.6397   -9.8431  -14.7120 C   0  0  0  0  0  0  0  0  0  0  0  0
   16.9413   -8.7699  -13.9983 C   0  0  0  0  0  0  0  0  0  0  0  0
   16.5395   -9.2307  -12.6136 C   0  0  2  0  0  0  0  0  0  0  0  0
   15.5904  -10.2867  -12.7488 N   0  0  0  0  0  0  0  0  0  0  0  0
   15.9683   -8.0313  -11.9268 C   0  0  0  0  0  0  0  0  0  0  0  0
   14.8337   -7.6482  -12.2586 O   0  0  0  0  0  0  0  0  0  0  0  0
   19.0174   -9.9370  -14.5527 C   0  0  0  0  0  0  0  0  0  0  0  0
   19.7504  -10.9278  -15.1984 C   0  0  0  0  0  0  0  0  0  0  0  0
   16.6607   -7.3239  -10.9266 N   0  0  0  0  0  0  0  0  0  0  0  0
   16.1536   -6.2025  -10.1869 C   0  0  1  0  0  0  0  0  0  0  0  0
   16.4019   -6.2518   -8.7271 C   0  0  0  0  0  0  0  0  0  0  0  0
   15.6054   -7.5686   -7.8408 S   0  0  0  0  0  0  0  0  0  0  0  0
   16.5311   -4.9016  -10.8254 C   0  0  0  0  0  0  0  0  0  0  0  0
   17.6842   -4.7032  -11.2867 O   0  0  0  0  0  0  0  0  0  0  0  0
   15.5830   -3.8463  -10.9261 N   0  0  0  0  0  0  0  0  0  0  0  0
   15.9763   -2.5705  -11.5724 C   0  0  1  0  0  0  0  0  0  0  0  0
   15.5690   -2.6182  -13.0281 C   0  0  0  0  0  0  0  0  0  0  0  0
   15.7359   -1.3769  -13.7456 C   0  0  0  0  0  0  0  0  0  0  0  0
   16.2318   -0.3407  -13.2607 O   0  0  0  0  0  0  0  0  0  0  0  0
   15.1601   -1.5429  -10.8971 C   0  0  0  0  0  0  0  0  0  0  0  0
   15.3472   -0.3323  -11.1334 O   0  0  0  0  0  0  0  0  0  0  0  0
   15.3240   -1.2948  -15.0782 O   0  0  0  0  0  0  0  0  0  0  0  0
   14.1836   -1.8907  -10.0016 O   0  0  0  0  0  0  0  0  0  0  0  0
  2 12  2  0
  2  1  1  0
  3  2  1  0
  4  5  1  0
  4  3  2  0
  5 11  2  0
  6  7  1  0
  6  5  1  0
  7  9  1  0
  7  8  1  6
  9 13  1  0
  9 10  2  0
 11 12  1  0
 13 14  1  0
 14 15  1  1
 14 17  1  0
 16 15  1  0
 17 18  2  0
 19 20  1  0
 19 17  1  0
 20 24  1  0
 21 22  1  0
 20 21  1  6
 22 26  1  0
 23 22  2  0
 24 27  1  0
 25 24  2  0
M  END
$$$$
