YCD.pdb
     RDKit          3D

 27 27  0  0  1  0  0  0  0  0999 V2000
   22.1714  -32.6370   -6.3663 O   0  0  0  0  0  0  0  0  0  0  0  0
   22.1188  -31.6870   -7.3655 C   0  0  0  0  0  0  0  0  0  0  0  0
   23.2989  -31.2334   -7.9398 C   0  0  0  0  0  0  0  0  0  0  0  0
   23.2395  -30.2885   -8.9327 C   0  0  0  0  0  0  0  0  0  0  0  0
   22.0475  -29.7794   -9.3742 C   0  0  0  0  0  0  0  0  0  0  0  0
   21.9343  -28.7690  -10.4301 C   0  0  0  0  0  0  0  0  0  0  0  0
   21.5604  -29.4188  -11.7451 C   0  0  2  0  0  0  0  0  0  0  0  0
   22.6378  -30.2590  -12.1540 N   0  0  0  0  0  0  0  0  0  0  0  0
   21.3108  -28.2992  -12.7048 C   0  0  0  0  0  0  0  0  0  0  0  0
   22.1569  -28.0823  -13.5886 O   0  0  0  0  0  0  0  0  0  0  0  0
   20.8731  -30.2416   -8.7916 C   0  0  0  0  0  0  0  0  0  0  0  0
   20.8990  -31.1991   -7.7824 C   0  0  0  0  0  0  0  0  0  0  0  0
   20.1632  -27.4868  -12.6464 N   0  0  0  0  0  0  0  0  0  0  0  0
   19.7275  -26.5740  -13.6655 C   0  0  1  0  0  0  0  0  0  0  0  0
   19.7352  -27.1224  -15.0419 C   0  0  0  0  0  0  0  0  0  0  0  0
   19.2201  -26.0138  -16.3300 S   0  0  0  0  0  0  0  0  0  0  0  0
   18.4484  -25.8926  -13.2885 C   0  0  0  0  0  0  0  0  0  0  0  0
   17.4578  -26.5389  -12.8607 O   0  0  0  0  0  0  0  0  0  0  0  0
   18.3216  -24.4811  -13.4070 N   0  0  0  0  0  0  0  0  0  0  0  0
   17.0305  -23.8330  -13.0708 C   0  0  1  0  0  0  0  0  0  0  0  0
   17.0691  -23.3964  -11.6233 C   0  0  0  0  0  0  0  0  0  0  0  0
   15.8809  -22.7187  -11.1623 C   0  0  0  0  0  0  0  0  0  0  0  0
   14.9287  -22.3836  -11.8943 O   0  0  0  0  0  0  0  0  0  0  0  0
   16.9876  -22.6249  -13.9174 C   0  0  0  0  0  0  0  0  0  0  0  0
   18.0418  -22.0352  -14.2299 O   0  0  0  0  0  0  0  0  0  0  0  0
   15.7555  -22.4004   -9.8077 O   0  0  0  0  0  0  0  0  0  0  0  0
   15.7983  -22.1257  -14.3786 O   0  0  0  0  0  0  0  0  0  0  0  0
  2 12  2  0
  2  1  1  0
  3  2  1  0
  4  5  1  0
  4  3  2  0
  5 11  2  0
  6  7  1  0
  6  5  1  0
  7  9  1  0
  7  8  1  6
  9 13  1  0
  9 10  2  0
 11 12  1  0
 13 14  1  0
 14 15  1  6
 14 17  1  0
 16 15  1  0
 17 18  2  0
 19 20  1  0
 19 17  1  0
 20 24  1  0
 21 22  1  0
 20 21  1  1
 22 26  1  0
 23 22  2  0
 24 27  1  0
 25 24  2  0
M  END
$$$$
