YCD.pdb
     RDKit          3D

 27 27  0  0  1  0  0  0  0  0999 V2000
   20.5270  -19.1958  -20.5433 O   0  0  0  0  0  0  0  0  0  0  0  0
   21.0454  -18.9518  -19.2882 C   0  0  0  0  0  0  0  0  0  0  0  0
   20.2547  -19.1706  -18.1678 C   0  0  0  0  0  0  0  0  0  0  0  0
   20.7765  -18.9259  -16.9228 C   0  0  0  0  0  0  0  0  0  0  0  0
   22.0569  -18.4713  -16.7535 C   0  0  0  0  0  0  0  0  0  0  0  0
   22.6569  -18.1947  -15.4449 C   0  0  0  0  0  0  0  0  0  0  0  0
   23.3506  -19.4292  -14.9102 C   0  0  2  0  0  0  0  0  0  0  0  0
   24.0390  -20.0606  -15.9880 N   0  0  0  0  0  0  0  0  0  0  0  0
   22.2743  -20.2927  -14.3335 C   0  0  0  0  0  0  0  0  0  0  0  0
   21.9599  -21.3280  -14.9447 O   0  0  0  0  0  0  0  0  0  0  0  0
   22.8386  -18.2562  -17.8826 C   0  0  0  0  0  0  0  0  0  0  0  0
   22.3393  -18.4947  -19.1594 C   0  0  0  0  0  0  0  0  0  0  0  0
   21.6076  -19.9808  -13.1341 N   0  0  0  0  0  0  0  0  0  0  0  0
   20.6095  -20.7899  -12.4929 C   0  0  1  0  0  0  0  0  0  0  0  0
   20.4253  -20.5272  -11.0465 C   0  0  0  0  0  0  0  0  0  0  0  0
   21.6168  -19.4509  -10.2876 S   0  0  0  0  0  0  0  0  0  0  0  0
   19.3325  -20.8168  -13.2746 C   0  0  0  0  0  0  0  0  0  0  0  0
   19.0134  -19.8788  -14.0494 O   0  0  0  0  0  0  0  0  0  0  0  0
   18.4389  -21.9169  -13.1576 N   0  0  0  0  0  0  0  0  0  0  0  0
   17.2496  -21.9889  -14.0410 C   0  0  1  0  0  0  0  0  0  0  0  0
   17.0228  -23.4319  -14.4331 C   0  0  0  0  0  0  0  0  0  0  0  0
   15.8322  -23.6682  -15.2141 C   0  0  0  0  0  0  0  0  0  0  0  0
   15.7258  -23.4257  -16.4326 O   0  0  0  0  0  0  0  0  0  0  0  0
   16.1246  -21.5590  -13.1880 C   0  0  0  0  0  0  0  0  0  0  0  0
   16.1944  -21.6707  -11.9474 O   0  0  0  0  0  0  0  0  0  0  0  0
   14.7012  -24.2053  -14.5941 O   0  0  0  0  0  0  0  0  0  0  0  0
   14.9850  -21.0295  -13.7333 O   0  0  0  0  0  0  0  0  0  0  0  0
  2 12  2  0
  2  1  1  0
  3  2  1  0
  4  5  1  0
  4  3  2  0
  5 11  2  0
  6  7  1  0
  6  5  1  0
  7  9  1  0
  7  8  1  6
  9 13  1  0
  9 10  2  0
 11 12  1  0
 13 14  1  0
 14 15  1  1
 14 17  1  0
 16 15  1  0
 17 18  2  0
 19 20  1  0
 19 17  1  0
 20 24  1  0
 21 22  1  0
 20 21  1  1
 22 26  1  0
 23 22  2  0
 24 27  1  0
 25 24  2  0
M  END
$$$$
