YCD.pdb
     RDKit          3D

 27 27  0  0  1  0  0  0  0  0999 V2000
   27.0303  -20.6928   -6.4638 O   0  0  0  0  0  0  0  0  0  0  0  0
   26.9447  -20.6226   -7.8390 C   0  0  0  0  0  0  0  0  0  0  0  0
   26.3586  -19.5118   -8.4314 C   0  0  0  0  0  0  0  0  0  0  0  0
   26.2766  -19.4485   -9.7994 C   0  0  0  0  0  0  0  0  0  0  0  0
   26.7572  -20.4512  -10.5984 C   0  0  0  0  0  0  0  0  0  0  0  0
   26.6910  -20.4287  -12.0627 C   0  0  0  0  0  0  0  0  0  0  0  0
   25.3564  -19.8822  -12.5227 C   0  0  2  0  0  0  0  0  0  0  0  0
   24.3890  -20.9266  -12.4367 N   0  0  0  0  0  0  0  0  0  0  0  0
   25.5640  -19.4074  -13.9255 C   0  0  0  0  0  0  0  0  0  0  0  0
   25.1022  -20.0933  -14.8532 O   0  0  0  0  0  0  0  0  0  0  0  0
   27.3419  -21.5578   -9.9937 C   0  0  0  0  0  0  0  0  0  0  0  0
   27.4405  -21.6527   -8.6090 C   0  0  0  0  0  0  0  0  0  0  0  0
   26.2575  -18.2225  -14.2345 N   0  0  0  0  0  0  0  0  0  0  0  0
   26.5053  -17.7140  -15.5543 C   0  0  1  0  0  0  0  0  0  0  0  0
   27.0796  -16.3490  -15.6014 C   0  0  0  0  0  0  0  0  0  0  0  0
   26.7702  -15.3194  -14.1880 S   0  0  0  0  0  0  0  0  0  0  0  0
   27.2316  -18.7102  -16.4042 C   0  0  0  0  0  0  0  0  0  0  0  0
   28.0994  -19.4817  -15.9208 O   0  0  0  0  0  0  0  0  0  0  0  0
   26.9544  -18.8085  -17.7956 N   0  0  0  0  0  0  0  0  0  0  0  0
   27.1526  -20.1041  -18.4900 C   0  0  1  0  0  0  0  0  0  0  0  0
   26.1919  -21.1178  -17.9097 C   0  0  0  0  0  0  0  0  0  0  0  0
   26.1410  -22.3772  -18.6131 C   0  0  0  0  0  0  0  0  0  0  0  0
   26.7778  -22.6321  -19.6543 O   0  0  0  0  0  0  0  0  0  0  0  0
   26.7597  -19.8421  -19.8883 C   0  0  0  0  0  0  0  0  0  0  0  0
   25.6111  -19.4349  -20.1556 O   0  0  0  0  0  0  0  0  0  0  0  0
   25.3321  -23.4047  -18.1211 O   0  0  0  0  0  0  0  0  0  0  0  0
   27.6404  -20.0368  -20.9192 O   0  0  0  0  0  0  0  0  0  0  0  0
  2 12  2  0
  2  1  1  0
  3  2  1  0
  4  5  1  0
  4  3  2  0
  5 11  2  0
  6  7  1  0
  6  5  1  0
  7  9  1  0
  7  8  1  6
  9 13  1  0
  9 10  2  0
 11 12  1  0
 13 14  1  0
 14 15  1  1
 14 17  1  0
 16 15  1  0
 17 18  2  0
 19 20  1  0
 19 17  1  0
 20 24  1  0
 21 22  1  0
 20 21  1  1
 22 26  1  0
 23 22  2  0
 24 27  1  0
 25 24  2  0
M  END
$$$$
