KGV.pdb
     RDKit          3D

 21 20  0  0  1  0  0  0  0  0999 V2000
   22.8959  -21.2097  -12.8767 N   0  0  0  0  0  0  0  0  0  0  0  0
   23.7848  -20.2957  -12.2142 C   0  0  1  0  0  0  0  0  0  0  0  0
   24.2471  -20.8787  -10.8722 C   0  0  0  0  0  0  0  0  0  0  0  0
   23.0775  -20.8178   -9.9498 C   0  0  0  0  0  0  0  0  0  0  0  0
   23.3699  -21.3308   -8.5654 C   0  0  0  0  0  0  0  0  0  0  0  0
   22.1733  -21.3139   -7.6614 C   0  0  0  0  0  0  0  0  0  0  0  0
   22.4691  -21.7700   -6.3275 N   0  0  0  0  0  0  0  0  0  0  0  0
   24.9889  -19.9827  -12.9876 C   0  0  0  0  0  0  0  0  0  0  0  0
   25.6663  -20.9116  -13.4673 O   0  0  0  0  0  0  0  0  0  0  0  0
   25.3895  -18.6416  -13.1949 N   0  0  0  0  0  0  0  0  0  0  0  0
   25.5623  -18.1758  -14.5426 C   0  0  0  0  0  0  0  0  0  0  0  0
   26.7544  -18.7690  -15.1764 C   0  0  0  0  0  0  0  0  0  0  0  0
   27.7986  -18.0719  -15.2368 O   0  0  0  0  0  0  0  0  0  0  0  0
   29.5360  -22.3861  -16.8487 C   0  0  0  0  0  0  0  0  0  0  0  0
   28.2114  -22.0457  -16.1880 C   0  0  2  0  0  0  0  0  0  0  0  0
   27.1471  -22.8342  -16.9529 C   0  0  0  0  0  0  0  0  0  0  0  0
   27.9841  -20.5769  -16.3364 C   0  0  2  0  0  0  0  0  0  0  0  0
   26.8203  -20.0576  -15.7221 N   0  0  0  0  0  0  0  0  0  0  0  0
   27.9590  -20.2211  -17.7791 C   0  0  0  0  0  0  0  0  0  0  0  0
   28.9951  -20.2120  -18.4743 O   0  0  0  0  0  0  0  0  0  0  0  0
   26.7678  -19.8755  -18.4389 O   0  0  0  0  0  0  0  0  0  0  0  0
  2  8  1  0
  2  1  1  6
  3  2  1  0
  4  3  1  0
  5  4  1  0
  6  7  1  0
  6  5  1  0
  8  9  2  0
 10  8  1  0
 10 11  1  0
 11 12  1  0
 12 13  2  0
 15 14  1  6
 15 17  1  0
 16 15  1  0
 17 19  1  0
 18 12  1  0
 17 18  1  6
 19 20  2  0
 19 21  1  0
M  END
$$$$
