KGV.pdb
     RDKit          3D

 21 20  0  0  1  0  0  0  0  0999 V2000
   25.7528  -21.3573  -16.6796 N   0  0  0  0  0  0  0  0  0  0  0  0
   26.0452  -19.9590  -16.8336 C   0  0  1  0  0  0  0  0  0  0  0  0
   24.7628  -19.1768  -17.1475 C   0  0  0  0  0  0  0  0  0  0  0  0
   23.6646  -19.8198  -16.3710 C   0  0  0  0  0  0  0  0  0  0  0  0
   22.3135  -19.1993  -16.6045 C   0  0  0  0  0  0  0  0  0  0  0  0
   21.2318  -19.7956  -15.7537 C   0  0  0  0  0  0  0  0  0  0  0  0
   19.9491  -19.1717  -15.9549 N   0  0  0  0  0  0  0  0  0  0  0  0
   26.6433  -19.3494  -15.6434 C   0  0  0  0  0  0  0  0  0  0  0  0
   27.0802  -18.1845  -15.7068 O   0  0  0  0  0  0  0  0  0  0  0  0
   26.7298  -20.0667  -14.4269 N   0  0  0  0  0  0  0  0  0  0  0  0
   27.2854  -19.4078  -13.2778 C   0  0  0  0  0  0  0  0  0  0  0  0
   27.1018  -20.2041  -12.0502 C   0  0  0  0  0  0  0  0  0  0  0  0
   27.1597  -21.4561  -12.1453 O   0  0  0  0  0  0  0  0  0  0  0  0
   26.9745  -20.9621   -7.2530 C   0  0  0  0  0  0  0  0  0  0  0  0
   27.2033  -19.9258   -8.3395 C   0  0  2  0  0  0  0  0  0  0  0  0
   26.3942  -18.6965   -7.9228 C   0  0  0  0  0  0  0  0  0  0  0  0
   26.6873  -20.4824   -9.6260 C   0  0  2  0  0  0  0  0  0  0  0  0
   26.8660  -19.6757  -10.7743 N   0  0  0  0  0  0  0  0  0  0  0  0
   25.2415  -20.7973   -9.4869 C   0  0  0  0  0  0  0  0  0  0  0  0
   24.3576  -20.0726   -9.9872 O   0  0  0  0  0  0  0  0  0  0  0  0
   24.7911  -21.9277   -8.7848 O   0  0  0  0  0  0  0  0  0  0  0  0
  2  8  1  0
  2  1  1  1
  3  2  1  0
  4  3  1  0
  5  4  1  0
  6  7  1  0
  6  5  1  0
  8  9  2  0
 10  8  1  0
 10 11  1  0
 11 12  1  0
 12 13  2  0
 15 14  1  1
 15 17  1  0
 16 15  1  0
 17 19  1  0
 18 12  1  0
 17 18  1  6
 19 20  2  0
 19 21  1  0
M  END
$$$$
