KGV.pdb
     RDKit          3D

 21 20  0  0  1  0  0  0  0  0999 V2000
   22.0100  -21.6816  -14.1695 N   0  0  0  0  0  0  0  0  0  0  0  0
   23.3490  -21.2011  -14.3720 C   0  0  1  0  0  0  0  0  0  0  0  0
   24.0441  -22.0074  -15.4771 C   0  0  0  0  0  0  0  0  0  0  0  0
   24.6663  -23.1922  -14.8201 C   0  0  0  0  0  0  0  0  0  0  0  0
   25.2920  -24.1620  -15.7860 C   0  0  0  0  0  0  0  0  0  0  0  0
   25.7829  -25.4186  -15.1308 C   0  0  0  0  0  0  0  0  0  0  0  0
   26.3716  -26.3463  -16.0624 N   0  0  0  0  0  0  0  0  0  0  0  0
   23.4143  -19.7901  -14.7598 C   0  0  0  0  0  0  0  0  0  0  0  0
   24.5120  -19.2926  -15.0752 O   0  0  0  0  0  0  0  0  0  0  0  0
   22.2484  -18.9887  -14.7799 N   0  0  0  0  0  0  0  0  0  0  0  0
   22.3629  -17.6179  -15.1934 C   0  0  0  0  0  0  0  0  0  0  0  0
   21.0456  -16.9596  -15.2717 C   0  0  0  0  0  0  0  0  0  0  0  0
   20.2384  -17.1415  -14.3256 O   0  0  0  0  0  0  0  0  0  0  0  0
   17.7581  -13.8568  -17.1562 C   0  0  0  0  0  0  0  0  0  0  0  0
   19.1852  -14.3633  -17.2733 C   0  0  2  0  0  0  0  0  0  0  0  0
   19.3564  -14.8001  -18.7291 C   0  0  0  0  0  0  0  0  0  0  0  0
   19.3390  -15.5302  -16.3537 C   0  0  2  0  0  0  0  0  0  0  0  0
   20.6151  -16.1403  -16.3234 N   0  0  0  0  0  0  0  0  0  0  0  0
   18.3258  -16.5643  -16.6890 C   0  0  0  0  0  0  0  0  0  0  0  0
   18.5778  -17.5067  -17.4670 O   0  0  0  0  0  0  0  0  0  0  0  0
   17.0293  -16.5376  -16.1488 O   0  0  0  0  0  0  0  0  0  0  0  0
  2  8  1  0
  2  1  1  6
  3  2  1  0
  4  3  1  0
  5  4  1  0
  6  7  1  0
  6  5  1  0
  8  9  2  0
 10  8  1  0
 10 11  1  0
 11 12  1  0
 12 13  2  0
 15 14  1  6
 15 17  1  0
 16 15  1  0
 17 19  1  0
 18 12  1  0
 17 18  1  6
 19 20  2  0
 19 21  1  0
M  END
$$$$
