KGV.pdb
     RDKit          3D

 21 20  0  0  1  0  0  0  0  0999 V2000
   23.6972  -21.0767  -10.5909 N   0  0  0  0  0  0  0  0  0  0  0  0
   25.1147  -21.2384  -10.7619 C   0  0  1  0  0  0  0  0  0  0  0  0
   25.5232  -20.8831  -12.1976 C   0  0  0  0  0  0  0  0  0  0  0  0
   24.6249  -21.6530  -13.1046 C   0  0  0  0  0  0  0  0  0  0  0  0
   23.4753  -20.8469  -13.6466 C   0  0  0  0  0  0  0  0  0  0  0  0
   22.6057  -21.6171  -14.5952 C   0  0  0  0  0  0  0  0  0  0  0  0
   21.4187  -20.8980  -14.9809 N   0  0  0  0  0  0  0  0  0  0  0  0
   25.9138  -20.4004   -9.8647 C   0  0  0  0  0  0  0  0  0  0  0  0
   25.4144  -19.3621   -9.3910 O   0  0  0  0  0  0  0  0  0  0  0  0
   27.2422  -20.7560   -9.5316 N   0  0  0  0  0  0  0  0  0  0  0  0
   28.0199  -19.8453   -8.7386 C   0  0  0  0  0  0  0  0  0  0  0  0
   28.0596  -20.2522   -7.3217 C   0  0  0  0  0  0  0  0  0  0  0  0
   27.4042  -21.2694   -6.9818 O   0  0  0  0  0  0  0  0  0  0  0  0
   30.1143  -18.1837   -4.0883 C   0  0  0  0  0  0  0  0  0  0  0  0
   30.0524  -19.6970   -4.2014 C   0  0  2  0  0  0  0  0  0  0  0  0
   31.3110  -20.1117   -4.9653 C   0  0  0  0  0  0  0  0  0  0  0  0
   28.8265  -20.0535   -4.9768 C   0  0  2  0  0  0  0  0  0  0  0  0
   28.7743  -19.5925   -6.3133 N   0  0  0  0  0  0  0  0  0  0  0  0
   27.6228  -19.5617   -4.2573 C   0  0  0  0  0  0  0  0  0  0  0  0
   26.9760  -18.5713   -4.6541 O   0  0  0  0  0  0  0  0  0  0  0  0
   27.1473  -20.1848   -3.0914 O   0  0  0  0  0  0  0  0  0  0  0  0
  2  8  1  0
  2  1  1  6
  3  2  1  0
  4  3  1  0
  5  4  1  0
  6  7  1  0
  6  5  1  0
  8  9  2  0
 10  8  1  0
 10 11  1  0
 11 12  1  0
 12 13  2  0
 15 14  1  6
 15 17  1  0
 16 15  1  0
 17 19  1  0
 18 12  1  0
 17 18  1  6
 19 20  2  0
 19 21  1  0
M  END
$$$$
