KGV.pdb
     RDKit          3D

 21 20  0  0  1  0  0  0  0  0999 V2000
   24.7948  -20.3389  -10.3397 N   0  0  0  0  0  0  0  0  0  0  0  0
   25.5890  -21.1155  -11.2511 C   0  0  1  0  0  0  0  0  0  0  0  0
   25.4201  -20.5939  -12.6844 C   0  0  0  0  0  0  0  0  0  0  0  0
   24.0803  -21.0492  -13.1537 C   0  0  0  0  0  0  0  0  0  0  0  0
   24.1241  -22.2975  -13.9933 C   0  0  0  0  0  0  0  0  0  0  0  0
   22.7873  -22.6831  -14.5532 C   0  0  0  0  0  0  0  0  0  0  0  0
   22.7919  -23.9810  -15.1782 N   0  0  0  0  0  0  0  0  0  0  0  0
   27.0220  -21.0920  -10.9484 C   0  0  0  0  0  0  0  0  0  0  0  0
   27.8453  -21.1914  -11.8780 O   0  0  0  0  0  0  0  0  0  0  0  0
   27.4798  -20.9580   -9.6162 N   0  0  0  0  0  0  0  0  0  0  0  0
   28.8423  -21.3020   -9.3192 C   0  0  0  0  0  0  0  0  0  0  0  0
   29.1863  -21.0068   -7.9159 C   0  0  0  0  0  0  0  0  0  0  0  0
   30.2490  -21.4940   -7.4542 O   0  0  0  0  0  0  0  0  0  0  0  0
   28.1585  -18.1168   -4.7616 C   0  0  0  0  0  0  0  0  0  0  0  0
   29.1237  -19.2844   -4.8709 C   0  0  2  0  0  0  0  0  0  0  0  0
   30.3357  -18.7552   -5.6395 C   0  0  0  0  0  0  0  0  0  0  0  0
   28.4487  -20.3725   -5.6400 C   0  0  2  0  0  0  0  0  0  0  0  0
   28.4193  -20.2206   -7.0462 N   0  0  0  0  0  0  0  0  0  0  0  0
   27.0550  -20.5362   -5.1505 C   0  0  0  0  0  0  0  0  0  0  0  0
   26.0695  -20.3598   -5.8951 O   0  0  0  0  0  0  0  0  0  0  0  0
   26.7710  -20.8983   -3.8231 O   0  0  0  0  0  0  0  0  0  0  0  0
  2  8  1  0
  2  1  1  1
  3  2  1  0
  4  3  1  0
  5  4  1  0
  6  7  1  0
  6  5  1  0
  8  9  2  0
 10  8  1  0
 10 11  1  0
 11 12  1  0
 12 13  2  0
 15 14  1  6
 15 17  1  0
 16 15  1  0
 17 19  1  0
 18 12  1  0
 17 18  1  6
 19 20  2  0
 19 21  1  0
M  END
$$$$
