KGV.pdb
     RDKit          3D

 21 20  0  0  1  0  0  0  0  0999 V2000
   25.4231  -22.4478  -11.9071 N   0  0  0  0  0  0  0  0  0  0  0  0
   25.6494  -21.0598  -12.2021 C   0  0  1  0  0  0  0  0  0  0  0  0
   24.5073  -20.5038  -13.0629 C   0  0  0  0  0  0  0  0  0  0  0  0
   24.4330  -21.3563  -14.2836 C   0  0  0  0  0  0  0  0  0  0  0  0
   23.3670  -20.9300  -15.2567 C   0  0  0  0  0  0  0  0  0  0  0  0
   23.2836  -21.8099  -16.4685 C   0  0  0  0  0  0  0  0  0  0  0  0
   24.5008  -21.8245  -17.2385 N   0  0  0  0  0  0  0  0  0  0  0  0
   25.7439  -20.2139  -11.0100 C   0  0  0  0  0  0  0  0  0  0  0  0
   25.9823  -18.9981  -11.1400 O   0  0  0  0  0  0  0  0  0  0  0  0
   25.5680  -20.7606   -9.7168 N   0  0  0  0  0  0  0  0  0  0  0  0
   25.6426  -19.8824   -8.5827 C   0  0  0  0  0  0  0  0  0  0  0  0
   26.7786  -20.2200   -7.7049 C   0  0  0  0  0  0  0  0  0  0  0  0
   27.3590  -21.3196   -7.8883 O   0  0  0  0  0  0  0  0  0  0  0  0
   29.4907  -17.7016   -5.7544 C   0  0  0  0  0  0  0  0  0  0  0  0
   28.8507  -18.7705   -4.8857 C   0  0  2  0  0  0  0  0  0  0  0  0
   29.9794  -19.3436   -4.0271 C   0  0  0  0  0  0  0  0  0  0  0  0
   28.2892  -19.8227   -5.7849 C   0  0  2  0  0  0  0  0  0  0  0  0
   27.2691  -19.4087   -6.6734 N   0  0  0  0  0  0  0  0  0  0  0  0
   27.7774  -20.9536   -4.9677 C   0  0  0  0  0  0  0  0  0  0  0  0
   26.5667  -21.0721   -4.6906 O   0  0  0  0  0  0  0  0  0  0  0  0
   28.6284  -21.9508   -4.4626 O   0  0  0  0  0  0  0  0  0  0  0  0
  2  8  1  0
  2  1  1  1
  3  2  1  0
  4  3  1  0
  5  4  1  0
  6  7  1  0
  6  5  1  0
  8  9  2  0
 10  8  1  0
 10 11  1  0
 11 12  1  0
 12 13  2  0
 15 14  1  6
 15 17  1  0
 16 15  1  0
 17 19  1  0
 18 12  1  0
 17 18  1  1
 19 20  2  0
 19 21  1  0
M  END
$$$$
