KGV.pdb
     RDKit          3D

 21 20  0  0  1  0  0  0  0  0999 V2000
   24.7220  -22.1431  -11.3559 N   0  0  0  0  0  0  0  0  0  0  0  0
   25.0781  -20.9326  -12.0432 C   0  0  1  0  0  0  0  0  0  0  0  0
   23.8182  -20.2056  -12.5318 C   0  0  0  0  0  0  0  0  0  0  0  0
   22.9118  -21.2459  -13.0965 C   0  0  0  0  0  0  0  0  0  0  0  0
   21.6277  -21.4120  -12.3294 C   0  0  0  0  0  0  0  0  0  0  0  0
   20.7220  -22.4582  -12.9081 C   0  0  0  0  0  0  0  0  0  0  0  0
   19.4768  -22.5819  -12.1946 N   0  0  0  0  0  0  0  0  0  0  0  0
   25.8297  -19.9864  -11.2152 C   0  0  0  0  0  0  0  0  0  0  0  0
   25.9279  -18.7990  -11.5789 O   0  0  0  0  0  0  0  0  0  0  0  0
   26.4434  -20.4050  -10.0109 N   0  0  0  0  0  0  0  0  0  0  0  0
   27.1163  -19.4248   -9.2049 C   0  0  0  0  0  0  0  0  0  0  0  0
   27.6313  -20.0085   -7.9523 C   0  0  0  0  0  0  0  0  0  0  0  0
   27.3918  -21.2212   -7.7248 O   0  0  0  0  0  0  0  0  0  0  0  0
   30.4187  -20.0523   -3.9350 C   0  0  0  0  0  0  0  0  0  0  0  0
   29.8837  -19.1551   -5.0376 C   0  0  2  0  0  0  0  0  0  0  0  0
   29.2392  -17.9617   -4.3305 C   0  0  0  0  0  0  0  0  0  0  0  0
   28.8601  -19.9257   -5.8054 C   0  0  2  0  0  0  0  0  0  0  0  0
   28.3724  -19.3166   -6.9855 N   0  0  0  0  0  0  0  0  0  0  0  0
   27.7075  -20.2392   -4.9213 C   0  0  0  0  0  0  0  0  0  0  0  0
   26.6358  -19.6032   -4.9843 O   0  0  0  0  0  0  0  0  0  0  0  0
   27.7612  -21.2683   -3.9664 O   0  0  0  0  0  0  0  0  0  0  0  0
  2  8  1  0
  2  1  1  1
  3  2  1  0
  4  3  1  0
  5  4  1  0
  6  7  1  0
  6  5  1  0
  8  9  2  0
 10  8  1  0
 10 11  1  0
 11 12  1  0
 12 13  2  0
 15 14  1  1
 15 17  1  0
 16 15  1  0
 17 19  1  0
 18 12  1  0
 17 18  1  6
 19 20  2  0
 19 21  1  0
M  END
$$$$
