KGV.pdb
     RDKit          3D

 21 20  0  0  1  0  0  0  0  0999 V2000
   27.7044  -22.5190  -15.2544 N   0  0  0  0  0  0  0  0  0  0  0  0
   27.6628  -21.0859  -15.1584 C   0  0  1  0  0  0  0  0  0  0  0  0
   27.5101  -20.4617  -16.5518 C   0  0  0  0  0  0  0  0  0  0  0  0
   28.5187  -21.1185  -17.4315 C   0  0  0  0  0  0  0  0  0  0  0  0
   28.0942  -22.4717  -17.9351 C   0  0  0  0  0  0  0  0  0  0  0  0
   29.0815  -23.0897  -18.8799 C   0  0  0  0  0  0  0  0  0  0  0  0
   28.6789  -24.3933  -19.3417 N   0  0  0  0  0  0  0  0  0  0  0  0
   26.5591  -20.5842  -14.3363 C   0  0  0  0  0  0  0  0  0  0  0  0
   26.4099  -19.3553  -14.1968 O   0  0  0  0  0  0  0  0  0  0  0  0
   25.6638  -21.4769  -13.7011 N   0  0  0  0  0  0  0  0  0  0  0  0
   24.5533  -20.9333  -12.9700 C   0  0  0  0  0  0  0  0  0  0  0  0
   23.4018  -20.6601  -13.8499 C   0  0  0  0  0  0  0  0  0  0  0  0
   23.5955  -19.9560  -14.8730 O   0  0  0  0  0  0  0  0  0  0  0  0
   20.0632  -23.1620  -14.0942 C   0  0  0  0  0  0  0  0  0  0  0  0
   20.5745  -22.2694  -15.2115 C   0  0  2  0  0  0  0  0  0  0  0  0
   21.7270  -23.0344  -15.8644 C   0  0  0  0  0  0  0  0  0  0  0  0
   21.0676  -20.9990  -14.6001 C   0  0  2  0  0  0  0  0  0  0  0  0
   22.0973  -21.1248  -13.6381 N   0  0  0  0  0  0  0  0  0  0  0  0
   19.9289  -20.2689  -13.9845 C   0  0  0  0  0  0  0  0  0  0  0  0
   19.7965  -20.1760  -12.7473 O   0  0  0  0  0  0  0  0  0  0  0  0
   18.9395  -19.6436  -14.7615 O   0  0  0  0  0  0  0  0  0  0  0  0
  2  8  1  0
  2  1  1  6
  3  2  1  0
  4  3  1  0
  5  4  1  0
  6  7  1  0
  6  5  1  0
  8  9  2  0
 10  8  1  0
 10 11  1  0
 11 12  1  0
 12 13  2  0
 15 14  1  1
 15 17  1  0
 16 15  1  0
 17 19  1  0
 18 12  1  0
 17 18  1  1
 19 20  2  0
 19 21  1  0
M  END
$$$$
