KGV.pdb
     RDKit          3D

 21 20  0  0  1  0  0  0  0  0999 V2000
   15.4215  -13.0415  -11.7476 N   0  0  0  0  0  0  0  0  0  0  0  0
   14.3086  -12.2246  -11.3493 C   0  0  1  0  0  0  0  0  0  0  0  0
   13.3677  -13.0152  -10.4304 C   0  0  0  0  0  0  0  0  0  0  0  0
   12.3259  -13.6272  -11.3036 C   0  0  0  0  0  0  0  0  0  0  0  0
   11.3142  -14.4514  -10.5538 C   0  0  0  0  0  0  0  0  0  0  0  0
   10.2146  -14.9791  -11.4265 C   0  0  0  0  0  0  0  0  0  0  0  0
    9.2407  -15.7522  -10.6994 N   0  0  0  0  0  0  0  0  0  0  0  0
   14.6992  -11.0111  -10.6277 C   0  0  0  0  0  0  0  0  0  0  0  0
   13.8169  -10.2741  -10.1479 O   0  0  0  0  0  0  0  0  0  0  0  0
   16.0629  -10.6683  -10.4702 N   0  0  0  0  0  0  0  0  0  0  0  0
   16.3986   -9.5480   -9.6363 C   0  0  0  0  0  0  0  0  0  0  0  0
   16.1947   -8.2661  -10.3362 C   0  0  0  0  0  0  0  0  0  0  0  0
   15.9750   -8.2982  -11.5733 O   0  0  0  0  0  0  0  0  0  0  0  0
   16.1650   -4.3843   -8.4595 C   0  0  0  0  0  0  0  0  0  0  0  0
   15.2670   -4.7280   -9.6351 C   0  0  2  0  0  0  0  0  0  0  0  0
   13.9583   -5.2362   -9.0279 C   0  0  0  0  0  0  0  0  0  0  0  0
   15.9322   -5.8066  -10.4259 C   0  0  2  0  0  0  0  0  0  0  0  0
   16.2258   -7.0032   -9.7306 N   0  0  0  0  0  0  0  0  0  0  0  0
   17.1888   -5.2828  -11.0219 C   0  0  0  0  0  0  0  0  0  0  0  0
   18.3106   -5.5834  -10.5656 O   0  0  0  0  0  0  0  0  0  0  0  0
   17.1826   -4.4210  -12.1314 O   0  0  0  0  0  0  0  0  0  0  0  0
  2  8  1  0
  2  1  1  1
  3  2  1  0
  4  3  1  0
  5  4  1  0
  6  7  1  0
  6  5  1  0
  8  9  2  0
 10  8  1  0
 10 11  1  0
 11 12  1  0
 12 13  2  0
 15 14  1  1
 15 17  1  0
 16 15  1  0
 17 19  1  0
 18 12  1  0
 17 18  1  1
 19 20  2  0
 19 21  1  0
M  END
$$$$
