KGV.pdb
     RDKit          3D

 21 20  0  0  1  0  0  0  0  0999 V2000
   25.6462  -22.6766  -12.1571 N   0  0  0  0  0  0  0  0  0  0  0  0
   25.2938  -21.3062  -12.4072 C   0  0  1  0  0  0  0  0  0  0  0  0
   23.9049  -21.2215  -13.0540 C   0  0  0  0  0  0  0  0  0  0  0  0
   23.9660  -22.0182  -14.3125 C   0  0  0  0  0  0  0  0  0  0  0  0
   23.4875  -23.4366  -14.1558 C   0  0  0  0  0  0  0  0  0  0  0  0
   23.4910  -24.2093  -15.4412 C   0  0  0  0  0  0  0  0  0  0  0  0
   23.1960  -25.6073  -15.2583 N   0  0  0  0  0  0  0  0  0  0  0  0
   25.2595  -20.4787  -11.1989 C   0  0  0  0  0  0  0  0  0  0  0  0
   24.1787  -19.9830  -10.8275 O   0  0  0  0  0  0  0  0  0  0  0  0
   26.4365  -20.2371  -10.4517 N   0  0  0  0  0  0  0  0  0  0  0  0
   26.3442  -19.4365   -9.2626 C   0  0  0  0  0  0  0  0  0  0  0  0
   26.8886  -20.1409   -8.0869 C   0  0  0  0  0  0  0  0  0  0  0  0
   26.9821  -21.3931   -8.1408 O   0  0  0  0  0  0  0  0  0  0  0  0
   28.6169  -18.2376   -4.6042 C   0  0  0  0  0  0  0  0  0  0  0  0
   29.1224  -19.5309   -5.2195 C   0  0  2  0  0  0  0  0  0  0  0  0
   30.1509  -19.1189   -6.2741 C   0  0  0  0  0  0  0  0  0  0  0  0
   27.9636  -20.2233   -5.8589 C   0  0  2  0  0  0  0  0  0  0  0  0
   27.3142  -19.5239   -6.9033 N   0  0  0  0  0  0  0  0  0  0  0  0
   26.9573  -20.5695   -4.8215 C   0  0  0  0  0  0  0  0  0  0  0  0
   27.2137  -21.3621   -3.8926 O   0  0  0  0  0  0  0  0  0  0  0  0
   25.6629  -20.0236   -4.8299 O   0  0  0  0  0  0  0  0  0  0  0  0
  2  8  1  0
  2  1  1  1
  3  2  1  0
  4  3  1  0
  5  4  1  0
  6  7  1  0
  6  5  1  0
  8  9  2  0
 10  8  1  0
 10 11  1  0
 11 12  1  0
 12 13  2  0
 15 14  1  6
 15 17  1  0
 16 15  1  0
 17 19  1  0
 18 12  1  0
 17 18  1  6
 19 20  2  0
 19 21  1  0
M  END
$$$$
