DCR.pdb
     RDKit          3D

 26 25  0  0  1  0  0  0  0  0999 V2000
   24.0938  -20.2771  -14.8048 N   0  0  0  0  0  0  0  0  0  0  0  0
   24.3975  -21.6877  -14.4630 C   0  0  1  0  0  0  0  0  0  0  0  0
   25.8971  -21.7911  -14.3176 C   0  0  0  0  0  0  0  0  0  0  0  0
   26.5876  -21.4711  -15.5735 C   0  0  0  0  0  0  0  0  0  0  0  0
   27.8127  -21.6198  -15.6862 O   0  0  0  0  0  0  0  0  0  0  0  0
   23.7990  -21.8524  -13.1009 C   0  0  0  0  0  0  0  0  0  0  0  0
   24.0850  -22.8625  -12.4440 O   0  0  0  0  0  0  0  0  0  0  0  0
   25.8626  -20.9864  -16.6791 O   0  0  0  0  0  0  0  0  0  0  0  0
   22.9181  -20.9342  -12.4920 N   0  0  0  0  0  0  0  0  0  0  0  0
   22.3603  -21.0912  -11.1748 C   0  0  1  0  0  0  0  0  0  0  0  0
   22.0682  -19.8299  -10.4631 C   0  0  0  0  0  0  0  0  0  0  0  0
   23.5913  -19.2403   -9.6385 S   0  0  0  0  0  0  0  0  0  0  0  0
   21.1103  -21.9208  -11.2135 C   0  0  0  0  0  0  0  0  0  0  0  0
   20.5026  -22.1622  -12.3032 O   0  0  0  0  0  0  0  0  0  0  0  0
   17.7604  -26.5964   -4.5078 N   0  0  0  0  0  0  0  0  0  0  0  0
   16.9586  -26.9363   -5.6174 C   0  0  0  0  0  0  0  0  0  0  0  0
   16.1101  -27.9219   -5.5493 N   0  0  0  0  0  0  0  0  0  0  0  0
   17.0664  -26.2021   -6.8341 N   0  0  0  0  0  0  0  0  0  0  0  0
   18.1837  -25.3219   -7.0318 C   0  0  0  0  0  0  0  0  0  0  0  0
   18.0231  -24.7127   -8.4392 C   0  0  0  0  0  0  0  0  0  0  0  0
   19.1970  -23.8239   -8.6447 C   0  0  0  0  0  0  0  0  0  0  0  0
   19.3297  -23.2288  -10.0238 C   0  0  2  0  0  0  0  0  0  0  0  0
   20.5895  -22.4526  -10.0079 N   0  0  0  0  0  0  0  0  0  0  0  0
   18.1914  -22.3370  -10.2786 C   0  0  0  0  0  0  0  0  0  0  0  0
   18.3384  -20.9412  -10.1608 O   0  0  0  0  0  0  0  0  0  0  0  0
   17.0562  -22.7502  -10.6057 O   0  0  0  0  0  0  0  0  0  0  0  0
  2  3  1  0
  2  1  1  1
  3  4  1  0
  4  8  1  0
  4  5  2  0
  6  7  2  0
  6  2  1  0
  9  6  1  0
 10  9  1  0
 11 12  1  0
 10 11  1  6
 13 23  1  0
 13 10  1  0
 14 13  2  0
 16 15  1  0
 17 16  2  0
 18 16  1  0
 19 18  1  0
 20 19  1  0
 21 20  1  0
 22 21  1  1
 22 23  1  0
 24 22  1  0
 25 24  1  0
 26 24  2  0
M  END
$$$$
