DCR.pdb
     RDKit          3D

 26 25  0  0  1  0  0  0  0  0999 V2000
   21.6131  -11.1944  -16.2777 N   0  0  0  0  0  0  0  0  0  0  0  0
   21.1808   -9.8676  -16.7793 C   0  0  1  0  0  0  0  0  0  0  0  0
   19.8386  -10.0651  -17.4428 C   0  0  0  0  0  0  0  0  0  0  0  0
   19.9721  -10.7043  -18.7581 C   0  0  0  0  0  0  0  0  0  0  0  0
   20.8602  -10.3591  -19.5504 O   0  0  0  0  0  0  0  0  0  0  0  0
   20.9544   -9.0789  -15.5275 C   0  0  0  0  0  0  0  0  0  0  0  0
   20.5921   -9.6769  -14.5053 O   0  0  0  0  0  0  0  0  0  0  0  0
   19.0856  -11.7284  -19.1434 O   0  0  0  0  0  0  0  0  0  0  0  0
   21.1224   -7.6829  -15.4137 N   0  0  0  0  0  0  0  0  0  0  0  0
   20.9847   -6.9431  -14.1872 C   0  0  1  0  0  0  0  0  0  0  0  0
   21.9029   -5.7949  -14.0412 C   0  0  0  0  0  0  0  0  0  0  0  0
   21.6163   -5.0007  -12.4180 S   0  0  0  0  0  0  0  0  0  0  0  0
   19.5765   -6.4574  -14.0050 C   0  0  0  0  0  0  0  0  0  0  0  0
   19.0028   -5.7310  -14.8756 O   0  0  0  0  0  0  0  0  0  0  0  0
   13.7445   -9.4597   -8.1525 N   0  0  0  0  0  0  0  0  0  0  0  0
   13.0339   -8.4547   -8.8414 C   0  0  0  0  0  0  0  0  0  0  0  0
   11.7844   -8.2135   -8.5648 N   0  0  0  0  0  0  0  0  0  0  0  0
   13.6767   -7.6858   -9.8545 N   0  0  0  0  0  0  0  0  0  0  0  0
   15.0720   -7.8947  -10.1221 C   0  0  0  0  0  0  0  0  0  0  0  0
   15.4668   -6.8893  -11.2225 C   0  0  0  0  0  0  0  0  0  0  0  0
   16.9021   -7.1384  -11.5188 C   0  0  0  0  0  0  0  0  0  0  0  0
   17.5009   -6.2818  -12.6057 C   0  0  2  0  0  0  0  0  0  0  0  0
   18.8620   -6.8153  -12.8349 N   0  0  0  0  0  0  0  0  0  0  0  0
   17.5762   -4.8911  -12.1408 C   0  0  0  0  0  0  0  0  0  0  0  0
   18.7570   -4.3989  -11.5515 O   0  0  0  0  0  0  0  0  0  0  0  0
   16.6251   -4.0834  -12.2368 O   0  0  0  0  0  0  0  0  0  0  0  0
  2  3  1  0
  2  1  1  1
  3  4  1  0
  4  8  1  0
  4  5  2  0
  6  7  2  0
  6  2  1  0
  9  6  1  0
 10  9  1  0
 11 12  1  0
 10 11  1  6
 13 23  1  0
 13 10  1  0
 14 13  2  0
 16 15  1  0
 17 16  2  0
 18 16  1  0
 19 18  1  0
 20 19  1  0
 21 20  1  0
 22 21  1  1
 22 23  1  0
 24 22  1  0
 25 24  1  0
 26 24  2  0
M  END
$$$$
