DCR.pdb
     RDKit          3D

 26 25  0  0  1  0  0  0  0  0999 V2000
   21.5551  -22.7480  -14.7993 N   0  0  0  0  0  0  0  0  0  0  0  0
   20.8366  -21.6287  -14.1438 C   0  0  1  0  0  0  0  0  0  0  0  0
   19.4162  -21.6587  -14.6560 C   0  0  0  0  0  0  0  0  0  0  0  0
   19.1875  -20.6337  -15.6824 C   0  0  0  0  0  0  0  0  0  0  0  0
   19.8531  -20.6148  -16.7276 O   0  0  0  0  0  0  0  0  0  0  0  0
   20.8058  -22.0314  -12.7025 C   0  0  0  0  0  0  0  0  0  0  0  0
   21.4335  -23.0402  -12.3535 O   0  0  0  0  0  0  0  0  0  0  0  0
   18.2000  -19.6477  -15.4939 O   0  0  0  0  0  0  0  0  0  0  0  0
   20.1063  -21.3434  -11.6889 N   0  0  0  0  0  0  0  0  0  0  0  0
   20.0984  -21.7250  -10.3014 C   0  0  1  0  0  0  0  0  0  0  0  0
   19.9939  -20.6050   -9.3437 C   0  0  0  0  0  0  0  0  0  0  0  0
   21.4519  -19.5160   -9.5333 S   0  0  0  0  0  0  0  0  0  0  0  0
   18.9969  -22.7037  -10.0172 C   0  0  0  0  0  0  0  0  0  0  0  0
   18.1165  -22.9896  -10.8879 O   0  0  0  0  0  0  0  0  0  0  0  0
   17.5203  -28.4881   -4.6808 N   0  0  0  0  0  0  0  0  0  0  0  0
   18.3125  -27.4769   -4.0983 C   0  0  0  0  0  0  0  0  0  0  0  0
   19.0230  -27.7173   -3.0337 N   0  0  0  0  0  0  0  0  0  0  0  0
   18.3465  -26.1717   -4.6696 N   0  0  0  0  0  0  0  0  0  0  0  0
   17.1194  -25.4494   -4.8556 C   0  0  0  0  0  0  0  0  0  0  0  0
   16.8649  -25.3937   -6.3754 C   0  0  0  0  0  0  0  0  0  0  0  0
   17.8968  -24.4830   -6.9374 C   0  0  0  0  0  0  0  0  0  0  0  0
   17.7976  -24.2220   -8.4192 C   0  0  2  0  0  0  0  0  0  0  0  0
   18.9314  -23.3296   -8.7476 N   0  0  0  0  0  0  0  0  0  0  0  0
   16.5255  -23.5483   -8.7088 C   0  0  0  0  0  0  0  0  0  0  0  0
   15.5256  -24.2022   -9.4546 O   0  0  0  0  0  0  0  0  0  0  0  0
   16.2605  -22.3878   -8.3224 O   0  0  0  0  0  0  0  0  0  0  0  0
  2  3  1  0
  2  1  1  6
  3  4  1  0
  4  8  1  0
  4  5  2  0
  6  7  2  0
  6  2  1  0
  9  6  1  0
 10  9  1  0
 11 12  1  0
 10 11  1  1
 13 23  1  0
 13 10  1  0
 14 13  2  0
 16 15  1  0
 17 16  2  0
 18 16  1  0
 19 18  1  0
 20 19  1  0
 21 20  1  0
 22 21  1  1
 22 23  1  0
 24 22  1  0
 25 24  1  0
 26 24  2  0
M  END
$$$$
