DCR.pdb
     RDKit          3D

 26 25  0  0  1  0  0  0  0  0999 V2000
   22.8209  -18.3629  -15.5976 N   0  0  0  0  0  0  0  0  0  0  0  0
   22.3078  -19.6555  -16.1123 C   0  0  1  0  0  0  0  0  0  0  0  0
   23.4833  -20.3845  -16.7183 C   0  0  0  0  0  0  0  0  0  0  0  0
   23.9811  -19.7059  -17.9217 C   0  0  0  0  0  0  0  0  0  0  0  0
   23.4196  -18.6937  -18.3643 O   0  0  0  0  0  0  0  0  0  0  0  0
   21.9107  -20.3915  -14.8709 C   0  0  0  0  0  0  0  0  0  0  0  0
   21.7105  -21.6116  -14.9415 O   0  0  0  0  0  0  0  0  0  0  0  0
   25.1139  -20.1986  -18.5977 O   0  0  0  0  0  0  0  0  0  0  0  0
   21.7418  -19.7984  -13.6023 N   0  0  0  0  0  0  0  0  0  0  0  0
   21.3022  -20.5015  -12.4262 C   0  0  1  0  0  0  0  0  0  0  0  0
   21.4788  -19.7692  -11.1552 C   0  0  0  0  0  0  0  0  0  0  0  0
   19.9061  -19.8023  -10.2208 S   0  0  0  0  0  0  0  0  0  0  0  0
   19.8636  -20.9107  -12.5482 C   0  0  0  0  0  0  0  0  0  0  0  0
   18.9724  -20.1038  -12.9600 O   0  0  0  0  0  0  0  0  0  0  0  0
   14.6911  -25.1064   -9.3201 N   0  0  0  0  0  0  0  0  0  0  0  0
   14.4976  -26.2165  -10.1685 C   0  0  0  0  0  0  0  0  0  0  0  0
   13.3555  -26.8417  -10.1977 N   0  0  0  0  0  0  0  0  0  0  0  0
   15.5543  -26.6714  -11.0095 N   0  0  0  0  0  0  0  0  0  0  0  0
   16.8321  -26.0184  -10.9550 C   0  0  0  0  0  0  0  0  0  0  0  0
   16.6467  -24.6293  -11.5980 C   0  0  0  0  0  0  0  0  0  0  0  0
   17.9951  -24.0043  -11.6352 C   0  0  0  0  0  0  0  0  0  0  0  0
   18.0571  -22.6253  -12.2423 C   0  0  2  0  0  0  0  0  0  0  0  0
   19.4823  -22.2297  -12.1980 N   0  0  0  0  0  0  0  0  0  0  0  0
   17.2523  -21.7023  -11.4323 C   0  0  0  0  0  0  0  0  0  0  0  0
   16.0341  -21.1963  -11.9262 O   0  0  0  0  0  0  0  0  0  0  0  0
   17.5894  -21.3206  -10.2891 O   0  0  0  0  0  0  0  0  0  0  0  0
  2  3  1  0
  2  1  1  1
  3  4  1  0
  4  8  1  0
  4  5  2  0
  6  7  2  0
  6  2  1  0
  9  6  1  0
 10  9  1  0
 11 12  1  0
 10 11  1  1
 13 23  1  0
 13 10  1  0
 14 13  2  0
 16 15  1  0
 17 16  2  0
 18 16  1  0
 19 18  1  0
 20 19  1  0
 21 20  1  0
 22 21  1  1
 22 23  1  0
 24 22  1  0
 25 24  1  0
 26 24  2  0
M  END
$$$$
