DCR.pdb
     RDKit          3D

 26 25  0  0  1  0  0  0  0  0999 V2000
   21.1573  -10.6857  -15.7544 N   0  0  0  0  0  0  0  0  0  0  0  0
   19.7709  -10.1863  -15.5888 C   0  0  1  0  0  0  0  0  0  0  0  0
   18.9781  -11.2977  -14.9430 C   0  0  0  0  0  0  0  0  0  0  0  0
   18.6791  -12.3751  -15.8950 C   0  0  0  0  0  0  0  0  0  0  0  0
   19.1951  -12.3954  -17.0215 O   0  0  0  0  0  0  0  0  0  0  0  0
   19.9142   -9.0889  -14.5810 C   0  0  0  0  0  0  0  0  0  0  0  0
   19.4024   -9.2376  -13.4632 O   0  0  0  0  0  0  0  0  0  0  0  0
   17.7940  -13.4112  -15.5400 O   0  0  0  0  0  0  0  0  0  0  0  0
   20.5970   -7.8748  -14.8041 N   0  0  0  0  0  0  0  0  0  0  0  0
   20.7446   -6.8312  -13.8244 C   0  0  1  0  0  0  0  0  0  0  0  0
   21.8926   -5.9266  -14.0400 C   0  0  0  0  0  0  0  0  0  0  0  0
   22.0969   -4.8564  -12.5702 S   0  0  0  0  0  0  0  0  0  0  0  0
   19.4956   -6.0055  -13.7232 C   0  0  0  0  0  0  0  0  0  0  0  0
   18.9347   -5.5140  -14.7522 O   0  0  0  0  0  0  0  0  0  0  0  0
   14.0373   -6.3994   -7.1103 N   0  0  0  0  0  0  0  0  0  0  0  0
   14.3038   -7.1118   -8.2982 C   0  0  0  0  0  0  0  0  0  0  0  0
   14.0283   -8.3813   -8.3898 N   0  0  0  0  0  0  0  0  0  0  0  0
   14.8810   -6.4488   -9.4200 N   0  0  0  0  0  0  0  0  0  0  0  0
   15.4085   -5.1225   -9.2627 C   0  0  0  0  0  0  0  0  0  0  0  0
   15.8055   -4.6346  -10.6705 C   0  0  0  0  0  0  0  0  0  0  0  0
   17.1122   -5.2728  -10.9793 C   0  0  0  0  0  0  0  0  0  0  0  0
   17.6883   -4.9538  -12.3358 C   0  0  2  0  0  0  0  0  0  0  0  0
   18.9208   -5.7646  -12.4506 N   0  0  0  0  0  0  0  0  0  0  0  0
   18.0176   -3.5243  -12.3988 C   0  0  0  0  0  0  0  0  0  0  0  0
   16.9944   -2.5591  -12.4722 O   0  0  0  0  0  0  0  0  0  0  0  0
   19.1912   -3.0899  -12.3914 O   0  0  0  0  0  0  0  0  0  0  0  0
  2  3  1  0
  2  1  1  1
  3  4  1  0
  4  8  1  0
  4  5  2  0
  6  7  2  0
  6  2  1  0
  9  6  1  0
 10  9  1  0
 11 12  1  0
 10 11  1  6
 13 23  1  0
 13 10  1  0
 14 13  2  0
 16 15  1  0
 17 16  2  0
 18 16  1  0
 19 18  1  0
 20 19  1  0
 21 20  1  0
 22 21  1  1
 22 23  1  0
 24 22  1  0
 25 24  1  0
 26 24  2  0
M  END
$$$$
