DCR.pdb
     RDKit          3D

 26 25  0  0  1  0  0  0  0  0999 V2000
   24.1223  -13.4548  -18.4785 N   0  0  0  0  0  0  0  0  0  0  0  0
   23.9625  -12.0853  -19.0241 C   0  0  1  0  0  0  0  0  0  0  0  0
   22.6076  -12.0328  -19.6890 C   0  0  0  0  0  0  0  0  0  0  0  0
   22.5895  -12.7932  -20.9451 C   0  0  0  0  0  0  0  0  0  0  0  0
   23.6179  -13.3263  -21.3856 O   0  0  0  0  0  0  0  0  0  0  0  0
   23.8983  -11.2278  -17.7990 C   0  0  0  0  0  0  0  0  0  0  0  0
   22.8945  -11.2965  -17.0771 O   0  0  0  0  0  0  0  0  0  0  0  0
   21.3933  -12.9300  -21.6754 O   0  0  0  0  0  0  0  0  0  0  0  0
   24.9065  -10.3294  -17.3912 N   0  0  0  0  0  0  0  0  0  0  0  0
   24.8465   -9.5232  -16.2007 C   0  0  1  0  0  0  0  0  0  0  0  0
   26.1567   -9.1266  -15.6452 C   0  0  0  0  0  0  0  0  0  0  0  0
   27.0782  -10.6283  -15.1520 S   0  0  0  0  0  0  0  0  0  0  0  0
   24.0272   -8.2865  -16.4272 C   0  0  0  0  0  0  0  0  0  0  0  0
   24.2237   -7.5296  -17.4289 O   0  0  0  0  0  0  0  0  0  0  0  0
   15.6681   -8.2248  -15.6447 N   0  0  0  0  0  0  0  0  0  0  0  0
   16.0632   -7.5976  -16.8446 C   0  0  0  0  0  0  0  0  0  0  0  0
   15.2033   -7.3832  -17.7990 N   0  0  0  0  0  0  0  0  0  0  0  0
   17.4154   -7.1877  -17.0302 N   0  0  0  0  0  0  0  0  0  0  0  0
   18.3791   -7.4416  -15.9962 C   0  0  0  0  0  0  0  0  0  0  0  0
   19.7189   -6.8571  -16.4872 C   0  0  0  0  0  0  0  0  0  0  0  0
   20.7344   -7.2298  -15.4674 C   0  0  0  0  0  0  0  0  0  0  0  0
   22.1427   -6.7727  -15.7535 C   0  0  2  0  0  0  0  0  0  0  0  0
   23.0059   -7.9486  -15.5050 N   0  0  0  0  0  0  0  0  0  0  0  0
   22.4956   -5.6847  -14.8329 C   0  0  0  0  0  0  0  0  0  0  0  0
   23.4305   -5.8981  -13.8013 O   0  0  0  0  0  0  0  0  0  0  0  0
   22.0024   -4.5368  -14.9066 O   0  0  0  0  0  0  0  0  0  0  0  0
  2  3  1  0
  2  1  1  1
  3  4  1  0
  4  8  1  0
  4  5  2  0
  6  7  2  0
  6  2  1  0
  9  6  1  0
 10  9  1  0
 11 12  1  0
 10 11  1  6
 13 23  1  0
 13 10  1  0
 14 13  2  0
 16 15  1  0
 17 16  2  0
 18 16  1  0
 19 18  1  0
 20 19  1  0
 21 20  1  0
 22 21  1  1
 22 23  1  0
 24 22  1  0
 25 24  1  0
 26 24  2  0
M  END
$$$$
