DCR.pdb
     RDKit          3D

 26 25  0  0  1  0  0  0  0  0999 V2000
   28.5895  -17.0235  -18.8040 N   0  0  0  0  0  0  0  0  0  0  0  0
   27.8045  -18.2789  -18.7219 C   0  0  1  0  0  0  0  0  0  0  0  0
   28.7626  -19.3693  -18.3051 C   0  0  0  0  0  0  0  0  0  0  0  0
   29.6776  -19.7335  -19.3945 C   0  0  0  0  0  0  0  0  0  0  0  0
   29.6753  -19.1125  -20.4669 O   0  0  0  0  0  0  0  0  0  0  0  0
   26.8735  -18.0330  -17.5759 C   0  0  0  0  0  0  0  0  0  0  0  0
   27.3346  -18.0247  -16.4266 O   0  0  0  0  0  0  0  0  0  0  0  0
   30.5799  -20.8030  -19.2366 O   0  0  0  0  0  0  0  0  0  0  0  0
   25.4867  -17.8062  -17.6994 N   0  0  0  0  0  0  0  0  0  0  0  0
   24.6098  -17.5023  -16.5996 C   0  0  1  0  0  0  0  0  0  0  0  0
   24.1743  -16.0930  -16.5159 C   0  0  0  0  0  0  0  0  0  0  0  0
   23.4175  -15.6038  -18.1081 S   0  0  0  0  0  0  0  0  0  0  0  0
   23.3928  -18.3800  -16.6214 C   0  0  0  0  0  0  0  0  0  0  0  0
   22.8478  -18.7390  -17.7118 O   0  0  0  0  0  0  0  0  0  0  0  0
   18.3683  -23.5095  -13.1532 N   0  0  0  0  0  0  0  0  0  0  0  0
   19.6891  -23.9840  -13.0118 C   0  0  0  0  0  0  0  0  0  0  0  0
   19.9710  -25.2397  -13.2114 N   0  0  0  0  0  0  0  0  0  0  0  0
   20.7385  -23.0914  -12.6470 N   0  0  0  0  0  0  0  0  0  0  0  0
   20.4397  -21.7058  -12.4166 C   0  0  0  0  0  0  0  0  0  0  0  0
   20.2583  -21.0560  -13.8030 C   0  0  0  0  0  0  0  0  0  0  0  0
   21.5088  -20.2995  -14.0752 C   0  0  0  0  0  0  0  0  0  0  0  0
   21.5574  -19.5756  -15.3971 C   0  0  2  0  0  0  0  0  0  0  0  0
   22.8324  -18.8246  -15.3982 N   0  0  0  0  0  0  0  0  0  0  0  0
   20.4244  -18.6456  -15.4825 C   0  0  0  0  0  0  0  0  0  0  0  0
   19.3043  -18.9570  -16.2776 O   0  0  0  0  0  0  0  0  0  0  0  0
   20.3862  -17.5534  -14.8727 O   0  0  0  0  0  0  0  0  0  0  0  0
  2  3  1  0
  2  1  1  1
  3  4  1  0
  4  8  1  0
  4  5  2  0
  6  7  2  0
  6  2  1  0
  9  6  1  0
 10  9  1  0
 11 12  1  0
 10 11  1  6
 13 23  1  0
 13 10  1  0
 14 13  2  0
 16 15  1  0
 17 16  2  0
 18 16  1  0
 19 18  1  0
 20 19  1  0
 21 20  1  0
 22 21  1  1
 22 23  1  0
 24 22  1  0
 25 24  1  0
 26 24  2  0
M  END
$$$$
