DCR.pdb
     RDKit          3D

 26 25  0  0  1  0  0  0  0  0999 V2000
   19.7727  -14.7775  -18.1105 N   0  0  0  0  0  0  0  0  0  0  0  0
   19.2608  -14.5069  -16.7453 C   0  0  1  0  0  0  0  0  0  0  0  0
   19.5472  -15.7369  -15.9173 C   0  0  0  0  0  0  0  0  0  0  0  0
   18.8731  -16.9243  -16.4580 C   0  0  0  0  0  0  0  0  0  0  0  0
   19.4748  -18.0005  -16.5830 O   0  0  0  0  0  0  0  0  0  0  0  0
   20.1522  -13.4112  -16.2501 C   0  0  0  0  0  0  0  0  0  0  0  0
   20.0718  -13.0704  -15.0622 O   0  0  0  0  0  0  0  0  0  0  0  0
   17.5211  -16.8585  -16.8462 O   0  0  0  0  0  0  0  0  0  0  0  0
   21.0946  -12.7205  -17.0406 N   0  0  0  0  0  0  0  0  0  0  0  0
   21.9351  -11.6552  -16.5617 C   0  0  1  0  0  0  0  0  0  0  0  0
   23.2695  -11.5782  -17.1910 C   0  0  0  0  0  0  0  0  0  0  0  0
   24.2044  -10.1928  -16.4465 S   0  0  0  0  0  0  0  0  0  0  0  0
   21.2572  -10.3246  -16.7101 C   0  0  0  0  0  0  0  0  0  0  0  0
   20.8645   -9.8978  -17.8408 O   0  0  0  0  0  0  0  0  0  0  0  0
   13.7912   -8.6484  -15.4933 N   0  0  0  0  0  0  0  0  0  0  0  0
   14.2443   -7.8638  -16.5743 C   0  0  0  0  0  0  0  0  0  0  0  0
   13.3991   -7.3064  -17.3935 N   0  0  0  0  0  0  0  0  0  0  0  0
   15.6402   -7.6692  -16.7860 N   0  0  0  0  0  0  0  0  0  0  0  0
   16.5763   -8.1386  -15.8034 C   0  0  0  0  0  0  0  0  0  0  0  0
   17.9835   -7.8049  -16.3381 C   0  0  0  0  0  0  0  0  0  0  0  0
   18.9469   -8.4052  -15.3782 C   0  0  0  0  0  0  0  0  0  0  0  0
   20.4047   -8.1918  -15.6995 C   0  0  2  0  0  0  0  0  0  0  0  0
   21.0452   -9.5189  -15.5640 N   0  0  0  0  0  0  0  0  0  0  0  0
   20.9822   -7.2520  -14.7304 C   0  0  0  0  0  0  0  0  0  0  0  0
   20.6470   -5.8848  -14.7757 O   0  0  0  0  0  0  0  0  0  0  0  0
   21.7829   -7.5980  -13.8329 O   0  0  0  0  0  0  0  0  0  0  0  0
  2  3  1  0
  2  1  1  6
  3  4  1  0
  4  8  1  0
  4  5  2  0
  6  7  2  0
  6  2  1  0
  9  6  1  0
 10  9  1  0
 11 12  1  0
 10 11  1  6
 13 23  1  0
 13 10  1  0
 14 13  2  0
 16 15  1  0
 17 16  2  0
 18 16  1  0
 19 18  1  0
 20 19  1  0
 21 20  1  0
 22 21  1  1
 22 23  1  0
 24 22  1  0
 25 24  1  0
 26 24  2  0
M  END
$$$$
