DCR.pdb
     RDKit          3D

 26 25  0  0  1  0  0  0  0  0999 V2000
   24.4331  -14.5080  -17.7804 N   0  0  0  0  0  0  0  0  0  0  0  0
   25.1248  -13.3240  -18.3450 C   0  0  1  0  0  0  0  0  0  0  0  0
   24.3232  -12.8780  -19.5447 C   0  0  0  0  0  0  0  0  0  0  0  0
   24.3147  -13.8977  -20.6014 C   0  0  0  0  0  0  0  0  0  0  0  0
   25.3396  -14.5337  -20.8855 O   0  0  0  0  0  0  0  0  0  0  0  0
   24.9611  -12.2847  -17.2804 C   0  0  0  0  0  0  0  0  0  0  0  0
   23.9638  -12.3357  -16.5480 O   0  0  0  0  0  0  0  0  0  0  0  0
   23.1318  -14.1716  -21.3146 O   0  0  0  0  0  0  0  0  0  0  0  0
   25.8667  -11.2306  -17.0381 N   0  0  0  0  0  0  0  0  0  0  0  0
   25.6899  -10.2205  -16.0286 C   0  0  1  0  0  0  0  0  0  0  0  0
   26.9012   -9.8957  -15.2476 C   0  0  0  0  0  0  0  0  0  0  0  0
   28.3407   -9.8267  -16.3748 S   0  0  0  0  0  0  0  0  0  0  0  0
   25.1478   -8.9533  -16.6223 C   0  0  0  0  0  0  0  0  0  0  0  0
   25.5315   -8.5302  -17.7575 O   0  0  0  0  0  0  0  0  0  0  0  0
   17.8655   -7.2284  -19.6564 N   0  0  0  0  0  0  0  0  0  0  0  0
   18.4103   -5.9274  -19.6488 C   0  0  0  0  0  0  0  0  0  0  0  0
   17.8215   -4.9547  -20.2838 N   0  0  0  0  0  0  0  0  0  0  0  0
   19.6186   -5.6581  -18.9428 N   0  0  0  0  0  0  0  0  0  0  0  0
   20.2681   -6.7177  -18.2234 C   0  0  0  0  0  0  0  0  0  0  0  0
   21.5800   -6.1325  -17.6629 C   0  0  0  0  0  0  0  0  0  0  0  0
   22.2945   -7.2615  -17.0111 C   0  0  0  0  0  0  0  0  0  0  0  0
   23.6617   -6.9375  -16.4635 C   0  0  2  0  0  0  0  0  0  0  0  0
   24.1822   -8.2049  -15.9045 N   0  0  0  0  0  0  0  0  0  0  0  0
   23.5326   -5.9330  -15.4005 C   0  0  0  0  0  0  0  0  0  0  0  0
   23.6463   -6.3076  -14.0475 O   0  0  0  0  0  0  0  0  0  0  0  0
   23.3203   -4.7203  -15.6249 O   0  0  0  0  0  0  0  0  0  0  0  0
  2  3  1  0
  2  1  1  1
  3  4  1  0
  4  8  1  0
  4  5  2  0
  6  7  2  0
  6  2  1  0
  9  6  1  0
 10  9  1  0
 11 12  1  0
 10 11  1  6
 13 23  1  0
 13 10  1  0
 14 13  2  0
 16 15  1  0
 17 16  2  0
 18 16  1  0
 19 18  1  0
 20 19  1  0
 21 20  1  0
 22 21  1  1
 22 23  1  0
 24 22  1  0
 25 24  1  0
 26 24  2  0
M  END
$$$$
