DCR.pdb
     RDKit          3D

 26 25  0  0  1  0  0  0  0  0999 V2000
   28.5723  -22.2670  -15.4944 N   0  0  0  0  0  0  0  0  0  0  0  0
   28.1599  -21.0519  -14.7512 C   0  0  1  0  0  0  0  0  0  0  0  0
   27.7369  -20.0304  -15.7799 C   0  0  0  0  0  0  0  0  0  0  0  0
   27.2376  -18.8010  -15.1508 C   0  0  0  0  0  0  0  0  0  0  0  0
   27.9208  -18.1833  -14.3217 O   0  0  0  0  0  0  0  0  0  0  0  0
   26.9306  -21.4920  -14.0193 C   0  0  0  0  0  0  0  0  0  0  0  0
   26.0659  -22.1273  -14.6376 O   0  0  0  0  0  0  0  0  0  0  0  0
   25.9640  -18.3001  -15.4824 O   0  0  0  0  0  0  0  0  0  0  0  0
   26.6703  -21.2372  -12.6565 N   0  0  0  0  0  0  0  0  0  0  0  0
   25.4838  -21.6602  -11.9607 C   0  0  1  0  0  0  0  0  0  0  0  0
   25.6006  -21.6993  -10.4885 C   0  0  0  0  0  0  0  0  0  0  0  0
   25.9847  -20.0198   -9.8728 S   0  0  0  0  0  0  0  0  0  0  0  0
   24.3088  -20.8013  -12.3262 C   0  0  0  0  0  0  0  0  0  0  0  0
   24.4570  -19.6140  -12.7542 O   0  0  0  0  0  0  0  0  0  0  0  0
   20.6080  -19.7013  -19.0389 N   0  0  0  0  0  0  0  0  0  0  0  0
   19.6008  -19.1444  -18.2235 C   0  0  0  0  0  0  0  0  0  0  0  0
   18.6035  -18.4917  -18.7484 N   0  0  0  0  0  0  0  0  0  0  0  0
   19.6609  -19.2890  -16.8070 N   0  0  0  0  0  0  0  0  0  0  0  0
   20.8124  -19.9029  -16.2074 C   0  0  0  0  0  0  0  0  0  0  0  0
   20.6253  -19.7971  -14.6805 C   0  0  0  0  0  0  0  0  0  0  0  0
   21.8106  -20.4540  -14.0692 C   0  0  0  0  0  0  0  0  0  0  0  0
   21.8299  -20.4902  -12.5618 C   0  0  2  0  0  0  0  0  0  0  0  0
   22.9974  -21.3216  -12.1940 N   0  0  0  0  0  0  0  0  0  0  0  0
   20.5931  -21.1147  -12.0760 C   0  0  0  0  0  0  0  0  0  0  0  0
   19.4236  -20.3474  -11.9109 O   0  0  0  0  0  0  0  0  0  0  0  0
   20.5056  -22.3294  -11.7877 O   0  0  0  0  0  0  0  0  0  0  0  0
  2  3  1  0
  2  1  1  6
  3  4  1  0
  4  8  1  0
  4  5  2  0
  6  7  2  0
  6  2  1  0
  9  6  1  0
 10  9  1  0
 11 12  1  0
 10 11  1  1
 13 23  1  0
 13 10  1  0
 14 13  2  0
 16 15  1  0
 17 16  2  0
 18 16  1  0
 19 18  1  0
 20 19  1  0
 21 20  1  0
 22 21  1  6
 22 23  1  0
 24 22  1  0
 25 24  1  0
 26 24  2  0
M  END
$$$$
