DCR.pdb
     RDKit          3D

 26 25  0  0  1  0  0  0  0  0999 V2000
   27.7512  -21.8323  -15.7763 N   0  0  0  0  0  0  0  0  0  0  0  0
   27.7753  -20.7157  -14.8009 C   0  0  1  0  0  0  0  0  0  0  0  0
   27.1888  -19.5112  -15.4978 C   0  0  0  0  0  0  0  0  0  0  0  0
   28.1099  -18.9629  -16.5016 C   0  0  0  0  0  0  0  0  0  0  0  0
   29.3078  -19.2802  -16.5121 O   0  0  0  0  0  0  0  0  0  0  0  0
   26.8006  -21.1495  -13.7511 C   0  0  0  0  0  0  0  0  0  0  0  0
   25.8661  -21.8934  -14.0783 O   0  0  0  0  0  0  0  0  0  0  0  0
   27.6428  -18.0604  -17.4764 O   0  0  0  0  0  0  0  0  0  0  0  0
   26.8592  -20.7729  -12.3929 N   0  0  0  0  0  0  0  0  0  0  0  0
   25.8217  -21.0322  -11.4300 C   0  0  1  0  0  0  0  0  0  0  0  0
   26.1372  -20.6287  -10.0443 C   0  0  0  0  0  0  0  0  0  0  0  0
   27.8805  -21.0480   -9.6799 S   0  0  0  0  0  0  0  0  0  0  0  0
   24.5324  -20.3812  -11.8375 C   0  0  0  0  0  0  0  0  0  0  0  0
   24.5110  -19.3387  -12.5638 O   0  0  0  0  0  0  0  0  0  0  0  0
   18.8106  -22.9126  -15.7134 N   0  0  0  0  0  0  0  0  0  0  0  0
   18.8651  -21.7334  -16.4853 C   0  0  0  0  0  0  0  0  0  0  0  0
   17.8405  -21.3524  -17.1932 N   0  0  0  0  0  0  0  0  0  0  0  0
   20.0480  -20.9387  -16.5014 N   0  0  0  0  0  0  0  0  0  0  0  0
   21.1593  -21.3085  -15.6704 C   0  0  0  0  0  0  0  0  0  0  0  0
   20.8644  -20.7507  -14.2634 C   0  0  0  0  0  0  0  0  0  0  0  0
   22.0860  -20.9979  -13.4530 C   0  0  0  0  0  0  0  0  0  0  0  0
   22.0334  -20.5050  -12.0289 C   0  0  2  0  0  0  0  0  0  0  0  0
   23.3034  -20.9388  -11.4056 N   0  0  0  0  0  0  0  0  0  0  0  0
   20.8956  -21.1287  -11.3417 C   0  0  0  0  0  0  0  0  0  0  0  0
   19.6484  -20.4764  -11.2903 O   0  0  0  0  0  0  0  0  0  0  0  0
   20.9628  -22.2436  -10.7770 O   0  0  0  0  0  0  0  0  0  0  0  0
  2  3  1  0
  2  1  1  6
  3  4  1  0
  4  8  1  0
  4  5  2  0
  6  7  2  0
  6  2  1  0
  9  6  1  0
 10  9  1  0
 11 12  1  0
 10 11  1  1
 13 23  1  0
 13 10  1  0
 14 13  2  0
 16 15  1  0
 17 16  2  0
 18 16  1  0
 19 18  1  0
 20 19  1  0
 21 20  1  0
 22 21  1  6
 22 23  1  0
 24 22  1  0
 25 24  1  0
 26 24  2  0
M  END
$$$$
