DCR.pdb
     RDKit          3D

 26 25  0  0  1  0  0  0  0  0999 V2000
   27.9024  -22.1467  -16.2275 N   0  0  0  0  0  0  0  0  0  0  0  0
   27.7255  -20.9286  -15.4005 C   0  0  1  0  0  0  0  0  0  0  0  0
   27.0272  -19.9075  -16.2667 C   0  0  0  0  0  0  0  0  0  0  0  0
   27.9452  -19.3030  -17.2405 C   0  0  0  0  0  0  0  0  0  0  0  0
   29.1331  -19.0939  -16.9561 O   0  0  0  0  0  0  0  0  0  0  0  0
   26.7579  -21.3626  -14.3441 C   0  0  0  0  0  0  0  0  0  0  0  0
   25.8979  -22.2047  -14.6353 O   0  0  0  0  0  0  0  0  0  0  0  0
   27.4865  -18.9484  -18.5238 O   0  0  0  0  0  0  0  0  0  0  0  0
   26.7441  -20.8815  -13.0181 N   0  0  0  0  0  0  0  0  0  0  0  0
   25.7329  -21.2018  -12.0457 C   0  0  1  0  0  0  0  0  0  0  0  0
   26.0190  -20.7457  -10.6700 C   0  0  0  0  0  0  0  0  0  0  0  0
   24.5825  -21.1239   -9.6019 S   0  0  0  0  0  0  0  0  0  0  0  0
   24.3950  -20.6636  -12.4611 C   0  0  0  0  0  0  0  0  0  0  0  0
   24.2107  -19.4244  -12.6742 O   0  0  0  0  0  0  0  0  0  0  0  0
   20.1476  -25.8501  -15.4726 N   0  0  0  0  0  0  0  0  0  0  0  0
   19.0666  -25.3864  -14.6942 C   0  0  0  0  0  0  0  0  0  0  0  0
   18.1389  -26.2049  -14.2875 N   0  0  0  0  0  0  0  0  0  0  0  0
   18.9743  -24.0090  -14.3404 N   0  0  0  0  0  0  0  0  0  0  0  0
   19.5480  -23.0169  -15.2058 C   0  0  0  0  0  0  0  0  0  0  0  0
   19.9535  -21.8294  -14.3097 C   0  0  0  0  0  0  0  0  0  0  0  0
   21.3431  -22.1039  -13.8583 C   0  0  0  0  0  0  0  0  0  0  0  0
   21.9728  -21.0343  -13.0019 C   0  0  2  0  0  0  0  0  0  0  0  0
   23.3052  -21.5546  -12.6229 N   0  0  0  0  0  0  0  0  0  0  0  0
   21.1521  -20.8283  -11.8020 C   0  0  0  0  0  0  0  0  0  0  0  0
   20.2971  -19.7132  -11.7053 O   0  0  0  0  0  0  0  0  0  0  0  0
   21.1619  -21.6070  -10.8223 O   0  0  0  0  0  0  0  0  0  0  0  0
  2  3  1  0
  2  1  1  6
  3  4  1  0
  4  8  1  0
  4  5  2  0
  6  7  2  0
  6  2  1  0
  9  6  1  0
 10  9  1  0
 11 12  1  0
 10 11  1  1
 13 23  1  0
 13 10  1  0
 14 13  2  0
 16 15  1  0
 17 16  2  0
 18 16  1  0
 19 18  1  0
 20 19  1  0
 21 20  1  0
 22 21  1  6
 22 23  1  0
 24 22  1  0
 25 24  1  0
 26 24  2  0
M  END
$$$$
