LAY.pdb
     RDKit          3D

 26 26  0  0  1  0  0  0  0  0999 V2000
   28.7854  -18.0089   -5.6933 C   0  0  0  0  0  0  0  0  0  0  0  0
   28.4465  -19.2953   -6.3501 C   0  0  1  0  0  0  0  0  0  0  0  0
   28.1930  -20.3434   -5.2555 C   0  0  0  0  0  0  0  0  0  0  0  0
   27.2715  -19.3115   -7.2485 C   0  0  0  0  0  0  0  0  0  0  0  0
   26.9782  -20.5702   -7.9868 C   0  0  2  0  0  0  0  0  0  0  0  0
   28.2172  -21.2380   -8.3006 N   0  0  0  0  0  0  0  0  0  0  0  0
   26.2908  -20.1496   -9.2635 C   0  0  0  0  0  0  0  0  0  0  0  0
   25.3858  -19.2588   -9.2324 O   0  0  0  0  0  0  0  0  0  0  0  0
   26.7003  -20.4048  -12.9527 C   0  0  0  0  0  0  0  0  0  0  0  0
   25.8061  -20.3344  -11.7021 C   0  0  2  0  0  0  0  0  0  0  0  0
   26.5916  -20.6900  -10.5277 N   0  0  0  0  0  0  0  0  0  0  0  0
   24.6656  -21.2451  -11.8985 C   0  0  0  0  0  0  0  0  0  0  0  0
   24.7618  -22.4681  -11.6547 O   0  0  0  0  0  0  0  0  0  0  0  0
   17.4195  -23.5960   -8.2970 O   0  0  0  0  0  0  0  0  0  0  0  0
   18.6034  -23.0388   -8.7918 C   0  0  0  0  0  0  0  0  0  0  0  0
   19.8023  -23.1978   -8.1279 C   0  0  0  0  0  0  0  0  0  0  0  0
   20.9307  -22.6211   -8.6737 C   0  0  0  0  0  0  0  0  0  0  0  0
   20.8972  -21.8925   -9.8592 C   0  0  0  0  0  0  0  0  0  0  0  0
   22.1374  -21.2836  -10.3824 C   0  0  0  0  0  0  0  0  0  0  0  0
   22.1668  -21.2384  -11.8737 C   0  0  2  0  0  0  0  0  0  0  0  0
   23.4390  -20.7261  -12.3724 N   0  0  0  0  0  0  0  0  0  0  0  0
   21.0271  -20.5327  -12.4780 C   0  0  0  0  0  0  0  0  0  0  0  0
   19.9338  -21.1940  -13.0389 O   0  0  0  0  0  0  0  0  0  0  0  0
   19.6939  -21.7464  -10.5037 C   0  0  0  0  0  0  0  0  0  0  0  0
   18.5618  -22.3154   -9.9714 C   0  0  0  0  0  0  0  0  0  0  0  0
   21.0128  -19.2857  -12.5036 O   0  0  0  0  0  0  0  0  0  0  0  0
  2  1  1  1
  3  2  1  0
  4  2  1  0
  5  6  1  6
  5  4  1  0
  7  5  1  0
  8  7  2  0
 10  9  1  6
 10 11  1  0
 11  7  1  0
 12 10  1  0
 12 21  1  0
 13 12  2  0
 15 14  1  0
 16 15  2  0
 17 16  1  0
 18 24  1  0
 18 17  2  0
 19 18  1  0
 20 19  1  1
 20 21  1  0
 20 22  1  0
 22 23  1  0
 24 25  2  0
 25 15  1  0
 26 22  2  0
M  END
$$$$
