LAY.pdb
     RDKit          3D

 26 26  0  0  1  0  0  0  0  0999 V2000
   20.4794  -17.4417  -14.4537 C   0  0  0  0  0  0  0  0  0  0  0  0
   21.3989  -17.2826  -15.6072 C   0  0  1  0  0  0  0  0  0  0  0  0
   21.7753  -15.7975  -15.7224 C   0  0  0  0  0  0  0  0  0  0  0  0
   22.6625  -18.0510  -15.5807 C   0  0  0  0  0  0  0  0  0  0  0  0
   23.6809  -17.7506  -16.6239 C   0  0  2  0  0  0  0  0  0  0  0  0
   23.1372  -18.0601  -17.9231 N   0  0  0  0  0  0  0  0  0  0  0  0
   24.8505  -18.6599  -16.3333 C   0  0  0  0  0  0  0  0  0  0  0  0
   24.8079  -19.8797  -16.6853 O   0  0  0  0  0  0  0  0  0  0  0  0
   28.3980  -18.2921  -15.1010 C   0  0  0  0  0  0  0  0  0  0  0  0
   27.1931  -19.1057  -15.6057 C   0  0  2  0  0  0  0  0  0  0  0  0
   26.0243  -18.2392  -15.6806 N   0  0  0  0  0  0  0  0  0  0  0  0
   26.9824  -20.2367  -14.6864 C   0  0  0  0  0  0  0  0  0  0  0  0
   27.8172  -21.1636  -14.5954 O   0  0  0  0  0  0  0  0  0  0  0  0
   25.7167  -19.3999   -6.8867 O   0  0  0  0  0  0  0  0  0  0  0  0
   25.9837  -19.8990   -8.1659 C   0  0  0  0  0  0  0  0  0  0  0  0
   26.3437  -19.0611   -9.2012 C   0  0  0  0  0  0  0  0  0  0  0  0
   26.5929  -19.6221  -10.4369 C   0  0  0  0  0  0  0  0  0  0  0  0
   26.4935  -20.9910  -10.6685 C   0  0  0  0  0  0  0  0  0  0  0  0
   26.7551  -21.5283  -12.0197 C   0  0  0  0  0  0  0  0  0  0  0  0
   25.5916  -21.3564  -12.9381 C   0  0  2  0  0  0  0  0  0  0  0  0
   25.8134  -20.2748  -13.8924 N   0  0  0  0  0  0  0  0  0  0  0  0
   24.2984  -21.2142  -12.2527 C   0  0  0  0  0  0  0  0  0  0  0  0
   23.5171  -20.0610  -12.3346 O   0  0  0  0  0  0  0  0  0  0  0  0
   26.1338  -21.8068   -9.6247 C   0  0  0  0  0  0  0  0  0  0  0  0
   25.8825  -21.2617   -8.3884 C   0  0  0  0  0  0  0  0  0  0  0  0
   23.8575  -22.1529  -11.5595 O   0  0  0  0  0  0  0  0  0  0  0  0
  2  1  1  1
  3  2  1  0
  4  2  1  0
  5  6  1  6
  5  4  1  0
  7  5  1  0
  8  7  2  0
 10  9  1  1
 10 11  1  0
 11  7  1  0
 12 10  1  0
 12 21  1  0
 13 12  2  0
 15 14  1  0
 16 15  2  0
 17 16  1  0
 18 24  1  0
 18 17  2  0
 19 18  1  0
 20 19  1  1
 20 21  1  0
 20 22  1  0
 22 23  1  0
 24 25  2  0
 25 15  1  0
 26 22  2  0
M  END
$$$$
