LAY.pdb
     RDKit          3D

 26 26  0  0  1  0  0  0  0  0999 V2000
   28.0173  -23.4459  -16.2241 C   0  0  0  0  0  0  0  0  0  0  0  0
   27.1983  -22.7736  -17.2626 C   0  0  1  0  0  0  0  0  0  0  0  0
   27.0468  -23.7330  -18.4530 C   0  0  0  0  0  0  0  0  0  0  0  0
   25.8379  -22.3377  -16.8792 C   0  0  0  0  0  0  0  0  0  0  0  0
   24.9974  -21.6859  -17.9205 C   0  0  2  0  0  0  0  0  0  0  0  0
   25.5973  -20.4305  -18.2996 N   0  0  0  0  0  0  0  0  0  0  0  0
   23.6580  -21.4328  -17.2714 C   0  0  0  0  0  0  0  0  0  0  0  0
   23.5607  -20.5897  -16.3263 O   0  0  0  0  0  0  0  0  0  0  0  0
   20.0930  -21.6965  -18.0699 C   0  0  0  0  0  0  0  0  0  0  0  0
   21.2021  -21.7705  -17.0055 C   0  0  2  0  0  0  0  0  0  0  0  0
   22.4697  -22.0840  -17.6517 N   0  0  0  0  0  0  0  0  0  0  0  0
   20.8223  -22.7905  -16.0135 C   0  0  0  0  0  0  0  0  0  0  0  0
   21.5577  -23.7749  -15.7803 O   0  0  0  0  0  0  0  0  0  0  0  0
   18.9736  -27.1404   -8.9482 O   0  0  0  0  0  0  0  0  0  0  0  0
   19.2937  -26.2669   -9.9929 C   0  0  0  0  0  0  0  0  0  0  0  0
   20.1569  -26.6421  -11.0016 C   0  0  0  0  0  0  0  0  0  0  0  0
   20.4273  -25.7297  -12.0008 C   0  0  0  0  0  0  0  0  0  0  0  0
   19.8630  -24.4576  -12.0221 C   0  0  0  0  0  0  0  0  0  0  0  0
   20.2073  -23.5194  -13.1101 C   0  0  0  0  0  0  0  0  0  0  0  0
   19.2429  -23.5840  -14.2470 C   0  0  2  0  0  0  0  0  0  0  0  0
   19.6024  -22.6536  -15.3123 N   0  0  0  0  0  0  0  0  0  0  0  0
   17.8345  -23.4334  -13.8520 C   0  0  0  0  0  0  0  0  0  0  0  0
   17.2651  -22.2035  -13.5199 O   0  0  0  0  0  0  0  0  0  0  0  0
   19.0068  -24.1044  -11.0087 C   0  0  0  0  0  0  0  0  0  0  0  0
   18.7284  -25.0032  -10.0070 C   0  0  0  0  0  0  0  0  0  0  0  0
   17.0936  -24.4357  -13.8032 O   0  0  0  0  0  0  0  0  0  0  0  0
  2  1  1  1
  3  2  1  0
  4  2  1  0
  5  6  1  1
  5  4  1  0
  7  5  1  0
  8  7  2  0
 10  9  1  6
 10 11  1  0
 11  7  1  0
 12 10  1  0
 12 21  1  0
 13 12  2  0
 15 14  1  0
 16 15  2  0
 17 16  1  0
 18 24  1  0
 18 17  2  0
 19 18  1  0
 20 19  1  1
 20 21  1  0
 20 22  1  0
 22 23  1  0
 24 25  2  0
 25 15  1  0
 26 22  2  0
M  END
$$$$
