LAY.pdb
     RDKit          3D

 26 26  0  0  1  0  0  0  0  0999 V2000
   27.9999  -29.2234  -18.3780 C   0  0  0  0  0  0  0  0  0  0  0  0
   28.4979  -30.1033  -17.2923 C   0  0  1  0  0  0  0  0  0  0  0  0
   28.9557  -29.2161  -16.1244 C   0  0  0  0  0  0  0  0  0  0  0  0
   27.5555  -31.0998  -16.7383 C   0  0  0  0  0  0  0  0  0  0  0  0
   28.0680  -32.0432  -15.7072 C   0  0  2  0  0  0  0  0  0  0  0  0
   29.0486  -32.9153  -16.3051 N   0  0  0  0  0  0  0  0  0  0  0  0
   26.8752  -32.8526  -15.2586 C   0  0  0  0  0  0  0  0  0  0  0  0
   26.2662  -33.5973  -16.0882 O   0  0  0  0  0  0  0  0  0  0  0  0
   24.9145  -33.4525  -12.0803 C   0  0  0  0  0  0  0  0  0  0  0  0
   25.1899  -33.6129  -13.5860 C   0  0  2  0  0  0  0  0  0  0  0  0
   26.3737  -32.8427  -13.9436 N   0  0  0  0  0  0  0  0  0  0  0  0
   23.9970  -33.1641  -14.3236 C   0  0  0  0  0  0  0  0  0  0  0  0
   23.8005  -31.9527  -14.5650 O   0  0  0  0  0  0  0  0  0  0  0  0
   20.5730  -27.7363  -17.3388 O   0  0  0  0  0  0  0  0  0  0  0  0
   21.0347  -29.0539  -17.2518 C   0  0  0  0  0  0  0  0  0  0  0  0
   21.4651  -29.7377  -18.3701 C   0  0  0  0  0  0  0  0  0  0  0  0
   21.9080  -31.0347  -18.2105 C   0  0  0  0  0  0  0  0  0  0  0  0
   21.9335  -31.6671  -16.9708 C   0  0  0  0  0  0  0  0  0  0  0  0
   22.4016  -33.0646  -16.8686 C   0  0  0  0  0  0  0  0  0  0  0  0
   21.9366  -33.7330  -15.6181 C   0  0  2  0  0  0  0  0  0  0  0  0
   23.0560  -34.1217  -14.7664 N   0  0  0  0  0  0  0  0  0  0  0  0
   21.0139  -34.8559  -15.8420 C   0  0  0  0  0  0  0  0  0  0  0  0
   21.2585  -36.1465  -15.3714 O   0  0  0  0  0  0  0  0  0  0  0  0
   21.5007  -30.9687  -15.8710 C   0  0  0  0  0  0  0  0  0  0  0  0
   21.0568  -29.6761  -16.0153 C   0  0  0  0  0  0  0  0  0  0  0  0
   19.9574  -34.6727  -16.4792 O   0  0  0  0  0  0  0  0  0  0  0  0
  2  1  1  6
  3  2  1  0
  4  2  1  0
  5  6  1  6
  5  4  1  0
  7  5  1  0
  8  7  2  0
 10  9  1  1
 10 11  1  0
 11  7  1  0
 12 10  1  0
 12 21  1  0
 13 12  2  0
 15 14  1  0
 16 15  2  0
 17 16  1  0
 18 24  1  0
 18 17  2  0
 19 18  1  0
 20 19  1  6
 20 21  1  0
 20 22  1  0
 22 23  1  0
 24 25  2  0
 25 15  1  0
 26 22  2  0
M  END
$$$$
