LAY.pdb
     RDKit          3D

 26 26  0  0  1  0  0  0  0  0999 V2000
   26.9578  -24.8802  -16.2645 C   0  0  0  0  0  0  0  0  0  0  0  0
   26.0612  -25.2619  -17.3832 C   0  0  1  0  0  0  0  0  0  0  0  0
   26.1428  -26.7849  -17.5684 C   0  0  0  0  0  0  0  0  0  0  0  0
   24.6289  -24.9152  -17.2555 C   0  0  0  0  0  0  0  0  0  0  0  0
   23.7538  -25.1282  -18.4406 C   0  0  2  0  0  0  0  0  0  0  0  0
   24.0609  -24.1385  -19.4434 N   0  0  0  0  0  0  0  0  0  0  0  0
   22.3395  -24.9320  -17.9503 C   0  0  0  0  0  0  0  0  0  0  0  0
   22.0046  -23.8355  -17.4033 O   0  0  0  0  0  0  0  0  0  0  0  0
   19.0009  -26.4934  -18.5071 C   0  0  0  0  0  0  0  0  0  0  0  0
   19.9559  -25.6123  -17.6823 C   0  0  2  0  0  0  0  0  0  0  0  0
   21.3314  -25.9079  -18.0607 N   0  0  0  0  0  0  0  0  0  0  0  0
   19.7087  -25.8749  -16.2545 C   0  0  0  0  0  0  0  0  0  0  0  0
   20.3463  -26.7556  -15.6364 O   0  0  0  0  0  0  0  0  0  0  0  0
   17.3711  -25.1154   -7.8840 O   0  0  0  0  0  0  0  0  0  0  0  0
   17.8000  -24.9698   -9.2075 C   0  0  0  0  0  0  0  0  0  0  0  0
   18.8643  -25.6967   -9.6998 C   0  0  0  0  0  0  0  0  0  0  0  0
   19.2328  -25.5027  -11.0153 C   0  0  0  0  0  0  0  0  0  0  0  0
   18.5721  -24.6069  -11.8509 C   0  0  0  0  0  0  0  0  0  0  0  0
   19.0271  -24.4306  -13.2453 C   0  0  0  0  0  0  0  0  0  0  0  0
   18.3959  -25.4075  -14.1802 C   0  0  2  0  0  0  0  0  0  0  0  0
   18.7310  -25.1168  -15.5705 N   0  0  0  0  0  0  0  0  0  0  0  0
   16.9456  -25.5666  -13.9969 C   0  0  0  0  0  0  0  0  0  0  0  0
   16.0054  -24.7498  -14.6262 O   0  0  0  0  0  0  0  0  0  0  0  0
   17.5158  -23.8936  -11.3408 C   0  0  0  0  0  0  0  0  0  0  0  0
   17.1378  -24.0766  -10.0323 C   0  0  0  0  0  0  0  0  0  0  0  0
   16.5100  -26.4652  -13.2495 O   0  0  0  0  0  0  0  0  0  0  0  0
  2  1  1  1
  3  2  1  0
  4  2  1  0
  5  6  1  6
  5  4  1  0
  7  5  1  0
  8  7  2  0
 10  9  1  6
 10 11  1  0
 11  7  1  0
 12 10  1  0
 12 21  1  0
 13 12  2  0
 15 14  1  0
 16 15  2  0
 17 16  1  0
 18 24  1  0
 18 17  2  0
 19 18  1  0
 20 19  1  1
 20 21  1  0
 20 22  1  0
 22 23  1  0
 24 25  2  0
 25 15  1  0
 26 22  2  0
M  END
$$$$
