LAY.pdb
     RDKit          3D

 26 26  0  0  1  0  0  0  0  0999 V2000
   27.0043  -20.8555   -7.7033 C   0  0  0  0  0  0  0  0  0  0  0  0
   25.9999  -21.0892   -8.7700 C   0  0  1  0  0  0  0  0  0  0  0  0
   24.6856  -20.4125   -8.3512 C   0  0  0  0  0  0  0  0  0  0  0  0
   26.3255  -20.6039  -10.1288 C   0  0  0  0  0  0  0  0  0  0  0  0
   25.2995  -20.7772  -11.1932 C   0  0  2  0  0  0  0  0  0  0  0  0
   24.9912  -22.1788  -11.3338 N   0  0  0  0  0  0  0  0  0  0  0  0
   25.9334  -20.2668  -12.4649 C   0  0  0  0  0  0  0  0  0  0  0  0
   26.0746  -19.0174  -12.6456 O   0  0  0  0  0  0  0  0  0  0  0  0
   27.8386  -21.5847  -15.4111 C   0  0  0  0  0  0  0  0  0  0  0  0
   26.9278  -20.5451  -14.7341 C   0  0  2  0  0  0  0  0  0  0  0  0
   26.3959  -21.1032  -13.4979 N   0  0  0  0  0  0  0  0  0  0  0  0
   25.8587  -20.1828  -15.6799 C   0  0  0  0  0  0  0  0  0  0  0  0
   26.1195  -19.6562  -16.7839 O   0  0  0  0  0  0  0  0  0  0  0  0
   18.6457  -19.9784  -20.4414 O   0  0  0  0  0  0  0  0  0  0  0  0
   19.7074  -20.3058  -19.5914 C   0  0  0  0  0  0  0  0  0  0  0  0
   19.4853  -20.8731  -18.3535 C   0  0  0  0  0  0  0  0  0  0  0  0
   20.5796  -21.1705  -17.5674 C   0  0  0  0  0  0  0  0  0  0  0  0
   21.8849  -20.9187  -17.9796 C   0  0  0  0  0  0  0  0  0  0  0  0
   23.0138  -21.2429  -17.0834 C   0  0  0  0  0  0  0  0  0  0  0  0
   23.4254  -20.0826  -16.2402 C   0  0  2  0  0  0  0  0  0  0  0  0
   24.5119  -20.4350  -15.3318 N   0  0  0  0  0  0  0  0  0  0  0  0
   22.3161  -19.4318  -15.5274 C   0  0  0  0  0  0  0  0  0  0  0  0
   21.5601  -18.3972  -16.0797 O   0  0  0  0  0  0  0  0  0  0  0  0
   22.0835  -20.3536  -19.2149 C   0  0  0  0  0  0  0  0  0  0  0  0
   21.0028  -20.0521  -20.0085 C   0  0  0  0  0  0  0  0  0  0  0  0
   22.0174  -19.8027  -14.3745 O   0  0  0  0  0  0  0  0  0  0  0  0
  2  1  1  1
  3  2  1  0
  4  2  1  0
  5  6  1  6
  5  4  1  0
  7  5  1  0
  8  7  2  0
 10  9  1  6
 10 11  1  0
 11  7  1  0
 12 10  1  0
 12 21  1  0
 13 12  2  0
 15 14  1  0
 16 15  2  0
 17 16  1  0
 18 24  1  0
 18 17  2  0
 19 18  1  0
 20 19  1  1
 20 21  1  0
 20 22  1  0
 22 23  1  0
 24 25  2  0
 25 15  1  0
 26 22  2  0
M  END
$$$$
