LAY.pdb
     RDKit          3D

 26 26  0  0  1  0  0  0  0  0999 V2000
   29.2838  -14.2494  -19.5348 C   0  0  0  0  0  0  0  0  0  0  0  0
   28.8883  -15.6657  -19.3379 C   0  0  1  0  0  0  0  0  0  0  0  0
   30.0935  -16.4276  -18.7656 C   0  0  0  0  0  0  0  0  0  0  0  0
   27.7402  -15.9334  -18.4446 C   0  0  0  0  0  0  0  0  0  0  0  0
   27.3803  -17.3535  -18.1817 C   0  0  2  0  0  0  0  0  0  0  0  0
   27.2936  -18.0626  -19.4343 N   0  0  0  0  0  0  0  0  0  0  0  0
   26.0226  -17.3203  -17.5222 C   0  0  0  0  0  0  0  0  0  0  0  0
   25.8293  -16.5831  -16.5059 O   0  0  0  0  0  0  0  0  0  0  0  0
   22.5047  -18.3011  -18.2743 C   0  0  0  0  0  0  0  0  0  0  0  0
   23.6382  -18.0058  -17.2760 C   0  0  2  0  0  0  0  0  0  0  0  0
   24.9185  -18.0707  -17.9681 N   0  0  0  0  0  0  0  0  0  0  0  0
   23.5542  -18.9854  -16.1796 C   0  0  0  0  0  0  0  0  0  0  0  0
   24.0489  -20.1286  -16.2911 O   0  0  0  0  0  0  0  0  0  0  0  0
   22.6474  -21.9981   -7.9493 O   0  0  0  0  0  0  0  0  0  0  0  0
   22.8889  -21.2616   -9.1138 C   0  0  0  0  0  0  0  0  0  0  0  0
   24.1064  -21.3219   -9.7600 C   0  0  0  0  0  0  0  0  0  0  0  0
   24.2747  -20.5691  -10.9041 C   0  0  0  0  0  0  0  0  0  0  0  0
   23.2662  -19.7604  -11.4201 C   0  0  0  0  0  0  0  0  0  0  0  0
   23.5151  -18.9635  -12.6390 C   0  0  0  0  0  0  0  0  0  0  0  0
   22.8576  -19.5448  -13.8459 C   0  0  2  0  0  0  0  0  0  0  0  0
   22.9009  -18.6257  -14.9786 N   0  0  0  0  0  0  0  0  0  0  0  0
   21.4950  -20.0442  -13.6083 C   0  0  0  0  0  0  0  0  0  0  0  0
   20.3544  -19.2647  -13.8045 O   0  0  0  0  0  0  0  0  0  0  0  0
   22.0626  -19.7148  -10.7614 C   0  0  0  0  0  0  0  0  0  0  0  0
   21.8810  -20.4594   -9.6207 C   0  0  0  0  0  0  0  0  0  0  0  0
   21.3238  -21.2147  -13.2126 O   0  0  0  0  0  0  0  0  0  0  0  0
  2  1  1  1
  3  2  1  0
  4  2  1  0
  5  6  1  6
  5  4  1  0
  7  5  1  0
  8  7  2  0
 10  9  1  6
 10 11  1  0
 11  7  1  0
 12 10  1  0
 12 21  1  0
 13 12  2  0
 15 14  1  0
 16 15  2  0
 17 16  1  0
 18 24  1  0
 18 17  2  0
 19 18  1  0
 20 19  1  1
 20 21  1  0
 20 22  1  0
 22 23  1  0
 24 25  2  0
 25 15  1  0
 26 22  2  0
M  END
$$$$
