LAY.pdb
     RDKit          3D

 26 26  0  0  1  0  0  0  0  0999 V2000
   28.8330  -20.3423   -6.5199 C   0  0  0  0  0  0  0  0  0  0  0  0
   27.4794  -20.5750   -7.0809 C   0  0  1  0  0  0  0  0  0  0  0  0
   26.4430  -20.0759   -6.0624 C   0  0  0  0  0  0  0  0  0  0  0  0
   27.1604  -19.9348   -8.3756 C   0  0  0  0  0  0  0  0  0  0  0  0
   25.8772  -20.3010   -9.0349 C   0  0  2  0  0  0  0  0  0  0  0  0
   25.5132  -21.6438   -8.6555 N   0  0  0  0  0  0  0  0  0  0  0  0
   26.1458  -20.2483  -10.5196 C   0  0  0  0  0  0  0  0  0  0  0  0
   26.6081  -19.1871  -11.0428 O   0  0  0  0  0  0  0  0  0  0  0  0
   27.1570  -22.0844  -13.3581 C   0  0  0  0  0  0  0  0  0  0  0  0
   26.0403  -21.1625  -12.8367 C   0  0  2  0  0  0  0  0  0  0  0  0
   25.9148  -21.3262  -11.3945 N   0  0  0  0  0  0  0  0  0  0  0  0
   24.7930  -21.5049  -13.5407 C   0  0  0  0  0  0  0  0  0  0  0  0
   24.0656  -22.4454  -13.1526 O   0  0  0  0  0  0  0  0  0  0  0  0
   20.0603  -22.6954   -9.7181 O   0  0  0  0  0  0  0  0  0  0  0  0
   20.6801  -21.9061  -10.6927 C   0  0  0  0  0  0  0  0  0  0  0  0
   21.5128  -20.8622  -10.3460 C   0  0  0  0  0  0  0  0  0  0  0  0
   22.0909  -20.1257  -11.3596 C   0  0  0  0  0  0  0  0  0  0  0  0
   21.8624  -20.4001  -12.7049 C   0  0  0  0  0  0  0  0  0  0  0  0
   22.4965  -19.5623  -13.7435 C   0  0  0  0  0  0  0  0  0  0  0  0
   23.0206  -20.3670  -14.8856 C   0  0  2  0  0  0  0  0  0  0  0  0
   24.4117  -20.7558  -14.6774 N   0  0  0  0  0  0  0  0  0  0  0  0
   22.8265  -19.7423  -16.2025 C   0  0  0  0  0  0  0  0  0  0  0  0
   21.5975  -19.7267  -16.8631 O   0  0  0  0  0  0  0  0  0  0  0  0
   21.0303  -21.4432  -13.0279 C   0  0  0  0  0  0  0  0  0  0  0  0
   20.4477  -22.1852  -12.0286 C   0  0  0  0  0  0  0  0  0  0  0  0
   23.7889  -19.1949  -16.7770 O   0  0  0  0  0  0  0  0  0  0  0  0
  2  1  1  1
  3  2  1  0
  4  2  1  0
  5  6  1  1
  5  4  1  0
  7  5  1  0
  8  7  2  0
 10  9  1  6
 10 11  1  0
 11  7  1  0
 12 10  1  0
 12 21  1  0
 13 12  2  0
 15 14  1  0
 16 15  2  0
 17 16  1  0
 18 24  1  0
 18 17  2  0
 19 18  1  0
 20 19  1  1
 20 21  1  0
 20 22  1  0
 22 23  1  0
 24 25  2  0
 25 15  1  0
 26 22  2  0
M  END
$$$$
