LAY.pdb
     RDKit          3D

 26 26  0  0  1  0  0  0  0  0999 V2000
   17.0401  -22.7443    2.5211 C   0  0  0  0  0  0  0  0  0  0  0  0
   16.5333  -21.5228    3.1936 C   0  0  1  0  0  0  0  0  0  0  0  0
   15.1730  -21.8510    3.8280 C   0  0  0  0  0  0  0  0  0  0  0  0
   17.3768  -20.9309    4.2546 C   0  0  0  0  0  0  0  0  0  0  0  0
   16.9084  -19.6703    4.8928 C   0  0  2  0  0  0  0  0  0  0  0  0
   16.8191  -18.6350    3.8930 N   0  0  0  0  0  0  0  0  0  0  0  0
   17.9636  -19.3049    5.9089 C   0  0  0  0  0  0  0  0  0  0  0  0
   18.1300  -20.0299    6.9387 O   0  0  0  0  0  0  0  0  0  0  0  0
   21.1084  -17.5113    6.2593 C   0  0  0  0  0  0  0  0  0  0  0  0
   19.7268  -17.8221    6.8620 C   0  0  2  0  0  0  0  0  0  0  0  0
   18.8052  -18.1829    5.7928 N   0  0  0  0  0  0  0  0  0  0  0  0
   19.2704  -16.6360    7.6059 C   0  0  0  0  0  0  0  0  0  0  0  0
   19.8907  -16.2207    8.6094 O   0  0  0  0  0  0  0  0  0  0  0  0
   22.4396  -10.8416    6.9670 O   0  0  0  0  0  0  0  0  0  0  0  0
   21.2152  -11.5153    7.0299 C   0  0  0  0  0  0  0  0  0  0  0  0
   20.5886  -11.7515    8.2361 C   0  0  0  0  0  0  0  0  0  0  0  0
   19.3824  -12.4216    8.2235 C   0  0  0  0  0  0  0  0  0  0  0  0
   18.7856  -12.8614    7.0455 C   0  0  0  0  0  0  0  0  0  0  0  0
   17.5017  -13.5902    7.1002 C   0  0  0  0  0  0  0  0  0  0  0  0
   17.5805  -14.8247    7.9348 C   0  0  2  0  0  0  0  0  0  0  0  0
   18.1083  -15.9548    7.1770 N   0  0  0  0  0  0  0  0  0  0  0  0
   16.3252  -15.1722    8.6172 C   0  0  0  0  0  0  0  0  0  0  0  0
   15.6730  -14.3070    9.4966 O   0  0  0  0  0  0  0  0  0  0  0  0
   19.4261  -12.6161    5.8563 C   0  0  0  0  0  0  0  0  0  0  0  0
   20.6281  -11.9498    5.8539 C   0  0  0  0  0  0  0  0  0  0  0  0
   15.7989  -16.2854    8.4184 O   0  0  0  0  0  0  0  0  0  0  0  0
  2  1  1  1
  3  2  1  0
  4  2  1  0
  5  6  1  6
  5  4  1  0
  7  5  1  0
  8  7  2  0
 10  9  1  6
 10 11  1  0
 11  7  1  0
 12 10  1  0
 12 21  1  0
 13 12  2  0
 15 14  1  0
 16 15  2  0
 17 16  1  0
 18 24  1  0
 18 17  2  0
 19 18  1  0
 20 19  1  6
 20 21  1  0
 20 22  1  0
 22 23  1  0
 24 25  2  0
 25 15  1  0
 26 22  2  0
M  END
$$$$
