LAY.pdb
     RDKit          3D

 26 26  0  0  1  0  0  0  0  0999 V2000
   17.0031  -14.6621  -16.6658 C   0  0  0  0  0  0  0  0  0  0  0  0
   18.0463  -13.8832  -17.3772 C   0  0  1  0  0  0  0  0  0  0  0  0
   17.3881  -13.1730  -18.5702 C   0  0  0  0  0  0  0  0  0  0  0  0
   18.7717  -12.8523  -16.6033 C   0  0  0  0  0  0  0  0  0  0  0  0
   19.8310  -12.0751  -17.3027 C   0  0  2  0  0  0  0  0  0  0  0  0
   20.7626  -12.9873  -17.9188 N   0  0  0  0  0  0  0  0  0  0  0  0
   20.5347  -11.2782  -16.2307 C   0  0  0  0  0  0  0  0  0  0  0  0
   19.8636  -10.5305  -15.4533 O   0  0  0  0  0  0  0  0  0  0  0  0
   24.0469  -10.7873  -14.9238 C   0  0  0  0  0  0  0  0  0  0  0  0
   22.5586  -10.4182  -15.0560 C   0  0  2  0  0  0  0  0  0  0  0  0
   21.9262  -11.3064  -16.0224 N   0  0  0  0  0  0  0  0  0  0  0  0
   22.4678   -9.0061  -15.4637 C   0  0  0  0  0  0  0  0  0  0  0  0
   22.4923   -8.6757  -16.6697 O   0  0  0  0  0  0  0  0  0  0  0  0
   20.2670   -0.9602  -17.1158 O   0  0  0  0  0  0  0  0  0  0  0  0
   20.4737   -2.3030  -16.7825 C   0  0  0  0  0  0  0  0  0  0  0  0
   21.4526   -3.0525  -17.4017 C   0  0  0  0  0  0  0  0  0  0  0  0
   21.6011   -4.3710  -17.0230 C   0  0  0  0  0  0  0  0  0  0  0  0
   20.8031   -4.9612  -16.0472 C   0  0  0  0  0  0  0  0  0  0  0  0
   20.9993   -6.3836  -15.6994 C   0  0  0  0  0  0  0  0  0  0  0  0
   22.1993   -6.6013  -14.8395 C   0  0  2  0  0  0  0  0  0  0  0  0
   22.3514   -8.0054  -14.4719 N   0  0  0  0  0  0  0  0  0  0  0  0
   22.2629   -5.7252  -13.6603 C   0  0  0  0  0  0  0  0  0  0  0  0
   22.8252   -4.4484  -13.6909 O   0  0  0  0  0  0  0  0  0  0  0  0
   19.8349   -4.1977  -15.4437 C   0  0  0  0  0  0  0  0  0  0  0  0
   19.6758   -2.8830  -15.8111 C   0  0  0  0  0  0  0  0  0  0  0  0
   21.8004   -6.1178  -12.5704 O   0  0  0  0  0  0  0  0  0  0  0  0
  2  1  1  1
  3  2  1  0
  4  2  1  0
  5  6  1  1
  5  4  1  0
  7  5  1  0
  8  7  2  0
 10  9  1  6
 10 11  1  0
 11  7  1  0
 12 10  1  0
 12 21  1  0
 13 12  2  0
 15 14  1  0
 16 15  2  0
 17 16  1  0
 18 24  1  0
 18 17  2  0
 19 18  1  0
 20 19  1  1
 20 21  1  0
 20 22  1  0
 22 23  1  0
 24 25  2  0
 25 15  1  0
 26 22  2  0
M  END
$$$$
