LAY.pdb
     RDKit          3D

 26 26  0  0  1  0  0  0  0  0999 V2000
   29.1403  -28.9046  -19.9669 C   0  0  0  0  0  0  0  0  0  0  0  0
   30.5235  -28.9193  -19.4305 C   0  0  1  0  0  0  0  0  0  0  0  0
   30.5747  -27.9958  -18.2037 C   0  0  0  0  0  0  0  0  0  0  0  0
   31.0780  -30.2260  -19.0150 C   0  0  0  0  0  0  0  0  0  0  0  0
   32.4838  -30.2613  -18.5270 C   0  0  2  0  0  0  0  0  0  0  0  0
   33.3602  -29.7758  -19.5642 N   0  0  0  0  0  0  0  0  0  0  0  0
   32.7869  -31.7131  -18.2448 C   0  0  0  0  0  0  0  0  0  0  0  0
   32.8517  -32.5449  -19.2027 O   0  0  0  0  0  0  0  0  0  0  0  0
   33.9869  -33.8527  -15.4106 C   0  0  0  0  0  0  0  0  0  0  0  0
   33.2465  -33.6506  -16.7447 C   0  0  2  0  0  0  0  0  0  0  0  0
   33.0120  -32.2281  -16.9546 N   0  0  0  0  0  0  0  0  0  0  0  0
   31.9887  -34.4149  -16.6947 C   0  0  0  0  0  0  0  0  0  0  0  0
   30.9180  -33.8801  -16.3318 O   0  0  0  0  0  0  0  0  0  0  0  0
   26.9080  -32.2065  -14.3860 O   0  0  0  0  0  0  0  0  0  0  0  0
   27.5950  -33.0944  -15.2205 C   0  0  0  0  0  0  0  0  0  0  0  0
   28.2591  -32.6516  -16.3458 C   0  0  0  0  0  0  0  0  0  0  0  0
   28.9163  -33.5831  -17.1232 C   0  0  0  0  0  0  0  0  0  0  0  0
   28.9296  -34.9395  -16.8111 C   0  0  0  0  0  0  0  0  0  0  0  0
   29.6361  -35.8897  -17.6945 C   0  0  0  0  0  0  0  0  0  0  0  0
   30.7700  -36.5741  -17.0072 C   0  0  2  0  0  0  0  0  0  0  0  0
   31.9929  -35.7797  -17.0635 N   0  0  0  0  0  0  0  0  0  0  0  0
   31.0026  -37.9547  -17.4567 C   0  0  0  0  0  0  0  0  0  0  0  0
   32.1960  -38.3712  -18.0477 O   0  0  0  0  0  0  0  0  0  0  0  0
   28.2622  -35.3588  -15.6870 C   0  0  0  0  0  0  0  0  0  0  0  0
   27.6033  -34.4420  -14.9034 C   0  0  0  0  0  0  0  0  0  0  0  0
   30.1077  -38.8120  -17.3150 O   0  0  0  0  0  0  0  0  0  0  0  0
  2  1  1  1
  3  2  1  0
  4  2  1  0
  5  6  1  6
  5  4  1  0
  7  5  1  0
  8  7  2  0
 10  9  1  1
 10 11  1  0
 11  7  1  0
 12 10  1  0
 12 21  1  0
 13 12  2  0
 15 14  1  0
 16 15  2  0
 17 16  1  0
 18 24  1  0
 18 17  2  0
 19 18  1  0
 20 19  1  6
 20 21  1  0
 20 22  1  0
 22 23  1  0
 24 25  2  0
 25 15  1  0
 26 22  2  0
M  END
$$$$
