KED.pdb
     RDKit          3D

 27 26  0  0  1  0  0  0  0  0999 V2000
   18.5174  -12.4946  -15.6276 N   0  0  0  0  0  0  0  0  0  0  0  0
   18.7364  -11.2972  -16.4135 C   0  0  1  0  0  0  0  0  0  0  0  0
   17.7307  -11.1221  -17.5030 C   0  0  0  0  0  0  0  0  0  0  0  0
   16.3575  -11.4848  -17.0085 C   0  0  0  0  0  0  0  0  0  0  0  0
   15.3901  -11.4457  -18.1954 C   0  0  0  0  0  0  0  0  0  0  0  0
   13.9717  -11.7247  -17.7595 C   0  0  0  0  0  0  0  0  0  0  0  0
   13.0480  -11.7498  -18.8700 N   0  0  0  0  0  0  0  0  0  0  0  0
   18.6465  -10.0744  -15.5346 C   0  0  0  0  0  0  0  0  0  0  0  0
   17.9720  -10.0671  -14.4796 O   0  0  0  0  0  0  0  0  0  0  0  0
   19.3258   -8.8871  -15.8751 N   0  0  0  0  0  0  0  0  0  0  0  0
   19.2594   -7.6742  -14.9848 C   0  0  1  0  0  0  0  0  0  0  0  0
   20.6305   -7.3797  -14.5726 C   0  0  0  0  0  0  0  0  0  0  0  0
   20.9222   -6.1529  -13.8018 C   0  0  0  0  0  0  0  0  0  0  0  0
   22.3197   -5.9417  -13.4054 C   0  0  0  0  0  0  0  0  0  0  0  0
   22.7904   -4.8232  -13.2033 O   0  0  0  0  0  0  0  0  0  0  0  0
   18.3725   -6.7635  -15.6155 C   0  0  0  0  0  0  0  0  0  0  0  0
   18.4335   -6.5810  -16.8838 O   0  0  0  0  0  0  0  0  0  0  0  0
   23.1298   -7.0686  -13.2579 O   0  0  0  0  0  0  0  0  0  0  0  0
   17.3697   -6.0044  -14.9682 N   0  0  0  0  0  0  0  0  0  0  0  0
   16.5638   -5.0215  -15.6821 C   0  0  1  0  0  0  0  0  0  0  0  0
   15.1340   -5.0555  -15.1634 C   0  0  0  0  0  0  0  0  0  0  0  0
   14.4375   -6.2795  -15.5719 C   0  0  0  0  0  0  0  0  0  0  0  0
   14.5894   -6.7346  -16.7155 O   0  0  0  0  0  0  0  0  0  0  0  0
   17.1521   -3.6843  -15.5999 C   0  0  0  0  0  0  0  0  0  0  0  0
   18.3397   -3.4331  -14.8991 O   0  0  0  0  0  0  0  0  0  0  0  0
   13.6004   -6.9460  -14.6840 O   0  0  0  0  0  0  0  0  0  0  0  0
   16.6224   -2.7017  -16.1509 O   0  0  0  0  0  0  0  0  0  0  0  0
  2  1  1  1
  3  2  1  0
  4  3  1  0
  5  4  1  0
  5  6  1  0
  6  7  1  0
  8 10  1  0
  8  2  1  0
  9  8  2  0
 11 10  1  0
 11 12  1  6
 12 13  1  0
 13 14  1  0
 14 18  1  0
 15 14  2  0
 16 17  2  0
 16 11  1  0
 19 16  1  0
 20 21  1  1
 20 19  1  0
 22 21  1  0
 22 23  2  0
 24 20  1  0
 25 24  1  0
 26 22  1  0
 27 24  2  0
M  END
$$$$
