KED.pdb
     RDKit          3D

 27 26  0  0  1  0  0  0  0  0999 V2000
   17.8359  -13.2598  -15.8670 N   0  0  0  0  0  0  0  0  0  0  0  0
   17.5846  -11.8566  -16.1264 C   0  0  1  0  0  0  0  0  0  0  0  0
   16.8143  -11.1901  -15.0349 C   0  0  0  0  0  0  0  0  0  0  0  0
   15.4612  -11.8296  -14.8857 C   0  0  0  0  0  0  0  0  0  0  0  0
   14.5660  -11.3391  -16.0277 C   0  0  0  0  0  0  0  0  0  0  0  0
   13.1575  -11.8648  -15.8882 C   0  0  0  0  0  0  0  0  0  0  0  0
   12.2730  -11.3504  -16.9081 N   0  0  0  0  0  0  0  0  0  0  0  0
   18.8889  -11.1104  -16.2597 C   0  0  0  0  0  0  0  0  0  0  0  0
   19.8013  -11.2174  -15.4087 O   0  0  0  0  0  0  0  0  0  0  0  0
   19.1267  -10.2593  -17.3579 N   0  0  0  0  0  0  0  0  0  0  0  0
   20.4072   -9.4739  -17.4663 C   0  0  1  0  0  0  0  0  0  0  0  0
   20.8215   -9.5365  -18.8666 C   0  0  0  0  0  0  0  0  0  0  0  0
   22.0002   -8.7702  -19.3225 C   0  0  0  0  0  0  0  0  0  0  0  0
   22.3093   -8.8297  -20.7563 C   0  0  0  0  0  0  0  0  0  0  0  0
   23.0730   -9.6662  -21.2363 O   0  0  0  0  0  0  0  0  0  0  0  0
   20.2123   -8.2861  -16.7145 C   0  0  0  0  0  0  0  0  0  0  0  0
   19.0924   -7.6636  -16.7751 O   0  0  0  0  0  0  0  0  0  0  0  0
   21.7018   -7.8902  -21.5905 O   0  0  0  0  0  0  0  0  0  0  0  0
   21.1617   -7.6887  -15.8527 N   0  0  0  0  0  0  0  0  0  0  0  0
   20.8892   -6.4408  -15.1502 C   0  0  1  0  0  0  0  0  0  0  0  0
   21.4726   -6.5037  -13.7466 C   0  0  0  0  0  0  0  0  0  0  0  0
   20.7388   -7.4458  -12.8956 C   0  0  0  0  0  0  0  0  0  0  0  0
   21.3210   -8.0482  -11.9812 O   0  0  0  0  0  0  0  0  0  0  0  0
   21.3770   -5.2845  -15.9025 C   0  0  0  0  0  0  0  0  0  0  0  0
   21.1019   -3.9677  -15.5088 O   0  0  0  0  0  0  0  0  0  0  0  0
   19.3827   -7.6747  -13.1008 O   0  0  0  0  0  0  0  0  0  0  0  0
   22.0624   -5.4166  -16.9333 O   0  0  0  0  0  0  0  0  0  0  0  0
  2  1  1  1
  3  2  1  0
  4  3  1  0
  5  4  1  0
  5  6  1  0
  6  7  1  0
  8 10  1  0
  8  2  1  0
  9  8  2  0
 11 10  1  0
 11 12  1  6
 12 13  1  0
 13 14  1  0
 14 18  1  0
 15 14  2  0
 16 17  2  0
 16 11  1  0
 19 16  1  0
 20 21  1  1
 20 19  1  0
 22 21  1  0
 22 23  2  0
 24 20  1  0
 25 24  1  0
 26 22  1  0
 27 24  2  0
M  END
$$$$
