KED.pdb
     RDKit          3D

 27 26  0  0  1  0  0  0  0  0999 V2000
   17.5410  -12.1522  -15.0307 N   0  0  0  0  0  0  0  0  0  0  0  0
   16.9889  -10.8191  -14.8985 C   0  0  1  0  0  0  0  0  0  0  0  0
   15.4998  -10.8123  -14.7897 C   0  0  0  0  0  0  0  0  0  0  0  0
   14.8832  -11.3880  -16.0348 C   0  0  0  0  0  0  0  0  0  0  0  0
   13.3594  -11.3350  -15.8888 C   0  0  0  0  0  0  0  0  0  0  0  0
   12.6691  -11.8825  -17.1149 C   0  0  0  0  0  0  0  0  0  0  0  0
   11.2416  -11.6618  -17.0893 N   0  0  0  0  0  0  0  0  0  0  0  0
   17.5214  -10.1567  -13.6522 C   0  0  0  0  0  0  0  0  0  0  0  0
   17.6752  -10.7887  -12.5822 O   0  0  0  0  0  0  0  0  0  0  0  0
   17.8675   -8.7901  -13.6506 N   0  0  0  0  0  0  0  0  0  0  0  0
   18.4105   -8.1301  -12.4106 C   0  0  1  0  0  0  0  0  0  0  0  0
   19.6246   -7.4206  -12.8094 C   0  0  0  0  0  0  0  0  0  0  0  0
   20.2775   -6.4877  -11.8672 C   0  0  0  0  0  0  0  0  0  0  0  0
   21.4076   -5.7095  -12.3889 C   0  0  0  0  0  0  0  0  0  0  0  0
   22.5762   -5.9581  -12.0955 O   0  0  0  0  0  0  0  0  0  0  0  0
   17.2977   -7.5538  -11.7447 C   0  0  0  0  0  0  0  0  0  0  0  0
   16.4720   -6.8166  -12.3928 O   0  0  0  0  0  0  0  0  0  0  0  0
   21.1226   -4.6492  -13.2505 O   0  0  0  0  0  0  0  0  0  0  0  0
   16.9759   -7.7207  -10.3774 N   0  0  0  0  0  0  0  0  0  0  0  0
   15.9229   -6.9464   -9.7319 C   0  0  1  0  0  0  0  0  0  0  0  0
   15.0554   -7.8654   -8.8850 C   0  0  0  0  0  0  0  0  0  0  0  0
   13.9376   -7.1421   -8.2703 C   0  0  0  0  0  0  0  0  0  0  0  0
   13.8028   -5.9233   -8.4553 O   0  0  0  0  0  0  0  0  0  0  0  0
   16.4737   -5.8339   -8.9572 C   0  0  0  0  0  0  0  0  0  0  0  0
   15.8485   -4.5806   -8.9026 O   0  0  0  0  0  0  0  0  0  0  0  0
   13.0147   -7.8120   -7.4747 O   0  0  0  0  0  0  0  0  0  0  0  0
   17.5292   -5.9487   -8.3073 O   0  0  0  0  0  0  0  0  0  0  0  0
  2  1  1  1
  3  2  1  0
  4  3  1  0
  5  4  1  0
  5  6  1  0
  6  7  1  0
  8 10  1  0
  8  2  1  0
  9  8  2  0
 11 10  1  0
 11 12  1  6
 12 13  1  0
 13 14  1  0
 14 18  1  0
 15 14  2  0
 16 17  2  0
 16 11  1  0
 19 16  1  0
 20 21  1  1
 20 19  1  0
 22 21  1  0
 22 23  2  0
 24 20  1  0
 25 24  1  0
 26 22  1  0
 27 24  2  0
M  END
$$$$
