KED.pdb
     RDKit          3D

 27 26  0  0  1  0  0  0  0  0999 V2000
   16.1845  -13.6781  -14.1482 N   0  0  0  0  0  0  0  0  0  0  0  0
   15.8081  -12.2884  -14.3108 C   0  0  1  0  0  0  0  0  0  0  0  0
   14.3527  -12.0472  -14.0814 C   0  0  0  0  0  0  0  0  0  0  0  0
   13.5317  -12.8428  -15.0586 C   0  0  0  0  0  0  0  0  0  0  0  0
   12.0545  -12.5030  -14.8384 C   0  0  0  0  0  0  0  0  0  0  0  0
   11.1684  -13.2391  -15.8145 C   0  0  0  0  0  0  0  0  0  0  0  0
    9.7832  -12.8427  -15.7096 N   0  0  0  0  0  0  0  0  0  0  0  0
   16.5552  -11.4280  -13.3222 C   0  0  0  0  0  0  0  0  0  0  0  0
   16.7596  -11.8005  -12.1443 O   0  0  0  0  0  0  0  0  0  0  0  0
   17.0533  -10.1631  -13.6953 N   0  0  0  0  0  0  0  0  0  0  0  0
   17.8720   -9.3395  -12.7364 C   0  0  1  0  0  0  0  0  0  0  0  0
   19.1149   -9.0017  -13.4275 C   0  0  0  0  0  0  0  0  0  0  0  0
   20.0584   -8.0391  -12.8213 C   0  0  0  0  0  0  0  0  0  0  0  0
   21.2659   -7.7255  -13.5948 C   0  0  0  0  0  0  0  0  0  0  0  0
   21.4241   -6.6503  -14.1714 O   0  0  0  0  0  0  0  0  0  0  0  0
   16.9779   -8.4109  -12.1429 C   0  0  0  0  0  0  0  0  0  0  0  0
   16.0677   -7.8514  -12.8527 O   0  0  0  0  0  0  0  0  0  0  0  0
   22.2621   -8.7003  -13.6663 O   0  0  0  0  0  0  0  0  0  0  0  0
   16.9723   -8.0231  -10.7826 N   0  0  0  0  0  0  0  0  0  0  0  0
   16.0653   -7.0011  -10.2747 C   0  0  1  0  0  0  0  0  0  0  0  0
   15.5904   -7.3827   -8.8807 C   0  0  0  0  0  0  0  0  0  0  0  0
   14.7071   -6.3610   -8.3096 C   0  0  0  0  0  0  0  0  0  0  0  0
   14.3615   -5.3819   -8.9878 O   0  0  0  0  0  0  0  0  0  0  0  0
   16.6808   -5.6740  -10.3072 C   0  0  0  0  0  0  0  0  0  0  0  0
   15.9212   -4.5014  -10.4189 O   0  0  0  0  0  0  0  0  0  0  0  0
   14.2447   -6.4768   -7.0035 O   0  0  0  0  0  0  0  0  0  0  0  0
   17.9146   -5.5233  -10.2374 O   0  0  0  0  0  0  0  0  0  0  0  0
  2  1  1  1
  3  2  1  0
  4  3  1  0
  5  4  1  0
  5  6  1  0
  6  7  1  0
  8 10  1  0
  8  2  1  0
  9  8  2  0
 11 10  1  0
 11 12  1  6
 12 13  1  0
 13 14  1  0
 14 18  1  0
 15 14  2  0
 16 17  2  0
 16 11  1  0
 19 16  1  0
 20 21  1  1
 20 19  1  0
 22 21  1  0
 22 23  2  0
 24 20  1  0
 25 24  1  0
 26 22  1  0
 27 24  2  0
M  END
$$$$
