KED.pdb
     RDKit          3D

 27 26  0  0  1  0  0  0  0  0999 V2000
   22.9846  -14.9412  -18.1821 N   0  0  0  0  0  0  0  0  0  0  0  0
   22.7113  -13.6138  -18.6948 C   0  0  1  0  0  0  0  0  0  0  0  0
   21.2550  -13.3548  -18.8973 C   0  0  0  0  0  0  0  0  0  0  0  0
   20.6640  -14.3886  -19.8160 C   0  0  0  0  0  0  0  0  0  0  0  0
   19.2075  -14.0083  -20.0986 C   0  0  0  0  0  0  0  0  0  0  0  0
   18.5745  -14.9522  -21.0926 C   0  0  0  0  0  0  0  0  0  0  0  0
   17.1506  -14.7449  -21.2210 N   0  0  0  0  0  0  0  0  0  0  0  0
   23.2109  -12.5695  -17.7276 C   0  0  0  0  0  0  0  0  0  0  0  0
   22.9169  -12.6013  -16.5108 O   0  0  0  0  0  0  0  0  0  0  0  0
   24.0341  -11.5123  -18.1657 N   0  0  0  0  0  0  0  0  0  0  0  0
   24.5735  -10.4966  -17.1933 C   0  0  1  0  0  0  0  0  0  0  0  0
   25.9934  -10.3340  -17.4997 C   0  0  0  0  0  0  0  0  0  0  0  0
   26.7808   -9.2866  -16.8162 C   0  0  0  0  0  0  0  0  0  0  0  0
   28.1964   -9.1791  -17.1892 C   0  0  0  0  0  0  0  0  0  0  0  0
   28.5973   -8.4037  -18.0562 O   0  0  0  0  0  0  0  0  0  0  0  0
   23.6157   -9.4510  -17.1353 C   0  0  0  0  0  0  0  0  0  0  0  0
   22.9925   -9.0906  -18.1970 O   0  0  0  0  0  0  0  0  0  0  0  0
   29.1075   -9.9987  -16.5213 O   0  0  0  0  0  0  0  0  0  0  0  0
   23.2454   -8.7333  -15.9740 N   0  0  0  0  0  0  0  0  0  0  0  0
   22.2244   -7.6932  -16.0018 C   0  0  1  0  0  0  0  0  0  0  0  0
   20.9378   -8.2522  -16.5904 C   0  0  0  0  0  0  0  0  0  0  0  0
   19.8610   -7.2568  -16.5847 C   0  0  0  0  0  0  0  0  0  0  0  0
   19.6097   -6.6119  -15.5556 O   0  0  0  0  0  0  0  0  0  0  0  0
   22.0197   -7.1073  -14.6768 C   0  0  0  0  0  0  0  0  0  0  0  0
   21.3505   -5.8892  -14.4945 O   0  0  0  0  0  0  0  0  0  0  0  0
   19.1098   -7.0218  -17.7309 O   0  0  0  0  0  0  0  0  0  0  0  0
   22.4329   -7.6657  -13.6437 O   0  0  0  0  0  0  0  0  0  0  0  0
  2  1  1  1
  3  2  1  0
  4  3  1  0
  5  4  1  0
  5  6  1  0
  6  7  1  0
  8 10  1  0
  8  2  1  0
  9  8  2  0
 11 10  1  0
 11 12  1  6
 12 13  1  0
 13 14  1  0
 14 18  1  0
 15 14  2  0
 16 17  2  0
 16 11  1  0
 19 16  1  0
 20 21  1  1
 20 19  1  0
 22 21  1  0
 22 23  2  0
 24 20  1  0
 25 24  1  0
 26 22  1  0
 27 24  2  0
M  END
$$$$
