KED.pdb
     RDKit          3D

 27 26  0  0  1  0  0  0  0  0999 V2000
   19.1325  -11.8114  -16.6325 N   0  0  0  0  0  0  0  0  0  0  0  0
   18.4608  -10.9291  -15.6999 C   0  0  1  0  0  0  0  0  0  0  0  0
   18.0961  -11.6028  -14.4184 C   0  0  0  0  0  0  0  0  0  0  0  0
   17.2912  -12.8434  -14.6920 C   0  0  0  0  0  0  0  0  0  0  0  0
   15.9812  -12.4303  -15.3696 C   0  0  0  0  0  0  0  0  0  0  0  0
   15.1271  -13.6318  -15.6962 C   0  0  0  0  0  0  0  0  0  0  0  0
   13.9151  -13.2734  -16.3960 N   0  0  0  0  0  0  0  0  0  0  0  0
   19.3567   -9.7686  -15.3443 C   0  0  0  0  0  0  0  0  0  0  0  0
   19.2018   -9.1137  -14.2883 O   0  0  0  0  0  0  0  0  0  0  0  0
   20.4090   -9.3788  -16.1975 N   0  0  0  0  0  0  0  0  0  0  0  0
   21.2737   -8.1907  -15.8680 C   0  0  1  0  0  0  0  0  0  0  0  0
   22.6386   -8.5443  -16.2533 C   0  0  0  0  0  0  0  0  0  0  0  0
   23.7112   -7.5298  -16.1851 C   0  0  0  0  0  0  0  0  0  0  0  0
   25.0725   -7.9905  -16.4837 C   0  0  0  0  0  0  0  0  0  0  0  0
   26.0424   -7.6893  -15.7895 O   0  0  0  0  0  0  0  0  0  0  0  0
   20.5619   -7.0442  -16.3072 C   0  0  0  0  0  0  0  0  0  0  0  0
   19.7628   -7.1280  -17.3072 O   0  0  0  0  0  0  0  0  0  0  0  0
   25.2516   -8.8018  -17.6052 O   0  0  0  0  0  0  0  0  0  0  0  0
   20.6314   -5.7561  -15.7270 N   0  0  0  0  0  0  0  0  0  0  0  0
   19.6791   -4.7050  -16.0639 C   0  0  1  0  0  0  0  0  0  0  0  0
   18.2634   -5.1846  -15.7805 C   0  0  0  0  0  0  0  0  0  0  0  0
   17.2781   -4.1179  -15.9838 C   0  0  0  0  0  0  0  0  0  0  0  0
   17.2665   -3.4690  -17.0406 O   0  0  0  0  0  0  0  0  0  0  0  0
   19.9913   -3.4558  -15.3690 C   0  0  0  0  0  0  0  0  0  0  0  0
   19.7953   -2.2018  -15.9636 O   0  0  0  0  0  0  0  0  0  0  0  0
   16.3444   -3.8210  -14.9971 O   0  0  0  0  0  0  0  0  0  0  0  0
   20.4486   -3.4480  -14.2112 O   0  0  0  0  0  0  0  0  0  0  0  0
  2  1  1  6
  3  2  1  0
  4  3  1  0
  5  4  1  0
  5  6  1  0
  6  7  1  0
  8 10  1  0
  8  2  1  0
  9  8  2  0
 11 10  1  0
 11 12  1  6
 12 13  1  0
 13 14  1  0
 14 18  1  0
 15 14  2  0
 16 17  2  0
 16 11  1  0
 19 16  1  0
 20 21  1  1
 20 19  1  0
 22 21  1  0
 22 23  2  0
 24 20  1  0
 25 24  1  0
 26 22  1  0
 27 24  2  0
M  END
$$$$
