KED.pdb
     RDKit          3D

 27 26  0  0  1  0  0  0  0  0999 V2000
   31.3072  -25.1101  -15.8693 N   0  0  0  0  0  0  0  0  0  0  0  0
   30.5962  -24.6165  -17.0313 C   0  0  1  0  0  0  0  0  0  0  0  0
   29.8754  -25.6920  -17.7749 C   0  0  0  0  0  0  0  0  0  0  0  0
   28.9371  -26.4234  -16.8548 C   0  0  0  0  0  0  0  0  0  0  0  0
   28.9302  -27.9037  -17.2480 C   0  0  0  0  0  0  0  0  0  0  0  0
   27.8165  -28.6524  -16.5561 C   0  0  0  0  0  0  0  0  0  0  0  0
   27.7646  -30.0439  -16.9411 N   0  0  0  0  0  0  0  0  0  0  0  0
   29.5597  -23.6025  -16.6151 C   0  0  0  0  0  0  0  0  0  0  0  0
   29.1596  -23.5142  -15.4318 O   0  0  0  0  0  0  0  0  0  0  0  0
   29.0014  -22.7113  -17.5538 N   0  0  0  0  0  0  0  0  0  0  0  0
   28.1236  -21.5702  -17.1116 C   0  0  1  0  0  0  0  0  0  0  0  0
   28.5498  -20.3944  -17.8681 C   0  0  0  0  0  0  0  0  0  0  0  0
   27.8884  -19.0921  -17.6426 C   0  0  0  0  0  0  0  0  0  0  0  0
   28.3521  -17.9677  -18.4645 C   0  0  0  0  0  0  0  0  0  0  0  0
   29.5173  -17.8589  -18.8436 O   0  0  0  0  0  0  0  0  0  0  0  0
   26.8011  -22.0819  -17.0554 C   0  0  0  0  0  0  0  0  0  0  0  0
   26.5896  -23.3360  -17.2227 O   0  0  0  0  0  0  0  0  0  0  0  0
   27.4171  -16.9937  -18.8184 O   0  0  0  0  0  0  0  0  0  0  0  0
   25.6318  -21.3243  -16.8113 N   0  0  0  0  0  0  0  0  0  0  0  0
   24.3092  -21.9362  -16.7735 C   0  0  1  0  0  0  0  0  0  0  0  0
   23.8339  -22.0430  -15.3323 C   0  0  0  0  0  0  0  0  0  0  0  0
   22.4790  -22.5972  -15.2474 C   0  0  0  0  0  0  0  0  0  0  0  0
   21.8960  -22.9862  -16.2706 O   0  0  0  0  0  0  0  0  0  0  0  0
   23.3592  -21.2124  -17.6188 C   0  0  0  0  0  0  0  0  0  0  0  0
   23.3443  -19.8129  -17.6958 O   0  0  0  0  0  0  0  0  0  0  0  0
   21.8314  -22.6957  -14.0208 O   0  0  0  0  0  0  0  0  0  0  0  0
   22.5148  -21.8086  -18.3125 O   0  0  0  0  0  0  0  0  0  0  0  0
  2  1  1  1
  3  2  1  0
  4  3  1  0
  5  4  1  0
  5  6  1  0
  6  7  1  0
  8 10  1  0
  8  2  1  0
  9  8  2  0
 11 10  1  0
 11 12  1  6
 12 13  1  0
 13 14  1  0
 14 18  1  0
 15 14  2  0
 16 17  2  0
 16 11  1  0
 19 16  1  0
 20 21  1  1
 20 19  1  0
 22 21  1  0
 22 23  2  0
 24 20  1  0
 25 24  1  0
 26 22  1  0
 27 24  2  0
M  END
$$$$
