KED.pdb
     RDKit          3D

 27 26  0  0  1  0  0  0  0  0999 V2000
   12.9292   -9.3652   -9.3163 N   0  0  0  0  0  0  0  0  0  0  0  0
   14.3726   -9.2820   -9.2204 C   0  0  1  0  0  0  0  0  0  0  0  0
   15.0721  -10.3313  -10.0195 C   0  0  0  0  0  0  0  0  0  0  0  0
   14.2994  -10.6332  -11.2741 C   0  0  0  0  0  0  0  0  0  0  0  0
   15.0454  -11.7218  -12.0514 C   0  0  0  0  0  0  0  0  0  0  0  0
   14.3527  -12.0413  -13.3544 C   0  0  0  0  0  0  0  0  0  0  0  0
   15.0070  -13.1047  -14.0810 N   0  0  0  0  0  0  0  0  0  0  0  0
   14.8522   -7.9477   -9.7356 C   0  0  0  0  0  0  0  0  0  0  0  0
   14.3888   -7.4379  -10.7812 O   0  0  0  0  0  0  0  0  0  0  0  0
   15.8480   -7.2228   -9.0501 N   0  0  0  0  0  0  0  0  0  0  0  0
   16.2765   -5.8585   -9.5225 C   0  0  1  0  0  0  0  0  0  0  0  0
   15.9173   -4.9155   -8.4651 C   0  0  0  0  0  0  0  0  0  0  0  0
   14.4986   -4.5726   -8.2325 C   0  0  0  0  0  0  0  0  0  0  0  0
   14.2255   -3.5701   -7.1956 C   0  0  0  0  0  0  0  0  0  0  0  0
   15.1194   -3.0041   -6.5679 O   0  0  0  0  0  0  0  0  0  0  0  0
   17.5705   -6.0178  -10.0830 C   0  0  0  0  0  0  0  0  0  0  0  0
   18.4512   -6.7258   -9.4758 O   0  0  0  0  0  0  0  0  0  0  0  0
   12.8912   -3.2617   -6.9267 O   0  0  0  0  0  0  0  0  0  0  0  0
   18.0153   -5.4629  -11.3057 N   0  0  0  0  0  0  0  0  0  0  0  0
   19.3155   -5.7934  -11.8760 C   0  0  1  0  0  0  0  0  0  0  0  0
   19.4912   -7.3041  -11.9127 C   0  0  0  0  0  0  0  0  0  0  0  0
   20.7421   -7.6892  -12.5739 C   0  0  0  0  0  0  0  0  0  0  0  0
   21.7755   -7.0277  -12.3931 O   0  0  0  0  0  0  0  0  0  0  0  0
   19.4943   -5.1820  -13.1933 C   0  0  0  0  0  0  0  0  0  0  0  0
   18.4570   -4.5044  -13.8486 O   0  0  0  0  0  0  0  0  0  0  0  0
   20.7869   -8.7997  -13.4093 O   0  0  0  0  0  0  0  0  0  0  0  0
   20.5815   -5.2358  -13.7973 O   0  0  0  0  0  0  0  0  0  0  0  0
  2  1  1  6
  3  2  1  0
  4  3  1  0
  5  4  1  0
  5  6  1  0
  6  7  1  0
  8 10  1  0
  8  2  1  0
  9  8  2  0
 11 10  1  0
 11 12  1  1
 12 13  1  0
 13 14  1  0
 14 18  1  0
 15 14  2  0
 16 17  2  0
 16 11  1  0
 19 16  1  0
 20 21  1  6
 20 19  1  0
 22 21  1  0
 22 23  2  0
 24 20  1  0
 25 24  1  0
 26 22  1  0
 27 24  2  0
M  END
$$$$
