KED.pdb
     RDKit          3D

 27 26  0  0  1  0  0  0  0  0999 V2000
   16.4886  -10.3024  -16.8931 N   0  0  0  0  0  0  0  0  0  0  0  0
   16.3288   -9.6874  -15.5909 C   0  0  1  0  0  0  0  0  0  0  0  0
   15.8111  -10.6333  -14.5583 C   0  0  0  0  0  0  0  0  0  0  0  0
   14.4402  -11.1214  -14.9383 C   0  0  0  0  0  0  0  0  0  0  0  0
   13.4059  -10.1348  -14.3880 C   0  0  0  0  0  0  0  0  0  0  0  0
   11.9995  -10.5596  -14.7363 C   0  0  0  0  0  0  0  0  0  0  0  0
   11.0051   -9.6386  -14.2365 N   0  0  0  0  0  0  0  0  0  0  0  0
   17.6571   -9.1771  -15.0899 C   0  0  0  0  0  0  0  0  0  0  0  0
   17.8211   -8.8174  -13.9018 O   0  0  0  0  0  0  0  0  0  0  0  0
   18.7693   -9.0876  -15.9513 N   0  0  0  0  0  0  0  0  0  0  0  0
   20.1240   -8.6884  -15.4282 C   0  0  1  0  0  0  0  0  0  0  0  0
   21.0925   -9.6052  -16.0264 C   0  0  0  0  0  0  0  0  0  0  0  0
   22.5375   -9.4160  -15.7803 C   0  0  0  0  0  0  0  0  0  0  0  0
   23.4390  -10.4277  -16.3447 C   0  0  0  0  0  0  0  0  0  0  0  0
   24.6480  -10.2409  -16.4746 O   0  0  0  0  0  0  0  0  0  0  0  0
   20.1767   -7.2718  -15.4950 C   0  0  0  0  0  0  0  0  0  0  0  0
   19.4678   -6.6423  -16.3591 O   0  0  0  0  0  0  0  0  0  0  0  0
   22.8814  -11.6433  -16.7438 O   0  0  0  0  0  0  0  0  0  0  0  0
   20.9560   -6.4339  -14.6635 N   0  0  0  0  0  0  0  0  0  0  0  0
   20.9124   -4.9809  -14.7733 C   0  0  1  0  0  0  0  0  0  0  0  0
   19.4828   -4.4946  -14.5882 C   0  0  0  0  0  0  0  0  0  0  0  0
   19.4102   -3.0311  -14.5333 C   0  0  0  0  0  0  0  0  0  0  0  0
   20.3633   -2.3415  -14.9260 O   0  0  0  0  0  0  0  0  0  0  0  0
   21.8404   -4.3445  -13.8380 C   0  0  0  0  0  0  0  0  0  0  0  0
   22.6430   -5.0872  -12.9612 O   0  0  0  0  0  0  0  0  0  0  0  0
   18.2735   -2.3979  -14.0429 O   0  0  0  0  0  0  0  0  0  0  0  0
   21.9607   -3.1069  -13.7761 O   0  0  0  0  0  0  0  0  0  0  0  0
  2  1  1  6
  3  2  1  0
  4  3  1  0
  5  4  1  0
  5  6  1  0
  6  7  1  0
  8 10  1  0
  8  2  1  0
  9  8  2  0
 11 10  1  0
 11 12  1  6
 12 13  1  0
 13 14  1  0
 14 18  1  0
 15 14  2  0
 16 17  2  0
 16 11  1  0
 19 16  1  0
 20 21  1  1
 20 19  1  0
 22 21  1  0
 22 23  2  0
 24 20  1  0
 25 24  1  0
 26 22  1  0
 27 24  2  0
M  END
$$$$
