KED.pdb
     RDKit          3D

 27 26  0  0  1  0  0  0  0  0999 V2000
   24.7944  -19.2231  -18.1120 N   0  0  0  0  0  0  0  0  0  0  0  0
   24.6195  -18.0884  -17.2281 C   0  0  1  0  0  0  0  0  0  0  0  0
   25.1790  -16.8219  -17.7866 C   0  0  0  0  0  0  0  0  0  0  0  0
   26.6809  -16.8356  -17.7074 C   0  0  0  0  0  0  0  0  0  0  0  0
   27.1954  -18.0473  -18.4902 C   0  0  0  0  0  0  0  0  0  0  0  0
   28.7022  -18.0412  -18.5874 C   0  0  0  0  0  0  0  0  0  0  0  0
   29.2079  -19.1317  -19.3886 N   0  0  0  0  0  0  0  0  0  0  0  0
   23.1518  -17.8452  -16.9779 C   0  0  0  0  0  0  0  0  0  0  0  0
   22.2830  -18.1004  -17.8428 O   0  0  0  0  0  0  0  0  0  0  0  0
   22.7049  -17.3174  -15.7496 N   0  0  0  0  0  0  0  0  0  0  0  0
   21.2402  -17.0727  -15.4987 C   0  0  1  0  0  0  0  0  0  0  0  0
   20.8662  -17.8994  -14.3528 C   0  0  0  0  0  0  0  0  0  0  0  0
   19.5058  -17.8000  -13.7837 C   0  0  0  0  0  0  0  0  0  0  0  0
   19.1935  -18.6976  -12.6650 C   0  0  0  0  0  0  0  0  0  0  0  0
   18.8078  -18.2862  -11.5717 O   0  0  0  0  0  0  0  0  0  0  0  0
   21.0452  -15.6710  -15.6052 C   0  0  0  0  0  0  0  0  0  0  0  0
   21.9188  -14.8625  -15.1271 O   0  0  0  0  0  0  0  0  0  0  0  0
   19.3474  -20.0694  -12.8713 O   0  0  0  0  0  0  0  0  0  0  0  0
   19.9428  -15.0348  -16.2222 N   0  0  0  0  0  0  0  0  0  0  0  0
   19.7607  -13.5892  -16.1763 C   0  0  1  0  0  0  0  0  0  0  0  0
   19.9358  -13.0050  -17.5701 C   0  0  0  0  0  0  0  0  0  0  0  0
   19.7436  -11.5514  -17.5773 C   0  0  0  0  0  0  0  0  0  0  0  0
   19.4433  -10.9540  -16.5328 O   0  0  0  0  0  0  0  0  0  0  0  0
   18.4730  -13.2296  -15.5818 C   0  0  0  0  0  0  0  0  0  0  0  0
   18.3175  -12.1027  -14.7629 O   0  0  0  0  0  0  0  0  0  0  0  0
   19.8969  -10.8242  -18.7526 O   0  0  0  0  0  0  0  0  0  0  0  0
   17.4497  -13.9116  -15.7758 O   0  0  0  0  0  0  0  0  0  0  0  0
  2  1  1  6
  3  2  1  0
  4  3  1  0
  5  4  1  0
  5  6  1  0
  6  7  1  0
  8 10  1  0
  8  2  1  0
  9  8  2  0
 11 10  1  0
 11 12  1  1
 12 13  1  0
 13 14  1  0
 14 18  1  0
 15 14  2  0
 16 17  2  0
 16 11  1  0
 19 16  1  0
 20 21  1  6
 20 19  1  0
 22 21  1  0
 22 23  2  0
 24 20  1  0
 25 24  1  0
 26 22  1  0
 27 24  2  0
M  END
$$$$
