KED.pdb
     RDKit          3D

 27 26  0  0  1  0  0  0  0  0999 V2000
   16.3698  -11.8970  -14.2671 N   0  0  0  0  0  0  0  0  0  0  0  0
   17.6468  -11.2723  -14.5469 C   0  0  1  0  0  0  0  0  0  0  0  0
   18.0308  -11.3488  -15.9877 C   0  0  0  0  0  0  0  0  0  0  0  0
   17.7439  -12.7212  -16.5318 C   0  0  0  0  0  0  0  0  0  0  0  0
   16.5908  -12.6128  -17.5341 C   0  0  0  0  0  0  0  0  0  0  0  0
   16.2773  -13.9506  -18.1601 C   0  0  0  0  0  0  0  0  0  0  0  0
   15.1457  -13.8890  -19.0559 N   0  0  0  0  0  0  0  0  0  0  0  0
   17.6007   -9.8088  -14.1838 C   0  0  0  0  0  0  0  0  0  0  0  0
   16.5985   -9.0988  -14.4275 O   0  0  0  0  0  0  0  0  0  0  0  0
   18.6954   -9.1854  -13.5512 N   0  0  0  0  0  0  0  0  0  0  0  0
   18.6418   -7.7304  -13.1662 C   0  0  1  0  0  0  0  0  0  0  0  0
   18.1869   -7.6794  -11.7780 C   0  0  0  0  0  0  0  0  0  0  0  0
   18.2013   -6.3971  -11.0432 C   0  0  0  0  0  0  0  0  0  0  0  0
   17.7861   -6.4406   -9.6360 C   0  0  0  0  0  0  0  0  0  0  0  0
   18.2708   -5.7042   -8.7779 O   0  0  0  0  0  0  0  0  0  0  0  0
   19.8306   -7.1400  -13.6684 C   0  0  0  0  0  0  0  0  0  0  0  0
   20.9197   -7.8167  -13.7020 O   0  0  0  0  0  0  0  0  0  0  0  0
   16.8006   -7.3620   -9.2784 O   0  0  0  0  0  0  0  0  0  0  0  0
   19.9502   -5.8237  -14.1724 N   0  0  0  0  0  0  0  0  0  0  0  0
   21.2276   -5.2805  -14.6176 C   0  0  1  0  0  0  0  0  0  0  0  0
   20.9919   -4.2256  -15.6881 C   0  0  0  0  0  0  0  0  0  0  0  0
   20.4964   -4.8184  -16.9344 C   0  0  0  0  0  0  0  0  0  0  0  0
   20.8840   -5.9410  -17.2915 O   0  0  0  0  0  0  0  0  0  0  0  0
   22.0119   -4.7659  -13.4947 C   0  0  0  0  0  0  0  0  0  0  0  0
   23.3460   -4.3610  -13.6394 O   0  0  0  0  0  0  0  0  0  0  0  0
   19.5859   -4.1320  -17.7302 O   0  0  0  0  0  0  0  0  0  0  0  0
   21.5289   -4.6634  -12.3519 O   0  0  0  0  0  0  0  0  0  0  0  0
  2  1  1  6
  3  2  1  0
  4  3  1  0
  5  4  1  0
  5  6  1  0
  6  7  1  0
  8 10  1  0
  8  2  1  0
  9  8  2  0
 11 10  1  0
 11 12  1  1
 12 13  1  0
 13 14  1  0
 14 18  1  0
 15 14  2  0
 16 17  2  0
 16 11  1  0
 19 16  1  0
 20 21  1  6
 20 19  1  0
 22 21  1  0
 22 23  2  0
 24 20  1  0
 25 24  1  0
 26 22  1  0
 27 24  2  0
M  END
$$$$
