KED.pdb
     RDKit          3D

 27 26  0  0  1  0  0  0  0  0999 V2000
   26.8220  -19.8927  -15.4223 N   0  0  0  0  0  0  0  0  0  0  0  0
   26.2346  -19.2814  -16.5973 C   0  0  1  0  0  0  0  0  0  0  0  0
   26.6871  -19.9133  -17.8720 C   0  0  0  0  0  0  0  0  0  0  0  0
   28.1452  -20.2724  -17.7873 C   0  0  0  0  0  0  0  0  0  0  0  0
   28.2593  -21.7191  -17.2975 C   0  0  0  0  0  0  0  0  0  0  0  0
   29.7001  -22.1647  -17.2264 C   0  0  0  0  0  0  0  0  0  0  0  0
   29.8492  -23.4498  -16.5837 N   0  0  0  0  0  0  0  0  0  0  0  0
   24.7321  -19.4101  -16.5547 C   0  0  0  0  0  0  0  0  0  0  0  0
   24.0368  -19.3826  -17.5957 O   0  0  0  0  0  0  0  0  0  0  0  0
   24.0538  -19.5676  -15.3290 N   0  0  0  0  0  0  0  0  0  0  0  0
   22.5510  -19.6527  -15.2808 C   0  0  1  0  0  0  0  0  0  0  0  0
   22.2179  -20.6177  -14.2347 C   0  0  0  0  0  0  0  0  0  0  0  0
   20.8152  -20.7772  -13.7971 C   0  0  0  0  0  0  0  0  0  0  0  0
   20.5544  -21.8109  -12.7881 C   0  0  0  0  0  0  0  0  0  0  0  0
   21.4426  -22.5247  -12.3243 O   0  0  0  0  0  0  0  0  0  0  0  0
   22.0726  -18.3188  -15.3571 C   0  0  0  0  0  0  0  0  0  0  0  0
   22.6574  -17.3875  -14.6968 O   0  0  0  0  0  0  0  0  0  0  0  0
   19.2389  -21.9740  -12.3513 O   0  0  0  0  0  0  0  0  0  0  0  0
   20.9725  -17.8786  -16.1297 N   0  0  0  0  0  0  0  0  0  0  0  0
   20.5177  -16.4937  -16.1069 C   0  0  1  0  0  0  0  0  0  0  0  0
   21.4275  -15.6400  -16.9775 C   0  0  0  0  0  0  0  0  0  0  0  0
   20.9625  -14.2513  -17.0499 C   0  0  0  0  0  0  0  0  0  0  0  0
   19.9843  -13.8826  -16.3826 O   0  0  0  0  0  0  0  0  0  0  0  0
   19.1123  -16.3844  -16.4989 C   0  0  0  0  0  0  0  0  0  0  0  0
   18.1445  -15.8185  -15.6576 O   0  0  0  0  0  0  0  0  0  0  0  0
   21.6117  -13.3304  -17.8648 O   0  0  0  0  0  0  0  0  0  0  0  0
   18.7078  -16.7916  -17.6036 O   0  0  0  0  0  0  0  0  0  0  0  0
  2  1  1  1
  3  2  1  0
  4  3  1  0
  5  4  1  0
  5  6  1  0
  6  7  1  0
  8 10  1  0
  8  2  1  0
  9  8  2  0
 11 10  1  0
 11 12  1  1
 12 13  1  0
 13 14  1  0
 14 18  1  0
 15 14  2  0
 16 17  2  0
 16 11  1  0
 19 16  1  0
 20 21  1  6
 20 19  1  0
 22 21  1  0
 22 23  2  0
 24 20  1  0
 25 24  1  0
 26 22  1  0
 27 24  2  0
M  END
$$$$
