KED.pdb
     RDKit          3D

 27 26  0  0  1  0  0  0  0  0999 V2000
   20.1357  -13.8506  -16.2965 N   0  0  0  0  0  0  0  0  0  0  0  0
   19.0288  -12.9583  -16.5756 C   0  0  1  0  0  0  0  0  0  0  0  0
   17.7147  -13.4964  -16.1145 C   0  0  0  0  0  0  0  0  0  0  0  0
   17.3823  -14.7641  -16.8523 C   0  0  0  0  0  0  0  0  0  0  0  0
   16.0635  -15.3135  -16.3000 C   0  0  0  0  0  0  0  0  0  0  0  0
   15.6186  -16.5421  -17.0564 C   0  0  0  0  0  0  0  0  0  0  0  0
   14.4901  -17.1948  -16.4341 N   0  0  0  0  0  0  0  0  0  0  0  0
   19.2330  -11.6400  -15.8712 C   0  0  0  0  0  0  0  0  0  0  0  0
   18.8529  -11.4548  -14.6926 O   0  0  0  0  0  0  0  0  0  0  0  0
   19.8651  -10.5616  -16.5229 N   0  0  0  0  0  0  0  0  0  0  0  0
   20.2349   -9.3109  -15.7700 C   0  0  1  0  0  0  0  0  0  0  0  0
   21.6656   -9.0998  -15.9823 C   0  0  0  0  0  0  0  0  0  0  0  0
   22.2967   -7.8342  -15.5531 C   0  0  0  0  0  0  0  0  0  0  0  0
   23.7594   -7.7615  -15.6529 C   0  0  0  0  0  0  0  0  0  0  0  0
   24.4486   -8.7164  -16.0087 O   0  0  0  0  0  0  0  0  0  0  0  0
   19.2114   -8.3653  -16.0387 C   0  0  0  0  0  0  0  0  0  0  0  0
   18.7257   -8.2626  -17.2215 O   0  0  0  0  0  0  0  0  0  0  0  0
   24.3727   -6.5512  -15.3261 O   0  0  0  0  0  0  0  0  0  0  0  0
   18.6300   -7.4865  -15.0950 N   0  0  0  0  0  0  0  0  0  0  0  0
   17.6720   -6.4590  -15.4847 C   0  0  1  0  0  0  0  0  0  0  0  0
   16.6931   -6.2116  -14.3467 C   0  0  0  0  0  0  0  0  0  0  0  0
   15.7352   -5.1513  -14.6758 C   0  0  0  0  0  0  0  0  0  0  0  0
   14.9447   -5.2925  -15.6209 O   0  0  0  0  0  0  0  0  0  0  0  0
   18.3456   -5.2329  -15.9135 C   0  0  0  0  0  0  0  0  0  0  0  0
   17.7239   -4.2915  -16.7453 O   0  0  0  0  0  0  0  0  0  0  0  0
   15.6990   -3.9763  -13.9332 O   0  0  0  0  0  0  0  0  0  0  0  0
   19.5088   -4.9672  -15.5584 O   0  0  0  0  0  0  0  0  0  0  0  0
  2  1  1  1
  3  2  1  0
  4  3  1  0
  5  4  1  0
  5  6  1  0
  6  7  1  0
  8 10  1  0
  8  2  1  0
  9  8  2  0
 11 10  1  0
 11 12  1  6
 12 13  1  0
 13 14  1  0
 14 18  1  0
 15 14  2  0
 16 17  2  0
 16 11  1  0
 19 16  1  0
 20 21  1  1
 20 19  1  0
 22 21  1  0
 22 23  2  0
 24 20  1  0
 25 24  1  0
 26 22  1  0
 27 24  2  0
M  END
$$$$
