KED.pdb
     RDKit          3D

 27 26  0  0  1  0  0  0  0  0999 V2000
   19.1451  -26.6939  -11.2445 N   0  0  0  0  0  0  0  0  0  0  0  0
   20.1067  -26.0442  -12.1121 C   0  0  1  0  0  0  0  0  0  0  0  0
   20.1176  -26.6058  -13.4954 C   0  0  0  0  0  0  0  0  0  0  0  0
   18.8436  -27.3591  -13.7625 C   0  0  0  0  0  0  0  0  0  0  0  0
   18.8797  -27.8743  -15.2045 C   0  0  0  0  0  0  0  0  0  0  0  0
   17.5831  -28.5503  -15.5807 C   0  0  0  0  0  0  0  0  0  0  0  0
   17.5620  -28.9738  -16.9617 N   0  0  0  0  0  0  0  0  0  0  0  0
   19.7844  -24.5759  -12.2387 C   0  0  0  0  0  0  0  0  0  0  0  0
   18.8939  -24.0328  -11.5459 O   0  0  0  0  0  0  0  0  0  0  0  0
   20.4822  -23.7579  -13.1503 N   0  0  0  0  0  0  0  0  0  0  0  0
   20.2872  -22.2646  -13.1574 C   0  0  1  0  0  0  0  0  0  0  0  0
   21.5046  -21.6843  -13.7209 C   0  0  0  0  0  0  0  0  0  0  0  0
   21.5851  -20.2283  -13.9621 C   0  0  0  0  0  0  0  0  0  0  0  0
   22.7910  -19.7398  -14.6416 C   0  0  0  0  0  0  0  0  0  0  0  0
   23.9236  -20.1005  -14.3246 O   0  0  0  0  0  0  0  0  0  0  0  0
   18.9681  -22.0361  -13.6284 C   0  0  0  0  0  0  0  0  0  0  0  0
   18.4828  -22.7701  -14.5618 O   0  0  0  0  0  0  0  0  0  0  0  0
   22.6234  -18.8297  -15.6864 O   0  0  0  0  0  0  0  0  0  0  0  0
   18.0800  -21.0447  -13.1497 N   0  0  0  0  0  0  0  0  0  0  0  0
   16.7851  -20.8017  -13.7736 C   0  0  1  0  0  0  0  0  0  0  0  0
   15.8980  -20.0105  -12.8242 C   0  0  0  0  0  0  0  0  0  0  0  0
   14.5881  -19.7237  -13.4175 C   0  0  0  0  0  0  0  0  0  0  0  0
   14.3578  -18.6136  -13.9204 O   0  0  0  0  0  0  0  0  0  0  0  0
   16.9310  -20.1454  -15.0732 C   0  0  0  0  0  0  0  0  0  0  0  0
   16.0828  -20.4297  -16.1523 O   0  0  0  0  0  0  0  0  0  0  0  0
   13.5892  -20.6908  -13.4260 O   0  0  0  0  0  0  0  0  0  0  0  0
   17.8202  -19.2998  -15.2829 O   0  0  0  0  0  0  0  0  0  0  0  0
  2  1  1  1
  3  2  1  0
  4  3  1  0
  5  4  1  0
  5  6  1  0
  6  7  1  0
  8 10  1  0
  8  2  1  0
  9  8  2  0
 11 10  1  0
 11 12  1  6
 12 13  1  0
 13 14  1  0
 14 18  1  0
 15 14  2  0
 16 17  2  0
 16 11  1  0
 19 16  1  0
 20 21  1  1
 20 19  1  0
 22 21  1  0
 22 23  2  0
 24 20  1  0
 25 24  1  0
 26 22  1  0
 27 24  2  0
M  END
$$$$
