KED.pdb
     RDKit          3D

 27 26  0  0  1  0  0  0  0  0999 V2000
   16.8920  -10.9502  -16.7514 N   0  0  0  0  0  0  0  0  0  0  0  0
   16.1250  -10.4627  -15.6228 C   0  0  1  0  0  0  0  0  0  0  0  0
   15.8762  -11.5113  -14.5897 C   0  0  0  0  0  0  0  0  0  0  0  0
   15.2511  -12.7259  -15.2191 C   0  0  0  0  0  0  0  0  0  0  0  0
   13.7284  -12.5726  -15.1581 C   0  0  0  0  0  0  0  0  0  0  0  0
   13.0294  -13.7875  -15.7195 C   0  0  0  0  0  0  0  0  0  0  0  0
   13.5326  -15.0210  -15.1609 N   0  0  0  0  0  0  0  0  0  0  0  0
   16.8641   -9.3402  -14.9375 C   0  0  0  0  0  0  0  0  0  0  0  0
   16.4777   -8.8645  -13.8456 O   0  0  0  0  0  0  0  0  0  0  0  0
   18.0263   -8.7839  -15.5093 N   0  0  0  0  0  0  0  0  0  0  0  0
   18.7871   -7.6897  -14.8078 C   0  0  1  0  0  0  0  0  0  0  0  0
   20.1391   -8.1966  -14.5807 C   0  0  0  0  0  0  0  0  0  0  0  0
   21.1017   -8.2590  -15.7005 C   0  0  0  0  0  0  0  0  0  0  0  0
   22.4413   -8.7719  -15.3886 C   0  0  0  0  0  0  0  0  0  0  0  0
   23.3021   -8.9467  -16.2499 O   0  0  0  0  0  0  0  0  0  0  0  0
   18.4589   -6.4822  -15.4774 C   0  0  0  0  0  0  0  0  0  0  0  0
   18.2541   -6.4848  -16.7437 O   0  0  0  0  0  0  0  0  0  0  0  0
   22.7289   -9.0670  -14.0551 O   0  0  0  0  0  0  0  0  0  0  0  0
   18.3142   -5.2133  -14.8693 N   0  0  0  0  0  0  0  0  0  0  0  0
   18.0530   -4.0091  -15.6483 C   0  0  1  0  0  0  0  0  0  0  0  0
   16.7358   -3.3883  -15.2078 C   0  0  0  0  0  0  0  0  0  0  0  0
   16.4367   -2.1627  -15.9552 C   0  0  0  0  0  0  0  0  0  0  0  0
   17.0520   -1.8999  -16.9995 O   0  0  0  0  0  0  0  0  0  0  0  0
   19.1671   -3.0642  -15.5646 C   0  0  0  0  0  0  0  0  0  0  0  0
   19.5350   -2.2466  -16.6420 O   0  0  0  0  0  0  0  0  0  0  0  0
   15.4601   -1.2812  -15.5051 O   0  0  0  0  0  0  0  0  0  0  0  0
   19.8445   -2.9420  -14.5273 O   0  0  0  0  0  0  0  0  0  0  0  0
  2  1  1  6
  3  2  1  0
  4  3  1  0
  5  4  1  0
  5  6  1  0
  6  7  1  0
  8 10  1  0
  8  2  1  0
  9  8  2  0
 11 10  1  0
 11 12  1  6
 12 13  1  0
 13 14  1  0
 14 18  1  0
 15 14  2  0
 16 17  2  0
 16 11  1  0
 19 16  1  0
 20 21  1  1
 20 19  1  0
 22 21  1  0
 22 23  2  0
 24 20  1  0
 25 24  1  0
 26 22  1  0
 27 24  2  0
M  END
$$$$
