YTR.pdb
     RDKit          3D

 31 31  0  0  1  0  0  0  0  0999 V2000
   21.2329  -21.4611  -12.9520 O   0  0  0  0  0  0  0  0  0  0  0  0
   21.2438  -20.4561  -13.9320 C   0  0  0  0  0  0  0  0  0  0  0  0
   20.1950  -20.3613  -14.7959 C   0  0  0  0  0  0  0  0  0  0  0  0
   20.1599  -19.3880  -15.7787 C   0  0  0  0  0  0  0  0  0  0  0  0
   21.1933  -18.4909  -15.9014 C   0  0  0  0  0  0  0  0  0  0  0  0
   21.1520  -17.4644  -16.9393 C   0  0  0  0  0  0  0  0  0  0  0  0
   20.6884  -16.1049  -16.4557 C   0  0  2  0  0  0  0  0  0  0  0  0
   19.3849  -16.2631  -15.7789 N   0  0  0  0  0  0  0  0  0  0  0  0
   20.5174  -15.1088  -17.5073 C   0  0  0  0  0  0  0  0  0  0  0  0
   21.4873  -14.8130  -18.2823 O   0  0  0  0  0  0  0  0  0  0  0  0
   22.2498  -18.5946  -15.0230 C   0  0  0  0  0  0  0  0  0  0  0  0
   22.2854  -19.5677  -14.0401 C   0  0  0  0  0  0  0  0  0  0  0  0
   18.2732  -15.2542  -20.3451 C   0  0  0  0  0  0  0  0  0  0  0  0
   18.0005  -13.9342  -19.6795 C   0  0  1  0  0  0  0  0  0  0  0  0
   17.0220  -14.2006  -18.6920 O   0  0  0  0  0  0  0  0  0  0  0  0
   19.2088  -13.4248  -18.8753 C   0  0  2  0  0  0  0  0  0  0  0  0
   19.3195  -14.3905  -17.7832 N   0  0  0  0  0  0  0  0  0  0  0  0
   18.9689  -12.0986  -18.3053 C   0  0  0  0  0  0  0  0  0  0  0  0
   18.7001  -12.0289  -17.0540 O   0  0  0  0  0  0  0  0  0  0  0  0
   20.1216   -3.8055  -21.2705 N   0  0  0  0  0  0  0  0  0  0  0  0
   19.3451   -3.6191  -20.0968 C   0  0  0  0  0  0  0  0  0  0  0  0
   19.0362   -2.4390  -19.7290 N   0  0  0  0  0  0  0  0  0  0  0  0
   18.9208   -4.7660  -19.3424 N   0  0  0  0  0  0  0  0  0  0  0  0
   19.2561   -6.0930  -19.8046 C   0  0  0  0  0  0  0  0  0  0  0  0
   18.6931   -7.1584  -18.8856 C   0  0  0  0  0  0  0  0  0  0  0  0
   19.0557   -8.5219  -19.3649 C   0  0  0  0  0  0  0  0  0  0  0  0
   18.6863   -9.6253  -18.4129 C   0  0  2  0  0  0  0  0  0  0  0  0
   19.0192  -10.8936  -19.0613 N   0  0  0  0  0  0  0  0  0  0  0  0
   17.2074   -9.6511  -18.2301 C   0  0  0  0  0  0  0  0  0  0  0  0
   16.4941  -10.0668  -19.1734 O   0  0  0  0  0  0  0  0  0  0  0  0
   16.5585   -9.2492  -17.0927 O   0  0  0  0  0  0  0  0  0  0  0  0
  2  1  1  0
  3  2  2  0
  4  3  1  0
  5  4  2  0
  5 11  1  0
  6  5  1  0
  7  9  1  0
  7  6  1  0
  7  8  1  6
  9 10  2  0
 11 12  2  0
 12  2  1  0
 14 13  1  1
 15 14  1  0
 16 14  1  0
 16 17  1  1
 17  9  1  0
 18 16  1  0
 19 18  2  0
 20 21  1  0
 21 22  2  0
 23 24  1  0
 23 21  1  0
 24 25  1  0
 27 26  1  6
 26 25  1  0
 27 28  1  0
 28 18  1  0
 29 31  1  0
 29 27  1  0
 30 29  2  0
M  END
$$$$
