YTR.pdb
     RDKit          3D

 31 31  0  0  1  0  0  0  0  0999 V2000
   16.7413  -18.2431  -20.2630 O   0  0  0  0  0  0  0  0  0  0  0  0
   17.1383  -17.1168  -19.5253 C   0  0  0  0  0  0  0  0  0  0  0  0
   16.5447  -16.8676  -18.3250 C   0  0  0  0  0  0  0  0  0  0  0  0
   16.9017  -15.7704  -17.5613 C   0  0  0  0  0  0  0  0  0  0  0  0
   17.8714  -14.9042  -18.0053 C   0  0  0  0  0  0  0  0  0  0  0  0
   18.2461  -13.7479  -17.1959 C   0  0  0  0  0  0  0  0  0  0  0  0
   19.6614  -13.7953  -16.6558 C   0  0  2  0  0  0  0  0  0  0  0  0
   19.7862  -14.9621  -15.7586 N   0  0  0  0  0  0  0  0  0  0  0  0
   20.0656  -12.6159  -15.8988 C   0  0  0  0  0  0  0  0  0  0  0  0
   19.7374  -12.4908  -14.6719 O   0  0  0  0  0  0  0  0  0  0  0  0
   18.4662  -15.1645  -19.2206 C   0  0  0  0  0  0  0  0  0  0  0  0
   18.1096  -16.2615  -19.9846 C   0  0  0  0  0  0  0  0  0  0  0  0
   23.2323  -11.5203  -14.7203 C   0  0  0  0  0  0  0  0  0  0  0  0
   22.7073  -10.3856  -15.5548 C   0  0  1  0  0  0  0  0  0  0  0  0
   23.0802  -10.6879  -16.8864 O   0  0  0  0  0  0  0  0  0  0  0  0
   21.1699  -10.3554  -15.5989 C   0  0  2  0  0  0  0  0  0  0  0  0
   20.8317  -11.5276  -16.4045 N   0  0  0  0  0  0  0  0  0  0  0  0
   20.6637   -9.1605  -16.2751 C   0  0  0  0  0  0  0  0  0  0  0  0
   20.7045   -9.1398  -17.5559 O   0  0  0  0  0  0  0  0  0  0  0  0
   13.8843   -4.4757  -16.8263 N   0  0  0  0  0  0  0  0  0  0  0  0
   14.6573   -5.4723  -17.4776 C   0  0  0  0  0  0  0  0  0  0  0  0
   14.0934   -6.2693  -18.2963 N   0  0  0  0  0  0  0  0  0  0  0  0
   16.0643   -5.5658  -17.2014 N   0  0  0  0  0  0  0  0  0  0  0  0
   16.6321   -4.8139  -16.1064 C   0  0  0  0  0  0  0  0  0  0  0  0
   18.1455   -4.8925  -16.1063 C   0  0  0  0  0  0  0  0  0  0  0  0
   18.6122   -6.1864  -15.5332 C   0  0  0  0  0  0  0  0  0  0  0  0
   19.6554   -6.8836  -16.3615 C   0  0  2  0  0  0  0  0  0  0  0  0
   20.1325   -8.0314  -15.5903 N   0  0  0  0  0  0  0  0  0  0  0  0
   20.8408   -5.9944  -16.5210 C   0  0  0  0  0  0  0  0  0  0  0  0
   21.8106   -6.1427  -15.7408 O   0  0  0  0  0  0  0  0  0  0  0  0
   20.9528   -5.0126  -17.4696 O   0  0  0  0  0  0  0  0  0  0  0  0
  2  1  1  0
  3  2  2  0
  4  3  1  0
  5  4  2  0
  5 11  1  0
  6  5  1  0
  7  9  1  0
  7  6  1  0
  7  8  1  1
  9 10  2  0
 11 12  2  0
 12  2  1  0
 14 13  1  1
 15 14  1  0
 16 14  1  0
 16 17  1  6
 17  9  1  0
 18 16  1  0
 19 18  2  0
 20 21  1  0
 21 22  2  0
 23 24  1  0
 23 21  1  0
 24 25  1  0
 27 26  1  1
 26 25  1  0
 27 28  1  0
 28 18  1  0
 29 31  1  0
 29 27  1  0
 30 29  2  0
M  END
$$$$
