YTR.pdb
     RDKit          3D

 31 31  0  0  1  0  0  0  0  0999 V2000
   31.3715  -23.4814  -18.0336 O   0  0  0  0  0  0  0  0  0  0  0  0
   30.2598  -22.8107  -17.4999 C   0  0  0  0  0  0  0  0  0  0  0  0
   29.2194  -23.5392  -17.0080 C   0  0  0  0  0  0  0  0  0  0  0  0
   28.1019  -22.9241  -16.4721 C   0  0  0  0  0  0  0  0  0  0  0  0
   28.0217  -21.5532  -16.4263 C   0  0  0  0  0  0  0  0  0  0  0  0
   26.8411  -20.9077  -15.8588 C   0  0  0  0  0  0  0  0  0  0  0  0
   25.6568  -20.8309  -16.8015 C   0  0  2  0  0  0  0  0  0  0  0  0
   25.9993  -19.9265  -17.9181 N   0  0  0  0  0  0  0  0  0  0  0  0
   24.4265  -20.3331  -16.1966 C   0  0  0  0  0  0  0  0  0  0  0  0
   24.2203  -19.0783  -16.0886 O   0  0  0  0  0  0  0  0  0  0  0  0
   29.0790  -20.8248  -16.9262 C   0  0  0  0  0  0  0  0  0  0  0  0
   30.1967  -21.4394  -17.4622 C   0  0  0  0  0  0  0  0  0  0  0  0
   22.2992  -18.7421  -16.9181 C   0  0  0  0  0  0  0  0  0  0  0  0
   21.4977  -19.9187  -16.4352 C   0  0  1  0  0  0  0  0  0  0  0  0
   21.6298  -20.9074  -17.4394 O   0  0  0  0  0  0  0  0  0  0  0  0
   22.1149  -20.5734  -15.1875 C   0  0  2  0  0  0  0  0  0  0  0  0
   23.3682  -21.1373  -15.6866 N   0  0  0  0  0  0  0  0  0  0  0  0
   21.2843  -21.6619  -14.6714 C   0  0  0  0  0  0  0  0  0  0  0  0
   21.3735  -22.8030  -15.2483 O   0  0  0  0  0  0  0  0  0  0  0  0
   15.5677  -23.2962   -9.6715 N   0  0  0  0  0  0  0  0  0  0  0  0
   15.9049  -24.6728   -9.7517 C   0  0  0  0  0  0  0  0  0  0  0  0
   14.9858  -25.5507   -9.6632 N   0  0  0  0  0  0  0  0  0  0  0  0
   17.2789  -25.0529   -9.9308 N   0  0  0  0  0  0  0  0  0  0  0  0
   18.2593  -24.0536  -10.2872 C   0  0  0  0  0  0  0  0  0  0  0  0
   17.8029  -23.2279  -11.4732 C   0  0  0  0  0  0  0  0  0  0  0  0
   18.8613  -22.2665  -11.8925 C   0  0  0  0  0  0  0  0  0  0  0  0
   19.5984  -22.6708  -13.1388 C   0  0  2  0  0  0  0  0  0  0  0  0
   20.3919  -21.5205  -13.5715 N   0  0  0  0  0  0  0  0  0  0  0  0
   18.6220  -22.9134  -14.2384 C   0  0  0  0  0  0  0  0  0  0  0  0
   18.1374  -21.9252  -14.8384 O   0  0  0  0  0  0  0  0  0  0  0  0
   18.2078  -24.1526  -14.6496 O   0  0  0  0  0  0  0  0  0  0  0  0
  2  1  1  0
  3  2  2  0
  4  3  1  0
  5  4  2  0
  5 11  1  0
  6  5  1  0
  7  9  1  0
  7  6  1  0
  7  8  1  6
  9 10  2  0
 11 12  2  0
 12  2  1  0
 14 13  1  6
 15 14  1  0
 16 14  1  0
 16 17  1  6
 17  9  1  0
 18 16  1  0
 19 18  2  0
 20 21  1  0
 21 22  2  0
 23 24  1  0
 23 21  1  0
 24 25  1  0
 27 26  1  1
 26 25  1  0
 27 28  1  0
 28 18  1  0
 29 31  1  0
 29 27  1  0
 30 29  2  0
M  END
$$$$
