YTR.pdb
     RDKit          3D

 31 31  0  0  1  0  0  0  0  0999 V2000
   14.5060  -18.4590  -17.4640 O   0  0  0  0  0  0  0  0  0  0  0  0
   15.0455  -17.3087  -16.8672 C   0  0  0  0  0  0  0  0  0  0  0  0
   14.9354  -16.1137  -17.5116 C   0  0  0  0  0  0  0  0  0  0  0  0
   15.4511  -14.9524  -16.9641 C   0  0  0  0  0  0  0  0  0  0  0  0
   16.0898  -14.9848  -15.7481 C   0  0  0  0  0  0  0  0  0  0  0  0
   16.6317  -13.7568  -15.1730 C   0  0  0  0  0  0  0  0  0  0  0  0
   17.8265  -13.1929  -15.9158 C   0  0  2  0  0  0  0  0  0  0  0  0
   18.9445  -14.1526  -15.8105 N   0  0  0  0  0  0  0  0  0  0  0  0
   18.3042  -11.9081  -15.4175 C   0  0  0  0  0  0  0  0  0  0  0  0
   18.7912  -11.8106  -14.2419 O   0  0  0  0  0  0  0  0  0  0  0  0
   16.1963  -16.1981  -15.1037 C   0  0  0  0  0  0  0  0  0  0  0  0
   15.6808  -17.3597  -15.6508 C   0  0  0  0  0  0  0  0  0  0  0  0
   21.0068   -9.8845  -16.6629 C   0  0  0  0  0  0  0  0  0  0  0  0
   19.8265   -8.9561  -16.5935 C   0  0  1  0  0  0  0  0  0  0  0  0
   19.1695   -9.0816  -17.8408 O   0  0  0  0  0  0  0  0  0  0  0  0
   18.7750   -9.4234  -15.5726 C   0  0  2  0  0  0  0  0  0  0  0  0
   18.2893  -10.6808  -16.1389 N   0  0  0  0  0  0  0  0  0  0  0  0
   17.6527   -8.4896  -15.4744 C   0  0  0  0  0  0  0  0  0  0  0  0
   16.4995   -8.9041  -15.8498 O   0  0  0  0  0  0  0  0  0  0  0  0
   13.8414   -8.6341   -9.1980 N   0  0  0  0  0  0  0  0  0  0  0  0
   14.6362   -7.4749   -8.9989 C   0  0  0  0  0  0  0  0  0  0  0  0
   14.6078   -6.8800   -7.8726 N   0  0  0  0  0  0  0  0  0  0  0  0
   15.4595   -6.9915  -10.0726 N   0  0  0  0  0  0  0  0  0  0  0  0
   15.1252   -7.3229  -11.4384 C   0  0  0  0  0  0  0  0  0  0  0  0
   16.0741   -6.6609  -12.4172 C   0  0  0  0  0  0  0  0  0  0  0  0
   15.6934   -6.9739  -13.8234 C   0  0  0  0  0  0  0  0  0  0  0  0
   16.5759   -6.3293  -14.8559 C   0  0  2  0  0  0  0  0  0  0  0  0
   17.7744   -7.1577  -14.9871 N   0  0  0  0  0  0  0  0  0  0  0  0
   17.0584   -5.0140  -14.3475 C   0  0  0  0  0  0  0  0  0  0  0  0
   16.2495   -4.0577  -14.2970 O   0  0  0  0  0  0  0  0  0  0  0  0
   18.3377   -4.7669  -13.9249 O   0  0  0  0  0  0  0  0  0  0  0  0
  2  1  1  0
  3  2  2  0
  4  3  1  0
  5  4  2  0
  5 11  1  0
  6  5  1  0
  7  9  1  0
  7  6  1  0
  7  8  1  1
  9 10  2  0
 11 12  2  0
 12  2  1  0
 14 13  1  6
 15 14  1  0
 16 14  1  0
 16 17  1  6
 17  9  1  0
 18 16  1  0
 19 18  2  0
 20 21  1  0
 21 22  2  0
 23 24  1  0
 23 21  1  0
 24 25  1  0
 27 26  1  1
 26 25  1  0
 27 28  1  0
 28 18  1  0
 29 31  1  0
 29 27  1  0
 30 29  2  0
M  END
$$$$
