YTR.pdb
     RDKit          3D

 31 31  0  0  1  0  0  0  0  0999 V2000
   51.3875  -15.9621  -16.1580 O   0  0  0  0  0  0  0  0  0  0  0  0
   50.7213  -14.9837  -15.4035 C   0  0  0  0  0  0  0  0  0  0  0  0
   51.4114  -14.2977  -14.4504 C   0  0  0  0  0  0  0  0  0  0  0  0
   50.7989  -13.3242  -13.6813 C   0  0  0  0  0  0  0  0  0  0  0  0
   49.4699  -13.0297  -13.8675 C   0  0  0  0  0  0  0  0  0  0  0  0
   48.8273  -12.0008  -13.0544 C   0  0  0  0  0  0  0  0  0  0  0  0
   48.5257  -10.7148  -13.7975 C   0  0  2  0  0  0  0  0  0  0  0  0
   49.8031  -10.0802  -14.1819 N   0  0  0  0  0  0  0  0  0  0  0  0
   47.7619   -9.7339  -13.0347 C   0  0  0  0  0  0  0  0  0  0  0  0
   48.3563   -8.9078  -12.2646 O   0  0  0  0  0  0  0  0  0  0  0  0
   48.7801  -13.7288  -14.8339 C   0  0  0  0  0  0  0  0  0  0  0  0
   49.3921  -14.7023  -15.6033 C   0  0  0  0  0  0  0  0  0  0  0  0
   45.4878   -7.1175  -14.2304 C   0  0  0  0  0  0  0  0  0  0  0  0
   44.7160   -7.8921  -13.1989 C   0  0  1  0  0  0  0  0  0  0  0  0
   44.0749   -8.9362  -13.9077 O   0  0  0  0  0  0  0  0  0  0  0  0
   45.6372   -8.6271  -12.2102 C   0  0  2  0  0  0  0  0  0  0  0  0
   46.3462   -9.5851  -13.0569 N   0  0  0  0  0  0  0  0  0  0  0  0
   44.8794   -9.3661  -11.1999 C   0  0  0  0  0  0  0  0  0  0  0  0
   44.9036  -10.6463  -11.2568 O   0  0  0  0  0  0  0  0  0  0  0  0
   47.4166  -13.3313   -5.4282 N   0  0  0  0  0  0  0  0  0  0  0  0
   47.2874  -11.9271   -5.2647 C   0  0  0  0  0  0  0  0  0  0  0  0
   48.1283  -11.2989   -4.5424 N   0  0  0  0  0  0  0  0  0  0  0  0
   46.2088  -11.2375   -5.9170 N   0  0  0  0  0  0  0  0  0  0  0  0
   45.2683  -11.9782   -6.7255 C   0  0  0  0  0  0  0  0  0  0  0  0
   44.1533  -11.0871   -7.2348 C   0  0  0  0  0  0  0  0  0  0  0  0
   44.6170  -10.2552   -8.3807 C   0  0  0  0  0  0  0  0  0  0  0  0
   43.5080   -9.5696   -9.1294 C   0  0  2  0  0  0  0  0  0  0  0  0
   44.1249   -8.7426  -10.1664 N   0  0  0  0  0  0  0  0  0  0  0  0
   42.8122   -8.6128   -8.2229 C   0  0  0  0  0  0  0  0  0  0  0  0
   43.0415   -7.3875   -8.3547 O   0  0  0  0  0  0  0  0  0  0  0  0
   41.9279   -8.9760   -7.2418 O   0  0  0  0  0  0  0  0  0  0  0  0
  2  1  1  0
  3  2  2  0
  4  3  1  0
  5  4  2  0
  5 11  1  0
  6  5  1  0
  7  9  1  0
  7  6  1  0
  7  8  1  1
  9 10  2  0
 11 12  2  0
 12  2  1  0
 14 13  1  6
 15 14  1  0
 16 14  1  0
 16 17  1  6
 17  9  1  0
 18 16  1  0
 19 18  2  0
 20 21  1  0
 21 22  2  0
 23 24  1  0
 23 21  1  0
 24 25  1  0
 27 26  1  1
 26 25  1  0
 27 28  1  0
 28 18  1  0
 29 31  1  0
 29 27  1  0
 30 29  2  0
M  END
$$$$
