YTR.pdb
     RDKit          3D

 31 31  0  0  1  0  0  0  0  0999 V2000
   31.2946  -27.3748  -19.6585 O   0  0  0  0  0  0  0  0  0  0  0  0
   30.1565  -27.1166  -18.8784 C   0  0  0  0  0  0  0  0  0  0  0  0
   30.2976  -26.9548  -17.5334 C   0  0  0  0  0  0  0  0  0  0  0  0
   29.2061  -26.6988  -16.7225 C   0  0  0  0  0  0  0  0  0  0  0  0
   27.9478  -26.6025  -17.2658 C   0  0  0  0  0  0  0  0  0  0  0  0
   26.7985  -26.3312  -16.4068 C   0  0  0  0  0  0  0  0  0  0  0  0
   26.3285  -24.8905  -16.4280 C   0  0  2  0  0  0  0  0  0  0  0  0
   27.4217  -24.0293  -15.9327 N   0  0  0  0  0  0  0  0  0  0  0  0
   25.1527  -24.6200  -15.6085 C   0  0  0  0  0  0  0  0  0  0  0  0
   25.0266  -23.5015  -15.0070 O   0  0  0  0  0  0  0  0  0  0  0  0
   27.8150  -26.7677  -18.6273 C   0  0  0  0  0  0  0  0  0  0  0  0
   28.9062  -27.0236  -19.4386 C   0  0  0  0  0  0  0  0  0  0  0  0
   23.2111  -22.7809  -15.4828 C   0  0  0  0  0  0  0  0  0  0  0  0
   22.2911  -23.9696  -15.4631 C   0  0  1  0  0  0  0  0  0  0  0  0
   22.2706  -24.4573  -16.7917 O   0  0  0  0  0  0  0  0  0  0  0  0
   22.8667  -25.1403  -14.6479 C   0  0  2  0  0  0  0  0  0  0  0  0
   24.0663  -25.5150  -15.3949 N   0  0  0  0  0  0  0  0  0  0  0  0
   21.9575  -26.2864  -14.6165 C   0  0  0  0  0  0  0  0  0  0  0  0
   21.7092  -26.8791  -15.7254 O   0  0  0  0  0  0  0  0  0  0  0  0
   18.4408  -29.7310   -7.7076 N   0  0  0  0  0  0  0  0  0  0  0  0
   18.4471  -28.4855   -8.3887 C   0  0  0  0  0  0  0  0  0  0  0  0
   18.1767  -27.4180   -7.7479 N   0  0  0  0  0  0  0  0  0  0  0  0
   18.7579  -28.4503   -9.7910 N   0  0  0  0  0  0  0  0  0  0  0  0
   18.6542  -29.6562  -10.5796 C   0  0  0  0  0  0  0  0  0  0  0  0
   19.0865  -29.4199  -12.0127 C   0  0  0  0  0  0  0  0  0  0  0  0
   20.0147  -28.2579  -12.1051 C   0  0  0  0  0  0  0  0  0  0  0  0
   20.4414  -27.9234  -13.5073 C   0  0  2  0  0  0  0  0  0  0  0  0
   21.3414  -26.7729  -13.4291 N   0  0  0  0  0  0  0  0  0  0  0  0
   19.2626  -27.4507  -14.2872 C   0  0  0  0  0  0  0  0  0  0  0  0
   18.8587  -26.2772  -14.1109 O   0  0  0  0  0  0  0  0  0  0  0  0
   18.5766  -28.2125  -15.1958 O   0  0  0  0  0  0  0  0  0  0  0  0
  2  1  1  0
  3  2  2  0
  4  3  1  0
  5  4  2  0
  5 11  1  0
  6  5  1  0
  7  9  1  0
  7  6  1  0
  7  8  1  1
  9 10  2  0
 11 12  2  0
 12  2  1  0
 14 13  1  6
 15 14  1  0
 16 14  1  0
 16 17  1  6
 17  9  1  0
 18 16  1  0
 19 18  2  0
 20 21  1  0
 21 22  2  0
 23 24  1  0
 23 21  1  0
 24 25  1  0
 27 26  1  1
 26 25  1  0
 27 28  1  0
 28 18  1  0
 29 31  1  0
 29 27  1  0
 30 29  2  0
M  END
$$$$
