YTR.pdb
     RDKit          3D

 31 31  0  0  1  0  0  0  0  0999 V2000
   28.8871  -20.6044   -3.5858 O   0  0  0  0  0  0  0  0  0  0  0  0
   28.4779  -20.4624   -4.9210 C   0  0  0  0  0  0  0  0  0  0  0  0
   29.3392  -19.9160   -5.8238 C   0  0  0  0  0  0  0  0  0  0  0  0
   28.9819  -19.7553   -7.1507 C   0  0  0  0  0  0  0  0  0  0  0  0
   27.7392  -20.1482   -7.5853 C   0  0  0  0  0  0  0  0  0  0  0  0
   27.3663  -19.9779   -8.9869 C   0  0  0  0  0  0  0  0  0  0  0  0
   27.1446  -21.2761   -9.7370 C   0  0  2  0  0  0  0  0  0  0  0  0
   28.4182  -22.0234   -9.7752 N   0  0  0  0  0  0  0  0  0  0  0  0
   26.6897  -21.1157  -11.1135 C   0  0  0  0  0  0  0  0  0  0  0  0
   27.5295  -20.9130  -12.0529 O   0  0  0  0  0  0  0  0  0  0  0  0
   26.8749  -20.6999   -6.6649 C   0  0  0  0  0  0  0  0  0  0  0  0
   27.2316  -20.8608   -5.3378 C   0  0  0  0  0  0  0  0  0  0  0  0
   25.6216  -23.1312  -13.5966 C   0  0  0  0  0  0  0  0  0  0  0  0
   24.4910  -22.1435  -13.5194 C   0  0  1  0  0  0  0  0  0  0  0  0
   23.5868  -22.6733  -12.5680 O   0  0  0  0  0  0  0  0  0  0  0  0
   24.9282  -20.8017  -12.9073 C   0  0  2  0  0  0  0  0  0  0  0  0
   25.3359  -21.1656  -11.5512 N   0  0  0  0  0  0  0  0  0  0  0  0
   23.8201  -19.8497  -12.8236 C   0  0  0  0  0  0  0  0  0  0  0  0
   23.3907  -19.5379  -11.6569 O   0  0  0  0  0  0  0  0  0  0  0  0
   19.7450  -14.9853  -18.9926 N   0  0  0  0  0  0  0  0  0  0  0  0
   18.7793  -15.0914  -17.9576 C   0  0  0  0  0  0  0  0  0  0  0  0
   17.6038  -14.6375  -18.1465 N   0  0  0  0  0  0  0  0  0  0  0  0
   19.1447  -15.7091  -16.7129 N   0  0  0  0  0  0  0  0  0  0  0  0
   20.5202  -16.0787  -16.4718 C   0  0  0  0  0  0  0  0  0  0  0  0
   20.6904  -16.7229  -15.1107 C   0  0  0  0  0  0  0  0  0  0  0  0
   21.9017  -17.5902  -15.0790 C   0  0  0  0  0  0  0  0  0  0  0  0
   22.1218  -18.2888  -13.7661 C   0  0  2  0  0  0  0  0  0  0  0  0
   23.2011  -19.2570  -13.9601 N   0  0  0  0  0  0  0  0  0  0  0  0
   20.9191  -19.1007  -13.4261 C   0  0  0  0  0  0  0  0  0  0  0  0
   20.7953  -20.2349  -13.9453 O   0  0  0  0  0  0  0  0  0  0  0  0
   19.9237  -18.6957  -12.5767 O   0  0  0  0  0  0  0  0  0  0  0  0
  2  1  1  0
  3  2  2  0
  4  3  1  0
  5  4  2  0
  5 11  1  0
  6  5  1  0
  7  9  1  0
  7  6  1  0
  7  8  1  6
  9 10  2  0
 11 12  2  0
 12  2  1  0
 14 13  1  1
 15 14  1  0
 16 14  1  0
 16 17  1  1
 17  9  1  0
 18 16  1  0
 19 18  2  0
 20 21  1  0
 21 22  2  0
 23 24  1  0
 23 21  1  0
 24 25  1  0
 27 26  1  6
 26 25  1  0
 27 28  1  0
 28 18  1  0
 29 31  1  0
 29 27  1  0
 30 29  2  0
M  END
$$$$
