YTR.pdb
     RDKit          3D

 31 31  0  0  1  0  0  0  0  0999 V2000
   29.5403  -13.9894  -17.6642 O   0  0  0  0  0  0  0  0  0  0  0  0
   28.8219  -15.0286  -17.0523 C   0  0  0  0  0  0  0  0  0  0  0  0
   28.4659  -16.1144  -17.7936 C   0  0  0  0  0  0  0  0  0  0  0  0
   27.7576  -17.1639  -17.2357 C   0  0  0  0  0  0  0  0  0  0  0  0
   27.3974  -17.1286  -15.9103 C   0  0  0  0  0  0  0  0  0  0  0  0
   26.6508  -18.2387  -15.3249 C   0  0  0  0  0  0  0  0  0  0  0  0
   27.5089  -19.2549  -14.5983 C   0  0  2  0  0  0  0  0  0  0  0  0
   28.4551  -19.8509  -15.5634 N   0  0  0  0  0  0  0  0  0  0  0  0
   26.7680  -20.3483  -13.9795 C   0  0  0  0  0  0  0  0  0  0  0  0
   27.3501  -21.4503  -13.7047 O   0  0  0  0  0  0  0  0  0  0  0  0
   27.7620  -16.0261  -15.1685 C   0  0  0  0  0  0  0  0  0  0  0  0
   28.4703  -14.9764  -15.7259 C   0  0  0  0  0  0  0  0  0  0  0  0
   27.0499  -21.5833  -11.9072 C   0  0  0  0  0  0  0  0  0  0  0  0
   25.5744  -21.5446  -11.6221 C   0  0  1  0  0  0  0  0  0  0  0  0
   25.3502  -20.3248  -10.9399 O   0  0  0  0  0  0  0  0  0  0  0  0
   24.7349  -21.4113  -12.9043 C   0  0  2  0  0  0  0  0  0  0  0  0
   25.3894  -20.3205  -13.6250 N   0  0  0  0  0  0  0  0  0  0  0  0
   23.3540  -21.0212  -12.6179 C   0  0  0  0  0  0  0  0  0  0  0  0
   23.1093  -19.7731  -12.4596 O   0  0  0  0  0  0  0  0  0  0  0  0
   15.8590  -25.3549  -13.2924 N   0  0  0  0  0  0  0  0  0  0  0  0
   15.5732  -24.2137  -14.0868 C   0  0  0  0  0  0  0  0  0  0  0  0
   14.3697  -23.9712  -14.4276 N   0  0  0  0  0  0  0  0  0  0  0  0
   16.6475  -23.3509  -14.4939 N   0  0  0  0  0  0  0  0  0  0  0  0
   17.9999  -23.6442  -14.0793 C   0  0  0  0  0  0  0  0  0  0  0  0
   18.7122  -22.3988  -13.5911 C   0  0  0  0  0  0  0  0  0  0  0  0
   20.1414  -22.6878  -13.2842 C   0  0  0  0  0  0  0  0  0  0  0  0
   20.9142  -21.4987  -12.7849 C   0  0  2  0  0  0  0  0  0  0  0  0
   22.2787  -21.9474  -12.5082 N   0  0  0  0  0  0  0  0  0  0  0  0
   20.3660  -21.0655  -11.4684 C   0  0  0  0  0  0  0  0  0  0  0  0
   19.2692  -20.4590  -11.4462 O   0  0  0  0  0  0  0  0  0  0  0  0
   20.9787  -21.2829  -10.2628 O   0  0  0  0  0  0  0  0  0  0  0  0
  2  1  1  0
  3  2  2  0
  4  3  1  0
  5  4  2  0
  5 11  1  0
  6  5  1  0
  7  9  1  0
  7  6  1  0
  7  8  1  6
  9 10  2  0
 11 12  2  0
 12  2  1  0
 14 13  1  6
 15 14  1  0
 16 14  1  0
 16 17  1  6
 17  9  1  0
 18 16  1  0
 19 18  2  0
 20 21  1  0
 21 22  2  0
 23 24  1  0
 23 21  1  0
 24 25  1  0
 27 26  1  1
 26 25  1  0
 27 28  1  0
 28 18  1  0
 29 31  1  0
 29 27  1  0
 30 29  2  0
M  END
$$$$
