YTR.pdb
     RDKit          3D

 31 31  0  0  1  0  0  0  0  0999 V2000
   34.1419   -5.3176  -15.2576 O   0  0  0  0  0  0  0  0  0  0  0  0
   33.1121   -6.0469  -15.8725 C   0  0  0  0  0  0  0  0  0  0  0  0
   33.1704   -7.4077  -15.8696 C   0  0  0  0  0  0  0  0  0  0  0  0
   32.1798   -8.1702  -16.4626 C   0  0  0  0  0  0  0  0  0  0  0  0
   31.1088   -7.5615  -17.0709 C   0  0  0  0  0  0  0  0  0  0  0  0
   30.0648   -8.3698  -17.6947 C   0  0  0  0  0  0  0  0  0  0  0  0
   30.5765   -9.3923  -18.6895 C   0  0  2  0  0  0  0  0  0  0  0  0
   31.3246   -8.6868  -19.7500 N   0  0  0  0  0  0  0  0  0  0  0  0
   29.5383  -10.1844  -19.3392 C   0  0  0  0  0  0  0  0  0  0  0  0
   29.2913  -10.0326  -20.5821 O   0  0  0  0  0  0  0  0  0  0  0  0
   31.0584   -6.1845  -17.0688 C   0  0  0  0  0  0  0  0  0  0  0  0
   32.0488   -5.4215  -16.4760 C   0  0  0  0  0  0  0  0  0  0  0  0
   27.4233  -13.3179  -17.3261 C   0  0  0  0  0  0  0  0  0  0  0  0
   27.8076  -13.3335  -18.7793 C   0  0  1  0  0  0  0  0  0  0  0  0
   26.7975  -14.0796  -19.4323 O   0  0  0  0  0  0  0  0  0  0  0  0
   27.7132  -11.9397  -19.4235 C   0  0  2  0  0  0  0  0  0  0  0  0
   28.7250  -11.1662  -18.7056 N   0  0  0  0  0  0  0  0  0  0  0  0
   26.4060  -11.3204  -19.2022 C   0  0  0  0  0  0  0  0  0  0  0  0
   26.3007  -10.4819  -18.2386 O   0  0  0  0  0  0  0  0  0  0  0  0
   20.1712   -8.6985  -24.6963 N   0  0  0  0  0  0  0  0  0  0  0  0
   19.6663   -8.2835  -23.4361 C   0  0  0  0  0  0  0  0  0  0  0  0
   18.6388   -7.5317  -23.3879 N   0  0  0  0  0  0  0  0  0  0  0  0
   20.3241   -8.7184  -22.2350 N   0  0  0  0  0  0  0  0  0  0  0  0
   21.5459   -9.4842  -22.3230 C   0  0  0  0  0  0  0  0  0  0  0  0
   22.0967   -9.8084  -20.9489 C   0  0  0  0  0  0  0  0  0  0  0  0
   23.3895  -10.5422  -21.0522 C   0  0  0  0  0  0  0  0  0  0  0  0
   24.0096  -10.8823  -19.7255 C   0  0  2  0  0  0  0  0  0  0  0  0
   25.2568  -11.5976  -19.9950 N   0  0  0  0  0  0  0  0  0  0  0  0
   23.1423  -11.8575  -19.0058 C   0  0  0  0  0  0  0  0  0  0  0  0
   23.3820  -13.0813  -19.1340 O   0  0  0  0  0  0  0  0  0  0  0  0
   22.0874  -11.5133  -18.2026 O   0  0  0  0  0  0  0  0  0  0  0  0
  2  1  1  0
  3  2  2  0
  4  3  1  0
  5  4  2  0
  5 11  1  0
  6  5  1  0
  7  9  1  0
  7  6  1  0
  7  8  1  6
  9 10  2  0
 11 12  2  0
 12  2  1  0
 14 13  1  1
 15 14  1  0
 16 14  1  0
 16 17  1  1
 17  9  1  0
 18 16  1  0
 19 18  2  0
 20 21  1  0
 21 22  2  0
 23 24  1  0
 23 21  1  0
 24 25  1  0
 27 26  1  6
 26 25  1  0
 27 28  1  0
 28 18  1  0
 29 31  1  0
 29 27  1  0
 30 29  2  0
M  END
$$$$
