YTR.pdb
     RDKit          3D

 31 31  0  0  1  0  0  0  0  0999 V2000
   28.2720  -29.7091  -17.8997 O   0  0  0  0  0  0  0  0  0  0  0  0
   27.6286  -28.6432  -17.2512 C   0  0  0  0  0  0  0  0  0  0  0  0
   28.3556  -27.5475  -16.8960 C   0  0  0  0  0  0  0  0  0  0  0  0
   27.7668  -26.4719  -16.2551 C   0  0  0  0  0  0  0  0  0  0  0  0
   26.4244  -26.4907  -15.9629 C   0  0  0  0  0  0  0  0  0  0  0  0
   25.8064  -25.3531  -15.2873 C   0  0  0  0  0  0  0  0  0  0  0  0
   25.1799  -24.3367  -16.2208 C   0  0  2  0  0  0  0  0  0  0  0  0
   26.2581  -23.5613  -16.8676 N   0  0  0  0  0  0  0  0  0  0  0  0
   24.2838  -23.3848  -15.5740 C   0  0  0  0  0  0  0  0  0  0  0  0
   24.6221  -22.1608  -15.4476 O   0  0  0  0  0  0  0  0  0  0  0  0
   25.6972  -27.6033  -16.3261 C   0  0  0  0  0  0  0  0  0  0  0  0
   26.2856  -28.6792  -16.9670 C   0  0  0  0  0  0  0  0  0  0  0  0
   23.0649  -20.9882  -16.0700 C   0  0  0  0  0  0  0  0  0  0  0  0
   21.8369  -21.7159  -15.5988 C   0  0  1  0  0  0  0  0  0  0  0  0
   21.4731  -22.5770  -16.6616 O   0  0  0  0  0  0  0  0  0  0  0  0
   22.1366  -22.6733  -14.4327 C   0  0  2  0  0  0  0  0  0  0  0  0
   22.9990  -23.6859  -15.0397 N   0  0  0  0  0  0  0  0  0  0  0  0
   20.9259  -23.3270  -13.9344 C   0  0  0  0  0  0  0  0  0  0  0  0
   20.5487  -24.4042  -14.5174 O   0  0  0  0  0  0  0  0  0  0  0  0
   18.5597  -25.4286   -5.9843 N   0  0  0  0  0  0  0  0  0  0  0  0
   17.3981  -25.8045   -6.7085 C   0  0  0  0  0  0  0  0  0  0  0  0
   16.4709  -26.4487   -6.1180 N   0  0  0  0  0  0  0  0  0  0  0  0
   17.2880  -25.4520   -8.0971 N   0  0  0  0  0  0  0  0  0  0  0  0
   18.3961  -24.8087   -8.7642 C   0  0  0  0  0  0  0  0  0  0  0  0
   18.0783  -24.5253  -10.2186 C   0  0  0  0  0  0  0  0  0  0  0  0
   19.2347  -23.8793  -10.9010 C   0  0  0  0  0  0  0  0  0  0  0  0
   19.0127  -23.6118  -12.3637 C   0  0  2  0  0  0  0  0  0  0  0  0
   20.1537  -22.8334  -12.8452 N   0  0  0  0  0  0  0  0  0  0  0  0
   17.8283  -22.7231  -12.5332 C   0  0  0  0  0  0  0  0  0  0  0  0
   18.0042  -21.4820  -12.5250 O   0  0  0  0  0  0  0  0  0  0  0  0
   16.5428  -23.1660  -12.6999 O   0  0  0  0  0  0  0  0  0  0  0  0
  2  1  1  0
  3  2  2  0
  4  3  1  0
  5  4  2  0
  5 11  1  0
  6  5  1  0
  7  9  1  0
  7  6  1  0
  7  8  1  1
  9 10  2  0
 11 12  2  0
 12  2  1  0
 14 13  1  6
 15 14  1  0
 16 14  1  0
 16 17  1  6
 17  9  1  0
 18 16  1  0
 19 18  2  0
 20 21  1  0
 21 22  2  0
 23 24  1  0
 23 21  1  0
 24 25  1  0
 27 26  1  1
 26 25  1  0
 27 28  1  0
 28 18  1  0
 29 31  1  0
 29 27  1  0
 30 29  2  0
M  END
$$$$
