YTR.pdb
     RDKit          3D

 31 31  0  0  1  0  0  0  0  0999 V2000
   28.1111  -19.9921   -3.6112 O   0  0  0  0  0  0  0  0  0  0  0  0
   27.8338  -19.8825   -4.9829 C   0  0  0  0  0  0  0  0  0  0  0  0
   28.6869  -19.1780   -5.7774 C   0  0  0  0  0  0  0  0  0  0  0  0
   28.4566  -19.0416   -7.1348 C   0  0  0  0  0  0  0  0  0  0  0  0
   27.3518  -19.6207   -7.7109 C   0  0  0  0  0  0  0  0  0  0  0  0
   27.1128  -19.4753   -9.1442 C   0  0  0  0  0  0  0  0  0  0  0  0
   27.1072  -20.7817   -9.9126 C   0  0  2  0  0  0  0  0  0  0  0  0
   28.4370  -21.4119   -9.7833 N   0  0  0  0  0  0  0  0  0  0  0  0
   26.8214  -20.6508  -11.3369 C   0  0  0  0  0  0  0  0  0  0  0  0
   27.7720  -20.5167  -12.1779 O   0  0  0  0  0  0  0  0  0  0  0  0
   26.4947  -20.3314   -6.8993 C   0  0  0  0  0  0  0  0  0  0  0  0
   26.7245  -20.4681   -5.5418 C   0  0  0  0  0  0  0  0  0  0  0  0
   27.4559  -21.7895  -13.7411 C   0  0  0  0  0  0  0  0  0  0  0  0
   25.9684  -21.7676  -13.9573 C   0  0  1  0  0  0  0  0  0  0  0  0
   25.4533  -22.8240  -13.1685 O   0  0  0  0  0  0  0  0  0  0  0  0
   25.3105  -20.5092  -13.3658 C   0  0  2  0  0  0  0  0  0  0  0  0
   25.5261  -20.6593  -11.9275 N   0  0  0  0  0  0  0  0  0  0  0  0
   23.8704  -20.4709  -13.6220 C   0  0  0  0  0  0  0  0  0  0  0  0
   23.0924  -20.9337  -12.7147 O   0  0  0  0  0  0  0  0  0  0  0  0
   18.7987  -17.4883  -12.0841 N   0  0  0  0  0  0  0  0  0  0  0  0
   18.7703  -16.3159  -12.8841 C   0  0  0  0  0  0  0  0  0  0  0  0
   18.4025  -15.2113  -12.3665 N   0  0  0  0  0  0  0  0  0  0  0  0
   19.1566  -16.3955  -14.2657 N   0  0  0  0  0  0  0  0  0  0  0  0
   19.6394  -17.6457  -14.8049 C   0  0  0  0  0  0  0  0  0  0  0  0
   21.0608  -17.5172  -15.3145 C   0  0  0  0  0  0  0  0  0  0  0  0
   21.5239  -18.7926  -15.9302 C   0  0  0  0  0  0  0  0  0  0  0  0
   21.8386  -19.8752  -14.9357 C   0  0  2  0  0  0  0  0  0  0  0  0
   23.2945  -19.9500  -14.8150 N   0  0  0  0  0  0  0  0  0  0  0  0
   21.4195  -21.1950  -15.4870 C   0  0  0  0  0  0  0  0  0  0  0  0
   22.2317  -21.8331  -16.1972 O   0  0  0  0  0  0  0  0  0  0  0  0
   20.1959  -21.7725  -15.2733 O   0  0  0  0  0  0  0  0  0  0  0  0
  2  1  1  0
  3  2  2  0
  4  3  1  0
  5  4  2  0
  5 11  1  0
  6  5  1  0
  7  9  1  0
  7  6  1  0
  7  8  1  6
  9 10  2  0
 11 12  2  0
 12  2  1  0
 14 13  1  1
 15 14  1  0
 16 14  1  0
 16 17  1  1
 17  9  1  0
 18 16  1  0
 19 18  2  0
 20 21  1  0
 21 22  2  0
 23 24  1  0
 23 21  1  0
 24 25  1  0
 27 26  1  6
 26 25  1  0
 27 28  1  0
 28 18  1  0
 29 31  1  0
 29 27  1  0
 30 29  2  0
M  END
$$$$
