YTR.pdb
     RDKit          3D

 31 31  0  0  1  0  0  0  0  0999 V2000
   21.4274  -22.2046   -6.4766 O   0  0  0  0  0  0  0  0  0  0  0  0
   22.4003  -21.6879   -7.3467 C   0  0  0  0  0  0  0  0  0  0  0  0
   23.6554  -21.4526   -6.8730 C   0  0  0  0  0  0  0  0  0  0  0  0
   24.6483  -20.9441   -7.6914 C   0  0  0  0  0  0  0  0  0  0  0  0
   24.3825  -20.6647   -9.0102 C   0  0  0  0  0  0  0  0  0  0  0  0
   25.4334  -20.1291   -9.8711 C   0  0  0  0  0  0  0  0  0  0  0  0
   25.8028  -21.0239  -11.0372 C   0  0  2  0  0  0  0  0  0  0  0  0
   26.9150  -21.9039  -10.6241 N   0  0  0  0  0  0  0  0  0  0  0  0
   26.2282  -20.3157  -12.2392 C   0  0  0  0  0  0  0  0  0  0  0  0
   27.4630  -20.0610  -12.4372 O   0  0  0  0  0  0  0  0  0  0  0  0
   23.1100  -20.9061   -9.4803 C   0  0  0  0  0  0  0  0  0  0  0  0
   22.1168  -21.4146   -8.6623 C   0  0  0  0  0  0  0  0  0  0  0  0
   27.9099  -20.7439  -14.3061 C   0  0  0  0  0  0  0  0  0  0  0  0
   26.7066  -20.3972  -15.1378 C   0  0  1  0  0  0  0  0  0  0  0  0
   25.8546  -21.5250  -15.0634 O   0  0  0  0  0  0  0  0  0  0  0  0
   25.8741  -19.2627  -14.5163 C   0  0  2  0  0  0  0  0  0  0  0  0
   25.3706  -19.8527  -13.2770 N   0  0  0  0  0  0  0  0  0  0  0  0
   24.7341  -18.8949  -15.3568 C   0  0  0  0  0  0  0  0  0  0  0  0
   23.6080  -19.4547  -15.1098 O   0  0  0  0  0  0  0  0  0  0  0  0
   20.6172  -14.0446  -20.7054 N   0  0  0  0  0  0  0  0  0  0  0  0
   20.9742  -13.1779  -19.6393 C   0  0  0  0  0  0  0  0  0  0  0  0
   20.2286  -12.1826  -19.3625 N   0  0  0  0  0  0  0  0  0  0  0  0
   22.1724  -13.4381  -18.8902 N   0  0  0  0  0  0  0  0  0  0  0  0
   23.0834  -14.4697  -19.3292 C   0  0  0  0  0  0  0  0  0  0  0  0
   22.7489  -15.8080  -18.7017 C   0  0  0  0  0  0  0  0  0  0  0  0
   23.8182  -16.2357  -17.7562 C   0  0  0  0  0  0  0  0  0  0  0  0
   23.5930  -17.5922  -17.1483 C   0  0  2  0  0  0  0  0  0  0  0  0
   24.8106  -17.9555  -16.4235 N   0  0  0  0  0  0  0  0  0  0  0  0
   23.4600  -18.6074  -18.2313 C   0  0  0  0  0  0  0  0  0  0  0  0
   24.5028  -19.1015  -18.7210 O   0  0  0  0  0  0  0  0  0  0  0  0
   22.2670  -19.0484  -18.7400 O   0  0  0  0  0  0  0  0  0  0  0  0
  2  1  1  0
  3  2  2  0
  4  3  1  0
  5  4  2  0
  5 11  1  0
  6  5  1  0
  7  9  1  0
  7  6  1  0
  7  8  1  1
  9 10  2  0
 11 12  2  0
 12  2  1  0
 14 13  1  1
 15 14  1  0
 16 14  1  0
 16 17  1  1
 17  9  1  0
 18 16  1  0
 19 18  2  0
 20 21  1  0
 21 22  2  0
 23 24  1  0
 23 21  1  0
 24 25  1  0
 27 26  1  6
 26 25  1  0
 27 28  1  0
 28 18  1  0
 29 31  1  0
 29 27  1  0
 30 29  2  0
M  END
$$$$
