YTR.pdb
     RDKit          3D

 31 31  0  0  1  0  0  0  0  0999 V2000
   27.6963  -18.3714   -5.3327 O   0  0  0  0  0  0  0  0  0  0  0  0
   27.2939  -19.0870   -6.4714 C   0  0  0  0  0  0  0  0  0  0  0  0
   27.9288  -18.8610   -7.6550 C   0  0  0  0  0  0  0  0  0  0  0  0
   27.5684  -19.5413   -8.8046 C   0  0  0  0  0  0  0  0  0  0  0  0
   26.5531  -20.4664   -8.7717 C   0  0  0  0  0  0  0  0  0  0  0  0
   26.1763  -21.1831   -9.9870 C   0  0  0  0  0  0  0  0  0  0  0  0
   25.0921  -20.5060  -10.8013 C   0  0  2  0  0  0  0  0  0  0  0  0
   23.8235  -20.5727  -10.0475 N   0  0  0  0  0  0  0  0  0  0  0  0
   24.8538  -21.0985  -12.1126 C   0  0  0  0  0  0  0  0  0  0  0  0
   24.0936  -22.1163  -12.2342 O   0  0  0  0  0  0  0  0  0  0  0  0
   25.9168  -20.6883   -7.5699 C   0  0  0  0  0  0  0  0  0  0  0  0
   26.2769  -20.0082   -6.4200 C   0  0  0  0  0  0  0  0  0  0  0  0
   24.4194  -20.4241  -16.9293 C   0  0  0  0  0  0  0  0  0  0  0  0
   24.6595  -20.0424  -15.4953 C   0  0  1  0  0  0  0  0  0  0  0  0
   23.3925  -19.6766  -14.9812 O   0  0  0  0  0  0  0  0  0  0  0  0
   25.0757  -21.2459  -14.6322 C   0  0  2  0  0  0  0  0  0  0  0  0
   25.4042  -20.6398  -13.3429 N   0  0  0  0  0  0  0  0  0  0  0  0
   26.2703  -21.9094  -15.1556 C   0  0  0  0  0  0  0  0  0  0  0  0
   27.3781  -21.2671  -15.1043 O   0  0  0  0  0  0  0  0  0  0  0  0
   28.1616  -30.3879  -16.8405 N   0  0  0  0  0  0  0  0  0  0  0  0
   29.3223  -29.7136  -17.3022 C   0  0  0  0  0  0  0  0  0  0  0  0
   30.2941  -30.3883  -17.7752 N   0  0  0  0  0  0  0  0  0  0  0  0
   29.3816  -28.2800  -17.2275 N   0  0  0  0  0  0  0  0  0  0  0  0
   28.2804  -27.5455  -16.6490 C   0  0  0  0  0  0  0  0  0  0  0  0
   28.4891  -26.0492  -16.7682 C   0  0  0  0  0  0  0  0  0  0  0  0
   27.3513  -25.3021  -16.1618 C   0  0  0  0  0  0  0  0  0  0  0  0
   27.5232  -23.8086  -16.1716 C   0  0  2  0  0  0  0  0  0  0  0  0
   26.2654  -23.2194  -15.7125 N   0  0  0  0  0  0  0  0  0  0  0  0
   27.6919  -23.3359  -17.5750 C   0  0  0  0  0  0  0  0  0  0  0  0
   26.6942  -23.3430  -18.3338 O   0  0  0  0  0  0  0  0  0  0  0  0
   28.8720  -22.8875  -18.1066 O   0  0  0  0  0  0  0  0  0  0  0  0
  2  1  1  0
  3  2  2  0
  4  3  1  0
  5  4  2  0
  5 11  1  0
  6  5  1  0
  7  9  1  0
  7  6  1  0
  7  8  1  1
  9 10  2  0
 11 12  2  0
 12  2  1  0
 14 13  1  6
 15 14  1  0
 16 14  1  0
 16 17  1  1
 17  9  1  0
 18 16  1  0
 19 18  2  0
 20 21  1  0
 21 22  2  0
 23 24  1  0
 23 21  1  0
 24 25  1  0
 27 26  1  6
 26 25  1  0
 27 28  1  0
 28 18  1  0
 29 31  1  0
 29 27  1  0
 30 29  2  0
M  END
$$$$
