YTR.pdb
     RDKit          3D

 31 31  0  0  1  0  0  0  0  0999 V2000
   26.9762   -3.3871  -19.3093 O   0  0  0  0  0  0  0  0  0  0  0  0
   28.2998   -3.5106  -18.8583 C   0  0  0  0  0  0  0  0  0  0  0  0
   28.6324   -3.0128  -17.6349 C   0  0  0  0  0  0  0  0  0  0  0  0
   29.9234   -3.1103  -17.1467 C   0  0  0  0  0  0  0  0  0  0  0  0
   30.9024   -3.7172  -17.8956 C   0  0  0  0  0  0  0  0  0  0  0  0
   32.2635   -3.8191  -17.3764 C   0  0  0  0  0  0  0  0  0  0  0  0
   33.0412   -2.5184  -17.4020 C   0  0  2  0  0  0  0  0  0  0  0  0
   33.0999   -2.0301  -18.7948 N   0  0  0  0  0  0  0  0  0  0  0  0
   34.4123   -2.6175  -16.9147 C   0  0  0  0  0  0  0  0  0  0  0  0
   35.3719   -2.0911  -17.5711 O   0  0  0  0  0  0  0  0  0  0  0  0
   30.5564   -4.2178  -19.1318 C   0  0  0  0  0  0  0  0  0  0  0  0
   29.2656   -4.1206  -19.6204 C   0  0  0  0  0  0  0  0  0  0  0  0
   35.2188   -1.2066  -13.7055 C   0  0  0  0  0  0  0  0  0  0  0  0
   36.1767   -1.5759  -14.8036 C   0  0  1  0  0  0  0  0  0  0  0  0
   37.4698   -1.3695  -14.2663 O   0  0  0  0  0  0  0  0  0  0  0  0
   36.1452   -3.0799  -15.1250 C   0  0  2  0  0  0  0  0  0  0  0  0
   34.8227   -3.2712  -15.7183 N   0  0  0  0  0  0  0  0  0  0  0  0
   36.2400   -3.9011  -13.9176 C   0  0  0  0  0  0  0  0  0  0  0  0
   35.3095   -3.7839  -13.0441 O   0  0  0  0  0  0  0  0  0  0  0  0
   35.4007  -10.1514  -14.6403 N   0  0  0  0  0  0  0  0  0  0  0  0
   36.1136   -9.9991  -15.8583 C   0  0  0  0  0  0  0  0  0  0  0  0
   35.5604  -10.3342  -16.9560 N   0  0  0  0  0  0  0  0  0  0  0  0
   37.4490   -9.4694  -15.8322 N   0  0  0  0  0  0  0  0  0  0  0  0
   37.9768   -8.9138  -14.6076 C   0  0  0  0  0  0  0  0  0  0  0  0
   37.2282   -7.6608  -14.1999 C   0  0  0  0  0  0  0  0  0  0  0  0
   37.8396   -7.0448  -12.9887 C   0  0  0  0  0  0  0  0  0  0  0  0
   37.1861   -5.7616  -12.5567 C   0  0  2  0  0  0  0  0  0  0  0  0
   37.3016   -4.8154  -13.6663 N   0  0  0  0  0  0  0  0  0  0  0  0
   37.9656   -5.1573  -11.4393 C   0  0  0  0  0  0  0  0  0  0  0  0
   37.9508   -5.7257  -10.3221 O   0  0  0  0  0  0  0  0  0  0  0  0
   38.7082   -4.0108  -11.5418 O   0  0  0  0  0  0  0  0  0  0  0  0
  2  1  1  0
  3  2  2  0
  4  3  1  0
  5  4  2  0
  5 11  1  0
  6  5  1  0
  7  9  1  0
  7  6  1  0
  7  8  1  6
  9 10  2  0
 11 12  2  0
 12  2  1  0
 14 13  1  1
 15 14  1  0
 16 14  1  0
 16 17  1  1
 17  9  1  0
 18 16  1  0
 19 18  2  0
 20 21  1  0
 21 22  2  0
 23 24  1  0
 23 21  1  0
 24 25  1  0
 27 26  1  6
 26 25  1  0
 27 28  1  0
 28 18  1  0
 29 31  1  0
 29 27  1  0
 30 29  2  0
M  END
$$$$
