TVI.pdb
     RDKit          3D

 23 22  0  0  1  0  0  0  0  0999 V2000
    8.4570  -17.0459   18.2624 C   0  0  0  0  0  0  0  0  0  0  0  0
    8.0214  -16.5971   19.6319 C   0  0  1  0  0  0  0  0  0  0  0  0
    7.2776  -15.4218   19.5945 O   0  0  0  0  0  0  0  0  0  0  0  0
    7.2343  -17.7058   20.3148 C   0  0  2  0  0  0  0  0  0  0  0  0
    6.0208  -17.8618   19.5248 N   0  0  0  0  0  0  0  0  0  0  0  0
    6.9328  -17.3614   21.7179 C   0  0  0  0  0  0  0  0  0  0  0  0
    5.9503  -16.6250   22.0410 O   0  0  0  0  0  0  0  0  0  0  0  0
    7.1555  -18.3265   26.4760 C   0  0  0  0  0  0  0  0  0  0  0  0
    7.4481  -18.7627   25.0595 C   0  0  1  0  0  0  0  0  0  0  0  0
    6.4040  -19.7785   24.6674 C   0  0  0  0  0  0  0  0  0  0  0  0
    7.4085  -17.5398   24.1717 C   0  0  2  0  0  0  0  0  0  0  0  0
    7.7330  -17.8401   22.7975 N   0  0  0  0  0  0  0  0  0  0  0  0
    8.2380  -16.4235   24.7016 C   0  0  0  0  0  0  0  0  0  0  0  0
    9.4448  -16.3287   24.3587 O   0  0  0  0  0  0  0  0  0  0  0  0
    6.0272  -11.7535   27.2660 C   0  0  0  0  0  0  0  0  0  0  0  0
    6.6511  -13.1385   27.1683 C   0  0  0  0  0  0  0  0  0  0  0  0
    7.7528  -13.0683   26.1596 C   0  0  2  0  0  0  0  0  0  0  0  0
    7.1840  -12.6718   24.8086 C   0  0  0  0  0  0  0  0  0  0  0  0
    8.5436  -14.3536   26.0383 C   0  0  2  0  0  0  0  0  0  0  0  0
    7.7357  -15.4476   25.5851 N   0  0  0  0  0  0  0  0  0  0  0  0
    9.1862  -14.6914   27.3230 C   0  0  0  0  0  0  0  0  0  0  0  0
    8.8467  -15.8576   27.9896 O   0  0  0  0  0  0  0  0  0  0  0  0
   10.0485  -13.9506   27.8536 O   0  0  0  0  0  0  0  0  0  0  0  0
  2  1  1  6
  3  2  1  0
  4  2  1  0
  4  5  1  6
  6  7  2  0
  6  4  1  0
  9  8  1  1
  9 10  1  0
  9 11  1  0
 11 12  1  6
 12  6  1  0
 13 11  1  0
 13 20  1  0
 14 13  2  0
 15 16  1  0
 17 19  1  0
 17 16  1  0
 17 18  1  6
 19 21  1  0
 19 20  1  1
 21 23  2  0
 21 22  1  0
M  END
$$$$
