TVI.pdb
     RDKit          3D

 23 22  0  0  1  0  0  0  0  0999 V2000
    5.9987  -19.8938   22.7768 C   0  0  0  0  0  0  0  0  0  0  0  0
    6.8685  -18.6658   22.7291 C   0  0  1  0  0  0  0  0  0  0  0  0
    8.1361  -18.8915   23.2568 O   0  0  0  0  0  0  0  0  0  0  0  0
    6.9682  -18.1564   21.2990 C   0  0  2  0  0  0  0  0  0  0  0  0
    7.6108  -19.2278   20.5506 N   0  0  0  0  0  0  0  0  0  0  0  0
    7.7421  -16.9015   21.2310 C   0  0  0  0  0  0  0  0  0  0  0  0
    8.9742  -16.8784   20.9253 O   0  0  0  0  0  0  0  0  0  0  0  0
    8.0436  -12.0031   21.1981 C   0  0  0  0  0  0  0  0  0  0  0  0
    7.1810  -13.2280   21.0029 C   0  0  1  0  0  0  0  0  0  0  0  0
    6.9039  -13.3633   19.5262 C   0  0  0  0  0  0  0  0  0  0  0  0
    7.9282  -14.4230   21.5497 C   0  0  2  0  0  0  0  0  0  0  0  0
    7.1455  -15.6352   21.5060 N   0  0  0  0  0  0  0  0  0  0  0  0
    8.4836  -14.1754   22.9081 C   0  0  0  0  0  0  0  0  0  0  0  0
    9.1621  -13.1379   23.1227 O   0  0  0  0  0  0  0  0  0  0  0  0
    6.2946  -11.7161   26.0794 C   0  0  0  0  0  0  0  0  0  0  0  0
    7.4350  -12.4447   25.3825 C   0  0  0  0  0  0  0  0  0  0  0  0
    7.5057  -13.8251   25.9532 C   0  0  2  0  0  0  0  0  0  0  0  0
    7.6888  -13.7468   27.4587 C   0  0  0  0  0  0  0  0  0  0  0  0
    8.5937  -14.6787   25.3369 C   0  0  2  0  0  0  0  0  0  0  0  0
    8.2880  -15.0581   23.9887 N   0  0  0  0  0  0  0  0  0  0  0  0
    8.8428  -15.8773   26.1607 C   0  0  0  0  0  0  0  0  0  0  0  0
    9.6476  -15.7980   27.2858 O   0  0  0  0  0  0  0  0  0  0  0  0
    8.3464  -16.9950   25.8809 O   0  0  0  0  0  0  0  0  0  0  0  0
  2  1  1  6
  3  2  1  0
  4  2  1  0
  4  5  1  6
  6  7  2  0
  6  4  1  0
  9  8  1  6
  9 10  1  0
  9 11  1  0
 11 12  1  1
 12  6  1  0
 13 11  1  0
 13 20  1  0
 14 13  2  0
 15 16  1  0
 17 19  1  0
 17 16  1  0
 17 18  1  1
 19 21  1  0
 19 20  1  6
 21 23  2  0
 21 22  1  0
M  END
$$$$
