TVI.pdb
     RDKit          3D

 23 22  0  0  1  0  0  0  0  0999 V2000
   10.8207  -14.0575   20.4301 C   0  0  0  0  0  0  0  0  0  0  0  0
    9.9275  -13.3286   19.4617 C   0  0  1  0  0  0  0  0  0  0  0  0
   10.5949  -12.9583   18.2984 O   0  0  0  0  0  0  0  0  0  0  0  0
    8.7134  -14.1842   19.1316 C   0  0  2  0  0  0  0  0  0  0  0  0
    7.9040  -13.3757   18.2304 N   0  0  0  0  0  0  0  0  0  0  0  0
    7.9703  -14.5519   20.3526 C   0  0  0  0  0  0  0  0  0  0  0  0
    7.2915  -13.7081   21.0153 O   0  0  0  0  0  0  0  0  0  0  0  0
    6.2021  -17.9124   23.4775 C   0  0  0  0  0  0  0  0  0  0  0  0
    6.9730  -17.6916   22.1972 C   0  0  1  0  0  0  0  0  0  0  0  0
    6.0989  -18.1395   21.0523 C   0  0  0  0  0  0  0  0  0  0  0  0
    7.3198  -16.2232   22.1028 C   0  0  2  0  0  0  0  0  0  0  0  0
    7.9722  -15.8851   20.8602 N   0  0  0  0  0  0  0  0  0  0  0  0
    8.0948  -15.7435   23.2793 C   0  0  0  0  0  0  0  0  0  0  0  0
    9.3299  -15.9734   23.3457 O   0  0  0  0  0  0  0  0  0  0  0  0
    6.1345  -11.8351   27.0558 C   0  0  0  0  0  0  0  0  0  0  0  0
    6.4860  -13.2551   26.6352 C   0  0  0  0  0  0  0  0  0  0  0  0
    7.8135  -13.2079   25.9481 C   0  0  2  0  0  0  0  0  0  0  0  0
    7.7590  -12.2162   24.7992 C   0  0  0  0  0  0  0  0  0  0  0  0
    8.2856  -14.5583   25.4526 C   0  0  2  0  0  0  0  0  0  0  0  0
    7.5087  -15.0324   24.3451 N   0  0  0  0  0  0  0  0  0  0  0  0
    8.2708  -15.5475   26.5474 C   0  0  0  0  0  0  0  0  0  0  0  0
    9.2140  -15.4841   27.5604 O   0  0  0  0  0  0  0  0  0  0  0  0
    7.4206  -16.4684   26.6041 O   0  0  0  0  0  0  0  0  0  0  0  0
  2  1  1  1
  3  2  1  0
  4  2  1  0
  4  5  1  6
  6  7  2  0
  6  4  1  0
  9  8  1  1
  9 10  1  0
  9 11  1  0
 11 12  1  6
 12  6  1  0
 13 11  1  0
 13 20  1  0
 14 13  2  0
 15 16  1  0
 17 19  1  0
 17 16  1  0
 17 18  1  6
 19 21  1  0
 19 20  1  6
 21 23  2  0
 21 22  1  0
M  END
$$$$
