TVI.pdb
     RDKit          3D

 23 22  0  0  1  0  0  0  0  0999 V2000
   13.9841  -15.7414   21.4671 C   0  0  0  0  0  0  0  0  0  0  0  0
   13.2282  -16.7547   20.6494 C   0  0  1  0  0  0  0  0  0  0  0  0
   14.0572  -17.7445   20.1307 O   0  0  0  0  0  0  0  0  0  0  0  0
   12.1181  -17.3724   21.4866 C   0  0  2  0  0  0  0  0  0  0  0  0
   11.5416  -18.4185   20.6533 N   0  0  0  0  0  0  0  0  0  0  0  0
   11.1124  -16.3625   21.8701 C   0  0  0  0  0  0  0  0  0  0  0  0
   11.4149  -15.3146   22.5198 O   0  0  0  0  0  0  0  0  0  0  0  0
    6.4603  -14.7042   21.8857 C   0  0  0  0  0  0  0  0  0  0  0  0
    7.4111  -15.7301   21.3150 C   0  0  1  0  0  0  0  0  0  0  0  0
    7.5575  -15.4495   19.8400 C   0  0  0  0  0  0  0  0  0  0  0  0
    8.7286  -15.6105   22.0466 C   0  0  2  0  0  0  0  0  0  0  0  0
    9.7347  -16.5074   21.5296 N   0  0  0  0  0  0  0  0  0  0  0  0
    8.5764  -15.7456   23.5209 C   0  0  0  0  0  0  0  0  0  0  0  0
    8.7921  -16.8574   24.0688 O   0  0  0  0  0  0  0  0  0  0  0  0
    5.8145  -11.9609   26.8657 C   0  0  0  0  0  0  0  0  0  0  0  0
    6.1816  -13.2328   26.1146 C   0  0  0  0  0  0  0  0  0  0  0  0
    7.6004  -13.5638   26.4519 C   0  0  2  0  0  0  0  0  0  0  0  0
    8.4956  -12.3869   26.1061 C   0  0  0  0  0  0  0  0  0  0  0  0
    8.1044  -14.8216   25.7765 C   0  0  2  0  0  0  0  0  0  0  0  0
    8.1950  -14.6748   24.3535 N   0  0  0  0  0  0  0  0  0  0  0  0
    7.2471  -15.9733   26.1174 C   0  0  0  0  0  0  0  0  0  0  0  0
    7.4601  -16.6811   27.2894 O   0  0  0  0  0  0  0  0  0  0  0  0
    6.3097  -16.3513   25.3743 O   0  0  0  0  0  0  0  0  0  0  0  0
  2  1  1  1
  3  2  1  0
  4  2  1  0
  4  5  1  6
  6  7  2  0
  6  4  1  0
  9  8  1  1
  9 10  1  0
  9 11  1  0
 11 12  1  6
 12  6  1  0
 13 11  1  0
 13 20  1  0
 14 13  2  0
 15 16  1  0
 17 19  1  0
 17 16  1  0
 17 18  1  6
 19 21  1  0
 19 20  1  6
 21 23  2  0
 21 22  1  0
M  END
$$$$
