TVI.pdb
     RDKit          3D

 23 22  0  0  1  0  0  0  0  0999 V2000
   10.3679  -17.1341   18.2256 C   0  0  0  0  0  0  0  0  0  0  0  0
    9.6966  -16.6198   19.4712 C   0  0  1  0  0  0  0  0  0  0  0  0
    9.4907  -15.2441   19.4347 O   0  0  0  0  0  0  0  0  0  0  0  0
    8.3805  -17.3511   19.6905 C   0  0  2  0  0  0  0  0  0  0  0  0
    7.5293  -16.9583   18.5759 N   0  0  0  0  0  0  0  0  0  0  0  0
    7.7796  -16.9928   20.9900 C   0  0  0  0  0  0  0  0  0  0  0  0
    6.9036  -16.0811   21.1056 O   0  0  0  0  0  0  0  0  0  0  0  0
    6.4832  -18.2348   25.5117 C   0  0  0  0  0  0  0  0  0  0  0  0
    7.1092  -18.6379   24.1971 C   0  0  1  0  0  0  0  0  0  0  0  0
    6.0976  -19.4633   23.4413 C   0  0  0  0  0  0  0  0  0  0  0  0
    7.4850  -17.3797   23.4482 C   0  0  2  0  0  0  0  0  0  0  0  0
    8.1510  -17.6555   22.1975 N   0  0  0  0  0  0  0  0  0  0  0  0
    8.2626  -16.4276   24.2872 C   0  0  0  0  0  0  0  0  0  0  0  0
    9.5045  -16.5830   24.4153 O   0  0  0  0  0  0  0  0  0  0  0  0
    6.1374  -11.6784   26.9866 C   0  0  0  0  0  0  0  0  0  0  0  0
    6.4717  -13.1081   26.5853 C   0  0  0  0  0  0  0  0  0  0  0  0
    7.8061  -13.0882   25.9105 C   0  0  2  0  0  0  0  0  0  0  0  0
    7.6768  -12.4436   24.5416 C   0  0  0  0  0  0  0  0  0  0  0  0
    8.4411  -14.4571   25.7871 C   0  0  2  0  0  0  0  0  0  0  0  0
    7.6717  -15.3401   24.9606 N   0  0  0  0  0  0  0  0  0  0  0  0
    8.6479  -15.0558   27.1198 C   0  0  0  0  0  0  0  0  0  0  0  0
    9.6220  -14.5548   27.9683 O   0  0  0  0  0  0  0  0  0  0  0  0
    7.9640  -16.0241   27.5304 O   0  0  0  0  0  0  0  0  0  0  0  0
  2  1  1  6
  3  2  1  0
  4  2  1  0
  4  5  1  6
  6  7  2  0
  6  4  1  0
  9  8  1  1
  9 10  1  0
  9 11  1  0
 11 12  1  6
 12  6  1  0
 13 11  1  0
 13 20  1  0
 14 13  2  0
 15 16  1  0
 17 19  1  0
 17 16  1  0
 17 18  1  6
 19 21  1  0
 19 20  1  6
 21 23  2  0
 21 22  1  0
M  END
$$$$
