TVI.pdb
     RDKit          3D

 23 22  0  0  1  0  0  0  0  0999 V2000
    6.4728  -18.3805   22.9971 C   0  0  0  0  0  0  0  0  0  0  0  0
    7.4079  -19.0558   22.0294 C   0  0  1  0  0  0  0  0  0  0  0  0
    7.0422  -20.3726   21.7679 O   0  0  0  0  0  0  0  0  0  0  0  0
    7.4834  -18.2558   20.7375 C   0  0  2  0  0  0  0  0  0  0  0  0
    8.2052  -19.1038   19.7989 N   0  0  0  0  0  0  0  0  0  0  0  0
    8.1684  -16.9654   20.9467 C   0  0  0  0  0  0  0  0  0  0  0  0
    9.4315  -16.8729   21.0358 O   0  0  0  0  0  0  0  0  0  0  0  0
    8.0807  -12.0414   20.9557 C   0  0  0  0  0  0  0  0  0  0  0  0
    7.3151  -13.3144   20.6808 C   0  0  1  0  0  0  0  0  0  0  0  0
    7.1104  -13.4137   19.1895 C   0  0  0  0  0  0  0  0  0  0  0  0
    8.1206  -14.4749   21.2192 C   0  0  2  0  0  0  0  0  0  0  0  0
    7.4454  -15.7410   21.0607 N   0  0  0  0  0  0  0  0  0  0  0  0
    8.5624  -14.2591   22.6240 C   0  0  0  0  0  0  0  0  0  0  0  0
    9.4015  -13.3574   22.8802 O   0  0  0  0  0  0  0  0  0  0  0  0
    6.3346  -11.5885   26.2864 C   0  0  0  0  0  0  0  0  0  0  0  0
    7.5436  -12.3223   25.7236 C   0  0  0  0  0  0  0  0  0  0  0  0
    7.1781  -13.7670   25.5986 C   0  0  2  0  0  0  0  0  0  0  0  0
    6.7046  -14.2922   26.9424 C   0  0  0  0  0  0  0  0  0  0  0  0
    8.3015  -14.6304   25.0650 C   0  0  2  0  0  0  0  0  0  0  0  0
    8.0832  -15.0259   23.7046 N   0  0  0  0  0  0  0  0  0  0  0  0
    8.4930  -15.8192   25.9179 C   0  0  0  0  0  0  0  0  0  0  0  0
    8.2502  -17.0873   25.4152 O   0  0  0  0  0  0  0  0  0  0  0  0
    8.8753  -15.7316   27.1096 O   0  0  0  0  0  0  0  0  0  0  0  0
  2  1  1  1
  3  2  1  0
  4  2  1  0
  4  5  1  6
  6  7  2  0
  6  4  1  0
  9  8  1  6
  9 10  1  0
  9 11  1  0
 11 12  1  1
 12  6  1  0
 13 11  1  0
 13 20  1  0
 14 13  2  0
 15 16  1  0
 17 19  1  0
 17 16  1  0
 17 18  1  1
 19 21  1  0
 19 20  1  6
 21 23  2  0
 21 22  1  0
M  END
$$$$
