TVI.pdb
     RDKit          3D

 23 22  0  0  1  0  0  0  0  0999 V2000
    8.7881  -12.7039   19.9333 C   0  0  0  0  0  0  0  0  0  0  0  0
    8.0746  -13.4465   18.8351 C   0  0  1  0  0  0  0  0  0  0  0  0
    8.5339  -13.0943   17.5698 O   0  0  0  0  0  0  0  0  0  0  0  0
    8.2067  -14.9465   19.0528 C   0  0  2  0  0  0  0  0  0  0  0  0
    7.4232  -15.5621   17.9907 N   0  0  0  0  0  0  0  0  0  0  0  0
    7.7184  -15.3380   20.3895 C   0  0  0  0  0  0  0  0  0  0  0  0
    6.5018  -15.2162   20.7313 O   0  0  0  0  0  0  0  0  0  0  0  0
    7.7501  -18.1064   24.2840 C   0  0  0  0  0  0  0  0  0  0  0  0
    8.3024  -17.7771   22.9170 C   0  0  1  0  0  0  0  0  0  0  0  0
    7.5632  -18.6208   21.9082 C   0  0  0  0  0  0  0  0  0  0  0  0
    8.1036  -16.2988   22.6716 C   0  0  2  0  0  0  0  0  0  0  0  0
    8.5915  -15.8795   21.3792 N   0  0  0  0  0  0  0  0  0  0  0  0
    8.6584  -15.4591   23.7679 C   0  0  0  0  0  0  0  0  0  0  0  0
    9.8909  -15.2079   23.7956 O   0  0  0  0  0  0  0  0  0  0  0  0
    5.5607  -11.9367   27.1034 C   0  0  0  0  0  0  0  0  0  0  0  0
    6.2568  -13.2482   26.7684 C   0  0  0  0  0  0  0  0  0  0  0  0
    7.5884  -12.9149   26.1751 C   0  0  2  0  0  0  0  0  0  0  0  0
    7.3952  -12.0670   24.9302 C   0  0  0  0  0  0  0  0  0  0  0  0
    8.4287  -14.1328   25.8542 C   0  0  2  0  0  0  0  0  0  0  0  0
    7.8629  -14.9201   24.7983 N   0  0  0  0  0  0  0  0  0  0  0  0
    8.6248  -14.9608   27.0597 C   0  0  0  0  0  0  0  0  0  0  0  0
    8.0827  -16.2340   27.1296 O   0  0  0  0  0  0  0  0  0  0  0  0
    9.2770  -14.5534   28.0510 O   0  0  0  0  0  0  0  0  0  0  0  0
  2  1  1  1
  3  2  1  0
  4  2  1  0
  4  5  1  6
  6  7  2  0
  6  4  1  0
  9  8  1  1
  9 10  1  0
  9 11  1  0
 11 12  1  6
 12  6  1  0
 13 11  1  0
 13 20  1  0
 14 13  2  0
 15 16  1  0
 17 19  1  0
 17 16  1  0
 17 18  1  6
 19 21  1  0
 19 20  1  6
 21 23  2  0
 21 22  1  0
M  END
$$$$
