TVI.pdb
     RDKit          3D

 23 22  0  0  1  0  0  0  0  0999 V2000
   11.3716  -19.3383   22.2740 C   0  0  0  0  0  0  0  0  0  0  0  0
   12.2831  -18.6084   21.3238 C   0  0  1  0  0  0  0  0  0  0  0  0
   12.9516  -19.4708   20.4603 O   0  0  0  0  0  0  0  0  0  0  0  0
   11.4915  -17.5736   20.5380 C   0  0  2  0  0  0  0  0  0  0  0  0
   12.4488  -16.9674   19.6230 N   0  0  0  0  0  0  0  0  0  0  0  0
   10.8828  -16.5719   21.4349 C   0  0  0  0  0  0  0  0  0  0  0  0
   11.5731  -15.7028   22.0513 O   0  0  0  0  0  0  0  0  0  0  0  0
    6.9144  -14.5724   23.5929 C   0  0  0  0  0  0  0  0  0  0  0  0
    7.4368  -15.3800   22.4279 C   0  0  1  0  0  0  0  0  0  0  0  0
    7.2255  -14.5673   21.1747 C   0  0  0  0  0  0  0  0  0  0  0  0
    8.9000  -15.6699   22.6735 C   0  0  2  0  0  0  0  0  0  0  0  0
    9.4751  -16.5229   21.6607 N   0  0  0  0  0  0  0  0  0  0  0  0
    9.1555  -16.1930   24.0432 C   0  0  0  0  0  0  0  0  0  0  0  0
    8.9529  -17.4096   24.2919 O   0  0  0  0  0  0  0  0  0  0  0  0
    9.6228  -12.5452   28.1719 C   0  0  0  0  0  0  0  0  0  0  0  0
    9.8070  -13.4739   26.9801 C   0  0  0  0  0  0  0  0  0  0  0  0
    9.7587  -14.8790   27.4898 C   0  0  2  0  0  0  0  0  0  0  0  0
   10.8378  -15.0790   28.5394 C   0  0  0  0  0  0  0  0  0  0  0  0
    9.8883  -15.9218   26.3999 C   0  0  2  0  0  0  0  0  0  0  0  0
    9.6203  -15.3835   25.0986 N   0  0  0  0  0  0  0  0  0  0  0  0
    9.0008  -17.0692   26.6706 C   0  0  0  0  0  0  0  0  0  0  0  0
    9.4927  -18.2006   27.3011 O   0  0  0  0  0  0  0  0  0  0  0  0
    7.7888  -17.0670   26.3465 O   0  0  0  0  0  0  0  0  0  0  0  0
  2  1  1  6
  3  2  1  0
  4  2  1  0
  4  5  1  6
  6  7  2  0
  6  4  1  0
  9  8  1  1
  9 10  1  0
  9 11  1  0
 11 12  1  6
 12  6  1  0
 13 11  1  0
 13 20  1  0
 14 13  2  0
 15 16  1  0
 17 19  1  0
 17 16  1  0
 17 18  1  1
 19 21  1  0
 19 20  1  6
 21 23  2  0
 21 22  1  0
M  END
$$$$
