TVI.pdb
     RDKit          3D

 23 22  0  0  1  0  0  0  0  0999 V2000
    7.1193  -19.3428   25.0978 C   0  0  0  0  0  0  0  0  0  0  0  0
    7.4540  -20.1633   23.8806 C   0  0  1  0  0  0  0  0  0  0  0  0
    6.8729  -21.4271   23.9152 O   0  0  0  0  0  0  0  0  0  0  0  0
    7.0361  -19.4177   22.6218 C   0  0  2  0  0  0  0  0  0  0  0  0
    7.2016  -20.3719   21.5341 N   0  0  0  0  0  0  0  0  0  0  0  0
    7.8581  -18.2089   22.4185 C   0  0  0  0  0  0  0  0  0  0  0  0
    9.0394  -18.2601   21.9561 O   0  0  0  0  0  0  0  0  0  0  0  0
    8.2819  -13.3107   22.1469 C   0  0  0  0  0  0  0  0  0  0  0  0
    7.3452  -14.4701   22.3935 C   0  0  1  0  0  0  0  0  0  0  0  0
    6.3946  -14.5485   21.2247 C   0  0  0  0  0  0  0  0  0  0  0  0
    8.1753  -15.7258   22.5322 C   0  0  2  0  0  0  0  0  0  0  0  0
    7.3684  -16.9062   22.7315 N   0  0  0  0  0  0  0  0  0  0  0  0
    9.2312  -15.5992   23.5734 C   0  0  0  0  0  0  0  0  0  0  0  0
   10.4179  -15.3613   23.2296 O   0  0  0  0  0  0  0  0  0  0  0  0
    9.7996  -13.0543   28.9257 C   0  0  0  0  0  0  0  0  0  0  0  0
   10.3702  -14.2127   28.1199 C   0  0  0  0  0  0  0  0  0  0  0  0
    9.3738  -14.5612   27.0607 C   0  0  2  0  0  0  0  0  0  0  0  0
    8.1858  -15.2678   27.6895 C   0  0  0  0  0  0  0  0  0  0  0  0
    9.9508  -15.4016   25.9414 C   0  0  2  0  0  0  0  0  0  0  0  0
    8.9695  -15.7350   24.9511 N   0  0  0  0  0  0  0  0  0  0  0  0
   10.5706  -16.6280   26.4792 C   0  0  0  0  0  0  0  0  0  0  0  0
   11.8270  -16.5795   27.0614 O   0  0  0  0  0  0  0  0  0  0  0  0
    9.9966  -17.7426   26.4315 O   0  0  0  0  0  0  0  0  0  0  0  0
  2  1  1  1
  3  2  1  0
  4  2  1  0
  4  5  1  6
  6  7  2  0
  6  4  1  0
  9  8  1  6
  9 10  1  0
  9 11  1  0
 11 12  1  1
 12  6  1  0
 13 11  1  0
 13 20  1  0
 14 13  2  0
 15 16  1  0
 17 19  1  0
 17 16  1  0
 17 18  1  1
 19 21  1  0
 19 20  1  6
 21 23  2  0
 21 22  1  0
M  END
$$$$
