TVI.pdb
     RDKit          3D

 23 22  0  0  1  0  0  0  0  0999 V2000
   12.4706  -17.1161   21.4583 C   0  0  0  0  0  0  0  0  0  0  0  0
   13.3679  -16.0593   20.8711 C   0  0  1  0  0  0  0  0  0  0  0  0
   14.4932  -16.5992   20.2561 O   0  0  0  0  0  0  0  0  0  0  0  0
   12.5840  -15.1998   19.8905 C   0  0  2  0  0  0  0  0  0  0  0  0
   13.5618  -14.2959   19.3008 N   0  0  0  0  0  0  0  0  0  0  0  0
   11.5005  -14.4645   20.5714 C   0  0  0  0  0  0  0  0  0  0  0  0
   11.7257  -13.4757   21.3353 O   0  0  0  0  0  0  0  0  0  0  0  0
    6.7442  -13.3539   21.0964 C   0  0  0  0  0  0  0  0  0  0  0  0
    7.7935  -14.0679   20.2771 C   0  0  1  0  0  0  0  0  0  0  0  0
    7.9627  -13.3076   18.9852 C   0  0  0  0  0  0  0  0  0  0  0  0
    9.0731  -14.1080   21.0811 C   0  0  2  0  0  0  0  0  0  0  0  0
   10.1300  -14.8250   20.4082 N   0  0  0  0  0  0  0  0  0  0  0  0
    8.8611  -14.6121   22.4653 C   0  0  0  0  0  0  0  0  0  0  0  0
    9.2667  -15.7615   22.7772 O   0  0  0  0  0  0  0  0  0  0  0  0
    7.0698  -11.1195   26.5574 C   0  0  0  0  0  0  0  0  0  0  0  0
    8.0124  -12.0672   25.8293 C   0  0  0  0  0  0  0  0  0  0  0  0
    7.3136  -13.3820   25.6904 C   0  0  2  0  0  0  0  0  0  0  0  0
    7.0907  -13.9897   27.0641 C   0  0  0  0  0  0  0  0  0  0  0  0
    8.0427  -14.3621   24.7960 C   0  0  2  0  0  0  0  0  0  0  0  0
    8.2169  -13.8574   23.4656 N   0  0  0  0  0  0  0  0  0  0  0  0
    7.3377  -15.6580   24.7622 C   0  0  0  0  0  0  0  0  0  0  0  0
    7.8381  -16.7450   25.4608 O   0  0  0  0  0  0  0  0  0  0  0  0
    6.2780  -15.8252   24.1119 O   0  0  0  0  0  0  0  0  0  0  0  0
  2  1  1  6
  3  2  1  0
  4  2  1  0
  4  5  1  1
  6  7  2  0
  6  4  1  0
  9  8  1  1
  9 10  1  0
  9 11  1  0
 11 12  1  6
 12  6  1  0
 13 11  1  0
 13 20  1  0
 14 13  2  0
 15 16  1  0
 17 19  1  0
 17 16  1  0
 17 18  1  1
 19 21  1  0
 19 20  1  6
 21 23  2  0
 21 22  1  0
M  END
$$$$
