TVI.pdb
     RDKit          3D

 23 22  0  0  1  0  0  0  0  0999 V2000
   11.7268  -19.5474   19.4235 C   0  0  0  0  0  0  0  0  0  0  0  0
   11.2936  -18.7003   20.5904 C   0  0  1  0  0  0  0  0  0  0  0  0
   12.0332  -18.9606   21.7399 O   0  0  0  0  0  0  0  0  0  0  0  0
   11.3803  -17.2267   20.2218 C   0  0  2  0  0  0  0  0  0  0  0  0
   12.7972  -16.9630   20.0126 N   0  0  0  0  0  0  0  0  0  0  0  0
   10.8171  -16.3748   21.2873 C   0  0  0  0  0  0  0  0  0  0  0  0
   11.5482  -15.7592   22.1230 O   0  0  0  0  0  0  0  0  0  0  0  0
    6.9681  -14.0707   23.3454 C   0  0  0  0  0  0  0  0  0  0  0  0
    7.4513  -14.9054   22.1826 C   0  0  1  0  0  0  0  0  0  0  0  0
    7.3834  -14.0483   20.9431 C   0  0  0  0  0  0  0  0  0  0  0  0
    8.8628  -15.3572   22.4808 C   0  0  2  0  0  0  0  0  0  0  0  0
    9.4103  -16.1932   21.4390 N   0  0  0  0  0  0  0  0  0  0  0  0
    8.9864  -15.9949   23.8198 C   0  0  0  0  0  0  0  0  0  0  0  0
    8.8923  -17.2452   23.9240 O   0  0  0  0  0  0  0  0  0  0  0  0
   10.1242  -12.7177   28.2307 C   0  0  0  0  0  0  0  0  0  0  0  0
   10.3165  -13.7225   27.1037 C   0  0  0  0  0  0  0  0  0  0  0  0
    9.4674  -14.9146   27.4107 C   0  0  2  0  0  0  0  0  0  0  0  0
    9.9829  -15.5998   28.6640 C   0  0  0  0  0  0  0  0  0  0  0  0
    9.3819  -15.9056   26.2693 C   0  0  2  0  0  0  0  0  0  0  0  0
    9.2064  -15.2599   25.0015 N   0  0  0  0  0  0  0  0  0  0  0  0
    8.2943  -16.8750   26.5034 C   0  0  0  0  0  0  0  0  0  0  0  0
    8.5563  -18.0819   27.1315 O   0  0  0  0  0  0  0  0  0  0  0  0
    7.1118  -16.6505   26.1496 O   0  0  0  0  0  0  0  0  0  0  0  0
  2  1  1  6
  3  2  1  0
  4  2  1  0
  4  5  1  1
  6  7  2  0
  6  4  1  0
  9  8  1  1
  9 10  1  0
  9 11  1  0
 11 12  1  6
 12  6  1  0
 13 11  1  0
 13 20  1  0
 14 13  2  0
 15 16  1  0
 17 19  1  0
 17 16  1  0
 17 18  1  1
 19 21  1  0
 19 20  1  6
 21 23  2  0
 21 22  1  0
M  END
$$$$
