TVI.pdb
     RDKit          3D

 23 22  0  0  1  0  0  0  0  0999 V2000
   11.3603  -19.8290   19.6153 C   0  0  0  0  0  0  0  0  0  0  0  0
   11.0936  -18.8228   20.7030 C   0  0  1  0  0  0  0  0  0  0  0  0
   12.0556  -18.8584   21.7077 O   0  0  0  0  0  0  0  0  0  0  0  0
   10.9967  -17.4269   20.1055 C   0  0  2  0  0  0  0  0  0  0  0  0
   12.3297  -17.1290   19.6002 N   0  0  0  0  0  0  0  0  0  0  0  0
   10.5620  -16.4420   21.1151 C   0  0  0  0  0  0  0  0  0  0  0  0
   11.3783  -15.6725   21.7097 O   0  0  0  0  0  0  0  0  0  0  0  0
    7.0526  -14.1130   23.6636 C   0  0  0  0  0  0  0  0  0  0  0  0
    7.3769  -14.9440   22.4443 C   0  0  1  0  0  0  0  0  0  0  0  0
    7.2273  -14.0582   21.2324 C   0  0  0  0  0  0  0  0  0  0  0  0
    8.7876  -15.4669   22.5916 C   0  0  2  0  0  0  0  0  0  0  0  0
    9.1910  -16.2974   21.4819 N   0  0  0  0  0  0  0  0  0  0  0  0
    9.0103  -16.1466   23.8968 C   0  0  0  0  0  0  0  0  0  0  0  0
    8.7846  -17.3798   24.0020 O   0  0  0  0  0  0  0  0  0  0  0  0
   10.0064  -13.3613   28.8632 C   0  0  0  0  0  0  0  0  0  0  0  0
    9.3197  -14.1863   27.7840 C   0  0  0  0  0  0  0  0  0  0  0  0
   10.2809  -15.2435   27.3426 C   0  0  2  0  0  0  0  0  0  0  0  0
   11.5661  -14.5955   26.8584 C   0  0  0  0  0  0  0  0  0  0  0  0
    9.7221  -16.1605   26.2754 C   0  0  2  0  0  0  0  0  0  0  0  0
    9.4686  -15.4703   25.0448 N   0  0  0  0  0  0  0  0  0  0  0  0
    8.4928  -16.8233   26.7517 C   0  0  0  0  0  0  0  0  0  0  0  0
    8.5675  -17.8635   27.6640 O   0  0  0  0  0  0  0  0  0  0  0  0
    7.3526  -16.4792   26.3572 O   0  0  0  0  0  0  0  0  0  0  0  0
  2  1  1  6
  3  2  1  0
  4  2  1  0
  4  5  1  1
  6  7  2  0
  6  4  1  0
  9  8  1  1
  9 10  1  0
  9 11  1  0
 11 12  1  6
 12  6  1  0
 13 11  1  0
 13 20  1  0
 14 13  2  0
 15 16  1  0
 17 19  1  0
 17 16  1  0
 17 18  1  6
 19 21  1  0
 19 20  1  6
 21 23  2  0
 21 22  1  0
M  END
$$$$
