TVI.pdb
     RDKit          3D

 23 22  0  0  1  0  0  0  0  0999 V2000
   11.6817  -19.8651   19.4149 C   0  0  0  0  0  0  0  0  0  0  0  0
   11.4193  -18.8781   20.5211 C   0  0  1  0  0  0  0  0  0  0  0  0
   12.4805  -18.7888   21.4166 O   0  0  0  0  0  0  0  0  0  0  0  0
   11.1011  -17.5118   19.9321 C   0  0  2  0  0  0  0  0  0  0  0  0
   12.3331  -17.0691   19.2942 N   0  0  0  0  0  0  0  0  0  0  0  0
   10.6572  -16.5690   20.9773 C   0  0  0  0  0  0  0  0  0  0  0  0
   11.4515  -15.7524   21.5378 O   0  0  0  0  0  0  0  0  0  0  0  0
    7.0311  -14.0855   23.1556 C   0  0  0  0  0  0  0  0  0  0  0  0
    7.4153  -15.0990   22.1032 C   0  0  1  0  0  0  0  0  0  0  0  0
    7.2490  -14.4450   20.7541 C   0  0  0  0  0  0  0  0  0  0  0  0
    8.8450  -15.5209   22.3545 C   0  0  2  0  0  0  0  0  0  0  0  0
    9.3017  -16.5213   21.4193 N   0  0  0  0  0  0  0  0  0  0  0  0
    9.0768  -15.9389   23.7639 C   0  0  0  0  0  0  0  0  0  0  0  0
    9.0844  -17.1626   24.0562 O   0  0  0  0  0  0  0  0  0  0  0  0
   10.2788  -13.4793   29.3249 C   0  0  0  0  0  0  0  0  0  0  0  0
   10.3830  -14.6985   28.4196 C   0  0  0  0  0  0  0  0  0  0  0  0
    9.9502  -14.2831   27.0497 C   0  0  2  0  0  0  0  0  0  0  0  0
    8.7202  -13.3981   27.1490 C   0  0  0  0  0  0  0  0  0  0  0  0
    9.6834  -15.4487   26.1211 C   0  0  2  0  0  0  0  0  0  0  0  0
    9.2916  -15.0203   24.8105 N   0  0  0  0  0  0  0  0  0  0  0  0
    8.6595  -16.3445   26.6928 C   0  0  0  0  0  0  0  0  0  0  0  0
    9.0172  -17.3221   27.6072 O   0  0  0  0  0  0  0  0  0  0  0  0
    7.4476  -16.2592   26.3799 O   0  0  0  0  0  0  0  0  0  0  0  0
  2  1  1  6
  3  2  1  0
  4  2  1  0
  4  5  1  1
  6  7  2  0
  6  4  1  0
  9  8  1  1
  9 10  1  0
  9 11  1  0
 11 12  1  6
 12  6  1  0
 13 11  1  0
 13 20  1  0
 14 13  2  0
 15 16  1  0
 17 19  1  0
 17 16  1  0
 17 18  1  1
 19 21  1  0
 19 20  1  6
 21 23  2  0
 21 22  1  0
M  END
$$$$
