TVI.pdb
     RDKit          3D

 23 22  0  0  1  0  0  0  0  0999 V2000
   11.1791  -19.0553   23.1181 C   0  0  0  0  0  0  0  0  0  0  0  0
   12.2774  -18.5081   22.2457 C   0  0  1  0  0  0  0  0  0  0  0  0
   13.1116  -19.5064   21.7522 O   0  0  0  0  0  0  0  0  0  0  0  0
   11.6786  -17.6997   21.1043 C   0  0  2  0  0  0  0  0  0  0  0  0
   12.8131  -17.2665   20.3003 N   0  0  0  0  0  0  0  0  0  0  0  0
   10.8989  -16.5540   21.6118 C   0  0  0  0  0  0  0  0  0  0  0  0
   11.4296  -15.6121   22.2774 O   0  0  0  0  0  0  0  0  0  0  0  0
    6.6920  -14.0077   21.9545 C   0  0  0  0  0  0  0  0  0  0  0  0
    7.4610  -15.0691   21.2032 C   0  0  1  0  0  0  0  0  0  0  0  0
    7.7795  -14.5220   19.8339 C   0  0  0  0  0  0  0  0  0  0  0  0
    8.7120  -15.3901   21.9887 C   0  0  2  0  0  0  0  0  0  0  0  0
    9.4959  -16.4390   21.3811 N   0  0  0  0  0  0  0  0  0  0  0  0
    8.4281  -15.6752   23.4216 C   0  0  0  0  0  0  0  0  0  0  0  0
    8.4482  -16.8634   23.8348 O   0  0  0  0  0  0  0  0  0  0  0  0
    5.9329  -11.9598   27.0309 C   0  0  0  0  0  0  0  0  0  0  0  0
    6.2835  -13.0646   26.0443 C   0  0  0  0  0  0  0  0  0  0  0  0
    7.5226  -13.7384   26.5413 C   0  0  2  0  0  0  0  0  0  0  0  0
    8.6717  -12.7458   26.5591 C   0  0  0  0  0  0  0  0  0  0  0  0
    7.9039  -14.9669   25.7428 C   0  0  2  0  0  0  0  0  0  0  0  0
    8.1309  -14.6667   24.3596 N   0  0  0  0  0  0  0  0  0  0  0  0
    6.8723  -16.0136   25.8756 C   0  0  0  0  0  0  0  0  0  0  0  0
    6.8666  -16.8545   26.9767 O   0  0  0  0  0  0  0  0  0  0  0  0
    5.9764  -16.1815   25.0135 O   0  0  0  0  0  0  0  0  0  0  0  0
  2  1  1  6
  3  2  1  0
  4  2  1  0
  4  5  1  6
  6  7  2  0
  6  4  1  0
  9  8  1  1
  9 10  1  0
  9 11  1  0
 11 12  1  6
 12  6  1  0
 13 11  1  0
 13 20  1  0
 14 13  2  0
 15 16  1  0
 17 19  1  0
 17 16  1  0
 17 18  1  6
 19 21  1  0
 19 20  1  6
 21 23  2  0
 21 22  1  0
M  END
$$$$
