TVI.pdb
     RDKit          3D

 23 22  0  0  1  0  0  0  0  0999 V2000
    8.7588  -12.5565   19.8605 C   0  0  0  0  0  0  0  0  0  0  0  0
    8.0799  -13.3110   18.7484 C   0  0  1  0  0  0  0  0  0  0  0  0
    8.4726  -12.8687   17.4890 O   0  0  0  0  0  0  0  0  0  0  0  0
    8.3436  -14.8020   18.8972 C   0  0  2  0  0  0  0  0  0  0  0  0
    7.6447  -15.4313   17.7852 N   0  0  0  0  0  0  0  0  0  0  0  0
    7.8621  -15.3030   20.1993 C   0  0  0  0  0  0  0  0  0  0  0  0
    6.6268  -15.4023   20.4748 O   0  0  0  0  0  0  0  0  0  0  0  0
    8.1486  -18.1485   24.0133 C   0  0  0  0  0  0  0  0  0  0  0  0
    8.5806  -17.7197   22.6306 C   0  0  1  0  0  0  0  0  0  0  0  0
    7.8121  -18.5491   21.6320 C   0  0  0  0  0  0  0  0  0  0  0  0
    8.2898  -16.2436   22.4822 C   0  0  2  0  0  0  0  0  0  0  0  0
    8.7635  -15.7072   21.2285 N   0  0  0  0  0  0  0  0  0  0  0  0
    8.7780  -15.4471   23.6408 C   0  0  0  0  0  0  0  0  0  0  0  0
   10.0137  -15.2689   23.7962 O   0  0  0  0  0  0  0  0  0  0  0  0
    5.5189  -12.0120   27.0016 C   0  0  0  0  0  0  0  0  0  0  0  0
    6.1966  -13.3007   26.5578 C   0  0  0  0  0  0  0  0  0  0  0  0
    7.5632  -12.9464   26.0645 C   0  0  2  0  0  0  0  0  0  0  0  0
    7.4495  -12.0298   24.8591 C   0  0  0  0  0  0  0  0  0  0  0  0
    8.4151  -14.1517   25.7276 C   0  0  2  0  0  0  0  0  0  0  0  0
    7.9142  -14.8708   24.5932 N   0  0  0  0  0  0  0  0  0  0  0  0
    8.5277  -15.0503   26.8927 C   0  0  0  0  0  0  0  0  0  0  0  0
    7.9613  -16.3143   26.8584 O   0  0  0  0  0  0  0  0  0  0  0  0
    9.1284  -14.7126   27.9410 O   0  0  0  0  0  0  0  0  0  0  0  0
  2  1  1  1
  3  2  1  0
  4  2  1  0
  4  5  1  6
  6  7  2  0
  6  4  1  0
  9  8  1  1
  9 10  1  0
  9 11  1  0
 11 12  1  6
 12  6  1  0
 13 11  1  0
 13 20  1  0
 14 13  2  0
 15 16  1  0
 17 19  1  0
 17 16  1  0
 17 18  1  6
 19 21  1  0
 19 20  1  6
 21 23  2  0
 21 22  1  0
M  END
$$$$
