DES.pdb
     RDKit          3D

 24 23  0  0  1  0  0  0  0  0999 V2000
   13.7043  -10.0390  -10.8220 N   0  0  0  0  0  0  0  0  0  0  0  0
   15.1050   -9.8795  -10.4826 C   0  0  1  0  0  0  0  0  0  0  0  0
   15.9246  -10.6805  -11.4387 C   0  0  0  0  0  0  0  0  0  0  0  0
   15.6226  -12.1051  -11.2874 C   0  0  0  0  0  0  0  0  0  0  0  0
   14.9274  -12.5012  -10.3205 O   0  0  0  0  0  0  0  0  0  0  0  0
   15.5305   -8.4423  -10.5726 C   0  0  0  0  0  0  0  0  0  0  0  0
   15.1721   -7.8412  -11.5870 O   0  0  0  0  0  0  0  0  0  0  0  0
   16.1095  -13.0322  -12.2233 O   0  0  0  0  0  0  0  0  0  0  0  0
   16.2749   -7.7967   -9.6054 N   0  0  0  0  0  0  0  0  0  0  0  0
   16.7294   -6.4755   -9.6106 C   0  0  1  0  0  0  0  0  0  0  0  0
   16.1886   -5.4944   -8.6154 C   0  0  0  0  0  0  0  0  0  0  0  0
   14.7452   -5.2046   -8.8752 C   0  0  0  0  0  0  0  0  0  0  0  0
   14.2044   -4.1887   -7.9002 C   0  0  0  0  0  0  0  0  0  0  0  0
   13.6896   -4.6187   -6.8421 O   0  0  0  0  0  0  0  0  0  0  0  0
   18.1708   -6.4044   -9.8316 C   0  0  0  0  0  0  0  0  0  0  0  0
   18.9310   -6.2722   -8.8363 O   0  0  0  0  0  0  0  0  0  0  0  0
   14.2546   -2.8400   -8.1246 O   0  0  0  0  0  0  0  0  0  0  0  0
   19.9346   -8.0526  -12.9079 O   0  0  0  0  0  0  0  0  0  0  0  0
   20.7950   -7.7276  -11.8509 C   0  0  0  0  0  0  0  0  0  0  0  0
   20.2679   -6.4567  -11.2246 C   0  0  2  0  0  0  0  0  0  0  0  0
   18.8290   -6.4712  -11.0950 N   0  0  0  0  0  0  0  0  0  0  0  0
   20.7089   -5.3300  -12.0801 C   0  0  0  0  0  0  0  0  0  0  0  0
   21.9307   -5.0612  -12.1251 O   0  0  0  0  0  0  0  0  0  0  0  0
   19.8171   -4.5744  -12.8231 O   0  0  0  0  0  0  0  0  0  0  0  0
  2  1  1  6
  3  4  1  0
  3  2  1  0
  4  8  1  0
  5  4  2  0
  6  2  1  0
  6  7  2  0
  9 10  1  0
  9  6  1  0
 10 15  1  0
 10 11  1  1
 12 11  1  0
 12 13  1  0
 13 14  2  0
 15 16  2  0
 15 21  1  0
 17 13  1  0
 18 19  1  0
 20 19  1  6
 20 22  1  0
 21 20  1  0
 22 23  2  0
 22 24  1  0
M  END
$$$$
