DES.pdb
     RDKit          3D

 24 23  0  0  1  0  0  0  0  0999 V2000
   17.8672  -14.7498  -16.8259 N   0  0  0  0  0  0  0  0  0  0  0  0
   17.3635  -13.6680  -16.0023 C   0  0  1  0  0  0  0  0  0  0  0  0
   17.6635  -13.9736  -14.5725 C   0  0  0  0  0  0  0  0  0  0  0  0
   16.9080  -15.1515  -14.1421 C   0  0  0  0  0  0  0  0  0  0  0  0
   17.4660  -16.0384  -13.4513 O   0  0  0  0  0  0  0  0  0  0  0  0
   18.0098  -12.3605  -16.3595 C   0  0  0  0  0  0  0  0  0  0  0  0
   19.1700  -12.4319  -16.7688 O   0  0  0  0  0  0  0  0  0  0  0  0
   15.5575  -15.2924  -14.5006 O   0  0  0  0  0  0  0  0  0  0  0  0
   17.3820  -11.1354  -16.2519 N   0  0  0  0  0  0  0  0  0  0  0  0
   17.8698   -9.8835  -16.6351 C   0  0  1  0  0  0  0  0  0  0  0  0
   16.9338   -8.8546  -17.1924 C   0  0  0  0  0  0  0  0  0  0  0  0
   17.6732   -7.6240  -17.6096 C   0  0  0  0  0  0  0  0  0  0  0  0
   16.7333   -6.5737  -18.1469 C   0  0  0  0  0  0  0  0  0  0  0  0
   16.5146   -6.5692  -19.3805 O   0  0  0  0  0  0  0  0  0  0  0  0
   18.8540   -9.3764  -15.6834 C   0  0  0  0  0  0  0  0  0  0  0  0
   18.5659   -9.3727  -14.4574 O   0  0  0  0  0  0  0  0  0  0  0  0
   16.1224   -5.6432  -17.3515 O   0  0  0  0  0  0  0  0  0  0  0  0
   22.8546   -9.7690  -15.7638 O   0  0  0  0  0  0  0  0  0  0  0  0
   22.5094   -8.4353  -15.5084 C   0  0  0  0  0  0  0  0  0  0  0  0
   21.0866   -8.4353  -14.9974 C   0  0  2  0  0  0  0  0  0  0  0  0
   20.1473   -8.8695  -16.0058 N   0  0  0  0  0  0  0  0  0  0  0  0
   20.7805   -7.0560  -14.5507 C   0  0  0  0  0  0  0  0  0  0  0  0
   19.8187   -6.4585  -15.0846 O   0  0  0  0  0  0  0  0  0  0  0  0
   21.5203   -6.4164  -13.5700 O   0  0  0  0  0  0  0  0  0  0  0  0
  2  1  1  6
  3  4  1  0
  3  2  1  0
  4  8  1  0
  5  4  2  0
  6  2  1  0
  6  7  2  0
  9 10  1  0
  9  6  1  0
 10 15  1  0
 10 11  1  1
 12 11  1  0
 12 13  1  0
 13 14  2  0
 15 16  2  0
 15 21  1  0
 17 13  1  0
 18 19  1  0
 20 19  1  6
 20 22  1  0
 21 20  1  0
 22 23  2  0
 22 24  1  0
M  END
$$$$
