DES.pdb
     RDKit          3D

 24 23  0  0  1  0  0  0  0  0999 V2000
   18.5461  -12.5130  -15.1935 N   0  0  0  0  0  0  0  0  0  0  0  0
   18.6858  -11.4385  -16.1571 C   0  0  1  0  0  0  0  0  0  0  0  0
   17.5177  -11.4716  -17.0855 C   0  0  0  0  0  0  0  0  0  0  0  0
   17.5382  -12.7051  -17.8740 C   0  0  0  0  0  0  0  0  0  0  0  0
   16.5922  -13.5248  -17.7836 O   0  0  0  0  0  0  0  0  0  0  0  0
   18.7244  -10.0981  -15.4816 C   0  0  0  0  0  0  0  0  0  0  0  0
   17.9200   -9.9399  -14.5613 O   0  0  0  0  0  0  0  0  0  0  0  0
   18.6158  -12.9744  -18.7333 O   0  0  0  0  0  0  0  0  0  0  0  0
   19.5880   -9.0807  -15.8360 N   0  0  0  0  0  0  0  0  0  0  0  0
   19.7184   -7.8203  -15.2473 C   0  0  1  0  0  0  0  0  0  0  0  0
   21.0569   -7.3588  -14.7565 C   0  0  0  0  0  0  0  0  0  0  0  0
   20.9537   -6.0281  -14.0830 C   0  0  0  0  0  0  0  0  0  0  0  0
   22.2954   -5.5648  -13.5727 C   0  0  0  0  0  0  0  0  0  0  0  0
   22.4015   -5.3398  -12.3448 O   0  0  0  0  0  0  0  0  0  0  0  0
   18.9367   -6.8124  -15.9576 C   0  0  0  0  0  0  0  0  0  0  0  0
   19.1609   -6.6236  -17.1824 O   0  0  0  0  0  0  0  0  0  0  0  0
   23.3805   -5.3847  -14.3863 O   0  0  0  0  0  0  0  0  0  0  0  0
   15.2160   -6.0598  -15.2440 O   0  0  0  0  0  0  0  0  0  0  0  0
   15.7710   -4.8143  -15.5661 C   0  0  0  0  0  0  0  0  0  0  0  0
   17.1249   -5.0784  -16.1846 C   0  0  2  0  0  0  0  0  0  0  0  0
   17.9141   -5.9942  -15.3933 N   0  0  0  0  0  0  0  0  0  0  0  0
   17.8096   -3.7711  -16.3173 C   0  0  0  0  0  0  0  0  0  0  0  0
   18.9042   -3.6117  -15.7312 O   0  0  0  0  0  0  0  0  0  0  0  0
   17.2785   -2.7320  -17.0634 O   0  0  0  0  0  0  0  0  0  0  0  0
  2  1  1  1
  3  4  1  0
  3  2  1  0
  4  8  1  0
  5  4  2  0
  6  2  1  0
  6  7  2  0
  9 10  1  0
  9  6  1  0
 10 15  1  0
 10 11  1  6
 12 11  1  0
 12 13  1  0
 13 14  2  0
 15 16  2  0
 15 21  1  0
 17 13  1  0
 18 19  1  0
 20 19  1  1
 20 22  1  0
 21 20  1  0
 22 23  2  0
 22 24  1  0
M  END
$$$$
