DES.pdb
     RDKit          3D

 24 23  0  0  1  0  0  0  0  0999 V2000
   19.3616  -11.8967  -15.5228 N   0  0  0  0  0  0  0  0  0  0  0  0
   18.5669  -10.7394  -15.8852 C   0  0  1  0  0  0  0  0  0  0  0  0
   17.1846  -10.9205  -15.3525 C   0  0  0  0  0  0  0  0  0  0  0  0
   16.5642  -12.1005  -15.9579 C   0  0  0  0  0  0  0  0  0  0  0  0
   16.3677  -12.1416  -17.1967 O   0  0  0  0  0  0  0  0  0  0  0  0
   19.1419   -9.4775  -15.3091 C   0  0  0  0  0  0  0  0  0  0  0  0
   19.2764   -9.4620  -14.0841 O   0  0  0  0  0  0  0  0  0  0  0  0
   16.1875  -13.1891  -15.1546 O   0  0  0  0  0  0  0  0  0  0  0  0
   19.5094   -8.3823  -16.0653 N   0  0  0  0  0  0  0  0  0  0  0  0
   20.0412   -7.1697  -15.6193 C   0  0  1  0  0  0  0  0  0  0  0  0
   21.5179   -6.9272  -15.6960 C   0  0  0  0  0  0  0  0  0  0  0  0
   21.8717   -5.5821  -15.1478 C   0  0  0  0  0  0  0  0  0  0  0  0
   22.1777   -5.6531  -13.6725 C   0  0  0  0  0  0  0  0  0  0  0  0
   22.3888   -6.7850  -13.1788 O   0  0  0  0  0  0  0  0  0  0  0  0
   19.2054   -6.0394  -16.0137 C   0  0  0  0  0  0  0  0  0  0  0  0
   18.9331   -5.8833  -17.2333 O   0  0  0  0  0  0  0  0  0  0  0  0
   22.2322   -4.5473  -12.8686 O   0  0  0  0  0  0  0  0  0  0  0  0
   16.1974   -4.7910  -13.9979 O   0  0  0  0  0  0  0  0  0  0  0  0
   16.7660   -3.6188  -14.5135 C   0  0  0  0  0  0  0  0  0  0  0  0
   17.7404   -4.0354  -15.5916 C   0  0  2  0  0  0  0  0  0  0  0  0
   18.6475   -5.0636  -15.1362 N   0  0  0  0  0  0  0  0  0  0  0  0
   18.4836   -2.8218  -16.0045 C   0  0  0  0  0  0  0  0  0  0  0  0
   19.7333   -2.8375  -15.9328 O   0  0  0  0  0  0  0  0  0  0  0  0
   17.8416   -1.6831  -16.4624 O   0  0  0  0  0  0  0  0  0  0  0  0
  2  1  1  1
  3  4  1  0
  3  2  1  0
  4  8  1  0
  5  4  2  0
  6  2  1  0
  6  7  2  0
  9 10  1  0
  9  6  1  0
 10 15  1  0
 10 11  1  6
 12 11  1  0
 12 13  1  0
 13 14  2  0
 15 16  2  0
 15 21  1  0
 17 13  1  0
 18 19  1  0
 20 19  1  1
 20 22  1  0
 21 20  1  0
 22 23  2  0
 22 24  1  0
M  END
$$$$
