DES.pdb
     RDKit          3D

 24 23  0  0  1  0  0  0  0  0999 V2000
   18.8692  -11.4939  -18.2829 N   0  0  0  0  0  0  0  0  0  0  0  0
   18.9890  -11.1883  -16.8705 C   0  0  1  0  0  0  0  0  0  0  0  0
   20.2625  -11.7749  -16.3590 C   0  0  0  0  0  0  0  0  0  0  0  0
   20.1951  -13.2368  -16.4039 C   0  0  0  0  0  0  0  0  0  0  0  0
   21.0015  -13.8818  -17.1173 O   0  0  0  0  0  0  0  0  0  0  0  0
   19.0127   -9.7063  -16.6305 C   0  0  0  0  0  0  0  0  0  0  0  0
   19.6580   -9.0431  -17.4446 O   0  0  0  0  0  0  0  0  0  0  0  0
   19.2286  -13.9214  -15.6492 O   0  0  0  0  0  0  0  0  0  0  0  0
   18.3680   -9.0851  -15.5793 N   0  0  0  0  0  0  0  0  0  0  0  0
   18.2680   -7.7156  -15.3214 C   0  0  1  0  0  0  0  0  0  0  0  0
   16.9755   -7.1397  -14.8283 C   0  0  0  0  0  0  0  0  0  0  0  0
   15.8482   -7.4808  -15.7490 C   0  0  0  0  0  0  0  0  0  0  0  0
   14.5188   -7.0721  -15.1652 C   0  0  0  0  0  0  0  0  0  0  0  0
   13.5706   -7.8855  -15.2592 O   0  0  0  0  0  0  0  0  0  0  0  0
   19.4665   -7.2043  -14.6628 C   0  0  0  0  0  0  0  0  0  0  0  0
   20.2158   -8.0133  -14.0544 O   0  0  0  0  0  0  0  0  0  0  0  0
   14.3142   -5.8682  -14.5483 O   0  0  0  0  0  0  0  0  0  0  0  0
   23.5179   -5.6538  -14.3763 O   0  0  0  0  0  0  0  0  0  0  0  0
   22.3121   -6.1076  -14.9271 C   0  0  0  0  0  0  0  0  0  0  0  0
   21.1943   -5.4443  -14.1551 C   0  0  2  0  0  0  0  0  0  0  0  0
   19.8913   -5.8433  -14.6353 N   0  0  0  0  0  0  0  0  0  0  0  0
   21.3789   -3.9799  -14.2862 C   0  0  0  0  0  0  0  0  0  0  0  0
   20.7864   -3.3875  -15.2163 O   0  0  0  0  0  0  0  0  0  0  0  0
   22.1796   -3.2562  -13.4182 O   0  0  0  0  0  0  0  0  0  0  0  0
  2  1  1  6
  3  4  1  0
  3  2  1  0
  4  8  1  0
  5  4  2  0
  6  2  1  0
  6  7  2  0
  9 10  1  0
  9  6  1  0
 10 15  1  0
 10 11  1  1
 12 11  1  0
 12 13  1  0
 13 14  2  0
 15 16  2  0
 15 21  1  0
 17 13  1  0
 18 19  1  0
 20 19  1  6
 20 22  1  0
 21 20  1  0
 22 23  2  0
 22 24  1  0
M  END
$$$$
