DES.pdb
     RDKit          3D

 24 23  0  0  1  0  0  0  0  0999 V2000
   20.4096  -12.5668  -16.3386 N   0  0  0  0  0  0  0  0  0  0  0  0
   19.8535  -11.2734  -16.6855 C   0  0  1  0  0  0  0  0  0  0  0  0
   18.6316  -11.0396  -15.8610 C   0  0  0  0  0  0  0  0  0  0  0  0
   17.6302  -12.0693  -16.1450 C   0  0  0  0  0  0  0  0  0  0  0  0
   17.0736  -12.6821  -15.2018 O   0  0  0  0  0  0  0  0  0  0  0  0
   20.8322  -10.1665  -16.4178 C   0  0  0  0  0  0  0  0  0  0  0  0
   21.3826  -10.1945  -15.3155 O   0  0  0  0  0  0  0  0  0  0  0  0
   17.2896  -12.3740  -17.4730 O   0  0  0  0  0  0  0  0  0  0  0  0
   21.1262   -9.1627  -17.3192 N   0  0  0  0  0  0  0  0  0  0  0  0
   22.0442   -8.1194  -17.1740 C   0  0  1  0  0  0  0  0  0  0  0  0
   23.0209   -7.8242  -18.2713 C   0  0  0  0  0  0  0  0  0  0  0  0
   22.3823   -7.0218  -19.3591 C   0  0  0  0  0  0  0  0  0  0  0  0
   23.3273   -6.8141  -20.5162 C   0  0  0  0  0  0  0  0  0  0  0  0
   23.8291   -7.8336  -21.0440 O   0  0  0  0  0  0  0  0  0  0  0  0
   21.4310   -6.9468  -16.5570 C   0  0  0  0  0  0  0  0  0  0  0  0
   20.5671   -6.3014  -17.2075 O   0  0  0  0  0  0  0  0  0  0  0  0
   23.6506   -5.5765  -21.0014 O   0  0  0  0  0  0  0  0  0  0  0  0
   20.1817   -6.5093  -13.0057 O   0  0  0  0  0  0  0  0  0  0  0  0
   19.8551   -5.5234  -13.9463 C   0  0  0  0  0  0  0  0  0  0  0  0
   21.1092   -5.2341  -14.7393 C   0  0  2  0  0  0  0  0  0  0  0  0
   21.7160   -6.4397  -15.2550 N   0  0  0  0  0  0  0  0  0  0  0  0
   22.0427   -4.5177  -13.8387 C   0  0  0  0  0  0  0  0  0  0  0  0
   23.1459   -5.0503  -13.5813 O   0  0  0  0  0  0  0  0  0  0  0  0
   21.7323   -3.2889  -13.2800 O   0  0  0  0  0  0  0  0  0  0  0  0
  2  1  1  1
  3  4  1  0
  3  2  1  0
  4  8  1  0
  5  4  2  0
  6  2  1  0
  6  7  2  0
  9 10  1  0
  9  6  1  0
 10 15  1  0
 10 11  1  6
 12 11  1  0
 12 13  1  0
 13 14  2  0
 15 16  2  0
 15 21  1  0
 17 13  1  0
 18 19  1  0
 20 19  1  1
 20 22  1  0
 21 20  1  0
 22 23  2  0
 22 24  1  0
M  END
$$$$
