DES.pdb
     RDKit          3D

 24 23  0  0  1  0  0  0  0  0999 V2000
   14.3065  -10.9502  -11.4212 N   0  0  0  0  0  0  0  0  0  0  0  0
   15.4743  -10.6023  -10.6353 C   0  0  1  0  0  0  0  0  0  0  0  0
   16.6363  -11.4023  -11.1225 C   0  0  0  0  0  0  0  0  0  0  0  0
   16.3825  -12.8300  -10.9204 C   0  0  0  0  0  0  0  0  0  0  0  0
   16.5275  -13.6353  -11.8720 O   0  0  0  0  0  0  0  0  0  0  0  0
   15.8075   -9.1439  -10.7648 C   0  0  0  0  0  0  0  0  0  0  0  0
   15.7777   -8.6884  -11.9096 O   0  0  0  0  0  0  0  0  0  0  0  0
   15.9763  -13.3024   -9.6617 O   0  0  0  0  0  0  0  0  0  0  0  0
   16.1318   -8.3295   -9.6980 N   0  0  0  0  0  0  0  0  0  0  0  0
   16.3825   -6.9550   -9.7116 C   0  0  1  0  0  0  0  0  0  0  0  0
   15.7711   -6.0728   -8.6660 C   0  0  0  0  0  0  0  0  0  0  0  0
   16.0917   -4.6349   -8.9203 C   0  0  0  0  0  0  0  0  0  0  0  0
   15.1866   -3.7221   -8.1313 C   0  0  0  0  0  0  0  0  0  0  0  0
   14.6488   -4.1895   -7.1008 O   0  0  0  0  0  0  0  0  0  0  0  0
   17.7784   -6.6670  -10.0277 C   0  0  0  0  0  0  0  0  0  0  0  0
   18.6238   -6.6663   -9.0943 O   0  0  0  0  0  0  0  0  0  0  0  0
   14.9360   -2.4265   -8.4928 O   0  0  0  0  0  0  0  0  0  0  0  0
   21.6593   -7.2449  -12.4308 O   0  0  0  0  0  0  0  0  0  0  0  0
   20.2967   -7.4900  -12.2153 C   0  0  0  0  0  0  0  0  0  0  0  0
   19.7177   -6.2473  -11.5781 C   0  0  2  0  0  0  0  0  0  0  0  0
   18.3017   -6.3775  -11.3223 N   0  0  0  0  0  0  0  0  0  0  0  0
   19.9857   -5.1168  -12.4978 C   0  0  0  0  0  0  0  0  0  0  0  0
   19.0592   -4.7249  -13.2429 O   0  0  0  0  0  0  0  0  0  0  0  0
   21.2186   -4.4885  -12.5555 O   0  0  0  0  0  0  0  0  0  0  0  0
  2  1  1  6
  3  4  1  0
  3  2  1  0
  4  8  1  0
  5  4  2  0
  6  2  1  0
  6  7  2  0
  9 10  1  0
  9  6  1  0
 10 15  1  0
 10 11  1  1
 12 11  1  0
 12 13  1  0
 13 14  2  0
 15 16  2  0
 15 21  1  0
 17 13  1  0
 18 19  1  0
 20 19  1  6
 20 22  1  0
 21 20  1  0
 22 23  2  0
 22 24  1  0
M  END
$$$$
