DES.pdb
     RDKit          3D

 24 23  0  0  1  0  0  0  0  0999 V2000
   20.2743  -10.6499  -15.6319 N   0  0  0  0  0  0  0  0  0  0  0  0
   19.0533   -9.9809  -16.0367 C   0  0  1  0  0  0  0  0  0  0  0  0
   17.9037  -10.9078  -15.8204 C   0  0  0  0  0  0  0  0  0  0  0  0
   18.0439  -12.0889  -16.6743 C   0  0  0  0  0  0  0  0  0  0  0  0
   18.4877  -11.9711  -17.8423 O   0  0  0  0  0  0  0  0  0  0  0  0
   18.8207   -8.7325  -15.2354 C   0  0  0  0  0  0  0  0  0  0  0  0
   18.2800   -8.8937  -14.1397 O   0  0  0  0  0  0  0  0  0  0  0  0
   17.6825  -13.3563  -16.1892 O   0  0  0  0  0  0  0  0  0  0  0  0
   19.1737   -7.4669  -15.6599 N   0  0  0  0  0  0  0  0  0  0  0  0
   19.0345   -6.2596  -14.9706 C   0  0  1  0  0  0  0  0  0  0  0  0
   20.2396   -5.4133  -14.6933 C   0  0  0  0  0  0  0  0  0  0  0  0
   21.1051   -6.0359  -13.6453 C   0  0  0  0  0  0  0  0  0  0  0  0
   22.3875   -5.2634  -13.4614 C   0  0  0  0  0  0  0  0  0  0  0  0
   23.4309   -5.7469  -13.9587 O   0  0  0  0  0  0  0  0  0  0  0  0
   17.8484   -5.5272  -15.4045 C   0  0  0  0  0  0  0  0  0  0  0  0
   17.7603   -5.1761  -16.6108 O   0  0  0  0  0  0  0  0  0  0  0  0
   22.4520   -4.0764  -12.7842 O   0  0  0  0  0  0  0  0  0  0  0  0
   13.2830   -4.1238  -14.9849 O   0  0  0  0  0  0  0  0  0  0  0  0
   14.3502   -4.7116  -14.2930 C   0  0  0  0  0  0  0  0  0  0  0  0
   15.6040   -4.4299  -15.0892 C   0  0  2  0  0  0  0  0  0  0  0  0
   16.7449   -5.1563  -14.5810 N   0  0  0  0  0  0  0  0  0  0  0  0
   15.8414   -2.9684  -15.0320 C   0  0  0  0  0  0  0  0  0  0  0  0
   15.0625   -2.2151  -15.6590 O   0  0  0  0  0  0  0  0  0  0  0  0
   16.8892   -2.4183  -14.3124 O   0  0  0  0  0  0  0  0  0  0  0  0
  2  1  1  1
  3  4  1  0
  3  2  1  0
  4  8  1  0
  5  4  2  0
  6  2  1  0
  6  7  2  0
  9 10  1  0
  9  6  1  0
 10 15  1  0
 10 11  1  6
 12 11  1  0
 12 13  1  0
 13 14  2  0
 15 16  2  0
 15 21  1  0
 17 13  1  0
 18 19  1  0
 20 19  1  1
 20 22  1  0
 21 20  1  0
 22 23  2  0
 22 24  1  0
M  END
$$$$
