DES.pdb
     RDKit          3D

 24 23  0  0  1  0  0  0  0  0999 V2000
   23.5943  -17.9308  -16.9590 N   0  0  0  0  0  0  0  0  0  0  0  0
   22.5665  -17.1109  -16.3477 C   0  0  1  0  0  0  0  0  0  0  0  0
   21.9456  -16.2551  -17.4011 C   0  0  0  0  0  0  0  0  0  0  0  0
   22.7377  -15.0384  -17.5905 C   0  0  0  0  0  0  0  0  0  0  0  0
   23.8202  -14.8905  -16.9729 O   0  0  0  0  0  0  0  0  0  0  0  0
   21.4940  -17.9539  -15.7202 C   0  0  0  0  0  0  0  0  0  0  0  0
   21.3274  -19.0672  -16.2217 O   0  0  0  0  0  0  0  0  0  0  0  0
   22.2888  -14.0338  -18.4632 O   0  0  0  0  0  0  0  0  0  0  0  0
   20.7214  -17.5478  -14.6504 N   0  0  0  0  0  0  0  0  0  0  0  0
   19.7638  -18.2879  -13.9522 C   0  0  1  0  0  0  0  0  0  0  0  0
   19.9452  -18.5543  -12.4888 C   0  0  0  0  0  0  0  0  0  0  0  0
   20.8802  -19.6985  -12.2618 C   0  0  0  0  0  0  0  0  0  0  0  0
   20.1620  -21.0217  -12.3530 C   0  0  0  0  0  0  0  0  0  0  0  0
   18.9596  -21.0531  -12.0022 O   0  0  0  0  0  0  0  0  0  0  0  0
   18.4076  -17.9255  -14.3535 C   0  0  0  0  0  0  0  0  0  0  0  0
   18.0621  -16.7157  -14.2987 O   0  0  0  0  0  0  0  0  0  0  0  0
   20.7640  -22.1674  -12.7964 O   0  0  0  0  0  0  0  0  0  0  0  0
   14.1130  -18.9202  -16.3622 O   0  0  0  0  0  0  0  0  0  0  0  0
   15.2781  -19.4978  -15.8407 C   0  0  0  0  0  0  0  0  0  0  0  0
   16.0890  -18.3812  -15.2235 C   0  0  2  0  0  0  0  0  0  0  0  0
   17.4021  -18.8249  -14.8155 N   0  0  0  0  0  0  0  0  0  0  0  0
   15.3212  -17.8702  -14.0638 C   0  0  0  0  0  0  0  0  0  0  0  0
   15.5497  -18.3636  -12.9362 O   0  0  0  0  0  0  0  0  0  0  0  0
   14.3683  -16.8731  -14.1908 O   0  0  0  0  0  0  0  0  0  0  0  0
  2  1  1  6
  3  4  1  0
  3  2  1  0
  4  8  1  0
  5  4  2  0
  6  2  1  0
  6  7  2  0
  9 10  1  0
  9  6  1  0
 10 15  1  0
 10 11  1  1
 12 11  1  0
 12 13  1  0
 13 14  2  0
 15 16  2  0
 15 21  1  0
 17 13  1  0
 18 19  1  0
 20 19  1  1
 20 22  1  0
 21 20  1  0
 22 23  2  0
 22 24  1  0
M  END
$$$$
