DES.pdb
     RDKit          3D

 24 23  0  0  1  0  0  0  0  0999 V2000
   17.4414  -11.8765  -11.1258 N   0  0  0  0  0  0  0  0  0  0  0  0
   16.5682  -10.7222  -11.2131 C   0  0  1  0  0  0  0  0  0  0  0  0
   15.2035  -11.1171  -10.7557 C   0  0  0  0  0  0  0  0  0  0  0  0
   14.6044  -12.0502  -11.7117 C   0  0  0  0  0  0  0  0  0  0  0  0
   14.6571  -11.8097  -12.9424 O   0  0  0  0  0  0  0  0  0  0  0  0
   17.0581   -9.5976  -10.3471 C   0  0  0  0  0  0  0  0  0  0  0  0
   17.4167   -9.9147   -9.2114 O   0  0  0  0  0  0  0  0  0  0  0  0
   13.9692  -13.2164  -11.2548 O   0  0  0  0  0  0  0  0  0  0  0  0
   17.1195   -8.2802  -10.7559 N   0  0  0  0  0  0  0  0  0  0  0  0
   17.6349   -7.1865  -10.0556 C   0  0  1  0  0  0  0  0  0  0  0  0
   19.0336   -6.7196  -10.3217 C   0  0  0  0  0  0  0  0  0  0  0  0
   19.2627   -6.5116  -11.7843 C   0  0  0  0  0  0  0  0  0  0  0  0
   20.6760   -6.0632  -12.0610 C   0  0  0  0  0  0  0  0  0  0  0  0
   21.0121   -5.9146  -13.2588 O   0  0  0  0  0  0  0  0  0  0  0  0
   16.6429   -6.1248   -9.9125 C   0  0  0  0  0  0  0  0  0  0  0  0
   16.0520   -5.7045  -10.9421 O   0  0  0  0  0  0  0  0  0  0  0  0
   21.5873   -5.8173  -11.0706 O   0  0  0  0  0  0  0  0  0  0  0  0
   13.8037   -3.2064   -7.2877 O   0  0  0  0  0  0  0  0  0  0  0  0
   14.8384   -4.1484   -7.2152 C   0  0  0  0  0  0  0  0  0  0  0  0
   15.2637   -4.4502   -8.6342 C   0  0  2  0  0  0  0  0  0  0  0  0
   16.2607   -5.4943   -8.6919 N   0  0  0  0  0  0  0  0  0  0  0  0
   15.7857   -3.1901   -9.2134 C   0  0  0  0  0  0  0  0  0  0  0  0
   17.0078   -2.9448   -9.0979 O   0  0  0  0  0  0  0  0  0  0  0  0
   14.9685   -2.2862   -9.8719 O   0  0  0  0  0  0  0  0  0  0  0  0
  2  1  1  1
  3  4  1  0
  3  2  1  0
  4  8  1  0
  5  4  2  0
  6  2  1  0
  6  7  2  0
  9 10  1  0
  9  6  1  0
 10 15  1  0
 10 11  1  6
 12 11  1  0
 12 13  1  0
 13 14  2  0
 15 16  2  0
 15 21  1  0
 17 13  1  0
 18 19  1  0
 20 19  1  1
 20 22  1  0
 21 20  1  0
 22 23  2  0
 22 24  1  0
M  END
$$$$
