DES.pdb
     RDKit          3D

 24 23  0  0  1  0  0  0  0  0999 V2000
   22.9269  -20.6213  -16.2407 N   0  0  0  0  0  0  0  0  0  0  0  0
   23.5175  -21.6716  -15.4342 C   0  0  1  0  0  0  0  0  0  0  0  0
   22.4520  -22.2818  -14.5858 C   0  0  0  0  0  0  0  0  0  0  0  0
   21.9165  -21.2840  -13.6578 C   0  0  0  0  0  0  0  0  0  0  0  0
   22.3268  -20.0988  -13.7036 O   0  0  0  0  0  0  0  0  0  0  0  0
   24.1230  -22.7458  -16.2910 C   0  0  0  0  0  0  0  0  0  0  0  0
   23.3339  -23.5787  -16.7411 O   0  0  0  0  0  0  0  0  0  0  0  0
   20.9427  -21.6498  -12.7143 O   0  0  0  0  0  0  0  0  0  0  0  0
   25.4701  -22.8327  -16.5812 N   0  0  0  0  0  0  0  0  0  0  0  0
   26.0971  -23.6694  -17.5080 C   0  0  1  0  0  0  0  0  0  0  0  0
   26.2425  -23.2308  -18.9334 C   0  0  0  0  0  0  0  0  0  0  0  0
   24.9130  -22.9065  -19.5351 C   0  0  0  0  0  0  0  0  0  0  0  0
   25.0654  -22.2660  -20.8922 C   0  0  0  0  0  0  0  0  0  0  0  0
   26.1499  -22.4386  -21.4953 O   0  0  0  0  0  0  0  0  0  0  0  0
   27.2726  -24.3191  -16.9356 C   0  0  0  0  0  0  0  0  0  0  0  0
   28.1263  -23.6111  -16.3389 O   0  0  0  0  0  0  0  0  0  0  0  0
   24.0812  -21.5175  -21.4778 O   0  0  0  0  0  0  0  0  0  0  0  0
   30.0043  -28.2191  -15.9912 O   0  0  0  0  0  0  0  0  0  0  0  0
   28.8909  -27.7588  -16.7065 C   0  0  0  0  0  0  0  0  0  0  0  0
   28.7971  -26.2686  -16.4705 C   0  0  2  0  0  0  0  0  0  0  0  0
   27.5649  -25.7141  -16.9822 N   0  0  0  0  0  0  0  0  0  0  0  0
   29.9692  -25.6452  -17.1288 C   0  0  0  0  0  0  0  0  0  0  0  0
   29.9232  -25.4518  -18.3648 O   0  0  0  0  0  0  0  0  0  0  0  0
   31.1018  -25.2746  -16.4229 O   0  0  0  0  0  0  0  0  0  0  0  0
  2  1  1  6
  3  4  1  0
  3  2  1  0
  4  8  1  0
  5  4  2  0
  6  2  1  0
  6  7  2  0
  9 10  1  0
  9  6  1  0
 10 15  1  0
 10 11  1  6
 12 11  1  0
 12 13  1  0
 13 14  2  0
 15 16  2  0
 15 21  1  0
 17 13  1  0
 18 19  1  0
 20 19  1  6
 20 22  1  0
 21 20  1  0
 22 23  2  0
 22 24  1  0
M  END
$$$$
