DES.pdb
     RDKit          3D

 24 23  0  0  1  0  0  0  0  0999 V2000
   19.3846  -12.8727  -16.6613 N   0  0  0  0  0  0  0  0  0  0  0  0
   19.2079  -11.5437  -17.2134 C   0  0  1  0  0  0  0  0  0  0  0  0
   17.8816  -11.0156  -16.7780 C   0  0  0  0  0  0  0  0  0  0  0  0
   16.8050  -11.7949  -17.3922 C   0  0  0  0  0  0  0  0  0  0  0  0
   16.7878  -11.9731  -18.6344 O   0  0  0  0  0  0  0  0  0  0  0  0
   20.2784  -10.6052  -16.7363 C   0  0  0  0  0  0  0  0  0  0  0  0
   20.4879  -10.6063  -15.5218 O   0  0  0  0  0  0  0  0  0  0  0  0
   15.7891  -12.3450  -16.5937 O   0  0  0  0  0  0  0  0  0  0  0  0
   21.0052   -9.7774  -17.5689 N   0  0  0  0  0  0  0  0  0  0  0  0
   22.0544   -8.9207  -17.2261 C   0  0  1  0  0  0  0  0  0  0  0  0
   23.1766   -8.6888  -18.1916 C   0  0  0  0  0  0  0  0  0  0  0  0
   24.2034   -7.7693  -17.6127 C   0  0  0  0  0  0  0  0  0  0  0  0
   25.3369   -7.5328  -18.5794 C   0  0  0  0  0  0  0  0  0  0  0  0
   26.5048   -7.6142  -18.1332 O   0  0  0  0  0  0  0  0  0  0  0  0
   21.5702   -7.7270  -16.5391 C   0  0  0  0  0  0  0  0  0  0  0  0
   20.7491   -6.9778  -17.1312 O   0  0  0  0  0  0  0  0  0  0  0  0
   25.1402   -7.2382  -19.9009 O   0  0  0  0  0  0  0  0  0  0  0  0
   20.3485   -5.3295  -12.6180 O   0  0  0  0  0  0  0  0  0  0  0  0
   20.9318   -6.4882  -13.1473 C   0  0  0  0  0  0  0  0  0  0  0  0
   21.3292   -6.1740  -14.5716 C   0  0  2  0  0  0  0  0  0  0  0  0
   21.9404   -7.3070  -15.2275 N   0  0  0  0  0  0  0  0  0  0  0  0
   22.2639   -5.0253  -14.5234 C   0  0  0  0  0  0  0  0  0  0  0  0
   23.4924   -5.2558  -14.5936 O   0  0  0  0  0  0  0  0  0  0  0  0
   21.8217   -3.7182  -14.4041 O   0  0  0  0  0  0  0  0  0  0  0  0
  2  1  1  1
  3  4  1  0
  3  2  1  0
  4  8  1  0
  5  4  2  0
  6  2  1  0
  6  7  2  0
  9 10  1  0
  9  6  1  0
 10 15  1  0
 10 11  1  6
 12 11  1  0
 12 13  1  0
 13 14  2  0
 15 16  2  0
 15 21  1  0
 17 13  1  0
 18 19  1  0
 20 19  1  1
 20 22  1  0
 21 20  1  0
 22 23  2  0
 22 24  1  0
M  END
$$$$
