DES.pdb
     RDKit          3D

 24 23  0  0  1  0  0  0  0  0999 V2000
   19.2350  -10.1183  -16.0408 N   0  0  0  0  0  0  0  0  0  0  0  0
   19.0322   -9.1943  -17.1397 C   0  0  1  0  0  0  0  0  0  0  0  0
   17.7151   -9.4882  -17.7770 C   0  0  0  0  0  0  0  0  0  0  0  0
   17.7333  -10.8253  -18.3731 C   0  0  0  0  0  0  0  0  0  0  0  0
   17.0832  -11.7589  -17.8431 O   0  0  0  0  0  0  0  0  0  0  0  0
   19.0284   -7.7699  -16.6645 C   0  0  0  0  0  0  0  0  0  0  0  0
   18.1559   -7.4829  -15.8427 O   0  0  0  0  0  0  0  0  0  0  0  0
   18.4779  -11.0671  -19.5390 O   0  0  0  0  0  0  0  0  0  0  0  0
   19.9251   -6.8116  -17.0936 N   0  0  0  0  0  0  0  0  0  0  0  0
   20.0536   -5.4940  -16.6470 C   0  0  1  0  0  0  0  0  0  0  0  0
   21.2121   -5.1082  -15.7784 C   0  0  0  0  0  0  0  0  0  0  0  0
   21.0996   -5.7301  -14.4236 C   0  0  0  0  0  0  0  0  0  0  0  0
   22.3568   -5.5211  -13.6168 C   0  0  0  0  0  0  0  0  0  0  0  0
   23.3236   -4.9630  -14.1856 O   0  0  0  0  0  0  0  0  0  0  0  0
   19.7191   -4.5361  -17.6968 C   0  0  0  0  0  0  0  0  0  0  0  0
   20.2315   -4.6837  -18.8378 O   0  0  0  0  0  0  0  0  0  0  0  0
   22.4779   -5.9112  -12.3111 O   0  0  0  0  0  0  0  0  0  0  0  0
   17.1009   -0.9141  -19.5436 O   0  0  0  0  0  0  0  0  0  0  0  0
   17.3645   -1.6384  -18.3736 C   0  0  0  0  0  0  0  0  0  0  0  0
   18.5648   -2.5134  -18.6545 C   0  0  2  0  0  0  0  0  0  0  0  0
   18.8461   -3.4166  -17.5624 N   0  0  0  0  0  0  0  0  0  0  0  0
   19.7153   -1.6136  -18.9042 C   0  0  0  0  0  0  0  0  0  0  0  0
   20.5499   -1.4477  -17.9860 O   0  0  0  0  0  0  0  0  0  0  0  0
   19.8913   -0.9581  -20.1115 O   0  0  0  0  0  0  0  0  0  0  0  0
  2  1  1  1
  3  4  1  0
  3  2  1  0
  4  8  1  0
  5  4  2  0
  6  2  1  0
  6  7  2  0
  9 10  1  0
  9  6  1  0
 10 15  1  0
 10 11  1  6
 12 11  1  0
 12 13  1  0
 13 14  2  0
 15 16  2  0
 15 21  1  0
 17 13  1  0
 18 19  1  0
 20 19  1  1
 20 22  1  0
 21 20  1  0
 22 23  2  0
 22 24  1  0
M  END
$$$$
