DES.pdb
     RDKit          3D

 24 23  0  0  1  0  0  0  0  0999 V2000
   18.8191  -11.8336  -18.1889 N   0  0  0  0  0  0  0  0  0  0  0  0
   18.6358  -10.3975  -18.1096 C   0  0  1  0  0  0  0  0  0  0  0  0
   17.3494  -10.1159  -17.4071 C   0  0  0  0  0  0  0  0  0  0  0  0
   16.8817   -8.7685  -17.7375 C   0  0  0  0  0  0  0  0  0  0  0  0
   17.4976   -8.0798  -18.5869 O   0  0  0  0  0  0  0  0  0  0  0  0
   19.7521   -9.7436  -17.3474 C   0  0  0  0  0  0  0  0  0  0  0  0
   19.8809  -10.1023  -16.1754 O   0  0  0  0  0  0  0  0  0  0  0  0
   15.7431   -8.2428  -17.1053 O   0  0  0  0  0  0  0  0  0  0  0  0
   20.6023   -8.7978  -17.8851 N   0  0  0  0  0  0  0  0  0  0  0  0
   21.6949   -8.1779  -17.2734 C   0  0  1  0  0  0  0  0  0  0  0  0
   22.8690   -7.7469  -18.0987 C   0  0  0  0  0  0  0  0  0  0  0  0
   23.9325   -7.1361  -17.2439 C   0  0  0  0  0  0  0  0  0  0  0  0
   25.1514   -6.7763  -18.0563 C   0  0  0  0  0  0  0  0  0  0  0  0
   25.1094   -6.9921  -19.2897 O   0  0  0  0  0  0  0  0  0  0  0  0
   21.2692   -7.2235  -16.2539 C   0  0  0  0  0  0  0  0  0  0  0  0
   20.4400   -6.3295  -16.5689 O   0  0  0  0  0  0  0  0  0  0  0  0
   26.2801   -6.2331  -17.5060 O   0  0  0  0  0  0  0  0  0  0  0  0
   19.9720   -7.6999  -12.6694 O   0  0  0  0  0  0  0  0  0  0  0  0
   21.0357   -6.7931  -12.5727 C   0  0  0  0  0  0  0  0  0  0  0  0
   21.2456   -6.2070  -13.9502 C   0  0  2  0  0  0  0  0  0  0  0  0
   21.7067   -7.1963  -14.8969 N   0  0  0  0  0  0  0  0  0  0  0  0
   22.2302   -5.1080  -13.8144 C   0  0  0  0  0  0  0  0  0  0  0  0
   23.2998   -5.1856  -14.4602 O   0  0  0  0  0  0  0  0  0  0  0  0
   22.0029   -4.0095  -13.0021 O   0  0  0  0  0  0  0  0  0  0  0  0
  2  1  1  1
  3  4  1  0
  3  2  1  0
  4  8  1  0
  5  4  2  0
  6  2  1  0
  6  7  2  0
  9 10  1  0
  9  6  1  0
 10 15  1  0
 10 11  1  6
 12 11  1  0
 12 13  1  0
 13 14  2  0
 15 16  2  0
 15 21  1  0
 17 13  1  0
 18 19  1  0
 20 19  1  1
 20 22  1  0
 21 20  1  0
 22 23  2  0
 22 24  1  0
M  END
$$$$
