DRS.pdb
     RDKit          3D

 26 25  0  0  1  0  0  0  0  0999 V2000
   14.9100  -14.5688   16.1384 N   0  0  0  0  0  0  0  0  0  0  0  0
   14.9859  -14.7759   17.5558 C   0  0  1  0  0  0  0  0  0  0  0  0
   15.5339  -13.5430   18.2324 C   0  0  0  0  0  0  0  0  0  0  0  0
   16.9484  -13.3029   17.8825 C   0  0  0  0  0  0  0  0  0  0  0  0
   17.6236  -14.1889   17.2967 O   0  0  0  0  0  0  0  0  0  0  0  0
   13.6570  -15.0635   18.1326 C   0  0  0  0  0  0  0  0  0  0  0  0
   12.6998  -14.3443   17.7821 O   0  0  0  0  0  0  0  0  0  0  0  0
   17.5544  -12.1075   18.1918 O   0  0  0  0  0  0  0  0  0  0  0  0
   14.4681  -20.1952   18.1203 N   0  0  0  0  0  0  0  0  0  0  0  0
   13.7383  -21.2542   18.7448 C   0  0  0  0  0  0  0  0  0  0  0  0
   14.3585  -22.3067   19.1335 N   0  0  0  0  0  0  0  0  0  0  0  0
   12.3473  -21.1537   18.9410 N   0  0  0  0  0  0  0  0  0  0  0  0
   11.5960  -19.9895   18.4667 C   0  0  0  0  0  0  0  0  0  0  0  0
   12.3605  -18.7727   18.9283 C   0  0  0  0  0  0  0  0  0  0  0  0
   11.4571  -17.6114   19.2518 C   0  0  0  0  0  0  0  0  0  0  0  0
   12.1779  -16.3998   19.6684 C   0  0  2  0  0  0  0  0  0  0  0  0
   13.4360  -16.1111   19.0557 N   0  0  0  0  0  0  0  0  0  0  0  0
   12.2578  -16.2554   21.1704 C   0  0  0  0  0  0  0  0  0  0  0  0
   13.3410  -16.4785   21.7901 O   0  0  0  0  0  0  0  0  0  0  0  0
   13.8547  -23.1010   19.6267 O   0  0  0  0  0  0  0  0  0  0  0  0
    9.8170  -13.8493   23.5078 C   0  0  0  0  0  0  0  0  0  0  0  0
    9.9327  -15.1618   23.9675 C   0  0  2  0  0  0  0  0  0  0  0  0
   11.1700  -15.8326   23.4175 N   0  0  0  0  0  0  0  0  0  0  0  0
   11.1569  -15.8711   21.9644 C   0  0  0  0  0  0  0  0  0  0  0  0
   11.4216  -17.1616   24.0011 O   0  0  0  0  0  0  0  0  0  0  0  0
   11.4312  -18.1671   23.2680 O   0  0  0  0  0  0  0  0  0  0  0  0
  2  1  1  6
  2  3  1  0
  3  4  1  0
  4  8  1  0
  5  4  2  0
  6 17  1  0
  6  2  1  0
  7  6  2  0
  9 10  1  0
 10 11  2  0
 10 12  1  0
 12 13  1  0
 14 13  1  0
 16 15  1  1
 15 14  1  0
 16 17  1  0
 18 16  1  0
 19 18  2  0
 20 21  1  0
 22 21  1  6
 22 24  1  0
 22 23  1  0
 23 18  1  0
 24 26  1  0
 25 24  2  0
M  END
$$$$
