DRS.pdb
     RDKit          3D

 26 25  0  0  1  0  0  0  0  0999 V2000
   16.4537  -13.6009   16.2193 N   0  0  0  0  0  0  0  0  0  0  0  0
   15.7181  -14.7680   16.6124 C   0  0  1  0  0  0  0  0  0  0  0  0
   16.6495  -15.9480   16.7476 C   0  0  0  0  0  0  0  0  0  0  0  0
   17.2498  -16.3296   15.4534 C   0  0  0  0  0  0  0  0  0  0  0  0
   16.5237  -16.5452   14.4481 O   0  0  0  0  0  0  0  0  0  0  0  0
   15.0389  -14.5686   17.9086 C   0  0  0  0  0  0  0  0  0  0  0  0
   15.6887  -14.0409   18.8336 O   0  0  0  0  0  0  0  0  0  0  0  0
   18.6131  -16.4582   15.3231 O   0  0  0  0  0  0  0  0  0  0  0  0
    6.6293  -13.4032   18.8155 N   0  0  0  0  0  0  0  0  0  0  0  0
    7.5200  -12.9107   19.8197 C   0  0  0  0  0  0  0  0  0  0  0  0
    7.0430  -12.3370   20.8621 N   0  0  0  0  0  0  0  0  0  0  0  0
    8.9141  -13.0511   19.6788 N   0  0  0  0  0  0  0  0  0  0  0  0
    9.5033  -13.5788   18.4464 C   0  0  0  0  0  0  0  0  0  0  0  0
   11.0002  -13.5209   18.6314 C   0  0  0  0  0  0  0  0  0  0  0  0
   11.5393  -14.7250   19.3587 C   0  0  0  0  0  0  0  0  0  0  0  0
   13.0075  -14.7968   19.3759 C   0  0  2  0  0  0  0  0  0  0  0  0
   13.6966  -14.9505   18.1338 N   0  0  0  0  0  0  0  0  0  0  0  0
   13.5326  -15.7621   20.4131 C   0  0  0  0  0  0  0  0  0  0  0  0
   13.6854  -16.9910   20.1418 O   0  0  0  0  0  0  0  0  0  0  0  0
    7.6727  -11.9755   21.6373 O   0  0  0  0  0  0  0  0  0  0  0  0
   15.9506  -16.4591   24.5633 C   0  0  0  0  0  0  0  0  0  0  0  0
   15.3722  -15.5682   23.6583 C   0  0  2  0  0  0  0  0  0  0  0  0
   14.4013  -16.2694   22.7368 N   0  0  0  0  0  0  0  0  0  0  0  0
   13.8800  -15.3682   21.7224 C   0  0  0  0  0  0  0  0  0  0  0  0
   13.3241  -16.9755   23.4518 O   0  0  0  0  0  0  0  0  0  0  0  0
   12.1872  -16.4730   23.5091 O   0  0  0  0  0  0  0  0  0  0  0  0
  2  1  1  1
  2  3  1  0
  3  4  1  0
  4  8  1  0
  5  4  2  0
  6 17  1  0
  6  2  1  0
  7  6  2  0
  9 10  1  0
 10 11  2  0
 10 12  1  0
 12 13  1  0
 14 13  1  0
 16 15  1  6
 15 14  1  0
 16 17  1  0
 18 16  1  0
 19 18  2  0
 20 21  1  0
 22 21  1  6
 22 24  1  0
 22 23  1  0
 23 18  1  0
 24 26  1  0
 25 24  2  0
M  END
$$$$
