DRS.pdb
     RDKit          3D

 26 25  0  0  1  0  0  0  0  0999 V2000
   14.0809  -17.4478   15.8283 N   0  0  0  0  0  0  0  0  0  0  0  0
   13.7380  -18.1611   17.0247 C   0  0  1  0  0  0  0  0  0  0  0  0
   14.9419  -18.9055   17.5488 C   0  0  0  0  0  0  0  0  0  0  0  0
   15.3371  -20.0147   16.6577 C   0  0  0  0  0  0  0  0  0  0  0  0
   14.5808  -20.3875   15.7231 O   0  0  0  0  0  0  0  0  0  0  0  0
   13.2672  -17.2461   18.0843 C   0  0  0  0  0  0  0  0  0  0  0  0
   13.9476  -16.2277   18.3216 O   0  0  0  0  0  0  0  0  0  0  0  0
   16.5379  -20.6621   16.8334 O   0  0  0  0  0  0  0  0  0  0  0  0
    7.5995  -12.3137   20.4026 N   0  0  0  0  0  0  0  0  0  0  0  0
    7.6998  -13.2645   19.3397 C   0  0  0  0  0  0  0  0  0  0  0  0
    7.5339  -12.8791   18.1283 N   0  0  0  0  0  0  0  0  0  0  0  0
    7.9817  -14.6182   19.6070 N   0  0  0  0  0  0  0  0  0  0  0  0
    8.2639  -15.0804   20.9676 C   0  0  0  0  0  0  0  0  0  0  0  0
    9.7342  -15.4193   21.0056 C   0  0  0  0  0  0  0  0  0  0  0  0
   10.1637  -16.2600   19.8316 C   0  0  0  0  0  0  0  0  0  0  0  0
   11.5893  -16.6184   19.8513 C   0  0  2  0  0  0  0  0  0  0  0  0
   12.0887  -17.4820   18.8284 N   0  0  0  0  0  0  0  0  0  0  0  0
   12.0611  -17.0617   21.2167 C   0  0  0  0  0  0  0  0  0  0  0  0
   11.6679  -18.1576   21.7181 O   0  0  0  0  0  0  0  0  0  0  0  0
    7.5798  -13.5605   17.3149 O   0  0  0  0  0  0  0  0  0  0  0  0
   15.6660  -16.0040   22.7885 C   0  0  0  0  0  0  0  0  0  0  0  0
   14.6447  -15.9107   23.7348 C   0  0  2  0  0  0  0  0  0  0  0  0
   13.4300  -16.7066   23.3169 N   0  0  0  0  0  0  0  0  0  0  0  0
   12.9504  -16.3023   22.0056 C   0  0  0  0  0  0  0  0  0  0  0  0
   12.3537  -16.7002   24.3227 O   0  0  0  0  0  0  0  0  0  0  0  0
   12.6042  -17.0221   25.4984 O   0  0  0  0  0  0  0  0  0  0  0  0
  2  1  1  6
  2  3  1  0
  3  4  1  0
  4  8  1  0
  5  4  2  0
  6 17  1  0
  6  2  1  0
  7  6  2  0
  9 10  1  0
 10 11  2  0
 10 12  1  0
 12 13  1  0
 14 13  1  0
 16 15  1  1
 15 14  1  0
 16 17  1  0
 18 16  1  0
 19 18  2  0
 20 21  1  0
 22 21  1  6
 22 24  1  0
 22 23  1  0
 23 18  1  0
 24 26  1  0
 25 24  2  0
M  END
$$$$
