DRS.pdb
     RDKit          3D

 26 25  0  0  1  0  0  0  0  0999 V2000
   15.8203  -13.3797   16.1816 N   0  0  0  0  0  0  0  0  0  0  0  0
   15.4761  -14.6470   16.7588 C   0  0  1  0  0  0  0  0  0  0  0  0
   16.7249  -15.3813   17.1826 C   0  0  0  0  0  0  0  0  0  0  0  0
   17.5199  -15.8345   16.0236 C   0  0  0  0  0  0  0  0  0  0  0  0
   17.1007  -15.6587   14.8498 O   0  0  0  0  0  0  0  0  0  0  0  0
   14.6139  -14.4843   17.9469 C   0  0  0  0  0  0  0  0  0  0  0  0
   14.8730  -13.5513   18.7335 O   0  0  0  0  0  0  0  0  0  0  0  0
   18.7322  -16.4585   16.2052 O   0  0  0  0  0  0  0  0  0  0  0  0
    7.0105  -13.0548   20.3150 N   0  0  0  0  0  0  0  0  0  0  0  0
    7.7149  -13.2446   19.0854 C   0  0  0  0  0  0  0  0  0  0  0  0
    7.5388  -12.4182   18.1213 N   0  0  0  0  0  0  0  0  0  0  0  0
    8.6019  -14.3261   18.9218 N   0  0  0  0  0  0  0  0  0  0  0  0
    8.8562  -15.2708   20.0116 C   0  0  0  0  0  0  0  0  0  0  0  0
   10.3342  -15.1915   20.3073 C   0  0  0  0  0  0  0  0  0  0  0  0
   11.1773  -15.2648   19.0610 C   0  0  0  0  0  0  0  0  0  0  0  0
   12.6220  -15.1788   19.3188 C   0  0  2  0  0  0  0  0  0  0  0  0
   13.5208  -15.3382   18.2196 N   0  0  0  0  0  0  0  0  0  0  0  0
   13.0548  -16.0136   20.5016 C   0  0  0  0  0  0  0  0  0  0  0  0
   12.9025  -17.2722   20.5018 O   0  0  0  0  0  0  0  0  0  0  0  0
    8.0385  -12.5316   17.1910 O   0  0  0  0  0  0  0  0  0  0  0  0
   16.2285  -15.0027   22.6797 C   0  0  0  0  0  0  0  0  0  0  0  0
   15.2300  -15.4828   23.5281 C   0  0  2  0  0  0  0  0  0  0  0  0
   14.1729  -16.2437   22.7617 N   0  0  0  0  0  0  0  0  0  0  0  0
   13.6440  -15.4600   21.6576 C   0  0  0  0  0  0  0  0  0  0  0  0
   13.1017  -16.7789   23.6197 O   0  0  0  0  0  0  0  0  0  0  0  0
   11.9182  -16.4631   23.4006 O   0  0  0  0  0  0  0  0  0  0  0  0
  2  1  1  1
  2  3  1  0
  3  4  1  0
  4  8  1  0
  5  4  2  0
  6 17  1  0
  6  2  1  0
  7  6  2  0
  9 10  1  0
 10 11  2  0
 10 12  1  0
 12 13  1  0
 14 13  1  0
 16 15  1  6
 15 14  1  0
 16 17  1  0
 18 16  1  0
 19 18  2  0
 20 21  1  0
 22 21  1  6
 22 24  1  0
 22 23  1  0
 23 18  1  0
 24 26  1  0
 25 24  2  0
M  END
$$$$
