DRS.pdb
     RDKit          3D

 26 25  0  0  1  0  0  0  0  0999 V2000
   13.4916  -14.6389   18.0541 N   0  0  0  0  0  0  0  0  0  0  0  0
   13.7303  -15.6066   19.0857 C   0  0  1  0  0  0  0  0  0  0  0  0
   15.1841  -15.5857   19.4913 C   0  0  0  0  0  0  0  0  0  0  0  0
   16.0692  -16.0388   18.3994 C   0  0  0  0  0  0  0  0  0  0  0  0
   15.7013  -16.9482   17.6108 O   0  0  0  0  0  0  0  0  0  0  0  0
   12.9151  -15.3305   20.2860 C   0  0  0  0  0  0  0  0  0  0  0  0
   13.1533  -14.2869   20.9267 O   0  0  0  0  0  0  0  0  0  0  0  0
   17.3124  -15.4766   18.2251 O   0  0  0  0  0  0  0  0  0  0  0  0
    7.6905  -12.2660   19.7643 N   0  0  0  0  0  0  0  0  0  0  0  0
    7.8600  -13.0667   18.5920 C   0  0  0  0  0  0  0  0  0  0  0  0
    8.3120  -12.5301   17.5191 N   0  0  0  0  0  0  0  0  0  0  0  0
    7.5395  -14.4380   18.6027 N   0  0  0  0  0  0  0  0  0  0  0  0
    7.7156  -15.2493   19.8091 C   0  0  0  0  0  0  0  0  0  0  0  0
    9.1378  -15.0308   20.2651 C   0  0  0  0  0  0  0  0  0  0  0  0
    9.5144  -15.9144   21.4258 C   0  0  0  0  0  0  0  0  0  0  0  0
   10.9468  -15.8803   21.7542 C   0  0  2  0  0  0  0  0  0  0  0  0
   11.8888  -16.1967   20.7275 N   0  0  0  0  0  0  0  0  0  0  0  0
   11.2699  -16.6147   23.0347 C   0  0  0  0  0  0  0  0  0  0  0  0
   11.8058  -17.7634   23.0100 O   0  0  0  0  0  0  0  0  0  0  0  0
    8.4667  -13.0967   16.6343 O   0  0  0  0  0  0  0  0  0  0  0  0
   10.9805  -16.6778   27.9472 C   0  0  0  0  0  0  0  0  0  0  0  0
   10.8177  -15.9690   26.7562 C   0  0  2  0  0  0  0  0  0  0  0  0
   11.1402  -16.8265   25.5545 N   0  0  0  0  0  0  0  0  0  0  0  0
   11.0026  -16.0824   24.3134 C   0  0  0  0  0  0  0  0  0  0  0  0
   10.3891  -18.0934   25.5230 O   0  0  0  0  0  0  0  0  0  0  0  0
    9.3446  -18.1764   24.8517 O   0  0  0  0  0  0  0  0  0  0  0  0
  2  1  1  6
  2  3  1  0
  3  4  1  0
  4  8  1  0
  5  4  2  0
  6 17  1  0
  6  2  1  0
  7  6  2  0
  9 10  1  0
 10 11  2  0
 10 12  1  0
 12 13  1  0
 14 13  1  0
 16 15  1  6
 15 14  1  0
 16 17  1  0
 18 16  1  0
 19 18  2  0
 20 21  1  0
 22 21  1  1
 22 24  1  0
 22 23  1  0
 23 18  1  0
 24 26  1  0
 25 24  2  0
M  END
$$$$
