DRS.pdb
     RDKit          3D

 26 25  0  0  1  0  0  0  0  0999 V2000
   17.2706  -16.8787   11.0828 N   0  0  0  0  0  0  0  0  0  0  0  0
   17.3158  -18.2969   11.2939 C   0  0  1  0  0  0  0  0  0  0  0  0
   18.7192  -18.8095   11.0797 C   0  0  0  0  0  0  0  0  0  0  0  0
   19.1791  -18.5987    9.6923 C   0  0  0  0  0  0  0  0  0  0  0  0
   18.3854  -18.1791    8.8102 O   0  0  0  0  0  0  0  0  0  0  0  0
   16.9015  -18.6533   12.6660 C   0  0  0  0  0  0  0  0  0  0  0  0
   16.9844  -17.7750   13.5481 O   0  0  0  0  0  0  0  0  0  0  0  0
   20.4825  -18.8587    9.3382 O   0  0  0  0  0  0  0  0  0  0  0  0
   11.3123  -24.5488   15.6637 N   0  0  0  0  0  0  0  0  0  0  0  0
   12.6771  -24.6957   15.2639 C   0  0  0  0  0  0  0  0  0  0  0  0
   13.0890  -25.8266   14.8226 N   0  0  0  0  0  0  0  0  0  0  0  0
   13.5733  -23.6125   15.3461 N   0  0  0  0  0  0  0  0  0  0  0  0
   13.1714  -22.3386   15.9465 C   0  0  0  0  0  0  0  0  0  0  0  0
   14.3714  -21.4277   15.8553 C   0  0  0  0  0  0  0  0  0  0  0  0
   14.8322  -21.2197   14.4362 C   0  0  0  0  0  0  0  0  0  0  0  0
   15.9878  -20.3190   14.3159 C   0  0  2  0  0  0  0  0  0  0  0  0
   16.4212  -19.9379   13.0089 N   0  0  0  0  0  0  0  0  0  0  0  0
   17.1554  -20.7498   15.1729 C   0  0  0  0  0  0  0  0  0  0  0  0
   17.8869  -21.7281   14.8339 O   0  0  0  0  0  0  0  0  0  0  0  0
   14.0953  -25.9730   14.5162 O   0  0  0  0  0  0  0  0  0  0  0  0
   19.3480  -18.0332   17.2713 C   0  0  0  0  0  0  0  0  0  0  0  0
   19.0842  -19.1865   18.0113 C   0  0  2  0  0  0  0  0  0  0  0  0
   18.7315  -20.3500   17.1139 N   0  0  0  0  0  0  0  0  0  0  0  0
   17.5011  -20.1058   16.3795 C   0  0  0  0  0  0  0  0  0  0  0  0
   18.7046  -21.6434   17.8185 O   0  0  0  0  0  0  0  0  0  0  0  0
   19.7702  -22.1662   18.1923 O   0  0  0  0  0  0  0  0  0  0  0  0
  2  1  1  1
  2  3  1  0
  3  4  1  0
  4  8  1  0
  5  4  2  0
  6 17  1  0
  6  2  1  0
  7  6  2  0
  9 10  1  0
 10 11  2  0
 10 12  1  0
 12 13  1  0
 14 13  1  0
 16 15  1  6
 15 14  1  0
 16 17  1  0
 18 16  1  0
 19 18  2  0
 20 21  1  0
 22 21  1  6
 22 24  1  0
 22 23  1  0
 23 18  1  0
 24 26  1  0
 25 24  2  0
M  END
$$$$
