DRS.pdb
     RDKit          3D

 26 25  0  0  1  0  0  0  0  0999 V2000
   13.7374  -15.1246   17.0814 N   0  0  0  0  0  0  0  0  0  0  0  0
   14.3808  -15.3811   18.3376 C   0  0  1  0  0  0  0  0  0  0  0  0
   15.6706  -14.6024   18.4293 C   0  0  0  0  0  0  0  0  0  0  0  0
   16.5146  -15.0609   19.5511 C   0  0  0  0  0  0  0  0  0  0  0  0
   16.1544  -16.0282   20.2713 O   0  0  0  0  0  0  0  0  0  0  0  0
   13.5248  -14.9865   19.4747 C   0  0  0  0  0  0  0  0  0  0  0  0
   13.4440  -13.7728   19.7517 O   0  0  0  0  0  0  0  0  0  0  0  0
   17.7089  -14.4383   19.8305 O   0  0  0  0  0  0  0  0  0  0  0  0
    7.6087  -14.8093   17.6211 N   0  0  0  0  0  0  0  0  0  0  0  0
    7.9007  -13.4250   17.8269 C   0  0  0  0  0  0  0  0  0  0  0  0
    7.1666  -12.5339   17.2696 N   0  0  0  0  0  0  0  0  0  0  0  0
    8.9825  -13.0286   18.6367 N   0  0  0  0  0  0  0  0  0  0  0  0
    9.2089  -13.6343   19.9507 C   0  0  0  0  0  0  0  0  0  0  0  0
   10.1321  -14.8070   19.7254 C   0  0  0  0  0  0  0  0  0  0  0  0
   10.4617  -15.5360   21.0019 C   0  0  0  0  0  0  0  0  0  0  0  0
   11.9001  -15.5827   21.3014 C   0  0  2  0  0  0  0  0  0  0  0  0
   12.8044  -15.9243   20.2493 N   0  0  0  0  0  0  0  0  0  0  0  0
   12.2096  -16.3606   22.5594 C   0  0  0  0  0  0  0  0  0  0  0  0
   12.9691  -17.3751   22.5283 O   0  0  0  0  0  0  0  0  0  0  0  0
    7.3549  -11.4964   17.3971 O   0  0  0  0  0  0  0  0  0  0  0  0
    9.8189  -15.8569   25.8958 C   0  0  0  0  0  0  0  0  0  0  0  0
   11.1337  -16.2074   26.2051 C   0  0  1  0  0  0  0  0  0  0  0  0
   11.8330  -16.8300   25.0189 N   0  0  0  0  0  0  0  0  0  0  0  0
   11.6856  -16.0166   23.8232 C   0  0  0  0  0  0  0  0  0  0  0  0
   11.4456  -18.2315   24.7825 O   0  0  0  0  0  0  0  0  0  0  0  0
   10.8482  -18.5396   23.7353 O   0  0  0  0  0  0  0  0  0  0  0  0
  2  1  1  6
  2  3  1  0
  3  4  1  0
  4  8  1  0
  5  4  2  0
  6 17  1  0
  6  2  1  0
  7  6  2  0
  9 10  1  0
 10 11  2  0
 10 12  1  0
 12 13  1  0
 14 13  1  0
 16 15  1  6
 15 14  1  0
 16 17  1  0
 18 16  1  0
 19 18  2  0
 20 21  1  0
 22 21  1  1
 22 24  1  0
 22 23  1  0
 23 18  1  0
 24 26  1  0
 25 24  2  0
M  END
$$$$
