DRS.pdb
     RDKit          3D

 26 25  0  0  1  0  0  0  0  0999 V2000
   15.5403  -14.3552   15.3030 N   0  0  0  0  0  0  0  0  0  0  0  0
   15.1889  -15.4555   16.1537 C   0  0  1  0  0  0  0  0  0  0  0  0
   16.4000  -16.3174   16.4153 C   0  0  0  0  0  0  0  0  0  0  0  0
   16.6029  -17.3228   15.3528 C   0  0  0  0  0  0  0  0  0  0  0  0
   15.8628  -17.3388   14.3349 O   0  0  0  0  0  0  0  0  0  0  0  0
   14.6680  -14.9888   17.4547 C   0  0  0  0  0  0  0  0  0  0  0  0
   15.2389  -14.0229   18.0001 O   0  0  0  0  0  0  0  0  0  0  0  0
   17.6033  -18.2611   15.4568 O   0  0  0  0  0  0  0  0  0  0  0  0
    6.7452  -13.3862   19.5114 N   0  0  0  0  0  0  0  0  0  0  0  0
    7.8285  -13.3667   18.5787 C   0  0  0  0  0  0  0  0  0  0  0  0
    7.5943  -13.1243   17.3419 N   0  0  0  0  0  0  0  0  0  0  0  0
    9.1497  -13.6073   19.0027 N   0  0  0  0  0  0  0  0  0  0  0  0
    9.4531  -13.9212   20.4006 C   0  0  0  0  0  0  0  0  0  0  0  0
   10.9411  -14.1644   20.4690 C   0  0  0  0  0  0  0  0  0  0  0  0
   11.4833  -14.7861   19.2084 C   0  0  0  0  0  0  0  0  0  0  0  0
   12.9228  -15.0784   19.2652 C   0  0  2  0  0  0  0  0  0  0  0  0
   13.5605  -15.5914   18.0940 N   0  0  0  0  0  0  0  0  0  0  0  0
   13.3087  -15.8763   20.4891 C   0  0  0  0  0  0  0  0  0  0  0  0
   13.1487  -17.1334   20.5249 O   0  0  0  0  0  0  0  0  0  0  0  0
    8.3531  -13.2082   16.6035 O   0  0  0  0  0  0  0  0  0  0  0  0
   15.4228  -15.8742   24.9288 C   0  0  0  0  0  0  0  0  0  0  0  0
   14.9954  -15.1488   23.8160 C   0  0  2  0  0  0  0  0  0  0  0  0
   14.2738  -16.0322   22.8248 N   0  0  0  0  0  0  0  0  0  0  0  0
   13.8604  -15.2881   21.6465 C   0  0  0  0  0  0  0  0  0  0  0  0
   13.1567  -16.7859   23.4198 O   0  0  0  0  0  0  0  0  0  0  0  0
   11.9892  -16.3816   23.2710 O   0  0  0  0  0  0  0  0  0  0  0  0
  2  1  1  6
  2  3  1  0
  3  4  1  0
  4  8  1  0
  5  4  2  0
  6 17  1  0
  6  2  1  0
  7  6  2  0
  9 10  1  0
 10 11  2  0
 10 12  1  0
 12 13  1  0
 14 13  1  0
 16 15  1  6
 15 14  1  0
 16 17  1  0
 18 16  1  0
 19 18  2  0
 20 21  1  0
 22 21  1  6
 22 24  1  0
 22 23  1  0
 23 18  1  0
 24 26  1  0
 25 24  2  0
M  END
$$$$
