DRS.pdb
     RDKit          3D

 26 25  0  0  1  0  0  0  0  0999 V2000
   11.0577  -17.9024   16.9917 N   0  0  0  0  0  0  0  0  0  0  0  0
    9.8777  -17.8790   17.8072 C   0  0  1  0  0  0  0  0  0  0  0  0
    9.5668  -19.2674   18.3111 C   0  0  0  0  0  0  0  0  0  0  0  0
    9.0664  -20.1467   17.2354 C   0  0  0  0  0  0  0  0  0  0  0  0
    9.0312  -19.7454   16.0429 O   0  0  0  0  0  0  0  0  0  0  0  0
   10.0457  -16.9932   18.9771 C   0  0  0  0  0  0  0  0  0  0  0  0
   11.1596  -16.9717   19.5384 O   0  0  0  0  0  0  0  0  0  0  0  0
    8.6281  -21.4198   17.5169 O   0  0  0  0  0  0  0  0  0  0  0  0
    7.5839  -13.1666   15.3618 N   0  0  0  0  0  0  0  0  0  0  0  0
    8.0346  -14.1322   16.3150 C   0  0  0  0  0  0  0  0  0  0  0  0
    8.1287  -15.3638   15.9719 N   0  0  0  0  0  0  0  0  0  0  0  0
    8.3794  -13.7462   17.6247 N   0  0  0  0  0  0  0  0  0  0  0  0
    7.3528  -13.5178   18.6438 C   0  0  0  0  0  0  0  0  0  0  0  0
    8.0872  -13.2177   19.9279 C   0  0  0  0  0  0  0  0  0  0  0  0
    8.0500  -14.3702   20.8974 C   0  0  0  0  0  0  0  0  0  0  0  0
    9.0906  -15.3800   20.6555 C   0  0  2  0  0  0  0  0  0  0  0  0
    9.0018  -16.1807   19.4755 N   0  0  0  0  0  0  0  0  0  0  0  0
    9.3715  -16.2318   21.8717 C   0  0  0  0  0  0  0  0  0  0  0  0
    8.5159  -17.0658   22.2951 O   0  0  0  0  0  0  0  0  0  0  0  0
    8.3915  -16.1191   16.6708 O   0  0  0  0  0  0  0  0  0  0  0  0
   13.1681  -16.2027   23.8639 C   0  0  0  0  0  0  0  0  0  0  0  0
   12.3917  -17.3550   23.7342 C   0  0  1  0  0  0  0  0  0  0  0  0
   10.9166  -17.0276   23.7130 N   0  0  0  0  0  0  0  0  0  0  0  0
   10.5776  -16.1568   22.5996 C   0  0  0  0  0  0  0  0  0  0  0  0
   10.4170  -16.5017   24.9951 O   0  0  0  0  0  0  0  0  0  0  0  0
   10.6037  -17.1466   26.0429 O   0  0  0  0  0  0  0  0  0  0  0  0
  2  1  1  1
  2  3  1  0
  3  4  1  0
  4  8  1  0
  5  4  2  0
  6 17  1  0
  6  2  1  0
  7  6  2  0
  9 10  1  0
 10 11  2  0
 10 12  1  0
 12 13  1  0
 14 13  1  0
 16 15  1  1
 15 14  1  0
 16 17  1  0
 18 16  1  0
 19 18  2  0
 20 21  1  0
 22 21  1  6
 22 24  1  0
 22 23  1  0
 23 18  1  0
 24 26  1  0
 25 24  2  0
M  END
$$$$
