DRS.pdb
     RDKit          3D

 26 25  0  0  1  0  0  0  0  0999 V2000
   12.8425  -18.6943   17.4694 N   0  0  0  0  0  0  0  0  0  0  0  0
   12.0363  -18.9093   18.6363 C   0  0  1  0  0  0  0  0  0  0  0  0
   12.6184  -20.0233   19.4719 C   0  0  0  0  0  0  0  0  0  0  0  0
   12.5084  -21.3338   18.8000 C   0  0  0  0  0  0  0  0  0  0  0  0
   12.0048  -21.4249   17.6500 O   0  0  0  0  0  0  0  0  0  0  0  0
   11.9642  -17.6959   19.4753 C   0  0  0  0  0  0  0  0  0  0  0  0
   12.9487  -16.9298   19.4804 O   0  0  0  0  0  0  0  0  0  0  0  0
   12.9524  -22.4790   19.4191 O   0  0  0  0  0  0  0  0  0  0  0  0
    8.1228  -12.8116   18.3392 N   0  0  0  0  0  0  0  0  0  0  0  0
    7.8893  -12.5341   19.7221 C   0  0  0  0  0  0  0  0  0  0  0  0
    8.1102  -11.3562   20.1772 N   0  0  0  0  0  0  0  0  0  0  0  0
    7.4167  -13.5380   20.5894 N   0  0  0  0  0  0  0  0  0  0  0  0
    7.3219  -14.9334   20.1552 C   0  0  0  0  0  0  0  0  0  0  0  0
    8.7391  -15.4185   19.9694 C   0  0  0  0  0  0  0  0  0  0  0  0
    9.4813  -15.5470   21.2740 C   0  0  0  0  0  0  0  0  0  0  0  0
   10.7565  -16.2693   21.1600 C   0  0  2  0  0  0  0  0  0  0  0  0
   10.8335  -17.3780   20.2620 N   0  0  0  0  0  0  0  0  0  0  0  0
   11.3541  -16.6147   22.5042 C   0  0  0  0  0  0  0  0  0  0  0  0
   10.6702  -17.2151   23.3868 O   0  0  0  0  0  0  0  0  0  0  0  0
    7.8938  -11.0975   21.1843 O   0  0  0  0  0  0  0  0  0  0  0  0
   14.0152  -18.9993   24.9773 C   0  0  0  0  0  0  0  0  0  0  0  0
   13.2951  -18.4160   23.9340 C   0  0  1  0  0  0  0  0  0  0  0  0
   13.4019  -16.9090   23.9640 N   0  0  0  0  0  0  0  0  0  0  0  0
   12.6828  -16.2992   22.8577 C   0  0  0  0  0  0  0  0  0  0  0  0
   14.7901  -16.4239   24.0523 O   0  0  0  0  0  0  0  0  0  0  0  0
   15.3219  -15.8879   23.0632 O   0  0  0  0  0  0  0  0  0  0  0  0
  2  1  1  6
  2  3  1  0
  3  4  1  0
  4  8  1  0
  5  4  2  0
  6 17  1  0
  6  2  1  0
  7  6  2  0
  9 10  1  0
 10 11  2  0
 10 12  1  0
 12 13  1  0
 14 13  1  0
 16 15  1  1
 15 14  1  0
 16 17  1  0
 18 16  1  0
 19 18  2  0
 20 21  1  0
 22 21  1  1
 22 24  1  0
 22 23  1  0
 23 18  1  0
 24 26  1  0
 25 24  2  0
M  END
$$$$
