DRS.pdb
     RDKit          3D

 26 25  0  0  1  0  0  0  0  0999 V2000
   13.8445  -16.1820   17.9027 N   0  0  0  0  0  0  0  0  0  0  0  0
   13.3364  -17.2591   18.7025 C   0  0  1  0  0  0  0  0  0  0  0  0
   14.4387  -18.2436   19.0088 C   0  0  0  0  0  0  0  0  0  0  0  0
   14.8368  -19.0167   17.8153 C   0  0  0  0  0  0  0  0  0  0  0  0
   14.3772  -18.7263   16.6801 O   0  0  0  0  0  0  0  0  0  0  0  0
   12.7889  -16.7699   19.9841 C   0  0  0  0  0  0  0  0  0  0  0  0
   13.5288  -16.0733   20.7077 O   0  0  0  0  0  0  0  0  0  0  0  0
   15.7158  -20.0693   17.9223 O   0  0  0  0  0  0  0  0  0  0  0  0
    8.3031  -12.2905   19.7460 N   0  0  0  0  0  0  0  0  0  0  0  0
    7.9900  -13.2126   18.6992 C   0  0  0  0  0  0  0  0  0  0  0  0
    8.3036  -12.9268   17.4895 N   0  0  0  0  0  0  0  0  0  0  0  0
    7.3443  -14.4319   18.9814 N   0  0  0  0  0  0  0  0  0  0  0  0
    7.5694  -15.1352   20.2460 C   0  0  0  0  0  0  0  0  0  0  0  0
    9.0621  -15.3213   20.3696 C   0  0  0  0  0  0  0  0  0  0  0  0
    9.4418  -16.1759   21.5507 C   0  0  0  0  0  0  0  0  0  0  0  0
   10.8687  -16.5269   21.5921 C   0  0  2  0  0  0  0  0  0  0  0  0
   11.4735  -17.0605   20.4127 N   0  0  0  0  0  0  0  0  0  0  0  0
   11.2337  -17.3448   22.8091 C   0  0  0  0  0  0  0  0  0  0  0  0
   10.9975  -18.5896   22.8528 O   0  0  0  0  0  0  0  0  0  0  0  0
    8.0697  -13.5781   16.6838 O   0  0  0  0  0  0  0  0  0  0  0  0
   14.5415  -17.2520   24.6405 C   0  0  0  0  0  0  0  0  0  0  0  0
   13.5791  -17.1656   25.6472 C   0  0  2  0  0  0  0  0  0  0  0  0
   12.2096  -17.5495   25.1365 N   0  0  0  0  0  0  0  0  0  0  0  0
   11.8479  -16.7897   23.9513 C   0  0  0  0  0  0  0  0  0  0  0  0
   11.1625  -17.4877   26.1709 O   0  0  0  0  0  0  0  0  0  0  0  0
   10.1611  -16.7703   25.9948 O   0  0  0  0  0  0  0  0  0  0  0  0
  2  1  1  6
  2  3  1  0
  3  4  1  0
  4  8  1  0
  5  4  2  0
  6 17  1  0
  6  2  1  0
  7  6  2  0
  9 10  1  0
 10 11  2  0
 10 12  1  0
 12 13  1  0
 14 13  1  0
 16 15  1  6
 15 14  1  0
 16 17  1  0
 18 16  1  0
 19 18  2  0
 20 21  1  0
 22 21  1  6
 22 24  1  0
 22 23  1  0
 23 18  1  0
 24 26  1  0
 25 24  2  0
M  END
$$$$
