DRS.pdb
     RDKit          3D

 26 25  0  0  1  0  0  0  0  0999 V2000
   12.8829  -16.0765   18.1851 N   0  0  0  0  0  0  0  0  0  0  0  0
   13.7108  -15.7995   19.3234 C   0  0  1  0  0  0  0  0  0  0  0  0
   14.4816  -14.5201   19.1062 C   0  0  0  0  0  0  0  0  0  0  0  0
   15.4145  -14.6234   17.9661 C   0  0  0  0  0  0  0  0  0  0  0  0
   16.1079  -15.6601   17.7964 O   0  0  0  0  0  0  0  0  0  0  0  0
   12.9071  -15.6479   20.5532 C   0  0  0  0  0  0  0  0  0  0  0  0
   13.4900  -15.2693   21.5892 O   0  0  0  0  0  0  0  0  0  0  0  0
   15.5442  -13.5883   17.0696 O   0  0  0  0  0  0  0  0  0  0  0  0
    7.7297  -14.3598   17.2712 N   0  0  0  0  0  0  0  0  0  0  0  0
    7.7860  -13.2195   18.1318 C   0  0  0  0  0  0  0  0  0  0  0  0
    8.3381  -12.1398   17.7162 N   0  0  0  0  0  0  0  0  0  0  0  0
    7.2397  -13.2672   19.4289 N   0  0  0  0  0  0  0  0  0  0  0  0
    7.4369  -14.4328   20.2933 C   0  0  0  0  0  0  0  0  0  0  0  0
    8.9154  -14.4971   20.5903 C   0  0  0  0  0  0  0  0  0  0  0  0
    9.2584  -15.5753   21.5849 C   0  0  0  0  0  0  0  0  0  0  0  0
   10.7035  -15.7792   21.7610 C   0  0  2  0  0  0  0  0  0  0  0  0
   11.5194  -15.9139   20.5958 N   0  0  0  0  0  0  0  0  0  0  0  0
   11.0223  -16.8522   22.7761 C   0  0  0  0  0  0  0  0  0  0  0  0
   10.9581  -18.0804   22.4684 O   0  0  0  0  0  0  0  0  0  0  0  0
    8.3870  -11.2691   18.3224 O   0  0  0  0  0  0  0  0  0  0  0  0
   14.0362  -17.2294   24.8496 C   0  0  0  0  0  0  0  0  0  0  0  0
   13.0079  -17.3469   25.7856 C   0  0  2  0  0  0  0  0  0  0  0  0
   11.6732  -17.5736   25.1143 N   0  0  0  0  0  0  0  0  0  0  0  0
   11.4043  -16.5644   24.1032 C   0  0  0  0  0  0  0  0  0  0  0  0
   10.5570  -17.7106   26.0658 O   0  0  0  0  0  0  0  0  0  0  0  0
    9.5599  -16.9737   25.9596 O   0  0  0  0  0  0  0  0  0  0  0  0
  2  1  1  6
  2  3  1  0
  3  4  1  0
  4  8  1  0
  5  4  2  0
  6 17  1  0
  6  2  1  0
  7  6  2  0
  9 10  1  0
 10 11  2  0
 10 12  1  0
 12 13  1  0
 14 13  1  0
 16 15  1  6
 15 14  1  0
 16 17  1  0
 18 16  1  0
 19 18  2  0
 20 21  1  0
 22 21  1  6
 22 24  1  0
 22 23  1  0
 23 18  1  0
 24 26  1  0
 25 24  2  0
M  END
$$$$
