DRS.pdb
     RDKit          3D

 26 25  0  0  1  0  0  0  0  0999 V2000
    9.7655  -13.6253   19.6876 N   0  0  0  0  0  0  0  0  0  0  0  0
    8.4544  -13.0819   19.8961 C   0  0  1  0  0  0  0  0  0  0  0  0
    7.6108  -13.2710   18.6589 C   0  0  0  0  0  0  0  0  0  0  0  0
    7.9508  -14.5171   17.9431 C   0  0  0  0  0  0  0  0  0  0  0  0
    8.5308  -15.4617   18.5394 O   0  0  0  0  0  0  0  0  0  0  0  0
    7.7680  -13.7424   21.0249 C   0  0  0  0  0  0  0  0  0  0  0  0
    6.6661  -13.2837   21.3877 O   0  0  0  0  0  0  0  0  0  0  0  0
    7.6416  -14.6679   16.6113 O   0  0  0  0  0  0  0  0  0  0  0  0
    6.4677  -21.5668   25.2800 N   0  0  0  0  0  0  0  0  0  0  0  0
    6.4739  -20.4933   26.2243 C   0  0  0  0  0  0  0  0  0  0  0  0
    6.1382  -20.7188   27.4408 N   0  0  0  0  0  0  0  0  0  0  0  0
    6.8473  -19.1925   25.8350 N   0  0  0  0  0  0  0  0  0  0  0  0
    7.1095  -18.8659   24.4317 C   0  0  0  0  0  0  0  0  0  0  0  0
    7.4206  -17.3896   24.3892 C   0  0  0  0  0  0  0  0  0  0  0  0
    7.6494  -16.8877   22.9873 C   0  0  0  0  0  0  0  0  0  0  0  0
    7.7708  -15.4255   22.8954 C   0  0  2  0  0  0  0  0  0  0  0  0
    8.3099  -14.8606   21.6989 N   0  0  0  0  0  0  0  0  0  0  0  0
    8.4084  -14.8144   24.1215 C   0  0  0  0  0  0  0  0  0  0  0  0
    9.6683  -14.7963   24.2607 O   0  0  0  0  0  0  0  0  0  0  0  0
    6.2102  -19.9673   28.1878 O   0  0  0  0  0  0  0  0  0  0  0  0
    7.1365  -11.5486   25.8827 C   0  0  0  0  0  0  0  0  0  0  0  0
    7.3910  -12.4959   26.8752 C   0  0  2  0  0  0  0  0  0  0  0  0
    8.2447  -13.6279   26.3524 N   0  0  0  0  0  0  0  0  0  0  0  0
    7.6604  -14.2364   25.1686 C   0  0  0  0  0  0  0  0  0  0  0  0
    8.5776  -14.6303   27.3793 O   0  0  0  0  0  0  0  0  0  0  0  0
    8.3371  -15.8332   27.1700 O   0  0  0  0  0  0  0  0  0  0  0  0
  2  1  1  6
  2  3  1  0
  3  4  1  0
  4  8  1  0
  5  4  2  0
  6 17  1  0
  6  2  1  0
  7  6  2  0
  9 10  1  0
 10 11  2  0
 10 12  1  0
 12 13  1  0
 14 13  1  0
 16 15  1  6
 15 14  1  0
 16 17  1  0
 18 16  1  0
 19 18  2  0
 20 21  1  0
 22 21  1  6
 22 24  1  0
 22 23  1  0
 23 18  1  0
 24 26  1  0
 25 24  2  0
M  END
$$$$
