DRS.pdb
     RDKit          3D

 26 25  0  0  1  0  0  0  0  0999 V2000
   13.5961  -16.7548   15.3598 N   0  0  0  0  0  0  0  0  0  0  0  0
   14.7155  -16.6186   16.2465 C   0  0  1  0  0  0  0  0  0  0  0  0
   15.7254  -15.6595   15.6648 C   0  0  0  0  0  0  0  0  0  0  0  0
   16.1952  -16.0919   14.3331 C   0  0  0  0  0  0  0  0  0  0  0  0
   17.0031  -15.3842   13.6768 O   0  0  0  0  0  0  0  0  0  0  0  0
   14.3006  -16.1029   17.5669 C   0  0  0  0  0  0  0  0  0  0  0  0
   15.1896  -15.6899   18.3385 O   0  0  0  0  0  0  0  0  0  0  0  0
   15.7572  -17.2749   13.7847 O   0  0  0  0  0  0  0  0  0  0  0  0
    6.9563  -12.2967   19.7911 N   0  0  0  0  0  0  0  0  0  0  0  0
    7.7854  -12.9108   18.8015 C   0  0  0  0  0  0  0  0  0  0  0  0
    7.4017  -12.9306   17.5784 N   0  0  0  0  0  0  0  0  0  0  0  0
    9.0193  -13.4911   19.1534 N   0  0  0  0  0  0  0  0  0  0  0  0
    9.4151  -13.6415   20.5553 C   0  0  0  0  0  0  0  0  0  0  0  0
   10.8077  -14.2235   20.5443 C   0  0  0  0  0  0  0  0  0  0  0  0
   11.1572  -14.8603   19.2245 C   0  0  0  0  0  0  0  0  0  0  0  0
   12.4920  -15.4756   19.2001 C   0  0  2  0  0  0  0  0  0  0  0  0
   12.9493  -16.0625   17.9803 N   0  0  0  0  0  0  0  0  0  0  0  0
   12.7306  -16.3994   20.3719 C   0  0  0  0  0  0  0  0  0  0  0  0
   12.3661  -17.6129   20.3301 O   0  0  0  0  0  0  0  0  0  0  0  0
    7.9778  -13.4017   16.8206 O   0  0  0  0  0  0  0  0  0  0  0  0
   14.7319  -15.1373   23.9645 C   0  0  0  0  0  0  0  0  0  0  0  0
   14.8572  -16.4297   23.4535 C   0  0  1  0  0  0  0  0  0  0  0  0
   13.6154  -16.8490   22.7013 N   0  0  0  0  0  0  0  0  0  0  0  0
   13.3608  -15.9818   21.5629 C   0  0  0  0  0  0  0  0  0  0  0  0
   12.4294  -16.9875   23.5639 O   0  0  0  0  0  0  0  0  0  0  0  0
   11.4294  -16.2757   23.3593 O   0  0  0  0  0  0  0  0  0  0  0  0
  2  1  1  6
  2  3  1  0
  3  4  1  0
  4  8  1  0
  5  4  2  0
  6 17  1  0
  6  2  1  0
  7  6  2  0
  9 10  1  0
 10 11  2  0
 10 12  1  0
 12 13  1  0
 14 13  1  0
 16 15  1  6
 15 14  1  0
 16 17  1  0
 18 16  1  0
 19 18  2  0
 20 21  1  0
 22 21  1  6
 22 24  1  0
 22 23  1  0
 23 18  1  0
 24 26  1  0
 25 24  2  0
M  END
$$$$
