ITC.pdb
     RDKit          3D

 22 21  0  0  1  0  0  0  0  0999 V2000
   25.8479  -16.0311  -15.4410 C   0  0  0  0  0  0  0  0  0  0  0  0
   24.4468  -15.5332  -15.6508 C   0  0  0  0  0  0  0  0  0  0  0  0
   24.3661  -14.0711  -15.9265 C   0  0  2  0  0  0  0  0  0  0  0  0
   24.9560  -13.3297  -14.7533 C   0  0  0  0  0  0  0  0  0  0  0  0
   22.9447  -13.6588  -16.2236 C   0  0  2  0  0  0  0  0  0  0  0  0
   22.4842  -14.4469  -17.3439 N   0  0  0  0  0  0  0  0  0  0  0  0
   22.9101  -12.2209  -16.6733 C   0  0  0  0  0  0  0  0  0  0  0  0
   23.7936  -11.7668  -17.4460 O   0  0  0  0  0  0  0  0  0  0  0  0
   21.0491  -10.6640  -18.9231 C   0  0  0  0  0  0  0  0  0  0  0  0
   20.6809   -9.8657  -17.6884 C   0  0  1  0  0  0  0  0  0  0  0  0
   19.6106  -10.4333  -17.0387 O   0  0  0  0  0  0  0  0  0  0  0  0
   21.9063   -9.9676  -16.7647 C   0  0  2  0  0  0  0  0  0  0  0  0
   21.8935  -11.3233  -16.2525 N   0  0  0  0  0  0  0  0  0  0  0  0
   21.6717   -8.9634  -15.6994 C   0  0  0  0  0  0  0  0  0  0  0  0
   21.2372   -9.3870  -14.5964 O   0  0  0  0  0  0  0  0  0  0  0  0
   21.8983   -7.5884  -15.8355 N   0  0  0  0  0  0  0  0  0  0  0  0
   21.5743   -6.6962  -14.7268 C   0  0  1  0  0  0  0  0  0  0  0  0
   22.8475   -5.9390  -14.4061 C   0  0  0  0  0  0  0  0  0  0  0  0
   22.5974   -4.6892  -13.1369 S   0  0  0  0  0  0  0  0  0  0  0  0
   20.4509   -5.8095  -15.0371 C   0  0  0  0  0  0  0  0  0  0  0  0
   19.6290   -5.3612  -14.0284 O   0  0  0  0  0  0  0  0  0  0  0  0
   20.2288   -5.4539  -16.2108 O   0  0  0  0  0  0  0  0  0  0  0  0
  2  1  1  0
  2  3  1  0
  3  4  1  1
  5  3  1  0
  5  7  1  0
  5  6  1  6
  7  8  2  0
 10  9  1  6
 10 12  1  0
 11 10  1  0
 12 13  1  1
 13  7  1  0
 14 12  1  0
 14 15  2  0
 16 14  1  0
 17 16  1  0
 17 20  1  0
 17 18  1  6
 19 18  1  0
 20 22  2  0
 20 21  1  0
M  END
$$$$
