ITC.pdb
     RDKit          3D

 22 21  0  0  1  0  0  0  0  0999 V2000
   17.3181  -12.8448  -19.0373 C   0  0  0  0  0  0  0  0  0  0  0  0
   17.4238  -13.3436  -17.6249 C   0  0  0  0  0  0  0  0  0  0  0  0
   18.1479  -12.4128  -16.7139 C   0  0  2  0  0  0  0  0  0  0  0  0
   17.5268  -11.0441  -16.8360 C   0  0  0  0  0  0  0  0  0  0  0  0
   19.6275  -12.4121  -17.0131 C   0  0  2  0  0  0  0  0  0  0  0  0
   20.1081  -13.7655  -16.8537 N   0  0  0  0  0  0  0  0  0  0  0  0
   20.3578  -11.5791  -15.9914 C   0  0  0  0  0  0  0  0  0  0  0  0
   20.1581  -11.7492  -14.7606 O   0  0  0  0  0  0  0  0  0  0  0  0
   23.7599  -11.3046  -15.1357 C   0  0  0  0  0  0  0  0  0  0  0  0
   23.4134   -9.8854  -15.5395 C   0  0  1  0  0  0  0  0  0  0  0  0
   23.6713   -9.6785  -16.8739 O   0  0  0  0  0  0  0  0  0  0  0  0
   21.8952   -9.7666  -15.3248 C   0  0  2  0  0  0  0  0  0  0  0  0
   21.2924  -10.5771  -16.3640 N   0  0  0  0  0  0  0  0  0  0  0  0
   21.5930   -8.3246  -15.4921 C   0  0  0  0  0  0  0  0  0  0  0  0
   20.9287   -7.9912  -16.5082 O   0  0  0  0  0  0  0  0  0  0  0  0
   21.9926   -7.3178  -14.6050 N   0  0  0  0  0  0  0  0  0  0  0  0
   21.6063   -5.9355  -14.8700 C   0  0  1  0  0  0  0  0  0  0  0  0
   20.0927   -5.8977  -14.8003 C   0  0  0  0  0  0  0  0  0  0  0  0
   19.4565   -4.2197  -14.6758 S   0  0  0  0  0  0  0  0  0  0  0  0
   22.2396   -4.9942  -13.9439 C   0  0  0  0  0  0  0  0  0  0  0  0
   22.5395   -3.7169  -14.3590 O   0  0  0  0  0  0  0  0  0  0  0  0
   22.5118   -5.3382  -12.7773 O   0  0  0  0  0  0  0  0  0  0  0  0
  2  1  1  0
  2  3  1  0
  3  4  1  6
  5  3  1  0
  5  7  1  0
  5  6  1  1
  7  8  2  0
 10  9  1  6
 10 12  1  0
 11 10  1  0
 12 13  1  6
 13  7  1  0
 14 12  1  0
 14 15  2  0
 16 14  1  0
 17 16  1  0
 17 20  1  0
 17 18  1  1
 19 18  1  0
 20 22  2  0
 20 21  1  0
M  END
$$$$
