ITC.pdb
     RDKit          3D

 22 21  0  0  1  0  0  0  0  0999 V2000
   27.4813  -10.7733  -15.8208 C   0  0  0  0  0  0  0  0  0  0  0  0
   26.3133  -11.0187  -16.7320 C   0  0  0  0  0  0  0  0  0  0  0  0
   25.1337  -11.6166  -16.0454 C   0  0  2  0  0  0  0  0  0  0  0  0
   25.5303  -12.9654  -15.5000 C   0  0  0  0  0  0  0  0  0  0  0  0
   23.9493  -11.6887  -16.9786 C   0  0  2  0  0  0  0  0  0  0  0  0
   24.3950  -12.3068  -18.2063 N   0  0  0  0  0  0  0  0  0  0  0  0
   23.4971  -10.2982  -17.3431 C   0  0  0  0  0  0  0  0  0  0  0  0
   24.1743   -9.5865  -18.1297 O   0  0  0  0  0  0  0  0  0  0  0  0
   20.8079   -9.2380  -19.1984 C   0  0  0  0  0  0  0  0  0  0  0  0
   20.5525   -8.5230  -17.8866 C   0  0  1  0  0  0  0  0  0  0  0  0
   19.7582   -9.2826  -17.0608 O   0  0  0  0  0  0  0  0  0  0  0  0
   21.9351   -8.3903  -17.2262 C   0  0  2  0  0  0  0  0  0  0  0  0
   22.3024   -9.7332  -16.8236 N   0  0  0  0  0  0  0  0  0  0  0  0
   21.7237   -7.4944  -16.0639 C   0  0  0  0  0  0  0  0  0  0  0  0
   22.0508   -7.9361  -14.9313 O   0  0  0  0  0  0  0  0  0  0  0  0
   21.1898   -6.2022  -16.1395 N   0  0  0  0  0  0  0  0  0  0  0  0
   21.0411   -5.4165  -14.9186 C   0  0  1  0  0  0  0  0  0  0  0  0
   22.4325   -5.2730  -14.3349 C   0  0  0  0  0  0  0  0  0  0  0  0
   22.4815   -4.1082  -12.9650 S   0  0  0  0  0  0  0  0  0  0  0  0
   20.3939   -4.1259  -15.1638 C   0  0  0  0  0  0  0  0  0  0  0  0
   20.7035   -3.4044  -16.2941 O   0  0  0  0  0  0  0  0  0  0  0  0
   19.5610   -3.6703  -14.3563 O   0  0  0  0  0  0  0  0  0  0  0  0
  2  1  1  0
  2  3  1  0
  3  4  1  6
  5  3  1  0
  5  7  1  0
  5  6  1  6
  7  8  2  0
 10  9  1  6
 10 12  1  0
 11 10  1  0
 12 13  1  1
 13  7  1  0
 14 12  1  0
 14 15  2  0
 16 14  1  0
 17 16  1  0
 17 20  1  0
 17 18  1  6
 19 18  1  0
 20 22  2  0
 20 21  1  0
M  END
$$$$
