ITC.pdb
     RDKit          3D

 22 21  0  0  1  0  0  0  0  0999 V2000
   27.0978  -20.0841   -7.6154 C   0  0  0  0  0  0  0  0  0  0  0  0
   25.6239  -19.9803   -7.8833 C   0  0  0  0  0  0  0  0  0  0  0  0
   25.2123  -20.5531   -9.1959 C   0  0  2  0  0  0  0  0  0  0  0  0
   26.1154  -19.9940  -10.2663 C   0  0  0  0  0  0  0  0  0  0  0  0
   23.7514  -20.2840   -9.4643 C   0  0  2  0  0  0  0  0  0  0  0  0
   22.9814  -21.0587   -8.5183 N   0  0  0  0  0  0  0  0  0  0  0  0
   23.3784  -20.7925  -10.8329 C   0  0  0  0  0  0  0  0  0  0  0  0
   23.5296  -22.0054  -11.1322 O   0  0  0  0  0  0  0  0  0  0  0  0
   20.6575  -21.8135  -12.2326 C   0  0  0  0  0  0  0  0  0  0  0  0
   20.9640  -20.6227  -13.1187 C   0  0  1  0  0  0  0  0  0  0  0  0
   20.4531  -19.4659  -12.5794 O   0  0  0  0  0  0  0  0  0  0  0  0
   22.4977  -20.5089  -13.1215 C   0  0  2  0  0  0  0  0  0  0  0  0
   22.8462  -19.9390  -11.8353 N   0  0  0  0  0  0  0  0  0  0  0  0
   22.8153  -19.5945  -14.2446 C   0  0  0  0  0  0  0  0  0  0  0  0
   23.5732  -18.6206  -13.9956 O   0  0  0  0  0  0  0  0  0  0  0  0
   22.3338  -19.7391  -15.5514 N   0  0  0  0  0  0  0  0  0  0  0  0
   22.8372  -18.8589  -16.6012 C   0  0  1  0  0  0  0  0  0  0  0  0
   24.3258  -19.1257  -16.7004 C   0  0  0  0  0  0  0  0  0  0  0  0
   25.0794  -18.2802  -18.0979 S   0  0  0  0  0  0  0  0  0  0  0  0
   22.1402  -19.0569  -17.8739 C   0  0  0  0  0  0  0  0  0  0  0  0
   22.0064  -18.0087  -18.7556 O   0  0  0  0  0  0  0  0  0  0  0  0
   21.6639  -20.1699  -18.1699 O   0  0  0  0  0  0  0  0  0  0  0  0
  2  1  1  0
  2  3  1  0
  3  4  1  6
  5  3  1  0
  5  7  1  0
  5  6  1  1
  7  8  2  0
 10  9  1  1
 10 12  1  0
 11 10  1  0
 12 13  1  1
 13  7  1  0
 14 12  1  0
 14 15  2  0
 16 14  1  0
 17 16  1  0
 17 20  1  0
 17 18  1  6
 19 18  1  0
 20 22  2  0
 20 21  1  0
M  END
$$$$
