ITC.pdb
     RDKit          3D

 22 21  0  0  1  0  0  0  0  0999 V2000
   24.5073  -21.7128   -6.9617 C   0  0  0  0  0  0  0  0  0  0  0  0
   23.8488  -20.8412   -7.9920 C   0  0  0  0  0  0  0  0  0  0  0  0
   24.5437  -20.8432   -9.3102 C   0  0  2  0  0  0  0  0  0  0  0  0
   25.9814  -20.4431   -9.0938 C   0  0  0  0  0  0  0  0  0  0  0  0
   23.8298  -19.9486  -10.2943 C   0  0  2  0  0  0  0  0  0  0  0  0
   22.4624  -20.4057  -10.3912 N   0  0  0  0  0  0  0  0  0  0  0  0
   24.4303  -20.1122  -11.6667 C   0  0  0  0  0  0  0  0  0  0  0  0
   25.6077  -19.7361  -11.9031 O   0  0  0  0  0  0  0  0  0  0  0  0
   25.2615  -22.9366  -13.5687 C   0  0  0  0  0  0  0  0  0  0  0  0
   24.2676  -22.2287  -14.4677 C   0  0  1  0  0  0  0  0  0  0  0  0
   22.9900  -22.6812  -14.2381 O   0  0  0  0  0  0  0  0  0  0  0  0
   24.3306  -20.7501  -14.0492 C   0  0  2  0  0  0  0  0  0  0  0  0
   23.7063  -20.6904  -12.7427 N   0  0  0  0  0  0  0  0  0  0  0  0
   23.5484  -20.0237  -15.0783 C   0  0  0  0  0  0  0  0  0  0  0  0
   22.3792  -19.6736  -14.7699 O   0  0  0  0  0  0  0  0  0  0  0  0
   24.0174  -19.7037  -16.3582 N   0  0  0  0  0  0  0  0  0  0  0  0
   23.1330  -19.0159  -17.2935 C   0  0  1  0  0  0  0  0  0  0  0  0
   23.9683  -17.9346  -17.9495 C   0  0  0  0  0  0  0  0  0  0  0  0
   23.1156  -17.1555  -19.3286 S   0  0  0  0  0  0  0  0  0  0  0  0
   22.5294  -19.9321  -18.2635 C   0  0  0  0  0  0  0  0  0  0  0  0
   21.2309  -19.7393  -18.6765 O   0  0  0  0  0  0  0  0  0  0  0  0
   23.1815  -20.8900  -18.7223 O   0  0  0  0  0  0  0  0  0  0  0  0
  2  1  1  0
  2  3  1  0
  3  4  1  1
  5  3  1  0
  5  7  1  0
  5  6  1  6
  7  8  2  0
 10  9  1  1
 10 12  1  0
 11 10  1  0
 12 13  1  1
 13  7  1  0
 14 12  1  0
 14 15  2  0
 16 14  1  0
 17 16  1  0
 17 20  1  0
 17 18  1  6
 19 18  1  0
 20 22  2  0
 20 21  1  0
M  END
$$$$
