ITC.pdb
     RDKit          3D

 22 21  0  0  1  0  0  0  0  0999 V2000
   16.8163  -15.5794  -16.3983 C   0  0  0  0  0  0  0  0  0  0  0  0
   18.2246  -15.1235  -16.6504 C   0  0  0  0  0  0  0  0  0  0  0  0
   18.6308  -13.9506  -15.8259 C   0  0  2  0  0  0  0  0  0  0  0  0
   17.5859  -12.8740  -15.9780 C   0  0  0  0  0  0  0  0  0  0  0  0
   20.0140  -13.4806  -16.2063 C   0  0  2  0  0  0  0  0  0  0  0  0
   20.9411  -14.5424  -15.8885 N   0  0  0  0  0  0  0  0  0  0  0  0
   20.4089  -12.3027  -15.3533 C   0  0  0  0  0  0  0  0  0  0  0  0
   20.2725  -12.3390  -14.1028 O   0  0  0  0  0  0  0  0  0  0  0  0
   23.4224  -10.6811  -14.4868 C   0  0  0  0  0  0  0  0  0  0  0  0
   22.6522   -9.6050  -15.2258 C   0  0  1  0  0  0  0  0  0  0  0  0
   22.9354   -9.6353  -16.5706 O   0  0  0  0  0  0  0  0  0  0  0  0
   21.1707   -9.9753  -15.0434 C   0  0  2  0  0  0  0  0  0  0  0  0
   20.9461  -11.1131  -15.9125 N   0  0  0  0  0  0  0  0  0  0  0  0
   20.4161   -8.7768  -15.4824 C   0  0  0  0  0  0  0  0  0  0  0  0
   20.0799   -8.7218  -16.6944 O   0  0  0  0  0  0  0  0  0  0  0  0
   20.0553   -7.7117  -14.6482 N   0  0  0  0  0  0  0  0  0  0  0  0
   19.3188   -6.5823  -15.2072 C   0  0  1  0  0  0  0  0  0  0  0  0
   18.1684   -6.3147  -14.2572 C   0  0  0  0  0  0  0  0  0  0  0  0
   17.0843   -7.7391  -14.0794 S   0  0  0  0  0  0  0  0  0  0  0  0
   20.1710   -5.4087  -15.4096 C   0  0  0  0  0  0  0  0  0  0  0  0
   19.6474   -4.2669  -15.9718 O   0  0  0  0  0  0  0  0  0  0  0  0
   21.3718   -5.4316  -15.0767 O   0  0  0  0  0  0  0  0  0  0  0  0
  2  1  1  0
  2  3  1  0
  3  4  1  6
  5  3  1  0
  5  7  1  0
  5  6  1  1
  7  8  2  0
 10  9  1  1
 10 12  1  0
 11 10  1  0
 12 13  1  6
 13  7  1  0
 14 12  1  0
 14 15  2  0
 16 14  1  0
 17 16  1  0
 17 20  1  0
 17 18  1  1
 19 18  1  0
 20 22  2  0
 20 21  1  0
M  END
$$$$
