ITC.pdb
     RDKit          3D

 22 21  0  0  1  0  0  0  0  0999 V2000
   46.9331   -6.6601   -8.2494 C   0  0  0  0  0  0  0  0  0  0  0  0
   45.6668   -7.0188   -7.5263 C   0  0  0  0  0  0  0  0  0  0  0  0
   44.4622   -6.3078   -8.0399 C   0  0  2  0  0  0  0  0  0  0  0  0
   44.7007   -4.8227   -7.9316 C   0  0  0  0  0  0  0  0  0  0  0  0
   43.2213   -6.7556   -7.3061 C   0  0  2  0  0  0  0  0  0  0  0  0
   43.4624   -6.5849   -5.8916 N   0  0  0  0  0  0  0  0  0  0  0  0
   42.9996   -8.2301   -7.5241 C   0  0  0  0  0  0  0  0  0  0  0  0
   43.3190   -9.0667   -6.6399 O   0  0  0  0  0  0  0  0  0  0  0  0
   39.9731   -9.7923   -7.7883 C   0  0  0  0  0  0  0  0  0  0  0  0
   40.6306  -10.2555   -9.0729 C   0  0  1  0  0  0  0  0  0  0  0  0
   40.3248   -9.4100  -10.1128 O   0  0  0  0  0  0  0  0  0  0  0  0
   42.1424  -10.1562   -8.8081 C   0  0  2  0  0  0  0  0  0  0  0  0
   42.4278   -8.7380   -8.7205 N   0  0  0  0  0  0  0  0  0  0  0  0
   42.7834  -10.7854   -9.9879 C   0  0  0  0  0  0  0  0  0  0  0  0
   43.5765  -10.0737  -10.6583 O   0  0  0  0  0  0  0  0  0  0  0  0
   42.5685  -12.1051  -10.4032 N   0  0  0  0  0  0  0  0  0  0  0  0
   43.2762  -12.6110  -11.5751 C   0  0  1  0  0  0  0  0  0  0  0  0
   44.7528  -12.5449  -11.2397 C   0  0  0  0  0  0  0  0  0  0  0  0
   45.7852  -13.1605  -12.5780 S   0  0  0  0  0  0  0  0  0  0  0  0
   42.8401  -13.9581  -11.9490 C   0  0  0  0  0  0  0  0  0  0  0  0
   42.7001  -14.2924  -13.2766 O   0  0  0  0  0  0  0  0  0  0  0  0
   42.5928  -14.8105  -11.0740 O   0  0  0  0  0  0  0  0  0  0  0  0
  2  1  1  0
  2  3  1  0
  3  4  1  1
  5  3  1  0
  5  7  1  0
  5  6  1  1
  7  8  2  0
 10  9  1  1
 10 12  1  0
 11 10  1  0
 12 13  1  6
 13  7  1  0
 14 12  1  0
 14 15  2  0
 16 14  1  0
 17 16  1  0
 17 20  1  0
 17 18  1  1
 19 18  1  0
 20 22  2  0
 20 21  1  0
M  END
$$$$
