ITC.pdb
     RDKit          3D

 22 21  0  0  1  0  0  0  0  0999 V2000
   19.5156  -15.1398  -16.8067 C   0  0  0  0  0  0  0  0  0  0  0  0
   18.6375  -13.9966  -16.3863 C   0  0  0  0  0  0  0  0  0  0  0  0
   19.2202  -12.6561  -16.6762 C   0  0  2  0  0  0  0  0  0  0  0  0
   20.5453  -12.5464  -15.9649 C   0  0  0  0  0  0  0  0  0  0  0  0
   18.2579  -11.5583  -16.2921 C   0  0  2  0  0  0  0  0  0  0  0  0
   17.0309  -11.7742  -17.0242 N   0  0  0  0  0  0  0  0  0  0  0  0
   18.7932  -10.2243  -16.7447 C   0  0  0  0  0  0  0  0  0  0  0  0
   19.5681  -10.1435  -17.7330 O   0  0  0  0  0  0  0  0  0  0  0  0
   17.4218   -7.6580  -18.4010 C   0  0  0  0  0  0  0  0  0  0  0  0
   17.8245   -6.9628  -17.1158 C   0  0  1  0  0  0  0  0  0  0  0  0
   16.8140   -7.0276  -16.1860 O   0  0  0  0  0  0  0  0  0  0  0  0
   19.0172   -7.7717  -16.5788 C   0  0  2  0  0  0  0  0  0  0  0  0
   18.4534   -9.0128  -16.0868 N   0  0  0  0  0  0  0  0  0  0  0  0
   19.5865   -6.9433  -15.4888 C   0  0  0  0  0  0  0  0  0  0  0  0
   19.5623   -7.4275  -14.3270 O   0  0  0  0  0  0  0  0  0  0  0  0
   20.1440   -5.6707  -15.6621 N   0  0  0  0  0  0  0  0  0  0  0  0
   20.7529   -4.9944  -14.5211 C   0  0  1  0  0  0  0  0  0  0  0  0
   21.8801   -5.8910  -14.0491 C   0  0  0  0  0  0  0  0  0  0  0  0
   22.8820   -5.1140  -12.7731 S   0  0  0  0  0  0  0  0  0  0  0  0
   21.2063   -3.6422  -14.8537 C   0  0  0  0  0  0  0  0  0  0  0  0
   21.1252   -2.6388  -13.9153 O   0  0  0  0  0  0  0  0  0  0  0  0
   21.6675   -3.3876  -15.9833 O   0  0  0  0  0  0  0  0  0  0  0  0
  2  1  1  0
  2  3  1  0
  3  4  1  1
  5  3  1  0
  5  7  1  0
  5  6  1  6
  7  8  2  0
 10  9  1  6
 10 12  1  0
 11 10  1  0
 12 13  1  1
 13  7  1  0
 14 12  1  0
 14 15  2  0
 16 14  1  0
 17 16  1  0
 17 20  1  0
 17 18  1  6
 19 18  1  0
 20 22  2  0
 20 21  1  0
M  END
$$$$
