ITC.pdb
     RDKit          3D

 22 21  0  0  1  0  0  0  0  0999 V2000
   18.3718  -13.8995  -17.8477 C   0  0  0  0  0  0  0  0  0  0  0  0
   17.9853  -13.3110  -16.5214 C   0  0  0  0  0  0  0  0  0  0  0  0
   18.0949  -11.8258  -16.4707 C   0  0  2  0  0  0  0  0  0  0  0  0
   19.5209  -11.4406  -16.7745 C   0  0  0  0  0  0  0  0  0  0  0  0
   17.6177  -11.2977  -15.1396 C   0  0  2  0  0  0  0  0  0  0  0  0
   16.2383  -11.6967  -14.9781 N   0  0  0  0  0  0  0  0  0  0  0  0
   17.6251   -9.7908  -15.1522 C   0  0  0  0  0  0  0  0  0  0  0  0
   16.7036   -9.1473  -15.7182 O   0  0  0  0  0  0  0  0  0  0  0  0
   16.1952   -7.6846  -14.6000 C   0  0  0  0  0  0  0  0  0  0  0  0
   17.3847   -7.1580  -13.8222 C   0  0  1  0  0  0  0  0  0  0  0  0
   17.4613   -7.7495  -12.5836 O   0  0  0  0  0  0  0  0  0  0  0  0
   18.6177   -7.5911  -14.6330 C   0  0  2  0  0  0  0  0  0  0  0  0
   18.6577   -9.0365  -14.5347 N   0  0  0  0  0  0  0  0  0  0  0  0
   19.7704   -6.9508  -13.9549 C   0  0  0  0  0  0  0  0  0  0  0  0
   20.5029   -7.6900  -13.2464 O   0  0  0  0  0  0  0  0  0  0  0  0
   20.0967   -5.5924  -14.0482 N   0  0  0  0  0  0  0  0  0  0  0  0
   21.4285   -5.1471  -13.6505 C   0  0  1  0  0  0  0  0  0  0  0  0
   22.4078   -5.9119  -14.5185 C   0  0  0  0  0  0  0  0  0  0  0  0
   22.8818   -7.4863  -13.7889 S   0  0  0  0  0  0  0  0  0  0  0  0
   21.5857   -3.6955  -13.7631 C   0  0  0  0  0  0  0  0  0  0  0  0
   22.6123   -3.0611  -13.1016 O   0  0  0  0  0  0  0  0  0  0  0  0
   20.7961   -3.0237  -14.4548 O   0  0  0  0  0  0  0  0  0  0  0  0
  2  1  1  0
  2  3  1  0
  3  4  1  1
  5  3  1  0
  5  7  1  0
  5  6  1  6
  7  8  2  0
 10  9  1  6
 10 12  1  0
 11 10  1  0
 12 13  1  1
 13  7  1  0
 14 12  1  0
 14 15  2  0
 16 14  1  0
 17 16  1  0
 17 20  1  0
 17 18  1  6
 19 18  1  0
 20 22  2  0
 20 21  1  0
M  END
$$$$
