ITC.pdb
     RDKit          3D

 22 21  0  0  1  0  0  0  0  0999 V2000
   15.3849  -12.5436  -15.2864 C   0  0  0  0  0  0  0  0  0  0  0  0
   16.5797  -12.6094  -16.1936 C   0  0  0  0  0  0  0  0  0  0  0  0
   17.7012  -11.7236  -15.7716 C   0  0  2  0  0  0  0  0  0  0  0  0
   17.1732  -10.3183  -15.6288 C   0  0  0  0  0  0  0  0  0  0  0  0
   18.8543  -11.8190  -16.7411 C   0  0  2  0  0  0  0  0  0  0  0  0
   19.2758  -13.2004  -16.7871 N   0  0  0  0  0  0  0  0  0  0  0  0
   20.0300  -11.0335  -16.2200 C   0  0  0  0  0  0  0  0  0  0  0  0
   20.6195  -11.3815  -15.1640 O   0  0  0  0  0  0  0  0  0  0  0  0
   23.2718  -10.2276  -17.6353 C   0  0  0  0  0  0  0  0  0  0  0  0
   22.6192   -8.8811  -17.3943 C   0  0  1  0  0  0  0  0  0  0  0  0
   21.9341   -8.4616  -18.5099 O   0  0  0  0  0  0  0  0  0  0  0  0
   21.5961   -9.1262  -16.2725 C   0  0  2  0  0  0  0  0  0  0  0  0
   20.5213   -9.8799  -16.8865 N   0  0  0  0  0  0  0  0  0  0  0  0
   21.1605   -7.7750  -15.8448 C   0  0  0  0  0  0  0  0  0  0  0  0
   20.0253   -7.3893  -16.2286 O   0  0  0  0  0  0  0  0  0  0  0  0
   21.9191   -6.9067  -15.0504 N   0  0  0  0  0  0  0  0  0  0  0  0
   21.4399   -5.5481  -14.8161 C   0  0  1  0  0  0  0  0  0  0  0  0
   20.3968   -5.6495  -13.7212 C   0  0  0  0  0  0  0  0  0  0  0  0
   21.0283   -6.4702  -12.2503 S   0  0  0  0  0  0  0  0  0  0  0  0
   22.5267   -4.6260  -14.4794 C   0  0  0  0  0  0  0  0  0  0  0  0
   23.8146   -5.0954  -14.3574 O   0  0  0  0  0  0  0  0  0  0  0  0
   22.2978   -3.4139  -14.3009 O   0  0  0  0  0  0  0  0  0  0  0  0
  2  1  1  0
  2  3  1  0
  3  4  1  6
  5  3  1  0
  5  7  1  0
  5  6  1  1
  7  8  2  0
 10  9  1  6
 10 12  1  0
 11 10  1  0
 12 13  1  6
 13  7  1  0
 14 12  1  0
 14 15  2  0
 16 14  1  0
 17 16  1  0
 17 20  1  0
 17 18  1  1
 19 18  1  0
 20 22  2  0
 20 21  1  0
M  END
$$$$
