ITC.pdb
     RDKit          3D

 22 21  0  0  1  0  0  0  0  0999 V2000
   19.8443  -16.6301  -19.5130 C   0  0  0  0  0  0  0  0  0  0  0  0
   19.9467  -15.4335  -18.6116 C   0  0  0  0  0  0  0  0  0  0  0  0
   19.1143  -14.2789  -19.0525 C   0  0  2  0  0  0  0  0  0  0  0  0
   19.5256  -13.8996  -20.4529 C   0  0  0  0  0  0  0  0  0  0  0  0
   19.2295  -13.1315  -18.0785 C   0  0  2  0  0  0  0  0  0  0  0  0
   18.6968  -13.5765  -16.8111 N   0  0  0  0  0  0  0  0  0  0  0  0
   18.3576  -11.9872  -18.5272 C   0  0  0  0  0  0  0  0  0  0  0  0
   18.6806  -11.2820  -19.5183 O   0  0  0  0  0  0  0  0  0  0  0  0
   14.7498  -11.8305  -19.4508 C   0  0  0  0  0  0  0  0  0  0  0  0
   14.9286  -10.9008  -18.2672 C   0  0  1  0  0  0  0  0  0  0  0  0
   14.6995  -11.5631  -17.0845 O   0  0  0  0  0  0  0  0  0  0  0  0
   16.4097  -10.4879  -18.3017 C   0  0  2  0  0  0  0  0  0  0  0  0
   17.1476  -11.6553  -17.8624 N   0  0  0  0  0  0  0  0  0  0  0  0
   16.5192   -9.3618  -17.3433 C   0  0  0  0  0  0  0  0  0  0  0  0
   16.0326   -8.2563  -17.6981 O   0  0  0  0  0  0  0  0  0  0  0  0
   17.1215   -9.4437  -16.0820 N   0  0  0  0  0  0  0  0  0  0  0  0
   17.1878   -8.2522  -15.2417 C   0  0  1  0  0  0  0  0  0  0  0  0
   17.2809   -8.7466  -13.8119 C   0  0  0  0  0  0  0  0  0  0  0  0
   18.6850   -9.8422  -13.5584 S   0  0  0  0  0  0  0  0  0  0  0  0
   18.2996   -7.3732  -15.6105 C   0  0  0  0  0  0  0  0  0  0  0  0
   18.4317   -6.1419  -15.0103 O   0  0  0  0  0  0  0  0  0  0  0  0
   19.1326   -7.7291  -16.4666 O   0  0  0  0  0  0  0  0  0  0  0  0
  2  1  1  0
  2  3  1  0
  3  4  1  6
  5  3  1  0
  5  7  1  0
  5  6  1  1
  7  8  2  0
 10  9  1  6
 10 12  1  0
 11 10  1  0
 12 13  1  1
 13  7  1  0
 14 12  1  0
 14 15  2  0
 16 14  1  0
 17 16  1  0
 17 20  1  0
 17 18  1  1
 19 18  1  0
 20 22  2  0
 20 21  1  0
M  END
$$$$
