ITC.pdb
     RDKit          3D

 22 21  0  0  1  0  0  0  0  0999 V2000
   15.6396  -14.9047  -15.9283 C   0  0  0  0  0  0  0  0  0  0  0  0
   16.6468  -13.9514  -16.5041 C   0  0  0  0  0  0  0  0  0  0  0  0
   17.2538  -13.0396  -15.4939 C   0  0  2  0  0  0  0  0  0  0  0  0
   16.1429  -12.3347  -14.7569 C   0  0  0  0  0  0  0  0  0  0  0  0
   18.2211  -12.0826  -16.1474 C   0  0  2  0  0  0  0  0  0  0  0  0
   19.2745  -12.8668  -16.7502 N   0  0  0  0  0  0  0  0  0  0  0  0
   18.8789  -11.2218  -15.0999 C   0  0  0  0  0  0  0  0  0  0  0  0
   19.5184  -11.7412  -14.1487 O   0  0  0  0  0  0  0  0  0  0  0  0
   21.5556   -8.9662  -15.1778 C   0  0  0  0  0  0  0  0  0  0  0  0
   20.4053   -8.0894  -14.7251 C   0  0  1  0  0  0  0  0  0  0  0  0
   19.7772   -7.5098  -15.8019 O   0  0  0  0  0  0  0  0  0  0  0  0
   19.4090   -9.0497  -14.0539 C   0  0  2  0  0  0  0  0  0  0  0  0
   18.8091   -9.8040  -15.1363 N   0  0  0  0  0  0  0  0  0  0  0  0
   18.4279   -8.1728  -13.3704 C   0  0  0  0  0  0  0  0  0  0  0  0
   17.2424   -8.5891  -13.2922 O   0  0  0  0  0  0  0  0  0  0  0  0
   18.7276   -6.9247  -12.8111 N   0  0  0  0  0  0  0  0  0  0  0  0
   17.6724   -6.1656  -12.1475 C   0  0  1  0  0  0  0  0  0  0  0  0
   17.3536   -6.9127  -10.8678 C   0  0  0  0  0  0  0  0  0  0  0  0
   16.3915   -5.9183   -9.7182 S   0  0  0  0  0  0  0  0  0  0  0  0
   18.0558   -4.7724  -11.9094 C   0  0  0  0  0  0  0  0  0  0  0  0
   17.0947   -3.7876  -11.8918 O   0  0  0  0  0  0  0  0  0  0  0  0
   19.2492   -4.4661  -11.7215 O   0  0  0  0  0  0  0  0  0  0  0  0
  2  1  1  0
  2  3  1  0
  3  4  1  6
  5  3  1  0
  5  7  1  0
  5  6  1  1
  7  8  2  0
 10  9  1  6
 10 12  1  0
 11 10  1  0
 12 13  1  6
 13  7  1  0
 14 12  1  0
 14 15  2  0
 16 14  1  0
 17 16  1  0
 17 20  1  0
 17 18  1  1
 19 18  1  0
 20 22  2  0
 20 21  1  0
M  END
$$$$
