ITC.pdb
     RDKit          3D

 22 21  0  0  1  0  0  0  0  0999 V2000
   16.1735  -14.5746  -17.6584 C   0  0  0  0  0  0  0  0  0  0  0  0
   17.5942  -14.0911  -17.6069 C   0  0  0  0  0  0  0  0  0  0  0  0
   17.7630  -12.8067  -16.8705 C   0  0  2  0  0  0  0  0  0  0  0  0
   16.8363  -11.7826  -17.4759 C   0  0  0  0  0  0  0  0  0  0  0  0
   19.2072  -12.3675  -16.8821 C   0  0  2  0  0  0  0  0  0  0  0  0
   19.9857  -13.4018  -16.2401 N   0  0  0  0  0  0  0  0  0  0  0  0
   19.3738  -11.1275  -16.0419 C   0  0  0  0  0  0  0  0  0  0  0  0
   18.9882  -11.1050  -14.8442 O   0  0  0  0  0  0  0  0  0  0  0  0
   22.2716   -9.4593  -14.9324 C   0  0  0  0  0  0  0  0  0  0  0  0
   21.5525   -8.3814  -15.7186 C   0  0  1  0  0  0  0  0  0  0  0  0
   21.9646   -8.3736  -17.0301 O   0  0  0  0  0  0  0  0  0  0  0  0
   20.0689   -8.7854  -15.6889 C   0  0  2  0  0  0  0  0  0  0  0  0
   19.9653   -9.9429  -16.5549 N   0  0  0  0  0  0  0  0  0  0  0  0
   19.3384   -7.6137  -16.2293 C   0  0  0  0  0  0  0  0  0  0  0  0
   18.5513   -7.8205  -17.1898 O   0  0  0  0  0  0  0  0  0  0  0  0
   19.4635   -6.3047  -15.7483 N   0  0  0  0  0  0  0  0  0  0  0  0
   18.7055   -5.2324  -16.3855 C   0  0  1  0  0  0  0  0  0  0  0  0
   17.2420   -5.5823  -16.2040 C   0  0  0  0  0  0  0  0  0  0  0  0
   16.1611   -4.1772  -16.5092 S   0  0  0  0  0  0  0  0  0  0  0  0
   19.0442   -3.9147  -15.8438 C   0  0  0  0  0  0  0  0  0  0  0  0
   18.8853   -2.7898  -16.6204 O   0  0  0  0  0  0  0  0  0  0  0  0
   19.4773   -3.7991  -14.6808 O   0  0  0  0  0  0  0  0  0  0  0  0
  2  1  1  0
  2  3  1  0
  3  4  1  6
  5  3  1  0
  5  7  1  0
  5  6  1  1
  7  8  2  0
 10  9  1  1
 10 12  1  0
 11 10  1  0
 12 13  1  6
 13  7  1  0
 14 12  1  0
 14 15  2  0
 16 14  1  0
 17 16  1  0
 17 20  1  0
 17 18  1  1
 19 18  1  0
 20 22  2  0
 20 21  1  0
M  END
$$$$
