ITC.pdb
     RDKit          3D

 22 21  0  0  1  0  0  0  0  0999 V2000
   28.5817  -19.5408   -6.1032 C   0  0  0  0  0  0  0  0  0  0  0  0
   28.5532  -20.5183   -7.2427 C   0  0  0  0  0  0  0  0  0  0  0  0
   27.5453  -20.1883   -8.2895 C   0  0  2  0  0  0  0  0  0  0  0  0
   26.1860  -20.1200   -7.6401 C   0  0  0  0  0  0  0  0  0  0  0  0
   27.6026  -21.1841   -9.4224 C   0  0  2  0  0  0  0  0  0  0  0  0
   28.9551  -21.1930   -9.9309 N   0  0  0  0  0  0  0  0  0  0  0  0
   26.7254  -20.7222  -10.5573 C   0  0  0  0  0  0  0  0  0  0  0  0
   27.1808  -19.9706  -11.4581 O   0  0  0  0  0  0  0  0  0  0  0  0
   26.6421  -21.0205  -13.0165 C   0  0  0  0  0  0  0  0  0  0  0  0
   25.1625  -21.3489  -13.0201 C   0  0  1  0  0  0  0  0  0  0  0  0
   24.9594  -22.6984  -12.8545 O   0  0  0  0  0  0  0  0  0  0  0  0
   24.5884  -20.6271  -11.7893 C   0  0  2  0  0  0  0  0  0  0  0  0
   25.3628  -21.1077  -10.6624 N   0  0  0  0  0  0  0  0  0  0  0  0
   23.1702  -21.0537  -11.7179 C   0  0  0  0  0  0  0  0  0  0  0  0
   22.7267  -21.3862  -10.5876 O   0  0  0  0  0  0  0  0  0  0  0  0
   22.2985  -21.1113  -12.8121 N   0  0  0  0  0  0  0  0  0  0  0  0
   21.0015  -20.4471  -12.7299 C   0  0  1  0  0  0  0  0  0  0  0  0
   21.2915  -18.9805  -12.4802 C   0  0  0  0  0  0  0  0  0  0  0  0
   19.9083  -18.1339  -11.7018 S   0  0  0  0  0  0  0  0  0  0  0  0
   20.1875  -20.6676  -13.9272 C   0  0  0  0  0  0  0  0  0  0  0  0
   20.7492  -20.5311  -15.1761 O   0  0  0  0  0  0  0  0  0  0  0  0
   18.9848  -20.9793  -13.8280 O   0  0  0  0  0  0  0  0  0  0  0  0
  2  1  1  0
  2  3  1  0
  3  4  1  1
  5  3  1  0
  5  7  1  0
  5  6  1  6
  7  8  2  0
 10  9  1  1
 10 12  1  0
 11 10  1  0
 12 13  1  1
 13  7  1  0
 14 12  1  0
 14 15  2  0
 16 14  1  0
 17 16  1  0
 17 20  1  0
 17 18  1  6
 19 18  1  0
 20 22  2  0
 20 21  1  0
M  END
$$$$
