FHL.pdb
     RDKit          3D

 30 31  0  0  1  0  0  0  0  0999 V2000
   26.5682  -17.8841  -16.1852 N   0  0  0  0  0  0  0  0  0  0  0  0
   26.8704  -17.7272  -14.7748 C   0  0  1  0  0  0  0  0  0  0  0  0
   26.2100  -16.4580  -14.3118 C   0  0  0  0  0  0  0  0  0  0  0  0
   25.7989  -15.5759  -15.4103 C   0  0  0  0  0  0  0  0  0  0  0  0
   26.6709  -14.8501  -16.1956 C   0  0  0  0  0  0  0  0  0  0  0  0
   26.1782  -14.0502  -17.2037 C   0  0  0  0  0  0  0  0  0  0  0  0
   24.8328  -13.9276  -17.4826 C   0  0  0  0  0  0  0  0  0  0  0  0
   23.9590  -14.6581  -16.6918 C   0  0  0  0  0  0  0  0  0  0  0  0
   24.4463  -15.4613  -15.6804 C   0  0  0  0  0  0  0  0  0  0  0  0
   26.2179  -18.8536  -14.0166 C   0  0  0  0  0  0  0  0  0  0  0  0
   24.9486  -18.9529  -14.0000 O   0  0  0  0  0  0  0  0  0  0  0  0
   26.9593  -19.8159  -13.3151 N   0  0  0  0  0  0  0  0  0  0  0  0
   26.4044  -20.9027  -12.5650 C   0  0  1  0  0  0  0  0  0  0  0  0
   26.7544  -22.2410  -13.0988 C   0  0  0  0  0  0  0  0  0  0  0  0
   26.3946  -22.4926  -14.5027 C   0  0  0  0  0  0  0  0  0  0  0  0
   25.7356  -21.6767  -15.3803 C   0  0  0  0  0  0  0  0  0  0  0  0
   25.5823  -22.2991  -16.5787 N   0  0  0  0  0  0  0  0  0  0  0  0
   26.1399  -23.4884  -16.4451 C   0  0  0  0  0  0  0  0  0  0  0  0
   26.6365  -23.6352  -15.2107 N   0  0  0  0  0  0  0  0  0  0  0  0
   26.8244  -20.7900  -11.1082 C   0  0  0  0  0  0  0  0  0  0  0  0
   28.0391  -20.6736  -10.7965 O   0  0  0  0  0  0  0  0  0  0  0  0
   27.8211  -18.3720   -6.4655 C   0  0  0  0  0  0  0  0  0  0  0  0
   27.5354  -19.7938   -6.9011 C   0  0  2  0  0  0  0  0  0  0  0  0
   28.5259  -20.8008   -6.4062 C   0  0  0  0  0  0  0  0  0  0  0  0
   27.0909  -19.9333   -8.3040 C   0  0  0  0  0  0  0  0  0  0  0  0
   26.1918  -21.0483   -8.6705 C   0  0  2  0  0  0  0  0  0  0  0  0
   25.8451  -20.8156  -10.0989 N   0  0  0  0  0  0  0  0  0  0  0  0
   24.9422  -21.1591   -7.8846 C   0  0  0  0  0  0  0  0  0  0  0  0
   25.0005  -21.4734   -6.6545 O   0  0  0  0  0  0  0  0  0  0  0  0
   23.6695  -20.9417   -8.3800 O   0  0  0  0  0  0  0  0  0  0  0  0
  2  1  1  6
  2  3  1  0
  2 10  1  0
  3  4  1  0
  4  9  1  0
  5  4  2  0
  5  6  1  0
  6  7  2  0
  7  8  1  0
  9  8  2  0
 10 12  1  0
 10 11  2  0
 12 13  1  0
 13 20  1  0
 13 14  1  6
 14 15  1  0
 15 16  2  0
 16 17  1  0
 18 17  1  0
 19 15  1  0
 19 18  2  0
 20 21  2  0
 23 22  1  6
 23 24  1  0
 23 25  1  0
 26 25  1  1
 26 28  1  0
 27 20  1  0
 27 26  1  0
 28 29  2  0
 28 30  1  0
M  END
$$$$
