FHL.pdb
     RDKit          3D

 30 31  0  0  1  0  0  0  0  0999 V2000
   20.1204  -11.1562  -18.9975 N   0  0  0  0  0  0  0  0  0  0  0  0
   21.0633  -10.0559  -18.9227 C   0  0  1  0  0  0  0  0  0  0  0  0
   21.2799   -9.5532  -20.3234 C   0  0  0  0  0  0  0  0  0  0  0  0
   22.0074  -10.4972  -21.1797 C   0  0  0  0  0  0  0  0  0  0  0  0
   21.5071  -11.0357  -22.3474 C   0  0  0  0  0  0  0  0  0  0  0  0
   22.2758  -11.9155  -23.0783 C   0  0  0  0  0  0  0  0  0  0  0  0
   23.5466  -12.3002  -22.7045 C   0  0  0  0  0  0  0  0  0  0  0  0
   24.0467  -11.7574  -21.5306 C   0  0  0  0  0  0  0  0  0  0  0  0
   23.2816  -10.8755  -20.7940 C   0  0  0  0  0  0  0  0  0  0  0  0
   20.4245   -8.9286  -18.1544 C   0  0  0  0  0  0  0  0  0  0  0  0
   19.1945   -8.6553  -18.3382 O   0  0  0  0  0  0  0  0  0  0  0  0
   21.1366   -8.1520  -17.2283 N   0  0  0  0  0  0  0  0  0  0  0  0
   20.5832   -7.0949  -16.4359 C   0  0  1  0  0  0  0  0  0  0  0  0
   20.6203   -7.3558  -14.9768 C   0  0  0  0  0  0  0  0  0  0  0  0
   19.6896   -8.3800  -14.4782 C   0  0  0  0  0  0  0  0  0  0  0  0
   18.7345   -9.0794  -15.1628 C   0  0  0  0  0  0  0  0  0  0  0  0
   18.0711   -9.9173  -14.3232 N   0  0  0  0  0  0  0  0  0  0  0  0
   18.6091   -9.7387  -13.1307 C   0  0  0  0  0  0  0  0  0  0  0  0
   19.5831   -8.8224  -13.1905 N   0  0  0  0  0  0  0  0  0  0  0  0
   21.2902   -5.7876  -16.7558 C   0  0  0  0  0  0  0  0  0  0  0  0
   22.5474   -5.7154  -16.7372 O   0  0  0  0  0  0  0  0  0  0  0  0
   19.6044   -1.0358  -20.1911 C   0  0  0  0  0  0  0  0  0  0  0  0
   20.6489   -1.5711  -19.2342 C   0  0  2  0  0  0  0  0  0  0  0  0
   22.0527   -1.4919  -19.7471 C   0  0  0  0  0  0  0  0  0  0  0  0
   20.2665   -2.8160  -18.5348 C   0  0  0  0  0  0  0  0  0  0  0  0
   21.1676   -3.3717  -17.5025 C   0  0  2  0  0  0  0  0  0  0  0  0
   20.5312   -4.6475  -17.0761 N   0  0  0  0  0  0  0  0  0  0  0  0
   21.3891   -2.5230  -16.3100 C   0  0  0  0  0  0  0  0  0  0  0  0
   20.5281   -2.5176  -15.3752 O   0  0  0  0  0  0  0  0  0  0  0  0
   22.4873   -1.7073  -16.1076 O   0  0  0  0  0  0  0  0  0  0  0  0
  2  1  1  6
  2  3  1  0
  2 10  1  0
  3  4  1  0
  4  9  1  0
  5  4  2  0
  5  6  1  0
  6  7  2  0
  7  8  1  0
  9  8  2  0
 10 12  1  0
 10 11  2  0
 12 13  1  0
 13 20  1  0
 13 14  1  1
 14 15  1  0
 15 16  2  0
 16 17  1  0
 18 17  1  0
 19 15  1  0
 19 18  2  0
 20 21  2  0
 23 22  1  6
 23 24  1  0
 23 25  1  0
 26 25  1  6
 26 28  1  0
 27 20  1  0
 27 26  1  0
 28 29  2  0
 28 30  1  0
M  END
$$$$
