FHL.pdb
     RDKit          3D

 30 31  0  0  1  0  0  0  0  0999 V2000
   26.1051  -33.9751  -15.8024 N   0  0  0  0  0  0  0  0  0  0  0  0
   27.0574  -34.5025  -14.8432 C   0  0  1  0  0  0  0  0  0  0  0  0
   27.8619  -33.3430  -14.3239 C   0  0  0  0  0  0  0  0  0  0  0  0
   28.9004  -32.8856  -15.2547 C   0  0  0  0  0  0  0  0  0  0  0  0
   28.9263  -31.6372  -15.8418 C   0  0  0  0  0  0  0  0  0  0  0  0
   29.9502  -31.3087  -16.7037 C   0  0  0  0  0  0  0  0  0  0  0  0
   30.9763  -32.1734  -17.0233 C   0  0  0  0  0  0  0  0  0  0  0  0
   30.9475  -33.4272  -16.4319 C   0  0  0  0  0  0  0  0  0  0  0  0
   29.9246  -33.7623  -15.5676 C   0  0  0  0  0  0  0  0  0  0  0  0
   26.2962  -35.0591  -13.6685 C   0  0  0  0  0  0  0  0  0  0  0  0
   25.1571  -34.5766  -13.3671 O   0  0  0  0  0  0  0  0  0  0  0  0
   26.7948  -36.1043  -12.8768 N   0  0  0  0  0  0  0  0  0  0  0  0
   26.0990  -36.7219  -11.7878 C   0  0  1  0  0  0  0  0  0  0  0  0
   26.1723  -38.2028  -11.7912 C   0  0  0  0  0  0  0  0  0  0  0  0
   25.3756  -38.8883  -12.8204 C   0  0  0  0  0  0  0  0  0  0  0  0
   24.4573  -38.3634  -13.6872 C   0  0  0  0  0  0  0  0  0  0  0  0
   23.9268  -39.3448  -14.4633 N   0  0  0  0  0  0  0  0  0  0  0  0
   24.5097  -40.4661  -14.0813 C   0  0  0  0  0  0  0  0  0  0  0  0
   25.3843  -40.2257  -13.0968 N   0  0  0  0  0  0  0  0  0  0  0  0
   26.6162  -36.1716  -10.4684 C   0  0  0  0  0  0  0  0  0  0  0  0
   27.8376  -36.2534  -10.1723 O   0  0  0  0  0  0  0  0  0  0  0  0
   24.7450  -31.5564   -6.9997 C   0  0  0  0  0  0  0  0  0  0  0  0
   25.7353  -32.6918   -7.1521 C   0  0  2  0  0  0  0  0  0  0  0  0
   27.1700  -32.2730   -7.0719 C   0  0  0  0  0  0  0  0  0  0  0  0
   25.3889  -33.6785   -8.1969 C   0  0  0  0  0  0  0  0  0  0  0  0
   26.1827  -34.9207   -8.3104 C   0  0  2  0  0  0  0  0  0  0  0  0
   25.7203  -35.5646   -9.5698 N   0  0  0  0  0  0  0  0  0  0  0  0
   26.0402  -35.8857   -7.1969 C   0  0  0  0  0  0  0  0  0  0  0  0
   25.0195  -36.6413   -7.1483 O   0  0  0  0  0  0  0  0  0  0  0  0
   26.9484  -36.0513   -6.1673 O   0  0  0  0  0  0  0  0  0  0  0  0
  2  1  1  6
  2  3  1  0
  2 10  1  0
  3  4  1  0
  4  9  1  0
  5  4  2  0
  5  6  1  0
  6  7  2  0
  7  8  1  0
  9  8  2  0
 10 12  1  0
 10 11  2  0
 12 13  1  0
 13 20  1  0
 13 14  1  1
 14 15  1  0
 15 16  2  0
 16 17  1  0
 18 17  1  0
 19 15  1  0
 19 18  2  0
 20 21  2  0
 23 22  1  6
 23 24  1  0
 23 25  1  0
 26 25  1  1
 26 28  1  0
 27 20  1  0
 27 26  1  0
 28 29  2  0
 28 30  1  0
M  END
$$$$
