FHL.pdb
     RDKit          3D

 30 31  0  0  1  0  0  0  0  0999 V2000
   22.8553  -21.2406  -13.0384 N   0  0  0  0  0  0  0  0  0  0  0  0
   23.0520  -20.5319  -11.7877 C   0  0  1  0  0  0  0  0  0  0  0  0
   21.9136  -20.9017  -10.8773 C   0  0  0  0  0  0  0  0  0  0  0  0
   20.6301  -20.3098  -11.2725 C   0  0  0  0  0  0  0  0  0  0  0  0
   19.5484  -21.0309  -11.7349 C   0  0  0  0  0  0  0  0  0  0  0  0
   18.3868  -20.3745  -12.0798 C   0  0  0  0  0  0  0  0  0  0  0  0
   18.2358  -19.0065  -11.9887 C   0  0  0  0  0  0  0  0  0  0  0  0
   19.3245  -18.2845  -11.5237 C   0  0  0  0  0  0  0  0  0  0  0  0
   20.4909  -18.9362  -11.1766 C   0  0  0  0  0  0  0  0  0  0  0  0
   24.3089  -21.0477  -11.1371 C   0  0  0  0  0  0  0  0  0  0  0  0
   24.4164  -22.2864  -10.8626 O   0  0  0  0  0  0  0  0  0  0  0  0
   25.3863  -20.2095  -10.8139 N   0  0  0  0  0  0  0  0  0  0  0  0
   26.6230  -20.6385  -10.2324 C   0  0  1  0  0  0  0  0  0  0  0  0
   27.8219  -20.2368  -11.0068 C   0  0  0  0  0  0  0  0  0  0  0  0
   27.8915  -20.7258  -12.3923 C   0  0  0  0  0  0  0  0  0  0  0  0
   27.0190  -21.5389  -13.0615 C   0  0  0  0  0  0  0  0  0  0  0  0
   27.4650  -21.7716  -14.3240 N   0  0  0  0  0  0  0  0  0  0  0  0
   28.6022  -21.1102  -14.4361 C   0  0  0  0  0  0  0  0  0  0  0  0
   28.8857  -20.4724  -13.2938 N   0  0  0  0  0  0  0  0  0  0  0  0
   26.7236  -20.1293   -8.8034 C   0  0  0  0  0  0  0  0  0  0  0  0
   26.1058  -19.0919   -8.4455 O   0  0  0  0  0  0  0  0  0  0  0  0
   30.6376  -21.6129   -4.2459 C   0  0  0  0  0  0  0  0  0  0  0  0
   29.3523  -20.8906   -4.5914 C   0  0  2  0  0  0  0  0  0  0  0  0
   28.3448  -20.8623   -3.4849 C   0  0  0  0  0  0  0  0  0  0  0  0
   28.8383  -21.1591   -5.9511 C   0  0  0  0  0  0  0  0  0  0  0  0
   27.7754  -20.2943   -6.5064 C   0  0  2  0  0  0  0  0  0  0  0  0
   27.5150  -20.8255   -7.8719 N   0  0  0  0  0  0  0  0  0  0  0  0
   28.0973  -18.8527   -6.6049 C   0  0  0  0  0  0  0  0  0  0  0  0
   28.7826  -18.4286   -7.5876 O   0  0  0  0  0  0  0  0  0  0  0  0
   27.7054  -17.8868   -5.6962 O   0  0  0  0  0  0  0  0  0  0  0  0
  2  1  1  6
  2  3  1  0
  2 10  1  0
  3  4  1  0
  4  9  1  0
  5  4  2  0
  5  6  1  0
  6  7  2  0
  7  8  1  0
  9  8  2  0
 10 12  1  0
 10 11  2  0
 12 13  1  0
 13 20  1  0
 13 14  1  6
 14 15  1  0
 15 16  2  0
 16 17  1  0
 18 17  1  0
 19 15  1  0
 19 18  2  0
 20 21  2  0
 23 22  1  1
 23 24  1  0
 23 25  1  0
 26 25  1  6
 26 28  1  0
 27 20  1  0
 27 26  1  0
 28 29  2  0
 28 30  1  0
M  END
$$$$
