FHL.pdb
     RDKit          3D

 30 31  0  0  1  0  0  0  0  0999 V2000
   28.7236  -25.4046  -16.8584 N   0  0  0  0  0  0  0  0  0  0  0  0
   27.2882  -25.3130  -17.0491 C   0  0  1  0  0  0  0  0  0  0  0  0
   26.6477  -26.3193  -16.1333 C   0  0  0  0  0  0  0  0  0  0  0  0
   26.5578  -27.6652  -16.7115 C   0  0  0  0  0  0  0  0  0  0  0  0
   25.5890  -28.0652  -17.6090 C   0  0  0  0  0  0  0  0  0  0  0  0
   25.5961  -29.3559  -18.0917 C   0  0  0  0  0  0  0  0  0  0  0  0
   26.5360  -30.2959  -17.7232 C   0  0  0  0  0  0  0  0  0  0  0  0
   27.5083  -29.8911  -16.8213 C   0  0  0  0  0  0  0  0  0  0  0  0
   27.5066  -28.5994  -16.3341 C   0  0  0  0  0  0  0  0  0  0  0  0
   26.8288  -23.9552  -16.5858 C   0  0  0  0  0  0  0  0  0  0  0  0
   27.5682  -23.2685  -15.8092 O   0  0  0  0  0  0  0  0  0  0  0  0
   25.6006  -23.4030  -16.9784 N   0  0  0  0  0  0  0  0  0  0  0  0
   25.1607  -22.0716  -16.6862 C   0  0  1  0  0  0  0  0  0  0  0  0
   24.2868  -21.4851  -17.7306 C   0  0  0  0  0  0  0  0  0  0  0  0
   23.7780  -20.1310  -17.4637 C   0  0  0  0  0  0  0  0  0  0  0  0
   23.9943  -19.3306  -16.3762 C   0  0  0  0  0  0  0  0  0  0  0  0
   23.3196  -18.1587  -16.5115 N   0  0  0  0  0  0  0  0  0  0  0  0
   22.6913  -18.2321  -17.6704 C   0  0  0  0  0  0  0  0  0  0  0  0
   22.9461  -19.4034  -18.2661 N   0  0  0  0  0  0  0  0  0  0  0  0
   24.4602  -22.0455  -15.3371 C   0  0  0  0  0  0  0  0  0  0  0  0
   23.4642  -22.7837  -15.1155 O   0  0  0  0  0  0  0  0  0  0  0  0
   25.9018  -19.2711   -9.9703 C   0  0  0  0  0  0  0  0  0  0  0  0
   24.9890  -20.2434  -10.6875 C   0  0  2  0  0  0  0  0  0  0  0  0
   24.6864  -21.4889   -9.9147 C   0  0  0  0  0  0  0  0  0  0  0  0
   25.2713  -20.4082  -12.1291 C   0  0  0  0  0  0  0  0  0  0  0  0
   24.3105  -21.1488  -12.9743 C   0  0  2  0  0  0  0  0  0  0  0  0
   24.9308  -21.1878  -14.3264 N   0  0  0  0  0  0  0  0  0  0  0  0
   22.9559  -20.5617  -13.0837 C   0  0  0  0  0  0  0  0  0  0  0  0
   22.7853  -19.4997  -13.7606 O   0  0  0  0  0  0  0  0  0  0  0  0
   21.8149  -21.0808  -12.4998 O   0  0  0  0  0  0  0  0  0  0  0  0
  2  1  1  1
  2  3  1  0
  2 10  1  0
  3  4  1  0
  4  9  1  0
  5  4  2  0
  5  6  1  0
  6  7  2  0
  7  8  1  0
  9  8  2  0
 10 12  1  0
 10 11  2  0
 12 13  1  0
 13 20  1  0
 13 14  1  6
 14 15  1  0
 15 16  2  0
 16 17  1  0
 18 17  1  0
 19 15  1  0
 19 18  2  0
 20 21  2  0
 23 22  1  1
 23 24  1  0
 23 25  1  0
 26 25  1  1
 26 28  1  0
 27 20  1  0
 27 26  1  0
 28 29  2  0
 28 30  1  0
M  END
$$$$
