FHL.pdb
     RDKit          3D

 30 31  0  0  1  0  0  0  0  0999 V2000
   24.0404  -12.1942  -17.9053 N   0  0  0  0  0  0  0  0  0  0  0  0
   23.8369  -11.7611  -16.5356 C   0  0  1  0  0  0  0  0  0  0  0  0
   25.1534  -11.2410  -16.0279 C   0  0  0  0  0  0  0  0  0  0  0  0
   26.2099  -12.2589  -15.9866 C   0  0  0  0  0  0  0  0  0  0  0  0
   27.3779  -12.2006  -16.7189 C   0  0  0  0  0  0  0  0  0  0  0  0
   28.3064  -13.2125  -16.6056 C   0  0  0  0  0  0  0  0  0  0  0  0
   28.1353  -14.3075  -15.7843 C   0  0  0  0  0  0  0  0  0  0  0  0
   26.9606  -14.3633  -15.0497 C   0  0  0  0  0  0  0  0  0  0  0  0
   26.0265  -13.3528  -15.1588 C   0  0  0  0  0  0  0  0  0  0  0  0
   22.8848  -10.5937  -16.5385 C   0  0  0  0  0  0  0  0  0  0  0  0
   22.7555   -9.8858  -17.5889 O   0  0  0  0  0  0  0  0  0  0  0  0
   22.1201  -10.2448  -15.4154 N   0  0  0  0  0  0  0  0  0  0  0  0
   21.1819   -9.1641  -15.3564 C   0  0  1  0  0  0  0  0  0  0  0  0
   20.0039   -9.4379  -14.4987 C   0  0  0  0  0  0  0  0  0  0  0  0
   19.0592  -10.4482  -14.9992 C   0  0  0  0  0  0  0  0  0  0  0  0
   19.0719  -11.1214  -16.1895 C   0  0  0  0  0  0  0  0  0  0  0  0
   18.0010  -11.9542  -16.2716 N   0  0  0  0  0  0  0  0  0  0  0  0
   17.3314  -11.7984  -15.1445 C   0  0  0  0  0  0  0  0  0  0  0  0
   17.9406  -10.9013  -14.3597 N   0  0  0  0  0  0  0  0  0  0  0  0
   21.8849   -7.8967  -14.8975 C   0  0  0  0  0  0  0  0  0  0  0  0
   22.7166   -7.9291  -13.9523 O   0  0  0  0  0  0  0  0  0  0  0  0
   24.6776   -3.6538  -17.7731 C   0  0  0  0  0  0  0  0  0  0  0  0
   24.0643   -3.9755  -16.4265 C   0  0  2  0  0  0  0  0  0  0  0  0
   25.0108   -3.8539  -15.2734 C   0  0  0  0  0  0  0  0  0  0  0  0
   23.1594   -5.1444  -16.4225 C   0  0  0  0  0  0  0  0  0  0  0  0
   22.3506   -5.4289  -15.2180 C   0  0  2  0  0  0  0  0  0  0  0  0
   21.6030   -6.6756  -15.5364 N   0  0  0  0  0  0  0  0  0  0  0  0
   21.3860   -4.3783  -14.8213 C   0  0  0  0  0  0  0  0  0  0  0  0
   21.7357   -3.4901  -13.9822 O   0  0  0  0  0  0  0  0  0  0  0  0
   20.0927   -4.2656  -15.2977 O   0  0  0  0  0  0  0  0  0  0  0  0
  2  1  1  6
  2  3  1  0
  2 10  1  0
  3  4  1  0
  4  9  1  0
  5  4  2  0
  5  6  1  0
  6  7  2  0
  7  8  1  0
  9  8  2  0
 10 12  1  0
 10 11  2  0
 12 13  1  0
 13 20  1  0
 13 14  1  1
 14 15  1  0
 15 16  2  0
 16 17  1  0
 18 17  1  0
 19 15  1  0
 19 18  2  0
 20 21  2  0
 23 22  1  6
 23 24  1  0
 23 25  1  0
 26 25  1  6
 26 28  1  0
 27 20  1  0
 27 26  1  0
 28 29  2  0
 28 30  1  0
M  END
$$$$
