FHL.pdb
     RDKit          3D

 30 31  0  0  1  0  0  0  0  0999 V2000
   29.1678  -26.3337  -19.1502 N   0  0  0  0  0  0  0  0  0  0  0  0
   28.4905  -26.1954  -17.8745 C   0  0  1  0  0  0  0  0  0  0  0  0
   28.1621  -24.7389  -17.6951 C   0  0  0  0  0  0  0  0  0  0  0  0
   29.3439  -23.8690  -17.6751 C   0  0  0  0  0  0  0  0  0  0  0  0
   30.4660  -24.0957  -16.9048 C   0  0  0  0  0  0  0  0  0  0  0  0
   31.5231  -23.2135  -16.9614 C   0  0  0  0  0  0  0  0  0  0  0  0
   31.5281  -22.0895  -17.7610 C   0  0  0  0  0  0  0  0  0  0  0  0
   30.3991  -21.8643  -18.5340 C   0  0  0  0  0  0  0  0  0  0  0  0
   29.3369  -22.7444  -18.4817 C   0  0  0  0  0  0  0  0  0  0  0  0
   27.1760  -26.9275  -17.9478 C   0  0  0  0  0  0  0  0  0  0  0  0
   26.6250  -27.1260  -19.0784 O   0  0  0  0  0  0  0  0  0  0  0  0
   26.5195  -27.4095  -16.8057 N   0  0  0  0  0  0  0  0  0  0  0  0
   25.2981  -28.1577  -16.8073 C   0  0  1  0  0  0  0  0  0  0  0  0
   25.2001  -29.1495  -15.7095 C   0  0  0  0  0  0  0  0  0  0  0  0
   25.9525  -30.3995  -15.8971 C   0  0  0  0  0  0  0  0  0  0  0  0
   26.5614  -30.8749  -17.0256 C   0  0  0  0  0  0  0  0  0  0  0  0
   27.1302  -32.0846  -16.7805 N   0  0  0  0  0  0  0  0  0  0  0  0
   26.8762  -32.3564  -15.5138 C   0  0  0  0  0  0  0  0  0  0  0  0
   26.1710  -31.3648  -14.9558 N   0  0  0  0  0  0  0  0  0  0  0  0
   24.1123  -27.2072  -16.7663 C   0  0  0  0  0  0  0  0  0  0  0  0
   24.0885  -26.2435  -15.9559 O   0  0  0  0  0  0  0  0  0  0  0  0
   19.4747  -25.0623  -18.4818 C   0  0  0  0  0  0  0  0  0  0  0  0
   20.6129  -25.1848  -19.4731 C   0  0  2  0  0  0  0  0  0  0  0  0
   20.1844  -25.1781  -20.9072 C   0  0  0  0  0  0  0  0  0  0  0  0
   21.6584  -26.1597  -19.0968 C   0  0  0  0  0  0  0  0  0  0  0  0
   21.8582  -26.4914  -17.6699 C   0  0  2  0  0  0  0  0  0  0  0  0
   23.0310  -27.4071  -17.6436 N   0  0  0  0  0  0  0  0  0  0  0  0
   20.7191  -27.1498  -16.9913 C   0  0  0  0  0  0  0  0  0  0  0  0
   20.1072  -26.5405  -16.0588 O   0  0  0  0  0  0  0  0  0  0  0  0
   20.2375  -28.4113  -17.2893 O   0  0  0  0  0  0  0  0  0  0  0  0
  2  1  1  6
  2  3  1  0
  2 10  1  0
  3  4  1  0
  4  9  1  0
  5  4  2  0
  5  6  1  0
  6  7  2  0
  7  8  1  0
  9  8  2  0
 10 12  1  0
 10 11  2  0
 12 13  1  0
 13 20  1  0
 13 14  1  1
 14 15  1  0
 15 16  2  0
 16 17  1  0
 18 17  1  0
 19 15  1  0
 19 18  2  0
 20 21  2  0
 23 22  1  1
 23 24  1  0
 23 25  1  0
 26 25  1  6
 26 28  1  0
 27 20  1  0
 27 26  1  0
 28 29  2  0
 28 30  1  0
M  END
$$$$
