FHL.pdb
     RDKit          3D

 30 31  0  0  1  0  0  0  0  0999 V2000
   24.0091  -15.4630  -15.9203 N   0  0  0  0  0  0  0  0  0  0  0  0
   25.1593  -16.3364  -15.7813 C   0  0  1  0  0  0  0  0  0  0  0  0
   26.2298  -15.5598  -15.0654 C   0  0  0  0  0  0  0  0  0  0  0  0
   27.1240  -14.8246  -15.9674 C   0  0  0  0  0  0  0  0  0  0  0  0
   28.0051  -15.4192  -16.8472 C   0  0  0  0  0  0  0  0  0  0  0  0
   28.8017  -14.6336  -17.6517 C   0  0  0  0  0  0  0  0  0  0  0  0
   28.7713  -13.2547  -17.6307 C   0  0  0  0  0  0  0  0  0  0  0  0
   27.8850  -12.6600  -16.7456 C   0  0  0  0  0  0  0  0  0  0  0  0
   27.0842  -13.4415  -15.9370 C   0  0  0  0  0  0  0  0  0  0  0  0
   24.7838  -17.4837  -14.8802 C   0  0  0  0  0  0  0  0  0  0  0  0
   23.9714  -17.2928  -13.9185 O   0  0  0  0  0  0  0  0  0  0  0  0
   25.2983  -18.7768  -15.0560 N   0  0  0  0  0  0  0  0  0  0  0  0
   24.9446  -19.9218  -14.2714 C   0  0  1  0  0  0  0  0  0  0  0  0
   24.8868  -21.1852  -15.0452 C   0  0  0  0  0  0  0  0  0  0  0  0
   24.5699  -22.4001  -14.2788 C   0  0  0  0  0  0  0  0  0  0  0  0
   25.3395  -23.5117  -14.0735 C   0  0  0  0  0  0  0  0  0  0  0  0
   24.6632  -24.4215  -13.3239 N   0  0  0  0  0  0  0  0  0  0  0  0
   23.4868  -23.8798  -13.0677 C   0  0  0  0  0  0  0  0  0  0  0  0
   23.3997  -22.6668  -13.6270 N   0  0  0  0  0  0  0  0  0  0  0  0
   25.9075  -20.0627  -13.1034 C   0  0  0  0  0  0  0  0  0  0  0  0
   27.1382  -19.8428  -13.2546 O   0  0  0  0  0  0  0  0  0  0  0  0
   26.8816  -18.6165   -7.6858 C   0  0  0  0  0  0  0  0  0  0  0  0
   26.5438  -19.9657   -8.2847 C   0  0  2  0  0  0  0  0  0  0  0  0
   27.6272  -20.9892   -8.1478 C   0  0  0  0  0  0  0  0  0  0  0  0
   25.8459  -19.9072   -9.5865 C   0  0  0  0  0  0  0  0  0  0  0  0
   26.3255  -20.7497  -10.7028 C   0  0  2  0  0  0  0  0  0  0  0  0
   25.4172  -20.4423  -11.8408 N   0  0  0  0  0  0  0  0  0  0  0  0
   26.3178  -22.2105  -10.4628 C   0  0  0  0  0  0  0  0  0  0  0  0
   25.2113  -22.8346  -10.4279 O   0  0  0  0  0  0  0  0  0  0  0  0
   27.4433  -22.9902  -10.2690 O   0  0  0  0  0  0  0  0  0  0  0  0
  2  1  1  1
  2  3  1  0
  2 10  1  0
  3  4  1  0
  4  9  1  0
  5  4  2  0
  5  6  1  0
  6  7  2  0
  7  8  1  0
  9  8  2  0
 10 12  1  0
 10 11  2  0
 12 13  1  0
 13 20  1  0
 13 14  1  6
 14 15  1  0
 15 16  2  0
 16 17  1  0
 18 17  1  0
 19 15  1  0
 19 18  2  0
 20 21  2  0
 23 22  1  6
 23 24  1  0
 23 25  1  0
 26 25  1  1
 26 28  1  0
 27 20  1  0
 27 26  1  0
 28 29  2  0
 28 30  1  0
M  END
$$$$
