FHL.pdb
     RDKit          3D

 30 31  0  0  1  0  0  0  0  0999 V2000
   25.1172  -16.8710  -20.3960 N   0  0  0  0  0  0  0  0  0  0  0  0
   25.0261  -17.4312  -19.0607 C   0  0  1  0  0  0  0  0  0  0  0  0
   25.2888  -16.3163  -18.0863 C   0  0  0  0  0  0  0  0  0  0  0  0
   26.6413  -15.7556  -18.1869 C   0  0  0  0  0  0  0  0  0  0  0  0
   27.8018  -16.4904  -18.0554 C   0  0  0  0  0  0  0  0  0  0  0  0
   29.0238  -15.8634  -18.1679 C   0  0  0  0  0  0  0  0  0  0  0  0
   29.1611  -14.5124  -18.4100 C   0  0  0  0  0  0  0  0  0  0  0  0
   27.9932  -13.7766  -18.5417 C   0  0  0  0  0  0  0  0  0  0  0  0
   26.7660  -14.3989  -18.4300 C   0  0  0  0  0  0  0  0  0  0  0  0
   23.6083  -17.8830  -18.8262 C   0  0  0  0  0  0  0  0  0  0  0  0
   22.6429  -17.2238  -19.3308 O   0  0  0  0  0  0  0  0  0  0  0  0
   23.2978  -19.0183  -18.0630 N   0  0  0  0  0  0  0  0  0  0  0  0
   21.9801  -19.5389  -17.8526 C   0  0  1  0  0  0  0  0  0  0  0  0
   21.8638  -20.9962  -18.0998 C   0  0  0  0  0  0  0  0  0  0  0  0
   20.5136  -21.5676  -17.9803 C   0  0  0  0  0  0  0  0  0  0  0  0
   19.3541  -20.9576  -17.5884 C   0  0  0  0  0  0  0  0  0  0  0  0
   18.3280  -21.8488  -17.5917 N   0  0  0  0  0  0  0  0  0  0  0  0
   18.8462  -22.9991  -17.9811 C   0  0  0  0  0  0  0  0  0  0  0  0
   20.1559  -22.8634  -18.2218 N   0  0  0  0  0  0  0  0  0  0  0  0
   21.5131  -19.2041  -16.4451 C   0  0  0  0  0  0  0  0  0  0  0  0
   22.2349  -19.4700  -15.4480 O   0  0  0  0  0  0  0  0  0  0  0  0
   21.3612  -15.5869  -13.9583 C   0  0  0  0  0  0  0  0  0  0  0  0
   20.4780  -15.7136  -15.1819 C   0  0  2  0  0  0  0  0  0  0  0  0
   20.0940  -14.4070  -15.8026 C   0  0  0  0  0  0  0  0  0  0  0  0
   19.4155  -16.7357  -15.0745 C   0  0  0  0  0  0  0  0  0  0  0  0
   19.7921  -18.1563  -14.9122 C   0  0  2  0  0  0  0  0  0  0  0  0
   20.2615  -18.5906  -16.2559 N   0  0  0  0  0  0  0  0  0  0  0  0
   18.7142  -19.0659  -14.4626 C   0  0  0  0  0  0  0  0  0  0  0  0
   18.2542  -18.9585  -13.2827 O   0  0  0  0  0  0  0  0  0  0  0  0
   18.1362  -20.0567  -15.2350 O   0  0  0  0  0  0  0  0  0  0  0  0
  2  1  1  6
  2  3  1  0
  2 10  1  0
  3  4  1  0
  4  9  1  0
  5  4  2  0
  5  6  1  0
  6  7  2  0
  7  8  1  0
  9  8  2  0
 10 12  1  0
 10 11  2  0
 12 13  1  0
 13 20  1  0
 13 14  1  1
 14 15  1  0
 15 16  2  0
 16 17  1  0
 18 17  1  0
 19 15  1  0
 19 18  2  0
 20 21  2  0
 23 22  1  1
 23 24  1  0
 23 25  1  0
 26 25  1  6
 26 28  1  0
 27 20  1  0
 27 26  1  0
 28 29  2  0
 28 30  1  0
M  END
$$$$
