FHL.pdb
     RDKit          3D

 30 31  0  0  1  0  0  0  0  0999 V2000
   27.6485  -18.2683  -16.2024 N   0  0  0  0  0  0  0  0  0  0  0  0
   26.8251  -17.9213  -15.0592 C   0  0  1  0  0  0  0  0  0  0  0  0
   25.6821  -17.0853  -15.5653 C   0  0  0  0  0  0  0  0  0  0  0  0
   26.0839  -15.7410  -15.9955 C   0  0  0  0  0  0  0  0  0  0  0  0
   26.5176  -14.7465  -15.1430 C   0  0  0  0  0  0  0  0  0  0  0  0
   26.8718  -13.5162  -15.6527 C   0  0  0  0  0  0  0  0  0  0  0  0
   26.8179  -13.2105  -16.9967 C   0  0  0  0  0  0  0  0  0  0  0  0
   26.3817  -14.2117  -17.8510 C   0  0  0  0  0  0  0  0  0  0  0  0
   26.0254  -15.4464  -17.3465 C   0  0  0  0  0  0  0  0  0  0  0  0
   26.2216  -19.1842  -14.5023 C   0  0  0  0  0  0  0  0  0  0  0  0
   26.0600  -20.1952  -15.2593 O   0  0  0  0  0  0  0  0  0  0  0  0
   25.8222  -19.2989  -13.1625 N   0  0  0  0  0  0  0  0  0  0  0  0
   25.2281  -20.4612  -12.5728 C   0  0  1  0  0  0  0  0  0  0  0  0
   25.7751  -20.8035  -11.2379 C   0  0  0  0  0  0  0  0  0  0  0  0
   27.1963  -21.1807  -11.1978 C   0  0  0  0  0  0  0  0  0  0  0  0
   28.0877  -21.2828  -12.2298 C   0  0  0  0  0  0  0  0  0  0  0  0
   29.3007  -21.6848  -11.7673 N   0  0  0  0  0  0  0  0  0  0  0  0
   29.1625  -21.8309  -10.4624 C   0  0  0  0  0  0  0  0  0  0  0  0
   27.9111  -21.5360  -10.0896 N   0  0  0  0  0  0  0  0  0  0  0  0
   23.7200  -20.2851  -12.4951 C   0  0  0  0  0  0  0  0  0  0  0  0
   23.2185  -19.2821  -11.9220 O   0  0  0  0  0  0  0  0  0  0  0  0
   19.6476  -20.1747  -16.5375 C   0  0  0  0  0  0  0  0  0  0  0  0
   19.8185  -20.3084  -15.0388 C   0  0  2  0  0  0  0  0  0  0  0  0
   19.1438  -19.2348  -14.2436 C   0  0  0  0  0  0  0  0  0  0  0  0
   21.1747  -20.7043  -14.6040 C   0  0  0  0  0  0  0  0  0  0  0  0
   21.4073  -21.0497  -13.1853 C   0  0  2  0  0  0  0  0  0  0  0  0
   22.8770  -21.2532  -13.0701 N   0  0  0  0  0  0  0  0  0  0  0  0
   20.7142  -22.2605  -12.6903 C   0  0  0  0  0  0  0  0  0  0  0  0
   21.2008  -23.4078  -12.9392 O   0  0  0  0  0  0  0  0  0  0  0  0
   19.5448  -22.2613  -11.9521 O   0  0  0  0  0  0  0  0  0  0  0  0
  2  1  1  6
  2  3  1  0
  2 10  1  0
  3  4  1  0
  4  9  1  0
  5  4  2  0
  5  6  1  0
  6  7  2  0
  7  8  1  0
  9  8  2  0
 10 12  1  0
 10 11  2  0
 12 13  1  0
 13 20  1  0
 13 14  1  1
 14 15  1  0
 15 16  2  0
 16 17  1  0
 18 17  1  0
 19 15  1  0
 19 18  2  0
 20 21  2  0
 23 22  1  6
 23 24  1  0
 23 25  1  0
 26 25  1  6
 26 28  1  0
 27 20  1  0
 27 26  1  0
 28 29  2  0
 28 30  1  0
M  END
$$$$
