FHL.pdb
     RDKit          3D

 30 31  0  0  1  0  0  0  0  0999 V2000
   28.4620  -18.6922  -17.6898 N   0  0  0  0  0  0  0  0  0  0  0  0
   27.9175  -19.4063  -16.5502 C   0  0  1  0  0  0  0  0  0  0  0  0
   28.2780  -18.6259  -15.3163 C   0  0  0  0  0  0  0  0  0  0  0  0
   27.6159  -19.1122  -14.1002 C   0  0  0  0  0  0  0  0  0  0  0  0
   26.6267  -18.4279  -13.4241 C   0  0  0  0  0  0  0  0  0  0  0  0
   26.0702  -18.9764  -12.2890 C   0  0  0  0  0  0  0  0  0  0  0  0
   26.4512  -20.1982  -11.7745 C   0  0  0  0  0  0  0  0  0  0  0  0
   27.4454  -20.8836  -12.4560 C   0  0  0  0  0  0  0  0  0  0  0  0
   28.0069  -20.3395  -13.5937 C   0  0  0  0  0  0  0  0  0  0  0  0
   26.4143  -19.3887  -16.6471 C   0  0  0  0  0  0  0  0  0  0  0  0
   25.8044  -18.2837  -16.8155 O   0  0  0  0  0  0  0  0  0  0  0  0
   25.6418  -20.5562  -16.5586 N   0  0  0  0  0  0  0  0  0  0  0  0
   24.2111  -20.5997  -16.5058 C   0  0  1  0  0  0  0  0  0  0  0  0
   23.5916  -21.3526  -17.6228 C   0  0  0  0  0  0  0  0  0  0  0  0
   23.5128  -20.6495  -18.9125 C   0  0  0  0  0  0  0  0  0  0  0  0
   23.7956  -19.3422  -19.1971 C   0  0  0  0  0  0  0  0  0  0  0  0
   23.5691  -19.0863  -20.5125 N   0  0  0  0  0  0  0  0  0  0  0  0
   23.1499  -20.2229  -21.0375 C   0  0  0  0  0  0  0  0  0  0  0  0
   23.1051  -21.1803  -20.1030 N   0  0  0  0  0  0  0  0  0  0  0  0
   23.7626  -21.1730  -15.1711 C   0  0  0  0  0  0  0  0  0  0  0  0
   24.2282  -22.2654  -14.7515 O   0  0  0  0  0  0  0  0  0  0  0  0
   21.6588  -20.7730  -10.1545 C   0  0  0  0  0  0  0  0  0  0  0  0
   23.0645  -20.9782  -10.6789 C   0  0  2  0  0  0  0  0  0  0  0  0
   24.1437  -20.6063   -9.7109 C   0  0  0  0  0  0  0  0  0  0  0  0
   23.2651  -20.5716  -12.0859 C   0  0  0  0  0  0  0  0  0  0  0  0
   22.2978  -21.0157  -13.1121 C   0  0  2  0  0  0  0  0  0  0  0  0
   22.8178  -20.4749  -14.3973 N   0  0  0  0  0  0  0  0  0  0  0  0
   20.9016  -20.5591  -12.9284 C   0  0  0  0  0  0  0  0  0  0  0  0
   20.0080  -21.3954  -12.5858 O   0  0  0  0  0  0  0  0  0  0  0  0
   20.4616  -19.2591  -13.0975 O   0  0  0  0  0  0  0  0  0  0  0  0
  2  1  1  6
  2  3  1  0
  2 10  1  0
  3  4  1  0
  4  9  1  0
  5  4  2  0
  5  6  1  0
  6  7  2  0
  7  8  1  0
  9  8  2  0
 10 12  1  0
 10 11  2  0
 12 13  1  0
 13 20  1  0
 13 14  1  6
 14 15  1  0
 15 16  2  0
 16 17  1  0
 18 17  1  0
 19 15  1  0
 19 18  2  0
 20 21  2  0
 23 22  1  1
 23 24  1  0
 23 25  1  0
 26 25  1  1
 26 28  1  0
 27 20  1  0
 27 26  1  0
 28 29  2  0
 28 30  1  0
M  END
$$$$
