FHL.pdb
     RDKit          3D

 30 31  0  0  1  0  0  0  0  0999 V2000
   23.0796  -17.3709  -17.5654 N   0  0  0  0  0  0  0  0  0  0  0  0
   23.9192  -17.3967  -16.3823 C   0  0  1  0  0  0  0  0  0  0  0  0
   23.0093  -17.4459  -15.1860 C   0  0  0  0  0  0  0  0  0  0  0  0
   21.7993  -18.2479  -15.4017 C   0  0  0  0  0  0  0  0  0  0  0  0
   21.5268  -19.4371  -14.7571 C   0  0  0  0  0  0  0  0  0  0  0  0
   20.3577  -20.1120  -15.0341 C   0  0  0  0  0  0  0  0  0  0  0  0
   19.4199  -19.6601  -15.9390 C   0  0  0  0  0  0  0  0  0  0  0  0
   19.6964  -18.4649  -16.5853 C   0  0  0  0  0  0  0  0  0  0  0  0
   20.8658  -17.7840  -16.3121 C   0  0  0  0  0  0  0  0  0  0  0  0
   24.7042  -18.6824  -16.3797 C   0  0  0  0  0  0  0  0  0  0  0  0
   24.3265  -19.6555  -17.1089 O   0  0  0  0  0  0  0  0  0  0  0  0
   25.8538  -18.8595  -15.5955 N   0  0  0  0  0  0  0  0  0  0  0  0
   26.6709  -20.0358  -15.5787 C   0  0  1  0  0  0  0  0  0  0  0  0
   28.1250  -19.7580  -15.6612 C   0  0  0  0  0  0  0  0  0  0  0  0
   28.5806  -19.0433  -16.8635 C   0  0  0  0  0  0  0  0  0  0  0  0
   27.8494  -18.6128  -17.9359 C   0  0  0  0  0  0  0  0  0  0  0  0
   28.6588  -18.0140  -18.8487 N   0  0  0  0  0  0  0  0  0  0  0  0
   29.8789  -18.0732  -18.3476 C   0  0  0  0  0  0  0  0  0  0  0  0
   29.8654  -18.6851  -17.1571 N   0  0  0  0  0  0  0  0  0  0  0  0
   26.3612  -20.8599  -14.3393 C   0  0  0  0  0  0  0  0  0  0  0  0
   26.8377  -22.0174  -14.2013 O   0  0  0  0  0  0  0  0  0  0  0  0
   25.7025  -19.9631   -8.6220 C   0  0  0  0  0  0  0  0  0  0  0  0
   25.9153  -21.0396   -9.6655 C   0  0  2  0  0  0  0  0  0  0  0  0
   26.8510  -22.1293   -9.2447 C   0  0  0  0  0  0  0  0  0  0  0  0
   26.0571  -20.5399  -11.0494 C   0  0  0  0  0  0  0  0  0  0  0  0
   25.1843  -21.0883  -12.1094 C   0  0  2  0  0  0  0  0  0  0  0  0
   25.5338  -20.3225  -13.3366 N   0  0  0  0  0  0  0  0  0  0  0  0
   23.7273  -20.9769  -11.8722 C   0  0  0  0  0  0  0  0  0  0  0  0
   23.0836  -20.0003  -12.3692 O   0  0  0  0  0  0  0  0  0  0  0  0
   22.9711  -21.8705  -11.1359 O   0  0  0  0  0  0  0  0  0  0  0  0
  2  1  1  6
  2  3  1  0
  2 10  1  0
  3  4  1  0
  4  9  1  0
  5  4  2  0
  5  6  1  0
  6  7  2  0
  7  8  1  0
  9  8  2  0
 10 12  1  0
 10 11  2  0
 12 13  1  0
 13 20  1  0
 13 14  1  1
 14 15  1  0
 15 16  2  0
 16 17  1  0
 18 17  1  0
 19 15  1  0
 19 18  2  0
 20 21  2  0
 23 22  1  1
 23 24  1  0
 23 25  1  0
 26 25  1  1
 26 28  1  0
 27 20  1  0
 27 26  1  0
 28 29  2  0
 28 30  1  0
M  END
$$$$
