FHL.pdb
     RDKit          3D

 30 31  0  0  1  0  0  0  0  0999 V2000
   23.9369  -12.2888  -15.4708 N   0  0  0  0  0  0  0  0  0  0  0  0
   23.3389  -11.2594  -14.6413 C   0  0  1  0  0  0  0  0  0  0  0  0
   24.4592  -10.4333  -14.0722 C   0  0  0  0  0  0  0  0  0  0  0  0
   25.4274   -9.9841  -15.0795 C   0  0  0  0  0  0  0  0  0  0  0  0
   25.2738   -8.8570  -15.8605 C   0  0  0  0  0  0  0  0  0  0  0  0
   26.2461   -8.5246  -16.7789 C   0  0  0  0  0  0  0  0  0  0  0  0
   27.3919   -9.2684  -16.9698 C   0  0  0  0  0  0  0  0  0  0  0  0
   27.5435  -10.4004  -16.1835 C   0  0  0  0  0  0  0  0  0  0  0  0
   26.5731  -10.7388  -15.2618 C   0  0  0  0  0  0  0  0  0  0  0  0
   22.5321  -10.3422  -15.5228 C   0  0  0  0  0  0  0  0  0  0  0  0
   22.7420  -10.3258  -16.7786 O   0  0  0  0  0  0  0  0  0  0  0  0
   21.5416   -9.4895  -15.0133 N   0  0  0  0  0  0  0  0  0  0  0  0
   20.7351   -8.5991  -15.7932 C   0  0  1  0  0  0  0  0  0  0  0  0
   19.2793   -8.8604  -15.6886 C   0  0  0  0  0  0  0  0  0  0  0  0
   18.4091   -8.0230  -16.5284 C   0  0  0  0  0  0  0  0  0  0  0  0
   18.0922   -8.1691  -17.8507 C   0  0  0  0  0  0  0  0  0  0  0  0
   17.2717   -7.1630  -18.2529 N   0  0  0  0  0  0  0  0  0  0  0  0
   17.0826   -6.4012  -17.1913 C   0  0  0  0  0  0  0  0  0  0  0  0
   17.7519   -6.8905  -16.1403 N   0  0  0  0  0  0  0  0  0  0  0  0
   21.0409   -7.1597  -15.4113 C   0  0  0  0  0  0  0  0  0  0  0  0
   21.4064   -6.8685  -14.2418 O   0  0  0  0  0  0  0  0  0  0  0  0
   22.7573   -2.1804  -15.7719 C   0  0  0  0  0  0  0  0  0  0  0  0
   23.3738   -3.3858  -16.4503 C   0  0  2  0  0  0  0  0  0  0  0  0
   24.5026   -3.0606  -17.3778 C   0  0  0  0  0  0  0  0  0  0  0  0
   22.4021   -4.3977  -16.9159 C   0  0  0  0  0  0  0  0  0  0  0  0
   21.2344   -4.7226  -16.0691 C   0  0  2  0  0  0  0  0  0  0  0  0
   20.9145   -6.1433  -16.3755 N   0  0  0  0  0  0  0  0  0  0  0  0
   20.0240   -3.8991  -16.2895 C   0  0  0  0  0  0  0  0  0  0  0  0
   19.2455   -4.1742  -17.2556 O   0  0  0  0  0  0  0  0  0  0  0  0
   19.6442   -2.8202  -15.5123 O   0  0  0  0  0  0  0  0  0  0  0  0
  2  1  1  6
  2  3  1  0
  2 10  1  0
  3  4  1  0
  4  9  1  0
  5  4  2  0
  5  6  1  0
  6  7  2  0
  7  8  1  0
  9  8  2  0
 10 12  1  0
 10 11  2  0
 12 13  1  0
 13 20  1  0
 13 14  1  1
 14 15  1  0
 15 16  2  0
 16 17  1  0
 18 17  1  0
 19 15  1  0
 19 18  2  0
 20 21  2  0
 23 22  1  6
 23 24  1  0
 23 25  1  0
 26 25  1  6
 26 28  1  0
 27 20  1  0
 27 26  1  0
 28 29  2  0
 28 30  1  0
M  END
$$$$
