LSD.pdb
     RDKit          3D

 23 22  0  0  1  0  0  0  0  0999 V2000
    6.5347  -14.0092   19.9877 C   0  0  0  0  0  0  0  0  0  0  0  0
    7.9109  -13.4057   20.2076 C   0  0  2  0  0  0  0  0  0  0  0  0
    7.9316  -11.9446   19.8263 C   0  0  0  0  0  0  0  0  0  0  0  0
    8.9059  -14.1659   19.3785 C   0  0  0  0  0  0  0  0  0  0  0  0
    9.1895  -15.5432   19.9214 C   0  0  2  0  0  0  0  0  0  0  0  0
    8.0015  -16.2481   20.3033 N   0  0  0  0  0  0  0  0  0  0  0  0
   10.0232  -15.3449   21.1541 C   0  0  0  0  0  0  0  0  0  0  0  0
   11.0602  -14.6768   21.0888 O   0  0  0  0  0  0  0  0  0  0  0  0
    9.1064  -17.6145   24.5690 O   0  0  0  0  0  0  0  0  0  0  0  0
    9.5154  -16.3032   24.7517 C   0  0  0  0  0  0  0  0  0  0  0  0
   10.3494  -15.8999   23.5572 C   0  0  2  0  0  0  0  0  0  0  0  0
    9.5886  -15.9318   22.3468 N   0  0  0  0  0  0  0  0  0  0  0  0
   11.6073  -16.6881   23.4791 C   0  0  0  0  0  0  0  0  0  0  0  0
   11.7584  -17.6156   22.6729 O   0  0  0  0  0  0  0  0  0  0  0  0
   12.6645  -16.3758   24.3456 N   0  0  0  0  0  0  0  0  0  0  0  0
   13.9386  -17.1152   24.3315 C   0  0  1  0  0  0  0  0  0  0  0  0
   14.9924  -16.1295   23.9538 C   0  0  0  0  0  0  0  0  0  0  0  0
   16.1664  -16.7117   23.2908 C   0  0  0  0  0  0  0  0  0  0  0  0
   16.2722  -17.9497   23.1006 O   0  0  0  0  0  0  0  0  0  0  0  0
   14.1440  -17.6904   25.6823 C   0  0  0  0  0  0  0  0  0  0  0  0
   15.0711  -18.5079   25.8979 O   0  0  0  0  0  0  0  0  0  0  0  0
   17.2013  -15.8935   22.8531 O   0  0  0  0  0  0  0  0  0  0  0  0
   13.3362  -17.3645   26.7714 O   0  0  0  0  0  0  0  0  0  0  0  0
  2  1  1  6
  2  4  1  0
  2  3  1  0
  4  5  1  0
  5  7  1  0
  5  6  1  1
  7  8  2  0
  9 10  1  0
 11 10  1  1
 12 11  1  0
 12  7  1  0
 13 11  1  0
 14 13  2  0
 15 13  1  0
 16 15  1  0
 16 17  1  1
 17 18  1  0
 18 19  2  0
 18 22  1  0
 20 16  1  0
 21 20  2  0
 23 20  1  0
M  END
$$$$
