LSD.pdb
     RDKit          3D

 23 22  0  0  1  0  0  0  0  0999 V2000
    8.2972  -13.5295   18.3003 C   0  0  0  0  0  0  0  0  0  0  0  0
    7.3913  -13.2347   19.4830 C   0  0  2  0  0  0  0  0  0  0  0  0
    7.0066  -11.7749   19.5231 C   0  0  0  0  0  0  0  0  0  0  0  0
    8.1136  -13.6092   20.7453 C   0  0  0  0  0  0  0  0  0  0  0  0
    8.4315  -15.0806   20.8232 C   0  0  2  0  0  0  0  0  0  0  0  0
    7.2769  -15.9112   20.6465 N   0  0  0  0  0  0  0  0  0  0  0  0
    8.9649  -15.3222   22.2056 C   0  0  0  0  0  0  0  0  0  0  0  0
    9.9036  -14.6379   22.6259 O   0  0  0  0  0  0  0  0  0  0  0  0
    7.2444  -18.4080   24.4618 O   0  0  0  0  0  0  0  0  0  0  0  0
    7.7467  -17.2969   25.1203 C   0  0  0  0  0  0  0  0  0  0  0  0
    8.8477  -16.7045   24.2707 C   0  0  2  0  0  0  0  0  0  0  0  0
    8.3709  -16.3264   22.9766 N   0  0  0  0  0  0  0  0  0  0  0  0
   10.0363  -17.5957   24.2194 C   0  0  0  0  0  0  0  0  0  0  0  0
   10.0830  -18.5959   23.4910 O   0  0  0  0  0  0  0  0  0  0  0  0
   11.1479  -17.2994   25.0211 N   0  0  0  0  0  0  0  0  0  0  0  0
   12.3602  -18.1363   25.0265 C   0  0  1  0  0  0  0  0  0  0  0  0
   13.5167  -17.2018   24.9092 C   0  0  0  0  0  0  0  0  0  0  0  0
   14.7610  -17.8231   24.4376 C   0  0  0  0  0  0  0  0  0  0  0  0
   15.8191  -17.1594   24.2959 O   0  0  0  0  0  0  0  0  0  0  0  0
   12.3704  -18.9113   26.2903 C   0  0  0  0  0  0  0  0  0  0  0  0
   12.9270  -20.0342   26.3503 O   0  0  0  0  0  0  0  0  0  0  0  0
   14.7955  -19.1789   24.1331 O   0  0  0  0  0  0  0  0  0  0  0  0
   11.7745  -18.4488   27.4633 O   0  0  0  0  0  0  0  0  0  0  0  0
  2  1  1  6
  2  4  1  0
  2  3  1  0
  4  5  1  0
  5  7  1  0
  5  6  1  1
  7  8  2  0
  9 10  1  0
 11 10  1  6
 12 11  1  0
 12  7  1  0
 13 11  1  0
 14 13  2  0
 15 13  1  0
 16 15  1  0
 16 17  1  1
 17 18  1  0
 18 19  2  0
 18 22  1  0
 20 16  1  0
 21 20  2  0
 23 20  1  0
M  END
$$$$
