LSD.pdb
     RDKit          3D

 23 22  0  0  1  0  0  0  0  0999 V2000
    8.4858  -13.3418   17.9361 C   0  0  0  0  0  0  0  0  0  0  0  0
    7.5136  -13.4853   19.0939 C   0  0  2  0  0  0  0  0  0  0  0  0
    6.6600  -12.2485   19.2441 C   0  0  0  0  0  0  0  0  0  0  0  0
    8.2982  -13.7223   20.3523 C   0  0  0  0  0  0  0  0  0  0  0  0
    9.0773  -15.0124   20.3220 C   0  0  2  0  0  0  0  0  0  0  0  0
    8.2680  -16.1452   19.9815 N   0  0  0  0  0  0  0  0  0  0  0  0
    9.5980  -15.2210   21.7146 C   0  0  0  0  0  0  0  0  0  0  0  0
   10.1791  -14.2974   22.2938 O   0  0  0  0  0  0  0  0  0  0  0  0
    8.5307  -18.6955   23.7041 O   0  0  0  0  0  0  0  0  0  0  0  0
    8.9229  -17.5794   24.4258 C   0  0  0  0  0  0  0  0  0  0  0  0
    9.9287  -16.8132   23.5974 C   0  0  2  0  0  0  0  0  0  0  0  0
    9.4029  -16.4700   22.3125 N   0  0  0  0  0  0  0  0  0  0  0  0
   11.2316  -17.5251   23.5258 C   0  0  0  0  0  0  0  0  0  0  0  0
   11.4430  -18.4395   22.7180 O   0  0  0  0  0  0  0  0  0  0  0  0
   12.2627  -17.1534   24.4004 N   0  0  0  0  0  0  0  0  0  0  0  0
   13.5389  -17.8859   24.4692 C   0  0  1  0  0  0  0  0  0  0  0  0
   14.6162  -16.8543   24.4661 C   0  0  0  0  0  0  0  0  0  0  0  0
   14.7950  -16.1591   23.1850 C   0  0  0  0  0  0  0  0  0  0  0  0
   14.1096  -16.4516   22.1726 O   0  0  0  0  0  0  0  0  0  0  0  0
   13.5263  -18.7034   25.7059 C   0  0  0  0  0  0  0  0  0  0  0  0
   14.4456  -19.5238   25.9425 O   0  0  0  0  0  0  0  0  0  0  0  0
   15.7404  -15.1474   23.0628 O   0  0  0  0  0  0  0  0  0  0  0  0
   12.5134  -18.6117   26.6601 O   0  0  0  0  0  0  0  0  0  0  0  0
  2  1  1  6
  2  4  1  0
  2  3  1  0
  4  5  1  0
  5  7  1  0
  5  6  1  1
  7  8  2  0
  9 10  1  0
 11 10  1  6
 12 11  1  0
 12  7  1  0
 13 11  1  0
 14 13  2  0
 15 13  1  0
 16 15  1  0
 16 17  1  1
 17 18  1  0
 18 19  2  0
 18 22  1  0
 20 16  1  0
 21 20  2  0
 23 20  1  0
M  END
$$$$
