LSD.pdb
     RDKit          3D

 23 22  0  0  1  0  0  0  0  0999 V2000
    6.8106  -13.6311   21.0415 C   0  0  0  0  0  0  0  0  0  0  0  0
    8.1077  -13.3426   20.3061 C   0  0  2  0  0  0  0  0  0  0  0  0
    7.9751  -12.1213   19.4277 C   0  0  0  0  0  0  0  0  0  0  0  0
    8.4613  -14.5391   19.4703 C   0  0  0  0  0  0  0  0  0  0  0  0
    8.5100  -15.8169   20.2684 C   0  0  2  0  0  0  0  0  0  0  0  0
    7.2548  -16.1417   20.8791 N   0  0  0  0  0  0  0  0  0  0  0  0
    9.5099  -15.5890   21.3649 C   0  0  0  0  0  0  0  0  0  0  0  0
   10.6798  -15.3161   21.0772 O   0  0  0  0  0  0  0  0  0  0  0  0
    8.2636  -16.3925   25.2446 O   0  0  0  0  0  0  0  0  0  0  0  0
    9.2016  -15.3828   25.1002 C   0  0  0  0  0  0  0  0  0  0  0  0
    9.9558  -15.6220   23.8122 C   0  0  2  0  0  0  0  0  0  0  0  0
    9.0734  -15.6953   22.6893 N   0  0  0  0  0  0  0  0  0  0  0  0
   10.8634  -16.7942   23.9213 C   0  0  0  0  0  0  0  0  0  0  0  0
   10.5729  -17.9024   23.4515 O   0  0  0  0  0  0  0  0  0  0  0  0
   12.0937  -16.6473   24.5777 N   0  0  0  0  0  0  0  0  0  0  0  0
   13.0403  -17.7650   24.7353 C   0  0  1  0  0  0  0  0  0  0  0  0
   14.4068  -17.1765   24.6309 C   0  0  0  0  0  0  0  0  0  0  0  0
   14.7557  -16.6704   23.2972 C   0  0  0  0  0  0  0  0  0  0  0  0
   14.4049  -17.2703   22.2497 O   0  0  0  0  0  0  0  0  0  0  0  0
   12.7824  -18.3953   26.0521 C   0  0  0  0  0  0  0  0  0  0  0  0
   12.9241  -19.6318   26.2108 O   0  0  0  0  0  0  0  0  0  0  0  0
   15.4925  -15.4994   23.1628 O   0  0  0  0  0  0  0  0  0  0  0  0
   12.3754  -17.6672   27.1697 O   0  0  0  0  0  0  0  0  0  0  0  0
  2  1  1  6
  2  4  1  0
  2  3  1  0
  4  5  1  0
  5  7  1  0
  5  6  1  1
  7  8  2  0
  9 10  1  0
 11 10  1  1
 12 11  1  0
 12  7  1  0
 13 11  1  0
 14 13  2  0
 15 13  1  0
 16 15  1  0
 16 17  1  1
 17 18  1  0
 18 19  2  0
 18 22  1  0
 20 16  1  0
 21 20  2  0
 23 20  1  0
M  END
$$$$
