LSD.pdb
     RDKit          3D

 23 22  0  0  1  0  0  0  0  0999 V2000
    9.2144  -13.4872   19.0577 C   0  0  0  0  0  0  0  0  0  0  0  0
    7.9291  -13.3738   19.8587 C   0  0  2  0  0  0  0  0  0  0  0  0
    7.3755  -11.9699   19.8033 C   0  0  0  0  0  0  0  0  0  0  0  0
    8.2162  -13.7557   21.2824 C   0  0  0  0  0  0  0  0  0  0  0  0
    8.6792  -15.1833   21.4236 C   0  0  2  0  0  0  0  0  0  0  0  0
    7.7072  -16.1329   20.9678 N   0  0  0  0  0  0  0  0  0  0  0  0
    8.8926  -15.4121   22.8919 C   0  0  0  0  0  0  0  0  0  0  0  0
    9.8503  -14.8774   23.4602 O   0  0  0  0  0  0  0  0  0  0  0  0
    6.1666  -17.8677   25.0289 O   0  0  0  0  0  0  0  0  0  0  0  0
    6.7667  -16.7622   25.6102 C   0  0  0  0  0  0  0  0  0  0  0  0
    8.1150  -16.5610   24.9569 C   0  0  2  0  0  0  0  0  0  0  0  0
    7.9866  -16.2329   23.5710 N   0  0  0  0  0  0  0  0  0  0  0  0
    9.0185  -17.7152   25.2043 C   0  0  0  0  0  0  0  0  0  0  0  0
    8.9859  -18.7416   24.5124 O   0  0  0  0  0  0  0  0  0  0  0  0
    9.9431  -17.6464   26.2561 N   0  0  0  0  0  0  0  0  0  0  0  0
   10.8725  -18.7481   26.5607 C   0  0  1  0  0  0  0  0  0  0  0  0
   12.2480  -18.1938   26.4016 C   0  0  0  0  0  0  0  0  0  0  0  0
   13.2259  -19.1335   25.8384 C   0  0  0  0  0  0  0  0  0  0  0  0
   12.9351  -20.3361   25.6158 O   0  0  0  0  0  0  0  0  0  0  0  0
   10.5921  -19.2090   27.9415 C   0  0  0  0  0  0  0  0  0  0  0  0
    9.9553  -18.4841   28.7435 O   0  0  0  0  0  0  0  0  0  0  0  0
   14.5134  -18.7067   25.5348 O   0  0  0  0  0  0  0  0  0  0  0  0
   11.0106  -20.4496   28.4219 O   0  0  0  0  0  0  0  0  0  0  0  0
  2  1  1  6
  2  4  1  0
  2  3  1  0
  4  5  1  0
  5  7  1  0
  5  6  1  1
  7  8  2  0
  9 10  1  0
 11 10  1  6
 12 11  1  0
 12  7  1  0
 13 11  1  0
 14 13  2  0
 15 13  1  0
 16 15  1  0
 16 17  1  1
 17 18  1  0
 18 19  2  0
 18 22  1  0
 20 16  1  0
 21 20  2  0
 23 20  1  0
M  END
$$$$
