LSD.pdb
     RDKit          3D

 23 22  0  0  1  0  0  0  0  0999 V2000
    8.4963  -13.6898   17.9390 C   0  0  0  0  0  0  0  0  0  0  0  0
    7.4587  -13.4457   19.0208 C   0  0  2  0  0  0  0  0  0  0  0  0
    6.8496  -12.0700   18.8900 C   0  0  0  0  0  0  0  0  0  0  0  0
    8.1211  -13.5875   20.3612 C   0  0  0  0  0  0  0  0  0  0  0  0
    8.7074  -14.9584   20.5822 C   0  0  2  0  0  0  0  0  0  0  0  0
    7.7330  -16.0048   20.4830 N   0  0  0  0  0  0  0  0  0  0  0  0
    9.2468  -14.9633   21.9833 C   0  0  0  0  0  0  0  0  0  0  0  0
   10.1063  -14.1381   22.3095 O   0  0  0  0  0  0  0  0  0  0  0  0
    7.3259  -17.3066   24.7748 O   0  0  0  0  0  0  0  0  0  0  0  0
    8.1038  -16.2430   25.2037 C   0  0  0  0  0  0  0  0  0  0  0  0
    9.2340  -16.0589   24.2169 C   0  0  2  0  0  0  0  0  0  0  0  0
    8.7491  -15.9147   22.8793 N   0  0  0  0  0  0  0  0  0  0  0  0
   10.2591  -17.1264   24.3563 C   0  0  0  0  0  0  0  0  0  0  0  0
   10.1707  -18.2104   23.7645 O   0  0  0  0  0  0  0  0  0  0  0  0
   11.3682  -16.9050   25.1851 N   0  0  0  0  0  0  0  0  0  0  0  0
   12.4107  -17.9246   25.3942 C   0  0  1  0  0  0  0  0  0  0  0  0
   13.7192  -17.2220   25.2570 C   0  0  0  0  0  0  0  0  0  0  0  0
   13.9364  -16.5804   23.9540 C   0  0  0  0  0  0  0  0  0  0  0  0
   13.4446  -17.0488   22.8962 O   0  0  0  0  0  0  0  0  0  0  0  0
   12.2085  -18.5101   26.7411 C   0  0  0  0  0  0  0  0  0  0  0  0
   12.9492  -19.4332   27.1576 O   0  0  0  0  0  0  0  0  0  0  0  0
   14.7021  -15.4240   23.8613 O   0  0  0  0  0  0  0  0  0  0  0  0
   11.2043  -18.0793   27.6076 O   0  0  0  0  0  0  0  0  0  0  0  0
  2  1  1  6
  2  4  1  0
  2  3  1  0
  4  5  1  0
  5  7  1  0
  5  6  1  1
  7  8  2  0
  9 10  1  0
 11 10  1  1
 12 11  1  0
 12  7  1  0
 13 11  1  0
 14 13  2  0
 15 13  1  0
 16 15  1  0
 16 17  1  1
 17 18  1  0
 18 19  2  0
 18 22  1  0
 20 16  1  0
 21 20  2  0
 23 20  1  0
M  END
$$$$
