LSD.pdb
     RDKit          3D

 23 22  0  0  1  0  0  0  0  0999 V2000
    5.8018  -12.0065   25.4431 C   0  0  0  0  0  0  0  0  0  0  0  0
    6.6050  -12.7522   26.4944 C   0  0  2  0  0  0  0  0  0  0  0  0
    7.5060  -11.8120   27.2591 C   0  0  0  0  0  0  0  0  0  0  0  0
    7.4269  -13.8070   25.8109 C   0  0  0  0  0  0  0  0  0  0  0  0
    6.5857  -14.8235   25.0818 C   0  0  2  0  0  0  0  0  0  0  0  0
    5.7425  -15.5819   25.9582 N   0  0  0  0  0  0  0  0  0  0  0  0
    7.5475  -15.7751   24.4312 C   0  0  0  0  0  0  0  0  0  0  0  0
    7.9586  -16.7543   25.0623 O   0  0  0  0  0  0  0  0  0  0  0  0
    9.6966  -14.6870   20.9297 O   0  0  0  0  0  0  0  0  0  0  0  0
    9.0237  -15.8978   20.9670 C   0  0  0  0  0  0  0  0  0  0  0  0
    8.8957  -16.3204   22.4127 C   0  0  2  0  0  0  0  0  0  0  0  0
    7.9473  -15.5142   23.1167 N   0  0  0  0  0  0  0  0  0  0  0  0
   10.2216  -16.3838   23.0819 C   0  0  0  0  0  0  0  0  0  0  0  0
   10.6109  -15.5065   23.8642 O   0  0  0  0  0  0  0  0  0  0  0  0
   11.0665  -17.4725   22.8232 N   0  0  0  0  0  0  0  0  0  0  0  0
   12.3185  -17.6916   23.5679 C   0  0  1  0  0  0  0  0  0  0  0  0
   12.0761  -18.8597   24.4632 C   0  0  0  0  0  0  0  0  0  0  0  0
   12.6500  -18.7297   25.8087 C   0  0  0  0  0  0  0  0  0  0  0  0
   13.3488  -17.7376   26.1365 O   0  0  0  0  0  0  0  0  0  0  0  0
   13.3967  -17.9356   22.5801 C   0  0  0  0  0  0  0  0  0  0  0  0
   13.1480  -18.4888   21.4817 O   0  0  0  0  0  0  0  0  0  0  0  0
   12.4293  -19.7162   26.7628 O   0  0  0  0  0  0  0  0  0  0  0  0
   14.7239  -17.5727   22.8075 O   0  0  0  0  0  0  0  0  0  0  0  0
  2  1  1  6
  2  4  1  0
  2  3  1  0
  4  5  1  0
  5  7  1  0
  5  6  1  1
  7  8  2  0
  9 10  1  0
 11 10  1  6
 12 11  1  0
 12  7  1  0
 13 11  1  0
 14 13  2  0
 15 13  1  0
 16 15  1  0
 16 17  1  1
 17 18  1  0
 18 19  2  0
 18 22  1  0
 20 16  1  0
 21 20  2  0
 23 20  1  0
M  END
$$$$
