LSD.pdb
     RDKit          3D

 23 22  0  0  1  0  0  0  0  0999 V2000
    7.4406  -14.0852   18.2378 C   0  0  0  0  0  0  0  0  0  0  0  0
    7.6412  -13.3271   19.5384 C   0  0  2  0  0  0  0  0  0  0  0  0
    7.5317  -11.8366   19.3219 C   0  0  0  0  0  0  0  0  0  0  0  0
    8.9972  -13.6670   20.0873 C   0  0  0  0  0  0  0  0  0  0  0  0
    9.1262  -15.1190   20.4710 C   0  0  2  0  0  0  0  0  0  0  0  0
    7.8609  -15.7464   20.7150 N   0  0  0  0  0  0  0  0  0  0  0  0
    9.9081  -15.1466   21.7523 C   0  0  0  0  0  0  0  0  0  0  0  0
   11.0928  -14.7964   21.7523 O   0  0  0  0  0  0  0  0  0  0  0  0
    8.0382  -16.7225   25.1385 O   0  0  0  0  0  0  0  0  0  0  0  0
    8.9129  -15.6636   25.3226 C   0  0  0  0  0  0  0  0  0  0  0  0
    9.9073  -15.6717   24.1841 C   0  0  2  0  0  0  0  0  0  0  0  0
    9.2572  -15.5732   22.9142 N   0  0  0  0  0  0  0  0  0  0  0  0
   10.8353  -16.8291   24.2787 C   0  0  0  0  0  0  0  0  0  0  0  0
   10.5986  -17.9140   23.7309 O   0  0  0  0  0  0  0  0  0  0  0  0
   12.0228  -16.6950   25.0122 N   0  0  0  0  0  0  0  0  0  0  0  0
   12.9825  -17.8020   25.1658 C   0  0  1  0  0  0  0  0  0  0  0  0
   14.3410  -17.1865   25.1449 C   0  0  0  0  0  0  0  0  0  0  0  0
   14.6983  -16.5336   23.8789 C   0  0  0  0  0  0  0  0  0  0  0  0
   14.2188  -16.9133   22.7807 O   0  0  0  0  0  0  0  0  0  0  0  0
   12.6802  -18.4900   26.4437 C   0  0  0  0  0  0  0  0  0  0  0  0
   13.2841  -19.5418   26.7651 O   0  0  0  0  0  0  0  0  0  0  0  0
   15.5879  -15.4656   23.8680 O   0  0  0  0  0  0  0  0  0  0  0  0
   11.7268  -18.0195   27.3462 O   0  0  0  0  0  0  0  0  0  0  0  0
  2  1  1  6
  2  4  1  0
  2  3  1  0
  4  5  1  0
  5  7  1  0
  5  6  1  1
  7  8  2  0
  9 10  1  0
 11 10  1  1
 12 11  1  0
 12  7  1  0
 13 11  1  0
 14 13  2  0
 15 13  1  0
 16 15  1  0
 16 17  1  1
 17 18  1  0
 18 19  2  0
 18 22  1  0
 20 16  1  0
 21 20  2  0
 23 20  1  0
M  END
$$$$
