LSD.pdb
     RDKit          3D

 23 22  0  0  1  0  0  0  0  0999 V2000
    8.0443  -12.6649   27.2328 C   0  0  0  0  0  0  0  0  0  0  0  0
    7.5977  -13.4243   25.9958 C   0  0  2  0  0  0  0  0  0  0  0  0
    6.7747  -12.5448   25.0849 C   0  0  0  0  0  0  0  0  0  0  0  0
    6.7884  -14.6129   26.4289 C   0  0  0  0  0  0  0  0  0  0  0  0
    6.4256  -15.5230   25.2834 C   0  0  2  0  0  0  0  0  0  0  0  0
    5.5628  -16.5980   25.6761 N   0  0  0  0  0  0  0  0  0  0  0  0
    7.7143  -16.1212   24.7982 C   0  0  0  0  0  0  0  0  0  0  0  0
    8.3375  -16.9010   25.5260 O   0  0  0  0  0  0  0  0  0  0  0  0
    9.3239  -14.8501   21.1173 O   0  0  0  0  0  0  0  0  0  0  0  0
    9.2719  -16.2061   21.3980 C   0  0  0  0  0  0  0  0  0  0  0  0
    9.3015  -16.3770   22.8997 C   0  0  2  0  0  0  0  0  0  0  0  0
    8.1673  -15.7687   23.5230 N   0  0  0  0  0  0  0  0  0  0  0  0
   10.5967  -15.9276   23.4743 C   0  0  0  0  0  0  0  0  0  0  0  0
   10.7895  -14.7603   23.8394 O   0  0  0  0  0  0  0  0  0  0  0  0
   11.6416  -16.8526   23.6111 N   0  0  0  0  0  0  0  0  0  0  0  0
   12.9653  -16.4733   24.1344 C   0  0  1  0  0  0  0  0  0  0  0  0
   13.5455  -17.7053   24.7431 C   0  0  0  0  0  0  0  0  0  0  0  0
   12.9958  -18.0557   26.0590 C   0  0  0  0  0  0  0  0  0  0  0  0
   12.3683  -17.2198   26.7574 O   0  0  0  0  0  0  0  0  0  0  0  0
   13.7694  -15.9556   23.0016 C   0  0  0  0  0  0  0  0  0  0  0  0
   13.3871  -16.1150   21.8173 O   0  0  0  0  0  0  0  0  0  0  0  0
   13.1603  -19.3387   26.5680 O   0  0  0  0  0  0  0  0  0  0  0  0
   14.9734  -15.2750   23.1804 O   0  0  0  0  0  0  0  0  0  0  0  0
  2  1  1  1
  2  4  1  0
  2  3  1  0
  4  5  1  0
  5  7  1  0
  5  6  1  1
  7  8  2  0
  9 10  1  0
 11 10  1  6
 12 11  1  0
 12  7  1  0
 13 11  1  0
 14 13  2  0
 15 13  1  0
 16 15  1  0
 16 17  1  6
 17 18  1  0
 18 19  2  0
 18 22  1  0
 20 16  1  0
 21 20  2  0
 23 20  1  0
M  END
$$$$
