LSD.pdb
     RDKit          3D

 23 22  0  0  1  0  0  0  0  0999 V2000
    7.0939  -12.4078   27.7671 C   0  0  0  0  0  0  0  0  0  0  0  0
    6.8012  -12.4682   26.2781 C   0  0  2  0  0  0  0  0  0  0  0  0
    5.8939  -11.3374   25.8556 C   0  0  0  0  0  0  0  0  0  0  0  0
    6.1533  -13.7876   25.9699 C   0  0  0  0  0  0  0  0  0  0  0  0
    7.0519  -14.9627   26.2594 C   0  0  2  0  0  0  0  0  0  0  0  0
    8.3972  -14.5746   26.5656 N   0  0  0  0  0  0  0  0  0  0  0  0
    7.0848  -15.7852   25.0039 C   0  0  0  0  0  0  0  0  0  0  0  0
    6.0307  -16.0367   24.4110 O   0  0  0  0  0  0  0  0  0  0  0  0
    8.6831  -15.1729   21.7973 O   0  0  0  0  0  0  0  0  0  0  0  0
    7.8515  -16.2210   22.1578 C   0  0  0  0  0  0  0  0  0  0  0  0
    8.4912  -16.9522   23.3159 C   0  0  2  0  0  0  0  0  0  0  0  0
    8.3247  -16.2419   24.5458 N   0  0  0  0  0  0  0  0  0  0  0  0
    9.9076  -17.2984   23.0267 C   0  0  0  0  0  0  0  0  0  0  0  0
   10.2466  -17.8920   21.9943 O   0  0  0  0  0  0  0  0  0  0  0  0
   10.9006  -16.9431   23.9508 N   0  0  0  0  0  0  0  0  0  0  0  0
   12.1501  -17.7094   24.0974 C   0  0  1  0  0  0  0  0  0  0  0  0
   13.2378  -16.7071   24.2893 C   0  0  0  0  0  0  0  0  0  0  0  0
   13.5533  -15.9094   23.0973 C   0  0  0  0  0  0  0  0  0  0  0  0
   12.9281  -16.0592   22.0171 O   0  0  0  0  0  0  0  0  0  0  0  0
   11.9912  -18.6180   25.2579 C   0  0  0  0  0  0  0  0  0  0  0  0
   12.7895  -19.5680   25.4436 O   0  0  0  0  0  0  0  0  0  0  0  0
   14.5652  -14.9573   23.1390 O   0  0  0  0  0  0  0  0  0  0  0  0
   10.9666  -18.4745   26.1932 O   0  0  0  0  0  0  0  0  0  0  0  0
  2  1  1  1
  2  4  1  0
  2  3  1  0
  4  5  1  0
  5  7  1  0
  5  6  1  6
  7  8  2  0
  9 10  1  0
 11 10  1  6
 12 11  1  0
 12  7  1  0
 13 11  1  0
 14 13  2  0
 15 13  1  0
 16 15  1  0
 16 17  1  1
 17 18  1  0
 18 19  2  0
 18 22  1  0
 20 16  1  0
 21 20  2  0
 23 20  1  0
M  END
$$$$
