LSD.pdb
     RDKit          3D

 23 22  0  0  1  0  0  0  0  0999 V2000
    5.5543  -12.4273   25.2626 C   0  0  0  0  0  0  0  0  0  0  0  0
    6.3619  -12.9739   26.4268 C   0  0  2  0  0  0  0  0  0  0  0  0
    7.0602  -11.8627   27.1739 C   0  0  0  0  0  0  0  0  0  0  0  0
    7.3735  -13.9474   25.8935 C   0  0  0  0  0  0  0  0  0  0  0  0
    6.7458  -15.0799   25.1218 C   0  0  2  0  0  0  0  0  0  0  0  0
    5.9201  -15.9208   25.9374 N   0  0  0  0  0  0  0  0  0  0  0  0
    7.8811  -15.9141   24.6028 C   0  0  0  0  0  0  0  0  0  0  0  0
    8.3755  -16.7878   25.3226 O   0  0  0  0  0  0  0  0  0  0  0  0
    9.5568  -14.8158   20.9797 O   0  0  0  0  0  0  0  0  0  0  0  0
    9.4675  -16.1796   21.2084 C   0  0  0  0  0  0  0  0  0  0  0  0
    9.4100  -16.4033   22.7022 C   0  0  2  0  0  0  0  0  0  0  0  0
    8.3426  -15.6677   23.3058 N   0  0  0  0  0  0  0  0  0  0  0  0
   10.7284  -16.1538   23.3421 C   0  0  0  0  0  0  0  0  0  0  0  0
   10.9785  -15.1086   23.9572 O   0  0  0  0  0  0  0  0  0  0  0  0
   11.7288  -17.1320   23.2505 N   0  0  0  0  0  0  0  0  0  0  0  0
   13.0615  -16.9539   23.8525 C   0  0  1  0  0  0  0  0  0  0  0  0
   13.5050  -18.3061   24.2991 C   0  0  0  0  0  0  0  0  0  0  0  0
   13.1387  -18.6458   25.6801 C   0  0  0  0  0  0  0  0  0  0  0  0
   12.7858  -17.7664   26.5060 O   0  0  0  0  0  0  0  0  0  0  0  0
   13.9499  -16.3664   22.8213 C   0  0  0  0  0  0  0  0  0  0  0  0
   13.7975  -16.6461   21.6077 O   0  0  0  0  0  0  0  0  0  0  0  0
   13.1751  -19.9673   26.1097 O   0  0  0  0  0  0  0  0  0  0  0  0
   14.9864  -15.4865   23.1315 O   0  0  0  0  0  0  0  0  0  0  0  0
  2  1  1  6
  2  4  1  0
  2  3  1  0
  4  5  1  0
  5  7  1  0
  5  6  1  1
  7  8  2  0
  9 10  1  0
 11 10  1  6
 12 11  1  0
 12  7  1  0
 13 11  1  0
 14 13  2  0
 15 13  1  0
 16 15  1  0
 16 17  1  6
 17 18  1  0
 18 19  2  0
 18 22  1  0
 20 16  1  0
 21 20  2  0
 23 20  1  0
M  END
$$$$
