LSD.pdb
     RDKit          3D

 23 22  0  0  1  0  0  0  0  0999 V2000
    6.8262  -13.7424   18.7388 C   0  0  0  0  0  0  0  0  0  0  0  0
    7.8773  -13.6048   19.8263 C   0  0  2  0  0  0  0  0  0  0  0  0
    8.2108  -12.1540   20.0803 C   0  0  0  0  0  0  0  0  0  0  0  0
    9.1106  -14.3467   19.3978 C   0  0  0  0  0  0  0  0  0  0  0  0
    9.2359  -15.7000   20.0498 C   0  0  2  0  0  0  0  0  0  0  0  0
    7.9855  -16.3949   20.1381 N   0  0  0  0  0  0  0  0  0  0  0  0
    9.7224  -15.4488   21.4478 C   0  0  0  0  0  0  0  0  0  0  0  0
   10.8086  -14.8877   21.6246 O   0  0  0  0  0  0  0  0  0  0  0  0
    7.2852  -16.6589   24.6387 O   0  0  0  0  0  0  0  0  0  0  0  0
    8.2354  -15.6709   24.8415 C   0  0  0  0  0  0  0  0  0  0  0  0
    9.3689  -15.9016   23.8684 C   0  0  2  0  0  0  0  0  0  0  0  0
    8.9165  -15.8649   22.5123 N   0  0  0  0  0  0  0  0  0  0  0  0
   10.1289  -17.1356   24.1990 C   0  0  0  0  0  0  0  0  0  0  0  0
    9.9352  -18.2093   23.6135 O   0  0  0  0  0  0  0  0  0  0  0  0
   11.1015  -17.0897   25.2080 N   0  0  0  0  0  0  0  0  0  0  0  0
   11.8794  -18.2756   25.6062 C   0  0  1  0  0  0  0  0  0  0  0  0
   13.3163  -17.9077   25.4497 C   0  0  0  0  0  0  0  0  0  0  0  0
   14.2569  -19.0211   25.6297 C   0  0  0  0  0  0  0  0  0  0  0  0
   13.9000  -20.2179   25.4867 O   0  0  0  0  0  0  0  0  0  0  0  0
   11.5174  -18.6065   27.0052 C   0  0  0  0  0  0  0  0  0  0  0  0
   11.1140  -17.7161   27.7917 O   0  0  0  0  0  0  0  0  0  0  0  0
   15.5819  -18.7713   25.9673 O   0  0  0  0  0  0  0  0  0  0  0  0
   11.6018  -19.8998   27.5202 O   0  0  0  0  0  0  0  0  0  0  0  0
  2  1  1  6
  2  4  1  0
  2  3  1  0
  4  5  1  0
  5  7  1  0
  5  6  1  1
  7  8  2  0
  9 10  1  0
 11 10  1  1
 12 11  1  0
 12  7  1  0
 13 11  1  0
 14 13  2  0
 15 13  1  0
 16 15  1  0
 16 17  1  1
 17 18  1  0
 18 19  2  0
 18 22  1  0
 20 16  1  0
 21 20  2  0
 23 20  1  0
M  END
$$$$
