LSD.pdb
     RDKit          3D

 23 22  0  0  1  0  0  0  0  0999 V2000
    8.2803  -13.5615   17.8927 C   0  0  0  0  0  0  0  0  0  0  0  0
    7.4827  -13.4529   19.1805 C   0  0  2  0  0  0  0  0  0  0  0  0
    6.7428  -12.1384   19.2531 C   0  0  0  0  0  0  0  0  0  0  0  0
    8.4278  -13.5737   20.3415 C   0  0  0  0  0  0  0  0  0  0  0  0
    9.2184  -14.8569   20.3215 C   0  0  2  0  0  0  0  0  0  0  0  0
    8.3900  -16.0213   20.2117 N   0  0  0  0  0  0  0  0  0  0  0  0
    9.9383  -14.9268   21.6371 C   0  0  0  0  0  0  0  0  0  0  0  0
   10.5946  -13.9553   22.0263 O   0  0  0  0  0  0  0  0  0  0  0  0
    8.9839  -17.9798   24.1910 O   0  0  0  0  0  0  0  0  0  0  0  0
    9.6166  -16.8523   24.6899 C   0  0  0  0  0  0  0  0  0  0  0  0
   10.5329  -16.3131   23.6154 C   0  0  2  0  0  0  0  0  0  0  0  0
    9.8373  -16.1052   22.3834 N   0  0  0  0  0  0  0  0  0  0  0  0
   11.7509  -17.1521   23.4659 C   0  0  0  0  0  0  0  0  0  0  0  0
   11.7731  -18.1663   22.7560 O   0  0  0  0  0  0  0  0  0  0  0  0
   12.9198  -16.7881   24.1494 N   0  0  0  0  0  0  0  0  0  0  0  0
   14.1512  -17.5943   24.0877 C   0  0  1  0  0  0  0  0  0  0  0  0
   15.2750  -16.6315   23.9012 C   0  0  0  0  0  0  0  0  0  0  0  0
   15.2882  -15.9498   22.6005 C   0  0  0  0  0  0  0  0  0  0  0  0
   14.9170  -16.5273   21.5475 O   0  0  0  0  0  0  0  0  0  0  0  0
   14.2536  -18.3630   25.3512 C   0  0  0  0  0  0  0  0  0  0  0  0
   13.4821  -18.1252   26.3117 O   0  0  0  0  0  0  0  0  0  0  0  0
   15.7180  -14.6314   22.5048 O   0  0  0  0  0  0  0  0  0  0  0  0
   15.1936  -19.3750   25.5440 O   0  0  0  0  0  0  0  0  0  0  0  0
  2  1  1  6
  2  4  1  0
  2  3  1  0
  4  5  1  0
  5  7  1  0
  5  6  1  1
  7  8  2  0
  9 10  1  0
 11 10  1  1
 12 11  1  0
 12  7  1  0
 13 11  1  0
 14 13  2  0
 15 13  1  0
 16 15  1  0
 16 17  1  1
 17 18  1  0
 18 19  2  0
 18 22  1  0
 20 16  1  0
 21 20  2  0
 23 20  1  0
M  END
$$$$
