LSD.pdb
     RDKit          3D

 23 22  0  0  1  0  0  0  0  0999 V2000
    6.1050  -12.3363   25.5940 C   0  0  0  0  0  0  0  0  0  0  0  0
    6.7070  -13.1774   26.7061 C   0  0  2  0  0  0  0  0  0  0  0  0
    7.4684  -12.3179   27.6870 C   0  0  0  0  0  0  0  0  0  0  0  0
    7.6271  -14.1941   26.0938 C   0  0  0  0  0  0  0  0  0  0  0  0
    6.9092  -15.1648   25.1912 C   0  0  2  0  0  0  0  0  0  0  0  0
    5.9640  -15.9836   25.8914 N   0  0  0  0  0  0  0  0  0  0  0  0
    7.9650  -16.0666   24.6203 C   0  0  0  0  0  0  0  0  0  0  0  0
    8.3572  -17.0381   25.2748 O   0  0  0  0  0  0  0  0  0  0  0  0
    9.9585  -14.9293   21.0650 O   0  0  0  0  0  0  0  0  0  0  0  0
    9.5898  -16.2531   21.2434 C   0  0  0  0  0  0  0  0  0  0  0  0
    9.5145  -16.5244   22.7285 C   0  0  2  0  0  0  0  0  0  0  0  0
    8.4719  -15.7693   23.3512 N   0  0  0  0  0  0  0  0  0  0  0  0
   10.8373  -16.3467   23.3831 C   0  0  0  0  0  0  0  0  0  0  0  0
   11.1306  -15.3238   24.0161 O   0  0  0  0  0  0  0  0  0  0  0  0
   11.7914  -17.3694   23.2849 N   0  0  0  0  0  0  0  0  0  0  0  0
   13.1412  -17.2449   23.8617 C   0  0  1  0  0  0  0  0  0  0  0  0
   13.4293  -18.5412   24.5410 C   0  0  0  0  0  0  0  0  0  0  0  0
   14.3552  -18.4452   25.6768 C   0  0  0  0  0  0  0  0  0  0  0  0
   14.9225  -17.3646   25.9779 O   0  0  0  0  0  0  0  0  0  0  0  0
   14.0822  -16.9521   22.7543 C   0  0  0  0  0  0  0  0  0  0  0  0
   15.2814  -16.6671   22.9892 O   0  0  0  0  0  0  0  0  0  0  0  0
   14.6281  -19.5642   26.4548 O   0  0  0  0  0  0  0  0  0  0  0  0
   13.6994  -16.9752   21.4135 O   0  0  0  0  0  0  0  0  0  0  0  0
  2  1  1  6
  2  4  1  0
  2  3  1  0
  4  5  1  0
  5  7  1  0
  5  6  1  1
  7  8  2  0
  9 10  1  0
 11 10  1  6
 12 11  1  0
 12  7  1  0
 13 11  1  0
 14 13  2  0
 15 13  1  0
 16 15  1  0
 16 17  1  6
 17 18  1  0
 18 19  2  0
 18 22  1  0
 20 16  1  0
 21 20  2  0
 23 20  1  0
M  END
$$$$
