LSD.pdb
     RDKit          3D

 23 22  0  0  1  0  0  0  0  0999 V2000
    6.9335  -11.2456   25.6295 C   0  0  0  0  0  0  0  0  0  0  0  0
    6.1372  -12.5263   25.8085 C   0  0  2  0  0  0  0  0  0  0  0  0
    5.3861  -12.5215   27.1186 C   0  0  0  0  0  0  0  0  0  0  0  0
    7.0852  -13.6903   25.7655 C   0  0  0  0  0  0  0  0  0  0  0  0
    6.5046  -14.8926   25.0658 C   0  0  2  0  0  0  0  0  0  0  0  0
    5.7116  -15.7138   25.9324 N   0  0  0  0  0  0  0  0  0  0  0  0
    7.6731  -15.7112   24.5986 C   0  0  0  0  0  0  0  0  0  0  0  0
    8.2265  -16.4886   25.3831 O   0  0  0  0  0  0  0  0  0  0  0  0
    9.6961  -14.8692   20.9352 O   0  0  0  0  0  0  0  0  0  0  0  0
    9.2378  -16.1488   21.2054 C   0  0  0  0  0  0  0  0  0  0  0  0
    9.1701  -16.3169   22.7061 C   0  0  2  0  0  0  0  0  0  0  0  0
    8.0973  -15.5612   23.2744 N   0  0  0  0  0  0  0  0  0  0  0  0
   10.4834  -16.0414   23.3455 C   0  0  0  0  0  0  0  0  0  0  0  0
   10.7372  -14.9632   23.8988 O   0  0  0  0  0  0  0  0  0  0  0  0
   11.4747  -17.0329   23.3258 N   0  0  0  0  0  0  0  0  0  0  0  0
   12.8063  -16.8269   23.9213 C   0  0  1  0  0  0  0  0  0  0  0  0
   13.0170  -17.9510   24.8787 C   0  0  0  0  0  0  0  0  0  0  0  0
   14.2964  -17.9110   25.5986 C   0  0  0  0  0  0  0  0  0  0  0  0
   15.1219  -16.9783   25.4285 O   0  0  0  0  0  0  0  0  0  0  0  0
   13.7984  -16.8132   22.8199 C   0  0  0  0  0  0  0  0  0  0  0  0
   13.6791  -17.5862   21.8388 O   0  0  0  0  0  0  0  0  0  0  0  0
   14.6267  -18.9188   26.4970 O   0  0  0  0  0  0  0  0  0  0  0  0
   14.9004  -15.9586   22.8082 O   0  0  0  0  0  0  0  0  0  0  0  0
  2  1  1  1
  2  4  1  0
  2  3  1  0
  4  5  1  0
  5  7  1  0
  5  6  1  1
  7  8  2  0
  9 10  1  0
 11 10  1  6
 12 11  1  0
 12  7  1  0
 13 11  1  0
 14 13  2  0
 15 13  1  0
 16 15  1  0
 16 17  1  1
 17 18  1  0
 18 19  2  0
 18 22  1  0
 20 16  1  0
 21 20  2  0
 23 20  1  0
M  END
$$$$
