KQL.pdb
     RDKit          3D

 27 26  0  0  1  0  0  0  0  0999 V2000
    5.8538  -18.0113   20.2270 N   0  0  0  0  0  0  0  0  0  0  0  0
    6.7050  -17.1581   21.0094 C   0  0  1  0  0  0  0  0  0  0  0  0
    6.7862  -15.7420   20.5343 C   0  0  0  0  0  0  0  0  0  0  0  0
    7.5187  -15.5194   19.2692 C   0  0  0  0  0  0  0  0  0  0  0  0
    7.5790  -14.1253   18.7571 C   0  0  0  0  0  0  0  0  0  0  0  0
    8.2086  -13.9922   17.4085 C   0  0  0  0  0  0  0  0  0  0  0  0
    8.3322  -12.6337   16.9643 N   0  0  0  0  0  0  0  0  0  0  0  0
    6.2599  -17.2238   22.4473 C   0  0  0  0  0  0  0  0  0  0  0  0
    5.0061  -17.2446   22.6927 O   0  0  0  0  0  0  0  0  0  0  0  0
    7.1143  -20.9113   26.6642 N   0  0  0  0  0  0  0  0  0  0  0  0
    8.3289  -20.3904   26.2057 C   0  0  0  0  0  0  0  0  0  0  0  0
    9.4411  -20.9390   26.3513 O   0  0  0  0  0  0  0  0  0  0  0  0
    8.2856  -19.0685   25.4828 C   0  0  0  0  0  0  0  0  0  0  0  0
    6.8944  -18.5288   25.5034 C   0  0  0  0  0  0  0  0  0  0  0  0
    6.8438  -17.1474   24.8974 C   0  0  2  0  0  0  0  0  0  0  0  0
    7.2215  -17.2594   23.4699 N   0  0  0  0  0  0  0  0  0  0  0  0
    7.7714  -16.1812   25.4810 C   0  0  0  0  0  0  0  0  0  0  0  0
    8.9823  -16.1510   25.0639 O   0  0  0  0  0  0  0  0  0  0  0  0
    6.1804  -11.4257   27.1006 C   0  0  0  0  0  0  0  0  0  0  0  0
    7.5265  -12.0474   26.6590 C   0  0  2  0  0  0  0  0  0  0  0  0
    7.3488  -12.5341   25.2327 C   0  0  0  0  0  0  0  0  0  0  0  0
    7.7696  -13.1849   27.5751 C   0  0  0  0  0  0  0  0  0  0  0  0
    8.4779  -14.3635   27.0186 C   0  0  2  0  0  0  0  0  0  0  0  0
    7.4315  -15.2617   26.4777 N   0  0  0  0  0  0  0  0  0  0  0  0
    9.3315  -15.1379   27.9048 C   0  0  0  0  0  0  0  0  0  0  0  0
   10.3915  -14.6734   28.3965 O   0  0  0  0  0  0  0  0  0  0  0  0
    9.0198  -16.4427   28.2625 O   0  0  0  0  0  0  0  0  0  0  0  0
  2  8  1  0
  2  1  1  6
  3  2  1  0
  4  3  1  0
  5  4  1  0
  6  5  1  0
  7  6  1  0
  8  9  2  0
 10 11  1  0
 11 13  1  0
 11 12  2  0
 13 14  1  0
 15 14  1  1
 16 15  1  0
 16  8  1  0
 17 15  1  0
 18 17  2  0
 20 19  1  1
 20 22  1  0
 21 20  1  0
 23 22  1  1
 23 25  1  0
 23 24  1  0
 24 17  1  0
 25 27  1  0
 26 25  2  0
M  END
$$$$
