KQL.pdb
     RDKit          3D

 27 26  0  0  1  0  0  0  0  0999 V2000
    6.6804  -18.3137   19.5297 N   0  0  0  0  0  0  0  0  0  0  0  0
    7.2623  -17.2580   20.3118 C   0  0  1  0  0  0  0  0  0  0  0  0
    7.1517  -15.8931   19.7097 C   0  0  0  0  0  0  0  0  0  0  0  0
    7.8178  -15.7004   18.4037 C   0  0  0  0  0  0  0  0  0  0  0  0
    7.6698  -14.3703   17.7569 C   0  0  0  0  0  0  0  0  0  0  0  0
    8.2790  -14.2771   16.3956 C   0  0  0  0  0  0  0  0  0  0  0  0
    8.1308  -12.9862   15.7877 N   0  0  0  0  0  0  0  0  0  0  0  0
    6.6580  -17.2934   21.6915 C   0  0  0  0  0  0  0  0  0  0  0  0
    5.4691  -17.7434   21.8205 O   0  0  0  0  0  0  0  0  0  0  0  0
    6.0775  -20.7828   25.1569 N   0  0  0  0  0  0  0  0  0  0  0  0
    7.3328  -20.5579   24.5819 C   0  0  0  0  0  0  0  0  0  0  0  0
    8.1865  -21.4425   24.3636 O   0  0  0  0  0  0  0  0  0  0  0  0
    7.6744  -19.1406   24.1994 C   0  0  0  0  0  0  0  0  0  0  0  0
    6.5464  -18.2346   24.5654 C   0  0  0  0  0  0  0  0  0  0  0  0
    6.8444  -16.8122   24.1580 C   0  0  2  0  0  0  0  0  0  0  0  0
    7.4064  -16.8363   22.7882 N   0  0  0  0  0  0  0  0  0  0  0  0
    7.8355  -16.1265   24.9840 C   0  0  0  0  0  0  0  0  0  0  0  0
    9.0778  -16.2516   24.6975 O   0  0  0  0  0  0  0  0  0  0  0  0
    7.6772  -12.0641   25.0501 C   0  0  0  0  0  0  0  0  0  0  0  0
    6.9010  -12.6406   26.2580 C   0  0  2  0  0  0  0  0  0  0  0  0
    6.2051  -11.4771   26.9400 C   0  0  0  0  0  0  0  0  0  0  0  0
    7.9208  -13.2378   27.1499 C   0  0  0  0  0  0  0  0  0  0  0  0
    8.5875  -14.4776   26.6819 C   0  0  2  0  0  0  0  0  0  0  0  0
    7.5266  -15.3212   26.0842 N   0  0  0  0  0  0  0  0  0  0  0  0
    9.3157  -15.2785   27.6525 C   0  0  0  0  0  0  0  0  0  0  0  0
   10.2908  -14.8261   28.3048 O   0  0  0  0  0  0  0  0  0  0  0  0
    8.9703  -16.5969   27.9171 O   0  0  0  0  0  0  0  0  0  0  0  0
  2  8  1  0
  2  1  1  6
  3  2  1  0
  4  3  1  0
  5  4  1  0
  6  5  1  0
  7  6  1  0
  8  9  2  0
 10 11  1  0
 11 13  1  0
 11 12  2  0
 13 14  1  0
 15 14  1  1
 16 15  1  0
 16  8  1  0
 17 15  1  0
 18 17  2  0
 20 19  1  6
 20 22  1  0
 21 20  1  0
 23 22  1  1
 23 25  1  0
 23 24  1  0
 24 17  1  0
 25 27  1  0
 26 25  2  0
M  END
$$$$
