KQL.pdb
     RDKit          3D

 27 26  0  0  1  0  0  0  0  0999 V2000
    6.5741  -18.4716   21.9227 N   0  0  0  0  0  0  0  0  0  0  0  0
    7.8998  -18.9037   21.5757 C   0  0  1  0  0  0  0  0  0  0  0  0
    8.0156  -19.5755   20.2442 C   0  0  0  0  0  0  0  0  0  0  0  0
    7.1577  -20.7617   20.0354 C   0  0  0  0  0  0  0  0  0  0  0  0
    7.3070  -21.4879   18.7471 C   0  0  0  0  0  0  0  0  0  0  0  0
    6.3803  -22.6489   18.5846 C   0  0  0  0  0  0  0  0  0  0  0  0
    6.6104  -23.4035   17.3864 N   0  0  0  0  0  0  0  0  0  0  0  0
    8.8301  -17.7223   21.6705 C   0  0  0  0  0  0  0  0  0  0  0  0
   10.0523  -17.8856   21.3353 O   0  0  0  0  0  0  0  0  0  0  0  0
    8.1845  -12.0301   19.1459 N   0  0  0  0  0  0  0  0  0  0  0  0
    8.0830  -13.4189   19.0138 C   0  0  0  0  0  0  0  0  0  0  0  0
    7.3079  -14.0066   18.2308 O   0  0  0  0  0  0  0  0  0  0  0  0
    8.9784  -14.2637   19.8834 C   0  0  0  0  0  0  0  0  0  0  0  0
    8.4979  -14.2173   21.2956 C   0  0  0  0  0  0  0  0  0  0  0  0
    9.1829  -15.2703   22.1322 C   0  0  2  0  0  0  0  0  0  0  0  0
    8.3379  -16.4864   22.1198 N   0  0  0  0  0  0  0  0  0  0  0  0
    9.3612  -14.9229   23.5401 C   0  0  0  0  0  0  0  0  0  0  0  0
   10.3194  -14.1397   23.8711 O   0  0  0  0  0  0  0  0  0  0  0  0
    8.6000  -11.9728   25.9340 C   0  0  0  0  0  0  0  0  0  0  0  0
    7.4494  -12.9773   25.6872 C   0  0  2  0  0  0  0  0  0  0  0  0
    6.1750  -12.3341   26.2021 C   0  0  0  0  0  0  0  0  0  0  0  0
    7.7851  -14.1832   26.4778 C   0  0  0  0  0  0  0  0  0  0  0  0
    8.8897  -15.0366   25.9757 C   0  0  2  0  0  0  0  0  0  0  0  0
    8.5455  -15.3841   24.5775 N   0  0  0  0  0  0  0  0  0  0  0  0
    9.1924  -16.2657   26.6909 C   0  0  0  0  0  0  0  0  0  0  0  0
    9.1106  -17.3982   26.1506 O   0  0  0  0  0  0  0  0  0  0  0  0
    9.5944  -16.2570   28.0197 O   0  0  0  0  0  0  0  0  0  0  0  0
  2  8  1  0
  2  1  1  6
  3  2  1  0
  4  3  1  0
  5  4  1  0
  6  5  1  0
  7  6  1  0
  8  9  2  0
 10 11  1  0
 11 13  1  0
 11 12  2  0
 13 14  1  0
 15 14  1  6
 16 15  1  0
 16  8  1  0
 17 15  1  0
 18 17  2  0
 20 19  1  1
 20 22  1  0
 21 20  1  0
 23 22  1  1
 23 25  1  0
 23 24  1  0
 24 17  1  0
 25 27  1  0
 26 25  2  0
M  END
$$$$
