KQL.pdb
     RDKit          3D

 27 26  0  0  1  0  0  0  0  0999 V2000
    6.9592  -18.4867   19.6860 N   0  0  0  0  0  0  0  0  0  0  0  0
    6.8746  -17.6003   20.8137 C   0  0  1  0  0  0  0  0  0  0  0  0
    5.8584  -17.9840   21.8422 C   0  0  0  0  0  0  0  0  0  0  0  0
    4.6459  -18.6646   21.3389 C   0  0  0  0  0  0  0  0  0  0  0  0
    3.6262  -19.0638   22.3440 C   0  0  0  0  0  0  0  0  0  0  0  0
    2.4280  -19.7453   21.7671 C   0  0  0  0  0  0  0  0  0  0  0  0
    1.4224  -20.0598   22.7407 N   0  0  0  0  0  0  0  0  0  0  0  0
    8.2449  -17.4705   21.4263 C   0  0  0  0  0  0  0  0  0  0  0  0
    9.0000  -18.5012   21.4451 O   0  0  0  0  0  0  0  0  0  0  0  0
   12.8647  -13.7503   20.8455 N   0  0  0  0  0  0  0  0  0  0  0  0
   12.2217  -14.5844   19.9249 C   0  0  0  0  0  0  0  0  0  0  0  0
   12.6134  -14.7957   18.7583 O   0  0  0  0  0  0  0  0  0  0  0  0
   10.9631  -15.2771   20.3808 C   0  0  0  0  0  0  0  0  0  0  0  0
   10.6652  -14.9013   21.7941 C   0  0  0  0  0  0  0  0  0  0  0  0
   10.0062  -16.0438   22.5276 C   0  0  2  0  0  0  0  0  0  0  0  0
    8.6537  -16.2358   21.9558 N   0  0  0  0  0  0  0  0  0  0  0  0
    9.8072  -15.8279   23.9588 C   0  0  0  0  0  0  0  0  0  0  0  0
   10.8197  -15.5501   24.6928 O   0  0  0  0  0  0  0  0  0  0  0  0
    8.7697  -12.7793   26.6763 C   0  0  0  0  0  0  0  0  0  0  0  0
    7.6497  -13.4460   25.8429 C   0  0  2  0  0  0  0  0  0  0  0  0
    6.3926  -12.6188   26.0388 C   0  0  0  0  0  0  0  0  0  0  0  0
    7.4769  -14.8045   26.4059 C   0  0  0  0  0  0  0  0  0  0  0  0
    8.5186  -15.8096   26.0817 C   0  0  2  0  0  0  0  0  0  0  0  0
    8.5687  -15.8962   24.6038 N   0  0  0  0  0  0  0  0  0  0  0  0
    8.3696  -17.1545   26.6136 C   0  0  0  0  0  0  0  0  0  0  0  0
    8.2089  -17.3810   27.8399 O   0  0  0  0  0  0  0  0  0  0  0  0
    8.3940  -18.2720   25.7901 O   0  0  0  0  0  0  0  0  0  0  0  0
  2  8  1  0
  2  1  1  6
  3  2  1  0
  4  3  1  0
  5  4  1  0
  6  5  1  0
  7  6  1  0
  8  9  2  0
 10 11  1  0
 11 13  1  0
 11 12  2  0
 13 14  1  0
 15 14  1  6
 16 15  1  0
 16  8  1  0
 17 15  1  0
 18 17  2  0
 20 19  1  1
 20 22  1  0
 21 20  1  0
 23 22  1  6
 23 25  1  0
 23 24  1  0
 24 17  1  0
 25 27  1  0
 26 25  2  0
M  END
$$$$
