KQL.pdb
     RDKit          3D

 27 26  0  0  1  0  0  0  0  0999 V2000
    5.2574  -18.1847   23.4707 N   0  0  0  0  0  0  0  0  0  0  0  0
    6.3253  -18.8633   22.7897 C   0  0  1  0  0  0  0  0  0  0  0  0
    5.9142  -19.6129   21.5621 C   0  0  0  0  0  0  0  0  0  0  0  0
    4.4592  -19.7716   21.3515 C   0  0  0  0  0  0  0  0  0  0  0  0
    4.0274  -20.5361   20.1521 C   0  0  0  0  0  0  0  0  0  0  0  0
    2.5511  -20.5349   19.9207 C   0  0  0  0  0  0  0  0  0  0  0  0
    2.1651  -21.1303   18.6739 N   0  0  0  0  0  0  0  0  0  0  0  0
    7.4083  -17.8633   22.4781 C   0  0  0  0  0  0  0  0  0  0  0  0
    8.5770  -18.3017   22.2049 O   0  0  0  0  0  0  0  0  0  0  0  0
    7.3909  -13.6405   18.7906 N   0  0  0  0  0  0  0  0  0  0  0  0
    8.2969  -12.9242   19.5798 C   0  0  0  0  0  0  0  0  0  0  0  0
    9.0629  -12.0334   19.1570 O   0  0  0  0  0  0  0  0  0  0  0  0
    8.3476  -13.2567   21.0490 C   0  0  0  0  0  0  0  0  0  0  0  0
    7.4179  -14.3869   21.3419 C   0  0  0  0  0  0  0  0  0  0  0  0
    8.1184  -15.4717   22.1230 C   0  0  2  0  0  0  0  0  0  0  0  0
    7.1109  -16.4911   22.4957 N   0  0  0  0  0  0  0  0  0  0  0  0
    8.7280  -15.0360   23.3773 C   0  0  0  0  0  0  0  0  0  0  0  0
    9.7272  -14.2353   23.3383 O   0  0  0  0  0  0  0  0  0  0  0  0
    7.7915  -11.9244   25.2176 C   0  0  0  0  0  0  0  0  0  0  0  0
    7.0918  -13.2451   25.6178 C   0  0  2  0  0  0  0  0  0  0  0  0
    5.8346  -12.8725   26.3815 C   0  0  0  0  0  0  0  0  0  0  0  0
    8.0456  -13.9615   26.4948 C   0  0  0  0  0  0  0  0  0  0  0  0
    8.9885  -14.9035   25.8435 C   0  0  2  0  0  0  0  0  0  0  0  0
    8.2923  -15.4290   24.6462 N   0  0  0  0  0  0  0  0  0  0  0  0
    9.4822  -16.0313   26.6169 C   0  0  0  0  0  0  0  0  0  0  0  0
   10.0773  -15.8873   27.7152 O   0  0  0  0  0  0  0  0  0  0  0  0
    9.3202  -17.3403   26.1836 O   0  0  0  0  0  0  0  0  0  0  0  0
  2  8  1  0
  2  1  1  6
  3  2  1  0
  4  3  1  0
  5  4  1  0
  6  5  1  0
  7  6  1  0
  8  9  2  0
 10 11  1  0
 11 13  1  0
 11 12  2  0
 13 14  1  0
 15 14  1  1
 16 15  1  0
 16  8  1  0
 17 15  1  0
 18 17  2  0
 20 19  1  1
 20 22  1  0
 21 20  1  0
 23 22  1  1
 23 25  1  0
 23 24  1  0
 24 17  1  0
 25 27  1  0
 26 25  2  0
M  END
$$$$
