KQL.pdb
     RDKit          3D

 27 26  0  0  1  0  0  0  0  0999 V2000
    6.1890  -16.7992   19.9895 N   0  0  0  0  0  0  0  0  0  0  0  0
    7.1969  -15.9397   20.5464 C   0  0  1  0  0  0  0  0  0  0  0  0
    6.8619  -14.4819   20.5293 C   0  0  0  0  0  0  0  0  0  0  0  0
    7.2806  -13.7305   19.3265 C   0  0  0  0  0  0  0  0  0  0  0  0
    8.7338  -13.4617   19.1670 C   0  0  0  0  0  0  0  0  0  0  0  0
    9.0874  -12.7095   17.9251 C   0  0  0  0  0  0  0  0  0  0  0  0
   10.4904  -12.4383   17.7983 N   0  0  0  0  0  0  0  0  0  0  0  0
    7.5094  -16.4087   21.9437 C   0  0  0  0  0  0  0  0  0  0  0  0
    6.5382  -16.5803   22.7562 O   0  0  0  0  0  0  0  0  0  0  0  0
   12.8165  -19.1715   23.5193 N   0  0  0  0  0  0  0  0  0  0  0  0
   12.3070  -18.9835   24.8084 C   0  0  0  0  0  0  0  0  0  0  0  0
   12.8546  -19.3821   25.8574 O   0  0  0  0  0  0  0  0  0  0  0  0
   10.9997  -18.2441   24.9343 C   0  0  0  0  0  0  0  0  0  0  0  0
   10.4962  -17.8771   23.5782 C   0  0  0  0  0  0  0  0  0  0  0  0
    9.2032  -17.1047   23.6747 C   0  0  2  0  0  0  0  0  0  0  0  0
    8.8434  -16.6422   22.3147 N   0  0  0  0  0  0  0  0  0  0  0  0
    9.2607  -15.9024   24.5029 C   0  0  0  0  0  0  0  0  0  0  0  0
    9.8852  -14.8738   24.0637 O   0  0  0  0  0  0  0  0  0  0  0  0
    5.7515  -12.3106   27.1738 C   0  0  0  0  0  0  0  0  0  0  0  0
    7.2733  -12.5892   27.1721 C   0  0  2  0  0  0  0  0  0  0  0  0
    7.9400  -11.4315   26.4523 C   0  0  0  0  0  0  0  0  0  0  0  0
    7.4555  -13.8505   26.4184 C   0  0  0  0  0  0  0  0  0  0  0  0
    8.7866  -14.5005   26.4972 C   0  0  2  0  0  0  0  0  0  0  0  0
    8.6688  -15.7821   25.7636 N   0  0  0  0  0  0  0  0  0  0  0  0
    9.3438  -14.7758   27.8115 C   0  0  0  0  0  0  0  0  0  0  0  0
    9.2595  -15.9057   28.3568 O   0  0  0  0  0  0  0  0  0  0  0  0
   10.0075  -13.7995   28.5422 O   0  0  0  0  0  0  0  0  0  0  0  0
  2  8  1  0
  2  1  1  1
  3  2  1  0
  4  3  1  0
  5  4  1  0
  6  5  1  0
  7  6  1  0
  8  9  2  0
 10 11  1  0
 11 13  1  0
 11 12  2  0
 13 14  1  0
 15 14  1  6
 16 15  1  0
 16  8  1  0
 17 15  1  0
 18 17  2  0
 20 19  1  6
 20 22  1  0
 21 20  1  0
 23 22  1  1
 23 25  1  0
 23 24  1  0
 24 17  1  0
 25 27  1  0
 26 25  2  0
M  END
$$$$
