KQL.pdb
     RDKit          3D

 27 26  0  0  1  0  0  0  0  0999 V2000
    5.7968  -17.2937   20.1386 N   0  0  0  0  0  0  0  0  0  0  0  0
    6.5284  -16.3402   20.9261 C   0  0  1  0  0  0  0  0  0  0  0  0
    6.2569  -14.9073   20.5934 C   0  0  0  0  0  0  0  0  0  0  0  0
    6.9280  -14.3795   19.3861 C   0  0  0  0  0  0  0  0  0  0  0  0
    8.3658  -14.0236   19.5107 C   0  0  0  0  0  0  0  0  0  0  0  0
    8.9528  -13.3982   18.2870 C   0  0  0  0  0  0  0  0  0  0  0  0
   10.2903  -12.9147   18.4749 N   0  0  0  0  0  0  0  0  0  0  0  0
    6.2657  -16.6185   22.3833 C   0  0  0  0  0  0  0  0  0  0  0  0
    5.0652  -16.5248   22.8109 O   0  0  0  0  0  0  0  0  0  0  0  0
    8.0742  -21.0249   25.8126 N   0  0  0  0  0  0  0  0  0  0  0  0
    7.8679  -20.1433   26.8789 C   0  0  0  0  0  0  0  0  0  0  0  0
    7.9587  -20.4498   28.0860 O   0  0  0  0  0  0  0  0  0  0  0  0
    7.5100  -18.7191   26.5396 C   0  0  0  0  0  0  0  0  0  0  0  0
    7.5124  -18.5387   25.0581 C   0  0  0  0  0  0  0  0  0  0  0  0
    7.1530  -17.1204   24.6878 C   0  0  2  0  0  0  0  0  0  0  0  0
    7.3330  -16.9692   23.2257 N   0  0  0  0  0  0  0  0  0  0  0  0
    7.9877  -16.0901   25.3013 C   0  0  0  0  0  0  0  0  0  0  0  0
    9.1848  -15.9245   24.8762 O   0  0  0  0  0  0  0  0  0  0  0  0
    7.5512  -11.8559   25.3503 C   0  0  0  0  0  0  0  0  0  0  0  0
    6.7330  -12.5533   26.4629 C   0  0  2  0  0  0  0  0  0  0  0  0
    5.9070  -11.4818   27.1502 C   0  0  0  0  0  0  0  0  0  0  0  0
    7.7258  -13.1306   27.3974 C   0  0  0  0  0  0  0  0  0  0  0  0
    8.5316  -14.2756   26.9073 C   0  0  2  0  0  0  0  0  0  0  0  0
    7.5706  -15.2473   26.3357 N   0  0  0  0  0  0  0  0  0  0  0  0
    9.3818  -14.9774   27.8551 C   0  0  0  0  0  0  0  0  0  0  0  0
    9.1080  -16.1272   28.2842 O   0  0  0  0  0  0  0  0  0  0  0  0
   10.5540  -14.4138   28.3408 O   0  0  0  0  0  0  0  0  0  0  0  0
  2  8  1  0
  2  1  1  6
  3  2  1  0
  4  3  1  0
  5  4  1  0
  6  5  1  0
  7  6  1  0
  8  9  2  0
 10 11  1  0
 11 13  1  0
 11 12  2  0
 13 14  1  0
 15 14  1  1
 16 15  1  0
 16  8  1  0
 17 15  1  0
 18 17  2  0
 20 19  1  6
 20 22  1  0
 21 20  1  0
 23 22  1  1
 23 25  1  0
 23 24  1  0
 24 17  1  0
 25 27  1  0
 26 25  2  0
M  END
$$$$
