KQL.pdb
     RDKit          3D

 27 26  0  0  1  0  0  0  0  0999 V2000
    6.6672  -16.4086   19.9132 N   0  0  0  0  0  0  0  0  0  0  0  0
    7.6364  -15.5596   20.5492 C   0  0  1  0  0  0  0  0  0  0  0  0
    7.3047  -14.1010   20.5316 C   0  0  0  0  0  0  0  0  0  0  0  0
    7.9569  -13.2965   19.4761 C   0  0  0  0  0  0  0  0  0  0  0  0
    7.8297  -13.7828   18.0772 C   0  0  0  0  0  0  0  0  0  0  0  0
    8.5547  -12.9517   17.0689 C   0  0  0  0  0  0  0  0  0  0  0  0
    8.5521  -13.5171   15.7505 N   0  0  0  0  0  0  0  0  0  0  0  0
    7.8541  -16.0500   21.9570 C   0  0  0  0  0  0  0  0  0  0  0  0
    6.8328  -16.3965   22.6423 O   0  0  0  0  0  0  0  0  0  0  0  0
   12.7327  -19.2947   23.3453 N   0  0  0  0  0  0  0  0  0  0  0  0
   12.1647  -19.2867   24.6236 C   0  0  0  0  0  0  0  0  0  0  0  0
   12.5696  -19.9676   25.5887 O   0  0  0  0  0  0  0  0  0  0  0  0
   10.9759  -18.3874   24.8465 C   0  0  0  0  0  0  0  0  0  0  0  0
   10.6477  -17.6643   23.5829 C   0  0  0  0  0  0  0  0  0  0  0  0
    9.4486  -16.7674   23.7717 C   0  0  2  0  0  0  0  0  0  0  0  0
    9.1575  -16.1129   22.4756 N   0  0  0  0  0  0  0  0  0  0  0  0
    9.6318  -15.6833   24.7339 C   0  0  0  0  0  0  0  0  0  0  0  0
   10.5264  -14.7948   24.5071 O   0  0  0  0  0  0  0  0  0  0  0  0
    7.8272  -12.0363   25.7708 C   0  0  0  0  0  0  0  0  0  0  0  0
    7.1144  -13.2981   26.3125 C   0  0  2  0  0  0  0  0  0  0  0  0
    5.8042  -12.8429   26.9282 C   0  0  0  0  0  0  0  0  0  0  0  0
    8.0125  -13.8608   27.3464 C   0  0  0  0  0  0  0  0  0  0  0  0
    9.2743  -14.4859   26.8801 C   0  0  2  0  0  0  0  0  0  0  0  0
    8.8860  -15.5329   25.9067 N   0  0  0  0  0  0  0  0  0  0  0  0
   10.1545  -15.0858   27.8697 C   0  0  0  0  0  0  0  0  0  0  0  0
   10.2793  -16.3307   27.9951 O   0  0  0  0  0  0  0  0  0  0  0  0
   10.9141  -14.3113   28.7361 O   0  0  0  0  0  0  0  0  0  0  0  0
  2  8  1  0
  2  1  1  1
  3  2  1  0
  4  3  1  0
  5  4  1  0
  6  5  1  0
  7  6  1  0
  8  9  2  0
 10 11  1  0
 11 13  1  0
 11 12  2  0
 13 14  1  0
 15 14  1  6
 16 15  1  0
 16  8  1  0
 17 15  1  0
 18 17  2  0
 20 19  1  1
 20 22  1  0
 21 20  1  0
 23 22  1  1
 23 25  1  0
 23 24  1  0
 24 17  1  0
 25 27  1  0
 26 25  2  0
M  END
$$$$
