KQL.pdb
     RDKit          3D

 27 26  0  0  1  0  0  0  0  0999 V2000
    8.6486  -19.3453   21.2953 N   0  0  0  0  0  0  0  0  0  0  0  0
    9.8691  -18.6840   20.9243 C   0  0  1  0  0  0  0  0  0  0  0  0
   10.3384  -18.9620   19.5313 C   0  0  0  0  0  0  0  0  0  0  0  0
   10.9305  -20.2965   19.2967 C   0  0  0  0  0  0  0  0  0  0  0  0
   12.2293  -20.3445   18.5755 C   0  0  0  0  0  0  0  0  0  0  0  0
   12.7178  -21.7254   18.2796 C   0  0  0  0  0  0  0  0  0  0  0  0
   13.9487  -21.7532   17.5432 N   0  0  0  0  0  0  0  0  0  0  0  0
    9.7033  -17.2045   21.1562 C   0  0  0  0  0  0  0  0  0  0  0  0
   10.6893  -16.4359   20.8919 O   0  0  0  0  0  0  0  0  0  0  0  0
    7.8747  -13.6223   18.5709 N   0  0  0  0  0  0  0  0  0  0  0  0
    8.1337  -12.9710   19.7815 C   0  0  0  0  0  0  0  0  0  0  0  0
    9.0546  -12.1484   19.9666 O   0  0  0  0  0  0  0  0  0  0  0  0
    7.2305  -13.2896   20.9453 C   0  0  0  0  0  0  0  0  0  0  0  0
    7.1443  -14.7686   21.1255 C   0  0  0  0  0  0  0  0  0  0  0  0
    8.2937  -15.2771   21.9610 C   0  0  2  0  0  0  0  0  0  0  0  0
    8.4850  -16.7126   21.6515 N   0  0  0  0  0  0  0  0  0  0  0  0
    8.0883  -15.2044   23.4058 C   0  0  0  0  0  0  0  0  0  0  0  0
    7.1744  -15.9247   23.9413 O   0  0  0  0  0  0  0  0  0  0  0  0
    7.6271  -11.8159   26.7086 C   0  0  0  0  0  0  0  0  0  0  0  0
    6.8215  -12.6224   25.6626 C   0  0  2  0  0  0  0  0  0  0  0  0
    5.3511  -12.3562   25.9270 C   0  0  0  0  0  0  0  0  0  0  0  0
    7.1491  -14.0457   25.9056 C   0  0  0  0  0  0  0  0  0  0  0  0
    8.5633  -14.4557   25.7256 C   0  0  2  0  0  0  0  0  0  0  0  0
    8.8325  -14.3960   24.2701 N   0  0  0  0  0  0  0  0  0  0  0  0
    8.9702  -15.7639   26.2123 C   0  0  0  0  0  0  0  0  0  0  0  0
    8.7530  -16.8212   25.5672 O   0  0  0  0  0  0  0  0  0  0  0  0
    9.6289  -15.9193   27.4245 O   0  0  0  0  0  0  0  0  0  0  0  0
  2  8  1  0
  2  1  1  6
  3  2  1  0
  4  3  1  0
  5  4  1  0
  6  5  1  0
  7  6  1  0
  8  9  2  0
 10 11  1  0
 11 13  1  0
 11 12  2  0
 13 14  1  0
 15 14  1  6
 16 15  1  0
 16  8  1  0
 17 15  1  0
 18 17  2  0
 20 19  1  1
 20 22  1  0
 21 20  1  0
 23 22  1  6
 23 25  1  0
 23 24  1  0
 24 17  1  0
 25 27  1  0
 26 25  2  0
M  END
$$$$
