KQL.pdb
     RDKit          3D

 27 26  0  0  1  0  0  0  0  0999 V2000
    5.4466  -17.3113   20.5326 N   0  0  0  0  0  0  0  0  0  0  0  0
    6.5458  -16.6765   21.2059 C   0  0  1  0  0  0  0  0  0  0  0  0
    6.7532  -15.2371   20.8554 C   0  0  0  0  0  0  0  0  0  0  0  0
    7.0280  -14.9455   19.4320 C   0  0  0  0  0  0  0  0  0  0  0  0
    8.2471  -14.1521   19.1257 C   0  0  0  0  0  0  0  0  0  0  0  0
    8.4470  -13.8681   17.6723 C   0  0  0  0  0  0  0  0  0  0  0  0
    9.5767  -13.0263   17.4021 N   0  0  0  0  0  0  0  0  0  0  0  0
    6.3657  -16.8530   22.6913 C   0  0  0  0  0  0  0  0  0  0  0  0
    5.2226  -16.5902   23.1982 O   0  0  0  0  0  0  0  0  0  0  0  0
    8.7340  -21.1072   26.2076 N   0  0  0  0  0  0  0  0  0  0  0  0
    8.3394  -20.2511   27.2411 C   0  0  0  0  0  0  0  0  0  0  0  0
    8.3713  -20.5371   28.4561 O   0  0  0  0  0  0  0  0  0  0  0  0
    7.8397  -18.8831   26.8531 C   0  0  0  0  0  0  0  0  0  0  0  0
    7.8734  -18.7372   25.3682 C   0  0  0  0  0  0  0  0  0  0  0  0
    7.3527  -17.3843   24.9482 C   0  0  2  0  0  0  0  0  0  0  0  0
    7.4449  -17.2959   23.4729 N   0  0  0  0  0  0  0  0  0  0  0  0
    8.1060  -16.2437   25.4641 C   0  0  0  0  0  0  0  0  0  0  0  0
    9.2671  -15.9960   24.9830 O   0  0  0  0  0  0  0  0  0  0  0  0
    7.2581  -12.0508   25.2638 C   0  0  0  0  0  0  0  0  0  0  0  0
    6.5524  -12.7750   26.4348 C   0  0  2  0  0  0  0  0  0  0  0  0
    5.6261  -11.7682   27.0913 C   0  0  0  0  0  0  0  0  0  0  0  0
    7.6272  -13.1848   27.3670 C   0  0  0  0  0  0  0  0  0  0  0  0
    8.5248  -14.2805   26.9263 C   0  0  2  0  0  0  0  0  0  0  0  0
    7.6455  -15.3779   26.4605 N   0  0  0  0  0  0  0  0  0  0  0  0
    9.4692  -14.8279   27.8867 C   0  0  0  0  0  0  0  0  0  0  0  0
   10.4100  -14.1481   28.3703 O   0  0  0  0  0  0  0  0  0  0  0  0
    9.3823  -16.1411   28.3286 O   0  0  0  0  0  0  0  0  0  0  0  0
  2  8  1  0
  2  1  1  6
  3  2  1  0
  4  3  1  0
  5  4  1  0
  6  5  1  0
  7  6  1  0
  8  9  2  0
 10 11  1  0
 11 13  1  0
 11 12  2  0
 13 14  1  0
 15 14  1  1
 16 15  1  0
 16  8  1  0
 17 15  1  0
 18 17  2  0
 20 19  1  6
 20 22  1  0
 21 20  1  0
 23 22  1  1
 23 25  1  0
 23 24  1  0
 24 17  1  0
 25 27  1  0
 26 25  2  0
M  END
$$$$
