KQL.pdb
     RDKit          3D

 27 26  0  0  1  0  0  0  0  0999 V2000
    6.5043  -16.9813   20.7573 N   0  0  0  0  0  0  0  0  0  0  0  0
    7.5170  -16.1426   21.3368 C   0  0  1  0  0  0  0  0  0  0  0  0
    7.2489  -14.6739   21.2425 C   0  0  0  0  0  0  0  0  0  0  0  0
    7.2207  -14.1022   19.8791 C   0  0  0  0  0  0  0  0  0  0  0  0
    8.2905  -13.1314   19.5289 C   0  0  0  0  0  0  0  0  0  0  0  0
    8.1374  -12.5078   18.1796 C   0  0  0  0  0  0  0  0  0  0  0  0
    9.2176  -11.6324   17.8260 N   0  0  0  0  0  0  0  0  0  0  0  0
    7.7297  -16.5650   22.7672 C   0  0  0  0  0  0  0  0  0  0  0  0
    6.7029  -16.7231   23.5110 O   0  0  0  0  0  0  0  0  0  0  0  0
   10.9336  -21.4150   25.1213 N   0  0  0  0  0  0  0  0  0  0  0  0
   11.0954  -20.4876   24.0867 C   0  0  0  0  0  0  0  0  0  0  0  0
   12.0598  -20.4638   23.2939 O   0  0  0  0  0  0  0  0  0  0  0  0
   10.0226  -19.4420   23.9212 C   0  0  0  0  0  0  0  0  0  0  0  0
   10.4291  -18.1884   24.6216 C   0  0  0  0  0  0  0  0  0  0  0  0
    9.2974  -17.1899   24.6385 C   0  0  2  0  0  0  0  0  0  0  0  0
    9.0348  -16.7715   23.2425 N   0  0  0  0  0  0  0  0  0  0  0  0
    9.5682  -15.9600   25.3794 C   0  0  0  0  0  0  0  0  0  0  0  0
   10.5695  -15.2368   25.0399 O   0  0  0  0  0  0  0  0  0  0  0  0
    8.3976  -12.2220   25.3179 C   0  0  0  0  0  0  0  0  0  0  0  0
    7.4331  -13.0711   26.1795 C   0  0  2  0  0  0  0  0  0  0  0  0
    6.2362  -12.1971   26.5057 C   0  0  0  0  0  0  0  0  0  0  0  0
    8.1819  -13.4156   27.4094 C   0  0  0  0  0  0  0  0  0  0  0  0
    9.3061  -14.3736   27.2720 C   0  0  2  0  0  0  0  0  0  0  0  0
    8.7985  -15.4970   26.4507 N   0  0  0  0  0  0  0  0  0  0  0  0
    9.8973  -14.9225   28.4816 C   0  0  0  0  0  0  0  0  0  0  0  0
   10.4473  -14.2001   29.3515 O   0  0  0  0  0  0  0  0  0  0  0  0
    9.8847  -16.2852   28.7469 O   0  0  0  0  0  0  0  0  0  0  0  0
  2  8  1  0
  2  1  1  1
  3  2  1  0
  4  3  1  0
  5  4  1  0
  6  5  1  0
  7  6  1  0
  8  9  2  0
 10 11  1  0
 11 13  1  0
 11 12  2  0
 13 14  1  0
 15 14  1  6
 16 15  1  0
 16  8  1  0
 17 15  1  0
 18 17  2  0
 20 19  1  6
 20 22  1  0
 21 20  1  0
 23 22  1  1
 23 25  1  0
 23 24  1  0
 24 17  1  0
 25 27  1  0
 26 25  2  0
M  END
$$$$
