KQL.pdb
     RDKit          3D

 27 26  0  0  1  0  0  0  0  0999 V2000
    9.1933  -15.3559   19.4030 N   0  0  0  0  0  0  0  0  0  0  0  0
    8.6450  -14.3697   20.2926 C   0  0  1  0  0  0  0  0  0  0  0  0
    7.4011  -13.6997   19.8012 C   0  0  0  0  0  0  0  0  0  0  0  0
    7.0656  -13.9111   18.3767 C   0  0  0  0  0  0  0  0  0  0  0  0
    8.0973  -13.5361   17.3744 C   0  0  0  0  0  0  0  0  0  0  0  0
    7.6640  -13.7025   15.9540 C   0  0  0  0  0  0  0  0  0  0  0  0
    8.6997  -13.4229   15.0016 N   0  0  0  0  0  0  0  0  0  0  0  0
    8.4221  -15.0084   21.6389 C   0  0  0  0  0  0  0  0  0  0  0  0
    7.4242  -14.6195   22.3358 O   0  0  0  0  0  0  0  0  0  0  0  0
   11.3762  -20.2557   25.6863 N   0  0  0  0  0  0  0  0  0  0  0  0
   10.6105  -20.0022   24.5434 C   0  0  0  0  0  0  0  0  0  0  0  0
   10.6182  -20.7022   23.5095 O   0  0  0  0  0  0  0  0  0  0  0  0
    9.7110  -18.7931   24.5677 C   0  0  0  0  0  0  0  0  0  0  0  0
    9.9646  -17.9526   23.3608 C   0  0  0  0  0  0  0  0  0  0  0  0
    9.0716  -16.7359   23.3546 C   0  0  2  0  0  0  0  0  0  0  0  0
    9.3055  -16.0025   22.0896 N   0  0  0  0  0  0  0  0  0  0  0  0
    9.3266  -15.7754   24.4257 C   0  0  0  0  0  0  0  0  0  0  0  0
   10.4918  -15.2531   24.5285 O   0  0  0  0  0  0  0  0  0  0  0  0
    7.7265  -11.9519   25.0806 C   0  0  0  0  0  0  0  0  0  0  0  0
    6.8074  -13.0458   25.6742 C   0  0  2  0  0  0  0  0  0  0  0  0
    5.5584  -12.3523   26.1861 C   0  0  0  0  0  0  0  0  0  0  0  0
    7.5659  -13.6526   26.7916 C   0  0  0  0  0  0  0  0  0  0  0  0
    8.7774  -14.4341   26.4423 C   0  0  2  0  0  0  0  0  0  0  0  0
    8.3748  -15.3679   25.3650 N   0  0  0  0  0  0  0  0  0  0  0  0
    9.4307  -15.2006   27.4909 C   0  0  0  0  0  0  0  0  0  0  0  0
   10.0834  -14.6562   28.4175 O   0  0  0  0  0  0  0  0  0  0  0  0
    9.3673  -16.5870   27.5292 O   0  0  0  0  0  0  0  0  0  0  0  0
  2  8  1  0
  2  1  1  6
  3  2  1  0
  4  3  1  0
  5  4  1  0
  6  5  1  0
  7  6  1  0
  8  9  2  0
 10 11  1  0
 11 13  1  0
 11 12  2  0
 13 14  1  0
 15 14  1  1
 16 15  1  0
 16  8  1  0
 17 15  1  0
 18 17  2  0
 20 19  1  1
 20 22  1  0
 21 20  1  0
 23 22  1  1
 23 25  1  0
 23 24  1  0
 24 17  1  0
 25 27  1  0
 26 25  2  0
M  END
$$$$
