KQL.pdb
     RDKit          3D

 27 26  0  0  1  0  0  0  0  0999 V2000
    8.0329  -18.5829   21.9372 N   0  0  0  0  0  0  0  0  0  0  0  0
    9.2686  -18.2034   21.3098 C   0  0  1  0  0  0  0  0  0  0  0  0
    9.2123  -18.0990   19.8186 C   0  0  0  0  0  0  0  0  0  0  0  0
    8.9452  -19.3557   19.0864 C   0  0  0  0  0  0  0  0  0  0  0  0
    9.9250  -19.7528   18.0416 C   0  0  0  0  0  0  0  0  0  0  0  0
    9.5329  -20.9641   17.2594 C   0  0  0  0  0  0  0  0  0  0  0  0
   10.4806  -21.3232   16.2440 N   0  0  0  0  0  0  0  0  0  0  0  0
    9.7441  -16.9138   21.9268 C   0  0  0  0  0  0  0  0  0  0  0  0
   10.7742  -16.3468   21.4266 O   0  0  0  0  0  0  0  0  0  0  0  0
    6.0311  -13.0150   24.7325 N   0  0  0  0  0  0  0  0  0  0  0  0
    6.2446  -14.1976   25.4485 C   0  0  0  0  0  0  0  0  0  0  0  0
    5.4763  -14.6519   26.3216 O   0  0  0  0  0  0  0  0  0  0  0  0
    7.4967  -14.9772   25.1385 C   0  0  0  0  0  0  0  0  0  0  0  0
    8.2304  -14.3253   24.0142 C   0  0  0  0  0  0  0  0  0  0  0  0
    9.4736  -15.1039   23.6592 C   0  0  2  0  0  0  0  0  0  0  0  0
    9.0530  -16.3733   23.0232 N   0  0  0  0  0  0  0  0  0  0  0  0
   10.3107  -15.4846   24.7945 C   0  0  0  0  0  0  0  0  0  0  0  0
   11.3925  -14.8351   25.0154 O   0  0  0  0  0  0  0  0  0  0  0  0
   11.5088  -13.9451   28.1791 C   0  0  0  0  0  0  0  0  0  0  0  0
   10.0644  -14.3724   27.8260 C   0  0  2  0  0  0  0  0  0  0  0  0
    9.1437  -13.7218   28.8419 C   0  0  0  0  0  0  0  0  0  0  0  0
   10.0323  -15.8468   27.9575 C   0  0  0  0  0  0  0  0  0  0  0  0
   10.7794  -16.6334   26.9458 C   0  0  2  0  0  0  0  0  0  0  0  0
   10.0135  -16.5225   25.6827 N   0  0  0  0  0  0  0  0  0  0  0  0
   11.0242  -18.0421   27.2095 C   0  0  0  0  0  0  0  0  0  0  0  0
   10.4440  -18.9584   26.5732 O   0  0  0  0  0  0  0  0  0  0  0  0
   11.9214  -18.4571   28.1844 O   0  0  0  0  0  0  0  0  0  0  0  0
  2  8  1  0
  2  1  1  1
  3  2  1  0
  4  3  1  0
  5  4  1  0
  6  5  1  0
  7  6  1  0
  8  9  2  0
 10 11  1  0
 11 13  1  0
 11 12  2  0
 13 14  1  0
 15 14  1  1
 16 15  1  0
 16  8  1  0
 17 15  1  0
 18 17  2  0
 20 19  1  1
 20 22  1  0
 21 20  1  0
 23 22  1  1
 23 25  1  0
 23 24  1  0
 24 17  1  0
 25 27  1  0
 26 25  2  0
M  END
$$$$
