KQL.pdb
     RDKit          3D

 27 26  0  0  1  0  0  0  0  0999 V2000
    9.7398  -13.6456   19.3711 N   0  0  0  0  0  0  0  0  0  0  0  0
    8.4588  -13.3649   19.9584 C   0  0  1  0  0  0  0  0  0  0  0  0
    7.3191  -13.3148   18.9908 C   0  0  0  0  0  0  0  0  0  0  0  0
    7.6810  -13.1806   17.5633 C   0  0  0  0  0  0  0  0  0  0  0  0
    7.4943  -14.3770   16.7013 C   0  0  0  0  0  0  0  0  0  0  0  0
    7.8810  -14.1721   15.2725 C   0  0  0  0  0  0  0  0  0  0  0  0
    7.6862  -15.3333   14.4530 N   0  0  0  0  0  0  0  0  0  0  0  0
    8.2003  -14.3705   21.0502 C   0  0  0  0  0  0  0  0  0  0  0  0
    7.0204  -14.4487   21.5344 O   0  0  0  0  0  0  0  0  0  0  0  0
   11.4956  -19.4974   21.6898 N   0  0  0  0  0  0  0  0  0  0  0  0
   10.7260  -19.6288   22.8504 C   0  0  0  0  0  0  0  0  0  0  0  0
   10.7504  -20.6156   23.6151 O   0  0  0  0  0  0  0  0  0  0  0  0
    9.8003  -18.4915   23.1989 C   0  0  0  0  0  0  0  0  0  0  0  0
    9.9336  -17.4050   22.1845 C   0  0  0  0  0  0  0  0  0  0  0  0
    9.0302  -16.2430   22.5182 C   0  0  2  0  0  0  0  0  0  0  0  0
    9.2491  -15.1866   21.5038 N   0  0  0  0  0  0  0  0  0  0  0  0
    9.2843  -15.6129   23.8116 C   0  0  0  0  0  0  0  0  0  0  0  0
   10.4538  -15.1532   24.0607 O   0  0  0  0  0  0  0  0  0  0  0  0
    8.2076  -11.8780   26.0656 C   0  0  0  0  0  0  0  0  0  0  0  0
    7.1347  -12.9709   25.8463 C   0  0  2  0  0  0  0  0  0  0  0  0
    5.8228  -12.4240   26.3780 C   0  0  0  0  0  0  0  0  0  0  0  0
    7.5761  -14.1399   26.6405 C   0  0  0  0  0  0  0  0  0  0  0  0
    8.7387  -14.9062   26.1291 C   0  0  2  0  0  0  0  0  0  0  0  0
    8.3273  -15.4636   24.8197 N   0  0  0  0  0  0  0  0  0  0  0  0
    9.2628  -15.9909   26.9431 C   0  0  0  0  0  0  0  0  0  0  0  0
    9.8029  -15.7948   28.0616 O   0  0  0  0  0  0  0  0  0  0  0  0
    9.1930  -17.3141   26.5288 O   0  0  0  0  0  0  0  0  0  0  0  0
  2  8  1  0
  2  1  1  6
  3  2  1  0
  4  3  1  0
  5  4  1  0
  6  5  1  0
  7  6  1  0
  8  9  2  0
 10 11  1  0
 11 13  1  0
 11 12  2  0
 13 14  1  0
 15 14  1  6
 16 15  1  0
 16  8  1  0
 17 15  1  0
 18 17  2  0
 20 19  1  1
 20 22  1  0
 21 20  1  0
 23 22  1  1
 23 25  1  0
 23 24  1  0
 24 17  1  0
 25 27  1  0
 26 25  2  0
M  END
$$$$
