KQL.pdb
     RDKit          3D

 27 26  0  0  1  0  0  0  0  0999 V2000
    6.3758  -17.1586   19.6540 N   0  0  0  0  0  0  0  0  0  0  0  0
    7.2765  -16.3783   20.4569 C   0  0  1  0  0  0  0  0  0  0  0  0
    7.2579  -14.9088   20.1776 C   0  0  0  0  0  0  0  0  0  0  0  0
    7.6130  -14.5019   18.8011 C   0  0  0  0  0  0  0  0  0  0  0  0
    9.0542  -14.2850   18.5088 C   0  0  0  0  0  0  0  0  0  0  0  0
    9.3361  -13.8184   17.1175 C   0  0  0  0  0  0  0  0  0  0  0  0
    8.5537  -12.6823   16.7235 N   0  0  0  0  0  0  0  0  0  0  0  0
    6.9906  -16.6586   21.9093 C   0  0  0  0  0  0  0  0  0  0  0  0
    5.7710  -16.7386   22.2821 O   0  0  0  0  0  0  0  0  0  0  0  0
    5.9208  -19.7143   25.7092 N   0  0  0  0  0  0  0  0  0  0  0  0
    7.2306  -19.9945   26.1124 C   0  0  0  0  0  0  0  0  0  0  0  0
    7.6064  -21.0724   26.6185 O   0  0  0  0  0  0  0  0  0  0  0  0
    8.2605  -18.9112   25.9190 C   0  0  0  0  0  0  0  0  0  0  0  0
    8.3487  -18.5527   24.4730 C   0  0  0  0  0  0  0  0  0  0  0  0
    7.8319  -17.1553   24.2322 C   0  0  2  0  0  0  0  0  0  0  0  0
    8.0579  -16.8226   22.8070 N   0  0  0  0  0  0  0  0  0  0  0  0
    8.5023  -16.1069   24.9978 C   0  0  0  0  0  0  0  0  0  0  0  0
    9.6867  -15.7523   24.6624 O   0  0  0  0  0  0  0  0  0  0  0  0
    7.7684  -12.0001   25.1727 C   0  0  0  0  0  0  0  0  0  0  0  0
    6.8588  -12.8054   26.1306 C   0  0  2  0  0  0  0  0  0  0  0  0
    5.8564  -11.8311   26.7214 C   0  0  0  0  0  0  0  0  0  0  0  0
    7.7506  -13.3432   27.1830 C   0  0  0  0  0  0  0  0  0  0  0  0
    8.7208  -14.3900   26.7788 C   0  0  2  0  0  0  0  0  0  0  0  0
    7.9370  -15.4410   26.0893 N   0  0  0  0  0  0  0  0  0  0  0  0
    9.5240  -15.0230   27.8123 C   0  0  0  0  0  0  0  0  0  0  0  0
    9.3451  -16.2151   28.1701 O   0  0  0  0  0  0  0  0  0  0  0  0
   10.5429  -14.3420   28.4646 O   0  0  0  0  0  0  0  0  0  0  0  0
  2  8  1  0
  2  1  1  6
  3  2  1  0
  4  3  1  0
  5  4  1  0
  6  5  1  0
  7  6  1  0
  8  9  2  0
 10 11  1  0
 11 13  1  0
 11 12  2  0
 13 14  1  0
 15 14  1  1
 16 15  1  0
 16  8  1  0
 17 15  1  0
 18 17  2  0
 20 19  1  6
 20 22  1  0
 21 20  1  0
 23 22  1  1
 23 25  1  0
 23 24  1  0
 24 17  1  0
 25 27  1  0
 26 25  2  0
M  END
$$$$
