KQL.pdb
     RDKit          3D

 27 26  0  0  1  0  0  0  0  0999 V2000
    7.8179  -19.5483   22.5923 N   0  0  0  0  0  0  0  0  0  0  0  0
    9.2533  -19.5049   22.5426 C   0  0  1  0  0  0  0  0  0  0  0  0
    9.8825  -20.5008   21.6206 C   0  0  0  0  0  0  0  0  0  0  0  0
    8.9613  -21.4486   20.9576 C   0  0  0  0  0  0  0  0  0  0  0  0
    8.4651  -21.0785   19.6062 C   0  0  0  0  0  0  0  0  0  0  0  0
    7.5813  -22.1039   18.9733 C   0  0  0  0  0  0  0  0  0  0  0  0
    7.0420  -21.6948   17.7085 N   0  0  0  0  0  0  0  0  0  0  0  0
    9.6797  -18.1014   22.1984 C   0  0  0  0  0  0  0  0  0  0  0  0
   10.9160  -17.8858   21.9583 O   0  0  0  0  0  0  0  0  0  0  0  0
    7.6669  -14.3106   18.5435 N   0  0  0  0  0  0  0  0  0  0  0  0
    8.0844  -13.2691   19.3788 C   0  0  0  0  0  0  0  0  0  0  0  0
    8.3110  -12.1002   19.0031 O   0  0  0  0  0  0  0  0  0  0  0  0
    8.2727  -13.5876   20.8399 C   0  0  0  0  0  0  0  0  0  0  0  0
    7.9921  -15.0336   21.0802 C   0  0  0  0  0  0  0  0  0  0  0  0
    9.0972  -15.6695   21.8878 C   0  0  2  0  0  0  0  0  0  0  0  0
    8.7203  -17.0772   22.1511 N   0  0  0  0  0  0  0  0  0  0  0  0
    9.3315  -15.0674   23.1982 C   0  0  0  0  0  0  0  0  0  0  0  0
    9.8587  -13.9016   23.2620 O   0  0  0  0  0  0  0  0  0  0  0  0
    5.5335  -12.8751   26.0703 C   0  0  0  0  0  0  0  0  0  0  0  0
    6.9345  -13.3543   26.5189 C   0  0  2  0  0  0  0  0  0  0  0  0
    7.7923  -12.1167   26.7072 C   0  0  0  0  0  0  0  0  0  0  0  0
    7.4533  -14.1888   25.4114 C   0  0  0  0  0  0  0  0  0  0  0  0
    8.7781  -14.8269   25.6073 C   0  0  2  0  0  0  0  0  0  0  0  0
    9.0123  -15.6755   24.4159 N   0  0  0  0  0  0  0  0  0  0  0  0
    8.9841  -15.6397   26.7950 C   0  0  0  0  0  0  0  0  0  0  0  0
    9.1209  -15.1385   27.9400 O   0  0  0  0  0  0  0  0  0  0  0  0
    9.0388  -17.0255   26.7307 O   0  0  0  0  0  0  0  0  0  0  0  0
  2  8  1  0
  2  1  1  6
  3  2  1  0
  4  3  1  0
  5  4  1  0
  6  5  1  0
  7  6  1  0
  8  9  2  0
 10 11  1  0
 11 13  1  0
 11 12  2  0
 13 14  1  0
 15 14  1  1
 16 15  1  0
 16  8  1  0
 17 15  1  0
 18 17  2  0
 20 19  1  6
 20 22  1  0
 21 20  1  0
 23 22  1  6
 23 25  1  0
 23 24  1  0
 24 17  1  0
 25 27  1  0
 26 25  2  0
M  END
$$$$
