HIH.pdb
     RDKit          3D

 29 30  0  0  1  0  0  0  0  0999 V2000
    9.0935  -15.4729   19.8664 N   0  0  0  0  0  0  0  0  0  0  0  0
    8.1027  -15.6699   20.9026 C   0  0  1  0  0  0  0  0  0  0  0  0
    7.8541  -17.1642   21.0185 C   0  0  0  0  0  0  0  0  0  0  0  0
    7.1436  -17.7030   19.8303 C   0  0  0  0  0  0  0  0  0  0  0  0
    7.2592  -17.1919   18.5627 C   0  0  0  0  0  0  0  0  0  0  0  0
    6.4759  -17.9335   17.7600 N   0  0  0  0  0  0  0  0  0  0  0  0
    5.8945  -18.8744   18.5120 C   0  0  0  0  0  0  0  0  0  0  0  0
    6.3076  -18.7354   19.8056 N   0  0  0  0  0  0  0  0  0  0  0  0
    8.6005  -15.2120   22.2292 C   0  0  0  0  0  0  0  0  0  0  0  0
    9.8300  -15.3091   22.4950 O   0  0  0  0  0  0  0  0  0  0  0  0
    6.7217  -11.7980   27.0152 C   0  0  0  0  0  0  0  0  0  0  0  0
    7.7454  -12.6940   26.4029 C   0  0  0  0  0  0  0  0  0  0  0  0
    7.2648  -13.3690   25.1372 C   0  0  2  0  0  0  0  0  0  0  0  0
    5.9523  -14.0625   25.4082 C   0  0  0  0  0  0  0  0  0  0  0  0
    8.2974  -14.2706   24.5482 C   0  0  2  0  0  0  0  0  0  0  0  0
    7.7737  -14.6660   23.2292 N   0  0  0  0  0  0  0  0  0  0  0  0
    8.5878  -15.4827   25.3635 C   0  0  0  0  0  0  0  0  0  0  0  0
    7.7467  -16.4143   25.3977 O   0  0  0  0  0  0  0  0  0  0  0  0
    9.7783  -15.6307   26.1062 N   0  0  0  0  0  0  0  0  0  0  0  0
   10.2254  -16.8960   26.6356 C   0  0  1  0  0  0  0  0  0  0  0  0
   11.6354  -17.1380   26.1584 C   0  0  0  0  0  0  0  0  0  0  0  0
   12.2122  -18.4151   26.6336 C   0  0  0  0  0  0  0  0  0  0  0  0
   11.4781  -19.3803   27.3068 C   0  0  0  0  0  0  0  0  0  0  0  0
   12.3278  -20.3862   27.5758 N   0  0  0  0  0  0  0  0  0  0  0  0
   13.5396  -20.0729   27.0966 C   0  0  0  0  0  0  0  0  0  0  0  0
   13.4577  -18.8629   26.5212 N   0  0  0  0  0  0  0  0  0  0  0  0
   10.2114  -16.9069   28.1211 C   0  0  0  0  0  0  0  0  0  0  0  0
    9.8976  -15.8168   28.9028 O   0  0  0  0  0  0  0  0  0  0  0  0
   10.5027  -17.9715   28.7143 O   0  0  0  0  0  0  0  0  0  0  0  0
  2  9  1  0
  2  1  1  6
  3  2  1  0
  4  3  1  0
  4  5  2  0
  6  5  1  0
  7  8  2  0
  7  6  1  0
  8  4  1  0
  9 10  2  0
 12 11  1  0
 13 14  1  1
 13 12  1  0
 13 15  1  0
 15 16  1  6
 16  9  1  0
 17 18  2  0
 17 15  1  0
 19 17  1  0
 20 27  1  0
 20 19  1  0
 20 21  1  1
 22 21  1  0
 23 22  2  0
 24 25  1  0
 24 23  1  0
 25 26  2  0
 26 22  1  0
 27 28  1  0
 29 27  2  0
M  END
$$$$
