HIH.pdb
     RDKit          3D

 29 30  0  0  1  0  0  0  0  0999 V2000
    8.9783  -15.4259   20.6434 N   0  0  0  0  0  0  0  0  0  0  0  0
    8.0639  -15.7700   21.7109 C   0  0  1  0  0  0  0  0  0  0  0  0
    7.8811  -17.2780   21.6873 C   0  0  0  0  0  0  0  0  0  0  0  0
    7.1700  -17.7325   20.4648 C   0  0  0  0  0  0  0  0  0  0  0  0
    6.3403  -16.9399   19.7133 C   0  0  0  0  0  0  0  0  0  0  0  0
    5.8850  -17.6908   18.6950 N   0  0  0  0  0  0  0  0  0  0  0  0
    6.4192  -18.9109   18.8162 C   0  0  0  0  0  0  0  0  0  0  0  0
    7.2225  -18.9429   19.9194 N   0  0  0  0  0  0  0  0  0  0  0  0
    8.6270  -15.4252   23.0456 C   0  0  0  0  0  0  0  0  0  0  0  0
    9.8695  -15.5292   23.2376 O   0  0  0  0  0  0  0  0  0  0  0  0
    6.1417  -11.6794   25.9479 C   0  0  0  0  0  0  0  0  0  0  0  0
    7.2179  -12.5275   25.3578 C   0  0  0  0  0  0  0  0  0  0  0  0
    7.4722  -13.7966   26.1409 C   0  0  2  0  0  0  0  0  0  0  0  0
    7.8859  -13.4413   27.5478 C   0  0  0  0  0  0  0  0  0  0  0  0
    8.4376  -14.7032   25.4536 C   0  0  2  0  0  0  0  0  0  0  0  0
    7.8494  -14.9811   24.1318 N   0  0  0  0  0  0  0  0  0  0  0  0
    8.6953  -15.9812   26.1737 C   0  0  0  0  0  0  0  0  0  0  0  0
    7.7388  -16.7644   26.3935 O   0  0  0  0  0  0  0  0  0  0  0  0
    9.9797  -16.3532   26.6238 N   0  0  0  0  0  0  0  0  0  0  0  0
   10.2485  -17.5997   27.2985 C   0  0  1  0  0  0  0  0  0  0  0  0
   11.4607  -18.2317   26.6616 C   0  0  0  0  0  0  0  0  0  0  0  0
   11.8471  -19.5229   27.2722 C   0  0  0  0  0  0  0  0  0  0  0  0
   10.9352  -20.5149   27.6011 C   0  0  0  0  0  0  0  0  0  0  0  0
   11.6462  -21.5264   28.1277 N   0  0  0  0  0  0  0  0  0  0  0  0
   12.9439  -21.1912   28.1318 C   0  0  0  0  0  0  0  0  0  0  0  0
   13.0559  -19.9615   27.6055 N   0  0  0  0  0  0  0  0  0  0  0  0
   10.5161  -17.3959   28.7455 C   0  0  0  0  0  0  0  0  0  0  0  0
   10.5154  -18.4036   29.6849 O   0  0  0  0  0  0  0  0  0  0  0  0
   10.7593  -16.2355   29.1513 O   0  0  0  0  0  0  0  0  0  0  0  0
  2  9  1  0
  2  1  1  6
  3  2  1  0
  4  3  1  0
  4  5  2  0
  6  5  1  0
  7  8  2  0
  7  6  1  0
  8  4  1  0
  9 10  2  0
 12 11  1  0
 13 14  1  1
 13 12  1  0
 13 15  1  0
 15 16  1  6
 16  9  1  0
 17 18  2  0
 17 15  1  0
 19 17  1  0
 20 27  1  0
 20 19  1  0
 20 21  1  6
 22 21  1  0
 23 22  2  0
 24 25  1  0
 24 23  1  0
 25 26  2  0
 26 22  1  0
 27 28  1  0
 29 27  2  0
M  END
$$$$
