HIH.pdb
     RDKit          3D

 29 30  0  0  1  0  0  0  0  0999 V2000
   10.1119  -18.0098   18.1361 N   0  0  0  0  0  0  0  0  0  0  0  0
    9.0660  -17.8740   19.1270 C   0  0  1  0  0  0  0  0  0  0  0  0
    9.0287  -19.1625   19.9310 C   0  0  0  0  0  0  0  0  0  0  0  0
    8.4503  -20.2872   19.1516 C   0  0  0  0  0  0  0  0  0  0  0  0
    7.9837  -20.1778   17.8664 C   0  0  0  0  0  0  0  0  0  0  0  0
    7.5411  -21.3928   17.4975 N   0  0  0  0  0  0  0  0  0  0  0  0
    7.7299  -22.2263   18.5262 C   0  0  0  0  0  0  0  0  0  0  0  0
    8.2973  -21.5416   19.5618 N   0  0  0  0  0  0  0  0  0  0  0  0
    9.3622  -16.7753   20.0875 C   0  0  0  0  0  0  0  0  0  0  0  0
   10.5621  -16.4551   20.3092 O   0  0  0  0  0  0  0  0  0  0  0  0
    7.3162  -12.2371   19.4187 C   0  0  0  0  0  0  0  0  0  0  0  0
    8.2343  -13.3022   19.9170 C   0  0  0  0  0  0  0  0  0  0  0  0
    7.8708  -13.8035   21.2972 C   0  0  2  0  0  0  0  0  0  0  0  0
    7.9154  -12.6543   22.2740 C   0  0  0  0  0  0  0  0  0  0  0  0
    8.7063  -14.9664   21.7164 C   0  0  2  0  0  0  0  0  0  0  0  0
    8.3718  -16.0538   20.7804 N   0  0  0  0  0  0  0  0  0  0  0  0
    8.4734  -15.4131   23.1180 C   0  0  0  0  0  0  0  0  0  0  0  0
    7.4324  -16.0603   23.3900 O   0  0  0  0  0  0  0  0  0  0  0  0
    9.3805  -15.1377   24.1631 N   0  0  0  0  0  0  0  0  0  0  0  0
    9.1732  -15.5738   25.5225 C   0  0  1  0  0  0  0  0  0  0  0  0
    7.6883  -15.6496   25.7749 C   0  0  0  0  0  0  0  0  0  0  0  0
    7.0597  -14.3326   26.0199 C   0  0  0  0  0  0  0  0  0  0  0  0
    7.7751  -13.1464   26.0887 C   0  0  0  0  0  0  0  0  0  0  0  0
    6.8779  -12.1734   26.3217 N   0  0  0  0  0  0  0  0  0  0  0  0
    5.6551  -12.7170   26.3967 C   0  0  0  0  0  0  0  0  0  0  0  0
    5.7778  -14.0407   26.2103 N   0  0  0  0  0  0  0  0  0  0  0  0
    9.7723  -16.9106   25.7692 C   0  0  0  0  0  0  0  0  0  0  0  0
    9.8731  -17.4994   27.0106 O   0  0  0  0  0  0  0  0  0  0  0  0
   10.2196  -17.5553   24.7921 O   0  0  0  0  0  0  0  0  0  0  0  0
  2  9  1  0
  2  1  1  6
  3  2  1  0
  4  3  1  0
  4  5  2  0
  6  5  1  0
  7  8  2  0
  7  6  1  0
  8  4  1  0
  9 10  2  0
 12 11  1  0
 13 14  1  1
 13 12  1  0
 13 15  1  0
 15 16  1  6
 16  9  1  0
 17 18  2  0
 17 15  1  0
 19 17  1  0
 20 27  1  0
 20 19  1  0
 20 21  1  6
 22 21  1  0
 23 22  2  0
 24 25  1  0
 24 23  1  0
 25 26  2  0
 26 22  1  0
 27 28  1  0
 29 27  2  0
M  END
$$$$
