HIH.pdb
     RDKit          3D

 29 30  0  0  1  0  0  0  0  0999 V2000
    8.2117  -15.6631   20.8548 N   0  0  0  0  0  0  0  0  0  0  0  0
    7.5631  -16.0049   22.1025 C   0  0  1  0  0  0  0  0  0  0  0  0
    7.5562  -17.5201   22.2135 C   0  0  0  0  0  0  0  0  0  0  0  0
    6.6859  -18.1484   21.1866 C   0  0  0  0  0  0  0  0  0  0  0  0
    5.4698  -17.6500   20.7938 C   0  0  0  0  0  0  0  0  0  0  0  0
    4.9820  -18.4805   19.8555 N   0  0  0  0  0  0  0  0  0  0  0  0
    5.8724  -19.4621   19.6757 C   0  0  0  0  0  0  0  0  0  0  0  0
    6.9384  -19.2600   20.5041 N   0  0  0  0  0  0  0  0  0  0  0  0
    8.3254  -15.4907   23.2738 C   0  0  0  0  0  0  0  0  0  0  0  0
    9.5865  -15.5207   23.2518 O   0  0  0  0  0  0  0  0  0  0  0  0
    6.2466  -11.4408   25.9367 C   0  0  0  0  0  0  0  0  0  0  0  0
    7.2416  -12.3725   25.3303 C   0  0  0  0  0  0  0  0  0  0  0  0
    7.6695  -13.4792   26.2686 C   0  0  2  0  0  0  0  0  0  0  0  0
    8.3318  -12.8765   27.4830 C   0  0  0  0  0  0  0  0  0  0  0  0
    8.5100  -14.5067   25.5875 C   0  0  2  0  0  0  0  0  0  0  0  0
    7.7208  -14.9617   24.4297 N   0  0  0  0  0  0  0  0  0  0  0  0
    8.8694  -15.6696   26.4458 C   0  0  0  0  0  0  0  0  0  0  0  0
    7.9537  -16.3560   26.9627 O   0  0  0  0  0  0  0  0  0  0  0  0
   10.2067  -16.0368   26.7057 N   0  0  0  0  0  0  0  0  0  0  0  0
   10.5691  -17.1856   27.4994 C   0  0  1  0  0  0  0  0  0  0  0  0
   11.9612  -17.6129   27.1071 C   0  0  0  0  0  0  0  0  0  0  0  0
   12.0510  -18.1540   25.7328 C   0  0  0  0  0  0  0  0  0  0  0  0
   10.9437  -18.3899   24.9316 C   0  0  0  0  0  0  0  0  0  0  0  0
   11.4113  -18.8753   23.7690 N   0  0  0  0  0  0  0  0  0  0  0  0
   12.7484  -18.9434   23.8313 C   0  0  0  0  0  0  0  0  0  0  0  0
   13.1300  -18.4990   25.0391 N   0  0  0  0  0  0  0  0  0  0  0  0
   10.5514  -16.8783   28.9527 C   0  0  0  0  0  0  0  0  0  0  0  0
   10.6321  -17.8272   29.9482 O   0  0  0  0  0  0  0  0  0  0  0  0
   10.4569  -15.6809   29.3099 O   0  0  0  0  0  0  0  0  0  0  0  0
  2  9  1  0
  2  1  1  6
  3  2  1  0
  4  3  1  0
  4  5  2  0
  6  5  1  0
  7  8  2  0
  7  6  1  0
  8  4  1  0
  9 10  2  0
 12 11  1  0
 13 14  1  1
 13 12  1  0
 13 15  1  0
 15 16  1  6
 16  9  1  0
 17 18  2  0
 17 15  1  0
 19 17  1  0
 20 27  1  0
 20 19  1  0
 20 21  1  6
 22 21  1  0
 23 22  2  0
 24 25  1  0
 24 23  1  0
 25 26  2  0
 26 22  1  0
 27 28  1  0
 29 27  2  0
M  END
$$$$
