HIH.pdb
     RDKit          3D

 29 30  0  0  1  0  0  0  0  0999 V2000
    9.2740  -18.0807   16.7702 N   0  0  0  0  0  0  0  0  0  0  0  0
    8.3317  -17.8935   17.8525 C   0  0  1  0  0  0  0  0  0  0  0  0
    8.0418  -19.2612   18.4471 C   0  0  0  0  0  0  0  0  0  0  0  0
    6.9454  -19.9589   17.7274 C   0  0  0  0  0  0  0  0  0  0  0  0
    6.2382  -19.4177   16.6842 C   0  0  0  0  0  0  0  0  0  0  0  0
    5.3371  -20.3361   16.2935 N   0  0  0  0  0  0  0  0  0  0  0  0
    5.4854  -21.4120   17.0739 C   0  0  0  0  0  0  0  0  0  0  0  0
    6.4882  -21.1823   17.9712 N   0  0  0  0  0  0  0  0  0  0  0  0
    8.9110  -17.0631   18.9443 C   0  0  0  0  0  0  0  0  0  0  0  0
   10.1571  -17.0821   19.1404 O   0  0  0  0  0  0  0  0  0  0  0  0
    6.8892  -12.2192   19.8267 C   0  0  0  0  0  0  0  0  0  0  0  0
    7.8095  -13.3883   19.7180 C   0  0  0  0  0  0  0  0  0  0  0  0
    7.8700  -14.2176   20.9817 C   0  0  2  0  0  0  0  0  0  0  0  0
    8.2418  -13.3305   22.1443 C   0  0  0  0  0  0  0  0  0  0  0  0
    8.7611  -15.4058   20.8382 C   0  0  2  0  0  0  0  0  0  0  0  0
    8.1453  -16.2399   19.7915 N   0  0  0  0  0  0  0  0  0  0  0  0
    8.9281  -16.1994   22.0873 C   0  0  0  0  0  0  0  0  0  0  0  0
    7.9162  -16.7063   22.6312 O   0  0  0  0  0  0  0  0  0  0  0  0
   10.1858  -16.4082   22.6915 N   0  0  0  0  0  0  0  0  0  0  0  0
   10.3620  -17.1730   23.9020 C   0  0  1  0  0  0  0  0  0  0  0  0
   11.4513  -18.1891   23.6666 C   0  0  0  0  0  0  0  0  0  0  0  0
   11.0506  -19.2908   22.7638 C   0  0  0  0  0  0  0  0  0  0  0  0
    9.7900  -19.3904   22.1940 C   0  0  0  0  0  0  0  0  0  0  0  0
    9.7975  -20.5063   21.4453 N   0  0  0  0  0  0  0  0  0  0  0  0
   11.0032  -21.0845   21.5368 C   0  0  0  0  0  0  0  0  0  0  0  0
   11.7635  -20.3314   22.3472 N   0  0  0  0  0  0  0  0  0  0  0  0
   10.7485  -16.3094   25.0473 C   0  0  0  0  0  0  0  0  0  0  0  0
   10.8213  -16.7393   26.3542 O   0  0  0  0  0  0  0  0  0  0  0  0
   11.0288  -15.1088   24.8235 O   0  0  0  0  0  0  0  0  0  0  0  0
  2  9  1  0
  2  1  1  6
  3  2  1  0
  4  3  1  0
  4  5  2  0
  6  5  1  0
  7  8  2  0
  7  6  1  0
  8  4  1  0
  9 10  2  0
 12 11  1  0
 13 14  1  1
 13 12  1  0
 13 15  1  0
 15 16  1  6
 16  9  1  0
 17 18  2  0
 17 15  1  0
 19 17  1  0
 20 27  1  0
 20 19  1  0
 20 21  1  6
 22 21  1  0
 23 22  2  0
 24 25  1  0
 24 23  1  0
 25 26  2  0
 26 22  1  0
 27 28  1  0
 29 27  2  0
M  END
$$$$
