HIH.pdb
     RDKit          3D

 29 30  0  0  1  0  0  0  0  0999 V2000
   10.1431  -14.2809   20.6898 N   0  0  0  0  0  0  0  0  0  0  0  0
    8.9081  -14.0895   21.4194 C   0  0  1  0  0  0  0  0  0  0  0  0
    7.8576  -14.9822   20.7810 C   0  0  0  0  0  0  0  0  0  0  0  0
    7.7161  -14.7204   19.3256 C   0  0  0  0  0  0  0  0  0  0  0  0
    7.3832  -13.5032   18.7877 C   0  0  0  0  0  0  0  0  0  0  0  0
    7.3513  -13.6523   17.4517 N   0  0  0  0  0  0  0  0  0  0  0  0
    7.6558  -14.9249   17.1750 C   0  0  0  0  0  0  0  0  0  0  0  0
    7.8846  -15.5966   18.3411 N   0  0  0  0  0  0  0  0  0  0  0  0
    9.0382  -14.5238   22.8378 C   0  0  0  0  0  0  0  0  0  0  0  0
    9.9873  -15.2876   23.1656 O   0  0  0  0  0  0  0  0  0  0  0  0
    6.2984  -11.3711   26.2227 C   0  0  0  0  0  0  0  0  0  0  0  0
    7.3930  -12.1592   25.5851 C   0  0  0  0  0  0  0  0  0  0  0  0
    7.4374  -13.5987   26.0479 C   0  0  2  0  0  0  0  0  0  0  0  0
    7.6626  -13.6374   27.5394 C   0  0  0  0  0  0  0  0  0  0  0  0
    8.4268  -14.4107   25.2810 C   0  0  2  0  0  0  0  0  0  0  0  0
    8.1540  -14.1312   23.8605 N   0  0  0  0  0  0  0  0  0  0  0  0
    8.3439  -15.8758   25.5355 C   0  0  0  0  0  0  0  0  0  0  0  0
    7.8100  -16.6180   24.6748 O   0  0  0  0  0  0  0  0  0  0  0  0
    8.8439  -16.4712   26.7128 N   0  0  0  0  0  0  0  0  0  0  0  0
    9.6823  -17.6452   26.7080 C   0  0  1  0  0  0  0  0  0  0  0  0
   10.9219  -17.3392   25.9055 C   0  0  0  0  0  0  0  0  0  0  0  0
   11.0153  -18.1042   24.6423 C   0  0  0  0  0  0  0  0  0  0  0  0
   10.0818  -19.0537   24.2543 C   0  0  0  0  0  0  0  0  0  0  0  0
   10.4948  -19.5315   23.0681 N   0  0  0  0  0  0  0  0  0  0  0  0
   11.6335  -18.9148   22.7225 C   0  0  0  0  0  0  0  0  0  0  0  0
   11.9436  -18.0421   23.6941 N   0  0  0  0  0  0  0  0  0  0  0  0
   10.0840  -18.0403   28.0826 C   0  0  0  0  0  0  0  0  0  0  0  0
   10.4713  -19.3122   28.4432 O   0  0  0  0  0  0  0  0  0  0  0  0
   10.0738  -17.1685   28.9827 O   0  0  0  0  0  0  0  0  0  0  0  0
  2  9  1  0
  2  1  1  6
  3  2  1  0
  4  3  1  0
  4  5  2  0
  6  5  1  0
  7  8  2  0
  7  6  1  0
  8  4  1  0
  9 10  2  0
 12 11  1  0
 13 14  1  1
 13 12  1  0
 13 15  1  0
 15 16  1  6
 16  9  1  0
 17 18  2  0
 17 15  1  0
 19 17  1  0
 20 27  1  0
 20 19  1  0
 20 21  1  6
 22 21  1  0
 23 22  2  0
 24 25  1  0
 24 23  1  0
 25 26  2  0
 26 22  1  0
 27 28  1  0
 29 27  2  0
M  END
$$$$
