HIH.pdb
     RDKit          3D

 29 30  0  0  1  0  0  0  0  0999 V2000
    9.6308  -15.5315   20.6813 N   0  0  0  0  0  0  0  0  0  0  0  0
    8.6646  -16.1336   21.5747 C   0  0  1  0  0  0  0  0  0  0  0  0
    8.7295  -17.6377   21.3709 C   0  0  0  0  0  0  0  0  0  0  0  0
    8.4427  -18.0208   19.9646 C   0  0  0  0  0  0  0  0  0  0  0  0
    7.2947  -17.6883   19.2914 C   0  0  0  0  0  0  0  0  0  0  0  0
    7.3939  -18.2043   18.0537 N   0  0  0  0  0  0  0  0  0  0  0  0
    8.5693  -18.8365   17.9673 C   0  0  0  0  0  0  0  0  0  0  0  0
    9.2286  -18.7252   19.1574 N   0  0  0  0  0  0  0  0  0  0  0  0
    9.0051  -15.8771   23.0014 C   0  0  0  0  0  0  0  0  0  0  0  0
   10.1826  -16.0864   23.4029 O   0  0  0  0  0  0  0  0  0  0  0  0
    6.6860  -11.8143   25.3262 C   0  0  0  0  0  0  0  0  0  0  0  0
    7.6822  -12.8681   24.9759 C   0  0  0  0  0  0  0  0  0  0  0  0
    7.5848  -14.0952   25.8553 C   0  0  2  0  0  0  0  0  0  0  0  0
    7.8642  -13.7076   27.2866 C   0  0  0  0  0  0  0  0  0  0  0  0
    8.4459  -15.2119   25.3680 C   0  0  2  0  0  0  0  0  0  0  0  0
    8.0815  -15.4064   23.9538 N   0  0  0  0  0  0  0  0  0  0  0  0
    8.2744  -16.4879   26.1167 C   0  0  0  0  0  0  0  0  0  0  0  0
    7.5540  -17.3930   25.6284 O   0  0  0  0  0  0  0  0  0  0  0  0
    8.8922  -16.7258   27.3627 N   0  0  0  0  0  0  0  0  0  0  0  0
    9.6229  -17.9329   27.6629 C   0  0  1  0  0  0  0  0  0  0  0  0
   10.8054  -18.0155   26.7305 C   0  0  0  0  0  0  0  0  0  0  0  0
   10.6089  -18.9548   25.6041 C   0  0  0  0  0  0  0  0  0  0  0  0
    9.4469  -19.6881   25.4158 C   0  0  0  0  0  0  0  0  0  0  0  0
    9.6346  -20.4207   24.3049 N   0  0  0  0  0  0  0  0  0  0  0  0
   10.8551  -20.1636   23.8144 C   0  0  0  0  0  0  0  0  0  0  0  0
   11.4438  -19.2640   24.6182 N   0  0  0  0  0  0  0  0  0  0  0  0
   10.1136  -17.9450   29.0650 C   0  0  0  0  0  0  0  0  0  0  0  0
   10.6600  -16.8548   29.7060 O   0  0  0  0  0  0  0  0  0  0  0  0
   10.0312  -19.0110   29.7186 O   0  0  0  0  0  0  0  0  0  0  0  0
  2  9  1  0
  2  1  1  6
  3  2  1  0
  4  3  1  0
  4  5  2  0
  6  5  1  0
  7  8  2  0
  7  6  1  0
  8  4  1  0
  9 10  2  0
 12 11  1  0
 13 14  1  1
 13 12  1  0
 13 15  1  0
 15 16  1  6
 16  9  1  0
 17 18  2  0
 17 15  1  0
 19 17  1  0
 20 27  1  0
 20 19  1  0
 20 21  1  6
 22 21  1  0
 23 22  2  0
 24 25  1  0
 24 23  1  0
 25 26  2  0
 26 22  1  0
 27 28  1  0
 29 27  2  0
M  END
$$$$
