HIH.pdb
     RDKit          3D

 29 30  0  0  1  0  0  0  0  0999 V2000
    7.6579  -16.0100   20.1221 N   0  0  0  0  0  0  0  0  0  0  0  0
    7.2028  -16.1415   21.4895 C   0  0  1  0  0  0  0  0  0  0  0  0
    7.2228  -17.6203   21.8372 C   0  0  0  0  0  0  0  0  0  0  0  0
    6.1958  -18.3827   21.0816 C   0  0  0  0  0  0  0  0  0  0  0  0
    5.9431  -18.2222   19.7430 C   0  0  0  0  0  0  0  0  0  0  0  0
    4.9566  -19.0760   19.4177 N   0  0  0  0  0  0  0  0  0  0  0  0
    4.6118  -19.7431   20.5244 C   0  0  0  0  0  0  0  0  0  0  0  0
    5.3822  -19.3144   21.5665 N   0  0  0  0  0  0  0  0  0  0  0  0
    8.1259  -15.4628   22.4406 C   0  0  0  0  0  0  0  0  0  0  0  0
    9.3335  -15.2954   22.1165 O   0  0  0  0  0  0  0  0  0  0  0  0
    6.1896  -11.6095   25.5255 C   0  0  0  0  0  0  0  0  0  0  0  0
    7.1397  -12.4140   24.7035 C   0  0  0  0  0  0  0  0  0  0  0  0
    7.8808  -13.4613   25.5050 C   0  0  2  0  0  0  0  0  0  0  0  0
    8.6912  -12.7846   26.5830 C   0  0  0  0  0  0  0  0  0  0  0  0
    8.6905  -14.3689   24.6407 C   0  0  2  0  0  0  0  0  0  0  0  0
    7.7334  -14.9848   23.7052 N   0  0  0  0  0  0  0  0  0  0  0  0
    9.4256  -15.4282   25.3861 C   0  0  0  0  0  0  0  0  0  0  0  0
    8.8006  -16.4399   25.7891 O   0  0  0  0  0  0  0  0  0  0  0  0
   10.8068  -15.3433   25.6614 N   0  0  0  0  0  0  0  0  0  0  0  0
   11.5742  -16.4435   26.1922 C   0  0  1  0  0  0  0  0  0  0  0  0
   10.7122  -17.1905   27.1788 C   0  0  0  0  0  0  0  0  0  0  0  0
   10.4373  -16.4330   28.4198 C   0  0  0  0  0  0  0  0  0  0  0  0
   10.5433  -15.0531   28.5109 C   0  0  0  0  0  0  0  0  0  0  0  0
   10.2215  -14.7290   29.7748 N   0  0  0  0  0  0  0  0  0  0  0  0
    9.9265  -15.8485   30.4502 C   0  0  0  0  0  0  0  0  0  0  0  0
   10.0620  -16.8869   29.6104 N   0  0  0  0  0  0  0  0  0  0  0  0
   12.0048  -17.3806   25.1230 C   0  0  0  0  0  0  0  0  0  0  0  0
   11.1952  -17.8104   24.0946 O   0  0  0  0  0  0  0  0  0  0  0  0
   13.1794  -17.8166   25.1469 O   0  0  0  0  0  0  0  0  0  0  0  0
  2  9  1  0
  2  1  1  6
  3  2  1  0
  4  3  1  0
  4  5  2  0
  6  5  1  0
  7  8  2  0
  7  6  1  0
  8  4  1  0
  9 10  2  0
 12 11  1  0
 13 14  1  1
 13 12  1  0
 13 15  1  0
 15 16  1  6
 16  9  1  0
 17 18  2  0
 17 15  1  0
 19 17  1  0
 20 27  1  0
 20 19  1  0
 20 21  1  1
 22 21  1  0
 23 22  2  0
 24 25  1  0
 24 23  1  0
 25 26  2  0
 26 22  1  0
 27 28  1  0
 29 27  2  0
M  END
$$$$
