HIH.pdb
     RDKit          3D

 29 30  0  0  1  0  0  0  0  0999 V2000
    8.8870  -15.3517   20.5352 N   0  0  0  0  0  0  0  0  0  0  0  0
    7.8854  -15.6462   21.5373 C   0  0  1  0  0  0  0  0  0  0  0  0
    7.6130  -17.1399   21.4854 C   0  0  0  0  0  0  0  0  0  0  0  0
    6.9988  -17.5482   20.1959 C   0  0  0  0  0  0  0  0  0  0  0  0
    6.8373  -16.7150   19.1183 C   0  0  0  0  0  0  0  0  0  0  0  0
    6.2511  -17.4320   18.1435 N   0  0  0  0  0  0  0  0  0  0  0  0
    6.0573  -18.6713   18.6076 C   0  0  0  0  0  0  0  0  0  0  0  0
    6.5222  -18.7498   19.8886 N   0  0  0  0  0  0  0  0  0  0  0  0
    8.3800  -15.3460   22.9094 C   0  0  0  0  0  0  0  0  0  0  0  0
    9.6025  -15.5088   23.1750 O   0  0  0  0  0  0  0  0  0  0  0  0
    6.2568  -11.3584   25.5845 C   0  0  0  0  0  0  0  0  0  0  0  0
    7.2204  -12.3870   25.0955 C   0  0  0  0  0  0  0  0  0  0  0  0
    7.2282  -13.6434   25.9380 C   0  0  2  0  0  0  0  0  0  0  0  0
    7.6401  -13.2972   27.3477 C   0  0  0  0  0  0  0  0  0  0  0  0
    8.0546  -14.7277   25.3317 C   0  0  2  0  0  0  0  0  0  0  0  0
    7.5575  -14.8824   23.9535 N   0  0  0  0  0  0  0  0  0  0  0  0
    7.9760  -16.0304   26.0493 C   0  0  0  0  0  0  0  0  0  0  0  0
    6.8517  -16.5513   26.2524 O   0  0  0  0  0  0  0  0  0  0  0  0
    9.1210  -16.7107   26.5151 N   0  0  0  0  0  0  0  0  0  0  0  0
    9.0550  -17.9006   27.3281 C   0  0  1  0  0  0  0  0  0  0  0  0
    8.9071  -19.0914   26.4146 C   0  0  0  0  0  0  0  0  0  0  0  0
    9.9313  -19.1526   25.3484 C   0  0  0  0  0  0  0  0  0  0  0  0
   10.9048  -18.1812   25.1686 C   0  0  0  0  0  0  0  0  0  0  0  0
   11.6439  -18.5727   24.1167 N   0  0  0  0  0  0  0  0  0  0  0  0
   11.1619  -19.7344   23.6536 C   0  0  0  0  0  0  0  0  0  0  0  0
   10.1124  -20.0808   24.4155 N   0  0  0  0  0  0  0  0  0  0  0  0
   10.2799  -18.0739   28.1506 C   0  0  0  0  0  0  0  0  0  0  0  0
   10.5042  -19.1391   28.9949 O   0  0  0  0  0  0  0  0  0  0  0  0
   11.1757  -17.2004   28.0811 O   0  0  0  0  0  0  0  0  0  0  0  0
  2  9  1  0
  2  1  1  6
  3  2  1  0
  4  3  1  0
  4  5  2  0
  6  5  1  0
  7  8  2  0
  7  6  1  0
  8  4  1  0
  9 10  2  0
 12 11  1  0
 13 14  1  1
 13 12  1  0
 13 15  1  0
 15 16  1  6
 16  9  1  0
 17 18  2  0
 17 15  1  0
 19 17  1  0
 20 27  1  0
 20 19  1  0
 20 21  1  6
 22 21  1  0
 23 22  2  0
 24 25  1  0
 24 23  1  0
 25 26  2  0
 26 22  1  0
 27 28  1  0
 29 27  2  0
M  END
$$$$
