HIH.pdb
     RDKit          3D

 29 30  0  0  1  0  0  0  0  0999 V2000
    9.2763  -15.3588   20.0361 N   0  0  0  0  0  0  0  0  0  0  0  0
    8.3405  -15.7023   21.0852 C   0  0  1  0  0  0  0  0  0  0  0  0
    8.1978  -17.2149   21.0925 C   0  0  0  0  0  0  0  0  0  0  0  0
    7.5683  -17.7196   19.8451 C   0  0  0  0  0  0  0  0  0  0  0  0
    6.2217  -17.6789   19.5875 C   0  0  0  0  0  0  0  0  0  0  0  0
    6.0312  -18.2208   18.3717 N   0  0  0  0  0  0  0  0  0  0  0  0
    7.2265  -18.5846   17.8945 C   0  0  0  0  0  0  0  0  0  0  0  0
    8.1900  -18.2741   18.8101 N   0  0  0  0  0  0  0  0  0  0  0  0
    8.8555  -15.3118   22.4267 C   0  0  0  0  0  0  0  0  0  0  0  0
   10.0932  -15.3866   22.6592 O   0  0  0  0  0  0  0  0  0  0  0  0
    7.2315  -11.7757   27.1616 C   0  0  0  0  0  0  0  0  0  0  0  0
    8.1393  -12.8302   26.6234 C   0  0  0  0  0  0  0  0  0  0  0  0
    7.7024  -13.3604   25.2757 C   0  0  2  0  0  0  0  0  0  0  0  0
    6.2475  -13.7552   25.3417 C   0  0  0  0  0  0  0  0  0  0  0  0
    8.5885  -14.4549   24.7826 C   0  0  2  0  0  0  0  0  0  0  0  0
    8.0366  -14.8547   23.4764 N   0  0  0  0  0  0  0  0  0  0  0  0
    8.6617  -15.6365   25.6862 C   0  0  0  0  0  0  0  0  0  0  0  0
    7.6128  -16.2768   25.9440 O   0  0  0  0  0  0  0  0  0  0  0  0
    9.8700  -16.0714   26.2706 N   0  0  0  0  0  0  0  0  0  0  0  0
    9.9902  -17.3060   27.0072 C   0  0  1  0  0  0  0  0  0  0  0  0
   11.4015  -17.8147   26.8530 C   0  0  0  0  0  0  0  0  0  0  0  0
   11.7171  -18.2848   25.4859 C   0  0  0  0  0  0  0  0  0  0  0  0
   10.7759  -18.3661   24.4705 C   0  0  0  0  0  0  0  0  0  0  0  0
   11.4228  -18.8297   23.3877 N   0  0  0  0  0  0  0  0  0  0  0  0
   12.7099  -19.0318   23.7022 C   0  0  0  0  0  0  0  0  0  0  0  0
   12.8795  -18.6948   24.9904 N   0  0  0  0  0  0  0  0  0  0  0  0
    9.7025  -17.1151   28.4521 C   0  0  0  0  0  0  0  0  0  0  0  0
    9.3958  -18.1363   29.3244 O   0  0  0  0  0  0  0  0  0  0  0  0
    9.7373  -15.9534   28.9207 O   0  0  0  0  0  0  0  0  0  0  0  0
  2  9  1  0
  2  1  1  6
  3  2  1  0
  4  3  1  0
  4  5  2  0
  6  5  1  0
  7  8  2  0
  7  6  1  0
  8  4  1  0
  9 10  2  0
 12 11  1  0
 13 14  1  1
 13 12  1  0
 13 15  1  0
 15 16  1  6
 16  9  1  0
 17 18  2  0
 17 15  1  0
 19 17  1  0
 20 27  1  0
 20 19  1  0
 20 21  1  1
 22 21  1  0
 23 22  2  0
 24 25  1  0
 24 23  1  0
 25 26  2  0
 26 22  1  0
 27 28  1  0
 29 27  2  0
M  END
$$$$
