HIH.pdb
     RDKit          3D

 29 30  0  0  1  0  0  0  0  0999 V2000
    8.8523  -15.1502   20.4592 N   0  0  0  0  0  0  0  0  0  0  0  0
    8.0071  -15.5963   21.5459 C   0  0  1  0  0  0  0  0  0  0  0  0
    7.9382  -17.1125   21.4779 C   0  0  0  0  0  0  0  0  0  0  0  0
    7.2762  -17.5833   20.2342 C   0  0  0  0  0  0  0  0  0  0  0  0
    6.3436  -16.8615   19.5338 C   0  0  0  0  0  0  0  0  0  0  0  0
    5.9754  -17.6050   18.4756 N   0  0  0  0  0  0  0  0  0  0  0  0
    6.6618  -18.7518   18.5232 C   0  0  0  0  0  0  0  0  0  0  0  0
    7.4756  -18.7440   19.6191 N   0  0  0  0  0  0  0  0  0  0  0  0
    8.5922  -15.2507   22.8708 C   0  0  0  0  0  0  0  0  0  0  0  0
    9.8437  -15.2952   23.0243 O   0  0  0  0  0  0  0  0  0  0  0  0
    6.0746  -11.6779   25.8825 C   0  0  0  0  0  0  0  0  0  0  0  0
    7.1749  -12.4805   25.2736 C   0  0  0  0  0  0  0  0  0  0  0  0
    7.4810  -13.7485   26.0397 C   0  0  2  0  0  0  0  0  0  0  0  0
    7.9437  -13.3922   27.4311 C   0  0  0  0  0  0  0  0  0  0  0  0
    8.4336  -14.6356   25.3106 C   0  0  2  0  0  0  0  0  0  0  0  0
    7.8265  -14.8692   23.9887 N   0  0  0  0  0  0  0  0  0  0  0  0
    8.6966  -15.9367   25.9858 C   0  0  0  0  0  0  0  0  0  0  0  0
    7.7459  -16.7371   26.1654 O   0  0  0  0  0  0  0  0  0  0  0  0
    9.9797  -16.3123   26.4367 N   0  0  0  0  0  0  0  0  0  0  0  0
   10.2324  -17.5261   27.1743 C   0  0  1  0  0  0  0  0  0  0  0  0
   11.5281  -18.1196   26.6811 C   0  0  0  0  0  0  0  0  0  0  0  0
   11.4276  -18.7309   25.3373 C   0  0  0  0  0  0  0  0  0  0  0  0
   10.2261  -18.9095   24.6680 C   0  0  0  0  0  0  0  0  0  0  0  0
   10.5270  -19.4875   23.4927 N   0  0  0  0  0  0  0  0  0  0  0  0
   11.8534  -19.6659   23.4217 C   0  0  0  0  0  0  0  0  0  0  0  0
   12.3958  -19.1988   24.5573 N   0  0  0  0  0  0  0  0  0  0  0  0
   10.3446  -17.2703   28.6334 C   0  0  0  0  0  0  0  0  0  0  0  0
   10.3643  -18.2561   29.5955 O   0  0  0  0  0  0  0  0  0  0  0  0
   10.4271  -16.0838   29.0281 O   0  0  0  0  0  0  0  0  0  0  0  0
  2  9  1  0
  2  1  1  6
  3  2  1  0
  4  3  1  0
  4  5  2  0
  6  5  1  0
  7  8  2  0
  7  6  1  0
  8  4  1  0
  9 10  2  0
 12 11  1  0
 13 14  1  1
 13 12  1  0
 13 15  1  0
 15 16  1  6
 16  9  1  0
 17 18  2  0
 17 15  1  0
 19 17  1  0
 20 27  1  0
 20 19  1  0
 20 21  1  6
 22 21  1  0
 23 22  2  0
 24 25  1  0
 24 23  1  0
 25 26  2  0
 26 22  1  0
 27 28  1  0
 29 27  2  0
M  END
$$$$
