HIH.pdb
     RDKit          3D

 29 30  0  0  1  0  0  0  0  0999 V2000
    8.2766  -15.3384   20.7103 N   0  0  0  0  0  0  0  0  0  0  0  0
    7.5821  -15.7073   21.9251 C   0  0  1  0  0  0  0  0  0  0  0  0
    7.5688  -17.2246   22.0007 C   0  0  0  0  0  0  0  0  0  0  0  0
    6.7389  -17.8271   20.9259 C   0  0  0  0  0  0  0  0  0  0  0  0
    6.2166  -17.1273   19.8682 C   0  0  0  0  0  0  0  0  0  0  0  0
    5.5302  -18.0011   19.1111 N   0  0  0  0  0  0  0  0  0  0  0  0
    5.6271  -19.2046   19.6863 C   0  0  0  0  0  0  0  0  0  0  0  0
    6.3806  -19.1021   20.8199 N   0  0  0  0  0  0  0  0  0  0  0  0
    8.3018  -15.2221   23.1351 C   0  0  0  0  0  0  0  0  0  0  0  0
    9.5602  -15.1359   23.1126 O   0  0  0  0  0  0  0  0  0  0  0  0
    5.8808  -11.7683   26.3813 C   0  0  0  0  0  0  0  0  0  0  0  0
    6.9851  -12.4682   25.6627 C   0  0  0  0  0  0  0  0  0  0  0  0
    7.4806  -13.6998   26.3881 C   0  0  2  0  0  0  0  0  0  0  0  0
    8.0725  -13.2937   27.7153 C   0  0  0  0  0  0  0  0  0  0  0  0
    8.4102  -14.5145   25.5524 C   0  0  2  0  0  0  0  0  0  0  0  0
    7.6586  -14.8447   24.3291 N   0  0  0  0  0  0  0  0  0  0  0  0
    8.8867  -15.7637   26.2086 C   0  0  0  0  0  0  0  0  0  0  0  0
    8.0493  -16.6363   26.5464 O   0  0  0  0  0  0  0  0  0  0  0  0
   10.2510  -16.0113   26.4694 N   0  0  0  0  0  0  0  0  0  0  0  0
   10.7167  -17.1577   27.2111 C   0  0  1  0  0  0  0  0  0  0  0  0
   12.1043  -17.5015   26.7306 C   0  0  0  0  0  0  0  0  0  0  0  0
   12.1355  -18.0728   25.3661 C   0  0  0  0  0  0  0  0  0  0  0  0
   10.9952  -18.4297   24.6618 C   0  0  0  0  0  0  0  0  0  0  0  0
   11.4130  -18.9058   23.4766 N   0  0  0  0  0  0  0  0  0  0  0  0
   12.7515  -18.8529   23.4329 C   0  0  0  0  0  0  0  0  0  0  0  0
   13.1842  -18.3408   24.5958 N   0  0  0  0  0  0  0  0  0  0  0  0
   10.7663  -16.8858   28.6707 C   0  0  0  0  0  0  0  0  0  0  0  0
   11.0447  -17.8360   29.6287 O   0  0  0  0  0  0  0  0  0  0  0  0
   10.5414  -15.7195   29.0701 O   0  0  0  0  0  0  0  0  0  0  0  0
  2  9  1  0
  2  1  1  6
  3  2  1  0
  4  3  1  0
  4  5  2  0
  6  5  1  0
  7  8  2  0
  7  6  1  0
  8  4  1  0
  9 10  2  0
 12 11  1  0
 13 14  1  1
 13 12  1  0
 13 15  1  0
 15 16  1  6
 16  9  1  0
 17 18  2  0
 17 15  1  0
 19 17  1  0
 20 27  1  0
 20 19  1  0
 20 21  1  6
 22 21  1  0
 23 22  2  0
 24 25  1  0
 24 23  1  0
 25 26  2  0
 26 22  1  0
 27 28  1  0
 29 27  2  0
M  END
$$$$
