HIH.pdb
     RDKit          3D

 29 30  0  0  1  0  0  0  0  0999 V2000
   10.1878  -14.6560   20.8379 N   0  0  0  0  0  0  0  0  0  0  0  0
    8.9895  -14.3491   21.5889 C   0  0  1  0  0  0  0  0  0  0  0  0
    7.8042  -14.8545   20.7839 C   0  0  0  0  0  0  0  0  0  0  0  0
    7.7560  -14.2511   19.4273 C   0  0  0  0  0  0  0  0  0  0  0  0
    8.7423  -13.4580   18.8984 C   0  0  0  0  0  0  0  0  0  0  0  0
    8.3492  -13.1025   17.6626 N   0  0  0  0  0  0  0  0  0  0  0  0
    7.1550  -13.6609   17.4372 C   0  0  0  0  0  0  0  0  0  0  0  0
    6.7796  -14.3792   18.5355 N   0  0  0  0  0  0  0  0  0  0  0  0
    8.9624  -15.0676   22.8928 C   0  0  0  0  0  0  0  0  0  0  0  0
    9.9522  -15.7733   23.2302 O   0  0  0  0  0  0  0  0  0  0  0  0
    6.8317  -11.0278   26.2006 C   0  0  0  0  0  0  0  0  0  0  0  0
    7.7826  -12.1391   25.9064 C   0  0  0  0  0  0  0  0  0  0  0  0
    7.1148  -13.3442   25.2819 C   0  0  2  0  0  0  0  0  0  0  0  0
    5.8453  -13.6581   26.0348 C   0  0  0  0  0  0  0  0  0  0  0  0
    8.0385  -14.5107   25.1715 C   0  0  2  0  0  0  0  0  0  0  0  0
    7.8830  -15.0115   23.7947 N   0  0  0  0  0  0  0  0  0  0  0  0
    7.7618  -15.6042   26.1441 C   0  0  0  0  0  0  0  0  0  0  0  0
    7.8197  -15.3593   27.3742 O   0  0  0  0  0  0  0  0  0  0  0  0
    7.4343  -16.9154   25.7390 N   0  0  0  0  0  0  0  0  0  0  0  0
    8.4040  -17.9803   25.6552 C   0  0  1  0  0  0  0  0  0  0  0  0
    9.4090  -17.6233   24.5889 C   0  0  0  0  0  0  0  0  0  0  0  0
   10.5099  -18.6034   24.4587 C   0  0  0  0  0  0  0  0  0  0  0  0
   10.6379  -19.7199   25.2716 C   0  0  0  0  0  0  0  0  0  0  0  0
   11.7434  -20.3648   24.8617 N   0  0  0  0  0  0  0  0  0  0  0  0
   12.2881  -19.6898   23.8400 C   0  0  0  0  0  0  0  0  0  0  0  0
   11.5243  -18.6120   23.6011 N   0  0  0  0  0  0  0  0  0  0  0  0
    9.1178  -18.1773   26.9430 C   0  0  0  0  0  0  0  0  0  0  0  0
   10.0430  -17.2975   27.4607 O   0  0  0  0  0  0  0  0  0  0  0  0
    8.8715  -19.2079   27.6120 O   0  0  0  0  0  0  0  0  0  0  0  0
  2  9  1  0
  2  1  1  6
  3  2  1  0
  4  3  1  0
  4  5  2  0
  6  5  1  0
  7  8  2  0
  7  6  1  0
  8  4  1  0
  9 10  2  0
 12 11  1  0
 13 14  1  1
 13 12  1  0
 13 15  1  0
 15 16  1  6
 16  9  1  0
 17 18  2  0
 17 15  1  0
 19 17  1  0
 20 27  1  0
 20 19  1  0
 20 21  1  6
 22 21  1  0
 23 22  2  0
 24 25  1  0
 24 23  1  0
 25 26  2  0
 26 22  1  0
 27 28  1  0
 29 27  2  0
M  END
$$$$
