PDD.pdb
     RDKit          3D

 24 24  0  0  1  0  0  0  0  0999 V2000
    9.2418  -13.9077   18.0619 N   0  0  0  0  0  0  0  0  0  0  0  0
    8.0610  -13.7411   17.2459 C   0  0  0  0  0  0  0  0  0  0  0  0
    7.3658  -12.5675   17.8541 C   0  0  0  0  0  0  0  0  0  0  0  0
    7.5745  -12.8371   19.3482 C   0  0  0  0  0  0  0  0  0  0  0  0
    8.9939  -13.3638   19.3515 C   0  0  1  0  0  0  0  0  0  0  0  0
    9.2528  -14.3504   20.4223 C   0  0  0  0  0  0  0  0  0  0  0  0
    9.0394  -14.0710   21.6260 O   0  0  0  0  0  0  0  0  0  0  0  0
    9.7549  -15.6587   20.1385 N   0  0  0  0  0  0  0  0  0  0  0  0
   10.0721  -16.6250   21.1526 C   0  0  1  0  0  0  0  0  0  0  0  0
    9.3860  -17.9517   20.9383 C   0  0  0  0  0  0  0  0  0  0  0  0
    9.6159  -18.4839   19.5739 C   0  0  0  0  0  0  0  0  0  0  0  0
   10.2530  -17.8743   18.7066 O   0  0  0  0  0  0  0  0  0  0  0  0
   11.5474  -16.7889   21.3241 C   0  0  0  0  0  0  0  0  0  0  0  0
   11.9900  -17.9486   21.5070 O   0  0  0  0  0  0  0  0  0  0  0  0
    9.0872  -19.7277   19.2625 O   0  0  0  0  0  0  0  0  0  0  0  0
   12.4670  -15.7208   21.2924 N   0  0  0  0  0  0  0  0  0  0  0  0
   13.8827  -15.8269   21.4987 C   0  0  1  0  0  0  0  0  0  0  0  0
   14.6777  -14.8212   20.7057 C   0  0  0  0  0  0  0  0  0  0  0  0
   14.4256  -14.9033   19.2614 C   0  0  0  0  0  0  0  0  0  0  0  0
   14.3545  -13.8388   18.5971 O   0  0  0  0  0  0  0  0  0  0  0  0
   14.2694  -15.8039   22.9263 C   0  0  0  0  0  0  0  0  0  0  0  0
   13.3864  -15.5373   23.7707 O   0  0  0  0  0  0  0  0  0  0  0  0
   14.2656  -16.1206   18.6189 O   0  0  0  0  0  0  0  0  0  0  0  0
   15.5425  -16.0625   23.3250 O   0  0  0  0  0  0  0  0  0  0  0  0
  2  1  1  0
  3  2  1  0
  4  3  1  0
  4  5  1  0
  5  6  1  1
  5  1  1  0
  6  8  1  0
  7  6  2  0
  8  9  1  0
  9 13  1  0
  9 10  1  6
 10 11  1  0
 11 12  2  0
 13 16  1  0
 13 14  2  0
 15 11  1  0
 16 17  1  0
 17 21  1  0
 17 18  1  6
 19 18  1  0
 20 19  2  0
 21 22  2  0
 21 24  1  0
 23 19  1  0
M  END
$$$$
