PDD.pdb
     RDKit          3D

 24 24  0  0  1  0  0  0  0  0999 V2000
    9.1775  -12.9143   18.4893 N   0  0  0  0  0  0  0  0  0  0  0  0
    8.0087  -12.7402   17.6577 C   0  0  0  0  0  0  0  0  0  0  0  0
    6.8665  -13.0137   18.5803 C   0  0  0  0  0  0  0  0  0  0  0  0
    7.4094  -14.1991   19.3856 C   0  0  0  0  0  0  0  0  0  0  0  0
    8.8567  -13.7911   19.5610 C   0  0  1  0  0  0  0  0  0  0  0  0
    9.7873  -14.9384   19.6288 C   0  0  0  0  0  0  0  0  0  0  0  0
    9.5501  -15.9221   20.3696 O   0  0  0  0  0  0  0  0  0  0  0  0
   10.9919  -14.9803   18.8597 N   0  0  0  0  0  0  0  0  0  0  0  0
   11.9657  -16.0307   18.9653 C   0  0  1  0  0  0  0  0  0  0  0  0
   12.5155  -16.4618   17.6280 C   0  0  0  0  0  0  0  0  0  0  0  0
   11.5263  -17.2383   16.8429 C   0  0  0  0  0  0  0  0  0  0  0  0
   10.8590  -18.1644   17.3191 O   0  0  0  0  0  0  0  0  0  0  0  0
   13.0578  -15.6836   19.9242 C   0  0  0  0  0  0  0  0  0  0  0  0
   13.5650  -14.5388   19.8439 O   0  0  0  0  0  0  0  0  0  0  0  0
   11.3461  -16.9034   15.5092 O   0  0  0  0  0  0  0  0  0  0  0  0
   13.5494  -16.5638   20.9096 N   0  0  0  0  0  0  0  0  0  0  0  0
   14.5870  -16.2684   21.8552 C   0  0  1  0  0  0  0  0  0  0  0  0
   14.5903  -17.1941   23.0451 C   0  0  0  0  0  0  0  0  0  0  0  0
   13.5782  -16.8398   24.0483 C   0  0  0  0  0  0  0  0  0  0  0  0
   12.9744  -15.7429   23.9389 O   0  0  0  0  0  0  0  0  0  0  0  0
   15.9308  -16.1852   21.2427 C   0  0  0  0  0  0  0  0  0  0  0  0
   16.1198  -16.7757   20.1567 O   0  0  0  0  0  0  0  0  0  0  0  0
   13.2760  -17.6826   25.1059 O   0  0  0  0  0  0  0  0  0  0  0  0
   16.9410  -15.4916   21.8299 O   0  0  0  0  0  0  0  0  0  0  0  0
  2  1  1  0
  3  2  1  0
  4  3  1  0
  4  5  1  0
  5  6  1  6
  5  1  1  0
  6  8  1  0
  7  6  2  0
  8  9  1  0
  9 13  1  0
  9 10  1  6
 10 11  1  0
 11 12  2  0
 13 16  1  0
 13 14  2  0
 15 11  1  0
 16 17  1  0
 17 21  1  0
 17 18  1  1
 19 18  1  0
 20 19  2  0
 21 22  2  0
 21 24  1  0
 23 19  1  0
M  END
$$$$
