PDD.pdb
     RDKit          3D

 24 24  0  0  1  0  0  0  0  0999 V2000
    8.2859  -14.2870   20.4629 N   0  0  0  0  0  0  0  0  0  0  0  0
    8.0303  -13.0692   21.1973 C   0  0  0  0  0  0  0  0  0  0  0  0
    7.3499  -12.1858   20.2036 C   0  0  0  0  0  0  0  0  0  0  0  0
    8.1505  -12.4920   18.9333 C   0  0  0  0  0  0  0  0  0  0  0  0
    8.3598  -13.9845   19.0760 C   0  0  1  0  0  0  0  0  0  0  0  0
    9.6250  -14.4612   18.4770 C   0  0  0  0  0  0  0  0  0  0  0  0
    9.9055  -14.2206   17.2786 O   0  0  0  0  0  0  0  0  0  0  0  0
   10.5808  -15.2129   19.2292 N   0  0  0  0  0  0  0  0  0  0  0  0
   11.9114  -15.4940   18.7675 C   0  0  1  0  0  0  0  0  0  0  0  0
   12.7003  -14.2481   18.4481 C   0  0  0  0  0  0  0  0  0  0  0  0
   14.0300  -14.5627   17.8729 C   0  0  0  0  0  0  0  0  0  0  0  0
   14.2273  -15.5052   17.0968 O   0  0  0  0  0  0  0  0  0  0  0  0
   12.6506  -16.3881   19.7093 C   0  0  0  0  0  0  0  0  0  0  0  0
   13.7443  -16.8673   19.3241 O   0  0  0  0  0  0  0  0  0  0  0  0
   15.1004  -13.7553   18.2277 O   0  0  0  0  0  0  0  0  0  0  0  0
   12.1925  -16.7230   20.9998 N   0  0  0  0  0  0  0  0  0  0  0  0
   13.0015  -16.8036   22.1818 C   0  0  1  0  0  0  0  0  0  0  0  0
   13.7828  -15.5439   22.4564 C   0  0  0  0  0  0  0  0  0  0  0  0
   14.7245  -15.6869   23.5740 C   0  0  0  0  0  0  0  0  0  0  0  0
   14.2696  -15.8954   24.7269 O   0  0  0  0  0  0  0  0  0  0  0  0
   12.2468  -17.2329   23.3794 C   0  0  0  0  0  0  0  0  0  0  0  0
   12.8644  -17.8520   24.2732 O   0  0  0  0  0  0  0  0  0  0  0  0
   16.0945  -15.5979   23.3868 O   0  0  0  0  0  0  0  0  0  0  0  0
   10.9209  -16.9701   23.5194 O   0  0  0  0  0  0  0  0  0  0  0  0
  2  1  1  0
  3  2  1  0
  4  3  1  0
  4  5  1  0
  5  6  1  1
  5  1  1  0
  6  8  1  0
  7  6  2  0
  8  9  1  0
  9 13  1  0
  9 10  1  1
 10 11  1  0
 11 12  2  0
 13 16  1  0
 13 14  2  0
 15 11  1  0
 16 17  1  0
 17 21  1  0
 17 18  1  1
 19 18  1  0
 20 19  2  0
 21 22  2  0
 21 24  1  0
 23 19  1  0
M  END
$$$$
