PDD.pdb
     RDKit          3D

 24 24  0  0  1  0  0  0  0  0999 V2000
    9.5279  -13.6300   18.8924 N   0  0  0  0  0  0  0  0  0  0  0  0
    8.5945  -13.0367   17.9625 C   0  0  0  0  0  0  0  0  0  0  0  0
    7.6586  -12.2658   18.8344 C   0  0  0  0  0  0  0  0  0  0  0  0
    7.4890  -13.2275   20.0154 C   0  0  0  0  0  0  0  0  0  0  0  0
    8.8992  -13.7588   20.1606 C   0  0  1  0  0  0  0  0  0  0  0  0
    8.9554  -15.1487   20.6624 C   0  0  0  0  0  0  0  0  0  0  0  0
    8.3491  -15.4852   21.7073 O   0  0  0  0  0  0  0  0  0  0  0  0
    9.6978  -16.1665   19.9861 N   0  0  0  0  0  0  0  0  0  0  0  0
    9.8562  -17.5019   20.4904 C   0  0  1  0  0  0  0  0  0  0  0  0
    9.7750  -18.5533   19.4111 C   0  0  0  0  0  0  0  0  0  0  0  0
    8.4144  -18.6518   18.8305 C   0  0  0  0  0  0  0  0  0  0  0  0
    8.0575  -18.0209   17.8284 O   0  0  0  0  0  0  0  0  0  0  0  0
   11.0993  -17.6453   21.3069 C   0  0  0  0  0  0  0  0  0  0  0  0
   11.5312  -18.8045   21.5165 O   0  0  0  0  0  0  0  0  0  0  0  0
    7.5028  -19.4954   19.4475 O   0  0  0  0  0  0  0  0  0  0  0  0
   11.8120  -16.5586   21.8533 N   0  0  0  0  0  0  0  0  0  0  0  0
   13.1733  -16.2154   21.5582 C   0  0  1  0  0  0  0  0  0  0  0  0
   13.3370  -15.5097   20.2362 C   0  0  0  0  0  0  0  0  0  0  0  0
   14.7138  -15.0603   19.9941 C   0  0  0  0  0  0  0  0  0  0  0  0
   15.6508  -15.6107   20.6257 O   0  0  0  0  0  0  0  0  0  0  0  0
   13.8371  -15.4657   22.6469 C   0  0  0  0  0  0  0  0  0  0  0  0
   15.0236  -15.1091   22.4771 O   0  0  0  0  0  0  0  0  0  0  0  0
   15.0011  -14.0497   19.0906 O   0  0  0  0  0  0  0  0  0  0  0  0
   13.1906  -15.1653   23.8038 O   0  0  0  0  0  0  0  0  0  0  0  0
  2  1  1  0
  3  2  1  0
  4  3  1  0
  4  5  1  0
  5  6  1  6
  5  1  1  0
  6  8  1  0
  7  6  2  0
  8  9  1  0
  9 13  1  0
  9 10  1  6
 10 11  1  0
 11 12  2  0
 13 16  1  0
 13 14  2  0
 15 11  1  0
 16 17  1  0
 17 21  1  0
 17 18  1  6
 19 18  1  0
 20 19  2  0
 21 22  2  0
 21 24  1  0
 23 19  1  0
M  END
$$$$
