PDD.pdb
     RDKit          3D

 24 24  0  0  1  0  0  0  0  0999 V2000
    9.2446  -13.7054   18.4379 N   0  0  0  0  0  0  0  0  0  0  0  0
    8.1860  -13.4448   17.4895 C   0  0  0  0  0  0  0  0  0  0  0  0
    7.1647  -12.7006   18.2856 C   0  0  0  0  0  0  0  0  0  0  0  0
    7.2125  -13.4582   19.6168 C   0  0  0  0  0  0  0  0  0  0  0  0
    8.6984  -13.7153   19.7501 C   0  0  1  0  0  0  0  0  0  0  0  0
    9.0166  -14.9687   20.4675 C   0  0  0  0  0  0  0  0  0  0  0  0
    8.5705  -15.1872   21.6190 O   0  0  0  0  0  0  0  0  0  0  0  0
    9.8413  -15.9826   19.8875 N   0  0  0  0  0  0  0  0  0  0  0  0
   10.0904  -17.2544   20.5065 C   0  0  1  0  0  0  0  0  0  0  0  0
    9.9421  -18.4138   19.5523 C   0  0  0  0  0  0  0  0  0  0  0  0
    9.7506  -19.7001   20.2640 C   0  0  0  0  0  0  0  0  0  0  0  0
   10.0815  -19.8790   21.4422 O   0  0  0  0  0  0  0  0  0  0  0  0
   11.4092  -17.2835   21.2083 C   0  0  0  0  0  0  0  0  0  0  0  0
   11.8004  -18.3813   21.6732 O   0  0  0  0  0  0  0  0  0  0  0  0
    9.1710  -20.7499   19.5671 O   0  0  0  0  0  0  0  0  0  0  0  0
   12.2358  -16.1542   21.3779 N   0  0  0  0  0  0  0  0  0  0  0  0
   13.5123  -16.1402   22.0326 C   0  0  1  0  0  0  0  0  0  0  0  0
   14.4496  -15.0922   21.4888 C   0  0  0  0  0  0  0  0  0  0  0  0
   14.6924  -15.2342   20.0476 C   0  0  0  0  0  0  0  0  0  0  0  0
   14.2547  -16.2535   19.4568 O   0  0  0  0  0  0  0  0  0  0  0  0
   13.4135  -16.0523   23.5058 C   0  0  0  0  0  0  0  0  0  0  0  0
   12.2909  -15.8243   24.0075 O   0  0  0  0  0  0  0  0  0  0  0  0
   15.3887  -14.2754   19.3292 O   0  0  0  0  0  0  0  0  0  0  0  0
   14.5010  -16.2122   24.3048 O   0  0  0  0  0  0  0  0  0  0  0  0
  2  1  1  0
  3  2  1  0
  4  3  1  0
  4  5  1  0
  5  6  1  6
  5  1  1  0
  6  8  1  0
  7  6  2  0
  8  9  1  0
  9 13  1  0
  9 10  1  6
 10 11  1  0
 11 12  2  0
 13 16  1  0
 13 14  2  0
 15 11  1  0
 16 17  1  0
 17 21  1  0
 17 18  1  6
 19 18  1  0
 20 19  2  0
 21 22  2  0
 21 24  1  0
 23 19  1  0
M  END
$$$$
