PDD.pdb
     RDKit          3D

 24 24  0  0  1  0  0  0  0  0999 V2000
    9.3284  -13.5557   18.9637 N   0  0  0  0  0  0  0  0  0  0  0  0
    8.3607  -13.1009   17.9919 C   0  0  0  0  0  0  0  0  0  0  0  0
    7.2446  -12.5577   18.8224 C   0  0  0  0  0  0  0  0  0  0  0  0
    7.1841  -13.5891   19.9542 C   0  0  0  0  0  0  0  0  0  0  0  0
    8.6568  -13.8581   20.1793 C   0  0  1  0  0  0  0  0  0  0  0  0
    8.9403  -15.2361   20.6349 C   0  0  0  0  0  0  0  0  0  0  0  0
    8.3331  -15.7327   21.6133 O   0  0  0  0  0  0  0  0  0  0  0  0
    9.9121  -16.0609   19.9872 N   0  0  0  0  0  0  0  0  0  0  0  0
   10.2631  -17.3786   20.4382 C   0  0  1  0  0  0  0  0  0  0  0  0
   10.7659  -18.2676   19.3275 C   0  0  0  0  0  0  0  0  0  0  0  0
   10.9984  -19.6574   19.7882 C   0  0  0  0  0  0  0  0  0  0  0  0
   10.0912  -20.4865   19.9269 O   0  0  0  0  0  0  0  0  0  0  0  0
   11.2178  -17.3384   21.5869 C   0  0  0  0  0  0  0  0  0  0  0  0
   12.0664  -16.4145   21.6103 O   0  0  0  0  0  0  0  0  0  0  0  0
   12.3004  -20.0388   20.0758 O   0  0  0  0  0  0  0  0  0  0  0  0
   11.2206  -18.2741   22.6413 N   0  0  0  0  0  0  0  0  0  0  0  0
   11.9692  -18.1618   23.8599 C   0  0  1  0  0  0  0  0  0  0  0  0
   11.1178  -18.2949   25.0969 C   0  0  0  0  0  0  0  0  0  0  0  0
   11.8898  -18.1656   26.3393 C   0  0  0  0  0  0  0  0  0  0  0  0
   13.1310  -17.9825   26.2654 O   0  0  0  0  0  0  0  0  0  0  0  0
   13.1350  -19.0705   23.9165 C   0  0  0  0  0  0  0  0  0  0  0  0
   13.9233  -18.9567   24.8805 O   0  0  0  0  0  0  0  0  0  0  0  0
   11.2839  -18.2405   27.5833 O   0  0  0  0  0  0  0  0  0  0  0  0
   13.3571  -20.0069   22.9571 O   0  0  0  0  0  0  0  0  0  0  0  0
  2  1  1  0
  3  2  1  0
  4  3  1  0
  4  5  1  0
  5  6  1  6
  5  1  1  0
  6  8  1  0
  7  6  2  0
  8  9  1  0
  9 13  1  0
  9 10  1  6
 10 11  1  0
 11 12  2  0
 13 16  1  0
 13 14  2  0
 15 11  1  0
 16 17  1  0
 17 21  1  0
 17 18  1  1
 19 18  1  0
 20 19  2  0
 21 22  2  0
 21 24  1  0
 23 19  1  0
M  END
$$$$
