PDD.pdb
     RDKit          3D

 24 24  0  0  1  0  0  0  0  0999 V2000
    9.2458  -13.1467   19.8400 N   0  0  0  0  0  0  0  0  0  0  0  0
    8.9992  -12.3106   18.6877 C   0  0  0  0  0  0  0  0  0  0  0  0
    7.5114  -12.3056   18.5584 C   0  0  0  0  0  0  0  0  0  0  0  0
    7.1779  -13.7662   18.8807 C   0  0  0  0  0  0  0  0  0  0  0  0
    8.1569  -14.0458   20.0012 C   0  0  1  0  0  0  0  0  0  0  0  0
    8.6094  -15.4528   20.0496 C   0  0  0  0  0  0  0  0  0  0  0  0
    7.7859  -16.3964   20.1137 O   0  0  0  0  0  0  0  0  0  0  0  0
    9.9959  -15.8016   20.0260 N   0  0  0  0  0  0  0  0  0  0  0  0
   10.4759  -17.1541   20.0827 C   0  0  1  0  0  0  0  0  0  0  0  0
   10.6144  -17.7882   18.7206 C   0  0  0  0  0  0  0  0  0  0  0  0
   10.8291  -19.2526   18.8069 C   0  0  0  0  0  0  0  0  0  0  0  0
   10.6232  -19.9087   19.8349 O   0  0  0  0  0  0  0  0  0  0  0  0
   11.7392  -17.2642   20.8729 C   0  0  0  0  0  0  0  0  0  0  0  0
   12.8069  -17.4630   20.2446 O   0  0  0  0  0  0  0  0  0  0  0  0
   11.2833  -19.9119   17.6745 O   0  0  0  0  0  0  0  0  0  0  0  0
   11.8010  -17.1582   22.2774 N   0  0  0  0  0  0  0  0  0  0  0  0
   12.9874  -16.9237   23.0490 C   0  0  1  0  0  0  0  0  0  0  0  0
   13.7476  -15.6963   22.6154 C   0  0  0  0  0  0  0  0  0  0  0  0
   14.9112  -16.0106   21.7767 C   0  0  0  0  0  0  0  0  0  0  0  0
   15.0568  -17.1867   21.3583 O   0  0  0  0  0  0  0  0  0  0  0  0
   12.7436  -16.9104   24.5079 C   0  0  0  0  0  0  0  0  0  0  0  0
   11.5614  -16.8223   24.9059 O   0  0  0  0  0  0  0  0  0  0  0  0
   15.8460  -15.0453   21.4382 O   0  0  0  0  0  0  0  0  0  0  0  0
   13.7632  -16.9905   25.4026 O   0  0  0  0  0  0  0  0  0  0  0  0
  2  1  1  0
  3  2  1  0
  4  3  1  0
  4  5  1  0
  5  6  1  6
  5  1  1  0
  6  8  1  0
  7  6  2  0
  8  9  1  0
  9 13  1  0
  9 10  1  6
 10 11  1  0
 11 12  2  0
 13 16  1  0
 13 14  2  0
 15 11  1  0
 16 17  1  0
 17 21  1  0
 17 18  1  6
 19 18  1  0
 20 19  2  0
 21 22  2  0
 21 24  1  0
 23 19  1  0
M  END
$$$$
