PDD.pdb
     RDKit          3D

 24 24  0  0  1  0  0  0  0  0999 V2000
    8.5748  -13.6813   20.4074 N   0  0  0  0  0  0  0  0  0  0  0  0
    8.7143  -12.3489   19.8660 C   0  0  0  0  0  0  0  0  0  0  0  0
    7.5986  -12.2429   18.8788 C   0  0  0  0  0  0  0  0  0  0  0  0
    7.6269  -13.6374   18.2441 C   0  0  0  0  0  0  0  0  0  0  0  0
    7.9099  -14.5007   19.4551 C   0  0  1  0  0  0  0  0  0  0  0  0
    8.6878  -15.7184   19.1407 C   0  0  0  0  0  0  0  0  0  0  0  0
    8.2369  -16.5922   18.3623 O   0  0  0  0  0  0  0  0  0  0  0  0
    9.9800  -15.9559   19.7047 N   0  0  0  0  0  0  0  0  0  0  0  0
   10.8175  -17.0622   19.3340 C   0  0  1  0  0  0  0  0  0  0  0  0
   10.8933  -17.2703   17.8415 C   0  0  0  0  0  0  0  0  0  0  0  0
   10.3839  -18.6028   17.4381 C   0  0  0  0  0  0  0  0  0  0  0  0
    9.9850  -18.8589   16.2958 O   0  0  0  0  0  0  0  0  0  0  0  0
   12.1768  -16.9616   19.9462 C   0  0  0  0  0  0  0  0  0  0  0  0
   12.8072  -15.8869   19.7980 O   0  0  0  0  0  0  0  0  0  0  0  0
   10.3567  -19.6064   18.3949 O   0  0  0  0  0  0  0  0  0  0  0  0
   12.7897  -17.9995   20.6774 N   0  0  0  0  0  0  0  0  0  0  0  0
   13.2179  -17.9223   22.0444 C   0  0  1  0  0  0  0  0  0  0  0  0
   12.1772  -17.3338   22.9627 C   0  0  0  0  0  0  0  0  0  0  0  0
   12.6954  -16.2313   23.7826 C   0  0  0  0  0  0  0  0  0  0  0  0
   13.9246  -15.9724   23.7429 O   0  0  0  0  0  0  0  0  0  0  0  0
   13.7267  -19.2072   22.5717 C   0  0  0  0  0  0  0  0  0  0  0  0
   14.9179  -19.2579   22.9488 O   0  0  0  0  0  0  0  0  0  0  0  0
   11.8646  -15.4750   24.5937 O   0  0  0  0  0  0  0  0  0  0  0  0
   12.9360  -20.3095   22.6506 O   0  0  0  0  0  0  0  0  0  0  0  0
  2  1  1  0
  3  2  1  0
  4  3  1  0
  4  5  1  0
  5  6  1  6
  5  1  1  0
  6  8  1  0
  7  6  2  0
  8  9  1  0
  9 13  1  0
  9 10  1  6
 10 11  1  0
 11 12  2  0
 13 16  1  0
 13 14  2  0
 15 11  1  0
 16 17  1  0
 17 21  1  0
 17 18  1  1
 19 18  1  0
 20 19  2  0
 21 22  2  0
 21 24  1  0
 23 19  1  0
M  END
$$$$
