PDD.pdb
     RDKit          3D

 24 24  0  0  1  0  0  0  0  0999 V2000
    9.2681  -13.5613   18.7792 N   0  0  0  0  0  0  0  0  0  0  0  0
    8.3395  -13.1086   17.7689 C   0  0  0  0  0  0  0  0  0  0  0  0
    7.1270  -12.7129   18.5459 C   0  0  0  0  0  0  0  0  0  0  0  0
    7.0677  -13.8271   19.5963 C   0  0  0  0  0  0  0  0  0  0  0  0
    8.5371  -14.0021   19.9157 C   0  0  1  0  0  0  0  0  0  0  0  0
    8.8958  -15.3853   20.2963 C   0  0  0  0  0  0  0  0  0  0  0  0
    8.2287  -16.0159   21.1507 O   0  0  0  0  0  0  0  0  0  0  0  0
   10.0112  -16.0640   19.7134 N   0  0  0  0  0  0  0  0  0  0  0  0
   10.4687  -17.3555   20.1439 C   0  0  1  0  0  0  0  0  0  0  0  0
   11.0914  -18.1618   19.0308 C   0  0  0  0  0  0  0  0  0  0  0  0
   11.4448  -19.5339   19.4671 C   0  0  0  0  0  0  0  0  0  0  0  0
   10.6020  -20.3986   19.7345 O   0  0  0  0  0  0  0  0  0  0  0  0
   11.3748  -17.2593   21.3281 C   0  0  0  0  0  0  0  0  0  0  0  0
   12.2548  -16.3651   21.3204 O   0  0  0  0  0  0  0  0  0  0  0  0
   12.7892  -19.8557   19.5783 O   0  0  0  0  0  0  0  0  0  0  0  0
   11.2987  -18.1112   22.4488 N   0  0  0  0  0  0  0  0  0  0  0  0
   12.1288  -18.0368   23.6165 C   0  0  1  0  0  0  0  0  0  0  0  0
   11.3451  -18.0028   24.9038 C   0  0  0  0  0  0  0  0  0  0  0  0
   11.2752  -16.6608   25.4958 C   0  0  0  0  0  0  0  0  0  0  0  0
   11.9445  -15.7332   24.9752 O   0  0  0  0  0  0  0  0  0  0  0  0
   13.1751  -19.0815   23.6583 C   0  0  0  0  0  0  0  0  0  0  0  0
   13.0152  -20.1026   22.9543 O   0  0  0  0  0  0  0  0  0  0  0  0
   10.4925  -16.3963   26.6083 O   0  0  0  0  0  0  0  0  0  0  0  0
   14.2833  -18.9510   24.4338 O   0  0  0  0  0  0  0  0  0  0  0  0
  2  1  1  0
  3  2  1  0
  4  3  1  0
  4  5  1  0
  5  6  1  6
  5  1  1  0
  6  8  1  0
  7  6  2  0
  8  9  1  0
  9 13  1  0
  9 10  1  6
 10 11  1  0
 11 12  2  0
 13 16  1  0
 13 14  2  0
 15 11  1  0
 16 17  1  0
 17 21  1  0
 17 18  1  1
 19 18  1  0
 20 19  2  0
 21 22  2  0
 21 24  1  0
 23 19  1  0
M  END
$$$$
