PDD.pdb
     RDKit          3D

 24 24  0  0  1  0  0  0  0  0999 V2000
    8.8729  -14.2700   18.0466 N   0  0  0  0  0  0  0  0  0  0  0  0
    7.7788  -13.7374   17.2675 C   0  0  0  0  0  0  0  0  0  0  0  0
    7.3508  -12.5261   18.0292 C   0  0  0  0  0  0  0  0  0  0  0  0
    7.4591  -13.0269   19.4735 C   0  0  0  0  0  0  0  0  0  0  0  0
    8.7236  -13.8559   19.3981 C   0  0  1  0  0  0  0  0  0  0  0  0
    8.7298  -15.0055   20.3283 C   0  0  0  0  0  0  0  0  0  0  0  0
    8.4873  -14.8524   21.5491 O   0  0  0  0  0  0  0  0  0  0  0  0
    9.0104  -16.3352   19.8839 N   0  0  0  0  0  0  0  0  0  0  0  0
    9.0951  -17.4661   20.7652 C   0  0  1  0  0  0  0  0  0  0  0  0
    8.6486  -18.7535   20.1172 C   0  0  0  0  0  0  0  0  0  0  0  0
    7.3153  -18.6244   19.4820 C   0  0  0  0  0  0  0  0  0  0  0  0
    6.3246  -18.1744   20.0701 O   0  0  0  0  0  0  0  0  0  0  0  0
   10.4535  -17.5976   21.3736 C   0  0  0  0  0  0  0  0  0  0  0  0
   11.4181  -17.8324   20.6064 O   0  0  0  0  0  0  0  0  0  0  0  0
    7.1805  -19.0304   18.1627 O   0  0  0  0  0  0  0  0  0  0  0  0
   10.7132  -17.4738   22.7537 N   0  0  0  0  0  0  0  0  0  0  0  0
   12.0085  -17.5074   23.3694 C   0  0  1  0  0  0  0  0  0  0  0  0
   13.0119  -16.6058   22.6965 C   0  0  0  0  0  0  0  0  0  0  0  0
   14.3421  -16.6678   23.3153 C   0  0  0  0  0  0  0  0  0  0  0  0
   14.8632  -17.7930   23.5206 O   0  0  0  0  0  0  0  0  0  0  0  0
   11.9697  -17.2647   24.8280 C   0  0  0  0  0  0  0  0  0  0  0  0
   10.9005  -16.8507   25.3272 O   0  0  0  0  0  0  0  0  0  0  0  0
   15.0312  -15.5208   23.6753 O   0  0  0  0  0  0  0  0  0  0  0  0
   13.0553  -17.4801   25.6164 O   0  0  0  0  0  0  0  0  0  0  0  0
  2  1  1  0
  3  2  1  0
  4  3  1  0
  4  5  1  0
  5  6  1  1
  5  1  1  0
  6  8  1  0
  7  6  2  0
  8  9  1  0
  9 13  1  0
  9 10  1  6
 10 11  1  0
 11 12  2  0
 13 16  1  0
 13 14  2  0
 15 11  1  0
 16 17  1  0
 17 21  1  0
 17 18  1  6
 19 18  1  0
 20 19  2  0
 21 22  2  0
 21 24  1  0
 23 19  1  0
M  END
$$$$
