PDD.pdb
     RDKit          3D

 24 24  0  0  1  0  0  0  0  0999 V2000
    9.3521  -13.9814   18.5981 N   0  0  0  0  0  0  0  0  0  0  0  0
    8.3165  -13.6682   17.6403 C   0  0  0  0  0  0  0  0  0  0  0  0
    7.3654  -12.8088   18.4068 C   0  0  0  0  0  0  0  0  0  0  0  0
    7.3527  -13.5153   19.7666 C   0  0  0  0  0  0  0  0  0  0  0  0
    8.8116  -13.8934   19.9097 C   0  0  1  0  0  0  0  0  0  0  0  0
    9.0238  -15.1406   20.6755 C   0  0  0  0  0  0  0  0  0  0  0  0
    8.3298  -15.4065   21.6856 O   0  0  0  0  0  0  0  0  0  0  0  0
   10.0219  -16.0945   20.3040 N   0  0  0  0  0  0  0  0  0  0  0  0
   10.3005  -17.2863   21.0555 C   0  0  1  0  0  0  0  0  0  0  0  0
   11.1718  -18.2651   20.3074 C   0  0  0  0  0  0  0  0  0  0  0  0
   10.4826  -18.8333   19.1242 C   0  0  0  0  0  0  0  0  0  0  0  0
    9.2516  -18.8868   19.0173 O   0  0  0  0  0  0  0  0  0  0  0  0
   10.8560  -16.9755   22.4073 C   0  0  0  0  0  0  0  0  0  0  0  0
   11.8671  -16.2351   22.4683 O   0  0  0  0  0  0  0  0  0  0  0  0
   11.2641  -19.3273   18.0904 O   0  0  0  0  0  0  0  0  0  0  0  0
   10.3125  -17.4637   23.6130 N   0  0  0  0  0  0  0  0  0  0  0  0
   10.8043  -17.1789   24.9303 C   0  0  1  0  0  0  0  0  0  0  0  0
    9.7170  -16.8008   25.9036 C   0  0  0  0  0  0  0  0  0  0  0  0
    8.9431  -15.6304   25.4704 C   0  0  0  0  0  0  0  0  0  0  0  0
    7.7287  -15.7794   25.1828 O   0  0  0  0  0  0  0  0  0  0  0  0
   11.6603  -18.2525   25.4802 C   0  0  0  0  0  0  0  0  0  0  0  0
   12.2275  -18.0494   26.5760 O   0  0  0  0  0  0  0  0  0  0  0  0
    9.5183  -14.3735   25.3725 O   0  0  0  0  0  0  0  0  0  0  0  0
   11.8358  -19.4307   24.8263 O   0  0  0  0  0  0  0  0  0  0  0  0
  2  1  1  0
  3  2  1  0
  4  3  1  0
  4  5  1  0
  5  6  1  6
  5  1  1  0
  6  8  1  0
  7  6  2  0
  8  9  1  0
  9 13  1  0
  9 10  1  6
 10 11  1  0
 11 12  2  0
 13 16  1  0
 13 14  2  0
 15 11  1  0
 16 17  1  0
 17 21  1  0
 17 18  1  1
 19 18  1  0
 20 19  2  0
 21 22  2  0
 21 24  1  0
 23 19  1  0
M  END
$$$$
