PDD.pdb
     RDKit          3D

 24 24  0  0  1  0  0  0  0  0999 V2000
    8.2271  -14.5648   18.5919 N   0  0  0  0  0  0  0  0  0  0  0  0
    7.0947  -13.9539   17.9343 C   0  0  0  0  0  0  0  0  0  0  0  0
    7.1354  -12.5332   18.3930 C   0  0  0  0  0  0  0  0  0  0  0  0
    7.5210  -12.7052   19.8662 C   0  0  0  0  0  0  0  0  0  0  0  0
    8.5279  -13.8318   19.7719 C   0  0  1  0  0  0  0  0  0  0  0  0
    8.5510  -14.7018   20.9675 C   0  0  0  0  0  0  0  0  0  0  0  0
    8.8321  -14.2404   22.0992 O   0  0  0  0  0  0  0  0  0  0  0  0
    8.2565  -16.0989   20.8908 N   0  0  0  0  0  0  0  0  0  0  0  0
    8.1877  -16.9604   22.0379 C   0  0  1  0  0  0  0  0  0  0  0  0
    7.2510  -18.1272   21.8438 C   0  0  0  0  0  0  0  0  0  0  0  0
    7.0870  -18.9225   23.0842 C   0  0  0  0  0  0  0  0  0  0  0  0
    8.0322  -19.2405   23.8157 O   0  0  0  0  0  0  0  0  0  0  0  0
    9.5427  -17.4091   22.4798 C   0  0  0  0  0  0  0  0  0  0  0  0
   10.3490  -17.7913   21.5977 O   0  0  0  0  0  0  0  0  0  0  0  0
    5.8072  -19.3260   23.4345 O   0  0  0  0  0  0  0  0  0  0  0  0
    9.9661  -17.4278   23.8244 N   0  0  0  0  0  0  0  0  0  0  0  0
   11.3161  -17.2624   24.2806 C   0  0  1  0  0  0  0  0  0  0  0  0
   12.0160  -16.0823   23.6560 C   0  0  0  0  0  0  0  0  0  0  0  0
   13.2362  -16.4588   22.9310 C   0  0  0  0  0  0  0  0  0  0  0  0
   13.5387  -15.8297   21.8859 O   0  0  0  0  0  0  0  0  0  0  0  0
   11.4363  -17.2327   25.7546 C   0  0  0  0  0  0  0  0  0  0  0  0
   12.5765  -17.0938   26.2491 O   0  0  0  0  0  0  0  0  0  0  0  0
   14.0562  -17.4856   23.3708 O   0  0  0  0  0  0  0  0  0  0  0  0
   10.3496  -17.3518   26.5617 O   0  0  0  0  0  0  0  0  0  0  0  0
  2  1  1  0
  3  2  1  0
  4  3  1  0
  4  5  1  0
  5  6  1  1
  5  1  1  0
  6  8  1  0
  7  6  2  0
  8  9  1  0
  9 13  1  0
  9 10  1  6
 10 11  1  0
 11 12  2  0
 13 16  1  0
 13 14  2  0
 15 11  1  0
 16 17  1  0
 17 21  1  0
 17 18  1  6
 19 18  1  0
 20 19  2  0
 21 22  2  0
 21 24  1  0
 23 19  1  0
M  END
$$$$
