YQK.pdb
     RDKit          3D

 31 31  0  0  1  0  0  0  0  0999 V2000
   10.4777  -11.9389   20.3107 O   0  0  0  0  0  0  0  0  0  0  0  0
    9.4491  -12.8704   20.4204 C   0  0  0  0  0  0  0  0  0  0  0  0
    9.5148  -13.7692   21.4491 C   0  0  0  0  0  0  0  0  0  0  0  0
    8.5454  -14.7031   21.6128 C   0  0  0  0  0  0  0  0  0  0  0  0
    7.4834  -14.7577   20.7456 C   0  0  0  0  0  0  0  0  0  0  0  0
    6.4234  -15.7797   20.9257 C   0  0  0  0  0  0  0  0  0  0  0  0
    6.7884  -17.0274   20.1202 C   0  0  2  0  0  0  0  0  0  0  0  0
    5.7337  -17.9898   20.2403 N   0  0  0  0  0  0  0  0  0  0  0  0
    8.0566  -17.5441   20.7454 C   0  0  0  0  0  0  0  0  0  0  0  0
    8.0568  -18.1710   21.8309 O   0  0  0  0  0  0  0  0  0  0  0  0
    7.4112  -13.8632   19.7160 C   0  0  0  0  0  0  0  0  0  0  0  0
    8.3820  -12.9287   19.5527 C   0  0  0  0  0  0  0  0  0  0  0  0
   13.1566  -21.0475   18.7407 N   0  0  0  0  0  0  0  0  0  0  0  0
   13.0854  -19.6596   18.5163 C   0  0  0  0  0  0  0  0  0  0  0  0
   13.2651  -19.2228   17.3582 O   0  0  0  0  0  0  0  0  0  0  0  0
   12.7984  -18.6803   19.6318 C   0  0  0  0  0  0  0  0  0  0  0  0
   11.4651  -18.1031   19.3881 C   0  0  0  0  0  0  0  0  0  0  0  0
   10.5487  -17.9766   20.5492 C   0  0  2  0  0  0  0  0  0  0  0  0
    9.2967  -17.3272   20.1063 N   0  0  0  0  0  0  0  0  0  0  0  0
   10.9977  -17.2084   21.7017 C   0  0  0  0  0  0  0  0  0  0  0  0
   11.0995  -15.9603   21.6174 O   0  0  0  0  0  0  0  0  0  0  0  0
   11.3189  -17.8275   22.9245 N   0  0  0  0  0  0  0  0  0  0  0  0
   11.8721  -17.0167   24.0638 C   0  0  1  0  0  0  0  0  0  0  0  0
   11.6750  -17.8342   25.2699 C   0  0  0  0  0  0  0  0  0  0  0  0
   12.1217  -17.4689   26.5959 C   0  0  0  0  0  0  0  0  0  0  0  0
   11.9610  -18.2754   27.7982 C   0  0  0  0  0  0  0  0  0  0  0  0
   12.4081  -17.6449   29.0568 C   0  0  0  0  0  0  0  0  0  0  0  0
   12.0894  -18.4805   30.2269 N   0  0  0  0  0  0  0  0  0  0  0  0
   13.3196  -16.8082   23.8035 C   0  0  0  0  0  0  0  0  0  0  0  0
   13.9826  -17.7503   23.3087 O   0  0  0  0  0  0  0  0  0  0  0  0
   13.9246  -15.5844   24.1064 O   0  0  0  0  0  0  0  0  0  0  0  0
  2  1  1  0
  3  2  2  0
  4  3  1  0
  5 11  1  0
  5  4  2  0
  6  5  1  0
  7  9  1  0
  7  6  1  0
  7  8  1  1
  9 10  2  0
 11 12  2  0
 12  2  1  0
 13 14  1  0
 14 15  2  0
 16 14  1  0
 17 16  1  0
 18 17  1  6
 19 18  1  0
 19  9  1  0
 20 18  1  0
 21 20  2  0
 22 20  1  0
 23 29  1  0
 23 22  1  0
 23 24  1  1
 25 24  1  0
 26 25  1  0
 26 27  1  0
 27 28  1  0
 29 31  1  0
 30 29  2  0
M  END
$$$$
