YQK.pdb
     RDKit          3D

 31 31  0  0  1  0  0  0  0  0999 V2000
    7.4596  -13.2283   15.3499 O   0  0  0  0  0  0  0  0  0  0  0  0
    7.5731  -13.8565   16.5869 C   0  0  0  0  0  0  0  0  0  0  0  0
    7.8190  -13.0690   17.6777 C   0  0  0  0  0  0  0  0  0  0  0  0
    7.9408  -13.6175   18.9118 C   0  0  0  0  0  0  0  0  0  0  0  0
    7.8182  -14.9736   19.0816 C   0  0  0  0  0  0  0  0  0  0  0  0
    7.9516  -15.5725   20.4322 C   0  0  0  0  0  0  0  0  0  0  0  0
    9.3948  -15.4108   20.9118 C   0  0  2  0  0  0  0  0  0  0  0  0
   10.2823  -15.9370   19.9176 N   0  0  0  0  0  0  0  0  0  0  0  0
    9.4808  -16.2128   22.1828 C   0  0  0  0  0  0  0  0  0  0  0  0
    8.6573  -16.0708   23.1171 O   0  0  0  0  0  0  0  0  0  0  0  0
    7.5726  -15.7662   17.9969 C   0  0  0  0  0  0  0  0  0  0  0  0
    7.4509  -15.2165   16.7618 C   0  0  0  0  0  0  0  0  0  0  0  0
   14.0223  -20.3932   22.9103 N   0  0  0  0  0  0  0  0  0  0  0  0
   13.4962  -20.4311   24.2155 C   0  0  0  0  0  0  0  0  0  0  0  0
   14.0400  -21.1684   25.0669 O   0  0  0  0  0  0  0  0  0  0  0  0
   12.2943  -19.6083   24.6201 C   0  0  0  0  0  0  0  0  0  0  0  0
   11.8697  -18.8286   23.4444 C   0  0  0  0  0  0  0  0  0  0  0  0
   10.7356  -17.8864   23.6181 C   0  0  2  0  0  0  0  0  0  0  0  0
   10.5136  -17.1609   22.3494 N   0  0  0  0  0  0  0  0  0  0  0  0
   10.8458  -16.8557   24.6405 C   0  0  0  0  0  0  0  0  0  0  0  0
   11.6402  -15.8980   24.4769 O   0  0  0  0  0  0  0  0  0  0  0  0
   10.0754  -16.8958   25.8181 N   0  0  0  0  0  0  0  0  0  0  0  0
   10.1848  -15.7931   26.8348 C   0  0  1  0  0  0  0  0  0  0  0  0
    9.0069  -14.9382   26.6267 C   0  0  0  0  0  0  0  0  0  0  0  0
    8.6649  -13.7929   27.4408 C   0  0  0  0  0  0  0  0  0  0  0  0
    7.4707  -12.9721   27.2927 C   0  0  0  0  0  0  0  0  0  0  0  0
    7.2919  -11.9128   28.3064 C   0  0  0  0  0  0  0  0  0  0  0  0
    6.0341  -11.1738   28.1047 N   0  0  0  0  0  0  0  0  0  0  0  0
   10.1454  -16.4200   28.1809 C   0  0  0  0  0  0  0  0  0  0  0  0
   10.4924  -15.7357   29.1725 O   0  0  0  0  0  0  0  0  0  0  0  0
    9.7292  -17.7463   28.3326 O   0  0  0  0  0  0  0  0  0  0  0  0
  2  1  1  0
  3  2  2  0
  4  3  1  0
  5 11  1  0
  5  4  2  0
  6  5  1  0
  7  9  1  0
  7  6  1  0
  7  8  1  6
  9 10  2  0
 11 12  2  0
 12  2  1  0
 13 14  1  0
 14 15  2  0
 16 14  1  0
 17 16  1  0
 18 17  1  6
 19 18  1  0
 19  9  1  0
 20 18  1  0
 21 20  2  0
 22 20  1  0
 23 29  1  0
 23 22  1  0
 23 24  1  1
 25 24  1  0
 26 25  1  0
 26 27  1  0
 27 28  1  0
 29 31  1  0
 30 29  2  0
M  END
$$$$
