YQK.pdb
     RDKit          3D

 31 31  0  0  1  0  0  0  0  0999 V2000
    5.4700  -10.1969   25.7322 O   0  0  0  0  0  0  0  0  0  0  0  0
    6.1262  -11.4244   25.7524 C   0  0  0  0  0  0  0  0  0  0  0  0
    7.3031  -11.5254   25.0633 C   0  0  0  0  0  0  0  0  0  0  0  0
    7.9927  -12.6929   25.0421 C   0  0  0  0  0  0  0  0  0  0  0  0
    7.5162  -13.7904   25.7140 C   0  0  0  0  0  0  0  0  0  0  0  0
    8.2714  -15.0669   25.6902 C   0  0  0  0  0  0  0  0  0  0  0  0
    7.5514  -16.0580   24.7746 C   0  0  2  0  0  0  0  0  0  0  0  0
    6.4103  -16.5879   25.4602 N   0  0  0  0  0  0  0  0  0  0  0  0
    8.5583  -17.1419   24.4964 C   0  0  0  0  0  0  0  0  0  0  0  0
    8.5905  -18.2067   25.1571 O   0  0  0  0  0  0  0  0  0  0  0  0
    6.3415  -13.6967   26.4043 C   0  0  0  0  0  0  0  0  0  0  0  0
    5.6518  -12.5278   26.4251 C   0  0  0  0  0  0  0  0  0  0  0  0
   12.0773  -18.3272   18.8974 N   0  0  0  0  0  0  0  0  0  0  0  0
   12.7627  -18.0154   20.0868 C   0  0  0  0  0  0  0  0  0  0  0  0
   13.7851  -17.2974   20.0267 O   0  0  0  0  0  0  0  0  0  0  0  0
   12.3016  -18.5214   21.4347 C   0  0  0  0  0  0  0  0  0  0  0  0
   11.1931  -17.6595   21.8805 C   0  0  0  0  0  0  0  0  0  0  0  0
   10.5845  -17.9521   23.2026 C   0  0  2  0  0  0  0  0  0  0  0  0
    9.5060  -16.9753   23.4633 N   0  0  0  0  0  0  0  0  0  0  0  0
   11.4397  -17.9095   24.3802 C   0  0  0  0  0  0  0  0  0  0  0  0
   11.7851  -16.8023   24.8598 O   0  0  0  0  0  0  0  0  0  0  0  0
   11.8917  -19.0847   25.0098 N   0  0  0  0  0  0  0  0  0  0  0  0
   12.7283  -19.0043   26.2569 C   0  0  1  0  0  0  0  0  0  0  0  0
   12.1720  -20.0066   27.1776 C   0  0  0  0  0  0  0  0  0  0  0  0
   12.7676  -20.3885   28.4388 C   0  0  0  0  0  0  0  0  0  0  0  0
   12.2612  -21.4137   29.3411 C   0  0  0  0  0  0  0  0  0  0  0  0
   12.9876  -21.5576   30.6191 C   0  0  0  0  0  0  0  0  0  0  0  0
   12.2808  -22.4555   31.5482 N   0  0  0  0  0  0  0  0  0  0  0  0
   14.1230  -19.3535   25.8836 C   0  0  0  0  0  0  0  0  0  0  0  0
   15.0618  -18.9097   26.5861 O   0  0  0  0  0  0  0  0  0  0  0  0
   14.3771  -20.1607   24.7703 O   0  0  0  0  0  0  0  0  0  0  0  0
  2  1  1  0
  3  2  2  0
  4  3  1  0
  5 11  1  0
  5  4  2  0
  6  5  1  0
  7  9  1  0
  7  6  1  0
  7  8  1  1
  9 10  2  0
 11 12  2  0
 12  2  1  0
 13 14  1  0
 14 15  2  0
 16 14  1  0
 17 16  1  0
 18 17  1  6
 19 18  1  0
 19  9  1  0
 20 18  1  0
 21 20  2  0
 22 20  1  0
 23 29  1  0
 23 22  1  0
 23 24  1  1
 25 24  1  0
 26 25  1  0
 26 27  1  0
 27 28  1  0
 29 31  1  0
 30 29  2  0
M  END
$$$$
