YQK.pdb
     RDKit          3D

 31 31  0  0  1  0  0  0  0  0999 V2000
    4.9961  -10.4291   27.6914 O   0  0  0  0  0  0  0  0  0  0  0  0
    5.7095  -11.4145   27.0148 C   0  0  0  0  0  0  0  0  0  0  0  0
    6.7056  -12.0572   27.6966 C   0  0  0  0  0  0  0  0  0  0  0  0
    7.4388  -13.0271   27.0961 C   0  0  0  0  0  0  0  0  0  0  0  0
    7.1891  -13.3765   25.7928 C   0  0  0  0  0  0  0  0  0  0  0  0
    7.9917  -14.4376   25.1369 C   0  0  0  0  0  0  0  0  0  0  0  0
    7.0483  -15.4357   24.4640 C   0  0  2  0  0  0  0  0  0  0  0  0
    6.4199  -16.2401   25.4696 N   0  0  0  0  0  0  0  0  0  0  0  0
    7.9292  -16.2775   23.5801 C   0  0  0  0  0  0  0  0  0  0  0  0
    8.2522  -17.4500   23.8840 O   0  0  0  0  0  0  0  0  0  0  0  0
    6.1958  -12.7390   25.1057 C   0  0  0  0  0  0  0  0  0  0  0  0
    5.4623  -11.7681   25.7075 C   0  0  0  0  0  0  0  0  0  0  0  0
    8.7951  -18.3504   19.0103 N   0  0  0  0  0  0  0  0  0  0  0  0
    7.7941  -17.3714   18.8642 C   0  0  0  0  0  0  0  0  0  0  0  0
    6.7272  -17.6768   18.2874 O   0  0  0  0  0  0  0  0  0  0  0  0
    7.9686  -15.9622   19.3828 C   0  0  0  0  0  0  0  0  0  0  0  0
    9.2507  -15.9074   20.1064 C   0  0  0  0  0  0  0  0  0  0  0  0
    9.3020  -16.5153   21.4599 C   0  0  2  0  0  0  0  0  0  0  0  0
    8.4188  -15.7501   22.3654 N   0  0  0  0  0  0  0  0  0  0  0  0
   10.5889  -16.5818   22.1377 C   0  0  0  0  0  0  0  0  0  0  0  0
   11.2399  -15.5288   22.3439 O   0  0  0  0  0  0  0  0  0  0  0  0
   11.1300  -17.8036   22.5806 N   0  0  0  0  0  0  0  0  0  0  0  0
   12.2182  -17.8203   23.6185 C   0  0  1  0  0  0  0  0  0  0  0  0
   11.6510  -18.5173   24.7822 C   0  0  0  0  0  0  0  0  0  0  0  0
   12.3952  -18.8861   25.9660 C   0  0  0  0  0  0  0  0  0  0  0  0
   11.8438  -19.5351   27.1477 C   0  0  0  0  0  0  0  0  0  0  0  0
   12.7641  -19.6640   28.2958 C   0  0  0  0  0  0  0  0  0  0  0  0
   12.0916  -20.2470   29.4691 N   0  0  0  0  0  0  0  0  0  0  0  0
   13.3612  -18.5846   23.0564 C   0  0  0  0  0  0  0  0  0  0  0  0
   14.5194  -18.3085   23.4491 O   0  0  0  0  0  0  0  0  0  0  0  0
   13.1435  -19.5899   22.1091 O   0  0  0  0  0  0  0  0  0  0  0  0
  2  1  1  0
  3  2  2  0
  4  3  1  0
  5 11  1  0
  5  4  2  0
  6  5  1  0
  7  9  1  0
  7  6  1  0
  7  8  1  1
  9 10  2  0
 11 12  2  0
 12  2  1  0
 13 14  1  0
 14 15  2  0
 16 14  1  0
 17 16  1  0
 18 17  1  6
 19 18  1  0
 19  9  1  0
 20 18  1  0
 21 20  2  0
 22 20  1  0
 23 29  1  0
 23 22  1  0
 23 24  1  1
 25 24  1  0
 26 25  1  0
 26 27  1  0
 27 28  1  0
 29 31  1  0
 30 29  2  0
M  END
$$$$
