YQK.pdb
     RDKit          3D

 31 31  0  0  1  0  0  0  0  0999 V2000
    7.6853  -11.1235   18.2335 O   0  0  0  0  0  0  0  0  0  0  0  0
    7.9424  -12.3204   18.8960 C   0  0  0  0  0  0  0  0  0  0  0  0
    9.2371  -12.7594   18.9325 C   0  0  0  0  0  0  0  0  0  0  0  0
    9.5559  -13.9177   19.5615 C   0  0  0  0  0  0  0  0  0  0  0  0
    8.5801  -14.6655   20.1709 C   0  0  0  0  0  0  0  0  0  0  0  0
    8.9300  -15.9324   20.8588 C   0  0  0  0  0  0  0  0  0  0  0  0
    9.1613  -17.0233   19.8122 C   0  0  2  0  0  0  0  0  0  0  0  0
    7.8971  -17.4481   19.2885 N   0  0  0  0  0  0  0  0  0  0  0  0
    9.8363  -18.1458   20.5544 C   0  0  0  0  0  0  0  0  0  0  0  0
    9.1893  -18.9875   21.2209 O   0  0  0  0  0  0  0  0  0  0  0  0
    7.2850  -14.2333   20.1385 C   0  0  0  0  0  0  0  0  0  0  0  0
    6.9666  -13.0738   19.5086 C   0  0  0  0  0  0  0  0  0  0  0  0
   12.8679  -21.9674   18.3905 N   0  0  0  0  0  0  0  0  0  0  0  0
   13.7166  -22.1005   19.5057 C   0  0  0  0  0  0  0  0  0  0  0  0
   14.3755  -23.1546   19.6436 O   0  0  0  0  0  0  0  0  0  0  0  0
   13.8563  -21.0088   20.5422 C   0  0  0  0  0  0  0  0  0  0  0  0
   12.9929  -19.8883   20.1307 C   0  0  0  0  0  0  0  0  0  0  0  0
   11.9566  -19.4313   21.0905 C   0  0  2  0  0  0  0  0  0  0  0  0
   11.2416  -18.2737   20.5125 N   0  0  0  0  0  0  0  0  0  0  0  0
   12.3842  -19.0019   22.4144 C   0  0  0  0  0  0  0  0  0  0  0  0
   12.7669  -17.8200   22.5928 O   0  0  0  0  0  0  0  0  0  0  0  0
   12.3756  -19.8787   23.5157 N   0  0  0  0  0  0  0  0  0  0  0  0
   12.8272  -19.4025   24.8688 C   0  0  1  0  0  0  0  0  0  0  0  0
   12.3546  -20.4126   25.8270 C   0  0  0  0  0  0  0  0  0  0  0  0
   12.4883  -20.3130   27.2635 C   0  0  0  0  0  0  0  0  0  0  0  0
   12.0700  -21.3219   28.2272 C   0  0  0  0  0  0  0  0  0  0  0  0
   12.4391  -21.0571   29.6327 C   0  0  0  0  0  0  0  0  0  0  0  0
   11.8327  -22.0383   30.5484 N   0  0  0  0  0  0  0  0  0  0  0  0
   14.3116  -19.3504   24.8527 C   0  0  0  0  0  0  0  0  0  0  0  0
   14.9349  -20.1982   24.1710 O   0  0  0  0  0  0  0  0  0  0  0  0
   14.9939  -18.3738   25.5848 O   0  0  0  0  0  0  0  0  0  0  0  0
  2  1  1  0
  3  2  2  0
  4  3  1  0
  5 11  1  0
  5  4  2  0
  6  5  1  0
  7  9  1  0
  7  6  1  0
  7  8  1  1
  9 10  2  0
 11 12  2  0
 12  2  1  0
 13 14  1  0
 14 15  2  0
 16 14  1  0
 17 16  1  0
 18 17  1  6
 19 18  1  0
 19  9  1  0
 20 18  1  0
 21 20  2  0
 22 20  1  0
 23 29  1  0
 23 22  1  0
 23 24  1  1
 25 24  1  0
 26 25  1  0
 26 27  1  0
 27 28  1  0
 29 31  1  0
 30 29  2  0
M  END
$$$$
