YQK.pdb
     RDKit          3D

 31 31  0  0  1  0  0  0  0  0999 V2000
   16.2892  -22.4737    9.1128 O   0  0  0  0  0  0  0  0  0  0  0  0
   16.3508  -22.0747   10.4450 C   0  0  0  0  0  0  0  0  0  0  0  0
   15.2367  -22.2635   11.2154 C   0  0  0  0  0  0  0  0  0  0  0  0
   15.2300  -21.8970   12.5210 C   0  0  0  0  0  0  0  0  0  0  0  0
   16.3446  -21.3305   13.0865 C   0  0  0  0  0  0  0  0  0  0  0  0
   16.3360  -20.9300   14.5148 C   0  0  0  0  0  0  0  0  0  0  0  0
   15.4733  -19.6779   14.6789 C   0  0  2  0  0  0  0  0  0  0  0  0
   16.1670  -18.5531   14.1251 N   0  0  0  0  0  0  0  0  0  0  0  0
   15.2923  -19.5150   16.1645 C   0  0  0  0  0  0  0  0  0  0  0  0
   16.0183  -18.7522   16.8444 O   0  0  0  0  0  0  0  0  0  0  0  0
   17.4607  -21.1390   12.3232 C   0  0  0  0  0  0  0  0  0  0  0  0
   17.4667  -21.5061   11.0163 C   0  0  0  0  0  0  0  0  0  0  0  0
    9.8795  -19.7262   18.7017 N   0  0  0  0  0  0  0  0  0  0  0  0
   10.6072  -19.8052   19.9042 C   0  0  0  0  0  0  0  0  0  0  0  0
    9.9901  -19.7512   20.9907 O   0  0  0  0  0  0  0  0  0  0  0  0
   12.1115  -19.9532   19.9232 C   0  0  0  0  0  0  0  0  0  0  0  0
   12.5702  -20.0381   18.5258 C   0  0  0  0  0  0  0  0  0  0  0  0
   14.0338  -20.1067   18.2862 C   0  0  2  0  0  0  0  0  0  0  0  0
   14.2787  -20.2345   16.8340 N   0  0  0  0  0  0  0  0  0  0  0  0
   14.7835  -21.1917   18.9033 C   0  0  0  0  0  0  0  0  0  0  0  0
   14.8552  -22.3052   18.3288 O   0  0  0  0  0  0  0  0  0  0  0  0
   15.4441  -21.0278   20.1355 N   0  0  0  0  0  0  0  0  0  0  0  0
   16.1645  -22.1850   20.7706 C   0  0  1  0  0  0  0  0  0  0  0  0
   17.2654  -21.5946   21.5460 C   0  0  0  0  0  0  0  0  0  0  0  0
   18.2107  -22.3470   22.3408 C   0  0  0  0  0  0  0  0  0  0  0  0
   19.2198  -21.7783   23.2238 C   0  0  0  0  0  0  0  0  0  0  0  0
   20.0276  -22.7530   23.9848 C   0  0  0  0  0  0  0  0  0  0  0  0
   20.9220  -22.0856   24.9459 N   0  0  0  0  0  0  0  0  0  0  0  0
   15.2020  -22.8732   21.6686 C   0  0  0  0  0  0  0  0  0  0  0  0
   15.4051  -24.0760   21.9581 O   0  0  0  0  0  0  0  0  0  0  0  0
   14.0939  -22.1883   22.1771 O   0  0  0  0  0  0  0  0  0  0  0  0
  2  1  1  0
  3  2  2  0
  4  3  1  0
  5 11  1  0
  5  4  2  0
  6  5  1  0
  7  9  1  0
  7  6  1  0
  7  8  1  1
  9 10  2  0
 11 12  2  0
 12  2  1  0
 13 14  1  0
 14 15  2  0
 16 14  1  0
 17 16  1  0
 18 17  1  6
 19 18  1  0
 19  9  1  0
 20 18  1  0
 21 20  2  0
 22 20  1  0
 23 29  1  0
 23 22  1  0
 23 24  1  1
 25 24  1  0
 26 25  1  0
 26 27  1  0
 27 28  1  0
 29 31  1  0
 30 29  2  0
M  END
$$$$
