YQK.pdb
     RDKit          3D

 31 31  0  0  1  0  0  0  0  0999 V2000
    7.1075  -10.8191   27.5124 O   0  0  0  0  0  0  0  0  0  0  0  0
    6.8066  -11.8683   26.6485 C   0  0  0  0  0  0  0  0  0  0  0  0
    5.8893  -12.7918   27.0682 C   0  0  0  0  0  0  0  0  0  0  0  0
    5.5510  -13.8385   26.2752 C   0  0  0  0  0  0  0  0  0  0  0  0
    6.1269  -13.9841   25.0382 C   0  0  0  0  0  0  0  0  0  0  0  0
    5.7560  -15.1295   24.1717 C   0  0  0  0  0  0  0  0  0  0  0  0
    6.8364  -16.2070   24.2758 C   0  0  2  0  0  0  0  0  0  0  0  0
    7.7342  -15.8711   25.3408 N   0  0  0  0  0  0  0  0  0  0  0  0
    7.5480  -16.1821   22.9495 C   0  0  0  0  0  0  0  0  0  0  0  0
    7.3124  -17.0239   22.0511 O   0  0  0  0  0  0  0  0  0  0  0  0
    7.0437  -13.0657   24.6126 C   0  0  0  0  0  0  0  0  0  0  0  0
    7.3818  -12.0181   25.4069 C   0  0  0  0  0  0  0  0  0  0  0  0
    9.4048  -14.9102   18.3657 N   0  0  0  0  0  0  0  0  0  0  0  0
    8.2271  -14.2092   18.6868 C   0  0  0  0  0  0  0  0  0  0  0  0
    7.3001  -14.1655   17.8483 O   0  0  0  0  0  0  0  0  0  0  0  0
    8.0477  -13.5075   20.0137 C   0  0  0  0  0  0  0  0  0  0  0  0
    9.2287  -13.8077   20.8417 C   0  0  0  0  0  0  0  0  0  0  0  0
    9.3179  -15.1608   21.4460 C   0  0  2  0  0  0  0  0  0  0  0  0
    8.5155  -15.1878   22.6873 N   0  0  0  0  0  0  0  0  0  0  0  0
   10.6318  -15.6628   21.8221 C   0  0  0  0  0  0  0  0  0  0  0  0
   11.3020  -15.0613   22.6964 O   0  0  0  0  0  0  0  0  0  0  0  0
   11.1785  -16.8192   21.2344 N   0  0  0  0  0  0  0  0  0  0  0  0
   12.4920  -17.3687   21.7186 C   0  0  1  0  0  0  0  0  0  0  0  0
   12.2841  -18.8146   21.8858 C   0  0  0  0  0  0  0  0  0  0  0  0
   11.4466  -19.4155   22.9001 C   0  0  0  0  0  0  0  0  0  0  0  0
   11.1260  -20.8324   23.0065 C   0  0  0  0  0  0  0  0  0  0  0  0
   10.1812  -21.1963   24.0819 C   0  0  0  0  0  0  0  0  0  0  0  0
    9.9077  -22.6433   24.0991 N   0  0  0  0  0  0  0  0  0  0  0  0
   13.5041  -17.1039   20.6641 C   0  0  0  0  0  0  0  0  0  0  0  0
   14.7124  -17.3129   20.9253 O   0  0  0  0  0  0  0  0  0  0  0  0
   13.1112  -16.6311   19.4081 O   0  0  0  0  0  0  0  0  0  0  0  0
  2  1  1  0
  3  2  2  0
  4  3  1  0
  5 11  1  0
  5  4  2  0
  6  5  1  0
  7  9  1  0
  7  6  1  0
  7  8  1  1
  9 10  2  0
 11 12  2  0
 12  2  1  0
 13 14  1  0
 14 15  2  0
 16 14  1  0
 17 16  1  0
 18 17  1  1
 19 18  1  0
 19  9  1  0
 20 18  1  0
 21 20  2  0
 22 20  1  0
 23 29  1  0
 23 22  1  0
 23 24  1  6
 25 24  1  0
 26 25  1  0
 26 27  1  0
 27 28  1  0
 29 31  1  0
 30 29  2  0
M  END
$$$$
