YQK.pdb
     RDKit          3D

 31 31  0  0  1  0  0  0  0  0999 V2000
    6.4963  -10.3841   26.6968 O   0  0  0  0  0  0  0  0  0  0  0  0
    6.5806  -11.7704   26.6037 C   0  0  0  0  0  0  0  0  0  0  0  0
    7.8071  -12.3146   26.3390 C   0  0  0  0  0  0  0  0  0  0  0  0
    7.9584  -13.6582   26.2354 C   0  0  0  0  0  0  0  0  0  0  0  0
    6.8793  -14.4906   26.3954 C   0  0  0  0  0  0  0  0  0  0  0  0
    7.0461  -15.9602   26.2819 C   0  0  0  0  0  0  0  0  0  0  0  0
    6.2446  -16.4640   25.0807 C   0  0  2  0  0  0  0  0  0  0  0  0
    5.6581  -17.7305   25.4047 N   0  0  0  0  0  0  0  0  0  0  0  0
    7.2489  -16.6094   23.9688 C   0  0  0  0  0  0  0  0  0  0  0  0
    8.0494  -17.5726   23.9158 O   0  0  0  0  0  0  0  0  0  0  0  0
    5.6515  -13.9542   26.6600 C   0  0  0  0  0  0  0  0  0  0  0  0
    5.5007  -12.6091   26.7635 C   0  0  0  0  0  0  0  0  0  0  0  0
    7.6719  -12.2662   19.3583 N   0  0  0  0  0  0  0  0  0  0  0  0
    8.4148  -13.3546   18.8634 C   0  0  0  0  0  0  0  0  0  0  0  0
    8.6143  -13.4424   17.6318 O   0  0  0  0  0  0  0  0  0  0  0  0
    8.9791  -14.4211   19.7743 C   0  0  0  0  0  0  0  0  0  0  0  0
    8.0306  -14.6074   20.8860 C   0  0  0  0  0  0  0  0  0  0  0  0
    8.3388  -15.6642   21.8820 C   0  0  2  0  0  0  0  0  0  0  0  0
    7.3090  -15.6419   22.9423 N   0  0  0  0  0  0  0  0  0  0  0  0
    9.6154  -15.6033   22.5796 C   0  0  0  0  0  0  0  0  0  0  0  0
    9.8648  -14.6361   23.3395 O   0  0  0  0  0  0  0  0  0  0  0  0
   10.5882  -16.6101   22.4324 N   0  0  0  0  0  0  0  0  0  0  0  0
   11.8857  -16.5286   23.1883 C   0  0  1  0  0  0  0  0  0  0  0  0
   11.8019  -17.5532   24.2394 C   0  0  0  0  0  0  0  0  0  0  0  0
   12.8707  -17.8843   25.1556 C   0  0  0  0  0  0  0  0  0  0  0  0
   12.8151  -18.9073   26.1909 C   0  0  0  0  0  0  0  0  0  0  0  0
   13.9716  -18.9534   27.1085 C   0  0  0  0  0  0  0  0  0  0  0  0
   13.8010  -19.9832   28.1474 N   0  0  0  0  0  0  0  0  0  0  0  0
   12.9799  -16.8451   22.2348 C   0  0  0  0  0  0  0  0  0  0  0  0
   13.5395  -17.9643   22.3128 O   0  0  0  0  0  0  0  0  0  0  0  0
   13.3734  -15.9098   21.2726 O   0  0  0  0  0  0  0  0  0  0  0  0
  2  1  1  0
  3  2  2  0
  4  3  1  0
  5 11  1  0
  5  4  2  0
  6  5  1  0
  7  9  1  0
  7  6  1  0
  7  8  1  1
  9 10  2  0
 11 12  2  0
 12  2  1  0
 13 14  1  0
 14 15  2  0
 16 14  1  0
 17 16  1  0
 18 17  1  6
 19 18  1  0
 19  9  1  0
 20 18  1  0
 21 20  2  0
 22 20  1  0
 23 29  1  0
 23 22  1  0
 23 24  1  1
 25 24  1  0
 26 25  1  0
 26 27  1  0
 27 28  1  0
 29 31  1  0
 30 29  2  0
M  END
$$$$
