YQK.pdb
     RDKit          3D

 31 31  0  0  1  0  0  0  0  0999 V2000
    6.7695  -14.9171   23.0811 O   0  0  0  0  0  0  0  0  0  0  0  0
    7.4072  -14.3054   22.0056 C   0  0  0  0  0  0  0  0  0  0  0  0
    6.6400  -13.9569   20.9284 C   0  0  0  0  0  0  0  0  0  0  0  0
    7.1988  -13.3578   19.8478 C   0  0  0  0  0  0  0  0  0  0  0  0
    8.5450  -13.0931   19.8221 C   0  0  0  0  0  0  0  0  0  0  0  0
    9.1551  -12.4376   18.6395 C   0  0  0  0  0  0  0  0  0  0  0  0
    9.3625  -13.4804   17.5401 C   0  0  2  0  0  0  0  0  0  0  0  0
    8.1268  -14.1656   17.3028 N   0  0  0  0  0  0  0  0  0  0  0  0
   10.4014  -14.4250   18.0830 C   0  0  0  0  0  0  0  0  0  0  0  0
   10.1054  -15.5642   18.5143 O   0  0  0  0  0  0  0  0  0  0  0  0
    9.3173  -13.4383   20.8943 C   0  0  0  0  0  0  0  0  0  0  0  0
    8.7573  -14.0381   21.9756 C   0  0  0  0  0  0  0  0  0  0  0  0
   15.3812  -15.8203   14.1960 N   0  0  0  0  0  0  0  0  0  0  0  0
   15.1825  -15.3148   15.4947 C   0  0  0  0  0  0  0  0  0  0  0  0
   16.1731  -14.9258   16.1517 O   0  0  0  0  0  0  0  0  0  0  0  0
   13.8090  -15.2275   16.1201 C   0  0  0  0  0  0  0  0  0  0  0  0
   13.9778  -14.7578   17.5062 C   0  0  0  0  0  0  0  0  0  0  0  0
   12.8507  -14.9760   18.4475 C   0  0  2  0  0  0  0  0  0  0  0  0
   11.7583  -14.0366   18.1169 N   0  0  0  0  0  0  0  0  0  0  0  0
   13.0973  -14.7990   19.8715 C   0  0  0  0  0  0  0  0  0  0  0  0
   13.1932  -13.6420   20.3482 O   0  0  0  0  0  0  0  0  0  0  0  0
   13.2266  -15.8973   20.7425 N   0  0  0  0  0  0  0  0  0  0  0  0
   13.4957  -15.6782   22.2058 C   0  0  1  0  0  0  0  0  0  0  0  0
   12.6230  -16.6224   22.9192 C   0  0  0  0  0  0  0  0  0  0  0  0
   12.6941  -16.9017   24.3363 C   0  0  0  0  0  0  0  0  0  0  0  0
   11.9577  -17.9472   25.0336 C   0  0  0  0  0  0  0  0  0  0  0  0
   12.1437  -17.9938   26.4981 C   0  0  0  0  0  0  0  0  0  0  0  0
   11.2435  -18.9733   27.1299 N   0  0  0  0  0  0  0  0  0  0  0  0
   14.9252  -15.9991   22.4510 C   0  0  0  0  0  0  0  0  0  0  0  0
   15.5421  -16.6820   21.5996 O   0  0  0  0  0  0  0  0  0  0  0  0
   15.5640  -15.5462   23.6096 O   0  0  0  0  0  0  0  0  0  0  0  0
  2  1  1  0
  3  2  2  0
  4  3  1  0
  5 11  1  0
  5  4  2  0
  6  5  1  0
  7  9  1  0
  7  6  1  0
  7  8  1  1
  9 10  2  0
 11 12  2  0
 12  2  1  0
 13 14  1  0
 14 15  2  0
 16 14  1  0
 17 16  1  0
 18 17  1  6
 19 18  1  0
 19  9  1  0
 20 18  1  0
 21 20  2  0
 22 20  1  0
 23 29  1  0
 23 22  1  0
 23 24  1  1
 25 24  1  0
 26 25  1  0
 26 27  1  0
 27 28  1  0
 29 31  1  0
 30 29  2  0
M  END
$$$$
