YQK.pdb
     RDKit          3D

 31 31  0  0  1  0  0  0  0  0999 V2000
    4.3220  -25.5898   22.0404 O   0  0  0  0  0  0  0  0  0  0  0  0
    5.4428  -25.0420   22.6580 C   0  0  0  0  0  0  0  0  0  0  0  0
    6.3780  -24.4441   21.8593 C   0  0  0  0  0  0  0  0  0  0  0  0
    7.4932  -23.8909   22.3971 C   0  0  0  0  0  0  0  0  0  0  0  0
    7.6973  -23.9246   23.7537 C   0  0  0  0  0  0  0  0  0  0  0  0
    8.9175  -23.3191   24.3409 C   0  0  0  0  0  0  0  0  0  0  0  0
   10.1462  -24.0739   23.8313 C   0  0  2  0  0  0  0  0  0  0  0  0
   10.1337  -25.4049   24.3615 N   0  0  0  0  0  0  0  0  0  0  0  0
   11.3284  -23.3021   24.3537 C   0  0  0  0  0  0  0  0  0  0  0  0
   11.8576  -23.5619   25.4600 O   0  0  0  0  0  0  0  0  0  0  0  0
    6.7675  -24.5200   24.5575 C   0  0  0  0  0  0  0  0  0  0  0  0
    5.6514  -25.0736   24.0184 C   0  0  0  0  0  0  0  0  0  0  0  0
   17.2355  -20.7174   22.5510 N   0  0  0  0  0  0  0  0  0  0  0  0
   15.9398  -20.3402   22.1506 C   0  0  0  0  0  0  0  0  0  0  0  0
   15.6677  -20.3083   20.9302 O   0  0  0  0  0  0  0  0  0  0  0  0
   14.8666  -19.9723   23.1498 C   0  0  0  0  0  0  0  0  0  0  0  0
   13.6999  -20.8337   22.8904 C   0  0  0  0  0  0  0  0  0  0  0  0
   13.0044  -21.4198   24.0637 C   0  0  2  0  0  0  0  0  0  0  0  0
   11.8750  -22.2478   23.5902 N   0  0  0  0  0  0  0  0  0  0  0  0
   12.4345  -20.5140   25.0510 C   0  0  0  0  0  0  0  0  0  0  0  0
   13.1624  -19.6498   25.5973 O   0  0  0  0  0  0  0  0  0  0  0  0
   11.0751  -20.5727   25.4118 N   0  0  0  0  0  0  0  0  0  0  0  0
   10.4906  -19.5434   26.3394 C   0  0  1  0  0  0  0  0  0  0  0  0
    9.0680  -19.4437   25.9817 C   0  0  0  0  0  0  0  0  0  0  0  0
    8.5690  -19.1707   24.6521 C   0  0  0  0  0  0  0  0  0  0  0  0
    7.1865  -19.3165   24.2175 C   0  0  0  0  0  0  0  0  0  0  0  0
    6.9523  -19.1694   22.7666 C   0  0  0  0  0  0  0  0  0  0  0  0
    5.5740  -19.5348   22.3983 N   0  0  0  0  0  0  0  0  0  0  0  0
   10.6472  -20.0506   27.7267 C   0  0  0  0  0  0  0  0  0  0  0  0
   11.0111  -21.2386   27.8944 O   0  0  0  0  0  0  0  0  0  0  0  0
   10.3924  -19.2155   28.8190 O   0  0  0  0  0  0  0  0  0  0  0  0
  2  1  1  0
  3  2  2  0
  4  3  1  0
  5 11  1  0
  5  4  2  0
  6  5  1  0
  7  9  1  0
  7  6  1  0
  7  8  1  1
  9 10  2  0
 11 12  2  0
 12  2  1  0
 13 14  1  0
 14 15  2  0
 16 14  1  0
 17 16  1  0
 18 17  1  6
 19 18  1  0
 19  9  1  0
 20 18  1  0
 21 20  2  0
 22 20  1  0
 23 29  1  0
 23 22  1  0
 23 24  1  6
 25 24  1  0
 26 25  1  0
 26 27  1  0
 27 28  1  0
 29 31  1  0
 30 29  2  0
M  END
$$$$
