YQK.pdb
     RDKit          3D

 31 31  0  0  1  0  0  0  0  0999 V2000
    6.2571  -10.1576   27.5886 O   0  0  0  0  0  0  0  0  0  0  0  0
    6.5790  -11.4488   27.1801 C   0  0  0  0  0  0  0  0  0  0  0  0
    5.7206  -12.4557   27.5261 C   0  0  0  0  0  0  0  0  0  0  0  0
    5.9752  -13.7362   27.1597 C   0  0  0  0  0  0  0  0  0  0  0  0
    7.1006  -14.0381   26.4349 C   0  0  0  0  0  0  0  0  0  0  0  0
    7.3779  -15.4393   26.0347 C   0  0  0  0  0  0  0  0  0  0  0  0
    6.3863  -15.8553   24.9472 C   0  0  2  0  0  0  0  0  0  0  0  0
    5.6319  -16.9839   25.4056 N   0  0  0  0  0  0  0  0  0  0  0  0
    7.2346  -16.2264   23.7603 C   0  0  0  0  0  0  0  0  0  0  0  0
    7.7084  -17.3777   23.6140 O   0  0  0  0  0  0  0  0  0  0  0  0
    7.9622  -13.0376   26.0858 C   0  0  0  0  0  0  0  0  0  0  0  0
    7.7068  -11.7560   26.4530 C   0  0  0  0  0  0  0  0  0  0  0  0
    7.0843  -15.9627   18.5302 N   0  0  0  0  0  0  0  0  0  0  0  0
    8.3850  -15.4531   18.3567 C   0  0  0  0  0  0  0  0  0  0  0  0
    9.0238  -15.7602   17.3263 O   0  0  0  0  0  0  0  0  0  0  0  0
    9.0339  -14.5461   19.3773 C   0  0  0  0  0  0  0  0  0  0  0  0
    8.1650  -14.5175   20.5667 C   0  0  0  0  0  0  0  0  0  0  0  0
    8.4062  -15.5374   21.6182 C   0  0  2  0  0  0  0  0  0  0  0  0
    7.5186  -15.2630   22.7681 N   0  0  0  0  0  0  0  0  0  0  0  0
    9.7455  -15.6463   22.1791 C   0  0  0  0  0  0  0  0  0  0  0  0
   10.1560  -14.7766   22.9854 O   0  0  0  0  0  0  0  0  0  0  0  0
   10.6026  -16.7125   21.8471 N   0  0  0  0  0  0  0  0  0  0  0  0
   11.9516  -16.8339   22.5006 C   0  0  1  0  0  0  0  0  0  0  0  0
   12.0017  -18.1900   23.0667 C   0  0  0  0  0  0  0  0  0  0  0  0
   13.1510  -18.7649   23.7299 C   0  0  0  0  0  0  0  0  0  0  0  0
   13.2394  -20.1219   24.2519 C   0  0  0  0  0  0  0  0  0  0  0  0
   14.5082  -20.4682   24.9239 C   0  0  0  0  0  0  0  0  0  0  0  0
   14.5063  -21.8599   25.4056 N   0  0  0  0  0  0  0  0  0  0  0  0
   12.9790  -16.6711   21.4402 C   0  0  0  0  0  0  0  0  0  0  0  0
   14.0962  -16.1967   21.7542 O   0  0  0  0  0  0  0  0  0  0  0  0
   12.6998  -17.0408   20.1209 O   0  0  0  0  0  0  0  0  0  0  0  0
  2  1  1  0
  3  2  2  0
  4  3  1  0
  5 11  1  0
  5  4  2  0
  6  5  1  0
  7  9  1  0
  7  6  1  0
  7  8  1  1
  9 10  2  0
 11 12  2  0
 12  2  1  0
 13 14  1  0
 14 15  2  0
 16 14  1  0
 17 16  1  0
 18 17  1  6
 19 18  1  0
 19  9  1  0
 20 18  1  0
 21 20  2  0
 22 20  1  0
 23 29  1  0
 23 22  1  0
 23 24  1  6
 25 24  1  0
 26 25  1  0
 26 27  1  0
 27 28  1  0
 29 31  1  0
 30 29  2  0
M  END
$$$$
