YQK.pdb
     RDKit          3D

 31 31  0  0  1  0  0  0  0  0999 V2000
    6.6755  -10.3240   27.4945 O   0  0  0  0  0  0  0  0  0  0  0  0
    6.6507  -11.4368   26.6586 C   0  0  0  0  0  0  0  0  0  0  0  0
    5.5454  -12.2407   26.7060 C   0  0  0  0  0  0  0  0  0  0  0  0
    5.4575  -13.3407   25.9178 C   0  0  0  0  0  0  0  0  0  0  0  0
    6.4799  -13.6613   25.0605 C   0  0  0  0  0  0  0  0  0  0  0  0
    6.3826  -14.8648   24.1988 C   0  0  0  0  0  0  0  0  0  0  0  0
    6.6530  -16.1099   25.0447 C   0  0  2  0  0  0  0  0  0  0  0  0
    7.7949  -15.8737   25.8773 N   0  0  0  0  0  0  0  0  0  0  0  0
    6.9329  -17.2077   24.0533 C   0  0  0  0  0  0  0  0  0  0  0  0
    6.0720  -17.5966   23.2294 O   0  0  0  0  0  0  0  0  0  0  0  0
    7.5867  -12.8630   25.0079 C   0  0  0  0  0  0  0  0  0  0  0  0
    7.6740  -11.7621   25.7972 C   0  0  0  0  0  0  0  0  0  0  0  0
   12.1844  -18.9162   20.0015 N   0  0  0  0  0  0  0  0  0  0  0  0
   10.7927  -18.7227   20.0869 C   0  0  0  0  0  0  0  0  0  0  0  0
   10.2439  -17.9155   19.3049 O   0  0  0  0  0  0  0  0  0  0  0  0
    9.9405  -19.4602   21.0946 C   0  0  0  0  0  0  0  0  0  0  0  0
    9.4418  -18.4721   22.0669 C   0  0  0  0  0  0  0  0  0  0  0  0
    8.5209  -18.9554   23.1264 C   0  0  2  0  0  0  0  0  0  0  0  0
    8.1984  -17.8332   24.0329 N   0  0  0  0  0  0  0  0  0  0  0  0
    8.9719  -20.0361   23.9917 C   0  0  0  0  0  0  0  0  0  0  0  0
    9.2584  -21.1530   23.4961 O   0  0  0  0  0  0  0  0  0  0  0  0
    9.1049  -19.8643   25.3825 N   0  0  0  0  0  0  0  0  0  0  0  0
   10.3641  -20.2936   26.0836 C   0  0  1  0  0  0  0  0  0  0  0  0
   11.4630  -19.6054   25.3903 C   0  0  0  0  0  0  0  0  0  0  0  0
   12.7487  -20.1965   25.0922 C   0  0  0  0  0  0  0  0  0  0  0  0
   13.8270  -19.5553   24.3522 C   0  0  0  0  0  0  0  0  0  0  0  0
   15.0273  -20.3846   24.1220 C   0  0  0  0  0  0  0  0  0  0  0  0
   16.0562  -19.6534   23.3632 N   0  0  0  0  0  0  0  0  0  0  0  0
   10.2686  -19.8383   27.4943 C   0  0  0  0  0  0  0  0  0  0  0  0
   11.1130  -20.2594   28.3198 O   0  0  0  0  0  0  0  0  0  0  0  0
    9.2555  -18.9582   27.8873 O   0  0  0  0  0  0  0  0  0  0  0  0
  2  1  1  0
  3  2  2  0
  4  3  1  0
  5 11  1  0
  5  4  2  0
  6  5  1  0
  7  9  1  0
  7  6  1  0
  7  8  1  1
  9 10  2  0
 11 12  2  0
 12  2  1  0
 13 14  1  0
 14 15  2  0
 16 14  1  0
 17 16  1  0
 18 17  1  6
 19 18  1  0
 19  9  1  0
 20 18  1  0
 21 20  2  0
 22 20  1  0
 23 29  1  0
 23 22  1  0
 23 24  1  6
 25 24  1  0
 26 25  1  0
 26 27  1  0
 27 28  1  0
 29 31  1  0
 30 29  2  0
M  END
$$$$
