YQK.pdb
     RDKit          3D

 31 31  0  0  1  0  0  0  0  0999 V2000
    5.6298   -9.9919   26.9454 O   0  0  0  0  0  0  0  0  0  0  0  0
    5.9966  -11.2226   26.4085 C   0  0  0  0  0  0  0  0  0  0  0  0
    6.9843  -11.2325   25.4626 C   0  0  0  0  0  0  0  0  0  0  0  0
    7.3891  -12.3978   24.8993 C   0  0  0  0  0  0  0  0  0  0  0  0
    6.8107  -13.5847   25.2729 C   0  0  0  0  0  0  0  0  0  0  0  0
    7.2543  -14.8587   24.6560 C   0  0  0  0  0  0  0  0  0  0  0  0
    8.5883  -14.6324   23.9432 C   0  0  2  0  0  0  0  0  0  0  0  0
    8.3563  -13.9031   22.7319 N   0  0  0  0  0  0  0  0  0  0  0  0
    9.1150  -16.0106   23.6443 C   0  0  0  0  0  0  0  0  0  0  0  0
    8.9499  -16.9721   24.4314 O   0  0  0  0  0  0  0  0  0  0  0  0
    5.8238  -13.5824   26.2169 C   0  0  0  0  0  0  0  0  0  0  0  0
    5.4190  -12.4156   26.7803 C   0  0  0  0  0  0  0  0  0  0  0  0
    9.2199  -19.7403   19.7921 N   0  0  0  0  0  0  0  0  0  0  0  0
    8.8174  -18.4608   19.3648 C   0  0  0  0  0  0  0  0  0  0  0  0
    7.7836  -18.3515   18.6694 O   0  0  0  0  0  0  0  0  0  0  0  0
    9.5959  -17.2146   19.7202 C   0  0  0  0  0  0  0  0  0  0  0  0
   10.6741  -17.6089   20.6434 C   0  0  0  0  0  0  0  0  0  0  0  0
   10.3797  -17.5744   22.0981 C   0  0  2  0  0  0  0  0  0  0  0  0
    9.8204  -16.2508   22.4451 N   0  0  0  0  0  0  0  0  0  0  0  0
   11.4785  -17.7878   23.0293 C   0  0  0  0  0  0  0  0  0  0  0  0
   12.4465  -16.9891   23.0445 O   0  0  0  0  0  0  0  0  0  0  0  0
   11.4868  -18.8705   23.9289 N   0  0  0  0  0  0  0  0  0  0  0  0
   12.5572  -18.9763   24.9799 C   0  0  1  0  0  0  0  0  0  0  0  0
   11.9248  -19.6381   26.1304 C   0  0  0  0  0  0  0  0  0  0  0  0
   12.5960  -19.9538   27.3718 C   0  0  0  0  0  0  0  0  0  0  0  0
   11.9714  -20.5411   28.5493 C   0  0  0  0  0  0  0  0  0  0  0  0
   12.8230  -20.6209   29.7535 C   0  0  0  0  0  0  0  0  0  0  0  0
   12.0738  -21.1246   30.9171 N   0  0  0  0  0  0  0  0  0  0  0  0
   13.6474  -19.8192   24.4254 C   0  0  0  0  0  0  0  0  0  0  0  0
   13.3706  -20.6384   23.5175 O   0  0  0  0  0  0  0  0  0  0  0  0
   14.9533  -19.6971   24.9102 O   0  0  0  0  0  0  0  0  0  0  0  0
  2  1  1  0
  3  2  2  0
  4  3  1  0
  5 11  1  0
  5  4  2  0
  6  5  1  0
  7  9  1  0
  7  6  1  0
  7  8  1  6
  9 10  2  0
 11 12  2  0
 12  2  1  0
 13 14  1  0
 14 15  2  0
 16 14  1  0
 17 16  1  0
 18 17  1  6
 19 18  1  0
 19  9  1  0
 20 18  1  0
 21 20  2  0
 22 20  1  0
 23 29  1  0
 23 22  1  0
 23 24  1  1
 25 24  1  0
 26 25  1  0
 26 27  1  0
 27 28  1  0
 29 31  1  0
 30 29  2  0
M  END
$$$$
