YQK.pdb
     RDKit          3D

 31 31  0  0  1  0  0  0  0  0999 V2000
    6.7041  -12.9081   15.1786 O   0  0  0  0  0  0  0  0  0  0  0  0
    7.1469  -13.5384   16.3381 C   0  0  0  0  0  0  0  0  0  0  0  0
    6.9458  -12.8929   17.5269 C   0  0  0  0  0  0  0  0  0  0  0  0
    7.3531  -13.4517   18.6934 C   0  0  0  0  0  0  0  0  0  0  0  0
    7.9739  -14.6754   18.6950 C   0  0  0  0  0  0  0  0  0  0  0  0
    8.4189  -15.2857   19.9717 C   0  0  0  0  0  0  0  0  0  0  0  0
    8.2904  -16.8064   19.8718 C   0  0  2  0  0  0  0  0  0  0  0  0
    6.9023  -17.1599   19.8401 N   0  0  0  0  0  0  0  0  0  0  0  0
    8.9494  -17.3408   21.1153 C   0  0  0  0  0  0  0  0  0  0  0  0
    8.3284  -17.4665   22.1968 O   0  0  0  0  0  0  0  0  0  0  0  0
    8.1780  -15.3258   17.5116 C   0  0  0  0  0  0  0  0  0  0  0  0
    7.7701  -14.7659   16.3443 C   0  0  0  0  0  0  0  0  0  0  0  0
   13.8033  -20.9733   20.5537 N   0  0  0  0  0  0  0  0  0  0  0  0
   13.8566  -20.8368   21.9537 C   0  0  0  0  0  0  0  0  0  0  0  0
   14.7224  -21.4746   22.5924 O   0  0  0  0  0  0  0  0  0  0  0  0
   12.8998  -19.9431   22.7096 C   0  0  0  0  0  0  0  0  0  0  0  0
   12.0051  -19.3112   21.7243 C   0  0  0  0  0  0  0  0  0  0  0  0
   10.9868  -18.3582   22.2332 C   0  0  2  0  0  0  0  0  0  0  0  0
   10.3094  -17.7188   21.0853 N   0  0  0  0  0  0  0  0  0  0  0  0
   11.4315  -17.2616   23.0815 C   0  0  0  0  0  0  0  0  0  0  0  0
   12.0996  -16.3218   22.5859 O   0  0  0  0  0  0  0  0  0  0  0  0
   11.1268  -17.2178   24.4551 N   0  0  0  0  0  0  0  0  0  0  0  0
   11.6316  -16.0876   25.3091 C   0  0  1  0  0  0  0  0  0  0  0  0
   10.9132  -16.1995   26.5871 C   0  0  0  0  0  0  0  0  0  0  0  0
   11.2363  -15.4533   27.7829 C   0  0  0  0  0  0  0  0  0  0  0  0
   10.2879  -15.0413   28.8088 C   0  0  0  0  0  0  0  0  0  0  0  0
   10.8555  -14.2693   29.9328 C   0  0  0  0  0  0  0  0  0  0  0  0
    9.8177  -13.8741   30.9002 N   0  0  0  0  0  0  0  0  0  0  0  0
   13.0892  -16.2934   25.5082 C   0  0  0  0  0  0  0  0  0  0  0  0
   13.8464  -15.2946   25.4789 O   0  0  0  0  0  0  0  0  0  0  0  0
   13.6002  -17.5772   25.7233 O   0  0  0  0  0  0  0  0  0  0  0  0
  2  1  1  0
  3  2  2  0
  4  3  1  0
  5 11  1  0
  5  4  2  0
  6  5  1  0
  7  9  1  0
  7  6  1  0
  7  8  1  1
  9 10  2  0
 11 12  2  0
 12  2  1  0
 13 14  1  0
 14 15  2  0
 16 14  1  0
 17 16  1  0
 18 17  1  6
 19 18  1  0
 19  9  1  0
 20 18  1  0
 21 20  2  0
 22 20  1  0
 23 29  1  0
 23 22  1  0
 23 24  1  1
 25 24  1  0
 26 25  1  0
 26 27  1  0
 27 28  1  0
 29 31  1  0
 30 29  2  0
M  END
$$$$
