YQK.pdb
     RDKit          3D

 31 31  0  0  1  0  0  0  0  0999 V2000
    7.7433  -12.6063   16.3575 O   0  0  0  0  0  0  0  0  0  0  0  0
    7.7838  -13.3951   17.5037 C   0  0  0  0  0  0  0  0  0  0  0  0
    8.9946  -13.9105   17.8760 C   0  0  0  0  0  0  0  0  0  0  0  0
    9.1036  -14.6870   18.9824 C   0  0  0  0  0  0  0  0  0  0  0  0
    7.9968  -14.9658   19.7441 C   0  0  0  0  0  0  0  0  0  0  0  0
    8.1173  -15.8153   20.9541 C   0  0  0  0  0  0  0  0  0  0  0  0
    9.5979  -16.0136   21.2817 C   0  0  2  0  0  0  0  0  0  0  0  0
   10.2236  -16.7341   20.2129 N   0  0  0  0  0  0  0  0  0  0  0  0
    9.6165  -16.8204   22.5525 C   0  0  0  0  0  0  0  0  0  0  0  0
    8.9517  -16.4886   23.5621 O   0  0  0  0  0  0  0  0  0  0  0  0
    6.7844  -14.4545   19.3783 C   0  0  0  0  0  0  0  0  0  0  0  0
    6.6760  -13.6773   18.2706 C   0  0  0  0  0  0  0  0  0  0  0  0
   13.0057  -22.1083   23.2304 N   0  0  0  0  0  0  0  0  0  0  0  0
   13.6723  -20.8731   23.3373 C   0  0  0  0  0  0  0  0  0  0  0  0
   14.9173  -20.8442   23.2217 O   0  0  0  0  0  0  0  0  0  0  0  0
   12.9302  -19.5800   23.5875 C   0  0  0  0  0  0  0  0  0  0  0  0
   11.4915  -19.8930   23.6397 C   0  0  0  0  0  0  0  0  0  0  0  0
   10.5523  -18.7687   23.8807 C   0  0  2  0  0  0  0  0  0  0  0  0
   10.4007  -17.9917   22.6323 N   0  0  0  0  0  0  0  0  0  0  0  0
   10.8932  -17.7930   24.9062 C   0  0  0  0  0  0  0  0  0  0  0  0
   11.7736  -16.9287   24.6759 O   0  0  0  0  0  0  0  0  0  0  0  0
   10.2545  -17.7836   26.1606 N   0  0  0  0  0  0  0  0  0  0  0  0
   10.5365  -16.6849   27.1480 C   0  0  1  0  0  0  0  0  0  0  0  0
    9.4432  -15.7145   26.9902 C   0  0  0  0  0  0  0  0  0  0  0  0
    9.4654  -14.3583   27.4920 C   0  0  0  0  0  0  0  0  0  0  0  0
    8.3833  -13.3907   27.3717 C   0  0  0  0  0  0  0  0  0  0  0  0
    8.6449  -12.0611   27.9594 C   0  0  0  0  0  0  0  0  0  0  0  0
    7.4930  -11.1581   27.7959 N   0  0  0  0  0  0  0  0  0  0  0  0
   10.5109  -17.2860   28.5061 C   0  0  0  0  0  0  0  0  0  0  0  0
    9.8918  -18.3632   28.6745 O   0  0  0  0  0  0  0  0  0  0  0  0
   11.1654  -16.6586   29.5707 O   0  0  0  0  0  0  0  0  0  0  0  0
  2  1  1  0
  3  2  2  0
  4  3  1  0
  5 11  1  0
  5  4  2  0
  6  5  1  0
  7  9  1  0
  7  6  1  0
  7  8  1  6
  9 10  2  0
 11 12  2  0
 12  2  1  0
 13 14  1  0
 14 15  2  0
 16 14  1  0
 17 16  1  0
 18 17  1  6
 19 18  1  0
 19  9  1  0
 20 18  1  0
 21 20  2  0
 22 20  1  0
 23 29  1  0
 23 22  1  0
 23 24  1  1
 25 24  1  0
 26 25  1  0
 26 27  1  0
 27 28  1  0
 29 31  1  0
 30 29  2  0
M  END
$$$$
