GEN.pdb
     RDKit          3D

 22 21  0  0  1  0  0  0  0  0999 V2000
   16.0505  -13.3253  -14.1466 N   0  0  0  0  0  0  0  0  0  0  0  0
   15.8917  -11.9072  -14.3872 C   0  0  0  0  0  0  0  0  0  0  0  0
   17.1356  -11.3735  -15.0250 C   0  0  0  0  0  0  0  0  0  0  0  0
   18.2204  -11.9489  -14.8349 O   0  0  0  0  0  0  0  0  0  0  0  0
   17.1075  -10.2169  -15.8510 N   0  0  0  0  0  0  0  0  0  0  0  0
   18.2742   -9.6133  -16.4355 C   0  0  1  0  0  0  0  0  0  0  0  0
   17.9589   -9.2511  -17.8443 C   0  0  0  0  0  0  0  0  0  0  0  0
   18.3853  -10.3302  -18.7808 C   0  0  0  0  0  0  0  0  0  0  0  0
   18.2142  -10.0258  -20.2123 C   0  0  0  0  0  0  0  0  0  0  0  0
   19.1175   -9.4379  -20.8296 O   0  0  0  0  0  0  0  0  0  0  0  0
   18.6909   -8.4006  -15.6629 C   0  0  0  0  0  0  0  0  0  0  0  0
   17.8734   -7.6513  -15.0736 O   0  0  0  0  0  0  0  0  0  0  0  0
   17.0761  -10.3652  -20.9328 O   0  0  0  0  0  0  0  0  0  0  0  0
   22.2329   -5.6814  -12.1995 N   0  0  0  0  0  0  0  0  0  0  0  0
   22.3548   -5.6994  -13.6154 C   0  0  0  0  0  0  0  0  0  0  0  0
   22.8341   -4.6714  -14.1549 O   0  0  0  0  0  0  0  0  0  0  0  0
   21.9210   -6.8968  -14.3629 C   0  0  0  0  0  0  0  0  0  0  0  0
   20.4746   -6.8898  -14.7630 C   0  0  2  0  0  0  0  0  0  0  0  0
   20.0567   -8.0111  -15.5409 N   0  0  0  0  0  0  0  0  0  0  0  0
   20.1112   -5.6118  -15.3648 C   0  0  0  0  0  0  0  0  0  0  0  0
   19.7657   -4.6155  -14.6820 O   0  0  0  0  0  0  0  0  0  0  0  0
   20.1643   -5.5396  -16.7724 O   0  0  0  0  0  0  0  0  0  0  0  0
  1  2  1  0
  2  3  1  0
  3  5  1  0
  3  4  2  0
  5  6  1  0
  6 11  1  0
  6  7  1  6
  8  7  1  0
  9  8  1  0
 10  9  2  0
 11 19  1  0
 11 12  2  0
 13  9  1  0
 14 15  1  0
 15 17  1  0
 16 15  2  0
 18 17  1  6
 18 20  1  0
 19 18  1  0
 20 22  1  0
 21 20  2  0
M  END
$$$$
