GEN.pdb
     RDKit          3D

 22 21  0  0  1  0  0  0  0  0999 V2000
   11.8568  -11.2071  -12.7837 N   0  0  0  0  0  0  0  0  0  0  0  0
   12.1873  -10.0793  -13.6281 C   0  0  0  0  0  0  0  0  0  0  0  0
   13.3503   -9.3459  -13.0375 C   0  0  0  0  0  0  0  0  0  0  0  0
   13.4758   -9.2834  -11.8029 O   0  0  0  0  0  0  0  0  0  0  0  0
   14.3238   -8.7154  -13.8594 N   0  0  0  0  0  0  0  0  0  0  0  0
   15.4374   -7.9580  -13.3562 C   0  0  1  0  0  0  0  0  0  0  0  0
   16.4295   -7.7972  -14.4540 C   0  0  0  0  0  0  0  0  0  0  0  0
   17.6249   -7.0387  -13.9860 C   0  0  0  0  0  0  0  0  0  0  0  0
   18.6850   -6.8505  -14.9920 C   0  0  0  0  0  0  0  0  0  0  0  0
   19.0646   -5.7035  -15.2800 O   0  0  0  0  0  0  0  0  0  0  0  0
   14.9894   -6.6207  -12.8541 C   0  0  0  0  0  0  0  0  0  0  0  0
   14.2064   -5.8771  -13.4951 O   0  0  0  0  0  0  0  0  0  0  0  0
   19.3023   -7.9037  -15.6546 O   0  0  0  0  0  0  0  0  0  0  0  0
   14.9737   -2.8744   -8.0779 N   0  0  0  0  0  0  0  0  0  0  0  0
   14.2321   -3.5002   -9.1162 C   0  0  0  0  0  0  0  0  0  0  0  0
   13.2245   -2.8833   -9.5426 O   0  0  0  0  0  0  0  0  0  0  0  0
   14.6724   -4.8135   -9.6281 C   0  0  0  0  0  0  0  0  0  0  0  0
   14.9827   -4.8363  -11.0962 C   0  0  2  0  0  0  0  0  0  0  0  0
   15.4238   -6.0961  -11.6018 N   0  0  0  0  0  0  0  0  0  0  0  0
   15.8715   -3.7363  -11.4536 C   0  0  0  0  0  0  0  0  0  0  0  0
   15.5526   -2.5309  -11.3007 O   0  0  0  0  0  0  0  0  0  0  0  0
   17.1280   -4.0889  -11.9887 O   0  0  0  0  0  0  0  0  0  0  0  0
  1  2  1  0
  2  3  1  0
  3  5  1  0
  3  4  2  0
  5  6  1  0
  6 11  1  0
  6  7  1  6
  8  7  1  0
  9  8  1  0
 10  9  2  0
 11 19  1  0
 11 12  2  0
 13  9  1  0
 14 15  1  0
 15 17  1  0
 16 15  2  0
 18 17  1  1
 18 20  1  0
 19 18  1  0
 20 22  1  0
 21 20  2  0
M  END
$$$$
