GEN.pdb
     RDKit          3D

 22 21  0  0  1  0  0  0  0  0999 V2000
   25.6239  -15.8830  -17.4422 N   0  0  0  0  0  0  0  0  0  0  0  0
   24.5849  -15.9938  -16.4410 C   0  0  0  0  0  0  0  0  0  0  0  0
   24.0197  -17.3790  -16.4689 C   0  0  0  0  0  0  0  0  0  0  0  0
   23.3322  -17.7439  -17.4374 O   0  0  0  0  0  0  0  0  0  0  0  0
   24.2527  -18.2961  -15.4081 N   0  0  0  0  0  0  0  0  0  0  0  0
   23.7970  -19.6597  -15.4046 C   0  0  1  0  0  0  0  0  0  0  0  0
   24.9618  -20.5426  -15.1236 C   0  0  0  0  0  0  0  0  0  0  0  0
   25.9779  -20.4475  -16.2108 C   0  0  0  0  0  0  0  0  0  0  0  0
   27.1347  -21.3497  -16.0725 C   0  0  0  0  0  0  0  0  0  0  0  0
   28.0329  -21.3359  -16.9301 O   0  0  0  0  0  0  0  0  0  0  0  0
   22.7262  -19.8614  -14.3779 C   0  0  0  0  0  0  0  0  0  0  0  0
   22.8574  -19.5186  -13.1770 O   0  0  0  0  0  0  0  0  0  0  0  0
   27.2869  -22.2368  -15.0145 O   0  0  0  0  0  0  0  0  0  0  0  0
   18.9211  -17.8877  -15.4350 N   0  0  0  0  0  0  0  0  0  0  0  0
   19.1121  -18.5358  -14.1847 C   0  0  0  0  0  0  0  0  0  0  0  0
   19.2751  -17.7958  -13.1830 O   0  0  0  0  0  0  0  0  0  0  0  0
   19.1105  -20.0114  -14.1280 C   0  0  0  0  0  0  0  0  0  0  0  0
   20.4261  -20.6202  -13.7396 C   0  0  2  0  0  0  0  0  0  0  0  0
   21.4726  -20.4605  -14.6969 N   0  0  0  0  0  0  0  0  0  0  0  0
   20.2494  -22.0042  -13.3142 C   0  0  0  0  0  0  0  0  0  0  0  0
   20.8685  -22.9600  -13.8446 O   0  0  0  0  0  0  0  0  0  0  0  0
   19.3367  -22.2293  -12.2627 O   0  0  0  0  0  0  0  0  0  0  0  0
  1  2  1  0
  2  3  1  0
  3  5  1  0
  3  4  2  0
  5  6  1  0
  6 11  1  0
  6  7  1  1
  8  7  1  0
  9  8  1  0
 10  9  2  0
 11 19  1  0
 11 12  2  0
 13  9  1  0
 14 15  1  0
 15 17  1  0
 16 15  2  0
 18 17  1  6
 18 20  1  0
 19 18  1  0
 20 22  1  0
 21 20  2  0
M  END
$$$$
