GEN.pdb
     RDKit          3D

 22 21  0  0  1  0  0  0  0  0999 V2000
   14.7407   -7.8898   -7.0280 N   0  0  0  0  0  0  0  0  0  0  0  0
   15.0790   -7.0710   -8.1723 C   0  0  0  0  0  0  0  0  0  0  0  0
   15.9519   -7.8568   -9.0995 C   0  0  0  0  0  0  0  0  0  0  0  0
   16.7704   -8.6680   -8.6347 O   0  0  0  0  0  0  0  0  0  0  0  0
   15.8666   -7.6992  -10.5096 N   0  0  0  0  0  0  0  0  0  0  0  0
   16.7412   -8.3469  -11.4491 C   0  0  1  0  0  0  0  0  0  0  0  0
   15.9054   -9.0570  -12.4553 C   0  0  0  0  0  0  0  0  0  0  0  0
   15.0661  -10.1054  -11.8073 C   0  0  0  0  0  0  0  0  0  0  0  0
   14.2178  -10.8882  -12.7231 C   0  0  0  0  0  0  0  0  0  0  0  0
   13.2384  -11.5085  -12.2774 O   0  0  0  0  0  0  0  0  0  0  0  0
   17.6355   -7.3507  -12.1193 C   0  0  0  0  0  0  0  0  0  0  0  0
   17.6982   -6.1457  -11.7713 O   0  0  0  0  0  0  0  0  0  0  0  0
   14.4514  -10.9770  -14.0895 O   0  0  0  0  0  0  0  0  0  0  0  0
   21.8249   -5.3256  -14.2528 N   0  0  0  0  0  0  0  0  0  0  0  0
   21.7875   -5.8728  -12.9418 C   0  0  0  0  0  0  0  0  0  0  0  0
   22.7985   -5.6837  -12.2208 O   0  0  0  0  0  0  0  0  0  0  0  0
   20.5909   -6.6195  -12.5043 C   0  0  0  0  0  0  0  0  0  0  0  0
   19.6091   -6.9174  -13.5995 C   0  0  2  0  0  0  0  0  0  0  0  0
   18.4858   -7.7056  -13.2070 N   0  0  0  0  0  0  0  0  0  0  0  0
   20.2916   -7.4444  -14.7759 C   0  0  0  0  0  0  0  0  0  0  0  0
   20.5042   -8.6712  -14.9428 O   0  0  0  0  0  0  0  0  0  0  0  0
   20.7115   -6.5011  -15.7369 O   0  0  0  0  0  0  0  0  0  0  0  0
  1  2  1  0
  2  3  1  0
  3  5  1  0
  3  4  2  0
  5  6  1  0
  6 11  1  0
  6  7  1  6
  8  7  1  0
  9  8  1  0
 10  9  2  0
 11 19  1  0
 11 12  2  0
 13  9  1  0
 14 15  1  0
 15 17  1  0
 16 15  2  0
 18 17  1  1
 18 20  1  0
 19 18  1  0
 20 22  1  0
 21 20  2  0
M  END
$$$$
