GEN.pdb
     RDKit          3D

 22 21  0  0  1  0  0  0  0  0999 V2000
   13.6507  -10.9785  -10.9401 N   0  0  0  0  0  0  0  0  0  0  0  0
   13.9555  -10.1264  -12.0694 C   0  0  0  0  0  0  0  0  0  0  0  0
   15.4257  -10.1781  -12.3429 C   0  0  0  0  0  0  0  0  0  0  0  0
   16.2263  -10.2398  -11.3947 O   0  0  0  0  0  0  0  0  0  0  0  0
   15.9338  -10.1603  -13.6704 N   0  0  0  0  0  0  0  0  0  0  0  0
   17.3230  -10.3176  -14.0057 C   0  0  1  0  0  0  0  0  0  0  0  0
   17.4130  -11.0301  -15.3094 C   0  0  0  0  0  0  0  0  0  0  0  0
   16.9455  -12.4401  -15.1801 C   0  0  0  0  0  0  0  0  0  0  0  0
   16.5546  -13.0923  -16.4423 C   0  0  0  0  0  0  0  0  0  0  0  0
   15.3574  -13.3365  -16.6647 O   0  0  0  0  0  0  0  0  0  0  0  0
   18.0059   -8.9878  -14.0865 C   0  0  0  0  0  0  0  0  0  0  0  0
   17.4188   -7.9389  -14.4499 O   0  0  0  0  0  0  0  0  0  0  0  0
   17.4659  -13.4596  -17.4242 O   0  0  0  0  0  0  0  0  0  0  0  0
   21.5497   -5.1973  -13.9866 N   0  0  0  0  0  0  0  0  0  0  0  0
   21.7735   -6.0255  -12.8535 C   0  0  0  0  0  0  0  0  0  0  0  0
   22.5561   -5.5840  -11.9760 O   0  0  0  0  0  0  0  0  0  0  0  0
   21.0916   -7.3325  -12.7678 C   0  0  0  0  0  0  0  0  0  0  0  0
   20.0451   -7.5580  -13.8196 C   0  0  2  0  0  0  0  0  0  0  0  0
   19.3813   -8.8197  -13.7518 N   0  0  0  0  0  0  0  0  0  0  0  0
   20.5743   -7.2633  -15.1465 C   0  0  0  0  0  0  0  0  0  0  0  0
   20.9599   -6.1158  -15.4823 O   0  0  0  0  0  0  0  0  0  0  0  0
   20.6358   -8.3407  -16.0547 O   0  0  0  0  0  0  0  0  0  0  0  0
  1  2  1  0
  2  3  1  0
  3  5  1  0
  3  4  2  0
  5  6  1  0
  6 11  1  0
  6  7  1  6
  8  7  1  0
  9  8  1  0
 10  9  2  0
 11 19  1  0
 11 12  2  0
 13  9  1  0
 14 15  1  0
 15 17  1  0
 16 15  2  0
 18 17  1  1
 18 20  1  0
 19 18  1  0
 20 22  1  0
 21 20  2  0
M  END
$$$$
