GEN.pdb
     RDKit          3D

 22 21  0  0  1  0  0  0  0  0999 V2000
   19.5103  -11.6708  -16.7977 N   0  0  0  0  0  0  0  0  0  0  0  0
   18.5930  -10.6247  -16.3993 C   0  0  0  0  0  0  0  0  0  0  0  0
   19.0396   -9.3256  -16.9927 C   0  0  0  0  0  0  0  0  0  0  0  0
   19.9925   -9.3085  -17.7899 O   0  0  0  0  0  0  0  0  0  0  0  0
   18.3951   -8.1013  -16.6666 N   0  0  0  0  0  0  0  0  0  0  0  0
   18.8066   -6.8154  -17.1606 C   0  0  1  0  0  0  0  0  0  0  0  0
   17.6242   -6.1462  -17.7684 C   0  0  0  0  0  0  0  0  0  0  0  0
   17.0590   -6.9663  -18.8780 C   0  0  0  0  0  0  0  0  0  0  0  0
   15.6189   -6.7801  -19.1285 C   0  0  0  0  0  0  0  0  0  0  0  0
   14.7885   -7.2910  -18.3591 O   0  0  0  0  0  0  0  0  0  0  0  0
   19.3743   -5.9772  -16.0576 C   0  0  0  0  0  0  0  0  0  0  0  0
   18.7444   -5.7180  -15.0026 O   0  0  0  0  0  0  0  0  0  0  0  0
   15.1200   -6.0490  -20.1990 O   0  0  0  0  0  0  0  0  0  0  0  0
   22.7001   -7.6826  -14.3452 N   0  0  0  0  0  0  0  0  0  0  0  0
   22.2378   -6.4817  -13.7418 C   0  0  0  0  0  0  0  0  0  0  0  0
   21.6536   -6.5930  -12.6355 O   0  0  0  0  0  0  0  0  0  0  0  0
   22.4613   -5.1946  -14.4303 C   0  0  0  0  0  0  0  0  0  0  0  0
   21.2392   -4.6182  -15.0833 C   0  0  2  0  0  0  0  0  0  0  0  0
   20.6811   -5.4122  -16.1298 N   0  0  0  0  0  0  0  0  0  0  0  0
   21.4695   -3.2336  -15.4797 C   0  0  0  0  0  0  0  0  0  0  0  0
   21.9257   -2.3699  -14.6898 O   0  0  0  0  0  0  0  0  0  0  0  0
   21.1523   -2.8979  -16.8124 O   0  0  0  0  0  0  0  0  0  0  0  0
  1  2  1  0
  2  3  1  0
  3  5  1  0
  3  4  2  0
  5  6  1  0
  6 11  1  0
  6  7  1  1
  8  7  1  0
  9  8  1  0
 10  9  2  0
 11 19  1  0
 11 12  2  0
 13  9  1  0
 14 15  1  0
 15 17  1  0
 16 15  2  0
 18 17  1  6
 18 20  1  0
 19 18  1  0
 20 22  1  0
 21 20  2  0
M  END
$$$$
