AFS.pdb
     RDKit          3D

 23 23  0  0  1  0  0  0  0  0999 V2000
   39.4154  -26.4182    5.0225 C   0  0  0  0  0  0  0  0  0  0  0  0
   39.3092  -24.9482    4.7144 C   0  0  2  0  0  0  0  0  0  0  0  0
   40.6003  -24.3286    4.7803 N   0  0  0  0  0  0  0  0  0  0  0  0
   38.3274  -24.2850    5.6121 C   0  0  0  0  0  0  0  0  0  0  0  0
   38.7134  -23.8051    6.7074 O   0  0  0  0  0  0  0  0  0  0  0  0
   36.9558  -24.1619    5.2951 N   0  0  0  0  0  0  0  0  0  0  0  0
   36.0025  -23.4904    6.1573 C   0  0  1  0  0  0  0  0  0  0  0  0
   34.8338  -23.1030    5.3025 C   0  0  0  0  0  0  0  0  0  0  0  0
   33.7346  -22.4158    6.0053 C   0  0  0  0  0  0  0  0  0  0  0  0
   32.6345  -23.0676    6.5176 C   0  0  0  0  0  0  0  0  0  0  0  0
   31.6224  -22.3660    7.1837 C   0  0  0  0  0  0  0  0  0  0  0  0
   31.7109  -21.0101    7.3372 C   0  0  0  0  0  0  0  0  0  0  0  0
   32.7875  -20.3466    6.8394 C   0  0  0  0  0  0  0  0  0  0  0  0
   33.7875  -21.0475    6.1802 C   0  0  0  0  0  0  0  0  0  0  0  0
   35.5610  -24.4686    7.1735 C   0  0  0  0  0  0  0  0  0  0  0  0
   35.3543  -25.6995    6.9121 O   0  0  0  0  0  0  0  0  0  0  0  0
   35.6678  -25.8880   11.6591 O   0  0  0  0  0  0  0  0  0  0  0  0
   35.9768  -24.9634   10.6804 C   0  0  0  0  0  0  0  0  0  0  0  0
   34.9963  -25.0497    9.5305 C   0  0  2  0  0  0  0  0  0  0  0  0
   35.3410  -24.0785    8.5160 N   0  0  0  0  0  0  0  0  0  0  0  0
   33.6158  -24.8287    9.9684 C   0  0  0  0  0  0  0  0  0  0  0  0
   32.7396  -25.8755   10.0944 O   0  0  0  0  0  0  0  0  0  0  0  0
   33.2276  -23.6679   10.2322 O   0  0  0  0  0  0  0  0  0  0  0  0
  2  3  1  0
  2  4  1  0
  2  1  1  1
  4  5  2  0
  6  4  1  0
  6  7  1  0
  7 15  1  0
  8  9  1  0
  7  8  1  6
  9 10  2  0
  9 14  1  0
 10 11  1  0
 11 12  2  0
 13 12  1  0
 14 13  2  0
 15 20  1  0
 15 16  2  0
 19 18  1  1
 18 17  1  0
 19 21  1  0
 20 19  1  0
 21 22  1  0
 23 21  2  0
M  END
$$$$
