AFS.pdb
     RDKit          3D

 23 23  0  0  1  0  0  0  0  0999 V2000
   27.3068  -19.5890  -15.1230 C   0  0  0  0  0  0  0  0  0  0  0  0
   27.6760  -20.4763  -13.9639 C   0  0  2  0  0  0  0  0  0  0  0  0
   28.5465  -21.5295  -14.3973 N   0  0  0  0  0  0  0  0  0  0  0  0
   26.4614  -21.0016  -13.2868 C   0  0  0  0  0  0  0  0  0  0  0  0
   26.1226  -22.1991  -13.4610 O   0  0  0  0  0  0  0  0  0  0  0  0
   25.6501  -20.2124  -12.4406 N   0  0  0  0  0  0  0  0  0  0  0  0
   24.4620  -20.7226  -11.7840 C   0  0  1  0  0  0  0  0  0  0  0  0
   24.2232  -19.8642  -10.5787 C   0  0  0  0  0  0  0  0  0  0  0  0
   25.0518  -20.1808   -9.4007 C   0  0  0  0  0  0  0  0  0  0  0  0
   25.0311  -21.4013   -8.7623 C   0  0  0  0  0  0  0  0  0  0  0  0
   25.8456  -21.6511   -7.6512 C   0  0  0  0  0  0  0  0  0  0  0  0
   26.6818  -20.6782   -7.1779 C   0  0  0  0  0  0  0  0  0  0  0  0
   26.7182  -19.4665   -7.7923 C   0  0  0  0  0  0  0  0  0  0  0  0
   25.9087  -19.2248   -8.8933 C   0  0  0  0  0  0  0  0  0  0  0  0
   23.3346  -20.5650  -12.7266 C   0  0  0  0  0  0  0  0  0  0  0  0
   23.1736  -19.5296  -13.4534 O   0  0  0  0  0  0  0  0  0  0  0  0
   21.1330  -23.8366  -13.9713 O   0  0  0  0  0  0  0  0  0  0  0  0
   21.2738  -22.6918  -14.7315 C   0  0  0  0  0  0  0  0  0  0  0  0
   21.2985  -21.4613  -13.8506 C   0  0  2  0  0  0  0  0  0  0  0  0
   22.3569  -21.5778  -12.8719 N   0  0  0  0  0  0  0  0  0  0  0  0
   20.0210  -21.2513  -13.1648 C   0  0  0  0  0  0  0  0  0  0  0  0
   18.8665  -21.0399  -13.8733 O   0  0  0  0  0  0  0  0  0  0  0  0
   19.9797  -21.2646  -11.9135 O   0  0  0  0  0  0  0  0  0  0  0  0
  2  3  1  0
  2  4  1  0
  2  1  1  6
  4  5  2  0
  6  4  1  0
  6  7  1  0
  7 15  1  0
  8  9  1  0
  7  8  1  1
  9 10  2  0
  9 14  1  0
 10 11  1  0
 11 12  2  0
 13 12  1  0
 14 13  2  0
 15 20  1  0
 15 16  2  0
 19 18  1  1
 18 17  1  0
 19 21  1  0
 20 19  1  0
 21 22  1  0
 23 21  2  0
M  END
$$$$
