AFS.pdb
     RDKit          3D

 23 23  0  0  1  0  0  0  0  0999 V2000
   17.0505   -9.0076  -16.9218 C   0  0  0  0  0  0  0  0  0  0  0  0
   18.5044   -8.9289  -16.5383 C   0  0  2  0  0  0  0  0  0  0  0  0
   19.2510   -9.9632  -17.1924 N   0  0  0  0  0  0  0  0  0  0  0  0
   18.6693   -8.9726  -15.0616 C   0  0  0  0  0  0  0  0  0  0  0  0
   18.5184  -10.0611  -14.4522 O   0  0  0  0  0  0  0  0  0  0  0  0
   18.9929   -7.8341  -14.2896 N   0  0  0  0  0  0  0  0  0  0  0  0
   19.2265   -7.8893  -12.8594 C   0  0  1  0  0  0  0  0  0  0  0  0
   20.5166   -7.1728  -12.5969 C   0  0  0  0  0  0  0  0  0  0  0  0
   21.7229   -7.8162  -13.1495 C   0  0  0  0  0  0  0  0  0  0  0  0
   22.4652   -7.2823  -14.1798 C   0  0  0  0  0  0  0  0  0  0  0  0
   23.6080   -7.9322  -14.6612 C   0  0  0  0  0  0  0  0  0  0  0  0
   24.0086   -9.1184  -14.1112 C   0  0  0  0  0  0  0  0  0  0  0  0
   23.2909   -9.6634  -13.0939 C   0  0  0  0  0  0  0  0  0  0  0  0
   22.1592   -9.0145  -12.6208 C   0  0  0  0  0  0  0  0  0  0  0  0
   18.1209   -7.1604  -12.2031 C   0  0  0  0  0  0  0  0  0  0  0  0
   17.7140   -6.0158  -12.5910 O   0  0  0  0  0  0  0  0  0  0  0  0
   14.7341   -7.1792   -8.7181 O   0  0  0  0  0  0  0  0  0  0  0  0
   15.6447   -7.8901   -9.4754 C   0  0  0  0  0  0  0  0  0  0  0  0
   16.4083   -6.9690  -10.4024 C   0  0  2  0  0  0  0  0  0  0  0  0
   17.4450   -7.7091  -11.0873 N   0  0  0  0  0  0  0  0  0  0  0  0
   17.0073   -5.8411   -9.6845 C   0  0  0  0  0  0  0  0  0  0  0  0
   16.2702   -4.7251   -9.3832 O   0  0  0  0  0  0  0  0  0  0  0  0
   18.2099   -5.8941   -9.3398 O   0  0  0  0  0  0  0  0  0  0  0  0
  2  3  1  0
  2  4  1  0
  2  1  1  1
  4  5  2  0
  6  4  1  0
  6  7  1  0
  7 15  1  0
  8  9  1  0
  7  8  1  6
  9 10  2  0
  9 14  1  0
 10 11  1  0
 11 12  2  0
 13 12  1  0
 14 13  2  0
 15 20  1  0
 15 16  2  0
 19 18  1  1
 18 17  1  0
 19 21  1  0
 20 19  1  0
 21 22  1  0
 23 21  2  0
M  END
$$$$
