AFS.pdb
     RDKit          3D

 23 23  0  0  1  0  0  0  0  0999 V2000
   18.3133  -12.2530  -19.4356 C   0  0  0  0  0  0  0  0  0  0  0  0
   19.6915  -12.0380  -18.8686 C   0  0  2  0  0  0  0  0  0  0  0  0
   20.3250  -13.2962  -18.6028 N   0  0  0  0  0  0  0  0  0  0  0  0
   19.6418  -11.1740  -17.6600 C   0  0  0  0  0  0  0  0  0  0  0  0
   18.9030  -11.4967  -16.6962 O   0  0  0  0  0  0  0  0  0  0  0  0
   20.3951   -9.9851  -17.5328 N   0  0  0  0  0  0  0  0  0  0  0  0
   20.2909   -9.1023  -16.3869 C   0  0  1  0  0  0  0  0  0  0  0  0
   21.6886   -8.7882  -15.9458 C   0  0  0  0  0  0  0  0  0  0  0  0
   21.8078   -7.7389  -14.9166 C   0  0  0  0  0  0  0  0  0  0  0  0
   21.5567   -7.9534  -13.5793 C   0  0  0  0  0  0  0  0  0  0  0  0
   21.6932   -6.9219  -12.6424 C   0  0  0  0  0  0  0  0  0  0  0  0
   22.0812   -5.6737  -13.0443 C   0  0  0  0  0  0  0  0  0  0  0  0
   22.3338   -5.4396  -14.3590 C   0  0  0  0  0  0  0  0  0  0  0  0
   22.1970   -6.4661  -15.2829 C   0  0  0  0  0  0  0  0  0  0  0  0
   19.6328   -7.8606  -16.8446 C   0  0  0  0  0  0  0  0  0  0  0  0
   19.9148   -7.2891  -17.9491 O   0  0  0  0  0  0  0  0  0  0  0  0
   15.8188   -6.7358  -16.6740 O   0  0  0  0  0  0  0  0  0  0  0  0
   16.6335   -5.8691  -15.9716 C   0  0  0  0  0  0  0  0  0  0  0  0
   18.0639   -5.9631  -16.4575 C   0  0  2  0  0  0  0  0  0  0  0  0
   18.6356   -7.2313  -16.0621 N   0  0  0  0  0  0  0  0  0  0  0  0
   18.8925   -4.8717  -15.9392 C   0  0  0  0  0  0  0  0  0  0  0  0
   19.4686   -3.9601  -16.7858 O   0  0  0  0  0  0  0  0  0  0  0  0
   19.0792   -4.7672  -14.7055 O   0  0  0  0  0  0  0  0  0  0  0  0
  2  3  1  0
  2  4  1  0
  2  1  1  1
  4  5  2  0
  6  4  1  0
  6  7  1  0
  7 15  1  0
  8  9  1  0
  7  8  1  6
  9 10  2  0
  9 14  1  0
 10 11  1  0
 11 12  2  0
 13 12  1  0
 14 13  2  0
 15 20  1  0
 15 16  2  0
 19 18  1  1
 18 17  1  0
 19 21  1  0
 20 19  1  0
 21 22  1  0
 23 21  2  0
M  END
$$$$
