AFS.pdb
     RDKit          3D

 23 23  0  0  1  0  0  0  0  0999 V2000
   30.2959    5.1207   -0.5193 C   0  0  0  0  0  0  0  0  0  0  0  0
   29.4047    3.9071   -0.5146 C   0  0  2  0  0  0  0  0  0  0  0  0
   29.9413    2.8956    0.3479 N   0  0  0  0  0  0  0  0  0  0  0  0
   29.1850    3.4018   -1.8953 C   0  0  0  0  0  0  0  0  0  0  0  0
   30.1314    2.8528   -2.5132 O   0  0  0  0  0  0  0  0  0  0  0  0
   27.9450    3.5070   -2.5648 N   0  0  0  0  0  0  0  0  0  0  0  0
   27.7356    3.0334   -3.9194 C   0  0  1  0  0  0  0  0  0  0  0  0
   26.7038    1.9484   -3.8510 C   0  0  0  0  0  0  0  0  0  0  0  0
   27.1175    0.7241   -3.1407 C   0  0  0  0  0  0  0  0  0  0  0  0
   26.5711    0.3184   -1.9431 C   0  0  0  0  0  0  0  0  0  0  0  0
   26.9962   -0.8586   -1.3151 C   0  0  0  0  0  0  0  0  0  0  0  0
   27.9697   -1.6306   -1.8861 C   0  0  0  0  0  0  0  0  0  0  0  0
   28.5229   -1.2492   -3.0675 C   0  0  0  0  0  0  0  0  0  0  0  0
   28.0973   -0.0816   -3.6852 C   0  0  0  0  0  0  0  0  0  0  0  0
   27.2018    4.1656   -4.7053 C   0  0  0  0  0  0  0  0  0  0  0  0
   26.5067    5.1036   -4.1922 O   0  0  0  0  0  0  0  0  0  0  0  0
   27.5735    7.6749   -7.3650 O   0  0  0  0  0  0  0  0  0  0  0  0
   27.9021    6.5994   -6.5628 C   0  0  0  0  0  0  0  0  0  0  0  0
   26.9994    5.4189   -6.8502 C   0  0  2  0  0  0  0  0  0  0  0  0
   27.4414    4.2665   -6.0965 N   0  0  0  0  0  0  0  0  0  0  0  0
   26.9683    5.0861   -8.2767 C   0  0  0  0  0  0  0  0  0  0  0  0
   26.2548    5.8499   -9.1638 O   0  0  0  0  0  0  0  0  0  0  0  0
   27.6015    4.0902   -8.6948 O   0  0  0  0  0  0  0  0  0  0  0  0
  2  3  1  0
  2  4  1  0
  2  1  1  6
  4  5  2  0
  6  4  1  0
  6  7  1  0
  7 15  1  0
  8  9  1  0
  7  8  1  1
  9 10  2  0
  9 14  1  0
 10 11  1  0
 11 12  2  0
 13 12  1  0
 14 13  2  0
 15 20  1  0
 15 16  2  0
 19 18  1  6
 18 17  1  0
 19 21  1  0
 20 19  1  0
 21 22  1  0
 23 21  2  0
M  END
$$$$
