AFS.pdb
     RDKit          3D

 23 23  0  0  1  0  0  0  0  0999 V2000
   29.4550  -20.3183  -13.8991 C   0  0  0  0  0  0  0  0  0  0  0  0
   28.0599  -19.7717  -14.0484 C   0  0  2  0  0  0  0  0  0  0  0  0
   28.0191  -18.3919  -13.6614 N   0  0  0  0  0  0  0  0  0  0  0  0
   27.0817  -20.5922  -13.2871 C   0  0  0  0  0  0  0  0  0  0  0  0
   26.9582  -21.8145  -13.5512 O   0  0  0  0  0  0  0  0  0  0  0  0
   26.2663  -20.0624  -12.2616 N   0  0  0  0  0  0  0  0  0  0  0  0
   25.3031  -20.8594  -11.5267 C   0  0  1  0  0  0  0  0  0  0  0  0
   25.2113  -20.2771  -10.1486 C   0  0  0  0  0  0  0  0  0  0  0  0
   26.4402  -20.3686   -9.3386 C   0  0  0  0  0  0  0  0  0  0  0  0
   26.6786  -19.5897   -8.2278 C   0  0  0  0  0  0  0  0  0  0  0  0
   27.8608  -19.7236   -7.4897 C   0  0  0  0  0  0  0  0  0  0  0  0
   28.8060  -20.6383   -7.8637 C   0  0  0  0  0  0  0  0  0  0  0  0
   28.5917  -21.4172   -8.9566 C   0  0  0  0  0  0  0  0  0  0  0  0
   27.4179  -21.2799   -9.6841 C   0  0  0  0  0  0  0  0  0  0  0  0
   23.9988  -20.7130  -12.2063 C   0  0  0  0  0  0  0  0  0  0  0  0
   23.5714  -19.6012  -12.6617 O   0  0  0  0  0  0  0  0  0  0  0  0
   22.7261  -23.2290  -14.8919 O   0  0  0  0  0  0  0  0  0  0  0  0
   21.7338  -23.0263  -13.9525 C   0  0  0  0  0  0  0  0  0  0  0  0
   21.9545  -21.7264  -13.2093 C   0  0  2  0  0  0  0  0  0  0  0  0
   23.1415  -21.8240  -12.3888 N   0  0  0  0  0  0  0  0  0  0  0  0
   20.8080  -21.3733  -12.3684 C   0  0  0  0  0  0  0  0  0  0  0  0
   19.5766  -21.1310  -12.9202 O   0  0  0  0  0  0  0  0  0  0  0  0
   20.9516  -21.2909  -11.1273 O   0  0  0  0  0  0  0  0  0  0  0  0
  2  3  1  0
  2  4  1  0
  2  1  1  1
  4  5  2  0
  6  4  1  0
  6  7  1  0
  7 15  1  0
  8  9  1  0
  7  8  1  1
  9 10  2  0
  9 14  1  0
 10 11  1  0
 11 12  2  0
 13 12  1  0
 14 13  2  0
 15 20  1  0
 15 16  2  0
 19 18  1  1
 18 17  1  0
 19 21  1  0
 20 19  1  0
 21 22  1  0
 23 21  2  0
M  END
$$$$
