AFS.pdb
     RDKit          3D

 23 23  0  0  1  0  0  0  0  0999 V2000
   20.2494   -8.7386  -17.8197 C   0  0  0  0  0  0  0  0  0  0  0  0
   20.1778   -7.2411  -17.9600 C   0  0  2  0  0  0  0  0  0  0  0  0
   21.1674   -6.7777  -18.8879 N   0  0  0  0  0  0  0  0  0  0  0  0
   20.3010   -6.5753  -16.6367 C   0  0  0  0  0  0  0  0  0  0  0  0
   19.4463   -6.8047  -15.7445 O   0  0  0  0  0  0  0  0  0  0  0  0
   21.3478   -5.6803  -16.3202 N   0  0  0  0  0  0  0  0  0  0  0  0
   21.4634   -5.0229  -15.0327 C   0  0  1  0  0  0  0  0  0  0  0  0
   22.8326   -5.3282  -14.5047 C   0  0  0  0  0  0  0  0  0  0  0  0
   23.1911   -6.7579  -14.4618 C   0  0  0  0  0  0  0  0  0  0  0  0
   24.0733   -7.3474  -15.3403 C   0  0  0  0  0  0  0  0  0  0  0  0
   24.3845   -8.7094  -15.2494 C   0  0  0  0  0  0  0  0  0  0  0  0
   23.8118   -9.4830  -14.2780 C   0  0  0  0  0  0  0  0  0  0  0  0
   22.9382   -8.9223  -13.4007 C   0  0  0  0  0  0  0  0  0  0  0  0
   22.6339   -7.5716  -13.4959 C   0  0  0  0  0  0  0  0  0  0  0  0
   21.3439   -3.5686  -15.2674 C   0  0  0  0  0  0  0  0  0  0  0  0
   22.0861   -2.9316  -16.0857 O   0  0  0  0  0  0  0  0  0  0  0  0
   18.7849   -0.6194  -17.0266 O   0  0  0  0  0  0  0  0  0  0  0  0
   19.3181   -1.7848  -16.5110 C   0  0  0  0  0  0  0  0  0  0  0  0
   19.8893   -1.5493  -15.1293 C   0  0  2  0  0  0  0  0  0  0  0  0
   20.3786   -2.7946  -14.5803 N   0  0  0  0  0  0  0  0  0  0  0  0
   18.8996   -0.9698  -14.2176 C   0  0  0  0  0  0  0  0  0  0  0  0
   18.7922    0.3882  -14.0639 O   0  0  0  0  0  0  0  0  0  0  0  0
   18.1394   -1.7233  -13.5679 O   0  0  0  0  0  0  0  0  0  0  0  0
  2  3  1  0
  2  4  1  0
  2  1  1  1
  4  5  2  0
  6  4  1  0
  6  7  1  0
  7 15  1  0
  8  9  1  0
  7  8  1  6
  9 10  2  0
  9 14  1  0
 10 11  1  0
 11 12  2  0
 13 12  1  0
 14 13  2  0
 15 20  1  0
 15 16  2  0
 19 18  1  6
 18 17  1  0
 19 21  1  0
 20 19  1  0
 21 22  1  0
 23 21  2  0
M  END
$$$$
