AFS.pdb
     RDKit          3D

 23 23  0  0  1  0  0  0  0  0999 V2000
   23.1624   -8.9438  -21.2511 C   0  0  0  0  0  0  0  0  0  0  0  0
   24.0247   -8.7853  -20.0270 C   0  0  2  0  0  0  0  0  0  0  0  0
   24.7507   -9.9936  -19.7665 N   0  0  0  0  0  0  0  0  0  0  0  0
   23.2144   -8.3596  -18.8558 C   0  0  0  0  0  0  0  0  0  0  0  0
   22.3236   -9.1236  -18.4066 O   0  0  0  0  0  0  0  0  0  0  0  0
   23.3944   -7.1175  -18.2063 N   0  0  0  0  0  0  0  0  0  0  0  0
   22.6986   -6.7553  -16.9865 C   0  0  1  0  0  0  0  0  0  0  0  0
   23.7369   -6.6079  -15.9156 C   0  0  0  0  0  0  0  0  0  0  0  0
   24.2297   -7.8695  -15.3325 C   0  0  0  0  0  0  0  0  0  0  0  0
   23.5454   -8.5819  -14.3724 C   0  0  0  0  0  0  0  0  0  0  0  0
   24.0563   -9.7797  -13.8582 C   0  0  0  0  0  0  0  0  0  0  0  0
   25.2539  -10.2655  -14.3051 C   0  0  0  0  0  0  0  0  0  0  0  0
   25.9461   -9.5788  -15.2519 C   0  0  0  0  0  0  0  0  0  0  0  0
   25.4345   -8.3922  -15.7579 C   0  0  0  0  0  0  0  0  0  0  0  0
   22.0494   -5.4482  -17.2201 C   0  0  0  0  0  0  0  0  0  0  0  0
   22.6031   -4.5017  -17.8709 O   0  0  0  0  0  0  0  0  0  0  0  0
   17.9266   -2.8965  -16.9880 O   0  0  0  0  0  0  0  0  0  0  0  0
   18.5991   -4.0668  -16.6943 C   0  0  0  0  0  0  0  0  0  0  0  0
   20.0642   -3.9501  -17.0560 C   0  0  2  0  0  0  0  0  0  0  0  0
   20.7528   -5.1772  -16.7218 N   0  0  0  0  0  0  0  0  0  0  0  0
   20.7105   -2.8266  -16.3729 C   0  0  0  0  0  0  0  0  0  0  0  0
   21.2660   -2.9824  -15.1293 O   0  0  0  0  0  0  0  0  0  0  0  0
   20.7577   -1.7065  -16.9305 O   0  0  0  0  0  0  0  0  0  0  0  0
  2  3  1  0
  2  4  1  0
  2  1  1  6
  4  5  2  0
  6  4  1  0
  6  7  1  0
  7 15  1  0
  8  9  1  0
  7  8  1  1
  9 10  2  0
  9 14  1  0
 10 11  1  0
 11 12  2  0
 13 12  1  0
 14 13  2  0
 15 20  1  0
 15 16  2  0
 19 18  1  1
 18 17  1  0
 19 21  1  0
 20 19  1  0
 21 22  1  0
 23 21  2  0
M  END
$$$$
