AFS.pdb
     RDKit          3D

 23 23  0  0  1  0  0  0  0  0999 V2000
   20.1912  -11.3763  -18.4739 C   0  0  0  0  0  0  0  0  0  0  0  0
   21.3976  -10.8489  -17.7435 C   0  0  2  0  0  0  0  0  0  0  0  0
   22.2518  -11.9284  -17.3433 N   0  0  0  0  0  0  0  0  0  0  0  0
   20.9944  -10.0018  -16.5904 C   0  0  0  0  0  0  0  0  0  0  0  0
   20.3244  -10.5056  -15.6544 O   0  0  0  0  0  0  0  0  0  0  0  0
   21.3300   -8.6330  -16.4869 N   0  0  0  0  0  0  0  0  0  0  0  0
   21.0330   -7.8329  -15.3144 C   0  0  1  0  0  0  0  0  0  0  0  0
   22.3155   -7.6731  -14.5551 C   0  0  0  0  0  0  0  0  0  0  0  0
   23.4335   -7.0849  -15.3159 C   0  0  0  0  0  0  0  0  0  0  0  0
   24.3239   -7.8299  -16.0573 C   0  0  0  0  0  0  0  0  0  0  0  0
   25.3639   -7.2185  -16.7679 C   0  0  0  0  0  0  0  0  0  0  0  0
   25.5134   -5.8596  -16.7363 C   0  0  0  0  0  0  0  0  0  0  0  0
   24.6465   -5.1051  -16.0109 C   0  0  0  0  0  0  0  0  0  0  0  0
   23.6175   -5.7168  -15.3088 C   0  0  0  0  0  0  0  0  0  0  0  0
   20.5775   -6.5088  -15.7873 C   0  0  0  0  0  0  0  0  0  0  0  0
   20.9533   -5.9968  -16.8931 O   0  0  0  0  0  0  0  0  0  0  0  0
   17.1397   -4.8114  -14.4050 O   0  0  0  0  0  0  0  0  0  0  0  0
   17.7237   -4.4213  -15.5945 C   0  0  0  0  0  0  0  0  0  0  0  0
   19.2330   -4.4325  -15.4814 C   0  0  2  0  0  0  0  0  0  0  0  0
   19.6822   -5.7271  -15.0190 N   0  0  0  0  0  0  0  0  0  0  0  0
   19.7231   -3.3930  -14.5728 C   0  0  0  0  0  0  0  0  0  0  0  0
   19.5504   -2.0642  -14.8626 O   0  0  0  0  0  0  0  0  0  0  0  0
   20.3087   -3.7197  -13.5154 O   0  0  0  0  0  0  0  0  0  0  0  0
  2  3  1  0
  2  4  1  0
  2  1  1  1
  4  5  2  0
  6  4  1  0
  6  7  1  0
  7 15  1  0
  8  9  1  0
  7  8  1  1
  9 10  2  0
  9 14  1  0
 10 11  1  0
 11 12  2  0
 13 12  1  0
 14 13  2  0
 15 20  1  0
 15 16  2  0
 19 18  1  1
 18 17  1  0
 19 21  1  0
 20 19  1  0
 21 22  1  0
 23 21  2  0
M  END
$$$$
