RNP.pdb
     RDKit          3D

 27 27  0  0  1  0  0  0  0  0999 V2000
   17.4093  -20.5492  -13.4319 N   0  0  0  0  0  0  0  0  0  0  0  0
   17.6124  -21.9330  -13.6319 C   0  0  0  0  0  0  0  0  0  0  0  0
   16.8213  -22.6110  -14.3865 N   0  0  0  0  0  0  0  0  0  0  0  0
   18.7026  -22.6216  -13.0016 N   0  0  0  0  0  0  0  0  0  0  0  0
   18.6560  -24.0181  -12.6773 C   0  0  0  0  0  0  0  0  0  0  0  0
   17.8912  -24.2026  -11.3951 C   0  0  0  0  0  0  0  0  0  0  0  0
   18.7955  -24.2701  -10.2271 C   0  0  0  0  0  0  0  0  0  0  0  0
   18.9928  -25.6095   -9.6071 C   0  0  2  0  0  0  0  0  0  0  0  0
   18.4778  -26.7238  -10.3358 N   0  0  0  0  0  0  0  0  0  0  0  0
   18.3620  -25.5618   -8.2581 C   0  0  0  0  0  0  0  0  0  0  0  0
   18.8030  -24.8164   -7.3632 O   0  0  0  0  0  0  0  0  0  0  0  0
   16.8898  -23.6239  -14.5247 N   0  0  0  0  0  0  0  0  0  0  0  0
   13.7149  -25.0740   -8.2589 C   0  0  0  0  0  0  0  0  0  0  0  0
   14.6399  -25.1967   -7.1846 O   0  0  0  0  0  0  0  0  0  0  0  0
   14.9417  -24.1310   -6.5890 C   0  0  0  0  0  0  0  0  0  0  0  0
   15.1966  -26.5041   -6.8113 C   0  0  2  0  0  0  0  0  0  0  0  0
   16.7057  -26.4129   -6.6430 N   0  0  0  0  0  0  0  0  0  0  0  0
   17.2444  -26.3828   -8.0049 C   0  0  0  0  0  0  0  0  0  0  0  0
   17.1420  -27.6527   -5.9448 O   0  0  0  0  0  0  0  0  0  0  0  0
   17.4216  -28.7072   -6.5662 N   0  0  0  0  0  0  0  0  0  0  0  0
   17.2472  -27.6495   -4.5408 C   0  0  0  0  0  0  0  0  0  0  0  0
   16.9486  -26.5397   -3.6683 C   0  0  0  0  0  0  0  0  0  0  0  0
   18.1267  -26.5919   -2.6884 C   0  0  0  0  0  0  0  0  0  0  0  0
   18.5305  -28.0453   -2.6597 C   0  0  1  0  0  0  0  0  0  0  0  0
   17.6614  -28.7488   -3.6679 C   0  0  0  0  0  0  0  0  0  0  0  0
   16.4346  -29.3406   -3.0889 O   0  0  0  0  0  0  0  0  0  0  0  0
   16.4568  -30.5846   -2.4845 O   0  0  0  0  0  0  0  0  0  0  0  0
  2  1  1  0
  3  2  2  0
  4  2  1  0
  5  6  1  0
  5  4  1  0
  7  6  1  0
  8  7  1  0
  8  9  1  6
 10  8  1  0
 10 17  1  0
 11 10  2  0
 13 12  1  0
 14 13  2  0
 16 15  1  6
 15 13  1  0
 17 16  1  0
 18 20  1  0
 18 16  1  0
 19 18  2  0
 20 21  1  0
 22 21  1  0
 23 22  1  0
 24 23  1  0
 24 20  1  0
 24 25  1  1
 26 25  1  0
 27 25  2  0
M  END
$$$$
