RNP.pdb
     RDKit          3D

 27 27  0  0  1  0  0  0  0  0999 V2000
   16.5794  -23.6658  -10.4431 N   0  0  0  0  0  0  0  0  0  0  0  0
   16.1334  -23.7009  -11.7832 C   0  0  0  0  0  0  0  0  0  0  0  0
   14.8976  -23.9285  -12.0588 N   0  0  0  0  0  0  0  0  0  0  0  0
   17.0418  -23.4851  -12.8733 N   0  0  0  0  0  0  0  0  0  0  0  0
   18.4654  -23.4436  -12.7019 C   0  0  0  0  0  0  0  0  0  0  0  0
   18.9075  -22.0106  -12.5833 C   0  0  0  0  0  0  0  0  0  0  0  0
   20.1747  -21.7706  -13.3067 C   0  0  0  0  0  0  0  0  0  0  0  0
   20.0929  -21.6724  -14.7902 C   0  0  2  0  0  0  0  0  0  0  0  0
   19.3632  -22.7060  -15.4514 N   0  0  0  0  0  0  0  0  0  0  0  0
   21.4917  -21.6440  -15.3024 C   0  0  0  0  0  0  0  0  0  0  0  0
   22.2702  -22.5974  -15.1123 O   0  0  0  0  0  0  0  0  0  0  0  0
   14.5298  -24.0154  -13.0112 N   0  0  0  0  0  0  0  0  0  0  0  0
   25.3989  -18.0149  -17.9249 C   0  0  0  0  0  0  0  0  0  0  0  0
   24.7759  -19.2903  -18.0265 O   0  0  0  0  0  0  0  0  0  0  0  0
   25.4794  -20.2135  -18.5107 C   0  0  0  0  0  0  0  0  0  0  0  0
   23.3895  -19.4923  -17.5843 C   0  0  2  0  0  0  0  0  0  0  0  0
   23.3425  -20.4305  -16.3879 N   0  0  0  0  0  0  0  0  0  0  0  0
   21.9281  -20.5084  -16.0144 C   0  0  0  0  0  0  0  0  0  0  0  0
   24.1271  -19.7877  -15.2989 O   0  0  0  0  0  0  0  0  0  0  0  0
   23.6350  -18.9100  -14.5481 N   0  0  0  0  0  0  0  0  0  0  0  0
   25.4666  -20.1723  -15.0985 C   0  0  0  0  0  0  0  0  0  0  0  0
   26.1957  -21.1486  -15.8714 C   0  0  0  0  0  0  0  0  0  0  0  0
   26.9267  -21.9288  -14.7724 C   0  0  0  0  0  0  0  0  0  0  0  0
   27.1043  -20.9311  -13.6547 C   0  0  1  0  0  0  0  0  0  0  0  0
   26.4047  -19.6719  -14.0927 C   0  0  0  0  0  0  0  0  0  0  0  0
   27.2941  -18.6971  -14.7629 O   0  0  0  0  0  0  0  0  0  0  0  0
   28.1478  -17.8888  -14.0341 O   0  0  0  0  0  0  0  0  0  0  0  0
  2  1  1  0
  3  2  2  0
  4  2  1  0
  5  6  1  0
  5  4  1  0
  7  6  1  0
  8  7  1  0
  8  9  1  6
 10  8  1  0
 10 17  1  0
 11 10  2  0
 13 12  1  0
 14 13  2  0
 16 15  1  6
 15 13  1  0
 17 16  1  0
 18 20  1  0
 18 16  1  0
 19 18  2  0
 20 21  1  0
 22 21  1  0
 23 22  1  0
 24 23  1  0
 24 20  1  0
 24 25  1  6
 26 25  1  0
 27 25  2  0
M  END
$$$$
