RNP.pdb
     RDKit          3D

 27 27  0  0  1  0  0  0  0  0999 V2000
   26.5024  -25.4438  -16.1080 N   0  0  0  0  0  0  0  0  0  0  0  0
   25.1273  -25.1430  -15.9869 C   0  0  0  0  0  0  0  0  0  0  0  0
   24.3134  -25.9890  -15.4610 N   0  0  0  0  0  0  0  0  0  0  0  0
   24.5988  -23.8898  -16.4454 N   0  0  0  0  0  0  0  0  0  0  0  0
   25.3469  -22.9866  -17.2715 C   0  0  0  0  0  0  0  0  0  0  0  0
   26.0776  -22.0057  -16.3959 C   0  0  0  0  0  0  0  0  0  0  0  0
   25.1464  -21.2502  -15.5305 C   0  0  0  0  0  0  0  0  0  0  0  0
   25.0260  -19.7887  -15.7885 C   0  0  2  0  0  0  0  0  0  0  0  0
   26.2139  -19.0169  -15.6109 N   0  0  0  0  0  0  0  0  0  0  0  0
   23.9578  -19.2740  -14.8864 C   0  0  0  0  0  0  0  0  0  0  0  0
   24.1912  -19.0088  -13.6921 O   0  0  0  0  0  0  0  0  0  0  0  0
   23.3033  -25.8374  -15.3793 N   0  0  0  0  0  0  0  0  0  0  0  0
   19.4126  -17.7708  -13.1094 C   0  0  0  0  0  0  0  0  0  0  0  0
   19.3772  -17.6497  -14.5268 O   0  0  0  0  0  0  0  0  0  0  0  0
   18.3437  -17.1223  -15.0120 C   0  0  0  0  0  0  0  0  0  0  0  0
   20.4957  -18.1210  -15.3545 C   0  0  2  0  0  0  0  0  0  0  0  0
   21.5911  -18.7157  -14.4825 N   0  0  0  0  0  0  0  0  0  0  0  0
   22.6621  -19.0888  -15.4097 C   0  0  0  0  0  0  0  0  0  0  0  0
   21.0231  -19.9306  -13.8374 O   0  0  0  0  0  0  0  0  0  0  0  0
   20.9270  -21.0265  -14.4425 N   0  0  0  0  0  0  0  0  0  0  0  0
   20.5771  -19.8555  -12.5041 C   0  0  0  0  0  0  0  0  0  0  0  0
   20.4608  -18.6545  -11.7128 C   0  0  0  0  0  0  0  0  0  0  0  0
   21.0389  -19.1132  -10.3689 C   0  0  0  0  0  0  0  0  0  0  0  0
   20.7561  -20.5944  -10.3214 C   0  0  1  0  0  0  0  0  0  0  0  0
   20.1290  -20.9508  -11.6429 C   0  0  0  0  0  0  0  0  0  0  0  0
   18.6494  -20.9253  -11.6279 O   0  0  0  0  0  0  0  0  0  0  0  0
   17.9229  -21.9242  -11.0053 O   0  0  0  0  0  0  0  0  0  0  0  0
  2  1  1  0
  3  2  2  0
  4  2  1  0
  5  6  1  0
  5  4  1  0
  7  6  1  0
  8  7  1  0
  8  9  1  1
 10  8  1  0
 10 17  1  0
 11 10  2  0
 13 12  1  0
 14 13  2  0
 16 15  1  1
 15 13  1  0
 17 16  1  0
 18 20  1  0
 18 16  1  0
 19 18  2  0
 20 21  1  0
 22 21  1  0
 23 22  1  0
 24 23  1  0
 24 20  1  0
 24 25  1  6
 26 25  1  0
 27 25  2  0
M  END
$$$$
