RNP.pdb
     RDKit          3D

 27 27  0  0  1  0  0  0  0  0999 V2000
   26.2817  -25.5234  -16.1053 N   0  0  0  0  0  0  0  0  0  0  0  0
   25.1452  -24.9442  -16.7128 C   0  0  0  0  0  0  0  0  0  0  0  0
   25.2103  -24.4635  -17.9043 N   0  0  0  0  0  0  0  0  0  0  0  0
   23.8891  -24.8744  -16.0220 N   0  0  0  0  0  0  0  0  0  0  0  0
   23.0424  -23.7172  -16.0643 C   0  0  0  0  0  0  0  0  0  0  0  0
   23.2065  -22.9376  -14.7883 C   0  0  0  0  0  0  0  0  0  0  0  0
   22.0594  -23.1383  -13.8768 C   0  0  0  0  0  0  0  0  0  0  0  0
   20.7596  -22.5422  -14.2918 C   0  0  2  0  0  0  0  0  0  0  0  0
   20.7954  -21.1759  -14.7043 N   0  0  0  0  0  0  0  0  0  0  0  0
   19.8253  -22.6909  -13.1409 C   0  0  0  0  0  0  0  0  0  0  0  0
   19.8940  -21.9397  -12.1499 O   0  0  0  0  0  0  0  0  0  0  0  0
   24.4419  -23.9650  -18.3636 N   0  0  0  0  0  0  0  0  0  0  0  0
   14.9163  -25.6016  -11.1155 C   0  0  0  0  0  0  0  0  0  0  0  0
   15.7079  -24.4669  -11.4485 O   0  0  0  0  0  0  0  0  0  0  0  0
   15.4660  -23.4144  -10.8041 C   0  0  0  0  0  0  0  0  0  0  0  0
   16.7423  -24.5452  -12.4889 C   0  0  2  0  0  0  0  0  0  0  0  0
   18.0502  -23.9528  -11.9863 N   0  0  0  0  0  0  0  0  0  0  0  0
   18.8494  -23.7070  -13.1892 C   0  0  0  0  0  0  0  0  0  0  0  0
   18.7010  -24.9891  -11.1395 O   0  0  0  0  0  0  0  0  0  0  0  0
   19.4418  -25.8799  -11.6233 N   0  0  0  0  0  0  0  0  0  0  0  0
   18.4832  -24.9756   -9.7485 C   0  0  0  0  0  0  0  0  0  0  0  0
   17.5919  -24.0925   -9.0360 C   0  0  0  0  0  0  0  0  0  0  0  0
   18.4491  -23.6981   -7.8275 C   0  0  0  0  0  0  0  0  0  0  0  0
   19.3686  -24.8754   -7.6159 C   0  0  1  0  0  0  0  0  0  0  0  0
   19.0877  -25.8419   -8.7355 C   0  0  0  0  0  0  0  0  0  0  0  0
   18.0922  -26.8815   -8.3910 O   0  0  0  0  0  0  0  0  0  0  0  0
   18.4636  -28.0341   -7.7224 O   0  0  0  0  0  0  0  0  0  0  0  0
  2  1  1  0
  3  2  2  0
  4  2  1  0
  5  6  1  0
  5  4  1  0
  7  6  1  0
  8  7  1  0
  8  9  1  1
 10  8  1  0
 10 17  1  0
 11 10  2  0
 13 12  1  0
 14 13  2  0
 16 15  1  6
 15 13  1  0
 17 16  1  0
 18 20  1  0
 18 16  1  0
 19 18  2  0
 20 21  1  0
 22 21  1  0
 23 22  1  0
 24 23  1  0
 24 20  1  0
 24 25  1  1
 26 25  1  0
 27 25  2  0
M  END
$$$$
