RNP.pdb
     RDKit          3D

 27 27  0  0  1  0  0  0  0  0999 V2000
   25.3040  -20.7902  -10.3409 N   0  0  0  0  0  0  0  0  0  0  0  0
   25.4268  -21.3199  -11.6448 C   0  0  0  0  0  0  0  0  0  0  0  0
   24.5350  -22.1180  -12.1166 N   0  0  0  0  0  0  0  0  0  0  0  0
   26.5458  -20.9855  -12.4792 N   0  0  0  0  0  0  0  0  0  0  0  0
   27.5827  -20.0852  -12.0643 C   0  0  0  0  0  0  0  0  0  0  0  0
   27.4561  -18.7978  -12.8320 C   0  0  0  0  0  0  0  0  0  0  0  0
   27.8263  -18.9730  -14.2529 C   0  0  0  0  0  0  0  0  0  0  0  0
   27.1988  -18.0411  -15.2302 C   0  0  2  0  0  0  0  0  0  0  0  0
   26.6832  -16.8213  -14.6969 N   0  0  0  0  0  0  0  0  0  0  0  0
   26.1036  -18.7918  -15.9059 C   0  0  0  0  0  0  0  0  0  0  0  0
   26.3420  -19.7916  -16.6091 O   0  0  0  0  0  0  0  0  0  0  0  0
   24.5678  -22.5216  -13.0578 N   0  0  0  0  0  0  0  0  0  0  0  0
   24.8065  -21.0035  -17.9835 C   0  0  0  0  0  0  0  0  0  0  0  0
   24.5707  -21.4603  -16.6565 O   0  0  0  0  0  0  0  0  0  0  0  0
   24.9089  -22.6463  -16.4107 C   0  0  0  0  0  0  0  0  0  0  0  0
   23.9658  -20.5783  -15.6492 C   0  0  2  0  0  0  0  0  0  0  0  0
   23.6957  -19.2021  -16.2383 N   0  0  0  0  0  0  0  0  0  0  0  0
   24.7759  -18.3492  -15.7365 C   0  0  0  0  0  0  0  0  0  0  0  0
   22.3867  -18.7456  -15.6970 O   0  0  0  0  0  0  0  0  0  0  0  0
   22.2436  -18.3937  -14.5004 N   0  0  0  0  0  0  0  0  0  0  0  0
   21.2675  -18.7044  -16.5503 C   0  0  0  0  0  0  0  0  0  0  0  0
   21.2327  -19.1304  -17.9284 C   0  0  0  0  0  0  0  0  0  0  0  0
   20.4326  -17.9973  -18.5816 C   0  0  0  0  0  0  0  0  0  0  0  0
   19.5418  -17.4795  -17.4795 C   0  0  1  0  0  0  0  0  0  0  0  0
   19.9145  -18.2428  -16.2365 C   0  0  0  0  0  0  0  0  0  0  0  0
   19.0810  -19.4427  -16.0004 O   0  0  0  0  0  0  0  0  0  0  0  0
   17.8314  -19.3422  -15.4157 O   0  0  0  0  0  0  0  0  0  0  0  0
  2  1  1  0
  3  2  2  0
  4  2  1  0
  5  6  1  0
  5  4  1  0
  7  6  1  0
  8  7  1  0
  8  9  1  1
 10  8  1  0
 10 17  1  0
 11 10  2  0
 13 12  1  0
 14 13  2  0
 16 15  1  6
 15 13  1  0
 17 16  1  0
 18 20  1  0
 18 16  1  0
 19 18  2  0
 20 21  1  0
 22 21  1  0
 23 22  1  0
 24 23  1  0
 24 20  1  0
 24 25  1  1
 26 25  1  0
 27 25  2  0
M  END
$$$$
