RNP.pdb
     RDKit          3D

 27 27  0  0  1  0  0  0  0  0999 V2000
   28.0120  -25.0901  -16.8288 N   0  0  0  0  0  0  0  0  0  0  0  0
   26.9516  -24.7758  -17.7079 C   0  0  0  0  0  0  0  0  0  0  0  0
   26.5041  -25.6514  -18.5373 N   0  0  0  0  0  0  0  0  0  0  0  0
   26.3441  -23.4754  -17.7026 N   0  0  0  0  0  0  0  0  0  0  0  0
   26.7628  -22.4258  -16.8190 C   0  0  0  0  0  0  0  0  0  0  0  0
   26.4340  -22.8114  -15.4026 C   0  0  0  0  0  0  0  0  0  0  0  0
   25.7711  -21.7059  -14.6778 C   0  0  0  0  0  0  0  0  0  0  0  0
   25.3029  -20.5526  -15.4949 C   0  0  2  0  0  0  0  0  0  0  0  0
   26.2760  -19.5493  -15.7856 N   0  0  0  0  0  0  0  0  0  0  0  0
   24.1573  -19.9393  -14.7661 C   0  0  0  0  0  0  0  0  0  0  0  0
   24.3392  -19.1763  -13.7987 O   0  0  0  0  0  0  0  0  0  0  0  0
   25.8090  -25.4506  -19.2628 N   0  0  0  0  0  0  0  0  0  0  0  0
   19.5954  -18.3591  -13.3655 C   0  0  0  0  0  0  0  0  0  0  0  0
   19.5035  -18.7728  -14.7239 O   0  0  0  0  0  0  0  0  0  0  0  0
   18.4556  -18.4402  -15.3346 C   0  0  0  0  0  0  0  0  0  0  0  0
   20.5838  -19.5433  -15.3547 C   0  0  2  0  0  0  0  0  0  0  0  0
   21.7302  -19.7533  -14.3773 N   0  0  0  0  0  0  0  0  0  0  0  0
   22.8471  -20.2385  -15.1916 C   0  0  0  0  0  0  0  0  0  0  0  0
   21.2979  -20.8059  -13.4182 O   0  0  0  0  0  0  0  0  0  0  0  0
   21.3434  -22.0283  -13.7011 N   0  0  0  0  0  0  0  0  0  0  0  0
   20.8213  -20.4250  -12.1493 C   0  0  0  0  0  0  0  0  0  0  0  0
   20.6887  -19.0736  -11.6613 C   0  0  0  0  0  0  0  0  0  0  0  0
   21.2348  -19.2056  -10.2347 C   0  0  0  0  0  0  0  0  0  0  0  0
   20.9485  -20.6365   -9.8512 C   0  0  1  0  0  0  0  0  0  0  0  0
   20.3516  -21.2923  -11.0679 C   0  0  0  0  0  0  0  0  0  0  0  0
   18.8720  -21.2695  -11.0930 O   0  0  0  0  0  0  0  0  0  0  0  0
   18.1297  -22.1296  -10.3040 O   0  0  0  0  0  0  0  0  0  0  0  0
  2  1  1  0
  3  2  2  0
  4  2  1  0
  5  6  1  0
  5  4  1  0
  7  6  1  0
  8  7  1  0
  8  9  1  1
 10  8  1  0
 10 17  1  0
 11 10  2  0
 13 12  1  0
 14 13  2  0
 16 15  1  6
 15 13  1  0
 17 16  1  0
 18 20  1  0
 18 16  1  0
 19 18  2  0
 20 21  1  0
 22 21  1  0
 23 22  1  0
 24 23  1  0
 24 20  1  0
 24 25  1  6
 26 25  1  0
 27 25  2  0
M  END
$$$$
