RNP.pdb
     RDKit          3D

 27 27  0  0  1  0  0  0  0  0999 V2000
   25.7888  -25.5251  -15.7962 N   0  0  0  0  0  0  0  0  0  0  0  0
   26.6339  -24.8072  -16.6718 C   0  0  0  0  0  0  0  0  0  0  0  0
   27.1427  -25.3760  -17.7074 N   0  0  0  0  0  0  0  0  0  0  0  0
   26.9494  -23.4276  -16.4333 N   0  0  0  0  0  0  0  0  0  0  0  0
   26.3139  -22.6512  -15.4080 C   0  0  0  0  0  0  0  0  0  0  0  0
   24.8219  -22.7263  -15.5842 C   0  0  0  0  0  0  0  0  0  0  0  0
   24.1316  -21.6489  -14.8427 C   0  0  0  0  0  0  0  0  0  0  0  0
   24.9935  -20.6462  -14.1581 C   0  0  2  0  0  0  0  0  0  0  0  0
   25.3012  -20.9088  -12.7890 N   0  0  0  0  0  0  0  0  0  0  0  0
   24.3037  -19.3304  -14.2702 C   0  0  0  0  0  0  0  0  0  0  0  0
   23.4619  -18.9667  -13.4275 O   0  0  0  0  0  0  0  0  0  0  0  0
   27.7456  -24.8990  -18.3847 N   0  0  0  0  0  0  0  0  0  0  0  0
   26.2779  -16.5976  -14.2556 C   0  0  0  0  0  0  0  0  0  0  0  0
   26.0907  -16.1133  -15.5805 O   0  0  0  0  0  0  0  0  0  0  0  0
   27.0686  -15.5116  -16.0937 C   0  0  0  0  0  0  0  0  0  0  0  0
   24.8191  -16.3168  -16.2877 C   0  0  2  0  0  0  0  0  0  0  0  0
   23.8997  -17.2222  -15.4821 N   0  0  0  0  0  0  0  0  0  0  0  0
   24.6207  -18.4913  -15.3578 C   0  0  0  0  0  0  0  0  0  0  0  0
   22.6612  -17.4111  -16.2853 O   0  0  0  0  0  0  0  0  0  0  0  0
   22.5006  -18.3974  -17.0454 N   0  0  0  0  0  0  0  0  0  0  0  0
   21.6309  -16.4558  -16.1939 C   0  0  0  0  0  0  0  0  0  0  0  0
   21.6881  -15.2105  -15.4673 C   0  0  0  0  0  0  0  0  0  0  0  0
   20.3145  -15.1871  -14.7864 C   0  0  0  0  0  0  0  0  0  0  0  0
   19.4218  -15.9799  -15.7088 C   0  0  1  0  0  0  0  0  0  0  0  0
   20.3045  -16.5023  -16.8108 C   0  0  0  0  0  0  0  0  0  0  0  0
   20.3424  -15.6330  -18.0080 O   0  0  0  0  0  0  0  0  0  0  0  0
   21.4544  -14.8632  -18.2983 O   0  0  0  0  0  0  0  0  0  0  0  0
  2  1  1  0
  3  2  2  0
  4  2  1  0
  5  6  1  0
  5  4  1  0
  7  6  1  0
  8  7  1  0
  8  9  1  1
 10  8  1  0
 10 17  1  0
 11 10  2  0
 13 12  1  0
 14 13  2  0
 16 15  1  1
 15 13  1  0
 17 16  1  0
 18 20  1  0
 18 16  1  0
 19 18  2  0
 20 21  1  0
 22 21  1  0
 23 22  1  0
 24 23  1  0
 24 20  1  0
 24 25  1  6
 26 25  1  0
 27 25  2  0
M  END
$$$$
