RNP.pdb
     RDKit          3D

 27 27  0  0  1  0  0  0  0  0999 V2000
   32.3842  -22.6508   -8.7134 N   0  0  0  0  0  0  0  0  0  0  0  0
   31.9521  -22.6921  -10.0579 C   0  0  0  0  0  0  0  0  0  0  0  0
   32.5356  -23.4564  -10.9124 N   0  0  0  0  0  0  0  0  0  0  0  0
   30.8540  -21.8857  -10.5093 N   0  0  0  0  0  0  0  0  0  0  0  0
   30.1536  -20.9754   -9.6499 C   0  0  0  0  0  0  0  0  0  0  0  0
   28.6736  -21.2095   -9.7830 C   0  0  0  0  0  0  0  0  0  0  0  0
   28.1330  -20.5895  -11.0119 C   0  0  0  0  0  0  0  0  0  0  0  0
   26.6506  -20.5336  -11.1396 C   0  0  2  0  0  0  0  0  0  0  0  0
   25.9610  -21.7792  -11.0350 N   0  0  0  0  0  0  0  0  0  0  0  0
   26.3506  -19.9072  -12.4578 C   0  0  0  0  0  0  0  0  0  0  0  0
   26.3678  -18.6707  -12.6059 O   0  0  0  0  0  0  0  0  0  0  0  0
   32.2960  -23.4901  -11.9081 N   0  0  0  0  0  0  0  0  0  0  0  0
   28.2866  -19.3546  -15.0672 C   0  0  0  0  0  0  0  0  0  0  0  0
   27.8434  -20.4182  -15.9022 O   0  0  0  0  0  0  0  0  0  0  0  0
   28.7161  -20.9443  -16.6392 C   0  0  0  0  0  0  0  0  0  0  0  0
   26.4419  -20.8587  -15.8864 C   0  0  2  0  0  0  0  0  0  0  0  0
   25.6605  -20.1131  -14.8152 N   0  0  0  0  0  0  0  0  0  0  0  0
   26.0429  -20.7440  -13.5496 C   0  0  0  0  0  0  0  0  0  0  0  0
   24.2161  -20.3444  -15.0892 O   0  0  0  0  0  0  0  0  0  0  0  0
   23.5786  -21.2900  -14.5640 N   0  0  0  0  0  0  0  0  0  0  0  0
   23.5357  -19.4773  -15.9653 C   0  0  0  0  0  0  0  0  0  0  0  0
   24.1295  -18.4176  -16.7440 C   0  0  0  0  0  0  0  0  0  0  0  0
   23.1157  -17.2844  -16.5468 C   0  0  0  0  0  0  0  0  0  0  0  0
   21.8021  -17.9888  -16.3131 C   0  0  1  0  0  0  0  0  0  0  0  0
   22.1079  -19.4627  -16.2867 C   0  0  0  0  0  0  0  0  0  0  0  0
   21.9423  -20.1302  -17.5972 O   0  0  0  0  0  0  0  0  0  0  0  0
   23.0224  -20.3374  -18.4361 O   0  0  0  0  0  0  0  0  0  0  0  0
  2  1  1  0
  3  2  2  0
  4  2  1  0
  5  6  1  0
  5  4  1  0
  7  6  1  0
  8  7  1  0
  8  9  1  6
 10  8  1  0
 10 17  1  0
 11 10  2  0
 13 12  1  0
 14 13  2  0
 16 15  1  1
 15 13  1  0
 17 16  1  0
 18 20  1  0
 18 16  1  0
 19 18  2  0
 20 21  1  0
 22 21  1  0
 23 22  1  0
 24 23  1  0
 24 20  1  0
 24 25  1  6
 26 25  1  0
 27 25  2  0
M  END
$$$$
