RNP.pdb
     RDKit          3D

 27 27  0  0  1  0  0  0  0  0999 V2000
   23.9565  -21.4223  -10.4113 N   0  0  0  0  0  0  0  0  0  0  0  0
   25.2087  -21.0152   -9.8991 C   0  0  0  0  0  0  0  0  0  0  0  0
   25.2792  -20.2294   -8.8831 N   0  0  0  0  0  0  0  0  0  0  0  0
   26.4351  -21.4640  -10.4945 N   0  0  0  0  0  0  0  0  0  0  0  0
   26.6511  -21.4773  -11.9126 C   0  0  0  0  0  0  0  0  0  0  0  0
   25.6806  -22.4328  -12.5515 C   0  0  0  0  0  0  0  0  0  0  0  0
   26.0553  -22.7349  -13.9498 C   0  0  0  0  0  0  0  0  0  0  0  0
   26.4617  -21.5822  -14.8002 C   0  0  2  0  0  0  0  0  0  0  0  0
   26.8829  -20.4062  -14.1091 N   0  0  0  0  0  0  0  0  0  0  0  0
   25.3009  -21.2568  -15.6758 C   0  0  0  0  0  0  0  0  0  0  0  0
   24.8463  -22.0884  -16.4838 O   0  0  0  0  0  0  0  0  0  0  0  0
   26.1569  -19.8633   -8.5019 N   0  0  0  0  0  0  0  0  0  0  0  0
   22.5102  -20.5281  -14.3446 C   0  0  0  0  0  0  0  0  0  0  0  0
   22.1916  -19.1986  -14.7392 O   0  0  0  0  0  0  0  0  0  0  0  0
   21.3490  -18.5959  -14.0261 C   0  0  0  0  0  0  0  0  0  0  0  0
   22.8239  -18.5867  -15.9158 C   0  0  2  0  0  0  0  0  0  0  0  0
   23.7487  -19.5806  -16.6018 N   0  0  0  0  0  0  0  0  0  0  0  0
   24.7165  -19.9779  -15.5763 C   0  0  0  0  0  0  0  0  0  0  0  0
   24.4356  -18.8497  -17.7012 O   0  0  0  0  0  0  0  0  0  0  0  0
   25.5817  -18.3560  -17.5626 N   0  0  0  0  0  0  0  0  0  0  0  0
   23.7841  -18.7036  -18.9408 C   0  0  0  0  0  0  0  0  0  0  0  0
   22.4283  -19.0963  -19.2403 C   0  0  0  0  0  0  0  0  0  0  0  0
   22.5943  -19.7549  -20.6149 C   0  0  0  0  0  0  0  0  0  0  0  0
   23.7885  -19.0626  -21.2240 C   0  0  1  0  0  0  0  0  0  0  0  0
   24.3174  -18.1225  -20.1737 C   0  0  0  0  0  0  0  0  0  0  0  0
   23.7841  -16.7462  -20.2813 O   0  0  0  0  0  0  0  0  0  0  0  0
   24.3186  -15.8400  -21.1792 O   0  0  0  0  0  0  0  0  0  0  0  0
  2  1  1  0
  3  2  2  0
  4  2  1  0
  5  6  1  0
  5  4  1  0
  7  6  1  0
  8  7  1  0
  8  9  1  1
 10  8  1  0
 10 17  1  0
 11 10  2  0
 13 12  1  0
 14 13  2  0
 16 15  1  1
 15 13  1  0
 17 16  1  0
 18 20  1  0
 18 16  1  0
 19 18  2  0
 20 21  1  0
 22 21  1  0
 23 22  1  0
 24 23  1  0
 24 20  1  0
 24 25  1  1
 26 25  1  0
 27 25  2  0
M  END
$$$$
