RNP.pdb
     RDKit          3D

 27 27  0  0  1  0  0  0  0  0999 V2000
   24.7036  -20.3465  -10.9975 N   0  0  0  0  0  0  0  0  0  0  0  0
   25.8665  -20.3923  -10.1965 C   0  0  0  0  0  0  0  0  0  0  0  0
   25.7829  -20.3478   -8.9135 N   0  0  0  0  0  0  0  0  0  0  0  0
   27.1710  -20.4891  -10.7872 N   0  0  0  0  0  0  0  0  0  0  0  0
   27.3834  -20.4898  -12.2059 C   0  0  0  0  0  0  0  0  0  0  0  0
   26.7819  -21.7364  -12.7952 C   0  0  0  0  0  0  0  0  0  0  0  0
   25.5725  -21.4334  -13.5904 C   0  0  0  0  0  0  0  0  0  0  0  0
   24.8890  -22.5864  -14.2388 C   0  0  2  0  0  0  0  0  0  0  0  0
   25.6841  -23.3738  -15.1252 N   0  0  0  0  0  0  0  0  0  0  0  0
   23.7155  -22.0386  -14.9755 C   0  0  0  0  0  0  0  0  0  0  0  0
   23.7371  -21.8949  -16.2124 O   0  0  0  0  0  0  0  0  0  0  0  0
   26.5901  -20.4018   -8.2847 N   0  0  0  0  0  0  0  0  0  0  0  0
   19.5298  -23.4526  -14.5350 C   0  0  0  0  0  0  0  0  0  0  0  0
   19.8976  -22.4752  -13.5684 O   0  0  0  0  0  0  0  0  0  0  0  0
   19.8770  -22.8485  -12.3676 C   0  0  0  0  0  0  0  0  0  0  0  0
   20.2759  -21.1148  -13.9743 C   0  0  2  0  0  0  0  0  0  0  0  0
   21.4139  -21.1561  -14.9828 N   0  0  0  0  0  0  0  0  0  0  0  0
   22.5651  -21.6801  -14.2439 C   0  0  0  0  0  0  0  0  0  0  0  0
   21.6709  -19.7531  -15.4076 O   0  0  0  0  0  0  0  0  0  0  0  0
   22.4964  -19.0154  -14.8154 N   0  0  0  0  0  0  0  0  0  0  0  0
   20.9684  -19.2296  -16.5098 C   0  0  0  0  0  0  0  0  0  0  0  0
   19.9416  -19.9075  -17.2636 C   0  0  0  0  0  0  0  0  0  0  0  0
   20.3307  -19.5525  -18.7035 C   0  0  0  0  0  0  0  0  0  0  0  0
   21.0314  -18.2213  -18.5886 C   0  0  1  0  0  0  0  0  0  0  0  0
   21.1082  -17.9059  -17.1185 C   0  0  0  0  0  0  0  0  0  0  0  0
   19.9882  -17.0723  -16.6275 O   0  0  0  0  0  0  0  0  0  0  0  0
   19.9946  -15.6986  -16.7889 O   0  0  0  0  0  0  0  0  0  0  0  0
  2  1  1  0
  3  2  2  0
  4  2  1  0
  5  6  1  0
  5  4  1  0
  7  6  1  0
  8  7  1  0
  8  9  1  6
 10  8  1  0
 10 17  1  0
 11 10  2  0
 13 12  1  0
 14 13  2  0
 16 15  1  6
 15 13  1  0
 17 16  1  0
 18 20  1  0
 18 16  1  0
 19 18  2  0
 20 21  1  0
 22 21  1  0
 23 22  1  0
 24 23  1  0
 24 20  1  0
 24 25  1  1
 26 25  1  0
 27 25  2  0
M  END
$$$$
