RNP.pdb
     RDKit          3D

 27 27  0  0  1  0  0  0  0  0999 V2000
   21.9636  -24.0511  -14.8565 N   0  0  0  0  0  0  0  0  0  0  0  0
   22.7746  -25.1831  -15.0951 C   0  0  0  0  0  0  0  0  0  0  0  0
   22.2533  -26.3543  -15.2021 N   0  0  0  0  0  0  0  0  0  0  0  0
   24.1989  -25.0614  -15.2246 N   0  0  0  0  0  0  0  0  0  0  0  0
   24.8761  -23.7971  -15.1997 C   0  0  0  0  0  0  0  0  0  0  0  0
   24.9713  -23.3151  -13.7779 C   0  0  0  0  0  0  0  0  0  0  0  0
   25.0390  -21.8396  -13.7070 C   0  0  0  0  0  0  0  0  0  0  0  0
   25.4852  -21.1280  -14.9365 C   0  0  2  0  0  0  0  0  0  0  0  0
   26.8761  -20.8159  -15.0149 N   0  0  0  0  0  0  0  0  0  0  0  0
   24.6871  -19.8732  -15.0270 C   0  0  0  0  0  0  0  0  0  0  0  0
   25.2381  -18.7574  -15.0751 O   0  0  0  0  0  0  0  0  0  0  0  0
   22.7967  -27.2139  -15.3270 N   0  0  0  0  0  0  0  0  0  0  0  0
   21.8553  -17.1593  -18.6950 C   0  0  0  0  0  0  0  0  0  0  0  0
   22.3577  -17.2358  -17.3658 O   0  0  0  0  0  0  0  0  0  0  0  0
   22.2159  -16.2047  -16.6598 C   0  0  0  0  0  0  0  0  0  0  0  0
   23.0010  -18.4598  -16.8695 C   0  0  2  0  0  0  0  0  0  0  0  0
   22.5197  -18.7829  -15.4632 N   0  0  0  0  0  0  0  0  0  0  0  0
   23.2809  -19.9671  -15.0577 C   0  0  0  0  0  0  0  0  0  0  0  0
   21.0717  -19.1118  -15.5630 O   0  0  0  0  0  0  0  0  0  0  0  0
   20.6503  -20.0758  -16.2482 N   0  0  0  0  0  0  0  0  0  0  0  0
   20.1380  -18.3197  -14.8679 C   0  0  0  0  0  0  0  0  0  0  0  0
   20.3655  -16.9905  -14.3546 C   0  0  0  0  0  0  0  0  0  0  0  0
   19.7157  -17.0795  -12.9687 C   0  0  0  0  0  0  0  0  0  0  0  0
   18.6338  -18.1195  -13.1245 C   0  0  1  0  0  0  0  0  0  0  0  0
   18.7539  -18.6521  -14.5276 C   0  0  0  0  0  0  0  0  0  0  0  0
   17.8804  -17.9639  -15.5041 O   0  0  0  0  0  0  0  0  0  0  0  0
   16.5232  -18.2253  -15.5586 O   0  0  0  0  0  0  0  0  0  0  0  0
  2  1  1  0
  3  2  2  0
  4  2  1  0
  5  6  1  0
  5  4  1  0
  7  6  1  0
  8  7  1  0
  8  9  1  1
 10  8  1  0
 10 17  1  0
 11 10  2  0
 13 12  1  0
 14 13  2  0
 16 15  1  1
 15 13  1  0
 17 16  1  0
 18 20  1  0
 18 16  1  0
 19 18  2  0
 20 21  1  0
 22 21  1  0
 23 22  1  0
 24 23  1  0
 24 20  1  0
 24 25  1  6
 26 25  1  0
 27 25  2  0
M  END
$$$$
