RNP.pdb
     RDKit          3D

 27 27  0  0  1  0  0  0  0  0999 V2000
   25.4733  -23.2384  -11.4274 N   0  0  0  0  0  0  0  0  0  0  0  0
   24.9700  -23.3589  -12.7421 C   0  0  0  0  0  0  0  0  0  0  0  0
   24.9553  -24.4987  -13.3382 N   0  0  0  0  0  0  0  0  0  0  0  0
   24.4624  -22.2180  -13.4496 N   0  0  0  0  0  0  0  0  0  0  0  0
   24.8501  -20.8731  -13.1353 C   0  0  0  0  0  0  0  0  0  0  0  0
   26.3510  -20.7741  -13.1535 C   0  0  0  0  0  0  0  0  0  0  0  0
   26.8202  -19.8094  -14.1713 C   0  0  0  0  0  0  0  0  0  0  0  0
   25.8210  -18.8286  -14.6781 C   0  0  2  0  0  0  0  0  0  0  0  0
   24.9183  -19.3062  -15.6756 N   0  0  0  0  0  0  0  0  0  0  0  0
   26.5844  -17.6660  -15.2123 C   0  0  0  0  0  0  0  0  0  0  0  0
   27.3709  -17.0220  -14.4927 O   0  0  0  0  0  0  0  0  0  0  0  0
   24.6730  -24.6311  -14.3142 N   0  0  0  0  0  0  0  0  0  0  0  0
   28.5970  -18.7538  -18.6704 C   0  0  0  0  0  0  0  0  0  0  0  0
   28.7393  -17.3965  -18.2672 O   0  0  0  0  0  0  0  0  0  0  0  0
   29.8589  -17.0736  -17.7941 C   0  0  0  0  0  0  0  0  0  0  0  0
   27.6277  -16.4458  -18.4056 C   0  0  2  0  0  0  0  0  0  0  0  0
   27.0629  -16.0833  -17.0405 N   0  0  0  0  0  0  0  0  0  0  0  0
   26.4021  -17.2997  -16.5613 C   0  0  0  0  0  0  0  0  0  0  0  0
   26.0604  -15.0046  -17.2562 O   0  0  0  0  0  0  0  0  0  0  0  0
   24.8768  -15.2495  -17.5960 N   0  0  0  0  0  0  0  0  0  0  0  0
   26.4457  -13.6627  -17.0744 C   0  0  0  0  0  0  0  0  0  0  0  0
   27.7801  -13.1918  -16.7922 C   0  0  0  0  0  0  0  0  0  0  0  0
   27.5145  -12.1456  -15.7034 C   0  0  0  0  0  0  0  0  0  0  0  0
   26.1191  -11.6481  -15.9895 C   0  0  1  0  0  0  0  0  0  0  0  0
   25.6023  -12.4683  -17.1414 C   0  0  0  0  0  0  0  0  0  0  0  0
   25.8230  -11.8442  -18.4650 O   0  0  0  0  0  0  0  0  0  0  0  0
   24.9824  -10.8523  -18.9374 O   0  0  0  0  0  0  0  0  0  0  0  0
  2  1  1  0
  3  2  2  0
  4  2  1  0
  5  6  1  0
  5  4  1  0
  7  6  1  0
  8  7  1  0
  8  9  1  6
 10  8  1  0
 10 17  1  0
 11 10  2  0
 13 12  1  0
 14 13  2  0
 16 15  1  1
 15 13  1  0
 17 16  1  0
 18 20  1  0
 18 16  1  0
 19 18  2  0
 20 21  1  0
 22 21  1  0
 23 22  1  0
 24 23  1  0
 24 20  1  0
 24 25  1  6
 26 25  1  0
 27 25  2  0
M  END
$$$$
