GRL.pdb
     RDKit          3D

 24 23  0  0  1  0  0  0  0  0999 V2000
    5.1908  -19.9887   23.2325 N   0  0  0  0  0  0  0  0  0  0  0  0
    5.1981  -18.7248   23.8938 C   0  0  0  0  0  0  0  0  0  0  0  0
    6.4188  -17.9267   23.6099 C   0  0  0  0  0  0  0  0  0  0  0  0
    7.5450  -18.3707   23.9535 O   0  0  0  0  0  0  0  0  0  0  0  0
    8.7423  -12.5079   17.7142 N   0  0  0  0  0  0  0  0  0  0  0  0
    8.6416  -13.8588   17.2403 C   0  0  0  0  0  0  0  0  0  0  0  0
    9.2571  -14.1040   16.1256 N   0  0  0  0  0  0  0  0  0  0  0  0
    7.9292  -14.8501   17.9289 N   0  0  0  0  0  0  0  0  0  0  0  0
    7.3110  -14.5126   19.1977 C   0  0  0  0  0  0  0  0  0  0  0  0
    8.1290  -15.0792   20.3608 C   0  0  0  0  0  0  0  0  0  0  0  0
    7.3232  -14.8380   21.6142 C   0  0  0  0  0  0  0  0  0  0  0  0
    7.5598  -15.8850   22.6651 C   0  0  2  0  0  0  0  0  0  0  0  0
    6.3882  -16.6689   22.9616 N   0  0  0  0  0  0  0  0  0  0  0  0
    7.9113  -15.1446   23.9298 C   0  0  0  0  0  0  0  0  0  0  0  0
    7.7216  -13.9103   23.9193 O   0  0  0  0  0  0  0  0  0  0  0  0
    9.2089  -15.0089   15.6461 C   0  0  0  0  0  0  0  0  0  0  0  0
    5.6364  -12.7234   26.8591 C   0  0  1  0  0  0  0  0  0  0  0  0
    6.9150  -13.2199   26.3100 C   0  0  0  0  0  0  0  0  0  0  0  0
    8.0407  -12.2252   26.6323 C   0  0  0  0  0  0  0  0  0  0  0  0
    7.3635  -14.5503   26.8114 C   0  0  2  0  0  0  0  0  0  0  0  0
    8.6625  -15.0520   26.2903 N   0  0  0  0  0  0  0  0  0  0  0  0
    8.4229  -15.7827   25.0651 C   0  0  0  0  0  0  0  0  0  0  0  0
    9.3961  -15.9307   27.2251 O   0  0  0  0  0  0  0  0  0  0  0  0
    9.2560  -17.1693   27.1441 O   0  0  0  0  0  0  0  0  0  0  0  0
  1  2  1  0
  2  3  1  0
  3  4  2  0
  3 13  1  0
  6  7  2  0
  6  5  1  0
  8  6  1  0
  9  8  1  0
 10  9  1  0
 11 10  1  0
 12 11  1  6
 12 14  1  0
 13 12  1  0
 14 15  2  0
 17 16  1  6
 17 19  1  0
 18 17  1  0
 20 19  1  6
 20 22  1  0
 21 14  1  0
 21 20  1  0
 22 24  1  0
 23 22  2  0
M  END
$$$$
