GRL.pdb
     RDKit          3D

 24 23  0  0  1  0  0  0  0  0999 V2000
    7.4917  -13.0789   18.6806 N   0  0  0  0  0  0  0  0  0  0  0  0
    8.3780  -13.9880   19.3309 C   0  0  0  0  0  0  0  0  0  0  0  0
    7.8259  -14.5326   20.5983 C   0  0  0  0  0  0  0  0  0  0  0  0
    6.7816  -14.0290   21.0878 O   0  0  0  0  0  0  0  0  0  0  0  0
    6.9836  -21.4805   24.7183 N   0  0  0  0  0  0  0  0  0  0  0  0
    5.8222  -21.3636   23.8834 C   0  0  0  0  0  0  0  0  0  0  0  0
    5.1108  -22.4416   23.7669 N   0  0  0  0  0  0  0  0  0  0  0  0
    5.4743  -20.1705   23.2354 N   0  0  0  0  0  0  0  0  0  0  0  0
    6.5013  -19.4415   22.5146 C   0  0  0  0  0  0  0  0  0  0  0  0
    7.2126  -18.4557   23.4447 C   0  0  0  0  0  0  0  0  0  0  0  0
    8.1939  -17.6880   22.5923 C   0  0  0  0  0  0  0  0  0  0  0  0
    7.8326  -16.2361   22.4587 C   0  0  2  0  0  0  0  0  0  0  0  0
    8.4186  -15.6078   21.3024 N   0  0  0  0  0  0  0  0  0  0  0  0
    8.4128  -15.5420   23.6639 C   0  0  0  0  0  0  0  0  0  0  0  0
    9.6366  -15.2959   23.6249 O   0  0  0  0  0  0  0  0  0  0  0  0
    4.2547  -22.4900   23.2049 C   0  0  0  0  0  0  0  0  0  0  0  0
    6.8930  -12.0214   24.9928 C   0  0  2  0  0  0  0  0  0  0  0  0
    6.9706  -12.3985   26.4192 C   0  0  0  0  0  0  0  0  0  0  0  0
    5.6756  -11.9880   27.1371 C   0  0  0  0  0  0  0  0  0  0  0  0
    7.1718  -13.8494   26.6969 C   0  0  2  0  0  0  0  0  0  0  0  0
    8.2411  -14.5311   25.9208 N   0  0  0  0  0  0  0  0  0  0  0  0
    7.6435  -15.1832   24.7762 C   0  0  0  0  0  0  0  0  0  0  0  0
    9.0047  -15.5370   26.6884 O   0  0  0  0  0  0  0  0  0  0  0  0
    8.7035  -16.7453   26.5899 O   0  0  0  0  0  0  0  0  0  0  0  0
  1  2  1  0
  2  3  1  0
  3  4  2  0
  3 13  1  0
  6  7  2  0
  6  5  1  0
  8  6  1  0
  9  8  1  0
 10  9  1  0
 11 10  1  0
 12 11  1  1
 12 14  1  0
 13 12  1  0
 14 15  2  0
 17 16  1  1
 17 19  1  0
 18 17  1  0
 20 19  1  6
 20 22  1  0
 21 14  1  0
 21 20  1  0
 22 24  1  0
 23 22  2  0
M  END
$$$$
