GRL.pdb
     RDKit          3D

 24 23  0  0  1  0  0  0  0  0999 V2000
    6.1350  -20.8388   25.3314 N   0  0  0  0  0  0  0  0  0  0  0  0
    5.5485  -19.5901   24.9688 C   0  0  0  0  0  0  0  0  0  0  0  0
    6.5132  -18.6578   24.3303 C   0  0  0  0  0  0  0  0  0  0  0  0
    7.7056  -18.6272   24.7314 O   0  0  0  0  0  0  0  0  0  0  0  0
    7.8705  -12.6032   19.1552 N   0  0  0  0  0  0  0  0  0  0  0  0
    8.5295  -13.6619   18.4450 C   0  0  0  0  0  0  0  0  0  0  0  0
    8.6312  -13.4922   17.1634 N   0  0  0  0  0  0  0  0  0  0  0  0
    9.0311  -14.8034   19.0852 N   0  0  0  0  0  0  0  0  0  0  0  0
    8.0965  -15.7256   19.7034 C   0  0  0  0  0  0  0  0  0  0  0  0
    7.4432  -15.0851   20.9306 C   0  0  0  0  0  0  0  0  0  0  0  0
    6.4970  -16.1128   21.5026 C   0  0  0  0  0  0  0  0  0  0  0  0
    7.0351  -16.7685   22.7424 C   0  0  2  0  0  0  0  0  0  0  0  0
    6.1619  -17.7832   23.2744 N   0  0  0  0  0  0  0  0  0  0  0  0
    7.1242  -15.6880   23.7891 C   0  0  0  0  0  0  0  0  0  0  0  0
    6.1679  -14.8863   23.8396 O   0  0  0  0  0  0  0  0  0  0  0  0
    9.1432  -14.1362   16.5517 C   0  0  0  0  0  0  0  0  0  0  0  0
    7.6958  -11.6015   26.5585 C   0  0  2  0  0  0  0  0  0  0  0  0
    7.1261  -12.8718   27.0531 C   0  0  0  0  0  0  0  0  0  0  0  0
    5.6765  -12.6486   27.5108 C   0  0  0  0  0  0  0  0  0  0  0  0
    7.0969  -13.9950   26.0732 C   0  0  1  0  0  0  0  0  0  0  0  0
    8.3980  -14.3774   25.4637 N   0  0  0  0  0  0  0  0  0  0  0  0
    8.2076  -15.5693   24.6666 C   0  0  0  0  0  0  0  0  0  0  0  0
    9.4771  -14.6334   26.4406 O   0  0  0  0  0  0  0  0  0  0  0  0
   10.4262  -13.8268   26.5350 O   0  0  0  0  0  0  0  0  0  0  0  0
  1  2  1  0
  2  3  1  0
  3  4  2  0
  3 13  1  0
  6  7  2  0
  6  5  1  0
  8  6  1  0
  9  8  1  0
 10  9  1  0
 11 10  1  0
 12 11  1  6
 12 14  1  0
 13 12  1  0
 14 15  2  0
 17 16  1  1
 17 19  1  0
 18 17  1  0
 20 19  1  6
 20 22  1  0
 21 14  1  0
 21 20  1  0
 22 24  1  0
 23 22  2  0
M  END
$$$$
