GRL.pdb
     RDKit          3D

 24 23  0  0  1  0  0  0  0  0999 V2000
    5.8313  -20.3739   25.1486 N   0  0  0  0  0  0  0  0  0  0  0  0
    5.6691  -18.9567   25.1593 C   0  0  0  0  0  0  0  0  0  0  0  0
    6.7332  -18.2437   24.4064 C   0  0  0  0  0  0  0  0  0  0  0  0
    7.9383  -18.5591   24.5852 O   0  0  0  0  0  0  0  0  0  0  0  0
    6.7617  -13.2348   18.5688 N   0  0  0  0  0  0  0  0  0  0  0  0
    8.1334  -13.5092   18.2481 C   0  0  0  0  0  0  0  0  0  0  0  0
    8.7459  -12.5783   17.5848 N   0  0  0  0  0  0  0  0  0  0  0  0
    8.7737  -14.6985   18.6222 N   0  0  0  0  0  0  0  0  0  0  0  0
    8.1339  -15.5589   19.6002 C   0  0  0  0  0  0  0  0  0  0  0  0
    8.0367  -14.8523   20.9545 C   0  0  0  0  0  0  0  0  0  0  0  0
    6.9455  -15.5507   21.7293 C   0  0  0  0  0  0  0  0  0  0  0  0
    7.4831  -16.4287   22.8231 C   0  0  2  0  0  0  0  0  0  0  0  0
    6.4649  -17.2081   23.4797 N   0  0  0  0  0  0  0  0  0  0  0  0
    8.0546  -15.5040   23.8669 C   0  0  0  0  0  0  0  0  0  0  0  0
    8.4553  -14.3927   23.4619 O   0  0  0  0  0  0  0  0  0  0  0  0
    9.6870  -12.6945   17.1951 C   0  0  0  0  0  0  0  0  0  0  0  0
    6.0133  -12.2412   26.5573 C   0  0  1  0  0  0  0  0  0  0  0  0
    7.0986  -13.0358   25.9460 C   0  0  0  0  0  0  0  0  0  0  0  0
    8.2696  -12.1148   25.5705 C   0  0  0  0  0  0  0  0  0  0  0  0
    7.6647  -14.1224   26.7954 C   0  0  2  0  0  0  0  0  0  0  0  0
    8.7378  -14.9507   26.1846 N   0  0  0  0  0  0  0  0  0  0  0  0
    8.1420  -15.8491   25.2201 C   0  0  0  0  0  0  0  0  0  0  0  0
    9.5161  -15.7510   27.1531 O   0  0  0  0  0  0  0  0  0  0  0  0
    9.3230  -16.9827   27.2300 O   0  0  0  0  0  0  0  0  0  0  0  0
  1  2  1  0
  2  3  1  0
  3  4  2  0
  3 13  1  0
  6  7  2  0
  6  5  1  0
  8  6  1  0
  9  8  1  0
 10  9  1  0
 11 10  1  0
 12 11  1  6
 12 14  1  0
 13 12  1  0
 14 15  2  0
 17 16  1  6
 17 19  1  0
 18 17  1  0
 20 19  1  6
 20 22  1  0
 21 14  1  0
 21 20  1  0
 22 24  1  0
 23 22  2  0
M  END
$$$$
