GRL.pdb
     RDKit          3D

 24 23  0  0  1  0  0  0  0  0999 V2000
    5.8728  -20.9817   24.7004 N   0  0  0  0  0  0  0  0  0  0  0  0
    5.7332  -19.6250   25.1184 C   0  0  0  0  0  0  0  0  0  0  0  0
    6.7113  -18.7131   24.4708 C   0  0  0  0  0  0  0  0  0  0  0  0
    7.9415  -18.9674   24.5457 O   0  0  0  0  0  0  0  0  0  0  0  0
    7.0591  -12.9410   19.2132 N   0  0  0  0  0  0  0  0  0  0  0  0
    8.3201  -13.5908   18.9961 C   0  0  0  0  0  0  0  0  0  0  0  0
    9.2136  -12.8789   18.3825 N   0  0  0  0  0  0  0  0  0  0  0  0
    8.5759  -14.9035   19.4153 N   0  0  0  0  0  0  0  0  0  0  0  0
    7.6604  -15.5292   20.3514 C   0  0  0  0  0  0  0  0  0  0  0  0
    7.5391  -14.6899   21.6257 C   0  0  0  0  0  0  0  0  0  0  0  0
    6.5962  -15.4303   22.5430 C   0  0  0  0  0  0  0  0  0  0  0  0
    7.2622  -16.5692   23.2612 C   0  0  2  0  0  0  0  0  0  0  0  0
    6.3320  -17.5500   23.7590 N   0  0  0  0  0  0  0  0  0  0  0  0
    7.9409  -15.9715   24.4667 C   0  0  0  0  0  0  0  0  0  0  0  0
    7.2549  -15.1882   25.1563 O   0  0  0  0  0  0  0  0  0  0  0  0
   10.1393  -13.2390   18.1283 C   0  0  0  0  0  0  0  0  0  0  0  0
    9.9751  -13.0964   27.9006 C   0  0  2  0  0  0  0  0  0  0  0  0
   10.0789  -14.5603   28.0703 C   0  0  0  0  0  0  0  0  0  0  0  0
    9.4708  -14.9721   29.4199 C   0  0  0  0  0  0  0  0  0  0  0  0
    9.4029  -15.3841   27.0277 C   0  0  1  0  0  0  0  0  0  0  0  0
   10.0230  -15.3830   25.6764 N   0  0  0  0  0  0  0  0  0  0  0  0
    9.2646  -16.2627   24.8142 C   0  0  0  0  0  0  0  0  0  0  0  0
   11.4379  -15.8094   25.6544 O   0  0  0  0  0  0  0  0  0  0  0  0
   11.7133  -17.0267   25.6031 O   0  0  0  0  0  0  0  0  0  0  0  0
  1  2  1  0
  2  3  1  0
  3  4  2  0
  3 13  1  0
  6  7  2  0
  6  5  1  0
  8  6  1  0
  9  8  1  0
 10  9  1  0
 11 10  1  0
 12 11  1  1
 12 14  1  0
 13 12  1  0
 14 15  2  0
 17 16  1  1
 17 19  1  0
 18 17  1  0
 20 19  1  6
 20 22  1  0
 21 14  1  0
 21 20  1  0
 22 24  1  0
 23 22  2  0
M  END
$$$$
