GRL.pdb
     RDKit          3D

 24 23  0  0  1  0  0  0  0  0999 V2000
    6.2831  -20.4096   27.3154 N   0  0  0  0  0  0  0  0  0  0  0  0
    5.9957  -19.0765   26.8970 C   0  0  0  0  0  0  0  0  0  0  0  0
    6.9583  -18.5629   25.8885 C   0  0  0  0  0  0  0  0  0  0  0  0
    8.1550  -18.9512   25.9180 O   0  0  0  0  0  0  0  0  0  0  0  0
    6.7161  -13.1545   20.6932 N   0  0  0  0  0  0  0  0  0  0  0  0
    7.6494  -13.7118   19.7562 C   0  0  0  0  0  0  0  0  0  0  0  0
    8.4152  -12.8535   19.1575 N   0  0  0  0  0  0  0  0  0  0  0  0
    7.7335  -15.0873   19.5006 N   0  0  0  0  0  0  0  0  0  0  0  0
    7.2498  -16.0158   20.5055 C   0  0  0  0  0  0  0  0  0  0  0  0
    7.8574  -15.6915   21.8725 C   0  0  0  0  0  0  0  0  0  0  0  0
    6.8818  -16.1932   22.9094 C   0  0  0  0  0  0  0  0  0  0  0  0
    7.5371  -17.0513   23.9537 C   0  0  2  0  0  0  0  0  0  0  0  0
    6.6003  -17.6427   24.8745 N   0  0  0  0  0  0  0  0  0  0  0  0
    8.4155  -16.1347   24.7657 C   0  0  0  0  0  0  0  0  0  0  0  0
    7.8978  -15.0625   25.1425 O   0  0  0  0  0  0  0  0  0  0  0  0
    9.0152  -13.0967   18.3625 C   0  0  0  0  0  0  0  0  0  0  0  0
    9.3960  -14.9968   29.3119 C   0  0  1  0  0  0  0  0  0  0  0  0
    9.3675  -14.9952   27.8348 C   0  0  0  0  0  0  0  0  0  0  0  0
    9.2423  -13.5536   27.3184 C   0  0  0  0  0  0  0  0  0  0  0  0
   10.5584  -15.5884   27.1621 C   0  0  2  0  0  0  0  0  0  0  0  0
   10.6174  -15.4587   25.6821 N   0  0  0  0  0  0  0  0  0  0  0  0
    9.7402  -16.4459   25.0919 C   0  0  0  0  0  0  0  0  0  0  0  0
   11.9687  -15.6287   25.1085 O   0  0  0  0  0  0  0  0  0  0  0  0
   12.2716  -16.7070   24.5553 O   0  0  0  0  0  0  0  0  0  0  0  0
  1  2  1  0
  2  3  1  0
  3  4  2  0
  3 13  1  0
  6  7  2  0
  6  5  1  0
  8  6  1  0
  9  8  1  0
 10  9  1  0
 11 10  1  0
 12 11  1  6
 12 14  1  0
 13 12  1  0
 14 15  2  0
 17 16  1  1
 17 19  1  0
 18 17  1  0
 20 19  1  1
 20 22  1  0
 21 14  1  0
 21 20  1  0
 22 24  1  0
 23 22  2  0
M  END
$$$$
