GRL.pdb
     RDKit          3D

 24 23  0  0  1  0  0  0  0  0999 V2000
   13.6362  -16.9063   21.1904 N   0  0  0  0  0  0  0  0  0  0  0  0
   12.6171  -17.3543   22.0824 C   0  0  0  0  0  0  0  0  0  0  0  0
   11.5344  -16.3556   22.2775 C   0  0  0  0  0  0  0  0  0  0  0  0
   11.8268  -15.1369   22.3908 O   0  0  0  0  0  0  0  0  0  0  0  0
    8.4258  -12.2810   18.5811 N   0  0  0  0  0  0  0  0  0  0  0  0
    8.2245  -13.6960   18.4508 C   0  0  0  0  0  0  0  0  0  0  0  0
    8.3664  -14.1694   17.2519 N   0  0  0  0  0  0  0  0  0  0  0  0
    7.8970  -14.5161   19.5393 N   0  0  0  0  0  0  0  0  0  0  0  0
    6.9356  -14.0337   20.5134 C   0  0  0  0  0  0  0  0  0  0  0  0
    6.8304  -15.0064   21.6906 C   0  0  0  0  0  0  0  0  0  0  0  0
    7.9529  -16.0027   21.5299 C   0  0  0  0  0  0  0  0  0  0  0  0
    9.0945  -15.7457   22.4719 C   0  0  2  0  0  0  0  0  0  0  0  0
   10.1639  -16.7025   22.3447 N   0  0  0  0  0  0  0  0  0  0  0  0
    8.5399  -15.9054   23.8639 C   0  0  0  0  0  0  0  0  0  0  0  0
    8.5934  -17.0534   24.3526 O   0  0  0  0  0  0  0  0  0  0  0  0
    8.3487  -15.1723   17.0397 C   0  0  0  0  0  0  0  0  0  0  0  0
    8.1842  -12.1981   26.3588 C   0  0  2  0  0  0  0  0  0  0  0  0
    6.9275  -12.7813   26.8720 C   0  0  0  0  0  0  0  0  0  0  0  0
    5.8287  -11.7077   26.8992 C   0  0  0  0  0  0  0  0  0  0  0  0
    6.3819  -13.9319   26.0967 C   0  0  2  0  0  0  0  0  0  0  0  0
    7.3126  -15.0641   25.8466 N   0  0  0  0  0  0  0  0  0  0  0  0
    7.9906  -14.8417   24.5884 C   0  0  0  0  0  0  0  0  0  0  0  0
    6.6615  -16.3900   25.8010 O   0  0  0  0  0  0  0  0  0  0  0  0
    6.1745  -16.8001   24.7263 O   0  0  0  0  0  0  0  0  0  0  0  0
  1  2  1  0
  2  3  1  0
  3  4  2  0
  3 13  1  0
  6  7  2  0
  6  5  1  0
  8  6  1  0
  9  8  1  0
 10  9  1  0
 11 10  1  0
 12 11  1  6
 12 14  1  0
 13 12  1  0
 14 15  2  0
 17 16  1  1
 17 19  1  0
 18 17  1  0
 20 19  1  1
 20 22  1  0
 21 14  1  0
 21 20  1  0
 22 24  1  0
 23 22  2  0
M  END
$$$$
