GRL.pdb
     RDKit          3D

 24 23  0  0  1  0  0  0  0  0999 V2000
    7.8746  -12.8809   17.4606 N   0  0  0  0  0  0  0  0  0  0  0  0
    8.7466  -13.4688   18.4244 C   0  0  0  0  0  0  0  0  0  0  0  0
    8.0226  -14.2193   19.4827 C   0  0  0  0  0  0  0  0  0  0  0  0
    6.7642  -14.2314   19.4852 O   0  0  0  0  0  0  0  0  0  0  0  0
   12.8862  -18.3724   19.2606 N   0  0  0  0  0  0  0  0  0  0  0  0
   11.8161  -19.1794   19.7737 C   0  0  0  0  0  0  0  0  0  0  0  0
   12.1173  -19.9159   20.7977 N   0  0  0  0  0  0  0  0  0  0  0  0
   10.5318  -19.1773   19.2124 N   0  0  0  0  0  0  0  0  0  0  0  0
    9.4055  -18.7997   20.0459 C   0  0  0  0  0  0  0  0  0  0  0  0
    9.6312  -17.4150   20.6580 C   0  0  0  0  0  0  0  0  0  0  0  0
    8.4548  -17.1460   21.5649 C   0  0  0  0  0  0  0  0  0  0  0  0
    7.9993  -15.7155   21.5135 C   0  0  2  0  0  0  0  0  0  0  0  0
    8.6798  -14.9371   20.5104 N   0  0  0  0  0  0  0  0  0  0  0  0
    8.3591  -15.1078   22.8447 C   0  0  0  0  0  0  0  0  0  0  0  0
    9.5776  -14.9574   23.0732 O   0  0  0  0  0  0  0  0  0  0  0  0
   11.4193  -20.4389   21.3365 C   0  0  0  0  0  0  0  0  0  0  0  0
    7.7529  -11.4399   26.5920 C   0  0  2  0  0  0  0  0  0  0  0  0
    6.8704  -12.5993   26.8363 C   0  0  0  0  0  0  0  0  0  0  0  0
    5.5022  -12.1146   27.3403 C   0  0  0  0  0  0  0  0  0  0  0  0
    6.6066  -13.4738   25.6580 C   0  0  2  0  0  0  0  0  0  0  0  0
    7.7856  -14.1539   25.0597 N   0  0  0  0  0  0  0  0  0  0  0  0
    7.3992  -14.7254   23.7883 C   0  0  0  0  0  0  0  0  0  0  0  0
    8.3633  -15.2242   25.8993 O   0  0  0  0  0  0  0  0  0  0  0  0
    7.7950  -16.3350   25.9579 O   0  0  0  0  0  0  0  0  0  0  0  0
  1  2  1  0
  2  3  1  0
  3  4  2  0
  3 13  1  0
  6  7  2  0
  6  5  1  0
  8  6  1  0
  9  8  1  0
 10  9  1  0
 11 10  1  0
 12 11  1  1
 12 14  1  0
 13 12  1  0
 14 15  2  0
 17 16  1  1
 17 19  1  0
 18 17  1  0
 20 19  1  6
 20 22  1  0
 21 14  1  0
 21 20  1  0
 22 24  1  0
 23 22  2  0
M  END
$$$$
