GRL.pdb
     RDKit          3D

 24 23  0  0  1  0  0  0  0  0999 V2000
   13.8630  -17.4063   21.2505 N   0  0  0  0  0  0  0  0  0  0  0  0
   12.8636  -17.7785   22.1978 C   0  0  0  0  0  0  0  0  0  0  0  0
   11.7756  -16.7741   22.3207 C   0  0  0  0  0  0  0  0  0  0  0  0
   12.0662  -15.5588   22.4699 O   0  0  0  0  0  0  0  0  0  0  0  0
    8.1860  -12.1013   18.4718 N   0  0  0  0  0  0  0  0  0  0  0  0
    7.8643  -13.4828   18.6902 C   0  0  0  0  0  0  0  0  0  0  0  0
    7.5986  -14.1672   17.6213 N   0  0  0  0  0  0  0  0  0  0  0  0
    7.8371  -14.0597   19.9673 N   0  0  0  0  0  0  0  0  0  0  0  0
    6.7877  -15.0113   20.2821 C   0  0  0  0  0  0  0  0  0  0  0  0
    6.9796  -15.5746   21.6924 C   0  0  0  0  0  0  0  0  0  0  0  0
    8.0968  -16.5861   21.6057 C   0  0  0  0  0  0  0  0  0  0  0  0
    9.3319  -16.1491   22.3407 C   0  0  2  0  0  0  0  0  0  0  0  0
   10.4017  -17.1117   22.2787 N   0  0  0  0  0  0  0  0  0  0  0  0
    8.9430  -16.0333   23.7920 C   0  0  0  0  0  0  0  0  0  0  0  0
    9.0006  -17.0833   24.4657 O   0  0  0  0  0  0  0  0  0  0  0  0
    7.2980  -15.1471   17.6435 C   0  0  0  0  0  0  0  0  0  0  0  0
    8.2620  -12.3680   27.5856 C   0  0  2  0  0  0  0  0  0  0  0  0
    6.9832  -12.9432   27.1203 C   0  0  0  0  0  0  0  0  0  0  0  0
    5.9373  -11.8285   26.9644 C   0  0  0  0  0  0  0  0  0  0  0  0
    7.0331  -13.6677   25.8182 C   0  0  2  0  0  0  0  0  0  0  0  0
    8.0055  -14.7881   25.7195 N   0  0  0  0  0  0  0  0  0  0  0  0
    8.5368  -14.8278   24.3748 C   0  0  0  0  0  0  0  0  0  0  0  0
    7.4407  -16.1156   26.0404 O   0  0  0  0  0  0  0  0  0  0  0  0
    7.8187  -16.7129   27.0704 O   0  0  0  0  0  0  0  0  0  0  0  0
  1  2  1  0
  2  3  1  0
  3  4  2  0
  3 13  1  0
  6  7  2  0
  6  5  1  0
  8  6  1  0
  9  8  1  0
 10  9  1  0
 11 10  1  0
 12 11  1  6
 12 14  1  0
 13 12  1  0
 14 15  2  0
 17 16  1  1
 17 19  1  0
 18 17  1  0
 20 19  1  1
 20 22  1  0
 21 14  1  0
 21 20  1  0
 22 24  1  0
 23 22  2  0
M  END
$$$$
