GRL.pdb
     RDKit          3D

 24 23  0  0  1  0  0  0  0  0999 V2000
    5.1049  -19.2554   22.7370 N   0  0  0  0  0  0  0  0  0  0  0  0
    5.1447  -17.8333   22.6336 C   0  0  0  0  0  0  0  0  0  0  0  0
    6.5274  -17.2895   22.6186 C   0  0  0  0  0  0  0  0  0  0  0  0
    7.4906  -18.0328   22.9404 O   0  0  0  0  0  0  0  0  0  0  0  0
    7.5889  -13.6846   16.3790 N   0  0  0  0  0  0  0  0  0  0  0  0
    8.8130  -13.7962   17.1197 C   0  0  0  0  0  0  0  0  0  0  0  0
    9.8183  -14.2838   16.4615 N   0  0  0  0  0  0  0  0  0  0  0  0
    8.9223  -13.4072   18.4618 N   0  0  0  0  0  0  0  0  0  0  0  0
    7.7094  -13.1504   19.2160 C   0  0  0  0  0  0  0  0  0  0  0  0
    7.3818  -14.3372   20.1256 C   0  0  0  0  0  0  0  0  0  0  0  0
    8.3279  -14.2567   21.2990 C   0  0  0  0  0  0  0  0  0  0  0  0
    8.1607  -15.4015   22.2572 C   0  0  2  0  0  0  0  0  0  0  0  0
    6.8311  -15.9557   22.2555 N   0  0  0  0  0  0  0  0  0  0  0  0
    8.3881  -14.8372   23.6359 C   0  0  0  0  0  0  0  0  0  0  0  0
    8.3127  -13.5954   23.7450 O   0  0  0  0  0  0  0  0  0  0  0  0
   10.7448  -14.4250   16.8772 C   0  0  0  0  0  0  0  0  0  0  0  0
    5.9537  -12.4950   26.6280 C   0  0  1  0  0  0  0  0  0  0  0  0
    7.2204  -13.0718   26.1322 C   0  0  0  0  0  0  0  0  0  0  0  0
    8.4098  -12.2924   26.7141 C   0  0  0  0  0  0  0  0  0  0  0  0
    7.4503  -14.5084   26.4574 C   0  0  2  0  0  0  0  0  0  0  0  0
    8.7716  -15.0720   26.0737 N   0  0  0  0  0  0  0  0  0  0  0  0
    8.6694  -15.6397   24.7472 C   0  0  0  0  0  0  0  0  0  0  0  0
    9.2805  -16.1126   26.9916 O   0  0  0  0  0  0  0  0  0  0  0  0
    9.0572  -17.3160   26.7424 O   0  0  0  0  0  0  0  0  0  0  0  0
  1  2  1  0
  2  3  1  0
  3  4  2  0
  3 13  1  0
  6  7  2  0
  6  5  1  0
  8  6  1  0
  9  8  1  0
 10  9  1  0
 11 10  1  0
 12 11  1  6
 12 14  1  0
 13 12  1  0
 14 15  2  0
 17 16  1  6
 17 19  1  0
 18 17  1  0
 20 19  1  6
 20 22  1  0
 21 14  1  0
 21 20  1  0
 22 24  1  0
 23 22  2  0
M  END
$$$$
