GRL.pdb
     RDKit          3D

 24 23  0  0  1  0  0  0  0  0999 V2000
   13.0553  -17.8519   20.9936 N   0  0  0  0  0  0  0  0  0  0  0  0
   12.1036  -17.9553   22.0512 C   0  0  0  0  0  0  0  0  0  0  0  0
   11.1446  -16.8209   22.0839 C   0  0  0  0  0  0  0  0  0  0  0  0
   11.5794  -15.6420   22.1535 O   0  0  0  0  0  0  0  0  0  0  0  0
    8.9091  -14.9177   16.7038 N   0  0  0  0  0  0  0  0  0  0  0  0
    8.0019  -13.9392   17.2323 C   0  0  0  0  0  0  0  0  0  0  0  0
    7.8649  -12.8655   16.5181 N   0  0  0  0  0  0  0  0  0  0  0  0
    7.3083  -14.1240   18.4361 N   0  0  0  0  0  0  0  0  0  0  0  0
    7.7816  -15.1309   19.3679 C   0  0  0  0  0  0  0  0  0  0  0  0
    6.9450  -15.1114   20.6496 C   0  0  0  0  0  0  0  0  0  0  0  0
    7.4620  -16.2307   21.5206 C   0  0  0  0  0  0  0  0  0  0  0  0
    8.7919  -15.9131   22.1427 C   0  0  2  0  0  0  0  0  0  0  0  0
    9.7404  -16.9925   22.0405 N   0  0  0  0  0  0  0  0  0  0  0  0
    8.5338  -15.7072   23.6131 C   0  0  0  0  0  0  0  0  0  0  0  0
    9.1397  -16.4709   24.3936 O   0  0  0  0  0  0  0  0  0  0  0  0
    7.2564  -12.0861   16.7890 C   0  0  0  0  0  0  0  0  0  0  0  0
    5.8743  -11.6158   27.3071 C   0  0  2  0  0  0  0  0  0  0  0  0
    7.1474  -12.2207   26.8644 C   0  0  0  0  0  0  0  0  0  0  0  0
    7.6067  -13.2725   27.8860 C   0  0  0  0  0  0  0  0  0  0  0  0
    7.1167  -12.8989   25.5371 C   0  0  1  0  0  0  0  0  0  0  0  0
    7.7878  -14.2230   25.4531 N   0  0  0  0  0  0  0  0  0  0  0  0
    7.6681  -14.7219   24.1007 C   0  0  0  0  0  0  0  0  0  0  0  0
    7.2468  -15.2405   26.3784 O   0  0  0  0  0  0  0  0  0  0  0  0
    6.1529  -15.7863   26.1219 O   0  0  0  0  0  0  0  0  0  0  0  0
  1  2  1  0
  2  3  1  0
  3  4  2  0
  3 13  1  0
  6  7  2  0
  6  5  1  0
  8  6  1  0
  9  8  1  0
 10  9  1  0
 11 10  1  0
 12 11  1  6
 12 14  1  0
 13 12  1  0
 14 15  2  0
 17 16  1  1
 17 19  1  0
 18 17  1  0
 20 19  1  6
 20 22  1  0
 21 14  1  0
 21 20  1  0
 22 24  1  0
 23 22  2  0
M  END
$$$$
