GRL.pdb
     RDKit          3D

 24 23  0  0  1  0  0  0  0  0999 V2000
    5.6222  -20.5555   23.7129 N   0  0  0  0  0  0  0  0  0  0  0  0
    5.4967  -19.2246   24.2107 C   0  0  0  0  0  0  0  0  0  0  0  0
    6.5573  -18.3133   23.7086 C   0  0  0  0  0  0  0  0  0  0  0  0
    7.7636  -18.6643   23.7817 O   0  0  0  0  0  0  0  0  0  0  0  0
    9.3465  -14.2130   17.8863 N   0  0  0  0  0  0  0  0  0  0  0  0
    8.0137  -13.7871   18.2054 C   0  0  0  0  0  0  0  0  0  0  0  0
    7.2535  -13.5304   17.1866 N   0  0  0  0  0  0  0  0  0  0  0  0
    7.5578  -13.6552   19.5242 N   0  0  0  0  0  0  0  0  0  0  0  0
    8.4565  -13.9952   20.6116 C   0  0  0  0  0  0  0  0  0  0  0  0
    7.7747  -13.7661   21.9628 C   0  0  0  0  0  0  0  0  0  0  0  0
    6.7446  -14.8586   22.1181 C   0  0  0  0  0  0  0  0  0  0  0  0
    7.2973  -16.0846   22.7873 C   0  0  2  0  0  0  0  0  0  0  0  0
    6.2843  -17.0460   23.1405 N   0  0  0  0  0  0  0  0  0  0  0  0
    7.9160  -15.6195   24.0803 C   0  0  0  0  0  0  0  0  0  0  0  0
    7.2148  -14.8692   24.7909 O   0  0  0  0  0  0  0  0  0  0  0  0
    6.2593  -13.2957   17.2742 C   0  0  0  0  0  0  0  0  0  0  0  0
   10.0073  -13.0842   27.9033 C   0  0  2  0  0  0  0  0  0  0  0  0
   10.0296  -14.5608   27.8581 C   0  0  0  0  0  0  0  0  0  0  0  0
    9.4246  -15.1301   29.1506 C   0  0  0  0  0  0  0  0  0  0  0  0
    9.2873  -15.1867   26.7268 C   0  0  1  0  0  0  0  0  0  0  0  0
    9.9654  -15.1790   25.4036 N   0  0  0  0  0  0  0  0  0  0  0  0
    9.2026  -15.9939   24.4836 C   0  0  0  0  0  0  0  0  0  0  0  0
   11.3568  -15.6766   25.4286 O   0  0  0  0  0  0  0  0  0  0  0  0
   12.2580  -15.0130   24.8738 O   0  0  0  0  0  0  0  0  0  0  0  0
  1  2  1  0
  2  3  1  0
  3  4  2  0
  3 13  1  0
  6  7  2  0
  6  5  1  0
  8  6  1  0
  9  8  1  0
 10  9  1  0
 11 10  1  0
 12 11  1  1
 12 14  1  0
 13 12  1  0
 14 15  2  0
 17 16  1  1
 17 19  1  0
 18 17  1  0
 20 19  1  6
 20 22  1  0
 21 14  1  0
 21 20  1  0
 22 24  1  0
 23 22  2  0
M  END
$$$$
