GRL.pdb
     RDKit          3D

 24 23  0  0  1  0  0  0  0  0999 V2000
   13.7761  -17.0657   20.1772 N   0  0  0  0  0  0  0  0  0  0  0  0
   12.6451  -17.5905   20.8702 C   0  0  0  0  0  0  0  0  0  0  0  0
   11.8818  -16.5515   21.6088 C   0  0  0  0  0  0  0  0  0  0  0  0
   12.4834  -15.5429   22.0611 O   0  0  0  0  0  0  0  0  0  0  0  0
    7.7054  -12.4641   19.1714 N   0  0  0  0  0  0  0  0  0  0  0  0
    7.7339  -13.8191   18.6993 C   0  0  0  0  0  0  0  0  0  0  0  0
    8.2562  -13.9873   17.5243 N   0  0  0  0  0  0  0  0  0  0  0  0
    7.2340  -14.8917   19.4503 N   0  0  0  0  0  0  0  0  0  0  0  0
    6.7099  -14.6309   20.7782 C   0  0  0  0  0  0  0  0  0  0  0  0
    7.8495  -14.3348   21.7563 C   0  0  0  0  0  0  0  0  0  0  0  0
    8.2829  -15.6621   22.3300 C   0  0  0  0  0  0  0  0  0  0  0  0
    9.7491  -15.7018   22.6541 C   0  0  2  0  0  0  0  0  0  0  0  0
   10.4875  -16.6315   21.8383 N   0  0  0  0  0  0  0  0  0  0  0  0
    9.8565  -16.1976   24.0731 C   0  0  0  0  0  0  0  0  0  0  0  0
   10.3544  -17.3326   24.2266 O   0  0  0  0  0  0  0  0  0  0  0  0
    8.3428  -14.9051   17.0757 C   0  0  0  0  0  0  0  0  0  0  0  0
    8.9441  -12.4492   27.8729 C   0  0  1  0  0  0  0  0  0  0  0  0
    9.7464  -13.6110   27.4376 C   0  0  0  0  0  0  0  0  0  0  0  0
   10.9912  -13.7466   28.3279 C   0  0  0  0  0  0  0  0  0  0  0  0
    9.0509  -14.9292   27.4714 C   0  0  2  0  0  0  0  0  0  0  0  0
    9.5404  -15.9620   26.5205 N   0  0  0  0  0  0  0  0  0  0  0  0
    9.4290  -15.4465   25.1736 C   0  0  0  0  0  0  0  0  0  0  0  0
    8.8168  -17.2486   26.5919 O   0  0  0  0  0  0  0  0  0  0  0  0
    8.9920  -17.9998   27.5745 O   0  0  0  0  0  0  0  0  0  0  0  0
  1  2  1  0
  2  3  1  0
  3  4  2  0
  3 13  1  0
  6  7  2  0
  6  5  1  0
  8  6  1  0
  9  8  1  0
 10  9  1  0
 11 10  1  0
 12 11  1  6
 12 14  1  0
 13 12  1  0
 14 15  2  0
 17 16  1  6
 17 19  1  0
 18 17  1  0
 20 19  1  1
 20 22  1  0
 21 14  1  0
 21 20  1  0
 22 24  1  0
 23 22  2  0
M  END
$$$$
