GRL.pdb
     RDKit          3D

 24 23  0  0  1  0  0  0  0  0999 V2000
    9.7667  -16.7777   18.6141 N   0  0  0  0  0  0  0  0  0  0  0  0
   10.3108  -17.0461   19.9051 C   0  0  0  0  0  0  0  0  0  0  0  0
    9.3314  -16.8408   21.0034 C   0  0  0  0  0  0  0  0  0  0  0  0
    8.3123  -16.1305   20.8020 O   0  0  0  0  0  0  0  0  0  0  0  0
    7.3793  -22.1919   24.8086 N   0  0  0  0  0  0  0  0  0  0  0  0
    6.2858  -21.3857   24.3463 C   0  0  0  0  0  0  0  0  0  0  0  0
    5.7274  -21.7848   23.2460 N   0  0  0  0  0  0  0  0  0  0  0  0
    5.8458  -20.2446   25.0309 N   0  0  0  0  0  0  0  0  0  0  0  0
    6.8024  -19.4909   25.8202 C   0  0  0  0  0  0  0  0  0  0  0  0
    7.1042  -18.1452   25.1560 C   0  0  0  0  0  0  0  0  0  0  0  0
    8.1428  -18.4109   24.0932 C   0  0  0  0  0  0  0  0  0  0  0  0
    8.5879  -17.1588   23.3928 C   0  0  2  0  0  0  0  0  0  0  0  0
    9.4809  -17.4098   22.2907 N   0  0  0  0  0  0  0  0  0  0  0  0
    9.3697  -16.3617   24.4049 C   0  0  0  0  0  0  0  0  0  0  0  0
    9.8465  -17.0024   25.3650 O   0  0  0  0  0  0  0  0  0  0  0  0
    4.9252  -21.3093   22.8202 C   0  0  0  0  0  0  0  0  0  0  0  0
    6.3805  -13.2238   26.8168 C   0  0  2  0  0  0  0  0  0  0  0  0
    6.7750  -12.7453   25.4759 C   0  0  0  0  0  0  0  0  0  0  0  0
    7.5988  -11.4549   25.6055 C   0  0  0  0  0  0  0  0  0  0  0  0
    7.5896  -13.6926   24.6625 C   0  0  2  0  0  0  0  0  0  0  0  0
    8.9223  -14.0602   25.2097 N   0  0  0  0  0  0  0  0  0  0  0  0
    9.5641  -14.9803   24.2965 C   0  0  0  0  0  0  0  0  0  0  0  0
    8.8809  -14.6814   26.5500 O   0  0  0  0  0  0  0  0  0  0  0  0
    9.5095  -14.1548   27.4923 O   0  0  0  0  0  0  0  0  0  0  0  0
  1  2  1  0
  2  3  1  0
  3  4  2  0
  3 13  1  0
  6  7  2  0
  6  5  1  0
  8  6  1  0
  9  8  1  0
 10  9  1  0
 11 10  1  0
 12 11  1  1
 12 14  1  0
 13 12  1  0
 14 15  2  0
 17 16  1  6
 17 19  1  0
 18 17  1  0
 20 19  1  6
 20 22  1  0
 21 14  1  0
 21 20  1  0
 22 24  1  0
 23 22  2  0
M  END
$$$$
