PKV.pdb
     RDKit          3D

 24 24  0  0  1  0  0  0  0  0999 V2000
   27.5378  -20.5128  -15.7867 N   0  0  0  0  0  0  0  0  0  0  0  0
   27.5378  -19.5606  -16.8540 C   0  0  0  0  0  0  0  0  0  0  0  0
   28.2464  -18.3256  -16.3570 C   0  0  0  0  0  0  0  0  0  0  0  0
   28.4136  -18.5824  -14.8917 C   0  0  0  0  0  0  0  0  0  0  0  0
   27.5551  -19.7748  -14.5426 C   0  0  1  0  0  0  0  0  0  0  0  0
   26.1629  -19.3804  -14.2136 C   0  0  0  0  0  0  0  0  0  0  0  0
   25.9704  -18.5509  -13.2836 O   0  0  0  0  0  0  0  0  0  0  0  0
   25.0387  -19.9034  -14.9084 N   0  0  0  0  0  0  0  0  0  0  0  0
   23.7026  -19.5400  -14.5676 C   0  0  1  0  0  0  0  0  0  0  0  0
   22.8371  -19.3039  -15.7839 C   0  0  0  0  0  0  0  0  0  0  0  0
   23.3320  -18.1818  -16.6471 C   0  0  0  0  0  0  0  0  0  0  0  0
   22.4036  -18.0753  -17.8378 C   0  0  0  0  0  0  0  0  0  0  0  0
   22.9076  -17.0441  -18.8283 C   0  0  0  0  0  0  0  0  0  0  0  0
   22.0322  -17.0377  -19.9855 N   0  0  0  0  0  0  0  0  0  0  0  0
   23.0242  -20.6035  -13.7485 C   0  0  0  0  0  0  0  0  0  0  0  0
   22.9953  -21.8033  -14.1028 O   0  0  0  0  0  0  0  0  0  0  0  0
   21.5369  -19.6205   -9.7692 C   0  0  0  0  0  0  0  0  0  0  0  0
   22.0785  -20.9282  -10.2419 C   0  0  2  0  0  0  0  0  0  0  0  0
   23.5414  -21.0138   -9.9387 C   0  0  0  0  0  0  0  0  0  0  0  0
   21.7516  -21.2277  -11.6888 C   0  0  2  0  0  0  0  0  0  0  0  0
   22.3861  -20.2633  -12.5263 N   0  0  0  0  0  0  0  0  0  0  0  0
   20.2851  -21.1355  -11.8523 C   0  0  0  0  0  0  0  0  0  0  0  0
   19.4066  -22.0992  -11.3694 O   0  0  0  0  0  0  0  0  0  0  0  0
   19.7879  -20.1549  -12.4490 O   0  0  0  0  0  0  0  0  0  0  0  0
  1  2  1  0
  2  3  1  0
  4  3  1  0
  5  1  1  0
  5  4  1  0
  5  6  1  6
  7  6  2  0
  8  6  1  0
  9 10  1  6
  9  8  1  0
 10 11  1  0
 12 11  1  0
 13 12  1  0
 13 14  1  0
 15 21  1  0
 15  9  1  0
 16 15  2  0
 18 17  1  6
 19 18  1  0
 20 18  1  0
 20 21  1  6
 22 23  1  0
 22 20  1  0
 24 22  2  0
M  END
$$$$
