PKV.pdb
     RDKit          3D

 24 24  0  0  1  0  0  0  0  0999 V2000
   23.6547  -22.5486  -17.8313 N   0  0  0  0  0  0  0  0  0  0  0  0
   22.5339  -23.4338  -17.7532 C   0  0  0  0  0  0  0  0  0  0  0  0
   21.5081  -22.9522  -18.7483 C   0  0  0  0  0  0  0  0  0  0  0  0
   22.0432  -21.6257  -19.1901 C   0  0  0  0  0  0  0  0  0  0  0  0
   23.1605  -21.2533  -18.2447 C   0  0  1  0  0  0  0  0  0  0  0  0
   22.6587  -20.5396  -17.0444 C   0  0  0  0  0  0  0  0  0  0  0  0
   22.1238  -19.4071  -17.1907 O   0  0  0  0  0  0  0  0  0  0  0  0
   22.7588  -21.0859  -15.7361 N   0  0  0  0  0  0  0  0  0  0  0  0
   22.4200  -20.3324  -14.5738 C   0  0  1  0  0  0  0  0  0  0  0  0
   21.6492  -21.1453  -13.5593 C   0  0  0  0  0  0  0  0  0  0  0  0
   20.1773  -21.1938  -13.8429 C   0  0  0  0  0  0  0  0  0  0  0  0
   19.5506  -22.1510  -12.8518 C   0  0  0  0  0  0  0  0  0  0  0  0
   18.0646  -22.3039  -13.1103 C   0  0  0  0  0  0  0  0  0  0  0  0
   17.5126  -23.2320  -12.1411 N   0  0  0  0  0  0  0  0  0  0  0  0
   23.6414  -19.8038  -13.8729 C   0  0  0  0  0  0  0  0  0  0  0  0
   23.5680  -18.9982  -12.9182 O   0  0  0  0  0  0  0  0  0  0  0  0
   27.2911  -21.8891  -14.1990 C   0  0  0  0  0  0  0  0  0  0  0  0
   26.9503  -20.8714  -13.1622 C   0  0  2  0  0  0  0  0  0  0  0  0
   26.3206  -21.5389  -11.9801 C   0  0  0  0  0  0  0  0  0  0  0  0
   26.1340  -19.7155  -13.6983 C   0  0  2  0  0  0  0  0  0  0  0  0
   24.9355  -20.2161  -14.2874 N   0  0  0  0  0  0  0  0  0  0  0  0
   26.9411  -19.0278  -14.7285 C   0  0  0  0  0  0  0  0  0  0  0  0
   26.5423  -18.9196  -16.0563 O   0  0  0  0  0  0  0  0  0  0  0  0
   28.0368  -18.5116  -14.4159 O   0  0  0  0  0  0  0  0  0  0  0  0
  1  2  1  0
  2  3  1  0
  4  3  1  0
  5  1  1  0
  5  4  1  0
  5  6  1  1
  7  6  2  0
  8  6  1  0
  9 10  1  1
  9  8  1  0
 10 11  1  0
 12 11  1  0
 13 12  1  0
 13 14  1  0
 15 21  1  0
 15  9  1  0
 16 15  2  0
 18 17  1  6
 19 18  1  0
 20 18  1  0
 20 21  1  6
 22 23  1  0
 22 20  1  0
 24 22  2  0
M  END
$$$$
