PKV.pdb
     RDKit          3D

 24 24  0  0  1  0  0  0  0  0999 V2000
   24.7979  -11.3905  -16.5568 N   0  0  0  0  0  0  0  0  0  0  0  0
   25.8658  -10.5152  -16.9303 C   0  0  0  0  0  0  0  0  0  0  0  0
   26.3290   -9.8095  -15.6806 C   0  0  0  0  0  0  0  0  0  0  0  0
   25.2935  -10.1788  -14.6644 C   0  0  0  0  0  0  0  0  0  0  0  0
   24.1398  -10.8108  -15.4064 C   0  0  1  0  0  0  0  0  0  0  0  0
   23.1658   -9.7990  -15.8855 C   0  0  0  0  0  0  0  0  0  0  0  0
   23.4399   -9.1354  -16.9221 O   0  0  0  0  0  0  0  0  0  0  0  0
   21.9354   -9.5506  -15.2188 N   0  0  0  0  0  0  0  0  0  0  0  0
   20.9724   -8.6295  -15.7265 C   0  0  1  0  0  0  0  0  0  0  0  0
   19.6086   -9.2556  -15.9056 C   0  0  0  0  0  0  0  0  0  0  0  0
   19.6209  -10.4320  -16.8359 C   0  0  0  0  0  0  0  0  0  0  0  0
   18.2090  -10.9724  -16.9105 C   0  0  0  0  0  0  0  0  0  0  0  0
   18.1324  -12.1628  -17.8462 C   0  0  0  0  0  0  0  0  0  0  0  0
   16.8124  -12.7565  -17.7434 N   0  0  0  0  0  0  0  0  0  0  0  0
   20.7936   -7.4465  -14.8151 C   0  0  0  0  0  0  0  0  0  0  0  0
   20.6549   -7.5709  -13.5777 O   0  0  0  0  0  0  0  0  0  0  0  0
   22.0540   -3.6885  -16.2120 C   0  0  0  0  0  0  0  0  0  0  0  0
   21.8910   -4.0831  -14.7820 C   0  0  2  0  0  0  0  0  0  0  0  0
   23.1670   -4.6712  -14.2668 C   0  0  0  0  0  0  0  0  0  0  0  0
   20.6862   -4.9643  -14.5341 C   0  0  2  0  0  0  0  0  0  0  0  0
   20.7777   -6.1309  -15.3494 N   0  0  0  0  0  0  0  0  0  0  0  0
   19.4776   -4.1970  -14.9035 C   0  0  0  0  0  0  0  0  0  0  0  0
   18.6954   -4.5023  -16.0119 O   0  0  0  0  0  0  0  0  0  0  0  0
   19.1220   -3.2241  -14.2022 O   0  0  0  0  0  0  0  0  0  0  0  0
  1  2  1  0
  2  3  1  0
  4  3  1  0
  5  1  1  0
  5  4  1  0
  5  6  1  6
  7  6  2  0
  8  6  1  0
  9 10  1  1
  9  8  1  0
 10 11  1  0
 12 11  1  0
 13 12  1  0
 13 14  1  0
 15 21  1  0
 15  9  1  0
 16 15  2  0
 18 17  1  6
 19 18  1  0
 20 18  1  0
 20 21  1  6
 22 23  1  0
 22 20  1  0
 24 22  2  0
M  END
$$$$
