PKV.pdb
     RDKit          3D

 24 24  0  0  1  0  0  0  0  0999 V2000
   27.7149  -20.6457  -18.3909 N   0  0  0  0  0  0  0  0  0  0  0  0
   27.2659  -19.7438  -19.4062 C   0  0  0  0  0  0  0  0  0  0  0  0
   28.1829  -18.5468  -19.3842 C   0  0  0  0  0  0  0  0  0  0  0  0
   28.9980  -18.7515  -18.1454 C   0  0  0  0  0  0  0  0  0  0  0  0
   28.3428  -19.8577  -17.3529 C   0  0  1  0  0  0  0  0  0  0  0  0
   27.2829  -19.3428  -16.4510 C   0  0  0  0  0  0  0  0  0  0  0  0
   27.1300  -18.0958  -16.3434 O   0  0  0  0  0  0  0  0  0  0  0  0
   26.4339  -20.2039  -15.7041 N   0  0  0  0  0  0  0  0  0  0  0  0
   25.4181  -19.7005  -14.8390 C   0  0  1  0  0  0  0  0  0  0  0  0
   24.1136  -19.4499  -15.5599 C   0  0  0  0  0  0  0  0  0  0  0  0
   24.1583  -18.2445  -16.4511 C   0  0  0  0  0  0  0  0  0  0  0  0
   22.7445  -17.7209  -16.5856 C   0  0  0  0  0  0  0  0  0  0  0  0
   22.3714  -17.5339  -18.0431 C   0  0  0  0  0  0  0  0  0  0  0  0
   21.0020  -17.0605  -18.1200 N   0  0  0  0  0  0  0  0  0  0  0  0
   25.1191  -20.6517  -13.7129 C   0  0  0  0  0  0  0  0  0  0  0  0
   24.8463  -21.8569  -13.9106 O   0  0  0  0  0  0  0  0  0  0  0  0
   25.5111  -21.3975   -8.8419 C   0  0  0  0  0  0  0  0  0  0  0  0
   25.7073  -20.5705  -10.0685 C   0  0  2  0  0  0  0  0  0  0  0  0
   25.4830  -19.1255   -9.7504 C   0  0  0  0  0  0  0  0  0  0  0  0
   24.9000  -21.0515  -11.2545 C   0  0  2  0  0  0  0  0  0  0  0  0
   25.1399  -20.1942  -12.3688 N   0  0  0  0  0  0  0  0  0  0  0  0
   23.4697  -20.9932  -10.8851 C   0  0  0  0  0  0  0  0  0  0  0  0
   22.8796  -21.8844   -9.9955 O   0  0  0  0  0  0  0  0  0  0  0  0
   22.7360  -20.1104  -11.3824 O   0  0  0  0  0  0  0  0  0  0  0  0
  1  2  1  0
  2  3  1  0
  4  3  1  0
  5  1  1  0
  5  4  1  0
  5  6  1  1
  7  6  2  0
  8  6  1  0
  9 10  1  6
  9  8  1  0
 10 11  1  0
 12 11  1  0
 13 12  1  0
 13 14  1  0
 15 21  1  0
 15  9  1  0
 16 15  2  0
 18 17  1  1
 19 18  1  0
 20 18  1  0
 20 21  1  6
 22 23  1  0
 22 20  1  0
 24 22  2  0
M  END
$$$$
