PKV.pdb
     RDKit          3D

 24 24  0  0  1  0  0  0  0  0999 V2000
   24.5879  -12.4256  -15.7194 N   0  0  0  0  0  0  0  0  0  0  0  0
   23.6143  -13.4249  -16.0345 C   0  0  0  0  0  0  0  0  0  0  0  0
   23.6501  -13.6350  -17.5275 C   0  0  0  0  0  0  0  0  0  0  0  0
   24.5264  -12.5246  -18.0174 C   0  0  0  0  0  0  0  0  0  0  0  0
   24.7135  -11.5593  -16.8711 C   0  0  1  0  0  0  0  0  0  0  0  0
   23.6305  -10.5465  -16.8146 C   0  0  0  0  0  0  0  0  0  0  0  0
   23.5288   -9.7131  -17.7554 O   0  0  0  0  0  0  0  0  0  0  0  0
   22.7038  -10.4815  -15.7390 N   0  0  0  0  0  0  0  0  0  0  0  0
   21.6807   -9.4899  -15.6808 C   0  0  1  0  0  0  0  0  0  0  0  0
   20.4246   -9.9908  -15.0059 C   0  0  0  0  0  0  0  0  0  0  0  0
   19.3424   -8.9546  -14.9376 C   0  0  0  0  0  0  0  0  0  0  0  0
   18.1362   -9.5022  -15.6700 C   0  0  0  0  0  0  0  0  0  0  0  0
   17.0448   -8.4554  -15.7765 C   0  0  0  0  0  0  0  0  0  0  0  0
   15.9599   -8.9884  -16.5792 N   0  0  0  0  0  0  0  0  0  0  0  0
   22.1260   -8.2689  -14.9238 C   0  0  0  0  0  0  0  0  0  0  0  0
   22.7751   -8.3440  -13.8566 O   0  0  0  0  0  0  0  0  0  0  0  0
   23.4164   -5.0356  -16.8886 C   0  0  0  0  0  0  0  0  0  0  0  0
   22.4295   -4.6912  -15.8235 C   0  0  2  0  0  0  0  0  0  0  0  0
   22.7597   -3.3555  -15.2351 C   0  0  0  0  0  0  0  0  0  0  0  0
   22.2643   -5.7764  -14.7820 C   0  0  2  0  0  0  0  0  0  0  0  0
   21.8134   -6.9731  -15.4134 N   0  0  0  0  0  0  0  0  0  0  0  0
   21.2511   -5.3205  -13.8066 C   0  0  0  0  0  0  0  0  0  0  0  0
   21.5698   -4.5834  -12.6714 O   0  0  0  0  0  0  0  0  0  0  0  0
   20.0451   -5.5982  -13.9892 O   0  0  0  0  0  0  0  0  0  0  0  0
  1  2  1  0
  2  3  1  0
  4  3  1  0
  5  1  1  0
  5  4  1  0
  5  6  1  1
  7  6  2  0
  8  6  1  0
  9 10  1  1
  9  8  1  0
 10 11  1  0
 12 11  1  0
 13 12  1  0
 13 14  1  0
 15 21  1  0
 15  9  1  0
 16 15  2  0
 18 17  1  6
 19 18  1  0
 20 18  1  0
 20 21  1  6
 22 23  1  0
 22 20  1  0
 24 22  2  0
M  END
$$$$
