PKV.pdb
     RDKit          3D

 24 24  0  0  1  0  0  0  0  0999 V2000
   27.1528  -20.0500  -16.2284 N   0  0  0  0  0  0  0  0  0  0  0  0
   27.8853  -19.3278  -17.2223 C   0  0  0  0  0  0  0  0  0  0  0  0
   28.4106  -18.0724  -16.5725 C   0  0  0  0  0  0  0  0  0  0  0  0
   27.7188  -18.0482  -15.2451 C   0  0  0  0  0  0  0  0  0  0  0  0
   26.6222  -19.0856  -15.2898 C   0  0  1  0  0  0  0  0  0  0  0  0
   25.3604  -18.5373  -15.8459 C   0  0  0  0  0  0  0  0  0  0  0  0
   25.4187  -17.7824  -16.8542 O   0  0  0  0  0  0  0  0  0  0  0  0
   24.0888  -18.8319  -15.2836 N   0  0  0  0  0  0  0  0  0  0  0  0
   22.8875  -18.2473  -15.7820 C   0  0  1  0  0  0  0  0  0  0  0  0
   21.6590  -19.0523  -15.4259 C   0  0  0  0  0  0  0  0  0  0  0  0
   20.4214  -18.5741  -16.1252 C   0  0  0  0  0  0  0  0  0  0  0  0
   19.2971  -19.5225  -15.7677 C   0  0  0  0  0  0  0  0  0  0  0  0
   18.0144  -19.1353  -16.4770 C   0  0  0  0  0  0  0  0  0  0  0  0
   16.9562  -20.0351  -16.0576 N   0  0  0  0  0  0  0  0  0  0  0  0
   22.6727  -16.8604  -15.2409 C   0  0  0  0  0  0  0  0  0  0  0  0
   22.4867  -16.6393  -14.0234 O   0  0  0  0  0  0  0  0  0  0  0  0
   24.1953  -13.5103  -17.2499 C   0  0  0  0  0  0  0  0  0  0  0  0
   23.7314  -13.6085  -15.8350 C   0  0  2  0  0  0  0  0  0  0  0  0
   24.8469  -14.0973  -14.9654 C   0  0  0  0  0  0  0  0  0  0  0  0
   22.4564  -14.4073  -15.6733 C   0  0  2  0  0  0  0  0  0  0  0  0
   22.6763  -15.7442  -16.1187 N   0  0  0  0  0  0  0  0  0  0  0  0
   21.4137  -13.7737  -16.5082 C   0  0  0  0  0  0  0  0  0  0  0  0
   20.7500  -12.6092  -16.1377 O   0  0  0  0  0  0  0  0  0  0  0  0
   21.0964  -14.2901  -17.6025 O   0  0  0  0  0  0  0  0  0  0  0  0
  1  2  1  0
  2  3  1  0
  4  3  1  0
  5  1  1  0
  5  4  1  0
  5  6  1  6
  7  6  2  0
  8  6  1  0
  9 10  1  1
  9  8  1  0
 10 11  1  0
 12 11  1  0
 13 12  1  0
 13 14  1  0
 15 21  1  0
 15  9  1  0
 16 15  2  0
 18 17  1  6
 19 18  1  0
 20 18  1  0
 20 21  1  6
 22 23  1  0
 22 20  1  0
 24 22  2  0
M  END
$$$$
