PKV.pdb
     RDKit          3D

 24 24  0  0  1  0  0  0  0  0999 V2000
   32.2324  -24.6332  -17.5460 N   0  0  0  0  0  0  0  0  0  0  0  0
   31.2303  -24.5911  -16.5263 C   0  0  0  0  0  0  0  0  0  0  0  0
   31.8206  -25.2163  -15.2874 C   0  0  0  0  0  0  0  0  0  0  0  0
   33.1075  -25.8082  -15.7717 C   0  0  0  0  0  0  0  0  0  0  0  0
   33.0775  -25.7771  -17.2814 C   0  0  1  0  0  0  0  0  0  0  0  0
   32.4243  -26.9823  -17.8495 C   0  0  0  0  0  0  0  0  0  0  0  0
   31.2169  -26.9079  -18.2052 O   0  0  0  0  0  0  0  0  0  0  0  0
   33.1099  -28.2172  -18.0072 N   0  0  0  0  0  0  0  0  0  0  0  0
   32.5550  -29.3010  -18.7495 C   0  0  1  0  0  0  0  0  0  0  0  0
   33.6099  -30.1205  -19.4567 C   0  0  0  0  0  0  0  0  0  0  0  0
   33.0309  -31.1860  -20.3392 C   0  0  0  0  0  0  0  0  0  0  0  0
   34.1845  -31.9372  -20.9684 C   0  0  0  0  0  0  0  0  0  0  0  0
   33.6816  -33.0240  -21.8982 C   0  0  0  0  0  0  0  0  0  0  0  0
   34.8176  -33.7712  -22.4046 N   0  0  0  0  0  0  0  0  0  0  0  0
   31.7846  -30.2467  -17.8695 C   0  0  0  0  0  0  0  0  0  0  0  0
   32.2820  -30.7585  -16.8417 O   0  0  0  0  0  0  0  0  0  0  0  0
   27.6195  -30.4530  -18.4968 C   0  0  0  0  0  0  0  0  0  0  0  0
   28.2703  -30.8109  -17.2024 C   0  0  2  0  0  0  0  0  0  0  0  0
   28.2664  -29.6282  -16.2856 C   0  0  0  0  0  0  0  0  0  0  0  0
   29.6404  -31.4312  -17.3686 C   0  0  2  0  0  0  0  0  0  0  0  0
   30.4445  -30.5884  -18.1916 N   0  0  0  0  0  0  0  0  0  0  0  0
   29.4686  -32.7446  -18.0253 C   0  0  0  0  0  0  0  0  0  0  0  0
   29.8288  -32.9841  -19.3469 O   0  0  0  0  0  0  0  0  0  0  0  0
   28.9788  -33.6999  -17.3832 O   0  0  0  0  0  0  0  0  0  0  0  0
  1  2  1  0
  2  3  1  0
  4  3  1  0
  5  1  1  0
  5  4  1  0
  5  6  1  1
  7  6  2  0
  8  6  1  0
  9 10  1  1
  9  8  1  0
 10 11  1  0
 12 11  1  0
 13 12  1  0
 13 14  1  0
 15 21  1  0
 15  9  1  0
 16 15  2  0
 18 17  1  6
 19 18  1  0
 20 18  1  0
 20 21  1  6
 22 23  1  0
 22 20  1  0
 24 22  2  0
M  END
$$$$
