PKV.pdb
     RDKit          3D

 24 24  0  0  1  0  0  0  0  0999 V2000
   20.3751  -15.6589  -16.7034 N   0  0  0  0  0  0  0  0  0  0  0  0
   19.4221  -16.0401  -17.6996 C   0  0  0  0  0  0  0  0  0  0  0  0
   20.1069  -15.9431  -19.0397 C   0  0  0  0  0  0  0  0  0  0  0  0
   21.4019  -15.2617  -18.7239 C   0  0  0  0  0  0  0  0  0  0  0  0
   21.2980  -14.7278  -17.3150 C   0  0  1  0  0  0  0  0  0  0  0  0
   20.6907  -13.3743  -17.2767 C   0  0  0  0  0  0  0  0  0  0  0  0
   21.1827  -12.4673  -18.0014 O   0  0  0  0  0  0  0  0  0  0  0  0
   19.5749  -13.0632  -16.4531 N   0  0  0  0  0  0  0  0  0  0  0  0
   19.0641  -11.7366  -16.3409 C   0  0  1  0  0  0  0  0  0  0  0  0
   17.5594  -11.7038  -16.2028 C   0  0  0  0  0  0  0  0  0  0  0  0
   16.8613  -12.6061  -17.1763 C   0  0  0  0  0  0  0  0  0  0  0  0
   15.3713  -12.4442  -16.9644 C   0  0  0  0  0  0  0  0  0  0  0  0
   14.5879  -13.2731  -17.9632 C   0  0  0  0  0  0  0  0  0  0  0  0
   13.1699  -13.0808  -17.7231 N   0  0  0  0  0  0  0  0  0  0  0  0
   19.6282  -11.0181  -15.1460 C   0  0  0  0  0  0  0  0  0  0  0  0
   19.4275  -11.4095  -13.9745 O   0  0  0  0  0  0  0  0  0  0  0  0
   23.0877   -8.7344  -15.5847 C   0  0  0  0  0  0  0  0  0  0  0  0
   22.5140   -9.2633  -14.3126 C   0  0  2  0  0  0  0  0  0  0  0  0
   23.0061  -10.6559  -14.0716 C   0  0  0  0  0  0  0  0  0  0  0  0
   21.0076   -9.1421  -14.2352 C   0  0  2  0  0  0  0  0  0  0  0  0
   20.4196   -9.8524  -15.3232 N   0  0  0  0  0  0  0  0  0  0  0  0
   20.6608   -7.7085  -14.3359 C   0  0  0  0  0  0  0  0  0  0  0  0
   20.8673   -6.8041  -13.2999 O   0  0  0  0  0  0  0  0  0  0  0  0
   20.1572   -7.2647  -15.3915 O   0  0  0  0  0  0  0  0  0  0  0  0
  1  2  1  0
  2  3  1  0
  4  3  1  0
  5  1  1  0
  5  4  1  0
  5  6  1  6
  7  6  2  0
  8  6  1  0
  9 10  1  1
  9  8  1  0
 10 11  1  0
 12 11  1  0
 13 12  1  0
 13 14  1  0
 15 21  1  0
 15  9  1  0
 16 15  2  0
 18 17  1  6
 19 18  1  0
 20 18  1  0
 20 21  1  6
 22 23  1  0
 22 20  1  0
 24 22  2  0
M  END
$$$$
