PKV.pdb
     RDKit          3D

 24 24  0  0  1  0  0  0  0  0999 V2000
   27.7025  -18.5672  -15.9942 N   0  0  0  0  0  0  0  0  0  0  0  0
   26.9306  -18.7143  -17.1894 C   0  0  0  0  0  0  0  0  0  0  0  0
   25.9656  -17.5569  -17.2487 C   0  0  0  0  0  0  0  0  0  0  0  0
   26.1018  -16.9167  -15.9023 C   0  0  0  0  0  0  0  0  0  0  0  0
   26.8832  -17.8686  -15.0281 C   0  0  1  0  0  0  0  0  0  0  0  0
   26.0032  -18.8582  -14.3586 C   0  0  0  0  0  0  0  0  0  0  0  0
   24.8554  -18.4948  -13.9841 O   0  0  0  0  0  0  0  0  0  0  0  0
   26.4070  -20.2006  -14.1241 N   0  0  0  0  0  0  0  0  0  0  0  0
   25.6401  -21.0911  -13.3164 C   0  0  1  0  0  0  0  0  0  0  0  0
   25.7327  -22.5251  -13.7846 C   0  0  0  0  0  0  0  0  0  0  0  0
   25.1243  -22.7404  -15.1384 C   0  0  0  0  0  0  0  0  0  0  0  0
   25.3381  -24.1917  -15.5117 C   0  0  0  0  0  0  0  0  0  0  0  0
   24.8325  -24.4716  -16.9133 C   0  0  0  0  0  0  0  0  0  0  0  0
   25.0077  -25.8827  -17.2023 N   0  0  0  0  0  0  0  0  0  0  0  0
   26.0870  -21.0708  -11.8804 C   0  0  0  0  0  0  0  0  0  0  0  0
   27.2797  -20.8788  -11.5542 O   0  0  0  0  0  0  0  0  0  0  0  0
   24.9697  -18.8407   -9.0465 C   0  0  0  0  0  0  0  0  0  0  0  0
   26.0280  -19.8921   -9.0864 C   0  0  2  0  0  0  0  0  0  0  0  0
   27.1616  -19.4420   -9.9533 C   0  0  0  0  0  0  0  0  0  0  0  0
   25.5022  -21.2619   -9.4569 C   0  0  2  0  0  0  0  0  0  0  0  0
   25.1447  -21.2735  -10.8375 N   0  0  0  0  0  0  0  0  0  0  0  0
   24.3031  -21.5269   -8.6338 C   0  0  0  0  0  0  0  0  0  0  0  0
   24.3658  -21.8234   -7.2766 O   0  0  0  0  0  0  0  0  0  0  0  0
   23.1687  -21.4884   -9.1597 O   0  0  0  0  0  0  0  0  0  0  0  0
  1  2  1  0
  2  3  1  0
  4  3  1  0
  5  1  1  0
  5  4  1  0
  5  6  1  6
  7  6  2  0
  8  6  1  0
  9 10  1  6
  9  8  1  0
 10 11  1  0
 12 11  1  0
 13 12  1  0
 13 14  1  0
 15 21  1  0
 15  9  1  0
 16 15  2  0
 18 17  1  6
 19 18  1  0
 20 18  1  0
 20 21  1  6
 22 23  1  0
 22 20  1  0
 24 22  2  0
M  END
$$$$
