PKV.pdb
     RDKit          3D

 24 24  0  0  1  0  0  0  0  0999 V2000
   17.4514  -13.5477  -16.9945 N   0  0  0  0  0  0  0  0  0  0  0  0
   18.8382  -13.8781  -16.8783 C   0  0  0  0  0  0  0  0  0  0  0  0
   19.1512  -14.0015  -15.4083 C   0  0  0  0  0  0  0  0  0  0  0  0
   17.9142  -13.4856  -14.7413 C   0  0  0  0  0  0  0  0  0  0  0  0
   17.0751  -12.8168  -15.8041 C   0  0  1  0  0  0  0  0  0  0  0  0
   17.4478  -11.3929  -15.9925 C   0  0  0  0  0  0  0  0  0  0  0  0
   18.4959  -11.1198  -16.6380 O   0  0  0  0  0  0  0  0  0  0  0  0
   16.6666  -10.3259  -15.4718 N   0  0  0  0  0  0  0  0  0  0  0  0
   16.9358   -8.9634  -15.7953 C   0  0  1  0  0  0  0  0  0  0  0  0
   15.7099   -8.0867  -15.6816 C   0  0  0  0  0  0  0  0  0  0  0  0
   15.9480   -6.6819  -16.1498 C   0  0  0  0  0  0  0  0  0  0  0  0
   14.6457   -5.9239  -16.0068 C   0  0  0  0  0  0  0  0  0  0  0  0
   14.7625   -4.5296  -16.5905 C   0  0  0  0  0  0  0  0  0  0  0  0
   13.4486   -3.9141  -16.6023 N   0  0  0  0  0  0  0  0  0  0  0  0
   17.9826   -8.3695  -14.8933 C   0  0  0  0  0  0  0  0  0  0  0  0
   18.0137   -8.5991  -13.6636 O   0  0  0  0  0  0  0  0  0  0  0  0
   21.5620   -8.8709  -15.0374 C   0  0  0  0  0  0  0  0  0  0  0  0
   21.3615   -7.3956  -15.1399 C   0  0  2  0  0  0  0  0  0  0  0  0
   22.5091   -6.6794  -14.5001 C   0  0  0  0  0  0  0  0  0  0  0  0
   20.0132   -6.9344  -14.6309 C   0  0  2  0  0  0  0  0  0  0  0  0
   18.9829   -7.5151  -15.4280 N   0  0  0  0  0  0  0  0  0  0  0  0
   19.9608   -5.4618  -14.7519 C   0  0  0  0  0  0  0  0  0  0  0  0
   19.1980   -4.8069  -15.7127 O   0  0  0  0  0  0  0  0  0  0  0  0
   20.6244   -4.7507  -13.9653 O   0  0  0  0  0  0  0  0  0  0  0  0
  1  2  1  0
  2  3  1  0
  4  3  1  0
  5  1  1  0
  5  4  1  0
  5  6  1  6
  7  6  2  0
  8  6  1  0
  9 10  1  1
  9  8  1  0
 10 11  1  0
 12 11  1  0
 13 12  1  0
 13 14  1  0
 15 21  1  0
 15  9  1  0
 16 15  2  0
 18 17  1  1
 19 18  1  0
 20 18  1  0
 20 21  1  6
 22 23  1  0
 22 20  1  0
 24 22  2  0
M  END
$$$$
