PKV.pdb
     RDKit          3D

 24 24  0  0  1  0  0  0  0  0999 V2000
   22.7248  -14.1259  -18.5466 N   0  0  0  0  0  0  0  0  0  0  0  0
   21.5873  -14.9376  -18.8518 C   0  0  0  0  0  0  0  0  0  0  0  0
   21.2312  -14.6906  -20.2963 C   0  0  0  0  0  0  0  0  0  0  0  0
   22.0924  -13.5264  -20.6762 C   0  0  0  0  0  0  0  0  0  0  0  0
   22.6721  -12.9603  -19.4017 C   0  0  1  0  0  0  0  0  0  0  0  0
   21.7701  -11.9619  -18.7760 C   0  0  0  0  0  0  0  0  0  0  0  0
   21.4656  -10.9262  -19.4275 O   0  0  0  0  0  0  0  0  0  0  0  0
   21.2371  -12.1304  -17.4693 N   0  0  0  0  0  0  0  0  0  0  0  0
   20.3299  -11.1916  -16.8955 C   0  0  1  0  0  0  0  0  0  0  0  0
   19.3870  -11.8288  -15.9010 C   0  0  0  0  0  0  0  0  0  0  0  0
   18.1180  -12.3227  -16.5294 C   0  0  0  0  0  0  0  0  0  0  0  0
   17.2630  -12.9166  -15.4305 C   0  0  0  0  0  0  0  0  0  0  0  0
   15.9926  -13.5195  -15.9973 C   0  0  0  0  0  0  0  0  0  0  0  0
   15.1759  -14.0084  -14.9022 N   0  0  0  0  0  0  0  0  0  0  0  0
   21.0498  -10.0883  -16.1697 C   0  0  0  0  0  0  0  0  0  0  0  0
   22.0025  -10.3117  -15.3899 O   0  0  0  0  0  0  0  0  0  0  0  0
   20.2843   -6.0451  -17.4027 C   0  0  0  0  0  0  0  0  0  0  0  0
   21.5630   -6.5686  -16.8389 C   0  0  2  0  0  0  0  0  0  0  0  0
   22.4722   -6.9958  -17.9480 C   0  0  0  0  0  0  0  0  0  0  0  0
   21.3640   -7.6376  -15.7865 C   0  0  2  0  0  0  0  0  0  0  0  0
   20.6564   -8.7367  -16.3569 N   0  0  0  0  0  0  0  0  0  0  0  0
   20.5655   -7.0521  -14.6886 C   0  0  0  0  0  0  0  0  0  0  0  0
   21.0795   -6.1251  -13.7885 O   0  0  0  0  0  0  0  0  0  0  0  0
   19.3702   -7.3905  -14.5421 O   0  0  0  0  0  0  0  0  0  0  0  0
  1  2  1  0
  2  3  1  0
  4  3  1  0
  5  1  1  0
  5  4  1  0
  5  6  1  1
  7  6  2  0
  8  6  1  0
  9 10  1  1
  9  8  1  0
 10 11  1  0
 12 11  1  0
 13 12  1  0
 13 14  1  0
 15 21  1  0
 15  9  1  0
 16 15  2  0
 18 17  1  6
 19 18  1  0
 20 18  1  0
 20 21  1  6
 22 23  1  0
 22 20  1  0
 24 22  2  0
M  END
$$$$
