TSS.pdb
     RDKit          3D

 20 19  0  0  1  0  0  0  0  0999 V2000
   28.4092   -7.7047  -21.3223 C   0  0  0  0  0  0  0  0  0  0  0  0
   27.3793   -6.8208  -20.6371 C   0  0  1  0  0  0  0  0  0  0  0  0
   26.5572   -7.6245  -19.8391 O   0  0  0  0  0  0  0  0  0  0  0  0
   28.1652   -5.8307  -19.7902 C   0  0  2  0  0  0  0  0  0  0  0  0
   28.8944   -6.5781  -18.8074 N   0  0  0  0  0  0  0  0  0  0  0  0
   27.2331   -4.8443  -19.1656 C   0  0  0  0  0  0  0  0  0  0  0  0
   26.7534   -5.0172  -18.0258 O   0  0  0  0  0  0  0  0  0  0  0  0
   25.3003   -0.4399  -19.4211 O   0  0  0  0  0  0  0  0  0  0  0  0
   26.1031   -1.3691  -20.0292 C   0  0  0  0  0  0  0  0  0  0  0  0
   25.9625   -2.6904  -19.3085 C   0  0  2  0  0  0  0  0  0  0  0  0
   26.8784   -3.6829  -19.8728 N   0  0  0  0  0  0  0  0  0  0  0  0
   24.5815   -3.1932  -19.4711 C   0  0  0  0  0  0  0  0  0  0  0  0
   24.2783   -3.8322  -20.5193 O   0  0  0  0  0  0  0  0  0  0  0  0
   20.2084   -4.2367  -17.7186 O   0  0  0  0  0  0  0  0  0  0  0  0
   21.4109   -3.5727  -17.4852 C   0  0  0  0  0  0  0  0  0  0  0  0
   22.1965   -3.5604  -18.7587 C   0  0  2  0  0  0  0  0  0  0  0  0
   23.5383   -3.0173  -18.5271 N   0  0  0  0  0  0  0  0  0  0  0  0
   21.5174   -2.7075  -19.7770 C   0  0  0  0  0  0  0  0  0  0  0  0
   21.8037   -1.4829  -19.8822 O   0  0  0  0  0  0  0  0  0  0  0  0
   20.5608   -3.2297  -20.6299 O   0  0  0  0  0  0  0  0  0  0  0  0
  2  1  1  1
  3  2  1  0
  4  2  1  0
  4  6  1  0
  4  5  1  1
  6 11  1  0
  7  6  2  0
  9  8  1  0
 10  9  1  6
 11 10  1  0
 12 10  1  0
 12 17  1  0
 13 12  2  0
 15 14  1  0
 16 15  1  1
 16 17  1  0
 16 18  1  0
 18 19  2  0
 18 20  1  0
M  END
$$$$
