TSS.pdb
     RDKit          3D

 20 19  0  0  1  0  0  0  0  0999 V2000
   18.8389   -8.5317  -18.2052 C   0  0  0  0  0  0  0  0  0  0  0  0
   17.7927   -9.2513  -17.3688 C   0  0  1  0  0  0  0  0  0  0  0  0
   17.3460  -10.3733  -18.0760 O   0  0  0  0  0  0  0  0  0  0  0  0
   18.4875   -9.6588  -16.0780 C   0  0  2  0  0  0  0  0  0  0  0  0
   17.6080  -10.5410  -15.3676 N   0  0  0  0  0  0  0  0  0  0  0  0
   18.8274   -8.4435  -15.2783 C   0  0  0  0  0  0  0  0  0  0  0  0
   17.9495   -7.6629  -14.8552 O   0  0  0  0  0  0  0  0  0  0  0  0
   22.3241   -5.8236  -13.2174 O   0  0  0  0  0  0  0  0  0  0  0  0
   21.9779   -7.0141  -13.8009 C   0  0  0  0  0  0  0  0  0  0  0  0
   20.5713   -6.9072  -14.3441 C   0  0  2  0  0  0  0  0  0  0  0  0
   20.1727   -8.1602  -14.9871 N   0  0  0  0  0  0  0  0  0  0  0  0
   20.5174   -5.8320  -15.3577 C   0  0  0  0  0  0  0  0  0  0  0  0
   20.8960   -6.0794  -16.5385 O   0  0  0  0  0  0  0  0  0  0  0  0
   17.8157   -3.6461  -16.6448 O   0  0  0  0  0  0  0  0  0  0  0  0
   18.7982   -2.7530  -16.2224 C   0  0  0  0  0  0  0  0  0  0  0  0
   20.1026   -3.4835  -16.1600 C   0  0  2  0  0  0  0  0  0  0  0  0
   20.0647   -4.5105  -15.1146 N   0  0  0  0  0  0  0  0  0  0  0  0
   21.2111   -2.5366  -15.8435 C   0  0  0  0  0  0  0  0  0  0  0  0
   21.8328   -2.6195  -14.7485 O   0  0  0  0  0  0  0  0  0  0  0  0
   21.5875   -1.5467  -16.7343 O   0  0  0  0  0  0  0  0  0  0  0  0
  2  1  1  6
  3  2  1  0
  4  2  1  0
  4  6  1  0
  4  5  1  1
  6 11  1  0
  7  6  2  0
  9  8  1  0
 10  9  1  6
 11 10  1  0
 12 10  1  0
 12 17  1  0
 13 12  2  0
 15 14  1  0
 16 15  1  1
 16 17  1  0
 16 18  1  0
 18 19  2  0
 18 20  1  0
M  END
$$$$
