TSS.pdb
     RDKit          3D

 20 19  0  0  1  0  0  0  0  0999 V2000
   26.4209  -11.0587  -15.3534 C   0  0  0  0  0  0  0  0  0  0  0  0
   26.3275  -11.8610  -16.6415 C   0  0  1  0  0  0  0  0  0  0  0  0
   27.1949  -12.9556  -16.5530 O   0  0  0  0  0  0  0  0  0  0  0  0
   24.8803  -12.3172  -16.7539 C   0  0  2  0  0  0  0  0  0  0  0  0
   24.8097  -13.2941  -17.8013 N   0  0  0  0  0  0  0  0  0  0  0  0
   23.9967  -11.1429  -17.0229 C   0  0  0  0  0  0  0  0  0  0  0  0
   23.9585  -10.5857  -18.1397 O   0  0  0  0  0  0  0  0  0  0  0  0
   21.0460  -10.2367  -14.3361 O   0  0  0  0  0  0  0  0  0  0  0  0
   20.8931   -9.8499  -15.6417 C   0  0  0  0  0  0  0  0  0  0  0  0
   22.2512   -9.5333  -16.2252 C   0  0  2  0  0  0  0  0  0  0  0  0
   23.1794  -10.6415  -15.9956 N   0  0  0  0  0  0  0  0  0  0  0  0
   22.7997   -8.3290  -15.5655 C   0  0  0  0  0  0  0  0  0  0  0  0
   23.4045   -8.4529  -14.4620 O   0  0  0  0  0  0  0  0  0  0  0  0
   24.2838   -5.1527  -17.3837 O   0  0  0  0  0  0  0  0  0  0  0  0
   23.4979   -4.7224  -16.3168 C   0  0  0  0  0  0  0  0  0  0  0  0
   23.3089   -5.8721  -15.3779 C   0  0  2  0  0  0  0  0  0  0  0  0
   22.7048   -7.0101  -16.0772 N   0  0  0  0  0  0  0  0  0  0  0  0
   22.4061   -5.4810  -14.2565 C   0  0  0  0  0  0  0  0  0  0  0  0
   22.7625   -4.6043  -13.4217 O   0  0  0  0  0  0  0  0  0  0  0  0
   21.1606   -6.0635  -14.0996 O   0  0  0  0  0  0  0  0  0  0  0  0
  2  1  1  1
  3  2  1  0
  4  2  1  0
  4  6  1  0
  4  5  1  6
  6 11  1  0
  7  6  2  0
  9  8  1  0
 10  9  1  1
 11 10  1  0
 12 10  1  0
 12 17  1  0
 13 12  2  0
 15 14  1  0
 16 15  1  6
 16 17  1  0
 16 18  1  0
 18 19  2  0
 18 20  1  0
M  END
$$$$
