TSS.pdb
     RDKit          3D

 20 19  0  0  1  0  0  0  0  0999 V2000
   21.9985  -10.7788  -15.4837 C   0  0  0  0  0  0  0  0  0  0  0  0
   20.5778  -11.3203  -15.4729 C   0  0  1  0  0  0  0  0  0  0  0  0
   19.8935  -10.7651  -14.3857 O   0  0  0  0  0  0  0  0  0  0  0  0
   19.9500  -10.8921  -16.7911 C   0  0  2  0  0  0  0  0  0  0  0  0
   20.7008  -11.4999  -17.8510 N   0  0  0  0  0  0  0  0  0  0  0  0
   19.9456   -9.4015  -16.8914 C   0  0  0  0  0  0  0  0  0  0  0  0
   20.9896   -8.7494  -17.1014 O   0  0  0  0  0  0  0  0  0  0  0  0
   17.2538   -5.3829  -16.7122 O   0  0  0  0  0  0  0  0  0  0  0  0
   17.2663   -6.7505  -16.6279 C   0  0  0  0  0  0  0  0  0  0  0  0
   18.6937   -7.2383  -16.7260 C   0  0  2  0  0  0  0  0  0  0  0  0
   18.7359   -8.7012  -16.7467 N   0  0  0  0  0  0  0  0  0  0  0  0
   19.4533   -6.7724  -15.5461 C   0  0  0  0  0  0  0  0  0  0  0  0
   19.6460   -7.5697  -14.5837 O   0  0  0  0  0  0  0  0  0  0  0  0
   22.9083   -5.4906  -13.2148 O   0  0  0  0  0  0  0  0  0  0  0  0
   22.0520   -5.9907  -14.1935 C   0  0  0  0  0  0  0  0  0  0  0  0
   20.8343   -5.1224  -14.2417 C   0  0  2  0  0  0  0  0  0  0  0  0
   20.0008   -5.4732  -15.3956 N   0  0  0  0  0  0  0  0  0  0  0  0
   21.2262   -3.6886  -14.3682 C   0  0  0  0  0  0  0  0  0  0  0  0
   21.8233   -3.1010  -13.4245 O   0  0  0  0  0  0  0  0  0  0  0  0
   20.9487   -2.9658  -15.5153 O   0  0  0  0  0  0  0  0  0  0  0  0
  2  1  1  6
  3  2  1  0
  4  2  1  0
  4  6  1  0
  4  5  1  6
  6 11  1  0
  7  6  2  0
  9  8  1  0
 10  9  1  1
 11 10  1  0
 12 10  1  0
 12 17  1  0
 13 12  2  0
 15 14  1  0
 16 15  1  6
 16 17  1  0
 16 18  1  0
 18 19  2  0
 18 20  1  0
M  END
$$$$
