TSS.pdb
     RDKit          3D

 20 19  0  0  1  0  0  0  0  0999 V2000
   17.7675   -8.4366  -17.9897 C   0  0  0  0  0  0  0  0  0  0  0  0
   17.0442   -9.3573  -17.0198 C   0  0  1  0  0  0  0  0  0  0  0  0
   16.0159  -10.0137  -17.7054 O   0  0  0  0  0  0  0  0  0  0  0  0
   18.0851  -10.3465  -16.5166 C   0  0  2  0  0  0  0  0  0  0  0  0
   17.3957  -11.3811  -15.8019 N   0  0  0  0  0  0  0  0  0  0  0  0
   19.0826   -9.6411  -15.6568 C   0  0  0  0  0  0  0  0  0  0  0  0
   18.7520   -9.0522  -14.6065 O   0  0  0  0  0  0  0  0  0  0  0  0
   23.1825  -10.5501  -15.1043 O   0  0  0  0  0  0  0  0  0  0  0  0
   22.8405   -9.3538  -15.6784 C   0  0  0  0  0  0  0  0  0  0  0  0
   21.4541   -8.9641  -15.2190 C   0  0  2  0  0  0  0  0  0  0  0  0
   20.4371   -9.6334  -16.0313 N   0  0  0  0  0  0  0  0  0  0  0  0
   21.2789   -7.5040  -15.3730 C   0  0  0  0  0  0  0  0  0  0  0  0
   21.1016   -7.0236  -16.5292 O   0  0  0  0  0  0  0  0  0  0  0  0
   19.6045   -3.3454  -14.1895 O   0  0  0  0  0  0  0  0  0  0  0  0
   19.7939   -4.6952  -13.9006 C   0  0  0  0  0  0  0  0  0  0  0  0
   21.0717   -5.1385  -14.5407 C   0  0  2  0  0  0  0  0  0  0  0  0
   21.2918   -6.5690  -14.3072 N   0  0  0  0  0  0  0  0  0  0  0  0
   22.2258   -4.3889  -13.9649 C   0  0  0  0  0  0  0  0  0  0  0  0
   22.9349   -4.9021  -13.0558 O   0  0  0  0  0  0  0  0  0  0  0  0
   22.5507   -3.1185  -14.4070 O   0  0  0  0  0  0  0  0  0  0  0  0
  2  1  1  6
  3  2  1  0
  4  2  1  0
  4  6  1  0
  4  5  1  1
  6 11  1  0
  7  6  2  0
  9  8  1  0
 10  9  1  6
 11 10  1  0
 12 10  1  0
 12 17  1  0
 13 12  2  0
 15 14  1  0
 16 15  1  1
 16 17  1  0
 16 18  1  0
 18 19  2  0
 18 20  1  0
M  END
$$$$
