TSS.pdb
     RDKit          3D

 20 19  0  0  1  0  0  0  0  0999 V2000
   17.5545   -8.1181  -17.8583 C   0  0  0  0  0  0  0  0  0  0  0  0
   16.8670   -9.1553  -16.9847 C   0  0  1  0  0  0  0  0  0  0  0  0
   15.7888   -9.6967  -17.6939 O   0  0  0  0  0  0  0  0  0  0  0  0
   17.9133  -10.2183  -16.6838 C   0  0  2  0  0  0  0  0  0  0  0  0
   17.2450  -11.3279  -16.0686 N   0  0  0  0  0  0  0  0  0  0  0  0
   18.9782   -9.6484  -15.8045 C   0  0  0  0  0  0  0  0  0  0  0  0
   18.7221   -9.1710  -14.6795 O   0  0  0  0  0  0  0  0  0  0  0  0
   22.8511  -10.9090  -15.2973 O   0  0  0  0  0  0  0  0  0  0  0  0
   22.7234   -9.6571  -15.8397 C   0  0  0  0  0  0  0  0  0  0  0  0
   21.3883   -9.0765  -15.4327 C   0  0  2  0  0  0  0  0  0  0  0  0
   20.3122   -9.6443  -16.2463 N   0  0  0  0  0  0  0  0  0  0  0  0
   21.4043   -7.6135  -15.6462 C   0  0  0  0  0  0  0  0  0  0  0  0
   21.3379   -7.1626  -16.8258 O   0  0  0  0  0  0  0  0  0  0  0  0
   19.4840   -4.9612  -13.7824 O   0  0  0  0  0  0  0  0  0  0  0  0
   20.1323   -4.6576  -14.9777 C   0  0  0  0  0  0  0  0  0  0  0  0
   21.5217   -5.2095  -14.9128 C   0  0  2  0  0  0  0  0  0  0  0  0
   21.4890   -6.6445  -14.6147 N   0  0  0  0  0  0  0  0  0  0  0  0
   22.2994   -4.5274  -13.8379 C   0  0  0  0  0  0  0  0  0  0  0  0
   22.7143   -5.1744  -12.8371 O   0  0  0  0  0  0  0  0  0  0  0  0
   22.5868   -3.1754  -13.9059 O   0  0  0  0  0  0  0  0  0  0  0  0
  2  1  1  6
  3  2  1  0
  4  2  1  0
  4  6  1  0
  4  5  1  1
  6 11  1  0
  7  6  2  0
  9  8  1  0
 10  9  1  6
 11 10  1  0
 12 10  1  0
 12 17  1  0
 13 12  2  0
 15 14  1  0
 16 15  1  1
 16 17  1  0
 16 18  1  0
 18 19  2  0
 18 20  1  0
M  END
$$$$
