TSS.pdb
     RDKit          3D

 20 19  0  0  1  0  0  0  0  0999 V2000
   18.3344   -8.7480  -18.2214 C   0  0  0  0  0  0  0  0  0  0  0  0
   17.5414   -9.8461  -17.5309 C   0  0  1  0  0  0  0  0  0  0  0  0
   17.1197  -10.7695  -18.4942 O   0  0  0  0  0  0  0  0  0  0  0  0
   18.4907  -10.4918  -16.5323 C   0  0  2  0  0  0  0  0  0  0  0  0
   17.8452  -11.6599  -16.0076 N   0  0  0  0  0  0  0  0  0  0  0  0
   18.8396   -9.5144  -15.4576 C   0  0  0  0  0  0  0  0  0  0  0  0
   17.9717   -9.0087  -14.7160 O   0  0  0  0  0  0  0  0  0  0  0  0
   22.3194   -7.4408  -12.8693 O   0  0  0  0  0  0  0  0  0  0  0  0
   21.9887   -8.3872  -13.8035 C   0  0  0  0  0  0  0  0  0  0  0  0
   20.5692   -8.1499  -14.2658 C   0  0  2  0  0  0  0  0  0  0  0  0
   20.1820   -9.1455  -15.2664 N   0  0  0  0  0  0  0  0  0  0  0  0
   20.4730   -6.8114  -14.8867 C   0  0  0  0  0  0  0  0  0  0  0  0
   20.8047   -6.6696  -16.0986 O   0  0  0  0  0  0  0  0  0  0  0  0
   18.5557   -2.4446  -15.1513 O   0  0  0  0  0  0  0  0  0  0  0  0
   18.7347   -3.5842  -14.3700 C   0  0  0  0  0  0  0  0  0  0  0  0
   19.8779   -4.3671  -14.9350 C   0  0  2  0  0  0  0  0  0  0  0  0
   20.0278   -5.6400  -14.2234 N   0  0  0  0  0  0  0  0  0  0  0  0
   21.1499   -3.6008  -14.7928 C   0  0  0  0  0  0  0  0  0  0  0  0
   21.8893   -3.7662  -13.7836 O   0  0  0  0  0  0  0  0  0  0  0  0
   21.5537   -2.6927  -15.7558 O   0  0  0  0  0  0  0  0  0  0  0  0
  2  1  1  6
  3  2  1  0
  4  2  1  0
  4  6  1  0
  4  5  1  1
  6 11  1  0
  7  6  2  0
  9  8  1  0
 10  9  1  6
 11 10  1  0
 12 10  1  0
 12 17  1  0
 13 12  2  0
 15 14  1  0
 16 15  1  1
 16 17  1  0
 16 18  1  0
 18 19  2  0
 18 20  1  0
M  END
$$$$
