TSS.pdb
     RDKit          3D

 20 19  0  0  1  0  0  0  0  0999 V2000
   16.4904   -9.5019  -14.8072 C   0  0  0  0  0  0  0  0  0  0  0  0
   16.9516  -10.9281  -14.5525 C   0  0  1  0  0  0  0  0  0  0  0  0
   15.8281  -11.7280  -14.3145 O   0  0  0  0  0  0  0  0  0  0  0  0
   17.6812  -11.3701  -15.8124 C   0  0  2  0  0  0  0  0  0  0  0  0
   17.9630  -12.7705  -15.6861 N   0  0  0  0  0  0  0  0  0  0  0  0
   18.9254  -10.5622  -15.9890 C   0  0  0  0  0  0  0  0  0  0  0  0
   19.9085  -10.6866  -15.2293 O   0  0  0  0  0  0  0  0  0  0  0  0
   18.9663   -7.4366  -18.7142 O   0  0  0  0  0  0  0  0  0  0  0  0
   20.1451   -8.1241  -18.5892 C   0  0  0  0  0  0  0  0  0  0  0  0
   20.1862   -8.7913  -17.2334 C   0  0  2  0  0  0  0  0  0  0  0  0
   19.0031   -9.6309  -17.0385 N   0  0  0  0  0  0  0  0  0  0  0  0
   20.1953   -7.7562  -16.1776 C   0  0  0  0  0  0  0  0  0  0  0  0
   19.0947   -7.3270  -15.7265 O   0  0  0  0  0  0  0  0  0  0  0  0
   22.3542   -5.3648  -12.6182 O   0  0  0  0  0  0  0  0  0  0  0  0
   22.4881   -6.2980  -13.6442 C   0  0  0  0  0  0  0  0  0  0  0  0
   21.2868   -6.1981  -14.5307 C   0  0  2  0  0  0  0  0  0  0  0  0
   21.3634   -7.1874  -15.6099 N   0  0  0  0  0  0  0  0  0  0  0  0
   21.2096   -4.8415  -15.1463 C   0  0  0  0  0  0  0  0  0  0  0  0
   21.7408   -4.6148  -16.2684 O   0  0  0  0  0  0  0  0  0  0  0  0
   20.5582   -3.7992  -14.5102 O   0  0  0  0  0  0  0  0  0  0  0  0
  2  1  1  6
  3  2  1  0
  4  2  1  0
  4  6  1  0
  4  5  1  1
  6 11  1  0
  7  6  2  0
  9  8  1  0
 10  9  1  6
 11 10  1  0
 12 10  1  0
 12 17  1  0
 13 12  2  0
 15 14  1  0
 16 15  1  1
 16 17  1  0
 16 18  1  0
 18 19  2  0
 18 20  1  0
M  END
$$$$
