TSS.pdb
     RDKit          3D

 20 19  0  0  1  0  0  0  0  0999 V2000
   19.2529   -8.4471  -19.4201 C   0  0  0  0  0  0  0  0  0  0  0  0
   18.4115   -9.5035  -18.7217 C   0  0  1  0  0  0  0  0  0  0  0  0
   18.2595  -10.5974  -19.5812 O   0  0  0  0  0  0  0  0  0  0  0  0
   19.1777   -9.8956  -17.4669 C   0  0  2  0  0  0  0  0  0  0  0  0
   18.5444  -11.0566  -16.9127 N   0  0  0  0  0  0  0  0  0  0  0  0
   19.1944   -8.7534  -16.5041 C   0  0  0  0  0  0  0  0  0  0  0  0
   18.1453   -8.1929  -16.1240 O   0  0  0  0  0  0  0  0  0  0  0  0
   21.0336   -8.2762  -13.0431 O   0  0  0  0  0  0  0  0  0  0  0  0
   21.5509   -7.4475  -14.0040 C   0  0  0  0  0  0  0  0  0  0  0  0
   20.4911   -7.1806  -15.0484 C   0  0  2  0  0  0  0  0  0  0  0  0
   20.4222   -8.2871  -16.0041 N   0  0  0  0  0  0  0  0  0  0  0  0
   20.8351   -5.9501  -15.7926 C   0  0  0  0  0  0  0  0  0  0  0  0
   21.6877   -6.0120  -16.7244 O   0  0  0  0  0  0  0  0  0  0  0  0
   18.6713   -2.4893  -15.4575 O   0  0  0  0  0  0  0  0  0  0  0  0
   19.2393   -2.7917  -16.6933 C   0  0  0  0  0  0  0  0  0  0  0  0
   20.5104   -3.5446  -16.4553 C   0  0  2  0  0  0  0  0  0  0  0  0
   20.2759   -4.6706  -15.5464 N   0  0  0  0  0  0  0  0  0  0  0  0
   21.5326   -2.6511  -15.8368 C   0  0  0  0  0  0  0  0  0  0  0  0
   21.9755   -2.8880  -14.6791 O   0  0  0  0  0  0  0  0  0  0  0  0
   22.0216   -1.5447  -16.5090 O   0  0  0  0  0  0  0  0  0  0  0  0
  2  1  1  6
  3  2  1  0
  4  2  1  0
  4  6  1  0
  4  5  1  1
  6 11  1  0
  7  6  2  0
  9  8  1  0
 10  9  1  1
 11 10  1  0
 12 10  1  0
 12 17  1  0
 13 12  2  0
 15 14  1  0
 16 15  1  1
 16 17  1  0
 16 18  1  0
 18 19  2  0
 18 20  1  0
M  END
$$$$
