TSS.pdb
     RDKit          3D

 20 19  0  0  1  0  0  0  0  0999 V2000
   25.5813   -9.8416  -15.3064 C   0  0  0  0  0  0  0  0  0  0  0  0
   25.3565  -10.4039  -16.7010 C   0  0  1  0  0  0  0  0  0  0  0  0
   26.2409  -11.4694  -16.9039 O   0  0  0  0  0  0  0  0  0  0  0  0
   23.9110  -10.8774  -16.7404 C   0  0  2  0  0  0  0  0  0  0  0  0
   23.7252  -11.6147  -17.9562 N   0  0  0  0  0  0  0  0  0  0  0  0
   22.9897   -9.7048  -16.6502 C   0  0  0  0  0  0  0  0  0  0  0  0
   22.8674   -8.8859  -17.5848 O   0  0  0  0  0  0  0  0  0  0  0  0
   21.2699   -8.7305  -12.9865 O   0  0  0  0  0  0  0  0  0  0  0  0
   20.5069   -8.4708  -14.0947 C   0  0  0  0  0  0  0  0  0  0  0  0
   21.4148   -8.3083  -15.2923 C   0  0  2  0  0  0  0  0  0  0  0  0
   22.2325   -9.5073  -15.4829 N   0  0  0  0  0  0  0  0  0  0  0  0
   22.3225   -7.1629  -15.0677 C   0  0  0  0  0  0  0  0  0  0  0  0
   23.5717   -7.3586  -15.0638 O   0  0  0  0  0  0  0  0  0  0  0  0
   24.2570   -3.5396  -16.4265 O   0  0  0  0  0  0  0  0  0  0  0  0
   23.4071   -4.6411  -16.3519 C   0  0  0  0  0  0  0  0  0  0  0  0
   22.8354   -4.7015  -14.9703 C   0  0  2  0  0  0  0  0  0  0  0  0
   21.9025   -5.8260  -14.8511 N   0  0  0  0  0  0  0  0  0  0  0  0
   22.0927   -3.4448  -14.6626 C   0  0  0  0  0  0  0  0  0  0  0  0
   22.6822   -2.4659  -14.1270 O   0  0  0  0  0  0  0  0  0  0  0  0
   20.7458   -3.3161  -14.9530 O   0  0  0  0  0  0  0  0  0  0  0  0
  2  1  1  1
  3  2  1  0
  4  2  1  0
  4  6  1  0
  4  5  1  6
  6 11  1  0
  7  6  2  0
  9  8  1  0
 10  9  1  1
 11 10  1  0
 12 10  1  0
 12 17  1  0
 13 12  2  0
 15 14  1  0
 16 15  1  6
 16 17  1  0
 16 18  1  0
 18 19  2  0
 18 20  1  0
M  END
$$$$
