TSS.pdb
     RDKit          3D

 20 19  0  0  1  0  0  0  0  0999 V2000
   20.5672   -4.5631  -18.1731 C   0  0  0  0  0  0  0  0  0  0  0  0
   21.8662   -4.2587  -18.9023 C   0  0  1  0  0  0  0  0  0  0  0  0
   21.8947   -2.8960  -19.2197 O   0  0  0  0  0  0  0  0  0  0  0  0
   22.9882   -4.6202  -17.9402 C   0  0  2  0  0  0  0  0  0  0  0  0
   24.2294   -4.2565  -18.5595 N   0  0  0  0  0  0  0  0  0  0  0  0
   22.9300   -6.0774  -17.6161 C   0  0  0  0  0  0  0  0  0  0  0  0
   23.5987   -6.9228  -18.2465 O   0  0  0  0  0  0  0  0  0  0  0  0
   22.6318   -9.5210  -14.5862 O   0  0  0  0  0  0  0  0  0  0  0  0
   22.7134   -8.1872  -14.8896 C   0  0  0  0  0  0  0  0  0  0  0  0
   22.0175   -7.9372  -16.2080 C   0  0  2  0  0  0  0  0  0  0  0  0
   22.1009   -6.5220  -16.5722 N   0  0  0  0  0  0  0  0  0  0  0  0
   20.5888   -8.2976  -16.0844 C   0  0  0  0  0  0  0  0  0  0  0  0
   19.8128   -7.5289  -15.4474 O   0  0  0  0  0  0  0  0  0  0  0  0
   18.7319  -11.2665  -18.2373 O   0  0  0  0  0  0  0  0  0  0  0  0
   17.9652  -10.2127  -17.7446 C   0  0  0  0  0  0  0  0  0  0  0  0
   18.5702   -9.7531  -16.4555 C   0  0  2  0  0  0  0  0  0  0  0  0
   19.9959   -9.4623  -16.6342 N   0  0  0  0  0  0  0  0  0  0  0  0
   18.4375  -10.8136  -15.4148 C   0  0  0  0  0  0  0  0  0  0  0  0
   19.4627  -11.3382  -14.8988 O   0  0  0  0  0  0  0  0  0  0  0  0
   17.1957  -11.2503  -14.9875 O   0  0  0  0  0  0  0  0  0  0  0  0
  2  1  1  1
  3  2  1  0
  4  2  1  0
  4  6  1  0
  4  5  1  6
  6 11  1  0
  7  6  2  0
  9  8  1  0
 10  9  1  1
 11 10  1  0
 12 10  1  0
 12 17  1  0
 13 12  2  0
 15 14  1  0
 16 15  1  6
 16 17  1  0
 16 18  1  0
 18 19  2  0
 18 20  1  0
M  END
$$$$
