TSS.pdb
     RDKit          3D

 20 19  0  0  1  0  0  0  0  0999 V2000
   15.4078   -5.9684   -9.8877 C   0  0  0  0  0  0  0  0  0  0  0  0
   15.2960   -7.3262   -9.2129 C   0  0  1  0  0  0  0  0  0  0  0  0
   14.0225   -7.4419   -8.6441 O   0  0  0  0  0  0  0  0  0  0  0  0
   15.5027   -8.3628  -10.3074 C   0  0  2  0  0  0  0  0  0  0  0  0
   15.2123   -9.6516   -9.7497 N   0  0  0  0  0  0  0  0  0  0  0  0
   16.9006   -8.2801  -10.8282 C   0  0  0  0  0  0  0  0  0  0  0  0
   17.7588   -7.5391  -10.3052 O   0  0  0  0  0  0  0  0  0  0  0  0
   17.6249  -10.2556  -14.2017 O   0  0  0  0  0  0  0  0  0  0  0  0
   18.8103  -10.0902  -13.5345 C   0  0  0  0  0  0  0  0  0  0  0  0
   18.6353   -9.0284  -12.4728 C   0  0  2  0  0  0  0  0  0  0  0  0
   17.2723   -9.0551  -11.9399 N   0  0  0  0  0  0  0  0  0  0  0  0
   18.8708   -7.6958  -13.0685 C   0  0  0  0  0  0  0  0  0  0  0  0
   17.9074   -7.0876  -13.6171 O   0  0  0  0  0  0  0  0  0  0  0  0
   19.7514   -3.4065  -13.0894 O   0  0  0  0  0  0  0  0  0  0  0  0
   19.4245   -4.7138  -12.7351 C   0  0  0  0  0  0  0  0  0  0  0  0
   20.2407   -5.6465  -13.5734 C   0  0  2  0  0  0  0  0  0  0  0  0
   20.1176   -7.0207  -13.0779 N   0  0  0  0  0  0  0  0  0  0  0  0
   21.6808   -5.2602  -13.5242 C   0  0  0  0  0  0  0  0  0  0  0  0
   22.4682   -5.8210  -12.7130 O   0  0  0  0  0  0  0  0  0  0  0  0
   22.1921   -4.2831  -14.3602 O   0  0  0  0  0  0  0  0  0  0  0  0
  2  1  1  6
  3  2  1  0
  4  2  1  0
  4  6  1  0
  4  5  1  1
  6 11  1  0
  7  6  2  0
  9  8  1  0
 10  9  1  6
 11 10  1  0
 12 10  1  0
 12 17  1  0
 13 12  2  0
 15 14  1  0
 16 15  1  1
 16 17  1  0
 16 18  1  0
 18 19  2  0
 18 20  1  0
M  END
$$$$
