ECG.pdb
     RDKit          3D

 20 19  0  0  1  0  0  0  0  0999 V2000
    8.3753  -15.0367   20.4744 N   0  0  0  0  0  0  0  0  0  0  0  0
    7.7020  -15.4532   21.6642 C   0  0  1  0  0  0  0  0  0  0  0  0
    7.8026  -16.9689   21.8145 C   0  0  0  0  0  0  0  0  0  0  0  0
    7.3630  -17.5623   20.5043 C   0  0  0  0  0  0  0  0  0  0  0  0
    7.3556  -19.0313   20.5057 C   0  0  0  0  0  0  0  0  0  0  0  0
    8.4229  -19.6581   20.5984 O   0  0  0  0  0  0  0  0  0  0  0  0
    8.1445  -14.7492   22.8761 C   0  0  0  0  0  0  0  0  0  0  0  0
    9.3796  -14.5788   23.0422 O   0  0  0  0  0  0  0  0  0  0  0  0
    6.1647  -19.7043   20.4041 O   0  0  0  0  0  0  0  0  0  0  0  0
    7.2817  -14.2436   23.8798 N   0  0  0  0  0  0  0  0  0  0  0  0
    7.6935  -13.8234   25.1804 C   0  0  1  0  0  0  0  0  0  0  0  0
    6.7539  -12.7283   25.6530 C   0  0  0  0  0  0  0  0  0  0  0  0
    7.1567  -12.1986   27.3332 S   0  0  0  0  0  0  0  0  0  0  0  0
    7.8335  -14.9070   26.1522 C   0  0  0  0  0  0  0  0  0  0  0  0
    6.8417  -15.6510   26.3780 O   0  0  0  0  0  0  0  0  0  0  0  0
    9.0196  -15.1935   26.8754 N   0  0  0  0  0  0  0  0  0  0  0  0
    9.1325  -16.2415   27.8489 C   0  0  0  0  0  0  0  0  0  0  0  0
   10.4216  -16.2672   28.5424 C   0  0  0  0  0  0  0  0  0  0  0  0
   11.3090  -15.4524   28.2037 O   0  0  0  0  0  0  0  0  0  0  0  0
   10.7058  -17.1557   29.5609 O   0  0  0  0  0  0  0  0  0  0  0  0
  2  1  1  6
  2  3  1  0
  3  4  1  0
  4  5  1  0
  5  9  1  0
  6  5  2  0
  7  2  1  0
  7  8  2  0
 10  7  1  0
 11 10  1  0
 11 12  1  1
 13 12  1  0
 14 11  1  0
 15 14  2  0
 16 14  1  0
 17 16  1  0
 18 17  1  0
 18 20  1  0
 19 18  2  0
M  END
$$$$
