ECG.pdb
     RDKit          3D

 20 19  0  0  1  0  0  0  0  0999 V2000
    6.8164  -14.7305   21.4857 N   0  0  0  0  0  0  0  0  0  0  0  0
    7.3603  -15.4048   22.6225 C   0  0  1  0  0  0  0  0  0  0  0  0
    8.3677  -16.4580   22.1689 C   0  0  0  0  0  0  0  0  0  0  0  0
    8.9065  -15.9966   20.8427 C   0  0  0  0  0  0  0  0  0  0  0  0
    9.9771  -16.8560   20.3202 C   0  0  0  0  0  0  0  0  0  0  0  0
   10.4864  -16.6120   19.2149 O   0  0  0  0  0  0  0  0  0  0  0  0
    7.9255  -14.5025   23.6357 C   0  0  0  0  0  0  0  0  0  0  0  0
    8.9547  -13.8458   23.3330 O   0  0  0  0  0  0  0  0  0  0  0  0
   10.4095  -17.9274   21.0597 O   0  0  0  0  0  0  0  0  0  0  0  0
    7.3976  -14.3133   24.9368 N   0  0  0  0  0  0  0  0  0  0  0  0
    7.9607  -13.4623   25.9350 C   0  0  1  0  0  0  0  0  0  0  0  0
    6.8372  -12.9409   26.8134 C   0  0  0  0  0  0  0  0  0  0  0  0
    5.7632  -11.8091   25.9015 S   0  0  0  0  0  0  0  0  0  0  0  0
    9.0470  -14.0665   26.7051 C   0  0  0  0  0  0  0  0  0  0  0  0
    9.5630  -13.4064   27.6465 O   0  0  0  0  0  0  0  0  0  0  0  0
    9.5770  -15.3615   26.4729 N   0  0  0  0  0  0  0  0  0  0  0  0
   10.6104  -15.9600   27.2682 C   0  0  0  0  0  0  0  0  0  0  0  0
   10.8383  -17.3756   26.9724 C   0  0  0  0  0  0  0  0  0  0  0  0
   10.1725  -17.9204   26.0635 O   0  0  0  0  0  0  0  0  0  0  0  0
   11.7611  -18.1437   27.6551 O   0  0  0  0  0  0  0  0  0  0  0  0
  2  1  1  6
  2  3  1  0
  3  4  1  0
  4  5  1  0
  5  9  1  0
  6  5  2  0
  7  2  1  0
  7  8  2  0
 10  7  1  0
 11 10  1  0
 11 12  1  1
 13 12  1  0
 14 11  1  0
 15 14  2  0
 16 14  1  0
 17 16  1  0
 18 17  1  0
 18 20  1  0
 19 18  2  0
M  END
$$$$
