ECG.pdb
     RDKit          3D

 20 19  0  0  1  0  0  0  0  0999 V2000
    7.5474  -13.0476   17.7091 N   0  0  0  0  0  0  0  0  0  0  0  0
    7.6603  -14.3541   18.2773 C   0  0  1  0  0  0  0  0  0  0  0  0
    8.2106  -15.3269   17.2378 C   0  0  0  0  0  0  0  0  0  0  0  0
    8.2024  -14.6008   15.9207 C   0  0  0  0  0  0  0  0  0  0  0  0
    8.6253  -15.4406   14.7921 C   0  0  0  0  0  0  0  0  0  0  0  0
    9.7273  -15.2496   14.2538 O   0  0  0  0  0  0  0  0  0  0  0  0
    8.4283  -14.3942   19.5298 C   0  0  0  0  0  0  0  0  0  0  0  0
    9.6816  -14.4687   19.4517 O   0  0  0  0  0  0  0  0  0  0  0  0
    7.7966  -16.4349   14.3378 O   0  0  0  0  0  0  0  0  0  0  0  0
    7.8630  -14.3553   20.8284 N   0  0  0  0  0  0  0  0  0  0  0  0
    8.6024  -14.4225   22.0475 C   0  0  1  0  0  0  0  0  0  0  0  0
    7.6810  -14.0387   23.1918 C   0  0  0  0  0  0  0  0  0  0  0  0
    7.3786  -12.2573   23.2209 S   0  0  0  0  0  0  0  0  0  0  0  0
    9.2853  -15.6956   22.2738 C   0  0  0  0  0  0  0  0  0  0  0  0
    8.6622  -16.7669   22.0453 O   0  0  0  0  0  0  0  0  0  0  0  0
   10.6191  -15.8238   22.7389 N   0  0  0  0  0  0  0  0  0  0  0  0
   11.2819  -17.0806   22.9386 C   0  0  0  0  0  0  0  0  0  0  0  0
   12.6093  -16.9587   23.5439 C   0  0  0  0  0  0  0  0  0  0  0  0
   13.2888  -15.9331   23.3148 O   0  0  0  0  0  0  0  0  0  0  0  0
   13.1506  -17.9306   24.3625 O   0  0  0  0  0  0  0  0  0  0  0  0
  2  1  1  6
  2  3  1  0
  3  4  1  0
  4  5  1  0
  5  9  1  0
  6  5  2  0
  7  2  1  0
  7  8  2  0
 10  7  1  0
 11 10  1  0
 11 12  1  1
 13 12  1  0
 14 11  1  0
 15 14  2  0
 16 14  1  0
 17 16  1  0
 18 17  1  0
 18 20  1  0
 19 18  2  0
M  END
$$$$
