ECG.pdb
     RDKit          3D

 20 19  0  0  1  0  0  0  0  0999 V2000
    7.6464  -14.8279   20.7632 N   0  0  0  0  0  0  0  0  0  0  0  0
    7.3669  -15.2820   22.0892 C   0  0  1  0  0  0  0  0  0  0  0  0
    8.0189  -16.6427   22.3205 C   0  0  0  0  0  0  0  0  0  0  0  0
    7.4546  -17.5734   21.2826 C   0  0  0  0  0  0  0  0  0  0  0  0
    8.0412  -18.9194   21.3293 C   0  0  0  0  0  0  0  0  0  0  0  0
    7.6840  -19.7818   20.5112 O   0  0  0  0  0  0  0  0  0  0  0  0
    7.7236  -14.3153   23.1371 C   0  0  0  0  0  0  0  0  0  0  0  0
    8.7876  -13.6592   22.9977 O   0  0  0  0  0  0  0  0  0  0  0  0
    8.9839  -19.2164   22.2805 O   0  0  0  0  0  0  0  0  0  0  0  0
    6.9565  -14.0626   24.3013 N   0  0  0  0  0  0  0  0  0  0  0  0
    7.2973  -13.1231   25.3205 C   0  0  1  0  0  0  0  0  0  0  0  0
    6.0173  -12.6462   25.9837 C   0  0  0  0  0  0  0  0  0  0  0  0
    6.3673  -11.4989   27.3354 S   0  0  0  0  0  0  0  0  0  0  0  0
    8.2877  -13.6042   26.2828 C   0  0  0  0  0  0  0  0  0  0  0  0
    8.7340  -12.8019   27.1460 O   0  0  0  0  0  0  0  0  0  0  0  0
    8.7963  -14.9277   26.3232 N   0  0  0  0  0  0  0  0  0  0  0  0
    9.7573  -15.3890   27.2836 C   0  0  0  0  0  0  0  0  0  0  0  0
   10.0830  -16.8107   27.1573 C   0  0  0  0  0  0  0  0  0  0  0  0
    9.6965  -17.4339   26.1432 O   0  0  0  0  0  0  0  0  0  0  0  0
   10.8024  -17.5014   28.1127 O   0  0  0  0  0  0  0  0  0  0  0  0
  2  1  1  6
  2  3  1  0
  3  4  1  0
  4  5  1  0
  5  9  1  0
  6  5  2  0
  7  2  1  0
  7  8  2  0
 10  7  1  0
 11 10  1  0
 11 12  1  1
 13 12  1  0
 14 11  1  0
 15 14  2  0
 16 14  1  0
 17 16  1  0
 18 17  1  0
 18 20  1  0
 19 18  2  0
M  END
$$$$
