ECG.pdb
     RDKit          3D

 20 19  0  0  1  0  0  0  0  0999 V2000
    7.9763  -12.5706   19.6964 N   0  0  0  0  0  0  0  0  0  0  0  0
    7.3180  -13.4749   20.5859 C   0  0  1  0  0  0  0  0  0  0  0  0
    7.1950  -14.8490   19.9325 C   0  0  0  0  0  0  0  0  0  0  0  0
    8.5739  -15.2311   19.4691 C   0  0  0  0  0  0  0  0  0  0  0  0
    8.6168  -16.5295   18.7833 C   0  0  0  0  0  0  0  0  0  0  0  0
    7.5676  -17.1618   18.5832 O   0  0  0  0  0  0  0  0  0  0  0  0
    7.9325  -13.5521   21.9187 C   0  0  0  0  0  0  0  0  0  0  0  0
    9.1688  -13.3399   22.0120 O   0  0  0  0  0  0  0  0  0  0  0  0
    9.8208  -17.0376   18.3664 O   0  0  0  0  0  0  0  0  0  0  0  0
    7.2357  -13.8492   23.1161 N   0  0  0  0  0  0  0  0  0  0  0  0
    7.8269  -13.9196   24.4135 C   0  0  1  0  0  0  0  0  0  0  0  0
    7.0647  -12.9901   25.3413 C   0  0  0  0  0  0  0  0  0  0  0  0
    5.3668  -13.5576   25.5881 S   0  0  0  0  0  0  0  0  0  0  0  0
    7.9546  -15.2741   24.9495 C   0  0  0  0  0  0  0  0  0  0  0  0
    6.9776  -16.0629   24.8435 O   0  0  0  0  0  0  0  0  0  0  0  0
    9.1131  -15.7812   25.5920 N   0  0  0  0  0  0  0  0  0  0  0  0
    9.2103  -17.1011   26.1462 C   0  0  0  0  0  0  0  0  0  0  0  0
   10.5160  -17.3985   26.7378 C   0  0  0  0  0  0  0  0  0  0  0  0
   11.4158  -16.5300   26.6902 O   0  0  0  0  0  0  0  0  0  0  0  0
   10.8031  -18.6024   27.3508 O   0  0  0  0  0  0  0  0  0  0  0  0
  2  1  1  6
  2  3  1  0
  3  4  1  0
  4  5  1  0
  5  9  1  0
  6  5  2  0
  7  2  1  0
  7  8  2  0
 10  7  1  0
 11 10  1  0
 11 12  1  1
 13 12  1  0
 14 11  1  0
 15 14  2  0
 16 14  1  0
 17 16  1  0
 18 17  1  0
 18 20  1  0
 19 18  2  0
M  END
$$$$
