ECG.pdb
     RDKit          3D

 20 19  0  0  1  0  0  0  0  0999 V2000
    7.7218  -12.5087   20.1264 N   0  0  0  0  0  0  0  0  0  0  0  0
    7.3959  -13.6778   20.8809 C   0  0  1  0  0  0  0  0  0  0  0  0
    7.8771  -14.9238   20.1420 C   0  0  0  0  0  0  0  0  0  0  0  0
    7.4664  -16.1057   20.9767 C   0  0  0  0  0  0  0  0  0  0  0  0
    7.9584  -17.3863   20.4515 C   0  0  0  0  0  0  0  0  0  0  0  0
    7.3577  -17.9492   19.5226 O   0  0  0  0  0  0  0  0  0  0  0  0
    7.8742  -13.6424   22.2702 C   0  0  0  0  0  0  0  0  0  0  0  0
    9.1160  -13.6011   22.4661 O   0  0  0  0  0  0  0  0  0  0  0  0
    9.0833  -17.9549   20.9929 O   0  0  0  0  0  0  0  0  0  0  0  0
    7.0392  -13.6512   23.4149 N   0  0  0  0  0  0  0  0  0  0  0  0
    7.4966  -13.5688   24.7646 C   0  0  1  0  0  0  0  0  0  0  0  0
    6.5674  -12.6456   25.5326 C   0  0  0  0  0  0  0  0  0  0  0  0
    6.9937  -12.5985   27.2881 S   0  0  0  0  0  0  0  0  0  0  0  0
    7.6808  -14.8615   25.4229 C   0  0  0  0  0  0  0  0  0  0  0  0
    6.7307  -15.6894   25.4102 O   0  0  0  0  0  0  0  0  0  0  0  0
    8.8666  -15.2661   26.0878 N   0  0  0  0  0  0  0  0  0  0  0  0
    9.0149  -16.5181   26.7729 C   0  0  0  0  0  0  0  0  0  0  0  0
   10.2949  -16.6626   27.4687 C   0  0  0  0  0  0  0  0  0  0  0  0
   11.1354  -15.7387   27.3910 O   0  0  0  0  0  0  0  0  0  0  0  0
   10.6203  -17.7798   28.2127 O   0  0  0  0  0  0  0  0  0  0  0  0
  2  1  1  6
  2  3  1  0
  3  4  1  0
  4  5  1  0
  5  9  1  0
  6  5  2  0
  7  2  1  0
  7  8  2  0
 10  7  1  0
 11 10  1  0
 11 12  1  1
 13 12  1  0
 14 11  1  0
 15 14  2  0
 16 14  1  0
 17 16  1  0
 18 17  1  0
 18 20  1  0
 19 18  2  0
M  END
$$$$
