ECG.pdb
     RDKit          3D

 20 19  0  0  1  0  0  0  0  0999 V2000
    8.2975  -17.0200   22.6497 N   0  0  0  0  0  0  0  0  0  0  0  0
    9.7033  -17.0218   22.9068 C   0  0  1  0  0  0  0  0  0  0  0  0
   10.4666  -16.7062   21.6230 C   0  0  0  0  0  0  0  0  0  0  0  0
   11.9260  -16.9005   21.9302 C   0  0  0  0  0  0  0  0  0  0  0  0
   12.7121  -17.3304   20.7661 C   0  0  0  0  0  0  0  0  0  0  0  0
   12.2624  -17.1730   19.6199 O   0  0  0  0  0  0  0  0  0  0  0  0
   10.1068  -16.1466   24.0164 C   0  0  0  0  0  0  0  0  0  0  0  0
   10.7737  -15.1158   23.7429 O   0  0  0  0  0  0  0  0  0  0  0  0
   13.9433  -17.9055   20.9532 O   0  0  0  0  0  0  0  0  0  0  0  0
    9.8008  -16.3751   25.3809 N   0  0  0  0  0  0  0  0  0  0  0  0
    9.7182  -15.3627   26.3838 C   0  0  1  0  0  0  0  0  0  0  0  0
    8.7739  -14.2779   25.8968 C   0  0  0  0  0  0  0  0  0  0  0  0
    8.5734  -12.9782   27.1363 S   0  0  0  0  0  0  0  0  0  0  0  0
    9.3740  -15.8557   27.7168 C   0  0  0  0  0  0  0  0  0  0  0  0
    8.4348  -16.6882   27.8317 O   0  0  0  0  0  0  0  0  0  0  0  0
   10.0254  -15.4644   28.9145 N   0  0  0  0  0  0  0  0  0  0  0  0
   11.2732  -16.0111   29.3647 C   0  0  0  0  0  0  0  0  0  0  0  0
   11.2508  -17.4638   29.5449 C   0  0  0  0  0  0  0  0  0  0  0  0
   11.8134  -17.9596   30.5469 O   0  0  0  0  0  0  0  0  0  0  0  0
   10.6329  -18.3190   28.6537 O   0  0  0  0  0  0  0  0  0  0  0  0
  2  1  1  6
  2  3  1  0
  3  4  1  0
  4  5  1  0
  5  9  1  0
  6  5  2  0
  7  2  1  0
  7  8  2  0
 10  7  1  0
 11 10  1  0
 11 12  1  6
 13 12  1  0
 14 11  1  0
 15 14  2  0
 16 14  1  0
 17 16  1  0
 18 17  1  0
 18 20  1  0
 19 18  2  0
M  END
$$$$
