ECG.pdb
     RDKit          3D

 20 19  0  0  1  0  0  0  0  0999 V2000
    7.3347  -17.8660   17.4022 N   0  0  0  0  0  0  0  0  0  0  0  0
    8.7373  -17.5972   17.3484 C   0  0  1  0  0  0  0  0  0  0  0  0
    9.1469  -17.2590   15.9174 C   0  0  0  0  0  0  0  0  0  0  0  0
    7.9174  -16.7320   15.2300 C   0  0  0  0  0  0  0  0  0  0  0  0
    8.1466  -16.3748   13.8236 C   0  0  0  0  0  0  0  0  0  0  0  0
    8.7101  -15.3065   13.5375 O   0  0  0  0  0  0  0  0  0  0  0  0
    9.1848  -16.5753   18.3053 C   0  0  0  0  0  0  0  0  0  0  0  0
   10.4215  -16.3775   18.4224 O   0  0  0  0  0  0  0  0  0  0  0  0
    7.7350  -17.2273   12.8309 O   0  0  0  0  0  0  0  0  0  0  0  0
    8.3254  -15.7894   19.1123 N   0  0  0  0  0  0  0  0  0  0  0  0
    8.7559  -14.8671   20.1131 C   0  0  1  0  0  0  0  0  0  0  0  0
    7.7011  -13.7843   20.2563 C   0  0  0  0  0  0  0  0  0  0  0  0
    7.7815  -12.6057   18.8886 S   0  0  0  0  0  0  0  0  0  0  0  0
    9.1130  -15.4815   21.3911 C   0  0  0  0  0  0  0  0  0  0  0  0
    8.2027  -16.0058   22.0873 O   0  0  0  0  0  0  0  0  0  0  0  0
   10.4279  -15.5356   21.9205 N   0  0  0  0  0  0  0  0  0  0  0  0
   10.7745  -16.2056   23.1410 C   0  0  0  0  0  0  0  0  0  0  0  0
   12.1845  -16.0684   23.5103 C   0  0  0  0  0  0  0  0  0  0  0  0
   12.9641  -15.4870   22.7227 O   0  0  0  0  0  0  0  0  0  0  0  0
   12.6982  -16.5547   24.6965 O   0  0  0  0  0  0  0  0  0  0  0  0
  2  1  1  6
  2  3  1  0
  3  4  1  0
  4  5  1  0
  5  9  1  0
  6  5  2  0
  7  2  1  0
  7  8  2  0
 10  7  1  0
 11 10  1  0
 11 12  1  1
 13 12  1  0
 14 11  1  0
 15 14  2  0
 16 14  1  0
 17 16  1  0
 18 17  1  0
 18 20  1  0
 19 18  2  0
M  END
$$$$
