ECG.pdb
     RDKit          3D

 20 19  0  0  1  0  0  0  0  0999 V2000
    8.3672  -16.6116   21.5593 N   0  0  0  0  0  0  0  0  0  0  0  0
    9.6556  -17.0013   22.0395 C   0  0  1  0  0  0  0  0  0  0  0  0
   10.7011  -16.7967   20.9463 C   0  0  0  0  0  0  0  0  0  0  0  0
   10.2342  -17.5808   19.7508 C   0  0  0  0  0  0  0  0  0  0  0  0
   11.1166  -17.4419   18.5846 C   0  0  0  0  0  0  0  0  0  0  0  0
   10.7028  -17.7402   17.4530 O   0  0  0  0  0  0  0  0  0  0  0  0
   10.0426  -16.3520   23.2999 C   0  0  0  0  0  0  0  0  0  0  0  0
   11.2111  -16.5395   23.7261 O   0  0  0  0  0  0  0  0  0  0  0  0
   12.3976  -16.9814   18.7536 O   0  0  0  0  0  0  0  0  0  0  0  0
    9.1958  -15.5248   24.0785 N   0  0  0  0  0  0  0  0  0  0  0  0
    9.4726  -15.0885   25.4091 C   0  0  1  0  0  0  0  0  0  0  0  0
    8.5896  -13.8923   25.7175 C   0  0  0  0  0  0  0  0  0  0  0  0
    8.9013  -13.2587   27.3809 S   0  0  0  0  0  0  0  0  0  0  0  0
    9.3788  -16.1374   26.4236 C   0  0  0  0  0  0  0  0  0  0  0  0
    8.2418  -16.5904   26.7242 O   0  0  0  0  0  0  0  0  0  0  0  0
   10.4867  -16.6969   27.1101 N   0  0  0  0  0  0  0  0  0  0  0  0
   10.3813  -17.7462   28.0830 C   0  0  0  0  0  0  0  0  0  0  0  0
   11.0395  -17.4410   29.3546 C   0  0  0  0  0  0  0  0  0  0  0  0
   10.9911  -16.2716   29.7975 O   0  0  0  0  0  0  0  0  0  0  0  0
   11.7166  -18.3911   30.0938 O   0  0  0  0  0  0  0  0  0  0  0  0
  2  1  1  6
  2  3  1  0
  3  4  1  0
  4  5  1  0
  5  9  1  0
  6  5  2  0
  7  2  1  0
  7  8  2  0
 10  7  1  0
 11 10  1  0
 11 12  1  1
 13 12  1  0
 14 11  1  0
 15 14  2  0
 16 14  1  0
 17 16  1  0
 18 17  1  0
 18 20  1  0
 19 18  2  0
M  END
$$$$
