SPF.pdb
     RDKit          3D

 25 26  0  0  1  0  0  0  0  0999 V2000
   23.8508  -18.3285  -16.4832 O   0  0  0  0  0  0  0  0  0  0  0  0
   23.6240  -19.6694  -16.1410 C   0  0  0  0  0  0  0  0  0  0  0  0
   24.8146  -20.5017  -16.6132 C   0  0  2  0  0  0  0  0  0  0  0  0
   24.3799  -21.4715  -17.5135 N   0  0  0  0  0  0  0  0  0  0  0  0
   25.5655  -20.9696  -15.4294 C   0  0  0  0  0  0  0  0  0  0  0  0
   25.3118  -22.1408  -15.0496 O   0  0  0  0  0  0  0  0  0  0  0  0
   26.5112  -20.2099  -14.7294 N   0  0  0  0  0  0  0  0  0  0  0  0
   26.9567  -18.8415  -14.9622 C   0  0  0  0  0  0  0  0  0  0  0  0
   28.2783  -18.6969  -14.2806 C   0  0  0  0  0  0  0  0  0  0  0  0
   28.6536  -20.1293  -13.8960 C   0  0  0  0  0  0  0  0  0  0  0  0
   27.2657  -20.6681  -13.5788 C   0  0  1  0  0  0  0  0  0  0  0  0
   26.7249  -20.0859  -12.3267 C   0  0  0  0  0  0  0  0  0  0  0  0
   26.3619  -18.8881  -12.2583 O   0  0  0  0  0  0  0  0  0  0  0  0
   26.6195  -20.9041  -11.1912 N   0  0  0  0  0  0  0  0  0  0  0  0
   25.9927  -20.5125   -9.9553 C   0  0  1  0  0  0  0  0  0  0  0  0
   24.8190  -21.4558   -9.7568 C   0  0  0  0  0  0  0  0  0  0  0  0
   23.7124  -21.1870  -10.6847 C   0  0  0  0  0  0  0  0  0  0  0  0
   22.7239  -20.2872  -10.3322 C   0  0  0  0  0  0  0  0  0  0  0  0
   21.6770  -20.0151  -11.1874 C   0  0  0  0  0  0  0  0  0  0  0  0
   21.6304  -20.6573  -12.4062 C   0  0  0  0  0  0  0  0  0  0  0  0
   22.6254  -21.5619  -12.7586 C   0  0  0  0  0  0  0  0  0  0  0  0
   23.6615  -21.8243  -11.8998 C   0  0  0  0  0  0  0  0  0  0  0  0
   26.9910  -20.5855   -8.8703 C   0  0  0  0  0  0  0  0  0  0  0  0
   26.8012  -20.0200   -7.6178 O   0  0  0  0  0  0  0  0  0  0  0  0
   28.0706  -21.1864   -9.0790 O   0  0  0  0  0  0  0  0  0  0  0  0
  2  3  1  0
  2  1  1  0
  3  4  1  1
  5  3  1  0
  6  5  2  0
  7  5  1  0
  7 11  1  0
  8  9  1  0
  8  7  1  0
  9 10  1  0
 10 11  1  0
 11 12  1  1
 12 14  1  0
 13 12  2  0
 15 14  1  0
 15 16  1  1
 17 16  1  0
 17 22  1  0
 18 17  2  0
 19 18  1  0
 19 20  2  0
 20 21  1  0
 21 22  2  0
 23 15  1  0
 24 23  1  0
 25 23  2  0
M  END
$$$$
