SPF.pdb
     RDKit          3D

 25 26  0  0  1  0  0  0  0  0999 V2000
   22.2512  -17.7205  -14.7868 O   0  0  0  0  0  0  0  0  0  0  0  0
   22.6177  -18.2271  -13.5316 C   0  0  0  0  0  0  0  0  0  0  0  0
   22.2463  -19.7077  -13.4756 C   0  0  2  0  0  0  0  0  0  0  0  0
   20.8601  -19.8433  -13.4888 N   0  0  0  0  0  0  0  0  0  0  0  0
   22.9742  -20.3371  -12.3539 C   0  0  0  0  0  0  0  0  0  0  0  0
   22.3330  -20.4432  -11.2777 O   0  0  0  0  0  0  0  0  0  0  0  0
   24.2922  -20.8065  -12.4176 N   0  0  0  0  0  0  0  0  0  0  0  0
   25.2760  -20.6644  -13.4840 C   0  0  0  0  0  0  0  0  0  0  0  0
   26.3003  -21.7308  -13.2700 C   0  0  0  0  0  0  0  0  0  0  0  0
   25.6813  -22.6263  -12.1951 C   0  0  0  0  0  0  0  0  0  0  0  0
   24.9614  -21.5633  -11.3771 C   0  0  1  0  0  0  0  0  0  0  0  0
   25.9149  -20.7068  -10.6312 C   0  0  0  0  0  0  0  0  0  0  0  0
   26.5388  -19.7730  -11.1881 O   0  0  0  0  0  0  0  0  0  0  0  0
   26.1194  -20.9541   -9.2649 N   0  0  0  0  0  0  0  0  0  0  0  0
   27.0857  -20.2703   -8.4449 C   0  0  1  0  0  0  0  0  0  0  0  0
   26.4630  -20.1512   -7.0647 C   0  0  0  0  0  0  0  0  0  0  0  0
   27.4404  -19.7836   -6.0315 C   0  0  0  0  0  0  0  0  0  0  0  0
   27.6610  -18.4508   -5.7383 C   0  0  0  0  0  0  0  0  0  0  0  0
   28.5703  -18.0804   -4.7701 C   0  0  0  0  0  0  0  0  0  0  0  0
   29.2602  -19.0645   -4.0950 C   0  0  0  0  0  0  0  0  0  0  0  0
   29.0368  -20.4042   -4.3916 C   0  0  0  0  0  0  0  0  0  0  0  0
   28.1300  -20.7602   -5.3564 C   0  0  0  0  0  0  0  0  0  0  0  0
   28.3464  -21.0381   -8.4528 C   0  0  0  0  0  0  0  0  0  0  0  0
   29.6014  -20.4467   -8.4612 O   0  0  0  0  0  0  0  0  0  0  0  0
   28.2941  -22.2900   -8.4527 O   0  0  0  0  0  0  0  0  0  0  0  0
  2  3  1  0
  2  1  1  0
  3  4  1  1
  5  3  1  0
  6  5  2  0
  7  5  1  0
  7 11  1  0
  8  9  1  0
  8  7  1  0
  9 10  1  0
 10 11  1  0
 11 12  1  6
 12 14  1  0
 13 12  2  0
 15 14  1  0
 15 16  1  1
 17 16  1  0
 17 22  1  0
 18 17  2  0
 19 18  1  0
 19 20  2  0
 20 21  1  0
 21 22  2  0
 23 15  1  0
 24 23  1  0
 25 23  2  0
M  END
$$$$
