SPF.pdb
     RDKit          3D

 25 26  0  0  1  0  0  0  0  0999 V2000
   25.1895  -25.1249  -15.8591 O   0  0  0  0  0  0  0  0  0  0  0  0
   25.7689  -24.3223  -14.8658 C   0  0  0  0  0  0  0  0  0  0  0  0
   26.0888  -22.9555  -15.4678 C   0  0  2  0  0  0  0  0  0  0  0  0
   27.1182  -23.0828  -16.3975 N   0  0  0  0  0  0  0  0  0  0  0  0
   26.2896  -21.9882  -14.3686 C   0  0  0  0  0  0  0  0  0  0  0  0
   27.4675  -21.5784  -14.2100 O   0  0  0  0  0  0  0  0  0  0  0  0
   25.2784  -21.5175  -13.5216 N   0  0  0  0  0  0  0  0  0  0  0  0
   23.9098  -21.9927  -13.3590 C   0  0  0  0  0  0  0  0  0  0  0  0
   23.1386  -20.8780  -12.7305 C   0  0  0  0  0  0  0  0  0  0  0  0
   24.0897  -19.6823  -12.8075 C   0  0  0  0  0  0  0  0  0  0  0  0
   25.4113  -20.4079  -12.5972 C   0  0  1  0  0  0  0  0  0  0  0  0
   25.5531  -20.8954  -11.2039 C   0  0  0  0  0  0  0  0  0  0  0  0
   24.9667  -21.9281  -10.8027 O   0  0  0  0  0  0  0  0  0  0  0  0
   26.3676  -20.1760  -10.3157 N   0  0  0  0  0  0  0  0  0  0  0  0
   26.6841  -20.5934   -8.9743 C   0  0  1  0  0  0  0  0  0  0  0  0
   27.7687  -19.6514   -8.4812 C   0  0  0  0  0  0  0  0  0  0  0  0
   28.0479  -19.8092   -7.0477 C   0  0  0  0  0  0  0  0  0  0  0  0
   28.8977  -20.8122   -6.6201 C   0  0  0  0  0  0  0  0  0  0  0  0
   29.1786  -20.9783   -5.2804 C   0  0  0  0  0  0  0  0  0  0  0  0
   28.5962  -20.1245   -4.3683 C   0  0  0  0  0  0  0  0  0  0  0  0
   27.7418  -19.1166   -4.8005 C   0  0  0  0  0  0  0  0  0  0  0  0
   27.4701  -18.9613   -6.1354 C   0  0  0  0  0  0  0  0  0  0  0  0
   25.4549  -20.5476   -8.1582 C   0  0  0  0  0  0  0  0  0  0  0  0
   24.4340  -19.6312   -8.3649 O   0  0  0  0  0  0  0  0  0  0  0  0
   25.3143  -21.3738   -7.2267 O   0  0  0  0  0  0  0  0  0  0  0  0
  2  3  1  0
  2  1  1  0
  3  4  1  1
  5  3  1  0
  6  5  2  0
  7  5  1  0
  7 11  1  0
  8  9  1  0
  8  7  1  0
  9 10  1  0
 10 11  1  0
 11 12  1  1
 12 14  1  0
 13 12  2  0
 15 14  1  0
 15 16  1  1
 17 16  1  0
 17 22  1  0
 18 17  2  0
 19 18  1  0
 19 20  2  0
 20 21  1  0
 21 22  2  0
 23 15  1  0
 24 23  1  0
 25 23  2  0
M  END
$$$$
