SPF.pdb
     RDKit          3D

 25 26  0  0  1  0  0  0  0  0999 V2000
   23.9745  -19.2708  -14.2775 O   0  0  0  0  0  0  0  0  0  0  0  0
   23.8875  -19.6232  -12.9229 C   0  0  0  0  0  0  0  0  0  0  0  0
   24.1484  -21.1224  -12.7910 C   0  0  2  0  0  0  0  0  0  0  0  0
   22.9436  -21.8163  -12.8750 N   0  0  0  0  0  0  0  0  0  0  0  0
   24.9778  -21.3556  -11.5902 C   0  0  0  0  0  0  0  0  0  0  0  0
   24.3817  -21.8576  -10.6037 O   0  0  0  0  0  0  0  0  0  0  0  0
   26.3431  -21.0598  -11.4904 N   0  0  0  0  0  0  0  0  0  0  0  0
   27.2258  -20.4196  -12.4579 C   0  0  0  0  0  0  0  0  0  0  0  0
   28.6227  -20.7864  -12.0752 C   0  0  0  0  0  0  0  0  0  0  0  0
   28.4411  -21.8746  -11.0155 C   0  0  0  0  0  0  0  0  0  0  0  0
   27.1800  -21.3514  -10.3424 C   0  0  1  0  0  0  0  0  0  0  0  0
   27.4474  -20.1217   -9.5578 C   0  0  0  0  0  0  0  0  0  0  0  0
   27.3780  -18.9813  -10.0734 O   0  0  0  0  0  0  0  0  0  0  0  0
   27.7871  -20.2456   -8.2017 N   0  0  0  0  0  0  0  0  0  0  0  0
   27.7578  -19.1666   -7.2485 C   0  0  1  0  0  0  0  0  0  0  0  0
   26.4544  -19.3119   -6.4824 C   0  0  0  0  0  0  0  0  0  0  0  0
   26.4727  -20.4397   -5.5413 C   0  0  0  0  0  0  0  0  0  0  0  0
   25.5546  -21.4640   -5.6792 C   0  0  0  0  0  0  0  0  0  0  0  0
   25.5539  -22.5353   -4.8111 C   0  0  0  0  0  0  0  0  0  0  0  0
   26.4875  -22.5699   -3.7975 C   0  0  0  0  0  0  0  0  0  0  0  0
   27.4097  -21.5387   -3.6605 C   0  0  0  0  0  0  0  0  0  0  0  0
   27.4006  -20.4787   -4.5301 C   0  0  0  0  0  0  0  0  0  0  0  0
   28.9543  -19.2573   -6.3887 C   0  0  0  0  0  0  0  0  0  0  0  0
   29.7717  -20.3769   -6.3323 O   0  0  0  0  0  0  0  0  0  0  0  0
   29.2580  -18.2792   -5.6669 O   0  0  0  0  0  0  0  0  0  0  0  0
  2  3  1  0
  2  1  1  0
  3  4  1  1
  5  3  1  0
  6  5  2  0
  7  5  1  0
  7 11  1  0
  8  9  1  0
  8  7  1  0
  9 10  1  0
 10 11  1  0
 11 12  1  6
 12 14  1  0
 13 12  2  0
 15 14  1  0
 15 16  1  1
 17 16  1  0
 17 22  1  0
 18 17  2  0
 19 18  1  0
 19 20  2  0
 20 21  1  0
 21 22  2  0
 23 15  1  0
 24 23  1  0
 25 23  2  0
M  END
$$$$
