SPF.pdb
     RDKit          3D

 25 26  0  0  1  0  0  0  0  0999 V2000
   28.3662  -16.9084  -14.4891 O   0  0  0  0  0  0  0  0  0  0  0  0
   27.1468  -16.9255  -13.7968 C   0  0  0  0  0  0  0  0  0  0  0  0
   26.1920  -17.8783  -14.5137 C   0  0  2  0  0  0  0  0  0  0  0  0
   25.1218  -17.1594  -15.0409 N   0  0  0  0  0  0  0  0  0  0  0  0
   25.8690  -18.9984  -13.6053 C   0  0  0  0  0  0  0  0  0  0  0  0
   24.7190  -18.9758  -13.0978 O   0  0  0  0  0  0  0  0  0  0  0  0
   26.7398  -20.0482  -13.2875 N   0  0  0  0  0  0  0  0  0  0  0  0
   28.1493  -20.2160  -13.6198 C   0  0  0  0  0  0  0  0  0  0  0  0
   28.4533  -21.6725  -13.4845 C   0  0  0  0  0  0  0  0  0  0  0  0
   27.0780  -22.3231  -13.3250 C   0  0  0  0  0  0  0  0  0  0  0  0
   26.3821  -21.2298  -12.5264 C   0  0  1  0  0  0  0  0  0  0  0  0
   26.9062  -21.1448  -11.1418 C   0  0  0  0  0  0  0  0  0  0  0  0
   28.1356  -21.1686  -10.8984 O   0  0  0  0  0  0  0  0  0  0  0  0
   25.9952  -21.0348  -10.0798 N   0  0  0  0  0  0  0  0  0  0  0  0
   26.3567  -21.0521   -8.6860 C   0  0  1  0  0  0  0  0  0  0  0  0
   27.2191  -19.8233   -8.4557 C   0  0  0  0  0  0  0  0  0  0  0  0
   27.6648  -19.6966   -7.0617 C   0  0  0  0  0  0  0  0  0  0  0  0
   27.5860  -18.4724   -6.4243 C   0  0  0  0  0  0  0  0  0  0  0  0
   27.9944  -18.3287   -5.1151 C   0  0  0  0  0  0  0  0  0  0  0  0
   28.4853  -19.4302   -4.4473 C   0  0  0  0  0  0  0  0  0  0  0  0
   28.5637  -20.6603   -5.0903 C   0  0  0  0  0  0  0  0  0  0  0  0
   28.1545  -20.7908   -6.3924 C   0  0  0  0  0  0  0  0  0  0  0  0
   25.1240  -21.0614   -7.8738 C   0  0  0  0  0  0  0  0  0  0  0  0
   25.0692  -21.5420   -6.5735 O   0  0  0  0  0  0  0  0  0  0  0  0
   24.0651  -20.6153   -8.3735 O   0  0  0  0  0  0  0  0  0  0  0  0
  2  3  1  0
  2  1  1  0
  3  4  1  1
  5  3  1  0
  6  5  2  0
  7  5  1  0
  7 11  1  0
  8  9  1  0
  8  7  1  0
  9 10  1  0
 10 11  1  0
 11 12  1  1
 12 14  1  0
 13 12  2  0
 15 14  1  0
 15 16  1  1
 17 16  1  0
 17 22  1  0
 18 17  2  0
 19 18  1  0
 19 20  2  0
 20 21  1  0
 21 22  2  0
 23 15  1  0
 24 23  1  0
 25 23  2  0
M  END
$$$$
