SPF.pdb
     RDKit          3D

 25 26  0  0  1  0  0  0  0  0999 V2000
   28.2903  -21.6221  -13.9450 O   0  0  0  0  0  0  0  0  0  0  0  0
   28.7047  -20.3627  -14.4016 C   0  0  0  0  0  0  0  0  0  0  0  0
   27.4835  -19.4494  -14.4895 C   0  0  2  0  0  0  0  0  0  0  0  0
   27.8271  -18.2705  -15.1468 N   0  0  0  0  0  0  0  0  0  0  0  0
   26.8891  -19.3212  -13.1425 C   0  0  0  0  0  0  0  0  0  0  0  0
   27.3130  -18.3633  -12.4474 O   0  0  0  0  0  0  0  0  0  0  0  0
   25.9142  -20.1759  -12.6128 N   0  0  0  0  0  0  0  0  0  0  0  0
   25.3552  -21.4018  -13.1694 C   0  0  0  0  0  0  0  0  0  0  0  0
   24.0529  -21.6354  -12.4754 C   0  0  0  0  0  0  0  0  0  0  0  0
   23.8049  -20.3347  -11.7093 C   0  0  0  0  0  0  0  0  0  0  0  0
   25.2414  -19.9905  -11.3415 C   0  0  1  0  0  0  0  0  0  0  0  0
   25.7820  -20.9173  -10.3178 C   0  0  0  0  0  0  0  0  0  0  0  0
   25.9859  -22.1290  -10.5659 O   0  0  0  0  0  0  0  0  0  0  0  0
   26.0709  -20.4174   -9.0386 N   0  0  0  0  0  0  0  0  0  0  0  0
   26.6749  -21.1817   -7.9781 C   0  0  1  0  0  0  0  0  0  0  0  0
   28.0728  -20.6180   -7.7913 C   0  0  0  0  0  0  0  0  0  0  0  0
   28.2667  -20.0096   -6.4684 C   0  0  0  0  0  0  0  0  0  0  0  0
   27.9516  -18.6779   -6.2723 C   0  0  0  0  0  0  0  0  0  0  0  0
   28.1210  -18.0849   -5.0391 C   0  0  0  0  0  0  0  0  0  0  0  0
   28.6122  -18.8439   -3.9984 C   0  0  0  0  0  0  0  0  0  0  0  0
   28.9285  -20.1828   -4.1979 C   0  0  0  0  0  0  0  0  0  0  0  0
   28.7557  -20.7614   -5.4289 C   0  0  0  0  0  0  0  0  0  0  0  0
   25.8334  -21.0695   -6.7705 C   0  0  0  0  0  0  0  0  0  0  0  0
   24.7881  -20.1654   -6.6487 O   0  0  0  0  0  0  0  0  0  0  0  0
   26.0653  -21.8240   -5.7974 O   0  0  0  0  0  0  0  0  0  0  0  0
  2  3  1  0
  2  1  1  0
  3  4  1  1
  5  3  1  0
  6  5  2  0
  7  5  1  0
  7 11  1  0
  8  9  1  0
  8  7  1  0
  9 10  1  0
 10 11  1  0
 11 12  1  1
 12 14  1  0
 13 12  2  0
 15 14  1  0
 15 16  1  1
 17 16  1  0
 17 22  1  0
 18 17  2  0
 19 18  1  0
 19 20  2  0
 20 21  1  0
 21 22  2  0
 23 15  1  0
 24 23  1  0
 25 23  2  0
M  END
$$$$
