SPF.pdb
     RDKit          3D

 25 26  0  0  1  0  0  0  0  0999 V2000
   25.6484  -22.8108  -16.9451 O   0  0  0  0  0  0  0  0  0  0  0  0
   26.2542  -21.7383  -17.6154 C   0  0  0  0  0  0  0  0  0  0  0  0
   27.7353  -21.7044  -17.2433 C   0  0  2  0  0  0  0  0  0  0  0  0
   28.3695  -22.8392  -17.7433 N   0  0  0  0  0  0  0  0  0  0  0  0
   27.8541  -21.4503  -15.7923 C   0  0  0  0  0  0  0  0  0  0  0  0
   28.4202  -22.3525  -15.1244 O   0  0  0  0  0  0  0  0  0  0  0  0
   27.3886  -20.3018  -15.1397 N   0  0  0  0  0  0  0  0  0  0  0  0
   26.5550  -19.2200  -15.6495 C   0  0  0  0  0  0  0  0  0  0  0  0
   26.7638  -18.0513  -14.7425 C   0  0  0  0  0  0  0  0  0  0  0  0
   27.9542  -18.4654  -13.8755 C   0  0  0  0  0  0  0  0  0  0  0  0
   27.6643  -19.9552  -13.7588 C   0  0  1  0  0  0  0  0  0  0  0  0
   26.4826  -20.2181  -12.9023 C   0  0  0  0  0  0  0  0  0  0  0  0
   25.3132  -20.1291  -13.3450 O   0  0  0  0  0  0  0  0  0  0  0  0
   26.6864  -20.5757  -11.5604 N   0  0  0  0  0  0  0  0  0  0  0  0
   25.7292  -21.2790  -10.7463 C   0  0  1  0  0  0  0  0  0  0  0  0
   26.5251  -21.9539   -9.6426 C   0  0  0  0  0  0  0  0  0  0  0  0
   27.0628  -20.9978   -8.6655 C   0  0  0  0  0  0  0  0  0  0  0  0
   28.4252  -20.7718   -8.6043 C   0  0  0  0  0  0  0  0  0  0  0  0
   28.9540  -19.8765   -7.6986 C   0  0  0  0  0  0  0  0  0  0  0  0
   28.0990  -19.2063   -6.8501 C   0  0  0  0  0  0  0  0  0  0  0  0
   26.7293  -19.4352   -6.9134 C   0  0  0  0  0  0  0  0  0  0  0  0
   26.2153  -20.3278   -7.8183 C   0  0  0  0  0  0  0  0  0  0  0  0
   24.7323  -20.3144  -10.2417 C   0  0  0  0  0  0  0  0  0  0  0  0
   24.9085  -18.9390  -10.2870 O   0  0  0  0  0  0  0  0  0  0  0  0
   23.6672  -20.7475   -9.7436 O   0  0  0  0  0  0  0  0  0  0  0  0
  2  3  1  0
  2  1  1  0
  3  4  1  1
  5  3  1  0
  6  5  2  0
  7  5  1  0
  7 11  1  0
  8  9  1  0
  8  7  1  0
  9 10  1  0
 10 11  1  0
 11 12  1  1
 12 14  1  0
 13 12  2  0
 15 14  1  0
 15 16  1  1
 17 16  1  0
 17 22  1  0
 18 17  2  0
 19 18  1  0
 19 20  2  0
 20 21  1  0
 21 22  2  0
 23 15  1  0
 24 23  1  0
 25 23  2  0
M  END
$$$$
