SPF.pdb
     RDKit          3D

 25 26  0  0  1  0  0  0  0  0999 V2000
   23.1981  -21.4915  -14.6333 O   0  0  0  0  0  0  0  0  0  0  0  0
   23.9103  -20.9838  -15.7294 C   0  0  0  0  0  0  0  0  0  0  0  0
   25.2070  -21.7771  -15.8786 C   0  0  2  0  0  0  0  0  0  0  0  0
   24.9330  -23.0192  -16.4463 N   0  0  0  0  0  0  0  0  0  0  0  0
   25.9188  -21.7706  -14.5834 C   0  0  0  0  0  0  0  0  0  0  0  0
   26.0544  -22.8908  -14.0291 O   0  0  0  0  0  0  0  0  0  0  0  0
   26.4335  -20.6278  -13.9584 N   0  0  0  0  0  0  0  0  0  0  0  0
   26.2613  -19.2231  -14.3083 C   0  0  0  0  0  0  0  0  0  0  0  0
   27.3780  -18.4763  -13.6545 C   0  0  0  0  0  0  0  0  0  0  0  0
   28.3161  -19.5773  -13.1565 C   0  0  0  0  0  0  0  0  0  0  0  0
   27.2810  -20.6286  -12.7815 C   0  0  1  0  0  0  0  0  0  0  0  0
   26.5116  -20.2346  -11.5765 C   0  0  0  0  0  0  0  0  0  0  0  0
   25.5017  -19.4958  -11.6501 O   0  0  0  0  0  0  0  0  0  0  0  0
   26.9314  -20.7055  -10.3227 N   0  0  0  0  0  0  0  0  0  0  0  0
   26.0524  -21.2237   -9.3066 C   0  0  1  0  0  0  0  0  0  0  0  0
   26.9470  -21.8396   -8.2449 C   0  0  0  0  0  0  0  0  0  0  0  0
   27.5289  -20.8371   -7.3427 C   0  0  0  0  0  0  0  0  0  0  0  0
   28.8997  -20.6625   -7.3031 C   0  0  0  0  0  0  0  0  0  0  0  0
   29.4699  -19.7254   -6.4676 C   0  0  0  0  0  0  0  0  0  0  0  0
   28.6480  -18.9607   -5.6675 C   0  0  0  0  0  0  0  0  0  0  0  0
   27.2698  -19.1381   -5.7089 C   0  0  0  0  0  0  0  0  0  0  0  0
   26.7145  -20.0731   -6.5439 C   0  0  0  0  0  0  0  0  0  0  0  0
   25.2124  -20.1224   -8.7960 C   0  0  0  0  0  0  0  0  0  0  0  0
   23.9784  -20.3187   -8.1931 O   0  0  0  0  0  0  0  0  0  0  0  0
   25.6239  -18.9442   -8.9072 O   0  0  0  0  0  0  0  0  0  0  0  0
  2  3  1  0
  2  1  1  0
  3  4  1  1
  5  3  1  0
  6  5  2  0
  7  5  1  0
  7 11  1  0
  8  9  1  0
  8  7  1  0
  9 10  1  0
 10 11  1  0
 11 12  1  1
 12 14  1  0
 13 12  2  0
 15 14  1  0
 15 16  1  1
 17 16  1  0
 17 22  1  0
 18 17  2  0
 19 18  1  0
 19 20  2  0
 20 21  1  0
 21 22  2  0
 23 15  1  0
 24 23  1  0
 25 23  2  0
M  END
$$$$
