SPF.pdb
     RDKit          3D

 25 26  0  0  1  0  0  0  0  0999 V2000
   26.6290  -21.0685  -18.8233 O   0  0  0  0  0  0  0  0  0  0  0  0
   27.5820  -22.0949  -18.8925 C   0  0  0  0  0  0  0  0  0  0  0  0
   28.8086  -21.6772  -18.0836 C   0  0  2  0  0  0  0  0  0  0  0  0
   29.8502  -22.5718  -18.3176 N   0  0  0  0  0  0  0  0  0  0  0  0
   28.4017  -21.4696  -16.6781 C   0  0  0  0  0  0  0  0  0  0  0  0
   28.6130  -22.4343  -15.9001 O   0  0  0  0  0  0  0  0  0  0  0  0
   27.8141  -20.3003  -16.1790 N   0  0  0  0  0  0  0  0  0  0  0  0
   27.3473  -19.1194  -16.8949 C   0  0  0  0  0  0  0  0  0  0  0  0
   27.2761  -18.0104  -15.8962 C   0  0  0  0  0  0  0  0  0  0  0  0
   27.9832  -18.5779  -14.6641 C   0  0  0  0  0  0  0  0  0  0  0  0
   27.5456  -20.0313  -14.7795 C   0  0  1  0  0  0  0  0  0  0  0  0
   26.1029  -20.1948  -14.4776 C   0  0  0  0  0  0  0  0  0  0  0  0
   25.2233  -20.0507  -15.3589 O   0  0  0  0  0  0  0  0  0  0  0  0
   25.7191  -20.5197  -13.1672 N   0  0  0  0  0  0  0  0  0  0  0  0
   24.5365  -21.2652  -12.8216 C   0  0  1  0  0  0  0  0  0  0  0  0
   24.9215  -22.1539  -11.6516 C   0  0  0  0  0  0  0  0  0  0  0  0
   25.4964  -21.3981  -10.5308 C   0  0  0  0  0  0  0  0  0  0  0  0
   24.6608  -20.7856   -9.6155 C   0  0  0  0  0  0  0  0  0  0  0  0
   25.1760  -20.0738   -8.5528 C   0  0  0  0  0  0  0  0  0  0  0  0
   26.5446  -19.9815   -8.4157 C   0  0  0  0  0  0  0  0  0  0  0  0
   27.3829  -20.5982   -9.3374 C   0  0  0  0  0  0  0  0  0  0  0  0
   26.8588  -21.3032  -10.3901 C   0  0  0  0  0  0  0  0  0  0  0  0
   23.4513  -20.3167  -12.5027 C   0  0  0  0  0  0  0  0  0  0  0  0
   23.6407  -18.9464  -12.3958 O   0  0  0  0  0  0  0  0  0  0  0  0
   22.2942  -20.7595  -12.3159 O   0  0  0  0  0  0  0  0  0  0  0  0
  2  3  1  0
  2  1  1  0
  3  4  1  1
  5  3  1  0
  6  5  2  0
  7  5  1  0
  7 11  1  0
  8  9  1  0
  8  7  1  0
  9 10  1  0
 10 11  1  0
 11 12  1  6
 12 14  1  0
 13 12  2  0
 15 14  1  0
 15 16  1  1
 17 16  1  0
 17 22  1  0
 18 17  2  0
 19 18  1  0
 19 20  2  0
 20 21  1  0
 21 22  2  0
 23 15  1  0
 24 23  1  0
 25 23  2  0
M  END
$$$$
