SPF.pdb
     RDKit          3D

 25 26  0  0  1  0  0  0  0  0999 V2000
   28.9568  -18.0825  -15.3002 O   0  0  0  0  0  0  0  0  0  0  0  0
   28.1407  -17.8259  -14.1891 C   0  0  0  0  0  0  0  0  0  0  0  0
   26.6908  -18.1178  -14.5708 C   0  0  2  0  0  0  0  0  0  0  0  0
   26.0925  -16.9580  -15.0577 N   0  0  0  0  0  0  0  0  0  0  0  0
   26.0279  -18.7921  -13.4350 C   0  0  0  0  0  0  0  0  0  0  0  0
   25.2408  -18.0802  -12.7611 O   0  0  0  0  0  0  0  0  0  0  0  0
   26.2189  -20.1327  -13.0776 N   0  0  0  0  0  0  0  0  0  0  0  0
   27.1025  -21.1318  -13.6660 C   0  0  0  0  0  0  0  0  0  0  0  0
   26.5743  -22.4683  -13.2571 C   0  0  0  0  0  0  0  0  0  0  0  0
   25.2087  -22.1531  -12.6438 C   0  0  0  0  0  0  0  0  0  0  0  0
   25.5354  -20.8150  -11.9957 C   0  0  1  0  0  0  0  0  0  0  0  0
   26.4306  -20.9774  -10.8246 C   0  0  0  0  0  0  0  0  0  0  0  0
   27.6053  -21.3979  -10.9447 O   0  0  0  0  0  0  0  0  0  0  0  0
   25.9426  -20.6494   -9.5502 N   0  0  0  0  0  0  0  0  0  0  0  0
   26.6425  -20.8986   -8.3166 C   0  0  1  0  0  0  0  0  0  0  0  0
   27.4755  -19.6584   -8.0429 C   0  0  0  0  0  0  0  0  0  0  0  0
   28.1679  -19.7147   -6.7485 C   0  0  0  0  0  0  0  0  0  0  0  0
   27.9116  -18.7517   -5.7904 C   0  0  0  0  0  0  0  0  0  0  0  0
   28.5457  -18.7850   -4.5664 C   0  0  0  0  0  0  0  0  0  0  0  0
   29.4443  -19.7986   -4.3108 C   0  0  0  0  0  0  0  0  0  0  0  0
   29.7007  -20.7658   -5.2759 C   0  0  0  0  0  0  0  0  0  0  0  0
   29.0638  -20.7222   -6.4893 C   0  0  0  0  0  0  0  0  0  0  0  0
   25.6548  -21.1845   -7.2574 C   0  0  0  0  0  0  0  0  0  0  0  0
   24.3226  -20.8044   -7.3320 O   0  0  0  0  0  0  0  0  0  0  0  0
   26.0264  -21.8017   -6.2322 O   0  0  0  0  0  0  0  0  0  0  0  0
  2  3  1  0
  2  1  1  0
  3  4  1  1
  5  3  1  0
  6  5  2  0
  7  5  1  0
  7 11  1  0
  8  9  1  0
  8  7  1  0
  9 10  1  0
 10 11  1  0
 11 12  1  1
 12 14  1  0
 13 12  2  0
 15 14  1  0
 15 16  1  1
 17 16  1  0
 17 22  1  0
 18 17  2  0
 19 18  1  0
 19 20  2  0
 20 21  1  0
 21 22  2  0
 23 15  1  0
 24 23  1  0
 25 23  2  0
M  END
$$$$
