SPF.pdb
     RDKit          3D

 25 26  0  0  1  0  0  0  0  0999 V2000
   27.9829  -16.7061  -13.4786 O   0  0  0  0  0  0  0  0  0  0  0  0
   27.9982  -17.6811  -14.4864 C   0  0  0  0  0  0  0  0  0  0  0  0
   26.5563  -18.0223  -14.8571 C   0  0  2  0  0  0  0  0  0  0  0  0
   25.8859  -16.8642  -15.2437 N   0  0  0  0  0  0  0  0  0  0  0  0
   25.9588  -18.8124  -13.7603 C   0  0  0  0  0  0  0  0  0  0  0  0
   25.0329  -18.2492  -13.1231 O   0  0  0  0  0  0  0  0  0  0  0  0
   26.3507  -20.1082  -13.4014 N   0  0  0  0  0  0  0  0  0  0  0  0
   27.4902  -20.8926  -13.8612 C   0  0  0  0  0  0  0  0  0  0  0  0
   27.1765  -22.3229  -13.5645 C   0  0  0  0  0  0  0  0  0  0  0  0
   25.6991  -22.3017  -13.1680 C   0  0  0  0  0  0  0  0  0  0  0  0
   25.6577  -20.9586  -12.4528 C   0  0  1  0  0  0  0  0  0  0  0  0
   26.3803  -21.0044  -11.1586 C   0  0  0  0  0  0  0  0  0  0  0  0
   27.6296  -20.9225  -11.0965 O   0  0  0  0  0  0  0  0  0  0  0  0
   25.6389  -21.1435   -9.9750 N   0  0  0  0  0  0  0  0  0  0  0  0
   26.2024  -21.1316   -8.6499 C   0  0  1  0  0  0  0  0  0  0  0  0
   26.9695  -19.8266   -8.5263 C   0  0  0  0  0  0  0  0  0  0  0  0
   27.6145  -19.6699   -7.2158 C   0  0  0  0  0  0  0  0  0  0  0  0
   28.6057  -20.5524   -6.8285 C   0  0  0  0  0  0  0  0  0  0  0  0
   29.2288  -20.4241   -5.6052 C   0  0  0  0  0  0  0  0  0  0  0  0
   28.8466  -19.3969   -4.7691 C   0  0  0  0  0  0  0  0  0  0  0  0
   27.8495  -18.5108   -5.1605 C   0  0  0  0  0  0  0  0  0  0  0  0
   27.2372  -18.6485   -6.3795 C   0  0  0  0  0  0  0  0  0  0  0  0
   25.1098  -21.2626   -7.6659 C   0  0  0  0  0  0  0  0  0  0  0  0
   25.2441  -21.9344   -6.4595 O   0  0  0  0  0  0  0  0  0  0  0  0
   23.9978  -20.7449   -7.9220 O   0  0  0  0  0  0  0  0  0  0  0  0
  2  3  1  0
  2  1  1  0
  3  4  1  1
  5  3  1  0
  6  5  2  0
  7  5  1  0
  7 11  1  0
  8  9  1  0
  8  7  1  0
  9 10  1  0
 10 11  1  0
 11 12  1  1
 12 14  1  0
 13 12  2  0
 15 14  1  0
 15 16  1  1
 17 16  1  0
 17 22  1  0
 18 17  2  0
 19 18  1  0
 19 20  2  0
 20 21  1  0
 21 22  2  0
 23 15  1  0
 24 23  1  0
 25 23  2  0
M  END
$$$$
