SPF.pdb
     RDKit          3D

 25 26  0  0  1  0  0  0  0  0999 V2000
   25.3241  -17.9615  -14.1622 O   0  0  0  0  0  0  0  0  0  0  0  0
   26.5430  -17.5492  -14.7197 C   0  0  0  0  0  0  0  0  0  0  0  0
   27.1304  -18.7095  -15.5210 C   0  0  2  0  0  0  0  0  0  0  0  0
   26.6031  -18.7023  -16.8101 N   0  0  0  0  0  0  0  0  0  0  0  0
   26.9768  -19.9530  -14.7371 C   0  0  0  0  0  0  0  0  0  0  0  0
   26.1629  -20.7925  -15.1988 O   0  0  0  0  0  0  0  0  0  0  0  0
   27.6619  -20.2409  -13.5501 N   0  0  0  0  0  0  0  0  0  0  0  0
   28.3989  -19.3471  -12.6652 C   0  0  0  0  0  0  0  0  0  0  0  0
   29.3174  -20.2033  -11.8556 C   0  0  0  0  0  0  0  0  0  0  0  0
   29.2371  -21.5728  -12.5324 C   0  0  0  0  0  0  0  0  0  0  0  0
   27.7723  -21.5549  -12.9462 C   0  0  1  0  0  0  0  0  0  0  0  0
   26.8706  -21.6752  -11.7750 C   0  0  0  0  0  0  0  0  0  0  0  0
   26.8269  -22.7172  -11.0796 O   0  0  0  0  0  0  0  0  0  0  0  0
   26.0465  -20.5891  -11.4420 N   0  0  0  0  0  0  0  0  0  0  0  0
   24.9847  -20.6348  -10.4702 C   0  0  1  0  0  0  0  0  0  0  0  0
   25.1787  -19.4254   -9.5721 C   0  0  0  0  0  0  0  0  0  0  0  0
   26.0656  -19.7008   -8.4339 C   0  0  0  0  0  0  0  0  0  0  0  0
   26.9175  -18.7145   -7.9730 C   0  0  0  0  0  0  0  0  0  0  0  0
   27.7568  -18.9472   -6.9040 C   0  0  0  0  0  0  0  0  0  0  0  0
   27.7337  -20.1852   -6.2981 C   0  0  0  0  0  0  0  0  0  0  0  0
   26.8763  -21.1756   -6.7633 C   0  0  0  0  0  0  0  0  0  0  0  0
   26.0463  -20.9323   -7.8272 C   0  0  0  0  0  0  0  0  0  0  0  0
   23.6897  -20.6348  -11.1787 C   0  0  0  0  0  0  0  0  0  0  0  0
   23.5693  -20.4710  -12.5511 O   0  0  0  0  0  0  0  0  0  0  0  0
   22.6366  -20.7894  -10.5175 O   0  0  0  0  0  0  0  0  0  0  0  0
  2  3  1  0
  2  1  1  0
  3  4  1  6
  5  3  1  0
  6  5  2  0
  7  5  1  0
  7 11  1  0
  8  9  1  0
  8  7  1  0
  9 10  1  0
 10 11  1  0
 11 12  1  1
 12 14  1  0
 13 12  2  0
 15 14  1  0
 15 16  1  1
 17 16  1  0
 17 22  1  0
 18 17  2  0
 19 18  1  0
 19 20  2  0
 20 21  1  0
 21 22  2  0
 23 15  1  0
 24 23  1  0
 25 23  2  0
M  END
$$$$
