SPF.pdb
     RDKit          3D

 25 26  0  0  1  0  0  0  0  0999 V2000
   25.3970  -20.7632  -18.5309 O   0  0  0  0  0  0  0  0  0  0  0  0
   25.8887  -21.9718  -18.0171 C   0  0  0  0  0  0  0  0  0  0  0  0
   27.3717  -21.7978  -17.6952 C   0  0  2  0  0  0  0  0  0  0  0  0
   28.1061  -22.8080  -18.3118 N   0  0  0  0  0  0  0  0  0  0  0  0
   27.5254  -21.6498  -16.2328 C   0  0  0  0  0  0  0  0  0  0  0  0
   27.8998  -22.6793  -15.6160 O   0  0  0  0  0  0  0  0  0  0  0  0
   27.2863  -20.4694  -15.5179 N   0  0  0  0  0  0  0  0  0  0  0  0
   26.7041  -19.2126  -15.9724 C   0  0  0  0  0  0  0  0  0  0  0  0
   27.1223  -18.1649  -14.9927 C   0  0  0  0  0  0  0  0  0  0  0  0
   28.1801  -18.8628  -14.1358 C   0  0  0  0  0  0  0  0  0  0  0  0
   27.5901  -20.2658  -14.1145 C   0  0  1  0  0  0  0  0  0  0  0  0
   26.3573  -20.3294  -13.2927 C   0  0  0  0  0  0  0  0  0  0  0  0
   25.2476  -19.9513  -13.7364 O   0  0  0  0  0  0  0  0  0  0  0  0
   26.4427  -20.8276  -11.9834 N   0  0  0  0  0  0  0  0  0  0  0  0
   25.3279  -21.3352  -11.2262 C   0  0  1  0  0  0  0  0  0  0  0  0
   25.9210  -22.0516  -10.0255 C   0  0  0  0  0  0  0  0  0  0  0  0
   26.6220  -21.1405   -9.1110 C   0  0  0  0  0  0  0  0  0  0  0  0
   28.0033  -21.1513   -9.0564 C   0  0  0  0  0  0  0  0  0  0  0  0
   28.6845  -20.3031   -8.2091 C   0  0  0  0  0  0  0  0  0  0  0  0
   27.9637  -19.4393   -7.4126 C   0  0  0  0  0  0  0  0  0  0  0  0
   26.5747  -19.4303   -7.4690 C   0  0  0  0  0  0  0  0  0  0  0  0
   25.9084  -20.2784   -8.3156 C   0  0  0  0  0  0  0  0  0  0  0  0
   24.4486  -20.2079  -10.8585 C   0  0  0  0  0  0  0  0  0  0  0  0
   23.1219  -20.3641  -10.4838 O   0  0  0  0  0  0  0  0  0  0  0  0
   24.9125  -19.0441  -10.8823 O   0  0  0  0  0  0  0  0  0  0  0  0
  2  3  1  0
  2  1  1  0
  3  4  1  1
  5  3  1  0
  6  5  2  0
  7  5  1  0
  7 11  1  0
  8  9  1  0
  8  7  1  0
  9 10  1  0
 10 11  1  0
 11 12  1  1
 12 14  1  0
 13 12  2  0
 15 14  1  0
 15 16  1  1
 17 16  1  0
 17 22  1  0
 18 17  2  0
 19 18  1  0
 19 20  2  0
 20 21  1  0
 21 22  2  0
 23 15  1  0
 24 23  1  0
 25 23  2  0
M  END
$$$$
