TIW.pdb
     RDKit          3D

 30 31  0  0  1  0  0  0  0  0999 V2000
   10.1415  -19.4389   20.1565 C   0  0  0  0  0  0  0  0  0  0  0  0
   11.3912  -18.9319   19.4671 C   0  0  1  0  0  0  0  0  0  0  0  0
   11.7071  -19.8287   18.4473 O   0  0  0  0  0  0  0  0  0  0  0  0
   11.0643  -17.5597   18.9186 C   0  0  2  0  0  0  0  0  0  0  0  0
   12.1439  -17.1446   18.0875 N   0  0  0  0  0  0  0  0  0  0  0  0
   10.8109  -16.5747   20.0146 C   0  0  0  0  0  0  0  0  0  0  0  0
   11.8122  -16.0585   20.5898 O   0  0  0  0  0  0  0  0  0  0  0  0
    6.8213  -12.9622   19.5108 C   0  0  0  0  0  0  0  0  0  0  0  0
    8.0570  -13.7054   19.9854 C   0  0  0  0  0  0  0  0  0  0  0  0
    7.7254  -14.7108   21.0980 C   0  0  2  0  0  0  0  0  0  0  0  0
    7.1659  -13.9822   22.2949 C   0  0  0  0  0  0  0  0  0  0  0  0
    9.0178  -15.4209   21.4368 C   0  0  2  0  0  0  0  0  0  0  0  0
    9.4904  -16.2663   20.3570 N   0  0  0  0  0  0  0  0  0  0  0  0
    9.0465  -16.1829   22.6718 C   0  0  0  0  0  0  0  0  0  0  0  0
    8.6542  -17.4165   22.6393 O   0  0  0  0  0  0  0  0  0  0  0  0
    9.4579  -15.7700   23.9622 N   0  0  0  0  0  0  0  0  0  0  0  0
    9.4874  -16.6611   25.1040 C   0  0  1  0  0  0  0  0  0  0  0  0
    9.2432  -15.8630   26.3581 C   0  0  0  0  0  0  0  0  0  0  0  0
    8.0286  -15.0661   26.2932 C   0  0  0  0  0  0  0  0  0  0  0  0
    6.7877  -15.6047   25.9684 C   0  0  0  0  0  0  0  0  0  0  0  0
    5.9141  -14.6032   25.9739 N   0  0  0  0  0  0  0  0  0  0  0  0
    6.5266  -13.4437   26.2864 C   0  0  0  0  0  0  0  0  0  0  0  0
    6.0117  -12.1647   26.4176 C   0  0  0  0  0  0  0  0  0  0  0  0
    6.8168  -11.1161   26.7600 C   0  0  0  0  0  0  0  0  0  0  0  0
    8.1570  -11.3965   26.9662 C   0  0  0  0  0  0  0  0  0  0  0  0
    8.6754  -12.6637   26.8373 C   0  0  0  0  0  0  0  0  0  0  0  0
    7.8593  -13.7204   26.4905 C   0  0  0  0  0  0  0  0  0  0  0  0
    8.5430  -17.7903   24.9895 C   0  0  0  0  0  0  0  0  0  0  0  0
    7.4990  -17.8571   24.0944 O   0  0  0  0  0  0  0  0  0  0  0  0
    8.7173  -18.7558   25.7743 O   0  0  0  0  0  0  0  0  0  0  0  0
  2  1  1  6
  3  2  1  0
  4  2  1  0
  4  5  1  1
  6  7  2  0
  6  4  1  0
  9  8  1  0
 10  9  1  0
 10 12  1  0
 10 11  1  1
 12 13  1  6
 13  6  1  0
 14 12  1  0
 14 16  1  0
 15 14  2  0
 17 16  1  0
 17 28  1  0
 17 18  1  1
 18 19  1  0
 19 20  2  0
 19 27  1  0
 20 21  1  0
 21 22  1  0
 22 23  2  0
 23 24  1  0
 25 24  2  0
 26 25  1  0
 27 26  2  0
 27 22  1  0
 28 29  1  0
 30 28  2  0
M  END
$$$$
