TIW.pdb
     RDKit          3D

 30 31  0  0  1  0  0  0  0  0999 V2000
    8.1761  -19.7016   22.9270 C   0  0  0  0  0  0  0  0  0  0  0  0
    8.4029  -20.3002   21.5542 C   0  0  1  0  0  0  0  0  0  0  0  0
    7.7459  -21.5293   21.5132 O   0  0  0  0  0  0  0  0  0  0  0  0
    7.8240  -19.3272   20.5498 C   0  0  2  0  0  0  0  0  0  0  0  0
    7.8295  -19.9535   19.2706 N   0  0  0  0  0  0  0  0  0  0  0  0
    8.5844  -18.0399   20.5291 C   0  0  0  0  0  0  0  0  0  0  0  0
    9.7204  -18.0322   19.9729 O   0  0  0  0  0  0  0  0  0  0  0  0
    7.4709  -11.9637   20.7611 C   0  0  0  0  0  0  0  0  0  0  0  0
    8.3599  -13.1557   21.0671 C   0  0  0  0  0  0  0  0  0  0  0  0
    7.5952  -14.4824   20.9496 C   0  0  2  0  0  0  0  0  0  0  0  0
    6.4426  -14.4956   21.9231 C   0  0  0  0  0  0  0  0  0  0  0  0
    8.5893  -15.5816   21.2542 C   0  0  2  0  0  0  0  0  0  0  0  0
    8.0154  -16.9069   21.1195 N   0  0  0  0  0  0  0  0  0  0  0  0
    9.2890  -15.5037   22.5235 C   0  0  0  0  0  0  0  0  0  0  0  0
   10.0970  -14.5106   22.7173 O   0  0  0  0  0  0  0  0  0  0  0  0
    9.2198  -16.3814   23.6324 N   0  0  0  0  0  0  0  0  0  0  0  0
    9.9725  -16.1726   24.8524 C   0  0  1  0  0  0  0  0  0  0  0  0
    9.0423  -16.2908   26.0314 C   0  0  0  0  0  0  0  0  0  0  0  0
    7.9148  -15.3755   25.9555 C   0  0  0  0  0  0  0  0  0  0  0  0
    6.6316  -15.7842   25.6069 C   0  0  0  0  0  0  0  0  0  0  0  0
    5.8628  -14.7001   25.6085 N   0  0  0  0  0  0  0  0  0  0  0  0
    6.5835  -13.6104   25.9412 C   0  0  0  0  0  0  0  0  0  0  0  0
    6.1974  -12.2872   26.0766 C   0  0  0  0  0  0  0  0  0  0  0  0
    7.0980  -11.3275   26.4410 C   0  0  0  0  0  0  0  0  0  0  0  0
    8.3999  -11.7427   26.6649 C   0  0  0  0  0  0  0  0  0  0  0  0
    8.7906  -13.0545   26.5320 C   0  0  0  0  0  0  0  0  0  0  0  0
    7.8782  -14.0212   26.1629 C   0  0  0  0  0  0  0  0  0  0  0  0
   11.1324  -17.0764   24.9863 C   0  0  0  0  0  0  0  0  0  0  0  0
   12.1010  -16.9767   25.9597 O   0  0  0  0  0  0  0  0  0  0  0  0
   11.2298  -18.0012   24.1417 O   0  0  0  0  0  0  0  0  0  0  0  0
  2  1  1  1
  3  2  1  0
  4  2  1  0
  4  5  1  6
  6  7  2  0
  6  4  1  0
  9  8  1  0
 10  9  1  0
 10 12  1  0
 10 11  1  1
 12 13  1  1
 13  6  1  0
 14 12  1  0
 14 16  1  0
 15 14  2  0
 17 16  1  0
 17 28  1  0
 17 18  1  1
 18 19  1  0
 19 20  2  0
 19 27  1  0
 20 21  1  0
 21 22  1  0
 22 23  2  0
 23 24  1  0
 25 24  2  0
 26 25  1  0
 27 26  2  0
 27 22  1  0
 28 29  1  0
 30 28  2  0
M  END
$$$$
