TIW.pdb
     RDKit          3D

 30 31  0  0  1  0  0  0  0  0999 V2000
   11.2537  -18.5180   17.7930 C   0  0  0  0  0  0  0  0  0  0  0  0
    9.7545  -18.4551   17.9996 C   0  0  1  0  0  0  0  0  0  0  0  0
    9.1898  -19.5508   17.3481 O   0  0  0  0  0  0  0  0  0  0  0  0
    9.5141  -18.5123   19.4928 C   0  0  2  0  0  0  0  0  0  0  0  0
    8.1131  -18.6436   19.7126 N   0  0  0  0  0  0  0  0  0  0  0  0
   10.0632  -17.3063   20.1854 C   0  0  0  0  0  0  0  0  0  0  0  0
   11.3054  -17.0856   20.0943 O   0  0  0  0  0  0  0  0  0  0  0  0
    6.9514  -13.0147   19.8385 C   0  0  0  0  0  0  0  0  0  0  0  0
    8.2004  -13.8472   20.0659 C   0  0  0  0  0  0  0  0  0  0  0  0
    8.3588  -14.2467   21.5403 C   0  0  2  0  0  0  0  0  0  0  0  0
    8.6559  -13.0233   22.3719 C   0  0  0  0  0  0  0  0  0  0  0  0
    9.4953  -15.2438   21.5973 C   0  0  2  0  0  0  0  0  0  0  0  0
    9.1908  -16.4785   20.8993 N   0  0  0  0  0  0  0  0  0  0  0  0
   10.0215  -15.5687   22.9104 C   0  0  0  0  0  0  0  0  0  0  0  0
   11.0494  -14.9079   23.3388 O   0  0  0  0  0  0  0  0  0  0  0  0
    9.5633  -16.5356   23.8378 N   0  0  0  0  0  0  0  0  0  0  0  0
   10.0537  -16.6188   25.1983 C   0  0  1  0  0  0  0  0  0  0  0  0
    9.7546  -15.3251   25.9098 C   0  0  0  0  0  0  0  0  0  0  0  0
    8.3528  -14.9467   25.8287 C   0  0  0  0  0  0  0  0  0  0  0  0
    7.3584  -15.8185   25.3967 C   0  0  0  0  0  0  0  0  0  0  0  0
    6.2126  -15.1455   25.4194 N   0  0  0  0  0  0  0  0  0  0  0  0
    6.4150  -13.8823   25.8448 C   0  0  0  0  0  0  0  0  0  0  0  0
    5.5170  -12.8447   26.0323 C   0  0  0  0  0  0  0  0  0  0  0  0
    5.9360  -11.6287   26.4912 C   0  0  0  0  0  0  0  0  0  0  0  0
    7.2883  -11.4908   26.7553 C   0  0  0  0  0  0  0  0  0  0  0  0
    8.1858  -12.5163   26.5711 C   0  0  0  0  0  0  0  0  0  0  0  0
    7.7590  -13.7431   26.1067 C   0  0  0  0  0  0  0  0  0  0  0  0
    9.5237  -17.7794   25.9415 C   0  0  0  0  0  0  0  0  0  0  0  0
    9.8313  -18.0860   27.2481 O   0  0  0  0  0  0  0  0  0  0  0  0
    8.7339  -18.5352   25.3225 O   0  0  0  0  0  0  0  0  0  0  0  0
  2  1  1  1
  3  2  1  0
  4  2  1  0
  4  5  1  6
  6  7  2  0
  6  4  1  0
  9  8  1  0
 10  9  1  0
 10 12  1  0
 10 11  1  1
 12 13  1  1
 13  6  1  0
 14 12  1  0
 14 16  1  0
 15 14  2  0
 17 16  1  0
 17 28  1  0
 17 18  1  1
 18 19  1  0
 19 20  2  0
 19 27  1  0
 20 21  1  0
 21 22  1  0
 22 23  2  0
 23 24  1  0
 25 24  2  0
 26 25  1  0
 27 26  2  0
 27 22  1  0
 28 29  1  0
 30 28  2  0
M  END
$$$$
