TIW.pdb
     RDKit          3D

 30 31  0  0  1  0  0  0  0  0999 V2000
    8.8058  -12.9450   19.4149 C   0  0  0  0  0  0  0  0  0  0  0  0
    7.9181  -13.7674   18.5040 C   0  0  1  0  0  0  0  0  0  0  0  0
    7.4499  -12.9266   17.4951 O   0  0  0  0  0  0  0  0  0  0  0  0
    8.7754  -14.8822   17.9448 C   0  0  2  0  0  0  0  0  0  0  0  0
    8.0623  -15.4979   16.8767 N   0  0  0  0  0  0  0  0  0  0  0  0
    9.1420  -15.8768   18.9994 C   0  0  0  0  0  0  0  0  0  0  0  0
    8.2450  -16.6743   19.3984 O   0  0  0  0  0  0  0  0  0  0  0  0
   14.2505  -17.7691   18.9362 C   0  0  0  0  0  0  0  0  0  0  0  0
   12.7629  -17.6293   19.2051 C   0  0  0  0  0  0  0  0  0  0  0  0
   12.4882  -16.8472   20.4979 C   0  0  2  0  0  0  0  0  0  0  0  0
   13.0288  -17.6108   21.6816 C   0  0  0  0  0  0  0  0  0  0  0  0
   10.9875  -16.6765   20.5881 C   0  0  2  0  0  0  0  0  0  0  0  0
   10.4488  -15.8857   19.4978 N   0  0  0  0  0  0  0  0  0  0  0  0
   10.4564  -16.1677   21.8394 C   0  0  0  0  0  0  0  0  0  0  0  0
   10.7227  -14.9429   22.1645 O   0  0  0  0  0  0  0  0  0  0  0  0
    9.6546  -16.8303   22.8000 N   0  0  0  0  0  0  0  0  0  0  0  0
    9.1919  -16.1936   24.0162 C   0  0  1  0  0  0  0  0  0  0  0  0
    7.9506  -15.3958   23.7130 C   0  0  0  0  0  0  0  0  0  0  0  0
    7.3247  -14.8491   24.9063 C   0  0  0  0  0  0  0  0  0  0  0  0
    6.4213  -15.5676   25.6828 C   0  0  0  0  0  0  0  0  0  0  0  0
    6.0289  -14.7658   26.6674 N   0  0  0  0  0  0  0  0  0  0  0  0
    6.6332  -13.5648   26.5678 C   0  0  0  0  0  0  0  0  0  0  0  0
    6.5332  -12.4415   27.3718 C   0  0  0  0  0  0  0  0  0  0  0  0
    7.2542  -11.3150   27.0959 C   0  0  0  0  0  0  0  0  0  0  0  0
    8.0792  -11.3557   25.9846 C   0  0  0  0  0  0  0  0  0  0  0  0
    8.1832  -12.4672   25.1815 C   0  0  0  0  0  0  0  0  0  0  0  0
    7.4528  -13.6031   25.4628 C   0  0  0  0  0  0  0  0  0  0  0  0
    8.9670  -17.1428   25.1246 C   0  0  0  0  0  0  0  0  0  0  0  0
    9.1185  -16.8450   26.4603 O   0  0  0  0  0  0  0  0  0  0  0  0
    8.6108  -18.3058   24.8104 O   0  0  0  0  0  0  0  0  0  0  0  0
  2  1  1  1
  3  2  1  0
  4  2  1  0
  4  5  1  6
  6  7  2  0
  6  4  1  0
  9  8  1  0
 10  9  1  0
 10 12  1  0
 10 11  1  1
 12 13  1  6
 13  6  1  0
 14 12  1  0
 14 16  1  0
 15 14  2  0
 17 16  1  0
 17 28  1  0
 17 18  1  6
 18 19  1  0
 19 20  2  0
 19 27  1  0
 20 21  1  0
 21 22  1  0
 22 23  2  0
 23 24  1  0
 25 24  2  0
 26 25  1  0
 27 26  2  0
 27 22  1  0
 28 29  1  0
 30 28  2  0
M  END
$$$$
