TIW.pdb
     RDKit          3D

 30 31  0  0  1  0  0  0  0  0999 V2000
    7.7581  -20.2474   18.0060 C   0  0  0  0  0  0  0  0  0  0  0  0
    8.3417  -19.3496   19.0773 C   0  0  1  0  0  0  0  0  0  0  0  0
    9.5284  -19.9326   19.5198 O   0  0  0  0  0  0  0  0  0  0  0  0
    8.5908  -18.0026   18.4336 C   0  0  2  0  0  0  0  0  0  0  0  0
    9.5043  -18.1870   17.3567 N   0  0  0  0  0  0  0  0  0  0  0  0
    9.1082  -17.0073   19.4223 C   0  0  0  0  0  0  0  0  0  0  0  0
   10.3572  -16.8132   19.4686 O   0  0  0  0  0  0  0  0  0  0  0  0
    7.0018  -12.3393   19.5997 C   0  0  0  0  0  0  0  0  0  0  0  0
    7.9673  -13.4678   19.9143 C   0  0  0  0  0  0  0  0  0  0  0  0
    7.6270  -14.1550   21.2449 C   0  0  2  0  0  0  0  0  0  0  0  0
    7.9153  -13.2183   22.3921 C   0  0  0  0  0  0  0  0  0  0  0  0
    8.4835  -15.4001   21.3186 C   0  0  2  0  0  0  0  0  0  0  0  0
    8.2000  -16.3373   20.2484 N   0  0  0  0  0  0  0  0  0  0  0  0
    8.4914  -16.1205   22.5787 C   0  0  0  0  0  0  0  0  0  0  0  0
    7.3714  -16.2542   23.2146 O   0  0  0  0  0  0  0  0  0  0  0  0
    9.5805  -16.7294   23.2481 N   0  0  0  0  0  0  0  0  0  0  0  0
    9.8264  -16.5656   24.6663 C   0  0  1  0  0  0  0  0  0  0  0  0
    9.7135  -15.1057   25.0204 C   0  0  0  0  0  0  0  0  0  0  0  0
    8.3850  -14.7378   25.4835 C   0  0  0  0  0  0  0  0  0  0  0  0
    7.3158  -15.6277   25.4966 C   0  0  0  0  0  0  0  0  0  0  0  0
    6.2585  -14.9607   25.9476 N   0  0  0  0  0  0  0  0  0  0  0  0
    6.5894  -13.6841   26.2277 C   0  0  0  0  0  0  0  0  0  0  0  0
    5.8184  -12.6464   26.7244 C   0  0  0  0  0  0  0  0  0  0  0  0
    6.3626  -11.4147   26.9519 C   0  0  0  0  0  0  0  0  0  0  0  0
    7.7082  -11.2614   26.6634 C   0  0  0  0  0  0  0  0  0  0  0  0
    8.4799  -12.2870   26.1696 C   0  0  0  0  0  0  0  0  0  0  0  0
    7.9265  -13.5296   25.9403 C   0  0  0  0  0  0  0  0  0  0  0  0
    8.9470  -17.3966   25.5126 C   0  0  0  0  0  0  0  0  0  0  0  0
    7.9112  -18.1751   25.0470 O   0  0  0  0  0  0  0  0  0  0  0  0
    9.1726  -17.3826   26.7483 O   0  0  0  0  0  0  0  0  0  0  0  0
  2  1  1  6
  3  2  1  0
  4  2  1  0
  4  5  1  6
  6  7  2  0
  6  4  1  0
  9  8  1  0
 10  9  1  0
 10 12  1  0
 10 11  1  1
 12 13  1  6
 13  6  1  0
 14 12  1  0
 14 16  1  0
 15 14  2  0
 17 16  1  0
 17 28  1  0
 17 18  1  1
 18 19  1  0
 19 20  2  0
 19 27  1  0
 20 21  1  0
 21 22  1  0
 22 23  2  0
 23 24  1  0
 25 24  2  0
 26 25  1  0
 27 26  2  0
 27 22  1  0
 28 29  1  0
 30 28  2  0
M  END
$$$$
