TIW.pdb
     RDKit          3D

 30 31  0  0  1  0  0  0  0  0999 V2000
   10.2461  -14.0928   16.8219 C   0  0  0  0  0  0  0  0  0  0  0  0
    9.8536  -14.3799   18.2563 C   0  0  1  0  0  0  0  0  0  0  0  0
   10.4373  -13.4016   19.0602 O   0  0  0  0  0  0  0  0  0  0  0  0
    8.3425  -14.3210   18.3184 C   0  0  2  0  0  0  0  0  0  0  0  0
    7.9320  -13.0166   17.9205 N   0  0  0  0  0  0  0  0  0  0  0  0
    7.8340  -14.6592   19.6832 C   0  0  0  0  0  0  0  0  0  0  0  0
    7.1885  -13.7712   20.3113 O   0  0  0  0  0  0  0  0  0  0  0  0
    5.6967  -19.6952   22.4355 C   0  0  0  0  0  0  0  0  0  0  0  0
    6.3623  -18.3346   22.5374 C   0  0  0  0  0  0  0  0  0  0  0  0
    6.8845  -17.8520   21.1762 C   0  0  2  0  0  0  0  0  0  0  0  0
    7.8453  -18.8673   20.6084 C   0  0  0  0  0  0  0  0  0  0  0  0
    7.5652  -16.5232   21.4219 C   0  0  2  0  0  0  0  0  0  0  0  0
    8.0898  -15.9310   20.2061 N   0  0  0  0  0  0  0  0  0  0  0  0
    8.5995  -16.4911   22.4396 C   0  0  0  0  0  0  0  0  0  0  0  0
    9.7857  -16.9003   22.1200 O   0  0  0  0  0  0  0  0  0  0  0  0
    8.5101  -16.0599   23.7853 N   0  0  0  0  0  0  0  0  0  0  0  0
    9.6412  -16.0580   24.6903 C   0  0  1  0  0  0  0  0  0  0  0  0
    9.5502  -14.8531   25.5899 C   0  0  0  0  0  0  0  0  0  0  0  0
    8.1785  -14.4687   25.8824 C   0  0  0  0  0  0  0  0  0  0  0  0
    7.1415  -15.3899   25.9878 C   0  0  0  0  0  0  0  0  0  0  0  0
    6.0311  -14.7013   26.2312 N   0  0  0  0  0  0  0  0  0  0  0  0
    6.2972  -13.3810   26.2893 C   0  0  0  0  0  0  0  0  0  0  0  0
    5.4563  -12.3066   26.5277 C   0  0  0  0  0  0  0  0  0  0  0  0
    5.9404  -11.0300   26.5574 C   0  0  0  0  0  0  0  0  0  0  0  0
    7.2984  -10.8698   26.3394 C   0  0  0  0  0  0  0  0  0  0  0  0
    8.1393  -11.9316   26.1016 C   0  0  0  0  0  0  0  0  0  0  0  0
    7.6466  -13.2197   26.0716 C   0  0  0  0  0  0  0  0  0  0  0  0
    9.7695  -17.3057   25.4694 C   0  0  0  0  0  0  0  0  0  0  0  0
    8.8308  -18.3124   25.5057 O   0  0  0  0  0  0  0  0  0  0  0  0
   10.8192  -17.4457   26.1451 O   0  0  0  0  0  0  0  0  0  0  0  0
  2  1  1  6
  3  2  1  0
  4  2  1  0
  4  5  1  1
  6  7  2  0
  6  4  1  0
  9  8  1  0
 10  9  1  0
 10 12  1  0
 10 11  1  1
 12 13  1  6
 13  6  1  0
 14 12  1  0
 14 16  1  0
 15 14  2  0
 17 16  1  0
 17 28  1  0
 17 18  1  1
 18 19  1  0
 19 20  2  0
 19 27  1  0
 20 21  1  0
 21 22  1  0
 22 23  2  0
 23 24  1  0
 25 24  2  0
 26 25  1  0
 27 26  2  0
 27 22  1  0
 28 29  1  0
 30 28  2  0
M  END
$$$$
