TIW.pdb
     RDKit          3D

 30 31  0  0  1  0  0  0  0  0999 V2000
    7.7165  -12.3108   17.9332 C   0  0  0  0  0  0  0  0  0  0  0  0
    7.7080  -13.7396   18.4356 C   0  0  1  0  0  0  0  0  0  0  0  0
    8.1989  -14.5518   17.4141 O   0  0  0  0  0  0  0  0  0  0  0  0
    8.6018  -13.7813   19.6563 C   0  0  2  0  0  0  0  0  0  0  0  0
    9.9241  -13.4418   19.2506 N   0  0  0  0  0  0  0  0  0  0  0  0
    8.5631  -15.1199   20.3215 C   0  0  0  0  0  0  0  0  0  0  0  0
    7.4448  -15.5445   20.7326 O   0  0  0  0  0  0  0  0  0  0  0  0
   10.6856  -19.2029   17.9904 C   0  0  0  0  0  0  0  0  0  0  0  0
    9.9647  -18.2777   18.9542 C   0  0  0  0  0  0  0  0  0  0  0  0
   10.7520  -18.0879   20.2591 C   0  0  2  0  0  0  0  0  0  0  0  0
   10.9260  -19.4185   20.9488 C   0  0  0  0  0  0  0  0  0  0  0  0
    9.9525  -17.1246   21.1089 C   0  0  2  0  0  0  0  0  0  0  0  0
    9.7527  -15.8420   20.4615 N   0  0  0  0  0  0  0  0  0  0  0  0
   10.4220  -16.8948   22.4630 C   0  0  0  0  0  0  0  0  0  0  0  0
   11.3865  -16.0495   22.6413 O   0  0  0  0  0  0  0  0  0  0  0  0
    9.9672  -17.4741   23.6722 N   0  0  0  0  0  0  0  0  0  0  0  0
    9.8702  -16.7346   24.9141 C   0  0  1  0  0  0  0  0  0  0  0  0
    9.1285  -15.4475   24.6643 C   0  0  0  0  0  0  0  0  0  0  0  0
    8.9002  -14.6819   25.8794 C   0  0  0  0  0  0  0  0  0  0  0  0
    9.6675  -14.8417   27.0288 C   0  0  0  0  0  0  0  0  0  0  0  0
    9.1737  -14.0158   27.9455 N   0  0  0  0  0  0  0  0  0  0  0  0
    8.1260  -13.3291   27.4474 C   0  0  0  0  0  0  0  0  0  0  0  0
    7.3240  -12.3656   28.0362 C   0  0  0  0  0  0  0  0  0  0  0  0
    6.3083  -11.7766   27.3389 C   0  0  0  0  0  0  0  0  0  0  0  0
    6.1259  -12.1886   26.0296 C   0  0  0  0  0  0  0  0  0  0  0  0
    6.9179  -13.1449   25.4385 C   0  0  0  0  0  0  0  0  0  0  0  0
    7.9425  -13.7384   26.1462 C   0  0  0  0  0  0  0  0  0  0  0  0
    9.2545  -17.5092   26.0100 C   0  0  0  0  0  0  0  0  0  0  0  0
    9.6906  -17.5107   27.3160 O   0  0  0  0  0  0  0  0  0  0  0  0
    8.2587  -18.2155   25.7139 O   0  0  0  0  0  0  0  0  0  0  0  0
  2  1  1  6
  3  2  1  0
  4  2  1  0
  4  5  1  6
  6  7  2  0
  6  4  1  0
  9  8  1  0
 10  9  1  0
 10 12  1  0
 10 11  1  1
 12 13  1  6
 13  6  1  0
 14 12  1  0
 14 16  1  0
 15 14  2  0
 17 16  1  0
 17 28  1  0
 17 18  1  6
 18 19  1  0
 19 20  2  0
 19 27  1  0
 20 21  1  0
 21 22  1  0
 22 23  2  0
 23 24  1  0
 25 24  2  0
 26 25  1  0
 27 26  2  0
 27 22  1  0
 28 29  1  0
 30 28  2  0
M  END
$$$$
