TIW.pdb
     RDKit          3D

 30 31  0  0  1  0  0  0  0  0999 V2000
   10.9684  -19.2873   20.0748 C   0  0  0  0  0  0  0  0  0  0  0  0
   12.1969  -18.5793   19.5423 C   0  0  1  0  0  0  0  0  0  0  0  0
   12.7143  -19.3506   18.5025 O   0  0  0  0  0  0  0  0  0  0  0  0
   11.7434  -17.2205   19.0535 C   0  0  2  0  0  0  0  0  0  0  0  0
   12.8364  -16.6028   18.3811 N   0  0  0  0  0  0  0  0  0  0  0  0
   11.2441  -16.3697   20.1770 C   0  0  0  0  0  0  0  0  0  0  0  0
   12.0955  -15.8905   20.9803 O   0  0  0  0  0  0  0  0  0  0  0  0
    7.1981  -12.9105   19.1366 C   0  0  0  0  0  0  0  0  0  0  0  0
    8.3736  -13.5858   19.8198 C   0  0  0  0  0  0  0  0  0  0  0  0
    7.9168  -14.7078   20.7637 C   0  0  2  0  0  0  0  0  0  0  0  0
    7.0779  -14.1294   21.8764 C   0  0  0  0  0  0  0  0  0  0  0  0
    9.1731  -15.3592   21.2992 C   0  0  2  0  0  0  0  0  0  0  0  0
    9.8695  -16.1397   20.2942 N   0  0  0  0  0  0  0  0  0  0  0  0
    9.0381  -16.1616   22.5012 C   0  0  0  0  0  0  0  0  0  0  0  0
    8.8436  -17.4349   22.3687 O   0  0  0  0  0  0  0  0  0  0  0  0
    9.0917  -15.7509   23.8552 N   0  0  0  0  0  0  0  0  0  0  0  0
    9.0221  -16.6795   24.9649 C   0  0  1  0  0  0  0  0  0  0  0  0
    8.9887  -15.9031   26.2554 C   0  0  0  0  0  0  0  0  0  0  0  0
    7.8533  -14.9985   26.3414 C   0  0  0  0  0  0  0  0  0  0  0  0
    6.5470  -15.3981   26.0783 C   0  0  0  0  0  0  0  0  0  0  0  0
    5.7747  -14.3261   26.2218 N   0  0  0  0  0  0  0  0  0  0  0  0
    6.5150  -13.2529   26.5650 C   0  0  0  0  0  0  0  0  0  0  0  0
    6.1342  -11.9469   26.8246 C   0  0  0  0  0  0  0  0  0  0  0  0
    7.0573  -11.0034   27.1748 C   0  0  0  0  0  0  0  0  0  0  0  0
    8.3763  -11.4171   27.2553 C   0  0  0  0  0  0  0  0  0  0  0  0
    8.7619  -12.7119   26.9986 C   0  0  0  0  0  0  0  0  0  0  0  0
    7.8267  -13.6621   26.6443 C   0  0  0  0  0  0  0  0  0  0  0  0
    7.8879  -17.6202   24.8706 C   0  0  0  0  0  0  0  0  0  0  0  0
    7.8276  -18.8470   25.4926 O   0  0  0  0  0  0  0  0  0  0  0  0
    6.9115  -17.2608   24.1665 O   0  0  0  0  0  0  0  0  0  0  0  0
  2  1  1  6
  3  2  1  0
  4  2  1  0
  4  5  1  1
  6  7  2  0
  6  4  1  0
  9  8  1  0
 10  9  1  0
 10 12  1  0
 10 11  1  1
 12 13  1  6
 13  6  1  0
 14 12  1  0
 14 16  1  0
 15 14  2  0
 17 16  1  0
 17 28  1  0
 17 18  1  1
 18 19  1  0
 19 20  2  0
 19 27  1  0
 20 21  1  0
 21 22  1  0
 22 23  2  0
 23 24  1  0
 25 24  2  0
 26 25  1  0
 27 26  2  0
 27 22  1  0
 28 29  1  0
 30 28  2  0
M  END
$$$$
