TIW.pdb
     RDKit          3D

 30 31  0  0  1  0  0  0  0  0999 V2000
    7.4209  -12.4451   19.0770 C   0  0  0  0  0  0  0  0  0  0  0  0
    7.9138  -13.5822   18.2063 C   0  0  1  0  0  0  0  0  0  0  0  0
    8.3753  -13.0324   17.0110 O   0  0  0  0  0  0  0  0  0  0  0  0
    9.0271  -14.2682   18.9684 C   0  0  2  0  0  0  0  0  0  0  0  0
    9.7028  -15.1461   18.0734 N   0  0  0  0  0  0  0  0  0  0  0  0
    8.5058  -15.0028   20.1619 C   0  0  0  0  0  0  0  0  0  0  0  0
    7.8188  -14.3541   21.0028 O   0  0  0  0  0  0  0  0  0  0  0  0
    7.3305  -20.2116   19.2410 C   0  0  0  0  0  0  0  0  0  0  0  0
    7.3989  -18.8052   19.8082 C   0  0  0  0  0  0  0  0  0  0  0  0
    8.4017  -18.7059   20.9671 C   0  0  2  0  0  0  0  0  0  0  0  0
    7.9623  -19.5990   22.1009 C   0  0  0  0  0  0  0  0  0  0  0  0
    8.4325  -17.2527   21.3875 C   0  0  2  0  0  0  0  0  0  0  0  0
    8.7955  -16.3641   20.2999 N   0  0  0  0  0  0  0  0  0  0  0  0
    9.2366  -16.9199   22.5491 C   0  0  0  0  0  0  0  0  0  0  0  0
   10.2861  -16.1815   22.3760 O   0  0  0  0  0  0  0  0  0  0  0  0
    9.0413  -17.2905   23.9016 N   0  0  0  0  0  0  0  0  0  0  0  0
    9.7928  -16.7097   24.9955 C   0  0  1  0  0  0  0  0  0  0  0  0
    9.5899  -15.2170   24.9947 C   0  0  0  0  0  0  0  0  0  0  0  0
    8.2519  -14.8285   25.4115 C   0  0  0  0  0  0  0  0  0  0  0  0
    7.1600  -15.6878   25.3445 C   0  0  0  0  0  0  0  0  0  0  0  0
    6.1014  -15.0077   25.7723 N   0  0  0  0  0  0  0  0  0  0  0  0
    6.4530  -13.7517   26.1134 C   0  0  0  0  0  0  0  0  0  0  0  0
    5.6880  -12.7109   26.6130 C   0  0  0  0  0  0  0  0  0  0  0  0
    6.2538  -11.5039   26.9093 C   0  0  0  0  0  0  0  0  0  0  0  0
    7.6147  -11.3783   26.6867 C   0  0  0  0  0  0  0  0  0  0  0  0
    8.3805  -12.4071   26.1905 C   0  0  0  0  0  0  0  0  0  0  0  0
    7.8054  -13.6248   25.8915 C   0  0  0  0  0  0  0  0  0  0  0  0
    9.4647  -17.2990   26.3089 C   0  0  0  0  0  0  0  0  0  0  0  0
    8.4606  -18.2140   26.5336 O   0  0  0  0  0  0  0  0  0  0  0  0
   10.1624  -16.9286   27.2858 O   0  0  0  0  0  0  0  0  0  0  0  0
  2  1  1  1
  3  2  1  0
  4  2  1  0
  4  5  1  6
  6  7  2  0
  6  4  1  0
  9  8  1  0
 10  9  1  0
 10 12  1  0
 10 11  1  1
 12 13  1  6
 13  6  1  0
 14 12  1  0
 14 16  1  0
 15 14  2  0
 17 16  1  0
 17 28  1  0
 17 18  1  1
 18 19  1  0
 19 20  2  0
 19 27  1  0
 20 21  1  0
 21 22  1  0
 22 23  2  0
 23 24  1  0
 25 24  2  0
 26 25  1  0
 27 26  2  0
 27 22  1  0
 28 29  1  0
 30 28  2  0
M  END
$$$$
