TIW.pdb
     RDKit          3D

 30 31  0  0  1  0  0  0  0  0999 V2000
    6.9611  -19.2088   22.5988 C   0  0  0  0  0  0  0  0  0  0  0  0
    7.4476  -19.7468   21.2691 C   0  0  1  0  0  0  0  0  0  0  0  0
    6.6489  -20.8398   20.9354 O   0  0  0  0  0  0  0  0  0  0  0  0
    7.3036  -18.6257   20.2625 C   0  0  2  0  0  0  0  0  0  0  0  0
    7.5309  -19.1631   18.9634 N   0  0  0  0  0  0  0  0  0  0  0  0
    8.2403  -17.4979   20.5568 C   0  0  0  0  0  0  0  0  0  0  0  0
    9.4658  -17.6611   20.2895 O   0  0  0  0  0  0  0  0  0  0  0  0
    7.2499  -12.5597   19.0671 C   0  0  0  0  0  0  0  0  0  0  0  0
    7.8810  -13.8221   19.6261 C   0  0  0  0  0  0  0  0  0  0  0  0
    7.8271  -13.8553   21.1605 C   0  0  2  0  0  0  0  0  0  0  0  0
    8.5721  -12.6703   21.7236 C   0  0  0  0  0  0  0  0  0  0  0  0
    8.4618  -15.1611   21.5863 C   0  0  2  0  0  0  0  0  0  0  0  0
    7.7296  -16.3194   21.1104 N   0  0  0  0  0  0  0  0  0  0  0  0
    8.7333  -15.3309   23.0020 C   0  0  0  0  0  0  0  0  0  0  0  0
    7.9976  -14.6835   23.8483 O   0  0  0  0  0  0  0  0  0  0  0  0
    9.7182  -16.1320   23.6288 N   0  0  0  0  0  0  0  0  0  0  0  0
   10.1087  -15.9634   25.0136 C   0  0  1  0  0  0  0  0  0  0  0  0
    8.9920  -16.4455   25.9024 C   0  0  0  0  0  0  0  0  0  0  0  0
    7.8316  -15.5694   25.8774 C   0  0  0  0  0  0  0  0  0  0  0  0
    6.6049  -15.9550   25.3466 C   0  0  0  0  0  0  0  0  0  0  0  0
    5.7863  -14.9140   25.4595 N   0  0  0  0  0  0  0  0  0  0  0  0
    6.4211  -13.8744   26.0371 C   0  0  0  0  0  0  0  0  0  0  0  0
    5.9601  -12.6082   26.3573 C   0  0  0  0  0  0  0  0  0  0  0  0
    6.7776  -11.6959   26.9610 C   0  0  0  0  0  0  0  0  0  0  0  0
    8.0742  -12.0993   27.2320 C   0  0  0  0  0  0  0  0  0  0  0  0
    8.5390  -13.3545   26.9166 C   0  0  0  0  0  0  0  0  0  0  0  0
    7.7106  -14.2732   26.3061 C   0  0  0  0  0  0  0  0  0  0  0  0
   11.3871  -16.6232   25.3457 C   0  0  0  0  0  0  0  0  0  0  0  0
   12.1386  -17.3725   24.4685 O   0  0  0  0  0  0  0  0  0  0  0  0
   11.8087  -16.4816   26.5207 O   0  0  0  0  0  0  0  0  0  0  0  0
  2  1  1  1
  3  2  1  0
  4  2  1  0
  4  5  1  6
  6  7  2  0
  6  4  1  0
  9  8  1  0
 10  9  1  0
 10 12  1  0
 10 11  1  1
 12 13  1  1
 13  6  1  0
 14 12  1  0
 14 16  1  0
 15 14  2  0
 17 16  1  0
 17 28  1  0
 17 18  1  1
 18 19  1  0
 19 20  2  0
 19 27  1  0
 20 21  1  0
 21 22  1  0
 22 23  2  0
 23 24  1  0
 25 24  2  0
 26 25  1  0
 27 26  2  0
 27 22  1  0
 28 29  1  0
 30 28  2  0
M  END
$$$$
