TIW.pdb
     RDKit          3D

 30 31  0  0  1  0  0  0  0  0999 V2000
   10.6632  -19.3444   20.0641 C   0  0  0  0  0  0  0  0  0  0  0  0
   11.8523  -18.7076   19.3751 C   0  0  1  0  0  0  0  0  0  0  0  0
   12.2793  -19.5786   18.3736 O   0  0  0  0  0  0  0  0  0  0  0  0
   11.3741  -17.3918   18.8002 C   0  0  2  0  0  0  0  0  0  0  0  0
   12.3950  -16.8820   17.9480 N   0  0  0  0  0  0  0  0  0  0  0  0
   11.0254  -16.4148   19.8770 C   0  0  0  0  0  0  0  0  0  0  0  0
   11.9742  -15.8451   20.4894 O   0  0  0  0  0  0  0  0  0  0  0  0
    6.8199  -13.0365   19.2689 C   0  0  0  0  0  0  0  0  0  0  0  0
    8.0879  -13.7015   19.7735 C   0  0  0  0  0  0  0  0  0  0  0  0
    7.7907  -14.7453   20.8601 C   0  0  2  0  0  0  0  0  0  0  0  0
    7.1429  -14.0766   22.0473 C   0  0  0  0  0  0  0  0  0  0  0  0
    9.1176  -15.3698   21.2326 C   0  0  2  0  0  0  0  0  0  0  0  0
    9.6777  -16.1720   20.1617 N   0  0  0  0  0  0  0  0  0  0  0  0
    9.1613  -16.1391   22.4627 C   0  0  0  0  0  0  0  0  0  0  0  0
    8.9555  -17.4156   22.3941 O   0  0  0  0  0  0  0  0  0  0  0  0
    9.4082  -15.6916   23.7831 N   0  0  0  0  0  0  0  0  0  0  0  0
    9.4411  -16.5823   24.9251 C   0  0  1  0  0  0  0  0  0  0  0  0
    9.2160  -15.7814   26.1811 C   0  0  0  0  0  0  0  0  0  0  0  0
    7.9651  -15.0401   26.1619 C   0  0  0  0  0  0  0  0  0  0  0  0
    6.7459  -15.6234   25.8323 C   0  0  0  0  0  0  0  0  0  0  0  0
    5.8271  -14.6646   25.8870 N   0  0  0  0  0  0  0  0  0  0  0  0
    6.3900  -13.4903   26.2359 C   0  0  0  0  0  0  0  0  0  0  0  0
    5.8186  -12.2425   26.4223 C   0  0  0  0  0  0  0  0  0  0  0  0
    6.5793  -11.1711   26.7944 C   0  0  0  0  0  0  0  0  0  0  0  0
    7.9339  -11.3964   26.9729 C   0  0  0  0  0  0  0  0  0  0  0  0
    8.5082  -12.6322   26.7892 C   0  0  0  0  0  0  0  0  0  0  0  0
    7.7368  -13.7121   26.4126 C   0  0  0  0  0  0  0  0  0  0  0  0
    8.4860  -17.7034   24.8206 C   0  0  0  0  0  0  0  0  0  0  0  0
    8.6033  -18.9034   25.4854 O   0  0  0  0  0  0  0  0  0  0  0  0
    7.4967  -17.5356   24.0648 O   0  0  0  0  0  0  0  0  0  0  0  0
  2  1  1  6
  3  2  1  0
  4  2  1  0
  4  5  1  6
  6  7  2  0
  6  4  1  0
  9  8  1  0
 10  9  1  0
 10 12  1  0
 10 11  1  1
 12 13  1  6
 13  6  1  0
 14 12  1  0
 14 16  1  0
 15 14  2  0
 17 16  1  0
 17 28  1  0
 17 18  1  1
 18 19  1  0
 19 20  2  0
 19 27  1  0
 20 21  1  0
 21 22  1  0
 22 23  2  0
 23 24  1  0
 25 24  2  0
 26 25  1  0
 27 26  2  0
 27 22  1  0
 28 29  1  0
 30 28  2  0
M  END
$$$$
