TIW.pdb
     RDKit          3D

 30 31  0  0  1  0  0  0  0  0999 V2000
    7.3051  -19.2989   23.4709 C   0  0  0  0  0  0  0  0  0  0  0  0
    7.5946  -20.0649   22.1967 C   0  0  1  0  0  0  0  0  0  0  0  0
    6.8264  -21.2283   22.2168 O   0  0  0  0  0  0  0  0  0  0  0  0
    7.2071  -19.1633   21.0445 C   0  0  2  0  0  0  0  0  0  0  0  0
    7.2319  -19.9357   19.8481 N   0  0  0  0  0  0  0  0  0  0  0  0
    8.1118  -17.9769   20.9455 C   0  0  0  0  0  0  0  0  0  0  0  0
    9.2663  -18.1517   20.4593 O   0  0  0  0  0  0  0  0  0  0  0  0
    7.5704  -11.8485   20.3935 C   0  0  0  0  0  0  0  0  0  0  0  0
    8.3479  -13.0720   20.8441 C   0  0  0  0  0  0  0  0  0  0  0  0
    7.4620  -14.3257   20.8896 C   0  0  2  0  0  0  0  0  0  0  0  0
    6.3011  -14.0972   21.8258 C   0  0  0  0  0  0  0  0  0  0  0  0
    8.3431  -15.4593   21.3670 C   0  0  2  0  0  0  0  0  0  0  0  0
    7.6504  -16.7336   21.3899 N   0  0  0  0  0  0  0  0  0  0  0  0
    9.0228  -15.2757   22.6362 C   0  0  0  0  0  0  0  0  0  0  0  0
    9.3440  -14.0723   22.9902 O   0  0  0  0  0  0  0  0  0  0  0  0
    9.4027  -16.2501   23.5907 N   0  0  0  0  0  0  0  0  0  0  0  0
   10.1790  -15.9363   24.7729 C   0  0  1  0  0  0  0  0  0  0  0  0
    9.3252  -16.1539   25.9948 C   0  0  0  0  0  0  0  0  0  0  0  0
    8.1161  -15.3459   25.9905 C   0  0  0  0  0  0  0  0  0  0  0  0
    6.8641  -15.8609   25.6703 C   0  0  0  0  0  0  0  0  0  0  0  0
    5.9992  -14.8541   25.7376 N   0  0  0  0  0  0  0  0  0  0  0  0
    6.6281  -13.7135   26.0857 C   0  0  0  0  0  0  0  0  0  0  0  0
    6.1268  -12.4375   26.2825 C   0  0  0  0  0  0  0  0  0  0  0  0
    6.9479  -11.4105   26.6516 C   0  0  0  0  0  0  0  0  0  0  0  0
    8.2898  -11.7095   26.8163 C   0  0  0  0  0  0  0  0  0  0  0  0
    8.7947  -12.9738   26.6223 C   0  0  0  0  0  0  0  0  0  0  0  0
    7.9625  -14.0086   26.2487 C   0  0  0  0  0  0  0  0  0  0  0  0
   11.4461  -16.6893   24.8578 C   0  0  0  0  0  0  0  0  0  0  0  0
   11.8238  -17.6963   23.9980 O   0  0  0  0  0  0  0  0  0  0  0  0
   12.2289  -16.3770   25.7895 O   0  0  0  0  0  0  0  0  0  0  0  0
  2  1  1  1
  3  2  1  0
  4  2  1  0
  4  5  1  6
  6  7  2  0
  6  4  1  0
  9  8  1  0
 10  9  1  0
 10 12  1  0
 10 11  1  1
 12 13  1  1
 13  6  1  0
 14 12  1  0
 14 16  1  0
 15 14  2  0
 17 16  1  0
 17 28  1  0
 17 18  1  1
 18 19  1  0
 19 20  2  0
 19 27  1  0
 20 21  1  0
 21 22  1  0
 22 23  2  0
 23 24  1  0
 25 24  2  0
 26 25  1  0
 27 26  2  0
 27 22  1  0
 28 29  1  0
 30 28  2  0
M  END
$$$$
