TIW.pdb
     RDKit          3D

 30 31  0  0  1  0  0  0  0  0999 V2000
    6.7013  -14.1894   18.0410 C   0  0  0  0  0  0  0  0  0  0  0  0
    7.4906  -14.5470   19.2833 C   0  0  1  0  0  0  0  0  0  0  0  0
    8.6961  -15.1140   18.8718 O   0  0  0  0  0  0  0  0  0  0  0  0
    7.7144  -13.2597   20.0472 C   0  0  2  0  0  0  0  0  0  0  0  0
    8.4237  -12.3591   19.2021 N   0  0  0  0  0  0  0  0  0  0  0  0
    8.4500  -13.4996   21.3267 C   0  0  0  0  0  0  0  0  0  0  0  0
    9.6925  -13.2637   21.3484 O   0  0  0  0  0  0  0  0  0  0  0  0
    5.8023  -12.6927   25.9566 C   0  0  0  0  0  0  0  0  0  0  0  0
    6.8639  -12.9211   24.8958 C   0  0  0  0  0  0  0  0  0  0  0  0
    7.2916  -14.3945   24.8251 C   0  0  2  0  0  0  0  0  0  0  0  0
    7.9231  -14.8064   26.1320 C   0  0  0  0  0  0  0  0  0  0  0  0
    8.2721  -14.5043   23.6779 C   0  0  2  0  0  0  0  0  0  0  0  0
    7.7425  -13.9706   22.4374 N   0  0  0  0  0  0  0  0  0  0  0  0
    8.8367  -15.8158   23.4173 C   0  0  0  0  0  0  0  0  0  0  0  0
    9.2471  -16.0784   22.2176 O   0  0  0  0  0  0  0  0  0  0  0  0
    9.0197  -16.8988   24.3109 N   0  0  0  0  0  0  0  0  0  0  0  0
   10.3261  -17.3670   24.7265 C   0  0  1  0  0  0  0  0  0  0  0  0
   11.0115  -16.2804   25.5131 C   0  0  0  0  0  0  0  0  0  0  0  0
   10.6580  -16.2952   26.9236 C   0  0  0  0  0  0  0  0  0  0  0  0
   10.2450  -17.4460   27.5872 C   0  0  0  0  0  0  0  0  0  0  0  0
    9.9782  -17.0984   28.8419 N   0  0  0  0  0  0  0  0  0  0  0  0
   10.1981  -15.7808   29.0241 C   0  0  0  0  0  0  0  0  0  0  0  0
   10.0637  -14.9979   30.1586 C   0  0  0  0  0  0  0  0  0  0  0  0
   10.3566  -13.6644   30.1294 C   0  0  0  0  0  0  0  0  0  0  0  0
   10.7894  -13.1443   28.9212 C   0  0  0  0  0  0  0  0  0  0  0  0
   10.9248  -13.9154   27.7906 C   0  0  0  0  0  0  0  0  0  0  0  0
   10.6272  -15.2620   27.8237 C   0  0  0  0  0  0  0  0  0  0  0  0
   10.2803  -18.6346   25.4823 C   0  0  0  0  0  0  0  0  0  0  0  0
    9.1294  -19.2478   25.9241 O   0  0  0  0  0  0  0  0  0  0  0  0
   11.3819  -19.1836   25.7341 O   0  0  0  0  0  0  0  0  0  0  0  0
  2  1  1  6
  3  2  1  0
  4  2  1  0
  4  5  1  6
  6  7  2  0
  6  4  1  0
  9  8  1  0
 10  9  1  0
 10 12  1  0
 10 11  1  1
 12 13  1  6
 13  6  1  0
 14 12  1  0
 14 16  1  0
 15 14  2  0
 17 16  1  0
 17 28  1  0
 17 18  1  1
 18 19  1  0
 19 20  2  0
 19 27  1  0
 20 21  1  0
 21 22  1  0
 22 23  2  0
 23 24  1  0
 25 24  2  0
 26 25  1  0
 27 26  2  0
 27 22  1  0
 28 29  1  0
 30 28  2  0
M  END
$$$$
