TIW.pdb
     RDKit          3D

 30 31  0  0  1  0  0  0  0  0999 V2000
    8.9742  -19.9992   22.1294 C   0  0  0  0  0  0  0  0  0  0  0  0
    9.1482  -20.0216   20.6249 C   0  0  1  0  0  0  0  0  0  0  0  0
    8.6674  -21.2450   20.1601 O   0  0  0  0  0  0  0  0  0  0  0  0
    8.3457  -18.8634   20.0726 C   0  0  2  0  0  0  0  0  0  0  0  0
    8.2305  -19.0346   18.6634 N   0  0  0  0  0  0  0  0  0  0  0  0
    8.9716  -17.5485   20.4120 C   0  0  0  0  0  0  0  0  0  0  0  0
   10.0910  -17.2737   19.8911 O   0  0  0  0  0  0  0  0  0  0  0  0
    6.5708  -12.9680   19.7984 C   0  0  0  0  0  0  0  0  0  0  0  0
    7.6248  -14.0147   20.1113 C   0  0  0  0  0  0  0  0  0  0  0  0
    7.7022  -14.3140   21.6157 C   0  0  2  0  0  0  0  0  0  0  0  0
    8.0799  -13.0613   22.3670 C   0  0  0  0  0  0  0  0  0  0  0  0
    8.7446  -15.3973   21.7868 C   0  0  2  0  0  0  0  0  0  0  0  0
    8.3015  -16.6834   21.2830 N   0  0  0  0  0  0  0  0  0  0  0  0
    9.2903  -15.5817   23.1191 C   0  0  0  0  0  0  0  0  0  0  0  0
   10.1624  -14.7257   23.5474 O   0  0  0  0  0  0  0  0  0  0  0  0
    9.0022  -16.5945   24.0657 N   0  0  0  0  0  0  0  0  0  0  0  0
    9.6552  -16.6774   25.3562 C   0  0  1  0  0  0  0  0  0  0  0  0
    8.6075  -16.6882   26.4386 C   0  0  0  0  0  0  0  0  0  0  0  0
    7.5919  -15.6643   26.2520 C   0  0  0  0  0  0  0  0  0  0  0  0
    6.3205  -15.9416   25.7602 C   0  0  0  0  0  0  0  0  0  0  0  0
    5.6678  -14.7859   25.6920 N   0  0  0  0  0  0  0  0  0  0  0  0
    6.4523  -13.7746   26.1154 C   0  0  0  0  0  0  0  0  0  0  0  0
    6.1872  -12.4196   26.2249 C   0  0  0  0  0  0  0  0  0  0  0  0
    7.1333  -11.5557   26.6978 C   0  0  0  0  0  0  0  0  0  0  0  0
    8.3549  -12.0998   27.0570 C   0  0  0  0  0  0  0  0  0  0  0  0
    8.6254  -13.4439   26.9506 C   0  0  0  0  0  0  0  0  0  0  0  0
    7.6676  -14.3135   26.4717 C   0  0  0  0  0  0  0  0  0  0  0  0
   10.5687  -17.8311   25.4767 C   0  0  0  0  0  0  0  0  0  0  0  0
   11.3699  -18.0917   26.5657 O   0  0  0  0  0  0  0  0  0  0  0  0
   10.6075  -18.6264   24.5050 O   0  0  0  0  0  0  0  0  0  0  0  0
  2  1  1  1
  3  2  1  0
  4  2  1  0
  4  5  1  6
  6  7  2  0
  6  4  1  0
  9  8  1  0
 10  9  1  0
 10 12  1  0
 10 11  1  1
 12 13  1  1
 13  6  1  0
 14 12  1  0
 14 16  1  0
 15 14  2  0
 17 16  1  0
 17 28  1  0
 17 18  1  1
 18 19  1  0
 19 20  2  0
 19 27  1  0
 20 21  1  0
 21 22  1  0
 22 23  2  0
 23 24  1  0
 25 24  2  0
 26 25  1  0
 27 26  2  0
 27 22  1  0
 28 29  1  0
 30 28  2  0
M  END
$$$$
