TIW.pdb
     RDKit          3D

 30 31  0  0  1  0  0  0  0  0999 V2000
    8.5361  -19.7410   22.1443 C   0  0  0  0  0  0  0  0  0  0  0  0
    8.9868  -19.9308   20.7108 C   0  0  1  0  0  0  0  0  0  0  0  0
    8.5308  -21.1772   20.2838 O   0  0  0  0  0  0  0  0  0  0  0  0
    8.3709  -18.8078   19.9043 C   0  0  2  0  0  0  0  0  0  0  0  0
    8.5328  -19.1125   18.5226 N   0  0  0  0  0  0  0  0  0  0  0  0
    8.9810  -17.4861   20.2457 C   0  0  0  0  0  0  0  0  0  0  0  0
   10.0846  -17.1863   19.7054 O   0  0  0  0  0  0  0  0  0  0  0  0
    6.4215  -12.9996   19.6588 C   0  0  0  0  0  0  0  0  0  0  0  0
    7.5210  -14.0035   19.9556 C   0  0  0  0  0  0  0  0  0  0  0  0
    7.6395  -14.2914   21.4595 C   0  0  2  0  0  0  0  0  0  0  0  0
    7.9855  -13.0214   22.1970 C   0  0  0  0  0  0  0  0  0  0  0  0
    8.7245  -15.3345   21.6147 C   0  0  2  0  0  0  0  0  0  0  0  0
    8.3141  -16.6422   21.1397 N   0  0  0  0  0  0  0  0  0  0  0  0
    9.3131  -15.4814   22.9333 C   0  0  0  0  0  0  0  0  0  0  0  0
   10.1528  -14.5803   23.3328 O   0  0  0  0  0  0  0  0  0  0  0  0
    9.1000  -16.4996   23.8939 N   0  0  0  0  0  0  0  0  0  0  0  0
    9.8266  -16.5685   25.1453 C   0  0  1  0  0  0  0  0  0  0  0  0
    8.8420  -16.6428   26.2830 C   0  0  0  0  0  0  0  0  0  0  0  0
    7.7717  -15.6650   26.1688 C   0  0  0  0  0  0  0  0  0  0  0  0
    6.4847  -15.9975   25.7587 C   0  0  0  0  0  0  0  0  0  0  0  0
    5.7781  -14.8721   25.7398 N   0  0  0  0  0  0  0  0  0  0  0  0
    6.5426  -13.8279   26.1176 C   0  0  0  0  0  0  0  0  0  0  0  0
    6.2250  -12.4866   26.2522 C   0  0  0  0  0  0  0  0  0  0  0  0
    7.1603  -11.5826   26.6680 C   0  0  0  0  0  0  0  0  0  0  0  0
    8.4258  -12.0724   26.9441 C   0  0  0  0  0  0  0  0  0  0  0  0
    8.7485  -13.4026   26.8123 C   0  0  0  0  0  0  0  0  0  0  0  0
    7.8013  -14.3128   26.3912 C   0  0  0  0  0  0  0  0  0  0  0  0
   10.7978  -17.6793   25.1977 C   0  0  0  0  0  0  0  0  0  0  0  0
   11.6796  -17.9074   26.2302 O   0  0  0  0  0  0  0  0  0  0  0  0
   10.8093  -18.4678   24.2197 O   0  0  0  0  0  0  0  0  0  0  0  0
  2  1  1  1
  3  2  1  0
  4  2  1  0
  4  5  1  6
  6  7  2  0
  6  4  1  0
  9  8  1  0
 10  9  1  0
 10 12  1  0
 10 11  1  1
 12 13  1  1
 13  6  1  0
 14 12  1  0
 14 16  1  0
 15 14  2  0
 17 16  1  0
 17 28  1  0
 17 18  1  1
 18 19  1  0
 19 20  2  0
 19 27  1  0
 20 21  1  0
 21 22  1  0
 22 23  2  0
 23 24  1  0
 25 24  2  0
 26 25  1  0
 27 26  2  0
 27 22  1  0
 28 29  1  0
 30 28  2  0
M  END
$$$$
