GCP.pdb
     RDKit          3D

 18 18  0  0  1  0  0  0  0  0999 V2000
   20.5472  -21.2738  -11.7706 N   0  0  0  0  0  0  0  0  0  0  0  0
   21.1170  -20.8982  -13.0494 C   0  0  0  0  0  0  0  0  0  0  0  0
   22.4893  -20.3385  -12.8903 C   0  0  0  0  0  0  0  0  0  0  0  0
   22.7425  -19.1655  -13.2659 O   0  0  0  0  0  0  0  0  0  0  0  0
   23.5594  -21.0786  -12.3207 N   0  0  0  0  0  0  0  0  0  0  0  0
   24.9631  -20.6487  -12.4748 C   0  0  1  0  0  0  0  0  0  0  0  0
   25.8198  -21.4018  -11.4542 C   0  0  0  0  0  0  0  0  0  0  0  0
   25.2432  -21.0091   -9.7672 S   0  0  0  0  0  0  0  0  0  0  0  0
   25.4296  -20.8296  -13.8442 C   0  0  0  0  0  0  0  0  0  0  0  0
   24.7585  -21.5764  -14.6113 O   0  0  0  0  0  0  0  0  0  0  0  0
   26.5857  -20.2167  -14.3606 N   0  0  0  0  0  0  0  0  0  0  0  0
   27.6978  -19.5807  -13.6655 C   0  0  0  0  0  0  0  0  0  0  0  0
   28.2181  -18.5200  -14.5848 C   0  0  0  0  0  0  0  0  0  0  0  0
   27.3295  -18.6167  -15.7974 C   0  0  0  0  0  0  0  0  0  0  0  0
   26.9218  -20.0709  -15.7855 C   0  0  1  0  0  0  0  0  0  0  0  0
   28.0996  -20.8759  -16.1625 C   0  0  0  0  0  0  0  0  0  0  0  0
   28.5981  -21.6141  -15.2767 O   0  0  0  0  0  0  0  0  0  0  0  0
   28.6956  -20.8802  -17.4124 O   0  0  0  0  0  0  0  0  0  0  0  0
  1  2  1  0
  3  4  2  0
  3  2  1  0
  5  3  1  0
  6  5  1  0
  6  7  1  1
  8  7  1  0
  9 11  1  0
  9  6  1  0
 10  9  2  0
 11 12  1  0
 13 12  1  0
 14 15  1  0
 14 13  1  0
 15 11  1  0
 15 16  1  1
 16 18  1  0
 17 16  2  0
M  END
$$$$
