GCP.pdb
     RDKit          3D

 18 18  0  0  1  0  0  0  0  0999 V2000
   31.1142  -22.0414  -11.1575 N   0  0  0  0  0  0  0  0  0  0  0  0
   30.3033  -20.8612  -11.3823 C   0  0  0  0  0  0  0  0  0  0  0  0
   28.8520  -21.1986  -11.4264 C   0  0  0  0  0  0  0  0  0  0  0  0
   28.4345  -22.1002  -12.1970 O   0  0  0  0  0  0  0  0  0  0  0  0
   27.8852  -20.5386  -10.6222 N   0  0  0  0  0  0  0  0  0  0  0  0
   26.4595  -20.9188  -10.6612 C   0  0  1  0  0  0  0  0  0  0  0  0
   25.7868  -20.4259   -9.3777 C   0  0  0  0  0  0  0  0  0  0  0  0
   23.9936  -20.7567   -9.4643 S   0  0  0  0  0  0  0  0  0  0  0  0
   25.8068  -20.4205  -11.8659 C   0  0  0  0  0  0  0  0  0  0  0  0
   26.1317  -19.2765  -12.2930 O   0  0  0  0  0  0  0  0  0  0  0  0
   24.8356  -21.1438  -12.5815 N   0  0  0  0  0  0  0  0  0  0  0  0
   24.3006  -22.4790  -12.3456 C   0  0  0  0  0  0  0  0  0  0  0  0
   23.9155  -23.0217  -13.6865 C   0  0  0  0  0  0  0  0  0  0  0  0
   24.2748  -21.9178  -14.6466 C   0  0  0  0  0  0  0  0  0  0  0  0
   24.1322  -20.6829  -13.7888 C   0  0  1  0  0  0  0  0  0  0  0  0
   22.6937  -20.4644  -13.5429 C   0  0  0  0  0  0  0  0  0  0  0  0
   22.0111  -20.0097  -14.4943 O   0  0  0  0  0  0  0  0  0  0  0  0
   22.0410  -20.7205  -12.3488 O   0  0  0  0  0  0  0  0  0  0  0  0
  1  2  1  0
  3  4  2  0
  3  2  1  0
  5  3  1  0
  6  5  1  0
  6  7  1  1
  8  7  1  0
  9 11  1  0
  9  6  1  0
 10  9  2  0
 11 12  1  0
 13 12  1  0
 14 15  1  0
 14 13  1  0
 15 11  1  0
 15 16  1  1
 16 18  1  0
 17 16  2  0
M  END
$$$$
