GCP.pdb
     RDKit          3D

 18 18  0  0  1  0  0  0  0  0999 V2000
   19.5563  -11.6309  -18.2558 N   0  0  0  0  0  0  0  0  0  0  0  0
   19.4507  -10.2327  -18.6232 C   0  0  0  0  0  0  0  0  0  0  0  0
   19.5083   -9.3492  -17.4240 C   0  0  0  0  0  0  0  0  0  0  0  0
   18.4899   -9.1923  -16.7034 O   0  0  0  0  0  0  0  0  0  0  0  0
   20.6849   -8.6535  -17.0383 N   0  0  0  0  0  0  0  0  0  0  0  0
   20.7087   -7.7760  -15.8516 C   0  0  1  0  0  0  0  0  0  0  0  0
   21.5932   -8.4228  -14.7830 C   0  0  0  0  0  0  0  0  0  0  0  0
   21.7754   -7.2807  -13.3705 S   0  0  0  0  0  0  0  0  0  0  0  0
   21.1370   -6.4253  -16.1949 C   0  0  0  0  0  0  0  0  0  0  0  0
   22.1395   -6.2897  -16.9520 O   0  0  0  0  0  0  0  0  0  0  0  0
   20.4944   -5.2630  -15.7314 N   0  0  0  0  0  0  0  0  0  0  0  0
   19.3163   -5.1190  -14.8854 C   0  0  0  0  0  0  0  0  0  0  0  0
   18.6621   -3.8345  -15.2891 C   0  0  0  0  0  0  0  0  0  0  0  0
   19.5418   -3.3047  -16.3913 C   0  0  0  0  0  0  0  0  0  0  0  0
   20.8920   -3.8789  -16.0327 C   0  0  1  0  0  0  0  0  0  0  0  0
   21.3835   -3.1701  -14.8355 C   0  0  0  0  0  0  0  0  0  0  0  0
   21.7438   -1.9758  -14.9828 O   0  0  0  0  0  0  0  0  0  0  0  0
   21.4782   -3.7179  -13.5673 O   0  0  0  0  0  0  0  0  0  0  0  0
  1  2  1  0
  3  4  2  0
  3  2  1  0
  5  3  1  0
  6  5  1  0
  6  7  1  1
  8  7  1  0
  9 11  1  0
  9  6  1  0
 10  9  2  0
 11 12  1  0
 13 12  1  0
 14 15  1  0
 14 13  1  0
 15 11  1  0
 15 16  1  1
 16 18  1  0
 17 16  2  0
M  END
$$$$
