GCP.pdb
     RDKit          3D

 18 18  0  0  1  0  0  0  0  0999 V2000
   22.6479  -13.5195  -17.9096 N   0  0  0  0  0  0  0  0  0  0  0  0
   22.8843  -12.6852  -16.7481 C   0  0  0  0  0  0  0  0  0  0  0  0
   22.2369  -11.3507  -16.8958 C   0  0  0  0  0  0  0  0  0  0  0  0
   22.4942  -10.6288  -17.8927 O   0  0  0  0  0  0  0  0  0  0  0  0
   21.3178  -10.8333  -15.9446 N   0  0  0  0  0  0  0  0  0  0  0  0
   20.6898   -9.5090  -16.1194 C   0  0  1  0  0  0  0  0  0  0  0  0
   19.2054   -9.6211  -15.7634 C   0  0  0  0  0  0  0  0  0  0  0  0
   18.4264  -10.9072  -16.7988 S   0  0  0  0  0  0  0  0  0  0  0  0
   21.3789   -8.4847  -15.3437 C   0  0  0  0  0  0  0  0  0  0  0  0
   21.9133   -8.8213  -14.2494 O   0  0  0  0  0  0  0  0  0  0  0  0
   21.4839   -7.1413  -15.7471 N   0  0  0  0  0  0  0  0  0  0  0  0
   20.9121   -6.4640  -16.9042 C   0  0  0  0  0  0  0  0  0  0  0  0
   21.8584   -5.3586  -17.2557 C   0  0  0  0  0  0  0  0  0  0  0  0
   22.9617   -5.4818  -16.2374 C   0  0  0  0  0  0  0  0  0  0  0  0
   22.2451   -6.0895  -15.0549 C   0  0  1  0  0  0  0  0  0  0  0  0
   21.3640   -5.0562  -14.4777 C   0  0  0  0  0  0  0  0  0  0  0  0
   21.9093   -4.1490  -13.8012 O   0  0  0  0  0  0  0  0  0  0  0  0
   19.9877   -5.0097  -14.6234 O   0  0  0  0  0  0  0  0  0  0  0  0
  1  2  1  0
  3  4  2  0
  3  2  1  0
  5  3  1  0
  6  5  1  0
  6  7  1  1
  8  7  1  0
  9 11  1  0
  9  6  1  0
 10  9  2  0
 11 12  1  0
 13 12  1  0
 14 15  1  0
 14 13  1  0
 15 11  1  0
 15 16  1  6
 16 18  1  0
 17 16  2  0
M  END
$$$$
