GCP.pdb
     RDKit          3D

 18 18  0  0  1  0  0  0  0  0999 V2000
   13.1343  -14.8412  -14.6211 N   0  0  0  0  0  0  0  0  0  0  0  0
   13.6374  -13.6960  -15.3536 C   0  0  0  0  0  0  0  0  0  0  0  0
   14.8205  -13.0936  -14.6757 C   0  0  0  0  0  0  0  0  0  0  0  0
   15.1912  -13.5189  -13.5520 O   0  0  0  0  0  0  0  0  0  0  0  0
   15.5752  -12.0340  -15.2456 N   0  0  0  0  0  0  0  0  0  0  0  0
   16.7292  -11.4424  -14.5406 C   0  0  1  0  0  0  0  0  0  0  0  0
   17.9864  -11.6711  -15.3830 C   0  0  0  0  0  0  0  0  0  0  0  0
   19.3804  -10.7383  -14.6624 S   0  0  0  0  0  0  0  0  0  0  0  0
   16.5042  -10.0344  -14.2359 C   0  0  0  0  0  0  0  0  0  0  0  0
   15.8693   -9.3347  -15.0748 O   0  0  0  0  0  0  0  0  0  0  0  0
   16.9534   -9.4111  -13.0577 N   0  0  0  0  0  0  0  0  0  0  0  0
   17.7830   -9.9346  -11.9796 C   0  0  0  0  0  0  0  0  0  0  0  0
   17.3643   -9.2124  -10.7369 C   0  0  0  0  0  0  0  0  0  0  0  0
   16.2713   -8.2855  -11.2014 C   0  0  0  0  0  0  0  0  0  0  0  0
   16.6506   -8.0328  -12.6414 C   0  0  1  0  0  0  0  0  0  0  0  0
   17.8507   -7.1744  -12.6510 C   0  0  0  0  0  0  0  0  0  0  0  0
   18.9497   -7.7266  -12.9065 O   0  0  0  0  0  0  0  0  0  0  0  0
   17.8590   -5.8125  -12.4007 O   0  0  0  0  0  0  0  0  0  0  0  0
  1  2  1  0
  3  4  2  0
  3  2  1  0
  5  3  1  0
  6  5  1  0
  6  7  1  6
  8  7  1  0
  9 11  1  0
  9  6  1  0
 10  9  2  0
 11 12  1  0
 13 12  1  0
 14 15  1  0
 14 13  1  0
 15 11  1  0
 15 16  1  1
 16 18  1  0
 17 16  2  0
M  END
$$$$
