GCP.pdb
     RDKit          3D

 18 18  0  0  1  0  0  0  0  0999 V2000
   29.8681  -22.2550  -18.2323 N   0  0  0  0  0  0  0  0  0  0  0  0
   28.9586  -21.1281  -18.2939 C   0  0  0  0  0  0  0  0  0  0  0  0
   28.5228  -20.7056  -16.9324 C   0  0  0  0  0  0  0  0  0  0  0  0
   28.7812  -21.4240  -15.9333 O   0  0  0  0  0  0  0  0  0  0  0  0
   27.8104  -19.5004  -16.6934 N   0  0  0  0  0  0  0  0  0  0  0  0
   27.3356  -19.1393  -15.3433 C   0  0  1  0  0  0  0  0  0  0  0  0
   27.1356  -17.6229  -15.2848 C   0  0  0  0  0  0  0  0  0  0  0  0
   26.1389  -17.1965  -13.8159 S   0  0  0  0  0  0  0  0  0  0  0  0
   26.1321  -19.8801  -14.9847 C   0  0  0  0  0  0  0  0  0  0  0  0
   25.3278  -20.1970  -15.9061 O   0  0  0  0  0  0  0  0  0  0  0  0
   25.8171  -20.2641  -13.6687 N   0  0  0  0  0  0  0  0  0  0  0  0
   26.4175  -19.8549  -12.4051 C   0  0  0  0  0  0  0  0  0  0  0  0
   26.2592  -21.0123  -11.4690 C   0  0  0  0  0  0  0  0  0  0  0  0
   25.5528  -22.0572  -12.2929 C   0  0  0  0  0  0  0  0  0  0  0  0
   24.7697  -21.2199  -13.2761 C   0  0  1  0  0  0  0  0  0  0  0  0
   23.6698  -20.5661  -12.5411 C   0  0  0  0  0  0  0  0  0  0  0  0
   23.7843  -19.3366  -12.3104 O   0  0  0  0  0  0  0  0  0  0  0  0
   22.5258  -21.2010  -12.0875 O   0  0  0  0  0  0  0  0  0  0  0  0
  1  2  1  0
  3  4  2  0
  3  2  1  0
  5  3  1  0
  6  5  1  0
  6  7  1  6
  8  7  1  0
  9 11  1  0
  9  6  1  0
 10  9  2  0
 11 12  1  0
 13 12  1  0
 14 15  1  0
 14 13  1  0
 15 11  1  0
 15 16  1  1
 16 18  1  0
 17 16  2  0
M  END
$$$$
