GCP.pdb
     RDKit          3D

 18 18  0  0  1  0  0  0  0  0999 V2000
   24.1269  -21.4599   -7.7225 N   0  0  0  0  0  0  0  0  0  0  0  0
   24.9106  -20.6364   -8.6217 C   0  0  0  0  0  0  0  0  0  0  0  0
   24.8099  -21.1190  -10.0285 C   0  0  0  0  0  0  0  0  0  0  0  0
   25.4502  -22.1367  -10.3963 O   0  0  0  0  0  0  0  0  0  0  0  0
   24.0066  -20.4740  -11.0062 N   0  0  0  0  0  0  0  0  0  0  0  0
   23.9529  -20.9552  -12.4006 C   0  0  1  0  0  0  0  0  0  0  0  0
   22.5008  -20.8989  -12.8814 C   0  0  0  0  0  0  0  0  0  0  0  0
   22.4551  -21.0553  -14.6997 S   0  0  0  0  0  0  0  0  0  0  0  0
   24.8600  -20.2040  -13.2600 C   0  0  0  0  0  0  0  0  0  0  0  0
   25.0114  -18.9697  -13.0364 O   0  0  0  0  0  0  0  0  0  0  0  0
   25.5785  -20.7778  -14.3244 N   0  0  0  0  0  0  0  0  0  0  0  0
   25.5607  -22.1418  -14.8380 C   0  0  0  0  0  0  0  0  0  0  0  0
   26.9237  -22.3976  -15.4018 C   0  0  0  0  0  0  0  0  0  0  0  0
   27.6687  -21.1106  -15.1601 C   0  0  0  0  0  0  0  0  0  0  0  0
   26.5592  -20.0860  -15.1756 C   0  0  1  0  0  0  0  0  0  0  0  0
   26.0869  -19.9489  -16.5668 C   0  0  0  0  0  0  0  0  0  0  0  0
   24.9897  -20.4876  -16.8565 O   0  0  0  0  0  0  0  0  0  0  0  0
   26.7574  -19.2751  -17.5737 O   0  0  0  0  0  0  0  0  0  0  0  0
  1  2  1  0
  3  4  2  0
  3  2  1  0
  5  3  1  0
  6  5  1  0
  6  7  1  6
  8  7  1  0
  9 11  1  0
  9  6  1  0
 10  9  2  0
 11 12  1  0
 13 12  1  0
 14 15  1  0
 14 13  1  0
 15 11  1  0
 15 16  1  6
 16 18  1  0
 17 16  2  0
M  END
$$$$
