GCP.pdb
     RDKit          3D

 18 18  0  0  1  0  0  0  0  0999 V2000
   17.8180  -22.3075  -11.0027 N   0  0  0  0  0  0  0  0  0  0  0  0
   18.2600  -22.0525  -12.3594 C   0  0  0  0  0  0  0  0  0  0  0  0
   19.6492  -22.5457  -12.5807 C   0  0  0  0  0  0  0  0  0  0  0  0
   20.5406  -22.3358  -11.7191 O   0  0  0  0  0  0  0  0  0  0  0  0
   20.0338  -23.2612  -13.7458 N   0  0  0  0  0  0  0  0  0  0  0  0
   21.4240  -23.7133  -13.9501 C   0  0  1  0  0  0  0  0  0  0  0  0
   21.4176  -24.8825  -14.9378 C   0  0  0  0  0  0  0  0  0  0  0  0
   23.1360  -25.3664  -15.3195 S   0  0  0  0  0  0  0  0  0  0  0  0
   22.2840  -22.6174  -14.3806 C   0  0  0  0  0  0  0  0  0  0  0  0
   21.7483  -21.6243  -14.9492 O   0  0  0  0  0  0  0  0  0  0  0  0
   23.6784  -22.6031  -14.1962 N   0  0  0  0  0  0  0  0  0  0  0  0
   24.5685  -23.6480  -13.7059 C   0  0  0  0  0  0  0  0  0  0  0  0
   25.7108  -22.9489  -13.0370 C   0  0  0  0  0  0  0  0  0  0  0  0
   25.3855  -21.4858  -13.1886 C   0  0  0  0  0  0  0  0  0  0  0  0
   24.5720  -21.4646  -14.4610 C   0  0  1  0  0  0  0  0  0  0  0  0
   25.4861  -21.7280  -15.5890 C   0  0  0  0  0  0  0  0  0  0  0  0
   25.3966  -22.8477  -16.1513 O   0  0  0  0  0  0  0  0  0  0  0  0
   26.4315  -20.8397  -16.0734 O   0  0  0  0  0  0  0  0  0  0  0  0
  1  2  1  0
  3  4  2  0
  3  2  1  0
  5  3  1  0
  6  5  1  0
  6  7  1  6
  8  7  1  0
  9 11  1  0
  9  6  1  0
 10  9  2  0
 11 12  1  0
 13 12  1  0
 14 15  1  0
 14 13  1  0
 15 11  1  0
 15 16  1  6
 16 18  1  0
 17 16  2  0
M  END
$$$$
