GCP.pdb
     RDKit          3D

 18 18  0  0  1  0  0  0  0  0999 V2000
   23.2830  -21.3981   -7.5343 N   0  0  0  0  0  0  0  0  0  0  0  0
   23.8998  -20.3594   -8.3353 C   0  0  0  0  0  0  0  0  0  0  0  0
   24.4667  -20.9111   -9.5987 C   0  0  0  0  0  0  0  0  0  0  0  0
   25.3272  -21.8271   -9.5599 O   0  0  0  0  0  0  0  0  0  0  0  0
   24.0773  -20.4457  -10.8829 N   0  0  0  0  0  0  0  0  0  0  0  0
   24.6553  -21.0125  -12.1171 C   0  0  1  0  0  0  0  0  0  0  0  0
   23.6146  -21.9254  -12.7699 C   0  0  0  0  0  0  0  0  0  0  0  0
   22.0099  -21.0587  -12.8512 S   0  0  0  0  0  0  0  0  0  0  0  0
   25.1281  -19.9656  -13.0151 C   0  0  0  0  0  0  0  0  0  0  0  0
   24.5818  -18.8282  -12.9481 O   0  0  0  0  0  0  0  0  0  0  0  0
   26.1611  -20.1506  -13.9516 N   0  0  0  0  0  0  0  0  0  0  0  0
   26.9040  -21.3553  -14.2999 C   0  0  0  0  0  0  0  0  0  0  0  0
   28.2631  -20.9017  -14.7335 C   0  0  0  0  0  0  0  0  0  0  0  0
   28.2115  -19.4025  -14.5951 C   0  0  0  0  0  0  0  0  0  0  0  0
   26.7457  -19.1074  -14.8087 C   0  0  1  0  0  0  0  0  0  0  0  0
   26.4415  -19.3273  -16.2357 C   0  0  0  0  0  0  0  0  0  0  0  0
   26.9316  -18.5152  -17.0592 O   0  0  0  0  0  0  0  0  0  0  0  0
   25.6601  -20.3557  -16.7351 O   0  0  0  0  0  0  0  0  0  0  0  0
  1  2  1  0
  3  4  2  0
  3  2  1  0
  5  3  1  0
  6  5  1  0
  6  7  1  6
  8  7  1  0
  9 11  1  0
  9  6  1  0
 10  9  2  0
 11 12  1  0
 13 12  1  0
 14 15  1  0
 14 13  1  0
 15 11  1  0
 15 16  1  6
 16 18  1  0
 17 16  2  0
M  END
$$$$
