GCP.pdb
     RDKit          3D

 18 18  0  0  1  0  0  0  0  0999 V2000
   29.2636  -21.4046  -18.9787 N   0  0  0  0  0  0  0  0  0  0  0  0
   28.4712  -20.2233  -18.7002 C   0  0  0  0  0  0  0  0  0  0  0  0
   28.1408  -20.1192  -17.2504 C   0  0  0  0  0  0  0  0  0  0  0  0
   28.4371  -21.0549  -16.4644 O   0  0  0  0  0  0  0  0  0  0  0  0
   27.4903  -18.9877  -16.6901 N   0  0  0  0  0  0  0  0  0  0  0  0
   27.1334  -18.9328  -15.2589 C   0  0  1  0  0  0  0  0  0  0  0  0
   27.0765  -17.4661  -14.8252 C   0  0  0  0  0  0  0  0  0  0  0  0
   25.4933  -17.1433  -13.9756 S   0  0  0  0  0  0  0  0  0  0  0  0
   25.8914  -19.6478  -14.9905 C   0  0  0  0  0  0  0  0  0  0  0  0
   25.0586  -19.7747  -15.9322 O   0  0  0  0  0  0  0  0  0  0  0  0
   25.5689  -20.2066  -13.7406 N   0  0  0  0  0  0  0  0  0  0  0  0
   26.1801  -19.9942  -12.4346 C   0  0  0  0  0  0  0  0  0  0  0  0
   25.9959  -21.2684  -11.6708 C   0  0  0  0  0  0  0  0  0  0  0  0
   25.2643  -22.1697  -12.6309 C   0  0  0  0  0  0  0  0  0  0  0  0
   24.4999  -21.1840  -13.4825 C   0  0  1  0  0  0  0  0  0  0  0  0
   23.4164  -20.6157  -12.6576 C   0  0  0  0  0  0  0  0  0  0  0  0
   22.4431  -21.3644  -12.3929 O   0  0  0  0  0  0  0  0  0  0  0  0
   23.3898  -19.3257  -12.1550 O   0  0  0  0  0  0  0  0  0  0  0  0
  1  2  1  0
  3  4  2  0
  3  2  1  0
  5  3  1  0
  6  5  1  0
  6  7  1  6
  8  7  1  0
  9 11  1  0
  9  6  1  0
 10  9  2  0
 11 12  1  0
 13 12  1  0
 14 15  1  0
 14 13  1  0
 15 11  1  0
 15 16  1  1
 16 18  1  0
 17 16  2  0
M  END
$$$$
