GCP.pdb
     RDKit          3D

 18 18  0  0  1  0  0  0  0  0999 V2000
   18.9320  -13.3160  -16.2123 N   0  0  0  0  0  0  0  0  0  0  0  0
   18.3803  -12.2517  -15.3976 C   0  0  0  0  0  0  0  0  0  0  0  0
   18.9494  -10.9267  -15.7753 C   0  0  0  0  0  0  0  0  0  0  0  0
   19.8723  -10.8530  -16.6261 O   0  0  0  0  0  0  0  0  0  0  0  0
   18.4935   -9.7058  -15.2107 N   0  0  0  0  0  0  0  0  0  0  0  0
   19.0157   -8.4024  -15.6660 C   0  0  1  0  0  0  0  0  0  0  0  0
   17.8325   -7.4743  -15.9509 C   0  0  0  0  0  0  0  0  0  0  0  0
   16.7780   -7.3584  -14.4651 S   0  0  0  0  0  0  0  0  0  0  0  0
   19.9551   -7.8381  -14.7042 C   0  0  0  0  0  0  0  0  0  0  0  0
   19.9154   -8.2568  -13.5127 O   0  0  0  0  0  0  0  0  0  0  0  0
   20.9057   -6.8537  -15.0296 N   0  0  0  0  0  0  0  0  0  0  0  0
   21.0968   -6.1103  -16.2687 C   0  0  0  0  0  0  0  0  0  0  0  0
   22.5578   -5.7944  -16.3495 C   0  0  0  0  0  0  0  0  0  0  0  0
   23.1359   -6.4077  -15.1009 C   0  0  0  0  0  0  0  0  0  0  0  0
   21.9690   -6.3548  -14.1434 C   0  0  1  0  0  0  0  0  0  0  0  0
   21.7574   -4.9450  -13.7627 C   0  0  0  0  0  0  0  0  0  0  0  0
   20.8583   -4.3142  -14.3724 O   0  0  0  0  0  0  0  0  0  0  0  0
   22.4709   -4.2662  -12.7893 O   0  0  0  0  0  0  0  0  0  0  0  0
  1  2  1  0
  3  4  2  0
  3  2  1  0
  5  3  1  0
  6  5  1  0
  6  7  1  1
  8  7  1  0
  9 11  1  0
  9  6  1  0
 10  9  2  0
 11 12  1  0
 13 12  1  0
 14 15  1  0
 14 13  1  0
 15 11  1  0
 15 16  1  6
 16 18  1  0
 17 16  2  0
M  END
$$$$
