GCP.pdb
     RDKit          3D

 18 18  0  0  1  0  0  0  0  0999 V2000
   19.9494  -20.0599  -13.7106 N   0  0  0  0  0  0  0  0  0  0  0  0
   20.9878  -21.0444  -13.4793 C   0  0  0  0  0  0  0  0  0  0  0  0
   22.3342  -20.4087  -13.4087 C   0  0  0  0  0  0  0  0  0  0  0  0
   22.5479  -19.3119  -13.9852 O   0  0  0  0  0  0  0  0  0  0  0  0
   23.4224  -20.9905  -12.7053 N   0  0  0  0  0  0  0  0  0  0  0  0
   24.8005  -20.4852  -12.8610 C   0  0  1  0  0  0  0  0  0  0  0  0
   25.6334  -20.9615  -11.6684 C   0  0  0  0  0  0  0  0  0  0  0  0
   25.8844  -22.7662  -11.7830 S   0  0  0  0  0  0  0  0  0  0  0  0
   25.3731  -20.8818  -14.1418 C   0  0  0  0  0  0  0  0  0  0  0  0
   24.7733  -21.7651  -14.8176 O   0  0  0  0  0  0  0  0  0  0  0  0
   26.5565  -20.3339  -14.6690 N   0  0  0  0  0  0  0  0  0  0  0  0
   27.5898  -19.5374  -14.0191 C   0  0  0  0  0  0  0  0  0  0  0  0
   28.1657  -18.6495  -15.0779 C   0  0  0  0  0  0  0  0  0  0  0  0
   27.3888  -19.0056  -16.3185 C   0  0  0  0  0  0  0  0  0  0  0  0
   27.0128  -20.4460  -16.0633 C   0  0  1  0  0  0  0  0  0  0  0  0
   28.2359  -21.2626  -16.1825 C   0  0  0  0  0  0  0  0  0  0  0  0
   28.6997  -21.7598  -15.1262 O   0  0  0  0  0  0  0  0  0  0  0  0
   28.9095  -21.5221  -17.3642 O   0  0  0  0  0  0  0  0  0  0  0  0
  1  2  1  0
  3  4  2  0
  3  2  1  0
  5  3  1  0
  6  5  1  0
  6  7  1  1
  8  7  1  0
  9 11  1  0
  9  6  1  0
 10  9  2  0
 11 12  1  0
 13 12  1  0
 14 15  1  0
 14 13  1  0
 15 11  1  0
 15 16  1  1
 16 18  1  0
 17 16  2  0
M  END
$$$$
