GCP.pdb
     RDKit          3D

 18 18  0  0  1  0  0  0  0  0999 V2000
   28.6684  -18.1497  -15.6901 N   0  0  0  0  0  0  0  0  0  0  0  0
   27.8907  -18.0440  -14.4715 C   0  0  0  0  0  0  0  0  0  0  0  0
   27.2867  -19.3541  -14.0962 C   0  0  0  0  0  0  0  0  0  0  0  0
   27.0234  -20.2070  -14.9818 O   0  0  0  0  0  0  0  0  0  0  0  0
   26.9828  -19.7034  -12.7535 N   0  0  0  0  0  0  0  0  0  0  0  0
   26.1805  -20.8993  -12.4298 C   0  0  1  0  0  0  0  0  0  0  0  0
   26.3402  -21.2062  -10.9388 C   0  0  0  0  0  0  0  0  0  0  0  0
   25.0562  -20.3171   -9.9933 S   0  0  0  0  0  0  0  0  0  0  0  0
   24.7870  -20.7300  -12.8236 C   0  0  0  0  0  0  0  0  0  0  0  0
   24.3242  -19.5566  -12.8970 O   0  0  0  0  0  0  0  0  0  0  0  0
   23.9282  -21.8014  -13.1289 N   0  0  0  0  0  0  0  0  0  0  0  0
   24.0957  -23.2306  -12.8967 C   0  0  0  0  0  0  0  0  0  0  0  0
   23.3403  -23.9259  -13.9862 C   0  0  0  0  0  0  0  0  0  0  0  0
   22.7682  -22.8026  -14.8111 C   0  0  0  0  0  0  0  0  0  0  0  0
   22.6199  -21.6962  -13.7937 C   0  0  1  0  0  0  0  0  0  0  0  0
   21.5089  -22.0548  -12.8913 C   0  0  0  0  0  0  0  0  0  0  0  0
   20.3422  -21.9352  -13.3412 O   0  0  0  0  0  0  0  0  0  0  0  0
   21.6527  -22.5108  -11.5918 O   0  0  0  0  0  0  0  0  0  0  0  0
  1  2  1  0
  3  4  2  0
  3  2  1  0
  5  3  1  0
  6  5  1  0
  6  7  1  1
  8  7  1  0
  9 11  1  0
  9  6  1  0
 10  9  2  0
 11 12  1  0
 13 12  1  0
 14 15  1  0
 14 13  1  0
 15 11  1  0
 15 16  1  1
 16 18  1  0
 17 16  2  0
M  END
$$$$
