GCP.pdb
     RDKit          3D

 18 18  0  0  1  0  0  0  0  0999 V2000
   15.7489   -1.5436  -16.1380 N   0  0  0  0  0  0  0  0  0  0  0  0
   17.0327   -1.2819  -16.7578 C   0  0  0  0  0  0  0  0  0  0  0  0
   18.0959   -1.0638  -15.7359 C   0  0  0  0  0  0  0  0  0  0  0  0
   17.7866   -0.8422  -14.5375 O   0  0  0  0  0  0  0  0  0  0  0  0
   19.4807   -1.0933  -16.0499 N   0  0  0  0  0  0  0  0  0  0  0  0
   20.5103   -0.8338  -15.0245 C   0  0  1  0  0  0  0  0  0  0  0  0
   21.2355   -2.1460  -14.7169 C   0  0  0  0  0  0  0  0  0  0  0  0
   22.5259   -1.8485  -13.4602 S   0  0  0  0  0  0  0  0  0  0  0  0
   21.4195    0.2285  -15.4377 C   0  0  0  0  0  0  0  0  0  0  0  0
   21.7335    0.3059  -16.6591 O   0  0  0  0  0  0  0  0  0  0  0  0
   21.9658    1.1745  -14.5516 N   0  0  0  0  0  0  0  0  0  0  0  0
   21.8124    1.3024  -13.1078 C   0  0  0  0  0  0  0  0  0  0  0  0
   21.9432    2.7611  -12.7977 C   0  0  0  0  0  0  0  0  0  0  0  0
   22.1674    3.4037  -14.1417 C   0  0  0  0  0  0  0  0  0  0  0  0
   22.8400    2.2987  -14.9213 C   0  0  1  0  0  0  0  0  0  0  0  0
   24.2071    2.1357  -14.3905 C   0  0  0  0  0  0  0  0  0  0  0  0
   24.4487    1.0902  -13.7374 O   0  0  0  0  0  0  0  0  0  0  0  0
   25.2402    3.0428  -14.5560 O   0  0  0  0  0  0  0  0  0  0  0  0
  1  2  1  0
  3  4  2  0
  3  2  1  0
  5  3  1  0
  6  5  1  0
  6  7  1  6
  8  7  1  0
  9 11  1  0
  9  6  1  0
 10  9  2  0
 11 12  1  0
 13 12  1  0
 14 15  1  0
 14 13  1  0
 15 11  1  0
 15 16  1  1
 16 18  1  0
 17 16  2  0
M  END
$$$$
