GCP.pdb
     RDKit          3D

 18 18  0  0  1  0  0  0  0  0999 V2000
   23.7102  -11.3521  -17.8050 N   0  0  0  0  0  0  0  0  0  0  0  0
   24.0913  -10.3490  -16.8306 C   0  0  0  0  0  0  0  0  0  0  0  0
   22.9461   -9.4569  -16.4918 C   0  0  0  0  0  0  0  0  0  0  0  0
   22.1493   -9.0807  -17.3889 O   0  0  0  0  0  0  0  0  0  0  0  0
   22.6972   -8.9940  -15.1723 N   0  0  0  0  0  0  0  0  0  0  0  0
   21.5434   -8.1267  -14.8635 C   0  0  1  0  0  0  0  0  0  0  0  0
   21.1912   -8.2905  -13.3830 C   0  0  0  0  0  0  0  0  0  0  0  0
   19.8125   -7.1719  -12.9578 S   0  0  0  0  0  0  0  0  0  0  0  0
   21.8048   -6.7399  -15.2299 C   0  0  0  0  0  0  0  0  0  0  0  0
   22.9417   -6.2556  -14.9668 O   0  0  0  0  0  0  0  0  0  0  0  0
   20.8612   -5.9104  -15.8626 N   0  0  0  0  0  0  0  0  0  0  0  0
   19.4973   -6.1990  -16.2878 C   0  0  0  0  0  0  0  0  0  0  0  0
   19.2315   -5.3246  -17.4735 C   0  0  0  0  0  0  0  0  0  0  0  0
   20.5169   -4.5622  -17.6631 C   0  0  0  0  0  0  0  0  0  0  0  0
   21.0727   -4.5096  -16.2597 C   0  0  1  0  0  0  0  0  0  0  0  0
   20.2384   -3.5790  -15.4753 C   0  0  0  0  0  0  0  0  0  0  0  0
   20.3534   -2.3536  -15.7266 O   0  0  0  0  0  0  0  0  0  0  0  0
   19.3422   -3.9508  -14.4874 O   0  0  0  0  0  0  0  0  0  0  0  0
  1  2  1  0
  3  4  2  0
  3  2  1  0
  5  3  1  0
  6  5  1  0
  6  7  1  1
  8  7  1  0
  9 11  1  0
  9  6  1  0
 10  9  2  0
 11 12  1  0
 13 12  1  0
 14 15  1  0
 14 13  1  0
 15 11  1  0
 15 16  1  1
 16 18  1  0
 17 16  2  0
M  END
$$$$
