RRD.pdb
     RDKit          3D

 31 30  0  0  1  0  0  0  0  0999 V2000
    9.9223  -15.0036   16.3823 N   0  0  0  0  0  0  0  0  0  0  0  0
    8.4965  -14.8810   16.3119 C   0  0  0  0  0  0  0  0  0  0  0  0
    7.9684  -15.1022   15.1592 N   0  0  0  0  0  0  0  0  0  0  0  0
    7.7960  -14.5431   17.4763 N   0  0  0  0  0  0  0  0  0  0  0  0
    8.1139  -13.2472   18.1164 C   0  0  0  0  0  0  0  0  0  0  0  0
    7.2450  -13.0698   19.3266 C   0  0  0  0  0  0  0  0  0  0  0  0
    7.8971  -13.3172   20.6250 C   0  0  0  0  0  0  0  0  0  0  0  0
    8.3281  -14.7256   20.9226 C   0  0  2  0  0  0  0  0  0  0  0  0
    7.3823  -15.6662   20.4262 N   0  0  0  0  0  0  0  0  0  0  0  0
    8.6252  -14.8396   22.3556 C   0  0  0  0  0  0  0  0  0  0  0  0
    9.5079  -14.1038   22.8705 O   0  0  0  0  0  0  0  0  0  0  0  0
    6.9319  -15.0464   15.0786 N   0  0  0  0  0  0  0  0  0  0  0  0
    8.8065  -20.5031   25.4630 C   0  0  0  0  0  0  0  0  0  0  0  0
    8.5968  -19.9990   26.7651 N   0  0  0  0  0  0  0  0  0  0  0  0
    9.0985  -20.6228   27.7965 N   0  0  0  0  0  0  0  0  0  0  0  0
    7.8334  -18.7936   26.9813 C   0  0  0  0  0  0  0  0  0  0  0  0
    6.5698  -18.6195   26.3406 C   0  0  0  0  0  0  0  0  0  0  0  0
    6.6559  -17.6530   25.1537 C   0  0  0  0  0  0  0  0  0  0  0  0
    7.3414  -16.3790   25.5945 C   0  0  1  0  0  0  0  0  0  0  0  0
    8.3094  -15.8106   24.6477 N   0  0  0  0  0  0  0  0  0  0  0  0
    7.9915  -15.7378   23.2697 C   0  0  0  0  0  0  0  0  0  0  0  0
    9.6014  -16.5727   24.7911 O   0  0  0  0  0  0  0  0  0  0  0  0
   10.0631  -16.7352   25.9430 N   0  0  0  0  0  0  0  0  0  0  0  0
    9.0094  -20.3061   28.7653 C   0  0  1  0  0  0  0  0  0  0  0  0
   10.3136  -17.1094   23.7029 C   0  0  0  0  0  0  0  0  0  0  0  0
   11.6962  -17.5552   23.7963 C   0  0  0  0  0  0  0  0  0  0  0  0
   12.5802  -16.5071   23.1280 O   0  0  0  0  0  0  0  0  0  0  0  0
   13.9923  -16.9500   23.1717 C   0  0  0  0  0  0  0  0  0  0  0  0
   14.8702  -16.0899   22.8226 O   0  0  0  0  0  0  0  0  0  0  0  0
   12.1092  -17.8119   25.1768 O   0  0  0  0  0  0  0  0  0  0  0  0
   11.7973  -17.0460   26.1017 O   0  0  0  0  0  0  0  0  0  0  0  0
  2  1  1  0
  3  2  2  0
  4  2  1  0
  5  4  1  0
  6  5  1  0
  7  6  1  0
  8  7  1  0
  8  9  1  1
  8 10  1  0
 10 11  2  0
 13 14  2  0
 13 12  1  0
 15 13  1  0
 16 15  1  0
 16 17  1  0
 18 17  1  0
 19 18  1  1
 19 21  1  0
 20 10  1  0
 20 19  1  0
 21 23  1  0
 22 21  2  0
 23 24  1  0
 24 25  1  6
 25 26  1  0
 26 27  2  0
 28 24  1  0
 28 31  1  0
 29 28  2  0
 30 26  1  0
M  END
$$$$
