RRD.pdb
     RDKit          3D

 31 30  0  0  1  0  0  0  0  0999 V2000
    7.0606  -12.6710   15.2617 N   0  0  0  0  0  0  0  0  0  0  0  0
    7.3866  -13.8848   14.5739 C   0  0  0  0  0  0  0  0  0  0  0  0
    7.1856  -13.8833   13.3026 N   0  0  0  0  0  0  0  0  0  0  0  0
    7.8941  -14.9584   15.3160 N   0  0  0  0  0  0  0  0  0  0  0  0
    7.6937  -14.9345   16.7820 C   0  0  0  0  0  0  0  0  0  0  0  0
    8.0756  -13.5825   17.3090 C   0  0  0  0  0  0  0  0  0  0  0  0
    8.2508  -13.4905   18.7695 C   0  0  0  0  0  0  0  0  0  0  0  0
    9.0657  -14.5635   19.4349 C   0  0  2  0  0  0  0  0  0  0  0  0
    8.8067  -15.8370   18.8548 N   0  0  0  0  0  0  0  0  0  0  0  0
    8.8584  -14.4874   20.8861 C   0  0  0  0  0  0  0  0  0  0  0  0
    8.1625  -13.5557   21.3691 O   0  0  0  0  0  0  0  0  0  0  0  0
    7.4862  -14.7196   12.7602 N   0  0  0  0  0  0  0  0  0  0  0  0
    6.5675  -12.1401   27.5962 C   0  0  0  0  0  0  0  0  0  0  0  0
    6.6329  -12.1470   26.1857 N   0  0  0  0  0  0  0  0  0  0  0  0
    6.5057  -11.0311   25.5199 N   0  0  0  0  0  0  0  0  0  0  0  0
    6.8428  -13.3750   25.4574 C   0  0  0  0  0  0  0  0  0  0  0  0
    7.5424  -14.4600   26.0662 C   0  0  0  0  0  0  0  0  0  0  0  0
    7.5545  -15.7077   25.1756 C   0  0  0  0  0  0  0  0  0  0  0  0
    7.7476  -15.2919   23.7343 C   0  0  1  0  0  0  0  0  0  0  0  0
    9.1312  -15.3053   23.2425 N   0  0  0  0  0  0  0  0  0  0  0  0
    9.3868  -15.3984   21.8528 C   0  0  0  0  0  0  0  0  0  0  0  0
    9.8571  -16.4332   23.9293 O   0  0  0  0  0  0  0  0  0  0  0  0
    9.2489  -17.5163   24.0826 N   0  0  0  0  0  0  0  0  0  0  0  0
    6.5641  -10.9539   24.5013 C   0  0  1  0  0  0  0  0  0  0  0  0
   11.1773  -16.3339   24.4054 C   0  0  0  0  0  0  0  0  0  0  0  0
   11.8835  -17.4401   25.0351 C   0  0  0  0  0  0  0  0  0  0  0  0
   13.3592  -17.0675   25.1344 O   0  0  0  0  0  0  0  0  0  0  0  0
   13.8605  -16.6707   23.7990 C   0  0  0  0  0  0  0  0  0  0  0  0
   13.5150  -17.4119   22.8175 O   0  0  0  0  0  0  0  0  0  0  0  0
   11.3238  -17.7899   26.3415 O   0  0  0  0  0  0  0  0  0  0  0  0
   11.5864  -18.8699   26.8930 O   0  0  0  0  0  0  0  0  0  0  0  0
  2  1  1  0
  3  2  2  0
  4  2  1  0
  5  4  1  0
  6  5  1  0
  7  6  1  0
  8  7  1  0
  8  9  1  6
  8 10  1  0
 10 11  2  0
 13 14  2  0
 13 12  1  0
 15 13  1  0
 16 15  1  0
 16 17  1  0
 18 17  1  0
 19 18  1  6
 19 21  1  0
 20 10  1  0
 20 19  1  0
 21 23  1  0
 22 21  2  0
 23 24  1  0
 24 25  1  1
 25 26  1  0
 26 27  2  0
 28 24  1  0
 28 31  1  0
 29 28  2  0
 30 26  1  0
M  END
$$$$
