RRD.pdb
     RDKit          3D

 31 30  0  0  1  0  0  0  0  0999 V2000
    7.8138  -18.3615   13.4681 N   0  0  0  0  0  0  0  0  0  0  0  0
    6.9033  -17.4524   14.0984 C   0  0  0  0  0  0  0  0  0  0  0  0
    5.8683  -17.9833   14.6494 N   0  0  0  0  0  0  0  0  0  0  0  0
    7.2009  -16.0843   14.0753 N   0  0  0  0  0  0  0  0  0  0  0  0
    8.2872  -15.6036   14.9578 C   0  0  0  0  0  0  0  0  0  0  0  0
    8.6206  -16.6735   15.9555 C   0  0  0  0  0  0  0  0  0  0  0  0
    8.9765  -16.2016   17.3056 C   0  0  0  0  0  0  0  0  0  0  0  0
    8.0730  -15.1820   17.9399 C   0  0  2  0  0  0  0  0  0  0  0  0
    7.9403  -14.0310   17.1134 N   0  0  0  0  0  0  0  0  0  0  0  0
    8.5404  -14.9163   19.3058 C   0  0  0  0  0  0  0  0  0  0  0  0
    9.7607  -14.6862   19.5141 O   0  0  0  0  0  0  0  0  0  0  0  0
    5.1859  -17.3508   15.1166 N   0  0  0  0  0  0  0  0  0  0  0  0
    8.3225  -14.7090   26.9642 C   0  0  0  0  0  0  0  0  0  0  0  0
    8.1001  -13.3299   27.1698 N   0  0  0  0  0  0  0  0  0  0  0  0
    8.5928  -12.7383   28.2243 N   0  0  0  0  0  0  0  0  0  0  0  0
    7.3337  -12.5519   26.2266 C   0  0  0  0  0  0  0  0  0  0  0  0
    6.7929  -13.1691   25.0587 C   0  0  0  0  0  0  0  0  0  0  0  0
    7.8906  -13.6710   24.1135 C   0  0  0  0  0  0  0  0  0  0  0  0
    7.2807  -14.0039   22.7702 C   0  0  1  0  0  0  0  0  0  0  0  0
    8.2017  -14.5493   21.7648 N   0  0  0  0  0  0  0  0  0  0  0  0
    7.7213  -14.8908   20.4772 C   0  0  0  0  0  0  0  0  0  0  0  0
    8.8660  -15.7662   22.3553 O   0  0  0  0  0  0  0  0  0  0  0  0
    8.2428  -16.8510   22.3202 N   0  0  0  0  0  0  0  0  0  0  0  0
    8.4563  -11.7500   28.4515 C   0  0  2  0  0  0  0  0  0  0  0  0
   10.1447  -15.7477   22.9417 C   0  0  0  0  0  0  0  0  0  0  0  0
   10.7351  -16.9015   23.6044 C   0  0  0  0  0  0  0  0  0  0  0  0
   12.2247  -16.6321   23.7915 O   0  0  0  0  0  0  0  0  0  0  0  0
   12.8763  -16.5127   22.4675 C   0  0  0  0  0  0  0  0  0  0  0  0
   12.3977  -17.2366   21.5297 O   0  0  0  0  0  0  0  0  0  0  0  0
   10.0774  -17.2149   24.8739 O   0  0  0  0  0  0  0  0  0  0  0  0
    9.1935  -16.4833   25.3459 O   0  0  0  0  0  0  0  0  0  0  0  0
  2  1  1  0
  3  2  2  0
  4  2  1  0
  5  4  1  0
  6  5  1  0
  7  6  1  0
  8  7  1  0
  8  9  1  6
  8 10  1  0
 10 11  2  0
 13 14  2  0
 13 12  1  0
 15 13  1  0
 16 15  1  0
 16 17  1  0
 18 17  1  0
 19 18  1  6
 19 21  1  0
 20 10  1  0
 20 19  1  0
 21 23  1  0
 22 21  2  0
 23 24  1  0
 24 25  1  1
 25 26  1  0
 26 27  2  0
 28 24  1  0
 28 31  1  0
 29 28  2  0
 30 26  1  0
M  END
$$$$
