RRD.pdb
     RDKit          3D

 31 30  0  0  1  0  0  0  0  0999 V2000
    7.4110  -25.3975   19.3171 N   0  0  0  0  0  0  0  0  0  0  0  0
    8.6177  -25.3385   18.5469 C   0  0  0  0  0  0  0  0  0  0  0  0
    8.7682  -26.2629   17.6641 N   0  0  0  0  0  0  0  0  0  0  0  0
    9.5225  -24.3003   18.8000 N   0  0  0  0  0  0  0  0  0  0  0  0
    9.1771  -23.3341   19.8665 C   0  0  0  0  0  0  0  0  0  0  0  0
    8.2602  -22.2878   19.3045 C   0  0  0  0  0  0  0  0  0  0  0  0
    8.7200  -20.8940   19.4393 C   0  0  0  0  0  0  0  0  0  0  0  0
    7.7710  -19.8106   19.0110 C   0  0  2  0  0  0  0  0  0  0  0  0
    7.5758  -19.8288   17.6013 N   0  0  0  0  0  0  0  0  0  0  0  0
    8.2332  -18.5293   19.5584 C   0  0  0  0  0  0  0  0  0  0  0  0
    9.1294  -17.8807   18.9569 O   0  0  0  0  0  0  0  0  0  0  0  0
    9.5886  -26.1995   17.0263 N   0  0  0  0  0  0  0  0  0  0  0  0
    7.2236  -12.9960   17.8900 C   0  0  0  0  0  0  0  0  0  0  0  0
    7.9906  -12.8529   19.0669 N   0  0  0  0  0  0  0  0  0  0  0  0
    9.0198  -12.0496   19.0829 N   0  0  0  0  0  0  0  0  0  0  0  0
    7.6549  -13.5821   20.2660 C   0  0  0  0  0  0  0  0  0  0  0  0
    8.6080  -13.7060   21.3213 C   0  0  0  0  0  0  0  0  0  0  0  0
    8.0541  -14.5080   22.5045 C   0  0  0  0  0  0  0  0  0  0  0  0
    7.3989  -15.7705   21.9904 C   0  0  2  0  0  0  0  0  0  0  0  0
    8.2807  -16.7096   21.2853 N   0  0  0  0  0  0  0  0  0  0  0  0
    7.7536  -17.9124   20.7555 C   0  0  0  0  0  0  0  0  0  0  0  0
    9.4170  -17.0628   22.2098 O   0  0  0  0  0  0  0  0  0  0  0  0
    9.1674  -17.7924   23.1956 N   0  0  0  0  0  0  0  0  0  0  0  0
    9.6712  -11.9577   19.8665 C   0  0  2  0  0  0  0  0  0  0  0  0
   10.7387  -16.6178   22.0243 C   0  0  0  0  0  0  0  0  0  0  0  0
   11.8252  -16.9424   22.9371 C   0  0  0  0  0  0  0  0  0  0  0  0
   12.9921  -16.0062   22.6399 O   0  0  0  0  0  0  0  0  0  0  0  0
   14.2624  -16.6593   23.0295 C   0  0  0  0  0  0  0  0  0  0  0  0
   14.3692  -17.9036   22.7600 O   0  0  0  0  0  0  0  0  0  0  0  0
   11.4169  -16.8709   24.3408 O   0  0  0  0  0  0  0  0  0  0  0  0
   11.8340  -17.6827   25.1812 O   0  0  0  0  0  0  0  0  0  0  0  0
  2  1  1  0
  3  2  2  0
  4  2  1  0
  5  4  1  0
  6  5  1  0
  7  6  1  0
  8  7  1  0
  8  9  1  6
  8 10  1  0
 10 11  2  0
 13 14  2  0
 13 12  1  0
 15 13  1  0
 16 15  1  0
 16 17  1  0
 18 17  1  0
 19 18  1  6
 19 21  1  0
 20 10  1  0
 20 19  1  0
 21 23  1  0
 22 21  2  0
 23 24  1  0
 24 25  1  1
 25 26  1  0
 26 27  2  0
 28 24  1  0
 28 31  1  0
 29 28  2  0
 30 26  1  0
M  END
$$$$
