RRD.pdb
     RDKit          3D

 31 30  0  0  1  0  0  0  0  0999 V2000
    9.0329  -14.5116   12.2565 N   0  0  0  0  0  0  0  0  0  0  0  0
    9.3531  -15.6768   13.0264 C   0  0  0  0  0  0  0  0  0  0  0  0
    8.6775  -16.7371   12.7509 N   0  0  0  0  0  0  0  0  0  0  0  0
   10.3585  -15.5819   13.9963 N   0  0  0  0  0  0  0  0  0  0  0  0
   10.2122  -16.4032   15.2187 C   0  0  0  0  0  0  0  0  0  0  0  0
   11.0824  -17.6198   15.1013 C   0  0  0  0  0  0  0  0  0  0  0  0
   12.4545  -17.4783   15.6203 C   0  0  0  0  0  0  0  0  0  0  0  0
   12.7743  -18.1632   16.9191 C   0  0  2  0  0  0  0  0  0  0  0  0
   12.0807  -19.4011   17.0294 N   0  0  0  0  0  0  0  0  0  0  0  0
   12.5461  -17.2220   18.0221 C   0  0  0  0  0  0  0  0  0  0  0  0
   13.1697  -16.1284   18.0485 O   0  0  0  0  0  0  0  0  0  0  0  0
    8.8926  -17.6049   13.2844 N   0  0  0  0  0  0  0  0  0  0  0  0
    6.2497  -13.2565   21.8906 C   0  0  0  0  0  0  0  0  0  0  0  0
    7.1516  -13.0454   20.8250 N   0  0  0  0  0  0  0  0  0  0  0  0
    6.7833  -12.3468   19.7853 N   0  0  0  0  0  0  0  0  0  0  0  0
    8.4877  -13.5894   20.8632 C   0  0  0  0  0  0  0  0  0  0  0  0
    8.9015  -14.3999   21.9629 C   0  0  0  0  0  0  0  0  0  0  0  0
   10.3055  -14.9787   21.7536 C   0  0  0  0  0  0  0  0  0  0  0  0
   10.2765  -15.9581   20.6014 C   0  0  2  0  0  0  0  0  0  0  0  0
   11.5668  -16.5550   20.2340 N   0  0  0  0  0  0  0  0  0  0  0  0
   11.6520  -17.4241   19.1193 C   0  0  0  0  0  0  0  0  0  0  0  0
   12.1006  -17.2850   21.4394 O   0  0  0  0  0  0  0  0  0  0  0  0
   11.8398  -18.5040   21.5512 N   0  0  0  0  0  0  0  0  0  0  0  0
    7.3359  -12.2443   18.9303 C   0  0  1  0  0  0  0  0  0  0  0  0
   12.8738  -16.6715   22.4419 C   0  0  0  0  0  0  0  0  0  0  0  0
   13.3739  -17.3814   23.6102 C   0  0  0  0  0  0  0  0  0  0  0  0
   14.5226  -16.5720   24.2032 O   0  0  0  0  0  0  0  0  0  0  0  0
   15.7937  -16.9689   23.5560 C   0  0  0  0  0  0  0  0  0  0  0  0
   16.0117  -18.2234   23.4506 O   0  0  0  0  0  0  0  0  0  0  0  0
   12.3260  -17.6398   24.5989 O   0  0  0  0  0  0  0  0  0  0  0  0
   11.1893  -17.1563   24.4827 O   0  0  0  0  0  0  0  0  0  0  0  0
  2  1  1  0
  3  2  2  0
  4  2  1  0
  5  4  1  0
  6  5  1  0
  7  6  1  0
  8  7  1  0
  8  9  1  1
  8 10  1  0
 10 11  2  0
 13 14  2  0
 13 12  1  0
 15 13  1  0
 16 15  1  0
 16 17  1  0
 18 17  1  0
 19 18  1  6
 19 21  1  0
 20 10  1  0
 20 19  1  0
 21 23  1  0
 22 21  2  0
 23 24  1  0
 24 25  1  1
 25 26  1  0
 26 27  2  0
 28 24  1  0
 28 31  1  0
 29 28  2  0
 30 26  1  0
M  END
$$$$
