RRD.pdb
     RDKit          3D

 31 30  0  0  1  0  0  0  0  0999 V2000
   16.3151  -13.5142   17.4375 N   0  0  0  0  0  0  0  0  0  0  0  0
   15.5600  -13.8614   16.2704 C   0  0  0  0  0  0  0  0  0  0  0  0
   15.9435  -13.3170   15.1690 N   0  0  0  0  0  0  0  0  0  0  0  0
   14.4880  -14.7516   16.4078 N   0  0  0  0  0  0  0  0  0  0  0  0
   14.3762  -15.4996   17.6799 C   0  0  0  0  0  0  0  0  0  0  0  0
   13.0287  -15.2401   18.2866 C   0  0  0  0  0  0  0  0  0  0  0  0
   13.0183  -14.9856   19.7383 C   0  0  0  0  0  0  0  0  0  0  0  0
   12.6205  -16.1241   20.6349 C   0  0  2  0  0  0  0  0  0  0  0  0
   12.2765  -17.2776   19.8755 N   0  0  0  0  0  0  0  0  0  0  0  0
   11.5831  -15.6585   21.5632 C   0  0  0  0  0  0  0  0  0  0  0  0
   11.7356  -14.5676   22.1734 O   0  0  0  0  0  0  0  0  0  0  0  0
   15.3575  -13.4658   14.3213 N   0  0  0  0  0  0  0  0  0  0  0  0
    8.0738  -13.5013   17.1834 C   0  0  0  0  0  0  0  0  0  0  0  0
    8.8664  -13.1367   18.2935 N   0  0  0  0  0  0  0  0  0  0  0  0
    9.5334  -12.0143   18.2803 N   0  0  0  0  0  0  0  0  0  0  0  0
    8.9531  -13.9870   19.4562 C   0  0  0  0  0  0  0  0  0  0  0  0
    7.7788  -14.6036   19.9838 C   0  0  0  0  0  0  0  0  0  0  0  0
    7.6512  -14.3955   21.4972 C   0  0  0  0  0  0  0  0  0  0  0  0
    7.9786  -15.6889   22.2095 C   0  0  2  0  0  0  0  0  0  0  0  0
    9.3547  -15.8177   22.7057 N   0  0  0  0  0  0  0  0  0  0  0  0
   10.3640  -16.3427   21.8626 C   0  0  0  0  0  0  0  0  0  0  0  0
    9.3187  -16.6445   23.9649 O   0  0  0  0  0  0  0  0  0  0  0  0
    8.2053  -17.0432   24.3745 N   0  0  0  0  0  0  0  0  0  0  0  0
   10.1650  -11.7064   19.0240 C   0  0  1  0  0  0  0  0  0  0  0  0
   10.4660  -16.9910   24.7019 C   0  0  0  0  0  0  0  0  0  0  0  0
   10.6983  -18.3250   25.2360 C   0  0  0  0  0  0  0  0  0  0  0  0
   11.2520  -19.1971   24.1137 O   0  0  0  0  0  0  0  0  0  0  0  0
   10.3584  -20.3585   23.9026 C   0  0  0  0  0  0  0  0  0  0  0  0
    9.8780  -20.9060   24.9523 O   0  0  0  0  0  0  0  0  0  0  0  0
   11.5837  -18.3148   26.4014 O   0  0  0  0  0  0  0  0  0  0  0  0
   11.8850  -19.3601   26.9980 O   0  0  0  0  0  0  0  0  0  0  0  0
  2  1  1  0
  3  2  2  0
  4  2  1  0
  5  4  1  0
  6  5  1  0
  7  6  1  0
  8  7  1  0
  8  9  1  6
  8 10  1  0
 10 11  2  0
 13 14  2  0
 13 12  1  0
 15 13  1  0
 16 15  1  0
 16 17  1  0
 18 17  1  0
 19 18  1  6
 19 21  1  0
 20 10  1  0
 20 19  1  0
 21 23  1  0
 22 21  2  0
 23 24  1  0
 24 25  1  1
 25 26  1  0
 26 27  2  0
 28 24  1  0
 28 31  1  0
 29 28  2  0
 30 26  1  0
M  END
$$$$
