RRD.pdb
     RDKit          3D

 31 30  0  0  1  0  0  0  0  0999 V2000
    6.8523  -22.9393   21.9233 N   0  0  0  0  0  0  0  0  0  0  0  0
    5.6525  -22.1569   21.8916 C   0  0  0  0  0  0  0  0  0  0  0  0
    4.6271  -22.6743   22.4726 N   0  0  0  0  0  0  0  0  0  0  0  0
    5.6825  -20.9121   21.2510 N   0  0  0  0  0  0  0  0  0  0  0  0
    6.7399  -19.9585   21.6543 C   0  0  0  0  0  0  0  0  0  0  0  0
    6.3283  -19.2760   22.9255 C   0  0  0  0  0  0  0  0  0  0  0  0
    7.0507  -19.6945   24.1400 C   0  0  0  0  0  0  0  0  0  0  0  0
    8.0233  -18.7158   24.7353 C   0  0  2  0  0  0  0  0  0  0  0  0
    7.3598  -17.5331   25.1670 N   0  0  0  0  0  0  0  0  0  0  0  0
    9.1230  -18.5012   23.7870 C   0  0  0  0  0  0  0  0  0  0  0  0
    9.6301  -19.4849   23.1864 O   0  0  0  0  0  0  0  0  0  0  0  0
    3.7286  -22.1497   22.4349 N   0  0  0  0  0  0  0  0  0  0  0  0
    9.1746  -13.0324   19.6879 C   0  0  0  0  0  0  0  0  0  0  0  0
    7.9683  -13.7347   19.4749 N   0  0  0  0  0  0  0  0  0  0  0  0
    6.8247  -13.1102   19.5583 N   0  0  0  0  0  0  0  0  0  0  0  0
    7.9738  -15.1431   19.1607 C   0  0  0  0  0  0  0  0  0  0  0  0
    9.2094  -15.8491   19.0503 C   0  0  0  0  0  0  0  0  0  0  0  0
    9.4118  -16.8368   20.2051 C   0  0  0  0  0  0  0  0  0  0  0  0
   10.2847  -16.1985   21.2625 C   0  0  2  0  0  0  0  0  0  0  0  0
   10.6347  -17.0509   22.4059 N   0  0  0  0  0  0  0  0  0  0  0  0
    9.7064  -17.2380   23.4587 C   0  0  0  0  0  0  0  0  0  0  0  0
   11.9173  -16.5280   22.9993 O   0  0  0  0  0  0  0  0  0  0  0  0
   11.8486  -15.5523   23.7802 N   0  0  0  0  0  0  0  0  0  0  0  0
    5.9130  -13.5466   19.3999 C   0  0  1  0  0  0  0  0  0  0  0  0
   13.1833  -17.0763   22.7233 C   0  0  0  0  0  0  0  0  0  0  0  0
   14.4204  -16.5456   23.2772 C   0  0  0  0  0  0  0  0  0  0  0  0
   15.4058  -17.6995   23.4322 O   0  0  0  0  0  0  0  0  0  0  0  0
   14.9401  -18.6074   24.5049 C   0  0  0  0  0  0  0  0  0  0  0  0
   14.4808  -18.0535   25.5606 O   0  0  0  0  0  0  0  0  0  0  0  0
   14.9775  -15.4625   22.4656 O   0  0  0  0  0  0  0  0  0  0  0  0
   14.4651  -15.1298   21.3858 O   0  0  0  0  0  0  0  0  0  0  0  0
  2  1  1  0
  3  2  2  0
  4  2  1  0
  5  4  1  0
  6  5  1  0
  7  6  1  0
  8  7  1  0
  8  9  1  6
  8 10  1  0
 10 11  2  0
 13 14  2  0
 13 12  1  0
 15 13  1  0
 16 15  1  0
 16 17  1  0
 18 17  1  0
 19 18  1  6
 19 21  1  0
 20 10  1  0
 20 19  1  0
 21 23  1  0
 22 21  2  0
 23 24  1  0
 24 25  1  6
 25 26  1  0
 26 27  2  0
 28 24  1  0
 28 31  1  0
 29 28  2  0
 30 26  1  0
M  END
$$$$
