RRD.pdb
     RDKit          3D

 31 30  0  0  1  0  0  0  0  0999 V2000
    8.0154  -13.8294   13.1552 N   0  0  0  0  0  0  0  0  0  0  0  0
    9.2605  -14.4434   12.8008 C   0  0  0  0  0  0  0  0  0  0  0  0
    9.6527  -14.2625   11.5884 N   0  0  0  0  0  0  0  0  0  0  0  0
    9.9478  -15.1741   13.7778 N   0  0  0  0  0  0  0  0  0  0  0  0
    9.5316  -16.5759   14.0054 C   0  0  0  0  0  0  0  0  0  0  0  0
    8.2616  -16.5887   14.8041 C   0  0  0  0  0  0  0  0  0  0  0  0
    8.3771  -17.0970   16.1827 C   0  0  0  0  0  0  0  0  0  0  0  0
    9.7327  -17.5625   16.6344 C   0  0  2  0  0  0  0  0  0  0  0  0
    9.7348  -18.9629   16.8879 N   0  0  0  0  0  0  0  0  0  0  0  0
   10.1729  -16.7264   17.7577 C   0  0  0  0  0  0  0  0  0  0  0  0
   10.5778  -15.5538   17.5418 O   0  0  0  0  0  0  0  0  0  0  0  0
   10.5742  -14.6589   11.3095 N   0  0  0  0  0  0  0  0  0  0  0  0
    7.3916  -12.0279   20.3477 C   0  0  0  0  0  0  0  0  0  0  0  0
    7.0554  -12.5764   21.6046 N   0  0  0  0  0  0  0  0  0  0  0  0
    7.0671  -11.8232   22.6710 N   0  0  0  0  0  0  0  0  0  0  0  0
    6.6922  -13.9669   21.7355 C   0  0  0  0  0  0  0  0  0  0  0  0
    7.3970  -14.9653   20.9982 C   0  0  0  0  0  0  0  0  0  0  0  0
    8.8797  -14.6150   20.8289 C   0  0  0  0  0  0  0  0  0  0  0  0
    9.7232  -15.8119   21.2076 C   0  0  2  0  0  0  0  0  0  0  0  0
   10.6580  -16.2889   20.1804 N   0  0  0  0  0  0  0  0  0  0  0  0
   10.1929  -17.1195   19.1321 C   0  0  0  0  0  0  0  0  0  0  0  0
   11.7886  -17.0014   20.8766 O   0  0  0  0  0  0  0  0  0  0  0  0
   11.7267  -18.2477   20.9736 N   0  0  0  0  0  0  0  0  0  0  0  0
    6.7704  -12.1300   23.6008 C   0  0  2  0  0  0  0  0  0  0  0  0
   12.9062  -16.3427   21.4211 C   0  0  0  0  0  0  0  0  0  0  0  0
   13.9387  -17.0244   22.1880 C   0  0  0  0  0  0  0  0  0  0  0  0
   15.0592  -16.0283   22.4682 O   0  0  0  0  0  0  0  0  0  0  0  0
   16.1993  -16.7305   23.0999 C   0  0  0  0  0  0  0  0  0  0  0  0
   16.0734  -17.9917   23.2602 O   0  0  0  0  0  0  0  0  0  0  0  0
   13.4198  -17.6175   23.4214 O   0  0  0  0  0  0  0  0  0  0  0  0
   13.6713  -18.7916   23.7340 O   0  0  0  0  0  0  0  0  0  0  0  0
  2  1  1  0
  3  2  2  0
  4  2  1  0
  5  4  1  0
  6  5  1  0
  7  6  1  0
  8  7  1  0
  8  9  1  1
  8 10  1  0
 10 11  2  0
 13 14  2  0
 13 12  1  0
 15 13  1  0
 16 15  1  0
 16 17  1  0
 18 17  1  0
 19 18  1  6
 19 21  1  0
 20 10  1  0
 20 19  1  0
 21 23  1  0
 22 21  2  0
 23 24  1  0
 24 25  1  1
 25 26  1  0
 26 27  2  0
 28 24  1  0
 28 31  1  0
 29 28  2  0
 30 26  1  0
M  END
$$$$
