RRD.pdb
     RDKit          3D

 31 30  0  0  1  0  0  0  0  0999 V2000
   13.9843  -19.4347   12.0923 N   0  0  0  0  0  0  0  0  0  0  0  0
   14.0405  -18.0068   12.1953 C   0  0  0  0  0  0  0  0  0  0  0  0
   13.6303  -17.3512   11.1665 N   0  0  0  0  0  0  0  0  0  0  0  0
   14.5209  -17.4403   13.3824 N   0  0  0  0  0  0  0  0  0  0  0  0
   14.7911  -18.3513   14.5169 C   0  0  0  0  0  0  0  0  0  0  0  0
   13.5553  -18.4675   15.3599 C   0  0  0  0  0  0  0  0  0  0  0  0
   13.7227  -19.1608   16.6497 C   0  0  0  0  0  0  0  0  0  0  0  0
   12.4895  -19.3793   17.4800 C   0  0  2  0  0  0  0  0  0  0  0  0
   11.3434  -19.5620   16.6562 N   0  0  0  0  0  0  0  0  0  0  0  0
   12.3811  -18.2964   18.4651 C   0  0  0  0  0  0  0  0  0  0  0  0
   13.1180  -17.2808   18.3597 O   0  0  0  0  0  0  0  0  0  0  0  0
   13.6059  -16.3122   11.2280 N   0  0  0  0  0  0  0  0  0  0  0  0
    7.7764  -14.4559   18.3452 C   0  0  0  0  0  0  0  0  0  0  0  0
    8.1735  -13.3456   19.1219 N   0  0  0  0  0  0  0  0  0  0  0  0
    8.4058  -12.1960   18.5483 N   0  0  0  0  0  0  0  0  0  0  0  0
    8.3266  -13.4560   20.5526 C   0  0  0  0  0  0  0  0  0  0  0  0
    8.3557  -14.7405   21.1744 C   0  0  0  0  0  0  0  0  0  0  0  0
    9.7824  -15.2887   21.2938 C   0  0  0  0  0  0  0  0  0  0  0  0
    9.9344  -16.4901   20.3877 C   0  0  1  0  0  0  0  0  0  0  0  0
   11.2593  -17.1234   20.3787 N   0  0  0  0  0  0  0  0  0  0  0  0
   11.4889  -18.2713   19.5819 C   0  0  0  0  0  0  0  0  0  0  0  0
   11.6224  -17.4604   21.8018 O   0  0  0  0  0  0  0  0  0  0  0  0
   11.1739  -18.5234   22.2868 N   0  0  0  0  0  0  0  0  0  0  0  0
    8.6266  -11.3320   19.0499 C   0  0  1  0  0  0  0  0  0  0  0  0
   12.4360  -16.6466   22.6113 C   0  0  0  0  0  0  0  0  0  0  0  0
   12.7549  -16.9635   23.9958 C   0  0  0  0  0  0  0  0  0  0  0  0
   13.9246  -16.0850   24.4277 O   0  0  0  0  0  0  0  0  0  0  0  0
   15.0990  -16.3686   23.5718 C   0  0  0  0  0  0  0  0  0  0  0  0
   15.2320  -17.5734   23.1681 O   0  0  0  0  0  0  0  0  0  0  0  0
   11.6028  -16.8076   24.8851 O   0  0  0  0  0  0  0  0  0  0  0  0
   10.5236  -16.3516   24.4768 O   0  0  0  0  0  0  0  0  0  0  0  0
  2  1  1  0
  3  2  2  0
  4  2  1  0
  5  4  1  0
  6  5  1  0
  7  6  1  0
  8  7  1  0
  8  9  1  6
  8 10  1  0
 10 11  2  0
 13 14  2  0
 13 12  1  0
 15 13  1  0
 16 15  1  0
 16 17  1  0
 18 17  1  0
 19 18  1  6
 19 21  1  0
 20 10  1  0
 20 19  1  0
 21 23  1  0
 22 21  2  0
 23 24  1  0
 24 25  1  1
 25 26  1  0
 26 27  2  0
 28 24  1  0
 28 31  1  0
 29 28  2  0
 30 26  1  0
M  END
$$$$
