RRD.pdb
     RDKit          3D

 31 30  0  0  1  0  0  0  0  0999 V2000
   10.7836  -17.0241   17.6207 N   0  0  0  0  0  0  0  0  0  0  0  0
   10.8078  -16.0815   16.5419 C   0  0  0  0  0  0  0  0  0  0  0  0
   11.9727  -15.6760   16.1744 N   0  0  0  0  0  0  0  0  0  0  0  0
    9.5913  -15.6831   15.9745 N   0  0  0  0  0  0  0  0  0  0  0  0
    8.5606  -15.1290   16.8806 C   0  0  0  0  0  0  0  0  0  0  0  0
    8.5424  -13.6345   16.7498 C   0  0  0  0  0  0  0  0  0  0  0  0
    8.7331  -12.8797   18.0013 C   0  0  0  0  0  0  0  0  0  0  0  0
    8.0480  -13.4021   19.2325 C   0  0  2  0  0  0  0  0  0  0  0  0
    7.1110  -12.4571   19.7369 N   0  0  0  0  0  0  0  0  0  0  0  0
    9.0668  -13.8417   20.1936 C   0  0  0  0  0  0  0  0  0  0  0  0
   10.1007  -13.1448   20.3695 O   0  0  0  0  0  0  0  0  0  0  0  0
   12.0316  -15.0460   15.3475 N   0  0  0  0  0  0  0  0  0  0  0  0
   10.2937  -20.1355   26.6449 C   0  0  0  0  0  0  0  0  0  0  0  0
   11.5688  -19.7307   26.1934 N   0  0  0  0  0  0  0  0  0  0  0  0
   12.6326  -20.3941   26.5581 N   0  0  0  0  0  0  0  0  0  0  0  0
   11.7217  -18.5881   25.3253 C   0  0  0  0  0  0  0  0  0  0  0  0
   10.6395  -18.1676   24.4950 C   0  0  0  0  0  0  0  0  0  0  0  0
   11.0388  -17.0093   23.5737 C   0  0  0  0  0  0  0  0  0  0  0  0
    9.8452  -16.5977   22.7411 C   0  0  1  0  0  0  0  0  0  0  0  0
   10.0557  -15.4608   21.8357 N   0  0  0  0  0  0  0  0  0  0  0  0
    9.0080  -15.0302   20.9859 C   0  0  0  0  0  0  0  0  0  0  0  0
   11.2582  -15.7653   20.9800 O   0  0  0  0  0  0  0  0  0  0  0  0
   11.0674  -16.0333   19.7725 N   0  0  0  0  0  0  0  0  0  0  0  0
   13.5853  -20.1725   26.2580 C   0  0  2  0  0  0  0  0  0  0  0  0
   12.5790  -15.7641   21.4646 C   0  0  0  0  0  0  0  0  0  0  0  0
   13.7471  -15.7318   20.5967 C   0  0  0  0  0  0  0  0  0  0  0  0
   13.5763  -14.5799   19.6115 O   0  0  0  0  0  0  0  0  0  0  0  0
   14.7706  -14.4919   18.7409 C   0  0  0  0  0  0  0  0  0  0  0  0
   15.1626  -15.5809   18.1999 O   0  0  0  0  0  0  0  0  0  0  0  0
   14.9989  -15.6219   21.3471 O   0  0  0  0  0  0  0  0  0  0  0  0
   15.0076  -15.4014   22.5681 O   0  0  0  0  0  0  0  0  0  0  0  0
  2  1  1  0
  3  2  2  0
  4  2  1  0
  5  4  1  0
  6  5  1  0
  7  6  1  0
  8  7  1  0
  8  9  1  1
  8 10  1  0
 10 11  2  0
 13 14  2  0
 13 12  1  0
 15 13  1  0
 16 15  1  0
 16 17  1  0
 18 17  1  0
 19 18  1  1
 19 21  1  0
 20 10  1  0
 20 19  1  0
 21 23  1  0
 22 21  2  0
 23 24  1  0
 24 25  1  6
 25 26  1  0
 26 27  2  0
 28 24  1  0
 28 31  1  0
 29 28  2  0
 30 26  1  0
M  END
$$$$
