RRD.pdb
     RDKit          3D

 31 30  0  0  1  0  0  0  0  0999 V2000
    8.3268  -13.0183   17.1310 N   0  0  0  0  0  0  0  0  0  0  0  0
    8.4241  -12.3701   18.4050 C   0  0  0  0  0  0  0  0  0  0  0  0
    9.5527  -11.8097   18.6671 N   0  0  0  0  0  0  0  0  0  0  0  0
    7.3085  -12.3876   19.2511 N   0  0  0  0  0  0  0  0  0  0  0  0
    6.7431  -13.7063   19.6136 C   0  0  0  0  0  0  0  0  0  0  0  0
    7.8644  -14.6565   19.9153 C   0  0  0  0  0  0  0  0  0  0  0  0
    7.4614  -15.9953   20.3815 C   0  0  0  0  0  0  0  0  0  0  0  0
    8.5567  -16.9791   20.6823 C   0  0  2  0  0  0  0  0  0  0  0  0
    8.0223  -18.2156   21.1415 N   0  0  0  0  0  0  0  0  0  0  0  0
    9.5284  -16.3484   21.5838 C   0  0  0  0  0  0  0  0  0  0  0  0
   10.1741  -15.3387   21.1977 O   0  0  0  0  0  0  0  0  0  0  0  0
    9.6614  -11.3398   19.5898 N   0  0  0  0  0  0  0  0  0  0  0  0
   11.4604  -18.3573   30.0782 C   0  0  0  0  0  0  0  0  0  0  0  0
   11.4152  -17.1694   29.3164 N   0  0  0  0  0  0  0  0  0  0  0  0
   11.1560  -16.0294   29.8977 N   0  0  0  0  0  0  0  0  0  0  0  0
   11.6553  -17.1892   27.8936 C   0  0  0  0  0  0  0  0  0  0  0  0
   12.1277  -16.0177   27.2289 C   0  0  0  0  0  0  0  0  0  0  0  0
   12.3711  -16.2633   25.7355 C   0  0  0  0  0  0  0  0  0  0  0  0
   11.0738  -16.6792   25.0787 C   0  0  1  0  0  0  0  0  0  0  0  0
   10.8875  -16.2387   23.6903 N   0  0  0  0  0  0  0  0  0  0  0  0
    9.8343  -16.7783   22.9125 C   0  0  0  0  0  0  0  0  0  0  0  0
   12.1809  -16.4696   22.9524 O   0  0  0  0  0  0  0  0  0  0  0  0
   12.5734  -17.6494   22.8095 N   0  0  0  0  0  0  0  0  0  0  0  0
   11.1720  -15.1214   29.4264 C   0  0  2  0  0  0  0  0  0  0  0  0
   12.9678  -15.4332   22.4175 C   0  0  0  0  0  0  0  0  0  0  0  0
   14.2678  -15.6554   21.8014 C   0  0  0  0  0  0  0  0  0  0  0  0
   14.5872  -14.4539   20.9177 O   0  0  0  0  0  0  0  0  0  0  0  0
   14.7933  -14.9060   19.5231 C   0  0  0  0  0  0  0  0  0  0  0  0
   14.9857  -16.1575   19.3525 O   0  0  0  0  0  0  0  0  0  0  0  0
   15.3209  -15.8970   22.7888 O   0  0  0  0  0  0  0  0  0  0  0  0
   16.3915  -16.4413   22.4773 O   0  0  0  0  0  0  0  0  0  0  0  0
  2  1  1  0
  3  2  2  0
  4  2  1  0
  5  4  1  0
  6  5  1  0
  7  6  1  0
  8  7  1  0
  8  9  1  1
  8 10  1  0
 10 11  2  0
 13 14  2  0
 13 12  1  0
 15 13  1  0
 16 15  1  0
 16 17  1  0
 18 17  1  0
 19 18  1  1
 19 21  1  0
 20 10  1  0
 20 19  1  0
 21 23  1  0
 22 21  2  0
 23 24  1  0
 24 25  1  1
 25 26  1  0
 26 27  2  0
 28 24  1  0
 28 31  1  0
 29 28  2  0
 30 26  1  0
M  END
$$$$
