RRD.pdb
     RDKit          3D

 31 30  0  0  1  0  0  0  0  0999 V2000
    9.0830  -12.7398   14.1822 N   0  0  0  0  0  0  0  0  0  0  0  0
    8.3415  -13.8721   14.6521 C   0  0  0  0  0  0  0  0  0  0  0  0
    8.9052  -15.0186   14.4962 N   0  0  0  0  0  0  0  0  0  0  0  0
    7.0889  -13.6545   15.2388 N   0  0  0  0  0  0  0  0  0  0  0  0
    6.9190  -14.0419   16.6570 C   0  0  0  0  0  0  0  0  0  0  0  0
    8.0934  -13.5444   17.4472 C   0  0  0  0  0  0  0  0  0  0  0  0
    8.1002  -13.9005   18.8773 C   0  0  0  0  0  0  0  0  0  0  0  0
    8.9656  -15.0555   19.2960 C   0  0  2  0  0  0  0  0  0  0  0  0
    8.2743  -16.2913   19.1533 N   0  0  0  0  0  0  0  0  0  0  0  0
    9.4954  -14.7908   20.6391 C   0  0  0  0  0  0  0  0  0  0  0  0
   10.1796  -13.7543   20.8470 O   0  0  0  0  0  0  0  0  0  0  0  0
    8.4426  -15.8510   14.9172 N   0  0  0  0  0  0  0  0  0  0  0  0
   10.2788  -16.6028   28.2646 C   0  0  0  0  0  0  0  0  0  0  0  0
   10.0869  -15.2777   28.7128 N   0  0  0  0  0  0  0  0  0  0  0  0
   10.4940  -14.9243   29.9019 N   0  0  0  0  0  0  0  0  0  0  0  0
    9.4458  -14.2946   27.8732 C   0  0  0  0  0  0  0  0  0  0  0  0
    8.8141  -14.6921   26.6564 C   0  0  0  0  0  0  0  0  0  0  0  0
    9.8243  -14.8760   25.5181 C   0  0  0  0  0  0  0  0  0  0  0  0
    9.0815  -15.1448   24.2284 C   0  0  2  0  0  0  0  0  0  0  0  0
    9.9168  -15.3747   23.0428 N   0  0  0  0  0  0  0  0  0  0  0  0
    9.3101  -15.6219   21.7874 C   0  0  0  0  0  0  0  0  0  0  0  0
   10.8489  -16.5192   23.3464 O   0  0  0  0  0  0  0  0  0  0  0  0
   10.3459  -17.6432   23.5699 N   0  0  0  0  0  0  0  0  0  0  0  0
   10.4048  -13.9813   30.2887 C   0  0  2  0  0  0  0  0  0  0  0  0
   12.2493  -16.3918   23.3917 C   0  0  0  0  0  0  0  0  0  0  0  0
   13.1449  -17.5135   23.6342 C   0  0  0  0  0  0  0  0  0  0  0  0
   14.4089  -17.3005   22.8076 O   0  0  0  0  0  0  0  0  0  0  0  0
   15.0627  -16.0375   23.2194 C   0  0  0  0  0  0  0  0  0  0  0  0
   14.5180  -15.4027   24.1851 O   0  0  0  0  0  0  0  0  0  0  0  0
   13.4497  -17.6890   25.0550 O   0  0  0  0  0  0  0  0  0  0  0  0
   13.2404  -16.7870   25.8809 O   0  0  0  0  0  0  0  0  0  0  0  0
  2  1  1  0
  3  2  2  0
  4  2  1  0
  5  4  1  0
  6  5  1  0
  7  6  1  0
  8  7  1  0
  8  9  1  1
  8 10  1  0
 10 11  2  0
 13 14  2  0
 13 12  1  0
 15 13  1  0
 16 15  1  0
 16 17  1  0
 18 17  1  0
 19 18  1  6
 19 21  1  0
 20 10  1  0
 20 19  1  0
 21 23  1  0
 22 21  2  0
 23 24  1  0
 24 25  1  1
 25 26  1  0
 26 27  2  0
 28 24  1  0
 28 31  1  0
 29 28  2  0
 30 26  1  0
M  END
$$$$
