LGE.pdb
     RDKit          3D

 22 21  0  0  1  0  0  0  0  0999 V2000
   25.0677  -14.5054  -16.5490 C   0  0  0  0  0  0  0  0  0  0  0  0
   26.4795  -14.7008  -17.0679 C   0  0  2  0  0  0  0  0  0  0  0  0
   26.7614  -13.8286  -18.2533 C   0  0  0  0  0  0  0  0  0  0  0  0
   26.7852  -16.1668  -17.3006 C   0  0  0  0  0  0  0  0  0  0  0  0
   26.5639  -16.8554  -15.9791 C   0  0  2  0  0  0  0  0  0  0  0  0
   27.3654  -16.1185  -15.0021 N   0  0  0  0  0  0  0  0  0  0  0  0
   26.9059  -18.2786  -15.9858 C   0  0  0  0  0  0  0  0  0  0  0  0
   26.2222  -19.0012  -16.8017 O   0  0  0  0  0  0  0  0  0  0  0  0
   27.8738  -18.9200  -15.2185 N   0  0  0  0  0  0  0  0  0  0  0  0
   28.0137  -20.3518  -15.2288 C   0  0  0  0  0  0  0  0  0  0  0  0
   27.1127  -21.0711  -14.3155 C   0  0  0  0  0  0  0  0  0  0  0  0
   27.1402  -22.3529  -14.3883 O   0  0  0  0  0  0  0  0  0  0  0  0
   26.2520  -20.4995  -13.3952 N   0  0  0  0  0  0  0  0  0  0  0  0
   25.3641  -21.2628  -12.5010 C   0  0  1  0  0  0  0  0  0  0  0  0
   25.8451  -20.8879  -11.1069 C   0  0  0  0  0  0  0  0  0  0  0  0
   24.9764  -21.4589  -10.0240 C   0  0  0  0  0  0  0  0  0  0  0  0
   25.6022  -21.1373   -8.7104 C   0  0  0  0  0  0  0  0  0  0  0  0
   26.5928  -20.3734   -8.6792 O   0  0  0  0  0  0  0  0  0  0  0  0
   23.9650  -21.0378  -12.7567 C   0  0  0  0  0  0  0  0  0  0  0  0
   23.5505  -19.9473  -13.2653 O   0  0  0  0  0  0  0  0  0  0  0  0
   25.1445  -21.6430   -7.5044 O   0  0  0  0  0  0  0  0  0  0  0  0
   23.0126  -21.9902  -12.4645 O   0  0  0  0  0  0  0  0  0  0  0  0
  2  1  1  6
  2  4  1  0
  2  3  1  0
  4  5  1  0
  5  6  1  1
  5  7  1  0
  7  8  2  0
  9  7  1  0
  9 10  1  0
 10 11  1  0
 11 13  1  0
 11 12  2  0
 13 14  1  0
 14 19  1  0
 14 15  1  1
 16 15  1  0
 17 16  1  0
 17 21  1  0
 18 17  2  0
 19 22  1  0
 20 19  2  0
M  END
$$$$
