LGE.pdb
     RDKit          3D

 22 21  0  0  1  0  0  0  0  0999 V2000
   29.9763  -18.6103   -5.2023 C   0  0  0  0  0  0  0  0  0  0  0  0
   28.7016  -19.2221   -4.6532 C   0  0  2  0  0  0  0  0  0  0  0  0
   28.8827  -19.7182   -3.2509 C   0  0  0  0  0  0  0  0  0  0  0  0
   28.1334  -20.2596   -5.6006 C   0  0  0  0  0  0  0  0  0  0  0  0
   28.0082  -19.5800   -6.9393 C   0  0  2  0  0  0  0  0  0  0  0  0
   27.0885  -18.4604   -6.7378 N   0  0  0  0  0  0  0  0  0  0  0  0
   27.5484  -20.4622   -8.0130 C   0  0  0  0  0  0  0  0  0  0  0  0
   28.1526  -21.5958   -8.0854 O   0  0  0  0  0  0  0  0  0  0  0  0
   26.5462  -20.2096   -8.9450 N   0  0  0  0  0  0  0  0  0  0  0  0
   25.9148  -21.2751   -9.6770 C   0  0  0  0  0  0  0  0  0  0  0  0
   24.9185  -20.8428  -10.6689 C   0  0  0  0  0  0  0  0  0  0  0  0
   24.1751  -19.8527  -10.3281 O   0  0  0  0  0  0  0  0  0  0  0  0
   24.7145  -21.3969  -11.9202 N   0  0  0  0  0  0  0  0  0  0  0  0
   23.7835  -20.8578  -12.9268 C   0  0  1  0  0  0  0  0  0  0  0  0
   24.2324  -21.5150  -14.2238 C   0  0  0  0  0  0  0  0  0  0  0  0
   25.6318  -21.1331  -14.6098 C   0  0  0  0  0  0  0  0  0  0  0  0
   25.9699  -21.8351  -15.8800 C   0  0  0  0  0  0  0  0  0  0  0  0
   26.4171  -23.0027  -15.8293 O   0  0  0  0  0  0  0  0  0  0  0  0
   22.3980  -21.0457  -12.5824 C   0  0  0  0  0  0  0  0  0  0  0  0
   22.0196  -22.0278  -11.8668 O   0  0  0  0  0  0  0  0  0  0  0  0
   25.8161  -21.2613  -17.1318 O   0  0  0  0  0  0  0  0  0  0  0  0
   21.4204  -20.1732  -13.0093 O   0  0  0  0  0  0  0  0  0  0  0  0
  2  1  1  6
  2  4  1  0
  2  3  1  0
  4  5  1  0
  5  6  1  1
  5  7  1  0
  7  8  2  0
  9  7  1  0
  9 10  1  0
 10 11  1  0
 11 13  1  0
 11 12  2  0
 13 14  1  0
 14 19  1  0
 14 15  1  6
 16 15  1  0
 17 16  1  0
 17 21  1  0
 18 17  2  0
 19 22  1  0
 20 19  2  0
M  END
$$$$
