LGE.pdb
     RDKit          3D

 22 21  0  0  1  0  0  0  0  0999 V2000
   16.7188  -14.7204  -16.0406 C   0  0  0  0  0  0  0  0  0  0  0  0
   18.2157  -14.5805  -15.8390 C   0  0  2  0  0  0  0  0  0  0  0  0
   18.7602  -15.6594  -14.9532 C   0  0  0  0  0  0  0  0  0  0  0  0
   18.5851  -13.1794  -15.3946 C   0  0  0  0  0  0  0  0  0  0  0  0
   18.0212  -12.2477  -16.4355 C   0  0  2  0  0  0  0  0  0  0  0  0
   18.8658  -12.4083  -17.6191 N   0  0  0  0  0  0  0  0  0  0  0  0
   17.9588  -10.8487  -16.0098 C   0  0  0  0  0  0  0  0  0  0  0  0
   17.2052  -10.6202  -14.9922 O   0  0  0  0  0  0  0  0  0  0  0  0
   18.6159   -9.7612  -16.5776 N   0  0  0  0  0  0  0  0  0  0  0  0
   18.5338   -8.4471  -15.9976 C   0  0  0  0  0  0  0  0  0  0  0  0
   19.8126   -7.8952  -15.5248 C   0  0  0  0  0  0  0  0  0  0  0  0
   20.8214   -8.6885  -15.5706 O   0  0  0  0  0  0  0  0  0  0  0  0
   20.0248   -6.6151  -15.0445 N   0  0  0  0  0  0  0  0  0  0  0  0
   21.3507   -6.0514  -14.7369 C   0  0  1  0  0  0  0  0  0  0  0  0
   21.1607   -4.5538  -14.9285 C   0  0  0  0  0  0  0  0  0  0  0  0
   20.9433   -4.1791  -16.3657 C   0  0  0  0  0  0  0  0  0  0  0  0
   20.6510   -2.7190  -16.4246 C   0  0  0  0  0  0  0  0  0  0  0  0
   19.4617   -2.3398  -16.5118 O   0  0  0  0  0  0  0  0  0  0  0  0
   21.8583   -6.4535  -13.4507 C   0  0  0  0  0  0  0  0  0  0  0  0
   21.0879   -6.5916  -12.4471 O   0  0  0  0  0  0  0  0  0  0  0  0
   21.6340   -1.7432  -16.3887 O   0  0  0  0  0  0  0  0  0  0  0  0
   23.1974   -6.7078  -13.2474 O   0  0  0  0  0  0  0  0  0  0  0  0
  2  1  1  1
  2  4  1  0
  2  3  1  0
  4  5  1  0
  5  6  1  6
  5  7  1  0
  7  8  2  0
  9  7  1  0
  9 10  1  0
 10 11  1  0
 11 13  1  0
 11 12  2  0
 13 14  1  0
 14 19  1  0
 14 15  1  1
 16 15  1  0
 17 16  1  0
 17 21  1  0
 18 17  2  0
 19 22  1  0
 20 19  2  0
M  END
$$$$
