LGE.pdb
     RDKit          3D

 22 21  0  0  1  0  0  0  0  0999 V2000
   27.7331  -20.5408  -15.4269 C   0  0  0  0  0  0  0  0  0  0  0  0
   27.1822  -19.5070  -14.4633 C   0  0  2  0  0  0  0  0  0  0  0  0
   27.2467  -18.1238  -15.0361 C   0  0  0  0  0  0  0  0  0  0  0  0
   27.8195  -19.6324  -13.0940 C   0  0  0  0  0  0  0  0  0  0  0  0
   27.2387  -20.8767  -12.4744 C   0  0  2  0  0  0  0  0  0  0  0  0
   27.0482  -21.8226  -13.5740 N   0  0  0  0  0  0  0  0  0  0  0  0
   25.9913  -20.6499  -11.7429 C   0  0  0  0  0  0  0  0  0  0  0  0
   25.9693  -19.5887  -11.0158 O   0  0  0  0  0  0  0  0  0  0  0  0
   24.8490  -21.4448  -11.7512 N   0  0  0  0  0  0  0  0  0  0  0  0
   23.5725  -20.9305  -11.3316 C   0  0  0  0  0  0  0  0  0  0  0  0
   22.6536  -20.5797  -12.4251 C   0  0  0  0  0  0  0  0  0  0  0  0
   23.0421  -19.6403  -13.2098 O   0  0  0  0  0  0  0  0  0  0  0  0
   21.4264  -21.1643  -12.6832 N   0  0  0  0  0  0  0  0  0  0  0  0
   20.5711  -20.8289  -13.8350 C   0  0  1  0  0  0  0  0  0  0  0  0
   20.2473  -22.1819  -14.4517 C   0  0  0  0  0  0  0  0  0  0  0  0
   19.2115  -22.9382  -13.6718 C   0  0  0  0  0  0  0  0  0  0  0  0
   18.9041  -24.1964  -14.4088 C   0  0  0  0  0  0  0  0  0  0  0  0
   19.4613  -24.4085  -15.5090 O   0  0  0  0  0  0  0  0  0  0  0  0
   19.4340  -20.0176  -13.4853 C   0  0  0  0  0  0  0  0  0  0  0  0
   18.7361  -19.4345  -14.3756 O   0  0  0  0  0  0  0  0  0  0  0  0
   18.0240  -25.1583  -13.9399 O   0  0  0  0  0  0  0  0  0  0  0  0
   19.0490  -19.8360  -12.1745 O   0  0  0  0  0  0  0  0  0  0  0  0
  2  1  1  6
  2  4  1  0
  2  3  1  0
  4  5  1  0
  5  6  1  6
  5  7  1  0
  7  8  2  0
  9  7  1  0
  9 10  1  0
 10 11  1  0
 11 13  1  0
 11 12  2  0
 13 14  1  0
 14 19  1  0
 14 15  1  1
 16 15  1  0
 17 16  1  0
 17 21  1  0
 18 17  2  0
 19 22  1  0
 20 19  2  0
M  END
$$$$
