LGE.pdb
     RDKit          3D

 22 21  0  0  1  0  0  0  0  0999 V2000
   26.6974  -13.7735  -17.4562 C   0  0  0  0  0  0  0  0  0  0  0  0
   27.1613  -12.7133  -16.4755 C   0  0  2  0  0  0  0  0  0  0  0  0
   28.2169  -13.2368  -15.5498 C   0  0  0  0  0  0  0  0  0  0  0  0
   25.9893  -12.0675  -15.7642 C   0  0  0  0  0  0  0  0  0  0  0  0
   25.0999  -11.5092  -16.8445 C   0  0  2  0  0  0  0  0  0  0  0  0
   25.9539  -10.6503  -17.6648 N   0  0  0  0  0  0  0  0  0  0  0  0
   23.9366  -10.7790  -16.3384 C   0  0  0  0  0  0  0  0  0  0  0  0
   23.1918  -11.4365  -15.5210 O   0  0  0  0  0  0  0  0  0  0  0  0
   23.5590   -9.4742  -16.6415 N   0  0  0  0  0  0  0  0  0  0  0  0
   22.4041   -8.8663  -16.0361 C   0  0  0  0  0  0  0  0  0  0  0  0
   22.5064   -7.4149  -15.8213 C   0  0  0  0  0  0  0  0  0  0  0  0
   23.5937   -6.8601  -16.2201 O   0  0  0  0  0  0  0  0  0  0  0  0
   21.5488   -6.6035  -15.2388 N   0  0  0  0  0  0  0  0  0  0  0  0
   21.6517   -5.1374  -15.1362 C   0  0  1  0  0  0  0  0  0  0  0  0
   20.2264   -4.6573  -15.3676 C   0  0  0  0  0  0  0  0  0  0  0  0
   19.6913   -5.0647  -16.7096 C   0  0  0  0  0  0  0  0  0  0  0  0
   18.2028   -5.0415  -16.6413 C   0  0  0  0  0  0  0  0  0  0  0  0
   17.6174   -5.8255  -15.8612 O   0  0  0  0  0  0  0  0  0  0  0  0
   22.2661   -4.6920  -13.9124 C   0  0  0  0  0  0  0  0  0  0  0  0
   22.3497   -5.4539  -12.8964 O   0  0  0  0  0  0  0  0  0  0  0  0
   17.4184   -4.1904  -17.4029 O   0  0  0  0  0  0  0  0  0  0  0  0
   22.7914   -3.4243  -13.7848 O   0  0  0  0  0  0  0  0  0  0  0  0
  2  1  1  1
  2  4  1  0
  2  3  1  0
  4  5  1  0
  5  6  1  6
  5  7  1  0
  7  8  2  0
  9  7  1  0
  9 10  1  0
 10 11  1  0
 11 13  1  0
 11 12  2  0
 13 14  1  0
 14 19  1  0
 14 15  1  1
 16 15  1  0
 17 16  1  0
 17 21  1  0
 18 17  2  0
 19 22  1  0
 20 19  2  0
M  END
$$$$
