LGE.pdb
     RDKit          3D

 22 21  0  0  1  0  0  0  0  0999 V2000
   18.0101  -13.2897  -19.1583 C   0  0  0  0  0  0  0  0  0  0  0  0
   18.2829  -11.9447  -18.5121 C   0  0  2  0  0  0  0  0  0  0  0  0
   17.0500  -11.0948  -18.4565 C   0  0  0  0  0  0  0  0  0  0  0  0
   19.4725  -11.2559  -19.1502 C   0  0  0  0  0  0  0  0  0  0  0  0
   20.6919  -11.7815  -18.4386 C   0  0  2  0  0  0  0  0  0  0  0  0
   20.2378  -12.1874  -17.1085 N   0  0  0  0  0  0  0  0  0  0  0  0
   21.7928  -10.8204  -18.3569 C   0  0  0  0  0  0  0  0  0  0  0  0
   22.2761  -10.4454  -19.4887 O   0  0  0  0  0  0  0  0  0  0  0  0
   22.3604  -10.2796  -17.2070 N   0  0  0  0  0  0  0  0  0  0  0  0
   23.3835   -9.2705  -17.2771 C   0  0  0  0  0  0  0  0  0  0  0  0
   22.8894   -7.8857  -17.3157 C   0  0  0  0  0  0  0  0  0  0  0  0
   21.6463   -7.7375  -17.6018 O   0  0  0  0  0  0  0  0  0  0  0  0
   23.6319   -6.7438  -17.0723 N   0  0  0  0  0  0  0  0  0  0  0  0
   23.0728   -5.3815  -17.0302 C   0  0  1  0  0  0  0  0  0  0  0  0
   22.0849   -5.4310  -15.8739 C   0  0  0  0  0  0  0  0  0  0  0  0
   22.7516   -5.2720  -14.5384 C   0  0  0  0  0  0  0  0  0  0  0  0
   21.8228   -5.7866  -13.4928 C   0  0  0  0  0  0  0  0  0  0  0  0
   20.6510   -6.0857  -13.8141 O   0  0  0  0  0  0  0  0  0  0  0  0
   24.0778   -4.3537  -16.9449 C   0  0  0  0  0  0  0  0  0  0  0  0
   25.3085   -4.6402  -16.7932 O   0  0  0  0  0  0  0  0  0  0  0  0
   22.1867   -5.9547  -12.1666 O   0  0  0  0  0  0  0  0  0  0  0  0
   23.7551   -3.0162  -17.0242 O   0  0  0  0  0  0  0  0  0  0  0  0
  2  1  1  6
  2  4  1  0
  2  3  1  0
  4  5  1  0
  5  6  1  1
  5  7  1  0
  7  8  2  0
  9  7  1  0
  9 10  1  0
 10 11  1  0
 11 13  1  0
 11 12  2  0
 13 14  1  0
 14 19  1  0
 14 15  1  1
 16 15  1  0
 17 16  1  0
 17 21  1  0
 18 17  2  0
 19 22  1  0
 20 19  2  0
M  END
$$$$
