LGE.pdb
     RDKit          3D

 22 21  0  0  1  0  0  0  0  0999 V2000
   29.4576  -18.9501   -5.4765 C   0  0  0  0  0  0  0  0  0  0  0  0
   28.1221  -19.5755   -5.1209 C   0  0  2  0  0  0  0  0  0  0  0  0
   28.1938  -20.3466   -3.8381 C   0  0  0  0  0  0  0  0  0  0  0  0
   27.5570  -20.3697   -6.2813 C   0  0  0  0  0  0  0  0  0  0  0  0
   27.7656  -19.5225   -7.5095 C   0  0  2  0  0  0  0  0  0  0  0  0
   26.9797  -18.3070   -7.2982 N   0  0  0  0  0  0  0  0  0  0  0  0
   27.3956  -20.1872   -8.7600 C   0  0  0  0  0  0  0  0  0  0  0  0
   27.9527  -21.3300   -8.9572 O   0  0  0  0  0  0  0  0  0  0  0  0
   26.5215  -19.7231   -9.7385 N   0  0  0  0  0  0  0  0  0  0  0  0
   26.2939  -20.4596  -10.9533 C   0  0  0  0  0  0  0  0  0  0  0  0
   24.9195  -20.9513  -11.1340 C   0  0  0  0  0  0  0  0  0  0  0  0
   24.6408  -22.0696  -10.5676 O   0  0  0  0  0  0  0  0  0  0  0  0
   23.9125  -20.3251  -11.8469 N   0  0  0  0  0  0  0  0  0  0  0  0
   22.5685  -20.8901  -12.0589 C   0  0  1  0  0  0  0  0  0  0  0  0
   21.6907  -19.6657  -12.2733 C   0  0  0  0  0  0  0  0  0  0  0  0
   20.2584  -20.0233  -12.5451 C   0  0  0  0  0  0  0  0  0  0  0  0
   19.5022  -18.7607  -12.7789 C   0  0  0  0  0  0  0  0  0  0  0  0
   20.0591  -17.6653  -12.5423 O   0  0  0  0  0  0  0  0  0  0  0  0
   22.5225  -21.8782  -13.1053 C   0  0  0  0  0  0  0  0  0  0  0  0
   21.6205  -22.7757  -13.1312 O   0  0  0  0  0  0  0  0  0  0  0  0
   18.1992  -18.7290  -13.2491 O   0  0  0  0  0  0  0  0  0  0  0  0
   23.4495  -21.8976  -14.1250 O   0  0  0  0  0  0  0  0  0  0  0  0
  2  1  1  6
  2  4  1  0
  2  3  1  0
  4  5  1  0
  5  6  1  1
  5  7  1  0
  7  8  2  0
  9  7  1  0
  9 10  1  0
 10 11  1  0
 11 13  1  0
 11 12  2  0
 13 14  1  0
 14 19  1  0
 14 15  1  6
 16 15  1  0
 17 16  1  0
 17 21  1  0
 18 17  2  0
 19 22  1  0
 20 19  2  0
M  END
$$$$
