LGE.pdb
     RDKit          3D

 22 21  0  0  1  0  0  0  0  0999 V2000
   27.4519  -20.8179   -5.0672 C   0  0  0  0  0  0  0  0  0  0  0  0
   28.4884  -19.9483   -5.7531 C   0  0  2  0  0  0  0  0  0  0  0  0
   28.9682  -18.8458   -4.8589 C   0  0  0  0  0  0  0  0  0  0  0  0
   28.0011  -19.4703   -7.1062 C   0  0  0  0  0  0  0  0  0  0  0  0
   27.6884  -20.7114   -7.9009 C   0  0  2  0  0  0  0  0  0  0  0  0
   28.9579  -21.4222   -8.0532 N   0  0  0  0  0  0  0  0  0  0  0  0
   27.0663  -20.4452   -9.1988 C   0  0  0  0  0  0  0  0  0  0  0  0
   27.8517  -19.9520  -10.0905 O   0  0  0  0  0  0  0  0  0  0  0  0
   25.7413  -20.6654   -9.5631 N   0  0  0  0  0  0  0  0  0  0  0  0
   25.2999  -20.5083  -10.9235 C   0  0  0  0  0  0  0  0  0  0  0  0
   23.8507  -20.6548  -11.1277 C   0  0  0  0  0  0  0  0  0  0  0  0
   23.2329  -21.3953  -10.2797 O   0  0  0  0  0  0  0  0  0  0  0  0
   23.1025  -20.0726  -12.1355 N   0  0  0  0  0  0  0  0  0  0  0  0
   21.6773  -20.3535  -12.3815 C   0  0  1  0  0  0  0  0  0  0  0  0
   21.1858  -19.1149  -13.1164 C   0  0  0  0  0  0  0  0  0  0  0  0
   20.8121  -18.0006  -12.1828 C   0  0  0  0  0  0  0  0  0  0  0  0
   19.3250  -17.9309  -12.1165 C   0  0  0  0  0  0  0  0  0  0  0  0
   18.7235  -17.0899  -12.8213 O   0  0  0  0  0  0  0  0  0  0  0  0
   21.4496  -21.6061  -13.0543 C   0  0  0  0  0  0  0  0  0  0  0  0
   22.3221  -22.1096  -13.8322 O   0  0  0  0  0  0  0  0  0  0  0  0
   18.5591  -18.7547  -11.3075 O   0  0  0  0  0  0  0  0  0  0  0  0
   20.2806  -22.3165  -12.8869 O   0  0  0  0  0  0  0  0  0  0  0  0
  2  1  1  1
  2  4  1  0
  2  3  1  0
  4  5  1  0
  5  6  1  6
  5  7  1  0
  7  8  2  0
  9  7  1  0
  9 10  1  0
 10 11  1  0
 11 13  1  0
 11 12  2  0
 13 14  1  0
 14 19  1  0
 14 15  1  6
 16 15  1  0
 17 16  1  0
 17 21  1  0
 18 17  2  0
 19 22  1  0
 20 19  2  0
M  END
$$$$
