LGE.pdb
     RDKit          3D

 22 21  0  0  1  0  0  0  0  0999 V2000
   25.9639  -13.5986  -16.5177 C   0  0  0  0  0  0  0  0  0  0  0  0
   26.2384  -12.1081  -16.4550 C   0  0  2  0  0  0  0  0  0  0  0  0
   27.6477  -11.8199  -16.0354 C   0  0  0  0  0  0  0  0  0  0  0  0
   25.1939  -11.3878  -15.6261 C   0  0  0  0  0  0  0  0  0  0  0  0
   23.8849  -11.5743  -16.3482 C   0  0  2  0  0  0  0  0  0  0  0  0
   24.1971  -11.4921  -17.7750 N   0  0  0  0  0  0  0  0  0  0  0  0
   22.8544  -10.6060  -15.9703 C   0  0  0  0  0  0  0  0  0  0  0  0
   22.5557  -10.5861  -14.7190 O   0  0  0  0  0  0  0  0  0  0  0  0
   22.1775   -9.7216  -16.8048 N   0  0  0  0  0  0  0  0  0  0  0  0
   21.1426   -8.8574  -16.3027 C   0  0  0  0  0  0  0  0  0  0  0  0
   21.6015   -7.5343  -15.8529 C   0  0  0  0  0  0  0  0  0  0  0  0
   22.8710   -7.3415  -15.8684 O   0  0  0  0  0  0  0  0  0  0  0  0
   20.7997   -6.4917  -15.4230 N   0  0  0  0  0  0  0  0  0  0  0  0
   21.3076   -5.1898  -14.9565 C   0  0  1  0  0  0  0  0  0  0  0  0
   20.1591   -4.2317  -15.2369 C   0  0  0  0  0  0  0  0  0  0  0  0
   20.4721   -2.8212  -14.8295 C   0  0  0  0  0  0  0  0  0  0  0  0
   19.2492   -1.9961  -15.0402 C   0  0  0  0  0  0  0  0  0  0  0  0
   18.2301   -2.5328  -15.5293 O   0  0  0  0  0  0  0  0  0  0  0  0
   21.7780   -5.2142  -13.5958 C   0  0  0  0  0  0  0  0  0  0  0  0
   21.3177   -6.0459  -12.7495 O   0  0  0  0  0  0  0  0  0  0  0  0
   19.1746   -0.6497  -14.7220 O   0  0  0  0  0  0  0  0  0  0  0  0
   22.7462   -4.3417  -13.1479 O   0  0  0  0  0  0  0  0  0  0  0  0
  2  1  1  1
  2  4  1  0
  2  3  1  0
  4  5  1  0
  5  6  1  6
  5  7  1  0
  7  8  2  0
  9  7  1  0
  9 10  1  0
 10 11  1  0
 11 13  1  0
 11 12  2  0
 13 14  1  0
 14 19  1  0
 14 15  1  1
 16 15  1  0
 17 16  1  0
 17 21  1  0
 18 17  2  0
 19 22  1  0
 20 19  2  0
M  END
$$$$
