LED.pdb
     RDKit          3D

 26 25  0  0  1  0  0  0  0  0999 V2000
   19.1353  -26.4164   -3.0059 C   0  0  0  0  0  0  0  0  0  0  0  0
   18.1576  -26.4581   -1.8365 C   0  0  1  0  0  0  0  0  0  0  0  0
   16.7794  -26.1566   -2.4428 C   0  0  0  0  0  0  0  0  0  0  0  0
   18.0578  -27.8099   -1.2276 C   0  0  0  0  0  0  0  0  0  0  0  0
   17.2427  -27.9292    0.0221 C   0  0  2  0  0  0  0  0  0  0  0  0
   16.1328  -26.9561   -0.0922 N   0  0  0  0  0  0  0  0  0  0  0  0
   17.9888  -27.5755    1.2691 C   0  0  0  0  0  0  0  0  0  0  0  0
   19.0557  -28.1956    1.4748 O   0  0  0  0  0  0  0  0  0  0  0  0
   17.5387  -26.5999    2.1796 N   0  0  0  0  0  0  0  0  0  0  0  0
   18.0696  -26.2868    3.4741 C   0  0  1  0  0  0  0  0  0  0  0  0
   17.7279  -24.9204    3.9456 C   0  0  0  0  0  0  0  0  0  0  0  0
   18.5639  -24.6080    5.1972 C   0  0  0  0  0  0  0  0  0  0  0  0
   18.1813  -23.2396    5.6761 C   0  0  0  0  0  0  0  0  0  0  0  0
   18.1158  -23.0613    6.9322 O   0  0  0  0  0  0  0  0  0  0  0  0
   18.0701  -27.3613    4.4726 C   0  0  0  0  0  0  0  0  0  0  0  0
   17.0252  -27.9220    4.8814 O   0  0  0  0  0  0  0  0  0  0  0  0
   17.9067  -22.1996    4.8280 O   0  0  0  0  0  0  0  0  0  0  0  0
   19.2839  -27.8605    5.0645 N   0  0  0  0  0  0  0  0  0  0  0  0
   19.2817  -29.0419    5.9088 C   0  0  1  0  0  0  0  0  0  0  0  0
   19.9822  -30.2189    5.3343 C   0  0  0  0  0  0  0  0  0  0  0  0
   19.9121  -31.4286    6.1715 C   0  0  0  0  0  0  0  0  0  0  0  0
   20.2008  -31.3459    7.3903 O   0  0  0  0  0  0  0  0  0  0  0  0
   19.9473  -28.6831    7.2119 C   0  0  0  0  0  0  0  0  0  0  0  0
   19.9534  -29.5904    8.0959 O   0  0  0  0  0  0  0  0  0  0  0  0
   19.5403  -32.6737    5.6921 O   0  0  0  0  0  0  0  0  0  0  0  0
   20.5209  -27.4795    7.4839 O   0  0  0  0  0  0  0  0  0  0  0  0
  2  1  1  6
  2  3  1  0
  4  2  1  0
  5  4  1  0
  5  6  1  6
  7  9  1  0
  7  5  1  0
  8  7  2  0
 10  9  1  0
 11 12  1  0
 10 11  1  1
 12 13  1  0
 13 14  2  0
 13 17  1  0
 15 16  2  0
 15 10  1  0
 18 15  1  0
 19 20  1  6
 19 18  1  0
 21 20  1  0
 21 25  1  0
 22 21  2  0
 23 19  1  0
 24 23  2  0
 26 23  1  0
M  END
$$$$
