LED.pdb
     RDKit          3D

 26 25  0  0  1  0  0  0  0  0999 V2000
   13.1608   -9.1929  -16.9973 C   0  0  0  0  0  0  0  0  0  0  0  0
   14.3402  -10.0589  -16.5682 C   0  0  1  0  0  0  0  0  0  0  0  0
   14.9830  -10.5527  -17.8724 C   0  0  0  0  0  0  0  0  0  0  0  0
   15.3872   -9.2804  -15.8569 C   0  0  0  0  0  0  0  0  0  0  0  0
   16.5852  -10.0396  -15.3783 C   0  0  2  0  0  0  0  0  0  0  0  0
   16.1255  -10.9270  -14.2861 N   0  0  0  0  0  0  0  0  0  0  0  0
   17.6588   -9.1754  -14.7977 C   0  0  0  0  0  0  0  0  0  0  0  0
   17.3901   -8.6027  -13.7183 O   0  0  0  0  0  0  0  0  0  0  0  0
   18.9143   -8.9987  -15.4107 N   0  0  0  0  0  0  0  0  0  0  0  0
   20.0044   -8.1769  -14.9724 C   0  0  1  0  0  0  0  0  0  0  0  0
   21.3264   -8.8503  -15.0431 C   0  0  0  0  0  0  0  0  0  0  0  0
   21.8162   -8.8219  -16.4999 C   0  0  0  0  0  0  0  0  0  0  0  0
   23.0963   -9.5996  -16.5700 C   0  0  0  0  0  0  0  0  0  0  0  0
   24.1793   -8.9356  -16.5784 O   0  0  0  0  0  0  0  0  0  0  0  0
   19.9546   -6.7556  -15.3313 C   0  0  0  0  0  0  0  0  0  0  0  0
   19.6403   -6.3445  -16.4739 O   0  0  0  0  0  0  0  0  0  0  0  0
   23.1387  -10.9676  -16.6240 O   0  0  0  0  0  0  0  0  0  0  0  0
   20.2646   -5.7130  -14.3881 N   0  0  0  0  0  0  0  0  0  0  0  0
   20.2283   -4.3129  -14.7716 C   0  0  1  0  0  0  0  0  0  0  0  0
   19.4063   -3.4467  -13.8884 C   0  0  0  0  0  0  0  0  0  0  0  0
   19.3845   -2.0290  -14.2872 C   0  0  0  0  0  0  0  0  0  0  0  0
   20.0636   -1.1998  -13.6337 O   0  0  0  0  0  0  0  0  0  0  0  0
   21.6420   -3.7923  -14.7643 C   0  0  0  0  0  0  0  0  0  0  0  0
   22.4954   -4.5223  -14.1782 O   0  0  0  0  0  0  0  0  0  0  0  0
   18.6508   -1.5435  -15.3568 O   0  0  0  0  0  0  0  0  0  0  0  0
   22.0397   -2.6207  -15.3308 O   0  0  0  0  0  0  0  0  0  0  0  0
  2  1  1  6
  2  3  1  0
  4  2  1  0
  5  4  1  0
  5  6  1  1
  7  9  1  0
  7  5  1  0
  8  7  2  0
 10  9  1  0
 11 12  1  0
 10 11  1  6
 12 13  1  0
 13 14  2  0
 13 17  1  0
 15 16  2  0
 15 10  1  0
 18 15  1  0
 19 20  1  1
 19 18  1  0
 21 20  1  0
 21 25  1  0
 22 21  2  0
 23 19  1  0
 24 23  2  0
 26 23  1  0
M  END
$$$$
