LED.pdb
     RDKit          3D

 26 25  0  0  1  0  0  0  0  0999 V2000
   18.5266  -14.3481  -18.4195 C   0  0  0  0  0  0  0  0  0  0  0  0
   18.2952  -13.7949  -17.0176 C   0  0  1  0  0  0  0  0  0  0  0  0
   19.1614  -14.6570  -16.0878 C   0  0  0  0  0  0  0  0  0  0  0  0
   18.7862  -12.4002  -16.8692 C   0  0  0  0  0  0  0  0  0  0  0  0
   18.5566  -11.7405  -15.5453 C   0  0  2  0  0  0  0  0  0  0  0  0
   17.1716  -12.0658  -15.1357 N   0  0  0  0  0  0  0  0  0  0  0  0
   18.6458  -10.2483  -15.5876 C   0  0  0  0  0  0  0  0  0  0  0  0
   19.6929   -9.7663  -16.0739 O   0  0  0  0  0  0  0  0  0  0  0  0
   17.6210   -9.4065  -15.1137 N   0  0  0  0  0  0  0  0  0  0  0  0
   17.5786   -7.9734  -15.1235 C   0  0  1  0  0  0  0  0  0  0  0  0
   16.2215   -7.4142  -14.8961 C   0  0  0  0  0  0  0  0  0  0  0  0
   15.2179   -8.1881  -15.7660 C   0  0  0  0  0  0  0  0  0  0  0  0
   13.9313   -8.2911  -15.0030 C   0  0  0  0  0  0  0  0  0  0  0  0
   13.6148   -9.4350  -14.5500 O   0  0  0  0  0  0  0  0  0  0  0  0
   18.7075   -7.2684  -14.5070 C   0  0  0  0  0  0  0  0  0  0  0  0
   18.9674   -7.3236  -13.2812 O   0  0  0  0  0  0  0  0  0  0  0  0
   13.1047   -7.2214  -14.7819 O   0  0  0  0  0  0  0  0  0  0  0  0
   19.6140   -6.4518  -15.2714 N   0  0  0  0  0  0  0  0  0  0  0  0
   20.6806   -5.7041  -14.6295 C   0  0  1  0  0  0  0  0  0  0  0  0
   22.0014   -5.8024  -15.3017 C   0  0  0  0  0  0  0  0  0  0  0  0
   23.0534   -4.9764  -14.6850 C   0  0  0  0  0  0  0  0  0  0  0  0
   22.8464   -4.4648  -13.5576 O   0  0  0  0  0  0  0  0  0  0  0  0
   20.2742   -4.2539  -14.5919 C   0  0  0  0  0  0  0  0  0  0  0  0
   19.5706   -3.8531  -15.5660 O   0  0  0  0  0  0  0  0  0  0  0  0
   24.2788   -4.7244  -15.2792 O   0  0  0  0  0  0  0  0  0  0  0  0
   20.6108   -3.3798  -13.6048 O   0  0  0  0  0  0  0  0  0  0  0  0
  2  1  1  6
  2  3  1  0
  4  2  1  0
  5  4  1  0
  5  6  1  6
  7  9  1  0
  7  5  1  0
  8  7  2  0
 10  9  1  0
 11 12  1  0
 10 11  1  1
 12 13  1  0
 13 14  2  0
 13 17  1  0
 15 16  2  0
 15 10  1  0
 18 15  1  0
 19 20  1  6
 19 18  1  0
 21 20  1  0
 21 25  1  0
 22 21  2  0
 23 19  1  0
 24 23  2  0
 26 23  1  0
M  END
$$$$
