LED.pdb
     RDKit          3D

 26 25  0  0  1  0  0  0  0  0999 V2000
   14.2658  -11.5399  -16.8772 C   0  0  0  0  0  0  0  0  0  0  0  0
   15.6786  -12.1004  -16.9998 C   0  0  1  0  0  0  0  0  0  0  0  0
   16.0313  -12.0021  -18.4910 C   0  0  0  0  0  0  0  0  0  0  0  0
   16.6818  -11.2741  -16.2794 C   0  0  0  0  0  0  0  0  0  0  0  0
   18.1108  -11.7089  -16.3775 C   0  0  2  0  0  0  0  0  0  0  0  0
   18.2676  -12.8802  -15.4857 N   0  0  0  0  0  0  0  0  0  0  0  0
   19.0908  -10.6830  -15.9047 C   0  0  0  0  0  0  0  0  0  0  0  0
   19.0011  -10.3379  -14.7055 O   0  0  0  0  0  0  0  0  0  0  0  0
   20.0732  -10.1197  -16.7420 N   0  0  0  0  0  0  0  0  0  0  0  0
   21.0608   -9.1354  -16.4082 C   0  0  1  0  0  0  0  0  0  0  0  0
   22.4131   -9.4412  -16.9411 C   0  0  0  0  0  0  0  0  0  0  0  0
   23.3922   -8.3641  -16.4469 C   0  0  0  0  0  0  0  0  0  0  0  0
   24.7338   -8.6491  -17.0529 C   0  0  0  0  0  0  0  0  0  0  0  0
   24.8377   -9.6940  -17.7681 O   0  0  0  0  0  0  0  0  0  0  0  0
   20.6351   -7.7318  -16.4220 C   0  0  0  0  0  0  0  0  0  0  0  0
   20.1434   -7.1713  -17.4306 O   0  0  0  0  0  0  0  0  0  0  0  0
   25.8252   -7.8425  -16.8677 O   0  0  0  0  0  0  0  0  0  0  0  0
   20.7490   -6.8823  -15.2652 N   0  0  0  0  0  0  0  0  0  0  0  0
   20.4097   -5.4718  -15.3281 C   0  0  1  0  0  0  0  0  0  0  0  0
   19.1433   -5.1052  -14.6442 C   0  0  0  0  0  0  0  0  0  0  0  0
   18.0421   -4.7624  -15.5603 C   0  0  0  0  0  0  0  0  0  0  0  0
   18.2542   -4.7616  -16.7975 O   0  0  0  0  0  0  0  0  0  0  0  0
   21.5337   -4.6946  -14.6938 C   0  0  0  0  0  0  0  0  0  0  0  0
   22.4301   -5.3861  -14.1255 O   0  0  0  0  0  0  0  0  0  0  0  0
   16.7644   -4.4364  -15.1369 O   0  0  0  0  0  0  0  0  0  0  0  0
   21.6354   -3.3377  -14.6953 O   0  0  0  0  0  0  0  0  0  0  0  0
  2  1  1  6
  2  3  1  0
  4  2  1  0
  5  4  1  0
  5  6  1  1
  7  9  1  0
  7  5  1  0
  8  7  2  0
 10  9  1  0
 11 12  1  0
 10 11  1  6
 12 13  1  0
 13 14  2  0
 13 17  1  0
 15 16  2  0
 15 10  1  0
 18 15  1  0
 19 20  1  1
 19 18  1  0
 21 20  1  0
 21 25  1  0
 22 21  2  0
 23 19  1  0
 24 23  2  0
 26 23  1  0
M  END
$$$$
