LED.pdb
     RDKit          3D

 26 25  0  0  1  0  0  0  0  0999 V2000
   12.7302   -4.6297   -7.0526 C   0  0  0  0  0  0  0  0  0  0  0  0
   13.9769   -3.9850   -7.6486 C   0  0  1  0  0  0  0  0  0  0  0  0
   14.9222   -3.7453   -6.4625 C   0  0  0  0  0  0  0  0  0  0  0  0
   14.6972   -4.8939   -8.5778 C   0  0  0  0  0  0  0  0  0  0  0  0
   15.9852   -4.3911   -9.1513 C   0  0  2  0  0  0  0  0  0  0  0  0
   15.6780   -3.1278   -9.8596 N   0  0  0  0  0  0  0  0  0  0  0  0
   16.5964   -5.3061  -10.1642 C   0  0  0  0  0  0  0  0  0  0  0  0
   16.0870   -5.2922  -11.3067 O   0  0  0  0  0  0  0  0  0  0  0  0
   17.6878   -6.1479   -9.8752 N   0  0  0  0  0  0  0  0  0  0  0  0
   18.2622   -7.1669  -10.7043 C   0  0  1  0  0  0  0  0  0  0  0  0
   19.7304   -7.0334  -10.8846 C   0  0  0  0  0  0  0  0  0  0  0  0
   20.0048   -5.8579  -11.8364 C   0  0  0  0  0  0  0  0  0  0  0  0
   21.4911   -5.7036  -11.9602 C   0  0  0  0  0  0  0  0  0  0  0  0
   22.1255   -6.6385  -12.5412 O   0  0  0  0  0  0  0  0  0  0  0  0
   17.7235   -8.5239  -10.5633 C   0  0  0  0  0  0  0  0  0  0  0  0
   17.8608   -9.2149   -9.5255 O   0  0  0  0  0  0  0  0  0  0  0  0
   22.1731   -4.6166  -11.4811 O   0  0  0  0  0  0  0  0  0  0  0  0
   16.9865   -9.1720  -11.6167 N   0  0  0  0  0  0  0  0  0  0  0  0
   16.4445  -10.5084  -11.4469 C   0  0  1  0  0  0  0  0  0  0  0  0
   14.9735  -10.5629  -11.2485 C   0  0  0  0  0  0  0  0  0  0  0  0
   14.4496  -11.9169  -11.0004 C   0  0  0  0  0  0  0  0  0  0  0  0
   15.2274  -12.8042  -10.5720 O   0  0  0  0  0  0  0  0  0  0  0  0
   16.7873  -11.3087  -12.6764 C   0  0  0  0  0  0  0  0  0  0  0  0
   16.4995  -12.5414  -12.6299 O   0  0  0  0  0  0  0  0  0  0  0  0
   13.1300  -12.2803  -11.2120 O   0  0  0  0  0  0  0  0  0  0  0  0
   17.3709  -10.7993  -13.7952 O   0  0  0  0  0  0  0  0  0  0  0  0
  2  1  1  1
  2  3  1  0
  4  2  1  0
  5  4  1  0
  5  6  1  6
  7  9  1  0
  7  5  1  0
  8  7  2  0
 10  9  1  0
 11 12  1  0
 10 11  1  1
 12 13  1  0
 13 14  2  0
 13 17  1  0
 15 16  2  0
 15 10  1  0
 18 15  1  0
 19 20  1  6
 19 18  1  0
 21 20  1  0
 21 25  1  0
 22 21  2  0
 23 19  1  0
 24 23  2  0
 26 23  1  0
M  END
$$$$
