LED.pdb
     RDKit          3D

 26 25  0  0  1  0  0  0  0  0999 V2000
   19.7861  -14.9627  -15.4025 C   0  0  0  0  0  0  0  0  0  0  0  0
   19.9327  -13.7500  -16.3153 C   0  0  1  0  0  0  0  0  0  0  0  0
   18.7981  -13.8702  -17.3431 C   0  0  0  0  0  0  0  0  0  0  0  0
   19.7096  -12.4684  -15.5971 C   0  0  0  0  0  0  0  0  0  0  0  0
   19.8207  -11.2132  -16.4051 C   0  0  2  0  0  0  0  0  0  0  0  0
   21.2278  -11.1122  -16.8539 N   0  0  0  0  0  0  0  0  0  0  0  0
   19.5330   -9.9662  -15.6312 C   0  0  0  0  0  0  0  0  0  0  0  0
   18.7916  -10.0898  -14.6311 O   0  0  0  0  0  0  0  0  0  0  0  0
   20.0561   -8.7077  -15.9856 N   0  0  0  0  0  0  0  0  0  0  0  0
   19.7225   -7.4254  -15.4376 C   0  0  1  0  0  0  0  0  0  0  0  0
   20.8495   -6.4580  -15.4518 C   0  0  0  0  0  0  0  0  0  0  0  0
   21.6097   -6.5679  -14.1203 C   0  0  0  0  0  0  0  0  0  0  0  0
   22.5913   -5.4364  -14.0562 C   0  0  0  0  0  0  0  0  0  0  0  0
   22.3315   -4.4870  -13.2530 O   0  0  0  0  0  0  0  0  0  0  0  0
   18.3843   -6.9019  -15.7317 C   0  0  0  0  0  0  0  0  0  0  0  0
   17.8397   -6.9971  -16.8576 O   0  0  0  0  0  0  0  0  0  0  0  0
   23.7312   -5.3907  -14.8145 O   0  0  0  0  0  0  0  0  0  0  0  0
   17.5847   -6.2332  -14.7385 N   0  0  0  0  0  0  0  0  0  0  0  0
   16.2513   -5.7468  -15.0451 C   0  0  1  0  0  0  0  0  0  0  0  0
   15.1524   -6.4597  -14.3448 C   0  0  0  0  0  0  0  0  0  0  0  0
   13.8154   -5.8920  -14.5887 C   0  0  0  0  0  0  0  0  0  0  0  0
   13.4098   -5.7695  -15.7703 O   0  0  0  0  0  0  0  0  0  0  0  0
   16.1893   -4.2901  -14.6659 C   0  0  0  0  0  0  0  0  0  0  0  0
   16.9718   -3.9282  -13.7379 O   0  0  0  0  0  0  0  0  0  0  0  0
   12.9612   -5.4784  -13.5801 O   0  0  0  0  0  0  0  0  0  0  0  0
   15.3664   -3.3730  -15.2434 O   0  0  0  0  0  0  0  0  0  0  0  0
  2  1  1  1
  2  3  1  0
  4  2  1  0
  5  4  1  0
  5  6  1  1
  7  9  1  0
  7  5  1  0
  8  7  2  0
 10  9  1  0
 11 12  1  0
 10 11  1  6
 12 13  1  0
 13 14  2  0
 13 17  1  0
 15 16  2  0
 15 10  1  0
 18 15  1  0
 19 20  1  1
 19 18  1  0
 21 20  1  0
 21 25  1  0
 22 21  2  0
 23 19  1  0
 24 23  2  0
 26 23  1  0
M  END
$$$$
