LED.pdb
     RDKit          3D

 26 25  0  0  1  0  0  0  0  0999 V2000
   21.3073  -14.9404  -16.5592 C   0  0  0  0  0  0  0  0  0  0  0  0
   21.0540  -13.6515  -17.3336 C   0  0  1  0  0  0  0  0  0  0  0  0
   20.0931  -14.0361  -18.4678 C   0  0  0  0  0  0  0  0  0  0  0  0
   20.3481  -12.6288  -16.5187 C   0  0  0  0  0  0  0  0  0  0  0  0
   20.0063  -11.3405  -17.2001 C   0  0  2  0  0  0  0  0  0  0  0  0
   21.2014  -10.9303  -17.9716 N   0  0  0  0  0  0  0  0  0  0  0  0
   19.7045  -10.2181  -16.2589 C   0  0  0  0  0  0  0  0  0  0  0  0
   18.7123  -10.3689  -15.5120 O   0  0  0  0  0  0  0  0  0  0  0  0
   20.4792   -9.0438  -16.1948 N   0  0  0  0  0  0  0  0  0  0  0  0
   20.2488   -7.8750  -15.3969 C   0  0  1  0  0  0  0  0  0  0  0  0
   21.4774   -7.0867  -15.1231 C   0  0  0  0  0  0  0  0  0  0  0  0
   21.1393   -5.9858  -14.1049 C   0  0  0  0  0  0  0  0  0  0  0  0
   22.4162   -5.2908  -13.7379 C   0  0  0  0  0  0  0  0  0  0  0  0
   22.3677   -4.4524  -12.7846 O   0  0  0  0  0  0  0  0  0  0  0  0
   19.0133   -7.1265  -15.6516 C   0  0  0  0  0  0  0  0  0  0  0  0
   18.7310   -6.6216  -16.7645 O   0  0  0  0  0  0  0  0  0  0  0  0
   23.6049   -5.5221  -14.3781 O   0  0  0  0  0  0  0  0  0  0  0  0
   18.0191   -6.9138  -14.6322 N   0  0  0  0  0  0  0  0  0  0  0  0
   16.8178   -6.1427  -14.8985 C   0  0  1  0  0  0  0  0  0  0  0  0
   15.5944   -6.6423  -14.2204 C   0  0  0  0  0  0  0  0  0  0  0  0
   14.9932   -7.8256  -14.8587 C   0  0  0  0  0  0  0  0  0  0  0  0
   14.0037   -8.3759  -14.3167 O   0  0  0  0  0  0  0  0  0  0  0  0
   17.0651   -4.7265  -14.4483 C   0  0  0  0  0  0  0  0  0  0  0  0
   16.1464   -3.8955  -14.7127 O   0  0  0  0  0  0  0  0  0  0  0  0
   15.4570   -8.3794  -16.0405 O   0  0  0  0  0  0  0  0  0  0  0  0
   18.1829   -4.3039  -13.7974 O   0  0  0  0  0  0  0  0  0  0  0  0
  2  1  1  1
  2  3  1  0
  4  2  1  0
  5  4  1  0
  5  6  1  1
  7  9  1  0
  7  5  1  0
  8  7  2  0
 10  9  1  0
 11 12  1  0
 10 11  1  6
 12 13  1  0
 13 14  2  0
 13 17  1  0
 15 16  2  0
 15 10  1  0
 18 15  1  0
 19 20  1  1
 19 18  1  0
 21 20  1  0
 21 25  1  0
 22 21  2  0
 23 19  1  0
 24 23  2  0
 26 23  1  0
M  END
$$$$
