LED.pdb
     RDKit          3D

 26 25  0  0  1  0  0  0  0  0999 V2000
   27.7558  -10.7479  -14.8945 C   0  0  0  0  0  0  0  0  0  0  0  0
   26.6632  -10.6119  -15.9495 C   0  0  1  0  0  0  0  0  0  0  0  0
   26.6255  -11.9632  -16.6780 C   0  0  0  0  0  0  0  0  0  0  0  0
   25.3161  -10.4240  -15.3510 C   0  0  0  0  0  0  0  0  0  0  0  0
   24.1642  -10.3156  -16.3007 C   0  0  2  0  0  0  0  0  0  0  0  0
   24.5777   -9.3857  -17.3759 N   0  0  0  0  0  0  0  0  0  0  0  0
   22.9282   -9.7347  -15.6912 C   0  0  0  0  0  0  0  0  0  0  0  0
   22.3842  -10.4067  -14.7869 O   0  0  0  0  0  0  0  0  0  0  0  0
   22.3844   -8.4994  -16.0931 N   0  0  0  0  0  0  0  0  0  0  0  0
   21.1991   -7.8552  -15.6076 C   0  0  1  0  0  0  0  0  0  0  0  0
   21.3129   -6.3765  -15.5271 C   0  0  0  0  0  0  0  0  0  0  0  0
   21.7793   -5.9947  -14.1130 C   0  0  0  0  0  0  0  0  0  0  0  0
   21.7888   -4.4982  -14.0201 C   0  0  0  0  0  0  0  0  0  0  0  0
   22.8277   -3.8972  -14.4364 O   0  0  0  0  0  0  0  0  0  0  0  0
   19.9127   -8.4069  -16.0461 C   0  0  0  0  0  0  0  0  0  0  0  0
   19.6801   -8.7559  -17.2282 O   0  0  0  0  0  0  0  0  0  0  0  0
   20.7423   -3.7732  -13.5146 O   0  0  0  0  0  0  0  0  0  0  0  0
   18.8077   -8.5934  -15.1421 N   0  0  0  0  0  0  0  0  0  0  0  0
   17.5544   -9.1731  -15.5914 C   0  0  1  0  0  0  0  0  0  0  0  0
   17.4686  -10.6499  -15.4584 C   0  0  0  0  0  0  0  0  0  0  0  0
   16.1639  -11.2140  -15.8445 C   0  0  0  0  0  0  0  0  0  0  0  0
   15.6093  -10.8078  -16.8948 O   0  0  0  0  0  0  0  0  0  0  0  0
   16.4418   -8.5583  -14.7829 C   0  0  0  0  0  0  0  0  0  0  0  0
   16.7964   -7.7051  -13.9164 O   0  0  0  0  0  0  0  0  0  0  0  0
   15.4985  -12.1820  -15.1108 O   0  0  0  0  0  0  0  0  0  0  0  0
   15.1224   -8.8595  -14.9250 O   0  0  0  0  0  0  0  0  0  0  0  0
  2  1  1  1
  2  3  1  0
  4  2  1  0
  5  4  1  0
  5  6  1  6
  7  9  1  0
  7  5  1  0
  8  7  2  0
 10  9  1  0
 11 12  1  0
 10 11  1  6
 12 13  1  0
 13 14  2  0
 13 17  1  0
 15 16  2  0
 15 10  1  0
 18 15  1  0
 19 20  1  1
 19 18  1  0
 21 20  1  0
 21 25  1  0
 22 21  2  0
 23 19  1  0
 24 23  2  0
 26 23  1  0
M  END
$$$$
