LED.pdb
     RDKit          3D

 26 25  0  0  1  0  0  0  0  0999 V2000
   27.6120  -17.4821  -18.1965 C   0  0  0  0  0  0  0  0  0  0  0  0
   27.9950  -18.4321  -17.0669 C   0  0  1  0  0  0  0  0  0  0  0  0
   28.5906  -17.5422  -15.9663 C   0  0  0  0  0  0  0  0  0  0  0  0
   26.8142  -19.1042  -16.4652 C   0  0  0  0  0  0  0  0  0  0  0  0
   27.0715  -20.0029  -15.2961 C   0  0  2  0  0  0  0  0  0  0  0  0
   27.9581  -21.0883  -15.7733 N   0  0  0  0  0  0  0  0  0  0  0  0
   25.8433  -20.6655  -14.7584 C   0  0  0  0  0  0  0  0  0  0  0  0
   25.4302  -21.6661  -15.3855 O   0  0  0  0  0  0  0  0  0  0  0  0
   25.1685  -20.2098  -13.6094 N   0  0  0  0  0  0  0  0  0  0  0  0
   23.9298  -20.6842  -13.0650 C   0  0  1  0  0  0  0  0  0  0  0  0
   23.9264  -20.7806  -11.5828 C   0  0  0  0  0  0  0  0  0  0  0  0
   25.3441  -21.1399  -11.1095 C   0  0  0  0  0  0  0  0  0  0  0  0
   25.3084  -21.2828   -9.6174 C   0  0  0  0  0  0  0  0  0  0  0  0
   26.4110  -21.5125   -9.0295 O   0  0  0  0  0  0  0  0  0  0  0  0
   22.6967  -20.2217  -13.7108 C   0  0  0  0  0  0  0  0  0  0  0  0
   22.4693  -19.0175  -13.9782 O   0  0  0  0  0  0  0  0  0  0  0  0
   24.1571  -21.1770   -8.8827 O   0  0  0  0  0  0  0  0  0  0  0  0
   21.6430  -21.1254  -14.0926 N   0  0  0  0  0  0  0  0  0  0  0  0
   20.4112  -20.6398  -14.6889 C   0  0  1  0  0  0  0  0  0  0  0  0
   20.2678  -20.9238  -16.1397 C   0  0  0  0  0  0  0  0  0  0  0  0
   20.6376  -19.7968  -17.0129 C   0  0  0  0  0  0  0  0  0  0  0  0
   21.0086  -18.7165  -16.4923 O   0  0  0  0  0  0  0  0  0  0  0  0
   19.2583  -21.2833  -13.9633 C   0  0  0  0  0  0  0  0  0  0  0  0
   18.1075  -20.8424  -14.2560 O   0  0  0  0  0  0  0  0  0  0  0  0
   20.6031  -19.8539  -18.3963 O   0  0  0  0  0  0  0  0  0  0  0  0
   19.3800  -22.2763  -13.0409 O   0  0  0  0  0  0  0  0  0  0  0  0
  2  1  1  6
  2  3  1  0
  4  2  1  0
  5  4  1  0
  5  6  1  6
  7  9  1  0
  7  5  1  0
  8  7  2  0
 10  9  1  0
 11 12  1  0
 10 11  1  1
 12 13  1  0
 13 14  2  0
 13 17  1  0
 15 16  2  0
 15 10  1  0
 18 15  1  0
 19 20  1  6
 19 18  1  0
 21 20  1  0
 21 25  1  0
 22 21  2  0
 23 19  1  0
 24 23  2  0
 26 23  1  0
M  END
$$$$
