LED.pdb
     RDKit          3D

 26 25  0  0  1  0  0  0  0  0999 V2000
   27.3695  -13.2259  -17.3117 C   0  0  0  0  0  0  0  0  0  0  0  0
   25.9154  -13.5433  -16.9798 C   0  0  1  0  0  0  0  0  0  0  0  0
   25.9321  -14.0922  -15.5458 C   0  0  0  0  0  0  0  0  0  0  0  0
   25.0613  -12.3276  -16.9503 C   0  0  0  0  0  0  0  0  0  0  0  0
   23.6101  -12.5291  -16.6434 C   0  0  2  0  0  0  0  0  0  0  0  0
   23.0733  -13.4425  -17.6774 N   0  0  0  0  0  0  0  0  0  0  0  0
   22.7946  -11.2778  -16.7196 C   0  0  0  0  0  0  0  0  0  0  0  0
   22.9586  -10.5670  -17.7360 O   0  0  0  0  0  0  0  0  0  0  0  0
   21.8827  -10.8963  -15.7166 N   0  0  0  0  0  0  0  0  0  0  0  0
   21.0562   -9.7255  -15.6719 C   0  0  1  0  0  0  0  0  0  0  0  0
   19.6727   -9.9883  -15.1998 C   0  0  0  0  0  0  0  0  0  0  0  0
   19.0396  -11.0596  -16.1023 C   0  0  0  0  0  0  0  0  0  0  0  0
   18.1747  -11.9324  -15.2429 C   0  0  0  0  0  0  0  0  0  0  0  0
   16.9209  -11.7332  -15.2895 O   0  0  0  0  0  0  0  0  0  0  0  0
   21.6902   -8.4778  -15.2326 C   0  0  0  0  0  0  0  0  0  0  0  0
   22.5427   -8.4249  -14.3141 O   0  0  0  0  0  0  0  0  0  0  0  0
   18.6761  -12.9135  -14.4291 O   0  0  0  0  0  0  0  0  0  0  0  0
   21.3797   -7.2055  -15.8305 N   0  0  0  0  0  0  0  0  0  0  0  0
   22.0658   -5.9923  -15.4229 C   0  0  1  0  0  0  0  0  0  0  0  0
   21.9364   -4.8558  -16.3703 C   0  0  0  0  0  0  0  0  0  0  0  0
   22.6145   -3.6248  -15.9296 C   0  0  0  0  0  0  0  0  0  0  0  0
   23.4633   -3.6914  -15.0071 O   0  0  0  0  0  0  0  0  0  0  0  0
   21.5050   -5.5662  -14.0912 C   0  0  0  0  0  0  0  0  0  0  0  0
   20.2907   -5.8616  -13.8844 O   0  0  0  0  0  0  0  0  0  0  0  0
   22.3725   -2.3764  -16.4782 O   0  0  0  0  0  0  0  0  0  0  0  0
   22.2052   -4.9025  -13.1316 O   0  0  0  0  0  0  0  0  0  0  0  0
  2  1  1  1
  2  3  1  0
  4  2  1  0
  5  4  1  0
  5  6  1  6
  7  9  1  0
  7  5  1  0
  8  7  2  0
 10  9  1  0
 11 12  1  0
 10 11  1  1
 12 13  1  0
 13 14  2  0
 13 17  1  0
 15 16  2  0
 15 10  1  0
 18 15  1  0
 19 20  1  6
 19 18  1  0
 21 20  1  0
 21 25  1  0
 22 21  2  0
 23 19  1  0
 24 23  2  0
 26 23  1  0
M  END
$$$$
