LED.pdb
     RDKit          3D

 26 25  0  0  1  0  0  0  0  0999 V2000
   17.3372  -14.7350  -15.0930 C   0  0  0  0  0  0  0  0  0  0  0  0
   17.7622  -13.6168  -16.0387 C   0  0  1  0  0  0  0  0  0  0  0  0
   16.4575  -12.9520  -16.5009 C   0  0  0  0  0  0  0  0  0  0  0  0
   18.5474  -12.5592  -15.3509 C   0  0  0  0  0  0  0  0  0  0  0  0
   18.9314  -11.3646  -16.1670 C   0  0  2  0  0  0  0  0  0  0  0  0
   19.8471  -11.8430  -17.2275 N   0  0  0  0  0  0  0  0  0  0  0  0
   19.6803  -10.3215  -15.4004 C   0  0  0  0  0  0  0  0  0  0  0  0
   19.4921  -10.2965  -14.1638 O   0  0  0  0  0  0  0  0  0  0  0  0
   20.5574   -9.4048  -16.0115 N   0  0  0  0  0  0  0  0  0  0  0  0
   21.3491   -8.3865  -15.3852 C   0  0  1  0  0  0  0  0  0  0  0  0
   22.5258   -7.9661  -16.1881 C   0  0  0  0  0  0  0  0  0  0  0  0
   23.3593   -6.9759  -15.3588 C   0  0  0  0  0  0  0  0  0  0  0  0
   24.5153   -6.5284  -16.2025 C   0  0  0  0  0  0  0  0  0  0  0  0
   24.7992   -7.2343  -17.2198 O   0  0  0  0  0  0  0  0  0  0  0  0
   20.6302   -7.3412  -14.6489 C   0  0  0  0  0  0  0  0  0  0  0  0
   19.8245   -6.5472  -15.1909 O   0  0  0  0  0  0  0  0  0  0  0  0
   25.2584   -5.4123  -15.9224 O   0  0  0  0  0  0  0  0  0  0  0  0
   20.7956   -7.1463  -13.2321 N   0  0  0  0  0  0  0  0  0  0  0  0
   20.0002   -6.1722  -12.5061 C   0  0  1  0  0  0  0  0  0  0  0  0
   19.6495   -6.5655  -11.1175 C   0  0  0  0  0  0  0  0  0  0  0  0
   18.8108   -5.5845  -10.4078 C   0  0  0  0  0  0  0  0  0  0  0  0
   18.3586   -4.5976  -11.0381 O   0  0  0  0  0  0  0  0  0  0  0  0
   20.7791   -4.8838  -12.4520 C   0  0  0  0  0  0  0  0  0  0  0  0
   22.0377   -5.0033  -12.3718 O   0  0  0  0  0  0  0  0  0  0  0  0
   18.4821   -5.6834   -9.0661 O   0  0  0  0  0  0  0  0  0  0  0  0
   20.2253   -3.6412  -12.4813 O   0  0  0  0  0  0  0  0  0  0  0  0
  2  1  1  1
  2  3  1  0
  4  2  1  0
  5  4  1  0
  5  6  1  6
  7  9  1  0
  7  5  1  0
  8  7  2  0
 10  9  1  0
 11 12  1  0
 10 11  1  6
 12 13  1  0
 13 14  2  0
 13 17  1  0
 15 16  2  0
 15 10  1  0
 18 15  1  0
 19 20  1  1
 19 18  1  0
 21 20  1  0
 21 25  1  0
 22 21  2  0
 23 19  1  0
 24 23  2  0
 26 23  1  0
M  END
$$$$
