LED.pdb
     RDKit          3D

 26 25  0  0  1  0  0  0  0  0999 V2000
   14.6226  -11.3785  -18.8203 C   0  0  0  0  0  0  0  0  0  0  0  0
   15.7266  -11.6197  -17.7966 C   0  0  1  0  0  0  0  0  0  0  0  0
   16.9844  -11.9402  -18.6170 C   0  0  0  0  0  0  0  0  0  0  0  0
   16.0441  -10.4021  -17.0062 C   0  0  0  0  0  0  0  0  0  0  0  0
   17.1311  -10.5246  -15.9843 C   0  0  2  0  0  0  0  0  0  0  0  0
   16.6300  -11.4334  -14.9285 N   0  0  0  0  0  0  0  0  0  0  0  0
   17.4739   -9.2365  -15.3061 C   0  0  0  0  0  0  0  0  0  0  0  0
   16.6743   -8.8379  -14.4304 O   0  0  0  0  0  0  0  0  0  0  0  0
   18.6287   -8.4923  -15.6157 N   0  0  0  0  0  0  0  0  0  0  0  0
   19.0226   -7.2148  -15.0973 C   0  0  1  0  0  0  0  0  0  0  0  0
   20.4562   -7.1411  -14.7156 C   0  0  0  0  0  0  0  0  0  0  0  0
   20.7275   -5.7660  -14.0844 C   0  0  0  0  0  0  0  0  0  0  0  0
   22.1489   -5.7513  -13.6073 C   0  0  0  0  0  0  0  0  0  0  0  0
   22.6532   -4.6213  -13.3195 O   0  0  0  0  0  0  0  0  0  0  0  0
   18.4337   -6.0286  -15.7278 C   0  0  0  0  0  0  0  0  0  0  0  0
   18.3723   -5.8679  -16.9703 O   0  0  0  0  0  0  0  0  0  0  0  0
   22.9052   -6.8855  -13.4735 O   0  0  0  0  0  0  0  0  0  0  0  0
   17.8734   -4.9475  -14.9595 N   0  0  0  0  0  0  0  0  0  0  0  0
   17.2627   -3.7994  -15.6057 C   0  0  1  0  0  0  0  0  0  0  0  0
   16.0056   -3.3248  -14.9730 C   0  0  0  0  0  0  0  0  0  0  0  0
   15.3817   -2.1803  -15.6587 C   0  0  0  0  0  0  0  0  0  0  0  0
   14.5318   -1.4895  -15.0452 O   0  0  0  0  0  0  0  0  0  0  0  0
   18.2596   -2.6701  -15.5858 C   0  0  0  0  0  0  0  0  0  0  0  0
   18.7259   -2.3663  -14.4479 O   0  0  0  0  0  0  0  0  0  0  0  0
   15.6787   -1.8098  -16.9597 O   0  0  0  0  0  0  0  0  0  0  0  0
   18.6717   -1.9803  -16.6840 O   0  0  0  0  0  0  0  0  0  0  0  0
  2  1  1  6
  2  3  1  0
  4  2  1  0
  5  4  1  0
  5  6  1  1
  7  9  1  0
  7  5  1  0
  8  7  2  0
 10  9  1  0
 11 12  1  0
 10 11  1  6
 12 13  1  0
 13 14  2  0
 13 17  1  0
 15 16  2  0
 15 10  1  0
 18 15  1  0
 19 20  1  1
 19 18  1  0
 21 20  1  0
 21 25  1  0
 22 21  2  0
 23 19  1  0
 24 23  2  0
 26 23  1  0
M  END
$$$$
