LED.pdb
     RDKit          3D

 26 25  0  0  1  0  0  0  0  0999 V2000
   28.1311  -13.2454  -17.2239 C   0  0  0  0  0  0  0  0  0  0  0  0
   27.0177  -13.7187  -16.2957 C   0  0  1  0  0  0  0  0  0  0  0  0
   27.7246  -14.4558  -15.1491 C   0  0  0  0  0  0  0  0  0  0  0  0
   26.2797  -12.5896  -15.6723 C   0  0  0  0  0  0  0  0  0  0  0  0
   25.1409  -12.0133  -16.4545 C   0  0  2  0  0  0  0  0  0  0  0  0
   25.5409  -12.0367  -17.8797 N   0  0  0  0  0  0  0  0  0  0  0  0
   24.8383  -10.5866  -16.1235 C   0  0  0  0  0  0  0  0  0  0  0  0
   24.4572  -10.3546  -14.9547 O   0  0  0  0  0  0  0  0  0  0  0  0
   24.9681   -9.5402  -17.0570 N   0  0  0  0  0  0  0  0  0  0  0  0
   24.6288   -8.1574  -16.8880 C   0  0  1  0  0  0  0  0  0  0  0  0
   25.3517   -7.2474  -17.8129 C   0  0  0  0  0  0  0  0  0  0  0  0
   25.0449   -5.7948  -17.4142 C   0  0  0  0  0  0  0  0  0  0  0  0
   25.8036   -4.8933  -18.3416 C   0  0  0  0  0  0  0  0  0  0  0  0
   26.4967   -5.4466  -19.2512 O   0  0  0  0  0  0  0  0  0  0  0  0
   23.2248   -7.8454  -16.5998 C   0  0  0  0  0  0  0  0  0  0  0  0
   22.2778   -8.1723  -17.3544 O   0  0  0  0  0  0  0  0  0  0  0  0
   25.7767   -3.5272  -18.2456 O   0  0  0  0  0  0  0  0  0  0  0  0
   22.8230   -7.1338  -15.4145 N   0  0  0  0  0  0  0  0  0  0  0  0
   21.4251   -7.0263  -15.0360 C   0  0  1  0  0  0  0  0  0  0  0  0
   20.8102   -8.2915  -14.5595 C   0  0  0  0  0  0  0  0  0  0  0  0
   19.4055   -8.1564  -14.1380 C   0  0  0  0  0  0  0  0  0  0  0  0
   18.6941   -7.2633  -14.6595 O   0  0  0  0  0  0  0  0  0  0  0  0
   21.3189   -6.0031  -13.9353 C   0  0  0  0  0  0  0  0  0  0  0  0
   22.4142   -5.5085  -13.5348 O   0  0  0  0  0  0  0  0  0  0  0  0
   18.8078   -8.9669  -13.1871 O   0  0  0  0  0  0  0  0  0  0  0  0
   20.1524   -5.5959  -13.3653 O   0  0  0  0  0  0  0  0  0  0  0  0
  2  1  1  6
  2  3  1  0
  4  2  1  0
  5  4  1  0
  5  6  1  6
  7  9  1  0
  7  5  1  0
  8  7  2  0
 10  9  1  0
 11 12  1  0
 10 11  1  6
 12 13  1  0
 13 14  2  0
 13 17  1  0
 15 16  2  0
 15 10  1  0
 18 15  1  0
 19 20  1  1
 19 18  1  0
 21 20  1  0
 21 25  1  0
 22 21  2  0
 23 19  1  0
 24 23  2  0
 26 23  1  0
M  END
$$$$
