FNI.pdb
     RDKit          3D

 28 28  0  0  1  0  0  0  0  0999 V2000
    7.4444  -17.1879   20.7434 N   0  0  0  0  0  0  0  0  0  0  0  0
    8.0039  -16.2766   21.6871 C   0  0  1  0  0  0  0  0  0  0  0  0
    6.9972  -15.1808   21.9324 C   0  0  0  0  0  0  0  0  0  0  0  0
    7.2809  -14.0658   21.0069 C   0  0  0  0  0  0  0  0  0  0  0  0
    8.2086  -13.1000   21.3164 C   0  0  0  0  0  0  0  0  0  0  0  0
    8.4913  -12.0497   20.4740 C   0  0  0  0  0  0  0  0  0  0  0  0
    7.8234  -11.9607   19.2806 C   0  0  0  0  0  0  0  0  0  0  0  0
    6.8722  -12.9107   18.9145 C   0  0  0  0  0  0  0  0  0  0  0  0
    6.6218  -13.9583   19.8053 C   0  0  0  0  0  0  0  0  0  0  0  0
    8.4324  -16.9371   22.9629 C   0  0  0  0  0  0  0  0  0  0  0  0
    7.5408  -17.2695   23.7683 O   0  0  0  0  0  0  0  0  0  0  0  0
   11.8552  -19.8719   22.0672 N   0  0  0  0  0  0  0  0  0  0  0  0
   11.2157  -19.7214   23.3139 C   0  0  0  0  0  0  0  0  0  0  0  0
   10.3142  -20.5725   23.6030 O   0  0  0  0  0  0  0  0  0  0  0  0
   11.5093  -18.6637   24.3007 C   0  0  0  0  0  0  0  0  0  0  0  0
   10.4480  -17.6017   24.4263 C   0  0  2  0  0  0  0  0  0  0  0  0
    9.7657  -17.1874   23.2737 N   0  0  0  0  0  0  0  0  0  0  0  0
   10.8884  -16.5587   25.3375 C   0  0  0  0  0  0  0  0  0  0  0  0
   11.9877  -15.9252   25.1822 O   0  0  0  0  0  0  0  0  0  0  0  0
    7.7041  -12.6666   27.4957 C   0  0  0  0  0  0  0  0  0  0  0  0
    8.3237  -14.0318   27.5466 C   0  0  0  0  0  0  0  0  0  0  0  0
    9.7701  -13.9185   27.1557 C   0  0  2  0  0  0  0  0  0  0  0  0
    9.9918  -13.3264   25.7934 C   0  0  0  0  0  0  0  0  0  0  0  0
   10.5671  -15.1720   27.4117 C   0  0  2  0  0  0  0  0  0  0  0  0
   10.1158  -16.1801   26.4587 N   0  0  0  0  0  0  0  0  0  0  0  0
   10.5201  -15.6561   28.8000 C   0  0  0  0  0  0  0  0  0  0  0  0
    9.9193  -16.7327   29.0448 O   0  0  0  0  0  0  0  0  0  0  0  0
   11.0902  -15.0185   29.8879 O   0  0  0  0  0  0  0  0  0  0  0  0
  2  1  1  6
  2  3  1  0
  2 10  1  0
  4  9  2  0
  4  3  1  0
  5  4  1  0
  6  7  1  0
  6  5  2  0
  7  8  2  0
  8  9  1  0
 10 11  2  0
 13 12  1  0
 13 14  2  0
 15 13  1  0
 16 15  1  6
 17 10  1  0
 17 16  1  0
 18 19  2  0
 18 16  1  0
 21 22  1  0
 21 20  1  0
 22 24  1  0
 22 23  1  6
 24 26  1  0
 24 25  1  6
 25 18  1  0
 26 28  1  0
 27 26  2  0
M  END
$$$$
