FNI.pdb
     RDKit          3D

 28 28  0  0  1  0  0  0  0  0999 V2000
    9.4492  -16.1556   20.6943 N   0  0  0  0  0  0  0  0  0  0  0  0
    9.0622  -15.3620   21.8144 C   0  0  1  0  0  0  0  0  0  0  0  0
    7.6216  -14.9578   21.6256 C   0  0  0  0  0  0  0  0  0  0  0  0
    7.5303  -14.0823   20.4401 C   0  0  0  0  0  0  0  0  0  0  0  0
    8.0792  -12.8222   20.4397 C   0  0  0  0  0  0  0  0  0  0  0  0
    8.0074  -11.9850   19.3503 C   0  0  0  0  0  0  0  0  0  0  0  0
    7.3641  -12.4218   18.2218 C   0  0  0  0  0  0  0  0  0  0  0  0
    6.7886  -13.6893   18.1653 C   0  0  0  0  0  0  0  0  0  0  0  0
    6.8894  -14.5014   19.2984 C   0  0  0  0  0  0  0  0  0  0  0  0
    9.2819  -16.0490   23.1286 C   0  0  0  0  0  0  0  0  0  0  0  0
    8.8121  -15.5075   24.1485 O   0  0  0  0  0  0  0  0  0  0  0  0
   11.3536  -20.1643   21.6085 N   0  0  0  0  0  0  0  0  0  0  0  0
   10.5194  -20.0168   22.7347 C   0  0  0  0  0  0  0  0  0  0  0  0
    9.3196  -20.4258   22.6178 O   0  0  0  0  0  0  0  0  0  0  0  0
   10.9271  -19.4313   24.0270 C   0  0  0  0  0  0  0  0  0  0  0  0
   10.3427  -18.0740   24.3204 C   0  0  2  0  0  0  0  0  0  0  0  0
    9.9790  -17.2477   23.2477 N   0  0  0  0  0  0  0  0  0  0  0  0
   11.0603  -17.4461   25.4172 C   0  0  0  0  0  0  0  0  0  0  0  0
   12.2937  -17.1202   25.3383 O   0  0  0  0  0  0  0  0  0  0  0  0
    8.9385  -13.5811   28.7065 C   0  0  0  0  0  0  0  0  0  0  0  0
    9.2386  -15.0227   28.4199 C   0  0  0  0  0  0  0  0  0  0  0  0
   10.6426  -15.1265   27.8948 C   0  0  2  0  0  0  0  0  0  0  0  0
   10.9085  -14.2774   26.6849 C   0  0  0  0  0  0  0  0  0  0  0  0
   11.1376  -16.5442   27.7643 C   0  0  2  0  0  0  0  0  0  0  0  0
   10.4266  -17.1550   26.6464 N   0  0  0  0  0  0  0  0  0  0  0  0
   11.0366  -17.3450   28.9941 C   0  0  0  0  0  0  0  0  0  0  0  0
   10.1610  -18.2445   29.0596 O   0  0  0  0  0  0  0  0  0  0  0  0
   11.8365  -17.1944   30.1133 O   0  0  0  0  0  0  0  0  0  0  0  0
  2  1  1  6
  2  3  1  0
  2 10  1  0
  4  9  2  0
  4  3  1  0
  5  4  1  0
  6  7  1  0
  6  5  2  0
  7  8  2  0
  8  9  1  0
 10 11  2  0
 13 12  1  0
 13 14  2  0
 15 13  1  0
 16 15  1  6
 17 10  1  0
 17 16  1  0
 18 19  2  0
 18 16  1  0
 21 22  1  0
 21 20  1  0
 22 24  1  0
 22 23  1  6
 24 26  1  0
 24 25  1  6
 25 18  1  0
 26 28  1  0
 27 26  2  0
M  END
$$$$
