FNI.pdb
     RDKit          3D

 28 28  0  0  1  0  0  0  0  0999 V2000
    6.7710  -18.2238   21.0990 N   0  0  0  0  0  0  0  0  0  0  0  0
    7.4571  -17.0632   21.5643 C   0  0  1  0  0  0  0  0  0  0  0  0
    6.4357  -16.1173   22.1441 C   0  0  0  0  0  0  0  0  0  0  0  0
    7.0554  -14.7843   22.2842 C   0  0  0  0  0  0  0  0  0  0  0  0
    7.4531  -14.0632   21.1838 C   0  0  0  0  0  0  0  0  0  0  0  0
    8.0344  -12.8203   21.2852 C   0  0  0  0  0  0  0  0  0  0  0  0
    8.2255  -12.2791   22.5297 C   0  0  0  0  0  0  0  0  0  0  0  0
    7.8424  -12.9648   23.6804 C   0  0  0  0  0  0  0  0  0  0  0  0
    7.2560  -14.2239   23.5233 C   0  0  0  0  0  0  0  0  0  0  0  0
    8.5483  -17.3756   22.5436 C   0  0  0  0  0  0  0  0  0  0  0  0
    8.2134  -17.8274   23.6562 O   0  0  0  0  0  0  0  0  0  0  0  0
   12.2529  -19.2735   20.6734 N   0  0  0  0  0  0  0  0  0  0  0  0
   12.3472  -17.8929   20.9401 C   0  0  0  0  0  0  0  0  0  0  0  0
   12.3889  -17.1154   19.9330 O   0  0  0  0  0  0  0  0  0  0  0  0
   12.3996  -17.2857   22.2845 C   0  0  0  0  0  0  0  0  0  0  0  0
   11.0800  -17.2372   23.0099 C   0  0  2  0  0  0  0  0  0  0  0  0
    9.8970  -17.1824   22.2595 N   0  0  0  0  0  0  0  0  0  0  0  0
   11.1708  -16.3479   24.1559 C   0  0  0  0  0  0  0  0  0  0  0  0
   12.0020  -15.3786   24.2133 O   0  0  0  0  0  0  0  0  0  0  0  0
    8.9395  -12.2673   27.1232 C   0  0  0  0  0  0  0  0  0  0  0  0
    9.7663  -13.4774   27.4431 C   0  0  0  0  0  0  0  0  0  0  0  0
    9.6660  -14.4450   26.2980 C   0  0  2  0  0  0  0  0  0  0  0  0
    8.2603  -14.7061   25.8380 C   0  0  0  0  0  0  0  0  0  0  0  0
   10.4867  -15.6951   26.4870 C   0  0  2  0  0  0  0  0  0  0  0  0
   10.3337  -16.5054   25.2836 N   0  0  0  0  0  0  0  0  0  0  0  0
   10.1803  -16.4509   27.7112 C   0  0  0  0  0  0  0  0  0  0  0  0
   10.5317  -15.9743   28.8200 O   0  0  0  0  0  0  0  0  0  0  0  0
    9.5250  -17.6691   27.7547 O   0  0  0  0  0  0  0  0  0  0  0  0
  2  1  1  1
  2  3  1  0
  2 10  1  0
  4  9  2  0
  4  3  1  0
  5  4  1  0
  6  7  1  0
  6  5  2  0
  7  8  2  0
  8  9  1  0
 10 11  2  0
 13 12  1  0
 13 14  2  0
 15 13  1  0
 16 15  1  6
 17 10  1  0
 17 16  1  0
 18 19  2  0
 18 16  1  0
 21 22  1  0
 21 20  1  0
 22 24  1  0
 22 23  1  1
 24 26  1  0
 24 25  1  6
 25 18  1  0
 26 28  1  0
 27 26  2  0
M  END
$$$$
