FNI.pdb
     RDKit          3D

 28 28  0  0  1  0  0  0  0  0999 V2000
    5.7968  -17.9594   22.7419 N   0  0  0  0  0  0  0  0  0  0  0  0
    6.8223  -16.9715   22.6591 C   0  0  1  0  0  0  0  0  0  0  0  0
    6.2520  -15.6636   23.1470 C   0  0  0  0  0  0  0  0  0  0  0  0
    6.9386  -14.5603   22.4457 C   0  0  0  0  0  0  0  0  0  0  0  0
    6.4601  -14.0631   21.2570 C   0  0  0  0  0  0  0  0  0  0  0  0
    7.0805  -13.0376   20.5816 C   0  0  0  0  0  0  0  0  0  0  0  0
    8.2192  -12.4898   21.1121 C   0  0  0  0  0  0  0  0  0  0  0  0
    8.7500  -12.9539   22.3138 C   0  0  0  0  0  0  0  0  0  0  0  0
    8.0820  -13.9973   22.9609 C   0  0  0  0  0  0  0  0  0  0  0  0
    8.0677  -17.3499   23.4029 C   0  0  0  0  0  0  0  0  0  0  0  0
    7.9362  -18.0243   24.4431 O   0  0  0  0  0  0  0  0  0  0  0  0
   10.6946  -19.1546   21.0833 N   0  0  0  0  0  0  0  0  0  0  0  0
   11.4373  -17.9631   21.2038 C   0  0  0  0  0  0  0  0  0  0  0  0
   11.8440  -17.4284   20.1225 O   0  0  0  0  0  0  0  0  0  0  0  0
   11.7750  -17.2937   22.4754 C   0  0  0  0  0  0  0  0  0  0  0  0
   10.6405  -17.1980   23.4621 C   0  0  2  0  0  0  0  0  0  0  0  0
    9.3417  -16.9813   22.9807 N   0  0  0  0  0  0  0  0  0  0  0  0
   11.0483  -16.4204   24.6203 C   0  0  0  0  0  0  0  0  0  0  0  0
   12.2032  -15.8815   24.7182 O   0  0  0  0  0  0  0  0  0  0  0  0
    7.9807  -12.8766   27.5729 C   0  0  0  0  0  0  0  0  0  0  0  0
    8.4606  -14.2349   27.1544 C   0  0  0  0  0  0  0  0  0  0  0  0
    9.9485  -14.1782   26.9524 C   0  0  2  0  0  0  0  0  0  0  0  0
   10.3806  -13.2761   25.8320 C   0  0  0  0  0  0  0  0  0  0  0  0
   10.6095  -15.5327   26.9328 C   0  0  2  0  0  0  0  0  0  0  0  0
   10.1797  -16.2120   25.7155 N   0  0  0  0  0  0  0  0  0  0  0  0
   10.3782  -16.3457   28.1367 C   0  0  0  0  0  0  0  0  0  0  0  0
   10.8584  -15.9558   29.2310 O   0  0  0  0  0  0  0  0  0  0  0  0
    9.6633  -17.5300   28.1755 O   0  0  0  0  0  0  0  0  0  0  0  0
  2  1  1  1
  2  3  1  0
  2 10  1  0
  4  9  2  0
  4  3  1  0
  5  4  1  0
  6  7  1  0
  6  5  2  0
  7  8  2  0
  8  9  1  0
 10 11  2  0
 13 12  1  0
 13 14  2  0
 15 13  1  0
 16 15  1  6
 17 10  1  0
 17 16  1  0
 18 19  2  0
 18 16  1  0
 21 22  1  0
 21 20  1  0
 22 24  1  0
 22 23  1  6
 24 26  1  0
 24 25  1  6
 25 18  1  0
 26 28  1  0
 27 26  2  0
M  END
$$$$
