FNI.pdb
     RDKit          3D

 28 28  0  0  1  0  0  0  0  0999 V2000
    7.2566  -17.6148   20.7495 N   0  0  0  0  0  0  0  0  0  0  0  0
    7.7760  -16.5648   21.5631 C   0  0  1  0  0  0  0  0  0  0  0  0
    6.7260  -15.4869   21.6618 C   0  0  0  0  0  0  0  0  0  0  0  0
    7.1636  -14.3291   20.8566 C   0  0  0  0  0  0  0  0  0  0  0  0
    6.9035  -14.2582   19.5088 C   0  0  0  0  0  0  0  0  0  0  0  0
    7.3008  -13.1927   18.7344 C   0  0  0  0  0  0  0  0  0  0  0  0
    7.9824  -12.1620   19.3272 C   0  0  0  0  0  0  0  0  0  0  0  0
    8.2743  -12.1801   20.6894 C   0  0  0  0  0  0  0  0  0  0  0  0
    7.8484  -13.2851   21.4319 C   0  0  0  0  0  0  0  0  0  0  0  0
    8.2249  -17.0326   22.9148 C   0  0  0  0  0  0  0  0  0  0  0  0
    7.4265  -16.9061   23.8638 O   0  0  0  0  0  0  0  0  0  0  0  0
   10.9603  -20.8655   26.1152 N   0  0  0  0  0  0  0  0  0  0  0  0
   11.5759  -19.8338   25.3787 C   0  0  0  0  0  0  0  0  0  0  0  0
   12.6584  -19.3587   25.8508 O   0  0  0  0  0  0  0  0  0  0  0  0
   11.0670  -19.2687   24.1135 C   0  0  0  0  0  0  0  0  0  0  0  0
   10.1465  -18.0866   24.2723 C   0  0  2  0  0  0  0  0  0  0  0  0
    9.4784  -17.5927   23.1430 N   0  0  0  0  0  0  0  0  0  0  0  0
   10.7415  -17.1045   25.1633 C   0  0  0  0  0  0  0  0  0  0  0  0
   11.8219  -16.4822   24.8818 O   0  0  0  0  0  0  0  0  0  0  0  0
    8.4085  -13.1015   28.0637 C   0  0  0  0  0  0  0  0  0  0  0  0
    8.8445  -14.5351   27.9913 C   0  0  0  0  0  0  0  0  0  0  0  0
   10.2129  -14.5910   27.3731 C   0  0  2  0  0  0  0  0  0  0  0  0
   10.3103  -13.9097   26.0382 C   0  0  0  0  0  0  0  0  0  0  0  0
   10.8359  -15.9632   27.4032 C   0  0  2  0  0  0  0  0  0  0  0  0
   10.1508  -16.7769   26.4047 N   0  0  0  0  0  0  0  0  0  0  0  0
   10.8505  -16.6015   28.7284 C   0  0  0  0  0  0  0  0  0  0  0  0
   10.1022  -17.5910   28.9311 O   0  0  0  0  0  0  0  0  0  0  0  0
   11.6313  -16.2020   29.7988 O   0  0  0  0  0  0  0  0  0  0  0  0
  2  1  1  6
  2  3  1  0
  2 10  1  0
  4  9  2  0
  4  3  1  0
  5  4  1  0
  6  7  1  0
  6  5  2  0
  7  8  2  0
  8  9  1  0
 10 11  2  0
 13 12  1  0
 13 14  2  0
 15 13  1  0
 16 15  1  6
 17 10  1  0
 17 16  1  0
 18 19  2  0
 18 16  1  0
 21 22  1  0
 21 20  1  0
 22 24  1  0
 22 23  1  6
 24 26  1  0
 24 25  1  6
 25 18  1  0
 26 28  1  0
 27 26  2  0
M  END
$$$$
