FNI.pdb
     RDKit          3D

 28 28  0  0  1  0  0  0  0  0999 V2000
    6.5364  -17.9926   19.8599 N   0  0  0  0  0  0  0  0  0  0  0  0
    7.0161  -16.9224   20.6716 C   0  0  1  0  0  0  0  0  0  0  0  0
    6.0502  -15.7711   20.5460 C   0  0  0  0  0  0  0  0  0  0  0  0
    6.8189  -14.5103   20.5455 C   0  0  0  0  0  0  0  0  0  0  0  0
    6.9445  -13.7508   21.6841 C   0  0  0  0  0  0  0  0  0  0  0  0
    7.6529  -12.5717   21.7117 C   0  0  0  0  0  0  0  0  0  0  0  0
    8.2565  -12.1358   20.5611 C   0  0  0  0  0  0  0  0  0  0  0  0
    8.1625  -12.8643   19.3773 C   0  0  0  0  0  0  0  0  0  0  0  0
    7.4317  -14.0555   19.4021 C   0  0  0  0  0  0  0  0  0  0  0  0
    7.2315  -17.3171   22.1018 C   0  0  0  0  0  0  0  0  0  0  0  0
    6.2845  -17.8668   22.6977 O   0  0  0  0  0  0  0  0  0  0  0  0
   11.0636  -18.0274   22.2080 N   0  0  0  0  0  0  0  0  0  0  0  0
   10.7868  -18.8442   23.3225 C   0  0  0  0  0  0  0  0  0  0  0  0
   11.5324  -19.8627   23.4870 O   0  0  0  0  0  0  0  0  0  0  0  0
    9.7097  -18.6104   24.3046 C   0  0  0  0  0  0  0  0  0  0  0  0
    8.8969  -17.3639   24.0691 C   0  0  2  0  0  0  0  0  0  0  0  0
    8.4294  -17.0955   22.7748 N   0  0  0  0  0  0  0  0  0  0  0  0
    9.4675  -16.2476   24.8043 C   0  0  0  0  0  0  0  0  0  0  0  0
   10.4785  -15.5884   24.3834 O   0  0  0  0  0  0  0  0  0  0  0  0
    6.5337  -12.4779   26.4555 C   0  0  0  0  0  0  0  0  0  0  0  0
    7.6255  -13.3934   25.9861 C   0  0  0  0  0  0  0  0  0  0  0  0
    8.4876  -13.7562   27.1620 C   0  0  2  0  0  0  0  0  0  0  0  0
    8.9929  -12.5745   27.9389 C   0  0  0  0  0  0  0  0  0  0  0  0
    9.5519  -14.7746   26.8419 C   0  0  2  0  0  0  0  0  0  0  0  0
    8.9287  -15.8215   26.0395 N   0  0  0  0  0  0  0  0  0  0  0  0
   10.2562  -15.3153   28.0146 C   0  0  0  0  0  0  0  0  0  0  0  0
    9.8371  -16.3809   28.5333 O   0  0  0  0  0  0  0  0  0  0  0  0
   11.3648  -14.7438   28.6142 O   0  0  0  0  0  0  0  0  0  0  0  0
  2  1  1  6
  2  3  1  0
  2 10  1  0
  4  9  2  0
  4  3  1  0
  5  4  1  0
  6  7  1  0
  6  5  2  0
  7  8  2  0
  8  9  1  0
 10 11  2  0
 13 12  1  0
 13 14  2  0
 15 13  1  0
 16 15  1  6
 17 10  1  0
 17 16  1  0
 18 19  2  0
 18 16  1  0
 21 22  1  0
 21 20  1  0
 22 24  1  0
 22 23  1  6
 24 26  1  0
 24 25  1  1
 25 18  1  0
 26 28  1  0
 27 26  2  0
M  END
$$$$
