FNI.pdb
     RDKit          3D

 28 28  0  0  1  0  0  0  0  0999 V2000
    8.3422  -17.3015   17.6645 N   0  0  0  0  0  0  0  0  0  0  0  0
    8.4616  -16.3028   18.6757 C   0  0  1  0  0  0  0  0  0  0  0  0
    7.4207  -15.2439   18.4122 C   0  0  0  0  0  0  0  0  0  0  0  0
    7.4746  -14.2498   19.5028 C   0  0  0  0  0  0  0  0  0  0  0  0
    6.7574  -14.4233   20.6624 C   0  0  0  0  0  0  0  0  0  0  0  0
    6.7876  -13.5129   21.6934 C   0  0  0  0  0  0  0  0  0  0  0  0
    7.5610  -12.3892   21.5610 C   0  0  0  0  0  0  0  0  0  0  0  0
    8.3087  -12.1607   20.4078 C   0  0  0  0  0  0  0  0  0  0  0  0
    8.2440  -13.1162   19.3898 C   0  0  0  0  0  0  0  0  0  0  0  0
    8.3572  -16.8549   20.0657 C   0  0  0  0  0  0  0  0  0  0  0  0
    7.5369  -17.7729   20.2618 O   0  0  0  0  0  0  0  0  0  0  0  0
   10.1234  -19.3976   24.6154 N   0  0  0  0  0  0  0  0  0  0  0  0
   10.7888  -18.3781   23.9057 C   0  0  0  0  0  0  0  0  0  0  0  0
   11.7275  -17.7726   24.5161 O   0  0  0  0  0  0  0  0  0  0  0  0
   10.4843  -17.9638   22.5220 C   0  0  0  0  0  0  0  0  0  0  0  0
    9.4519  -16.8734   22.3996 C   0  0  2  0  0  0  0  0  0  0  0  0
    9.1294  -16.3870   21.1247 N   0  0  0  0  0  0  0  0  0  0  0  0
    9.6393  -15.8860   23.4495 C   0  0  0  0  0  0  0  0  0  0  0  0
   10.6347  -15.0845   23.4736 O   0  0  0  0  0  0  0  0  0  0  0  0
    6.5039  -12.0053   26.5900 C   0  0  0  0  0  0  0  0  0  0  0  0
    7.7921  -12.7739   26.6080 C   0  0  0  0  0  0  0  0  0  0  0  0
    7.6724  -13.9352   25.6621 C   0  0  2  0  0  0  0  0  0  0  0  0
    6.4002  -14.7192   25.8125 C   0  0  0  0  0  0  0  0  0  0  0  0
    8.9109  -14.7918   25.5944 C   0  0  2  0  0  0  0  0  0  0  0  0
    8.7194  -15.7534   24.5142 N   0  0  0  0  0  0  0  0  0  0  0  0
    9.2771  -15.4422   26.8619 C   0  0  0  0  0  0  0  0  0  0  0  0
    8.8800  -16.6154   27.0763 O   0  0  0  0  0  0  0  0  0  0  0  0
   10.0371  -14.8662   27.8648 O   0  0  0  0  0  0  0  0  0  0  0  0
  2  1  1  6
  2  3  1  0
  2 10  1  0
  4  9  2  0
  4  3  1  0
  5  4  1  0
  6  7  1  0
  6  5  2  0
  7  8  2  0
  8  9  1  0
 10 11  2  0
 13 12  1  0
 13 14  2  0
 15 13  1  0
 16 15  1  6
 17 10  1  0
 17 16  1  0
 18 19  2  0
 18 16  1  0
 21 22  1  0
 21 20  1  0
 22 24  1  0
 22 23  1  1
 24 26  1  0
 24 25  1  6
 25 18  1  0
 26 28  1  0
 27 26  2  0
M  END
$$$$
