FNI.pdb
     RDKit          3D

 28 28  0  0  1  0  0  0  0  0999 V2000
    7.5395  -15.8191   20.8181 N   0  0  0  0  0  0  0  0  0  0  0  0
    7.8233  -15.1607   22.0511 C   0  0  1  0  0  0  0  0  0  0  0  0
    6.6535  -14.2696   22.3853 C   0  0  0  0  0  0  0  0  0  0  0  0
    7.0235  -13.4190   23.5342 C   0  0  0  0  0  0  0  0  0  0  0  0
    7.7482  -12.2638   23.3627 C   0  0  0  0  0  0  0  0  0  0  0  0
    8.1080  -11.4538   24.4149 C   0  0  0  0  0  0  0  0  0  0  0  0
    7.7309  -11.8107   25.6833 C   0  0  0  0  0  0  0  0  0  0  0  0
    6.9958  -12.9709   25.9170 C   0  0  0  0  0  0  0  0  0  0  0  0
    6.6552  -13.7593   24.8142 C   0  0  0  0  0  0  0  0  0  0  0  0
    8.1393  -16.1097   23.1678 C   0  0  0  0  0  0  0  0  0  0  0  0
    7.2266  -16.3768   23.9738 O   0  0  0  0  0  0  0  0  0  0  0  0
   12.1838  -17.2089   22.3953 N   0  0  0  0  0  0  0  0  0  0  0  0
   11.7710  -18.4983   22.7862 C   0  0  0  0  0  0  0  0  0  0  0  0
   12.3860  -19.4816   22.2613 O   0  0  0  0  0  0  0  0  0  0  0  0
   10.6917  -18.7928   23.7492 C   0  0  0  0  0  0  0  0  0  0  0  0
    9.9504  -17.5844   24.2593 C   0  0  2  0  0  0  0  0  0  0  0  0
    9.3926  -16.6920   23.3330 N   0  0  0  0  0  0  0  0  0  0  0  0
   10.6585  -17.0012   25.3865 C   0  0  0  0  0  0  0  0  0  0  0  0
   11.6622  -16.2228   25.2432 O   0  0  0  0  0  0  0  0  0  0  0  0
    8.3191  -13.8599   28.1978 C   0  0  0  0  0  0  0  0  0  0  0  0
    9.3607  -14.6812   27.4971 C   0  0  0  0  0  0  0  0  0  0  0  0
    9.9278  -15.6730   28.4731 C   0  0  2  0  0  0  0  0  0  0  0  0
   10.3891  -15.0645   29.7664 C   0  0  0  0  0  0  0  0  0  0  0  0
   10.9217  -16.6261   27.8601 C   0  0  2  0  0  0  0  0  0  0  0  0
   10.2714  -17.2634   26.7203 N   0  0  0  0  0  0  0  0  0  0  0  0
   11.4903  -17.6066   28.7978 C   0  0  0  0  0  0  0  0  0  0  0  0
   10.9395  -18.7315   28.9040 O   0  0  0  0  0  0  0  0  0  0  0  0
   12.6031  -17.3983   29.5937 O   0  0  0  0  0  0  0  0  0  0  0  0
  2  1  1  6
  2  3  1  0
  2 10  1  0
  4  9  2  0
  4  3  1  0
  5  4  1  0
  6  7  1  0
  6  5  2  0
  7  8  2  0
  8  9  1  0
 10 11  2  0
 13 12  1  0
 13 14  2  0
 15 13  1  0
 16 15  1  6
 17 10  1  0
 17 16  1  0
 18 19  2  0
 18 16  1  0
 21 22  1  0
 21 20  1  0
 22 24  1  0
 22 23  1  1
 24 26  1  0
 24 25  1  6
 25 18  1  0
 26 28  1  0
 27 26  2  0
M  END
$$$$
