FNI.pdb
     RDKit          3D

 28 28  0  0  1  0  0  0  0  0999 V2000
    7.2509  -18.1426   20.1863 N   0  0  0  0  0  0  0  0  0  0  0  0
    7.6493  -16.9091   20.7813 C   0  0  1  0  0  0  0  0  0  0  0  0
    6.5180  -15.9252   20.6198 C   0  0  0  0  0  0  0  0  0  0  0  0
    7.0364  -14.5664   20.8752 C   0  0  0  0  0  0  0  0  0  0  0  0
    7.6381  -13.8336   19.8801 C   0  0  0  0  0  0  0  0  0  0  0  0
    8.1314  -12.5666   20.0905 C   0  0  0  0  0  0  0  0  0  0  0  0
    8.0202  -12.0124   21.3390 C   0  0  0  0  0  0  0  0  0  0  0  0
    7.4202  -12.7090   22.3859 C   0  0  0  0  0  0  0  0  0  0  0  0
    6.9348  -13.9926   22.1203 C   0  0  0  0  0  0  0  0  0  0  0  0
    8.0646  -17.0523   22.2147 C   0  0  0  0  0  0  0  0  0  0  0  0
    7.1627  -17.1326   23.0715 O   0  0  0  0  0  0  0  0  0  0  0  0
   12.0348  -19.1761   21.7372 N   0  0  0  0  0  0  0  0  0  0  0  0
   11.3756  -19.1784   22.9828 C   0  0  0  0  0  0  0  0  0  0  0  0
   10.7870  -20.2560   23.3186 O   0  0  0  0  0  0  0  0  0  0  0  0
   11.3174  -18.0385   23.9188 C   0  0  0  0  0  0  0  0  0  0  0  0
   10.0519  -17.2241   23.8479 C   0  0  2  0  0  0  0  0  0  0  0  0
    9.3968  -17.0978   22.6147 N   0  0  0  0  0  0  0  0  0  0  0  0
   10.1883  -16.0160   24.6441 C   0  0  0  0  0  0  0  0  0  0  0  0
   11.0424  -15.1042   24.3743 O   0  0  0  0  0  0  0  0  0  0  0  0
    6.7726  -12.5517   25.9803 C   0  0  0  0  0  0  0  0  0  0  0  0
    7.9526  -13.4275   25.6785 C   0  0  0  0  0  0  0  0  0  0  0  0
    8.5636  -13.8753   26.9762 C   0  0  2  0  0  0  0  0  0  0  0  0
    8.8155  -12.7611   27.9513 C   0  0  0  0  0  0  0  0  0  0  0  0
    9.7334  -14.8102   26.8046 C   0  0  2  0  0  0  0  0  0  0  0  0
    9.3731  -15.7775   25.7737 N   0  0  0  0  0  0  0  0  0  0  0  0
   10.1872  -15.4591   28.0443 C   0  0  0  0  0  0  0  0  0  0  0  0
    9.7150  -16.5845   28.3455 O   0  0  0  0  0  0  0  0  0  0  0  0
   11.1085  -14.9306   28.9314 O   0  0  0  0  0  0  0  0  0  0  0  0
  2  1  1  1
  2  3  1  0
  2 10  1  0
  4  9  2  0
  4  3  1  0
  5  4  1  0
  6  7  1  0
  6  5  2  0
  7  8  2  0
  8  9  1  0
 10 11  2  0
 13 12  1  0
 13 14  2  0
 15 13  1  0
 16 15  1  6
 17 10  1  0
 17 16  1  0
 18 19  2  0
 18 16  1  0
 21 22  1  0
 21 20  1  0
 22 24  1  0
 22 23  1  6
 24 26  1  0
 24 25  1  6
 25 18  1  0
 26 28  1  0
 27 26  2  0
M  END
$$$$
