FNI.pdb
     RDKit          3D

 28 28  0  0  1  0  0  0  0  0999 V2000
    6.2354  -18.0094   20.7018 N   0  0  0  0  0  0  0  0  0  0  0  0
    6.9817  -16.8726   21.1317 C   0  0  1  0  0  0  0  0  0  0  0  0
    6.0578  -15.6808   21.1349 C   0  0  0  0  0  0  0  0  0  0  0  0
    6.8672  -14.4578   20.9623 C   0  0  0  0  0  0  0  0  0  0  0  0
    7.0630  -13.5793   22.0011 C   0  0  0  0  0  0  0  0  0  0  0  0
    7.8106  -12.4321   21.8679 C   0  0  0  0  0  0  0  0  0  0  0  0
    8.3823  -12.1523   20.6542 C   0  0  0  0  0  0  0  0  0  0  0  0
    8.2172  -13.0064   19.5658 C   0  0  0  0  0  0  0  0  0  0  0  0
    7.4490  -14.1589   19.7532 C   0  0  0  0  0  0  0  0  0  0  0  0
    7.6435  -17.0698   22.4625 C   0  0  0  0  0  0  0  0  0  0  0  0
    6.9067  -17.2269   23.4557 O   0  0  0  0  0  0  0  0  0  0  0  0
   11.7340  -19.7681   21.7747 N   0  0  0  0  0  0  0  0  0  0  0  0
   11.0358  -19.3192   22.9135 C   0  0  0  0  0  0  0  0  0  0  0  0
   10.2188  -20.1377   23.4454 O   0  0  0  0  0  0  0  0  0  0  0  0
   11.1792  -17.9861   23.5311 C   0  0  0  0  0  0  0  0  0  0  0  0
    9.8881  -17.2329   23.7199 C   0  0  2  0  0  0  0  0  0  0  0  0
    9.0257  -17.0833   22.6246 N   0  0  0  0  0  0  0  0  0  0  0  0
   10.1102  -16.0569   24.5445 C   0  0  0  0  0  0  0  0  0  0  0  0
   10.9180  -15.1236   24.2125 O   0  0  0  0  0  0  0  0  0  0  0  0
    6.6601  -12.8694   26.2064 C   0  0  0  0  0  0  0  0  0  0  0  0
    7.9092  -13.5899   25.7927 C   0  0  0  0  0  0  0  0  0  0  0  0
    8.6641  -13.9919   27.0281 C   0  0  2  0  0  0  0  0  0  0  0  0
    8.9597  -12.8541   27.9627 C   0  0  0  0  0  0  0  0  0  0  0  0
    9.8526  -14.8767   26.7511 C   0  0  2  0  0  0  0  0  0  0  0  0
    9.4359  -15.8760   25.7733 N   0  0  0  0  0  0  0  0  0  0  0  0
   10.4570  -15.4843   27.9466 C   0  0  0  0  0  0  0  0  0  0  0  0
   10.0510  -16.6130   28.3222 O   0  0  0  0  0  0  0  0  0  0  0  0
   11.4559  -14.9124   28.7149 O   0  0  0  0  0  0  0  0  0  0  0  0
  2  1  1  1
  2  3  1  0
  2 10  1  0
  4  9  2  0
  4  3  1  0
  5  4  1  0
  6  7  1  0
  6  5  2  0
  7  8  2  0
  8  9  1  0
 10 11  2  0
 13 12  1  0
 13 14  2  0
 15 13  1  0
 16 15  1  6
 17 10  1  0
 17 16  1  0
 18 19  2  0
 18 16  1  0
 21 22  1  0
 21 20  1  0
 22 24  1  0
 22 23  1  6
 24 26  1  0
 24 25  1  6
 25 18  1  0
 26 28  1  0
 27 26  2  0
M  END
$$$$
