FNI.pdb
     RDKit          3D

 28 28  0  0  1  0  0  0  0  0999 V2000
    6.2598  -17.7416   20.9361 N   0  0  0  0  0  0  0  0  0  0  0  0
    7.2063  -16.7607   21.3559 C   0  0  1  0  0  0  0  0  0  0  0  0
    6.5209  -15.4174   21.3508 C   0  0  0  0  0  0  0  0  0  0  0  0
    7.4031  -14.4419   20.6796 C   0  0  0  0  0  0  0  0  0  0  0  0
    7.0006  -13.1452   20.4656 C   0  0  0  0  0  0  0  0  0  0  0  0
    7.8009  -12.2163   19.8416 C   0  0  0  0  0  0  0  0  0  0  0  0
    9.0470  -12.5963   19.4160 C   0  0  0  0  0  0  0  0  0  0  0  0
    9.5077  -13.8974   19.6056 C   0  0  0  0  0  0  0  0  0  0  0  0
    8.6563  -14.8029   20.2451 C   0  0  0  0  0  0  0  0  0  0  0  0
    7.8234  -17.0678   22.6872 C   0  0  0  0  0  0  0  0  0  0  0  0
    7.0560  -17.3575   23.6259 O   0  0  0  0  0  0  0  0  0  0  0  0
   13.2117  -16.6331   22.8258 N   0  0  0  0  0  0  0  0  0  0  0  0
   12.1466  -17.5428   22.6714 C   0  0  0  0  0  0  0  0  0  0  0  0
   11.8929  -17.9339   21.4869 O   0  0  0  0  0  0  0  0  0  0  0  0
   11.3119  -18.0724   23.7676 C   0  0  0  0  0  0  0  0  0  0  0  0
   10.0255  -17.3243   24.0030 C   0  0  2  0  0  0  0  0  0  0  0  0
    9.1973  -17.0411   22.9076 N   0  0  0  0  0  0  0  0  0  0  0  0
   10.2382  -16.2501   24.9585 C   0  0  0  0  0  0  0  0  0  0  0  0
   10.9988  -15.2516   24.7166 O   0  0  0  0  0  0  0  0  0  0  0  0
    6.7105  -13.3333   26.6956 C   0  0  0  0  0  0  0  0  0  0  0  0
    7.9911  -14.0042   26.2950 C   0  0  0  0  0  0  0  0  0  0  0  0
    8.7007  -14.4663   27.5362 C   0  0  2  0  0  0  0  0  0  0  0  0
    8.8963  -13.3909   28.5663 C   0  0  0  0  0  0  0  0  0  0  0  0
    9.9411  -15.2766   27.2591 C   0  0  2  0  0  0  0  0  0  0  0  0
    9.6071  -16.2478   26.2230 N   0  0  0  0  0  0  0  0  0  0  0  0
   10.5383  -15.9094   28.4451 C   0  0  0  0  0  0  0  0  0  0  0  0
   10.1937  -17.0809   28.7434 O   0  0  0  0  0  0  0  0  0  0  0  0
   11.4670  -15.3181   29.2836 O   0  0  0  0  0  0  0  0  0  0  0  0
  2  1  1  1
  2  3  1  0
  2 10  1  0
  4  9  2  0
  4  3  1  0
  5  4  1  0
  6  7  1  0
  6  5  2  0
  7  8  2  0
  8  9  1  0
 10 11  2  0
 13 12  1  0
 13 14  2  0
 15 13  1  0
 16 15  1  6
 17 10  1  0
 17 16  1  0
 18 19  2  0
 18 16  1  0
 21 22  1  0
 21 20  1  0
 22 24  1  0
 22 23  1  6
 24 26  1  0
 24 25  1  6
 25 18  1  0
 26 28  1  0
 27 26  2  0
M  END
$$$$
