FNI.pdb
     RDKit          3D

 28 28  0  0  1  0  0  0  0  0999 V2000
    7.1452  -18.0660   20.4585 N   0  0  0  0  0  0  0  0  0  0  0  0
    7.6582  -16.8537   21.0076 C   0  0  1  0  0  0  0  0  0  0  0  0
    6.5111  -15.8863   21.1577 C   0  0  0  0  0  0  0  0  0  0  0  0
    7.0618  -14.5276   21.3341 C   0  0  0  0  0  0  0  0  0  0  0  0
    7.0756  -13.9177   22.5657 C   0  0  0  0  0  0  0  0  0  0  0  0
    7.5807  -12.6525   22.7583 C   0  0  0  0  0  0  0  0  0  0  0  0
    8.0894  -11.9726   21.6826 C   0  0  0  0  0  0  0  0  0  0  0  0
    8.1010  -12.5410   20.4106 C   0  0  0  0  0  0  0  0  0  0  0  0
    7.5766  -13.8288   20.2680 C   0  0  0  0  0  0  0  0  0  0  0  0
    8.3917  -17.0550   22.2995 C   0  0  0  0  0  0  0  0  0  0  0  0
    7.7287  -17.4263   23.2878 O   0  0  0  0  0  0  0  0  0  0  0  0
   12.7410  -18.4535   20.8552 N   0  0  0  0  0  0  0  0  0  0  0  0
   12.1434  -18.5621   22.1268 C   0  0  0  0  0  0  0  0  0  0  0  0
   11.6207  -19.6848   22.4213 O   0  0  0  0  0  0  0  0  0  0  0  0
   12.0793  -17.4846   23.1337 C   0  0  0  0  0  0  0  0  0  0  0  0
   10.6883  -17.0134   23.4700 C   0  0  2  0  0  0  0  0  0  0  0  0
    9.7612  -16.8456   22.4316 N   0  0  0  0  0  0  0  0  0  0  0  0
   10.7438  -15.9647   24.4746 C   0  0  0  0  0  0  0  0  0  0  0  0
   11.4514  -14.9096   24.3327 O   0  0  0  0  0  0  0  0  0  0  0  0
    7.2280  -13.1083   26.6015 C   0  0  0  0  0  0  0  0  0  0  0  0
    8.4684  -13.7876   26.1012 C   0  0  0  0  0  0  0  0  0  0  0  0
    9.1364  -14.4800   27.2554 C   0  0  2  0  0  0  0  0  0  0  0  0
    9.3445  -13.6044   28.4577 C   0  0  0  0  0  0  0  0  0  0  0  0
   10.3557  -15.2742   26.8623 C   0  0  2  0  0  0  0  0  0  0  0  0
   10.0083  -16.0523   25.6782 N   0  0  0  0  0  0  0  0  0  0  0  0
   10.9152  -16.1108   27.9351 C   0  0  0  0  0  0  0  0  0  0  0  0
   10.4904  -17.2863   28.0690 O   0  0  0  0  0  0  0  0  0  0  0  0
   11.8898  -15.7120   28.8330 O   0  0  0  0  0  0  0  0  0  0  0  0
  2  1  1  1
  2  3  1  0
  2 10  1  0
  4  9  2  0
  4  3  1  0
  5  4  1  0
  6  7  1  0
  6  5  2  0
  7  8  2  0
  8  9  1  0
 10 11  2  0
 13 12  1  0
 13 14  2  0
 15 13  1  0
 16 15  1  6
 17 10  1  0
 17 16  1  0
 18 19  2  0
 18 16  1  0
 21 22  1  0
 21 20  1  0
 22 24  1  0
 22 23  1  1
 24 26  1  0
 24 25  1  6
 25 18  1  0
 26 28  1  0
 27 26  2  0
M  END
$$$$
