RND.pdb
     RDKit          3D

 28 27  0  0  1  0  0  0  0  0999 V2000
    9.4599  -14.7731   16.0127 N   0  0  0  0  0  0  0  0  0  0  0  0
    8.2770  -13.9944   15.9275 C   0  0  0  0  0  0  0  0  0  0  0  0
    7.6452  -13.8313   14.8011 N   0  0  0  0  0  0  0  0  0  0  0  0
    7.7023  -13.3425   17.0564 N   0  0  0  0  0  0  0  0  0  0  0  0
    8.5146  -12.9821   18.1841 C   0  0  0  0  0  0  0  0  0  0  0  0
    8.7869  -14.0897   19.1307 C   0  0  0  0  0  0  0  0  0  0  0  0
    9.0945  -15.4205   18.5454 C   0  0  0  0  0  0  0  0  0  0  0  0
    9.4569  -16.4880   19.5397 C   0  0  2  0  0  0  0  0  0  0  0  0
    8.7183  -16.4478   20.7608 N   0  0  0  0  0  0  0  0  0  0  0  0
   10.9213  -16.5702   19.7505 C   0  0  0  0  0  0  0  0  0  0  0  0
   11.6255  -16.9865   18.8006 O   0  0  0  0  0  0  0  0  0  0  0  0
    6.8041  -13.2052   14.8034 N   0  0  0  0  0  0  0  0  0  0  0  0
   13.6201  -13.3725   19.0651 C   0  0  0  0  0  0  0  0  0  0  0  0
   14.0269  -14.6154   19.6323 O   0  0  0  0  0  0  0  0  0  0  0  0
   14.6651  -15.4478   18.9259 C   0  0  0  0  0  0  0  0  0  0  0  0
   13.7329  -14.9860   21.0346 C   0  0  2  0  0  0  0  0  0  0  0  0
   13.0087  -16.3043   21.1292 N   0  0  0  0  0  0  0  0  0  0  0  0
   11.5913  -16.2130   20.9478 C   0  0  0  0  0  0  0  0  0  0  0  0
   13.3114  -16.8917   22.4769 O   0  0  0  0  0  0  0  0  0  0  0  0
   12.4909  -16.7255   23.4077 N   0  0  0  0  0  0  0  0  0  0  0  0
   14.4871  -17.6240   22.7308 C   0  0  2  0  0  0  0  0  0  0  0  0
   14.6894  -18.5062   23.8706 C   0  0  0  0  0  0  0  0  0  0  0  0
   13.5302  -19.4543   23.9356 C   0  0  0  0  0  0  0  0  0  0  0  0
   12.8649  -19.5143   25.2469 O   0  0  0  0  0  0  0  0  0  0  0  0
   13.3063  -18.8291   26.2030 C   0  0  0  0  0  0  0  0  0  0  0  0
   15.9831  -19.2163   23.7543 O   0  0  0  0  0  0  0  0  0  0  0  0
   16.1335  -20.0633   22.8558 O   0  0  0  0  0  0  0  0  0  0  0  0
   11.7675  -20.3018   25.4610 O   0  0  0  0  0  0  0  0  0  0  0  0
  2  1  1  0
  3  2  2  0
  4  2  1  0
  5  4  1  0
  6  5  1  0
  7  6  1  0
  8  7  1  0
  8  9  1  1
 10 17  1  0
 10  8  1  0
 11 10  2  0
 13 12  1  0
 14 13  2  0
 16 15  1  6
 15 13  1  0
 16 17  1  0
 18 16  1  0
 19 18  2  0
 20 18  1  0
 21 20  1  0
 21 25  1  0
 21 22  1  1
 23 22  1  0
 24 23  2  0
 25 28  1  0
 26 25  2  0
 27 23  1  0
M  END
$$$$
