RND.pdb
     RDKit          3D

 28 27  0  0  1  0  0  0  0  0999 V2000
    7.7755  -11.9950   17.3036 N   0  0  0  0  0  0  0  0  0  0  0  0
    8.0791  -13.3633   17.5238 C   0  0  0  0  0  0  0  0  0  0  0  0
    8.8255  -14.0395   16.6991 N   0  0  0  0  0  0  0  0  0  0  0  0
    7.5943  -14.0870   18.6512 N   0  0  0  0  0  0  0  0  0  0  0  0
    6.6931  -13.4700   19.5833 C   0  0  0  0  0  0  0  0  0  0  0  0
    6.2056  -14.3656   20.6591 C   0  0  0  0  0  0  0  0  0  0  0  0
    7.0092  -14.4243   21.9076 C   0  0  0  0  0  0  0  0  0  0  0  0
    7.7245  -15.7243   22.1473 C   0  0  2  0  0  0  0  0  0  0  0  0
    6.9821  -16.8924   21.7967 N   0  0  0  0  0  0  0  0  0  0  0  0
    8.3022  -15.7922   23.5101 C   0  0  0  0  0  0  0  0  0  0  0  0
    7.7207  -15.1597   24.4230 O   0  0  0  0  0  0  0  0  0  0  0  0
    8.9347  -15.0674   16.8758 N   0  0  0  0  0  0  0  0  0  0  0  0
    7.3492  -15.7604   26.0271 C   0  0  0  0  0  0  0  0  0  0  0  0
    7.5316  -17.1582   26.2390 O   0  0  0  0  0  0  0  0  0  0  0  0
    6.6332  -17.8255   26.8279 C   0  0  0  0  0  0  0  0  0  0  0  0
    8.7447  -17.8803   25.7946 C   0  0  2  0  0  0  0  0  0  0  0  0
    9.7675  -16.9491   25.1964 N   0  0  0  0  0  0  0  0  0  0  0  0
    9.4664  -16.5198   23.8639 C   0  0  0  0  0  0  0  0  0  0  0  0
   11.0906  -17.6573   25.2150 O   0  0  0  0  0  0  0  0  0  0  0  0
   11.5081  -18.1318   26.2956 N   0  0  0  0  0  0  0  0  0  0  0  0
   11.8794  -17.8070   24.0580 C   0  0  1  0  0  0  0  0  0  0  0  0
   13.3125  -17.5623   23.9892 C   0  0  0  0  0  0  0  0  0  0  0  0
   13.5737  -16.6571   22.8233 C   0  0  0  0  0  0  0  0  0  0  0  0
   13.1018  -17.1775   21.5303 O   0  0  0  0  0  0  0  0  0  0  0  0
   12.4760  -18.2660   21.4860 C   0  0  0  0  0  0  0  0  0  0  0  0
   13.8024  -16.9860   25.2618 O   0  0  0  0  0  0  0  0  0  0  0  0
   12.9800  -16.6201   26.1203 O   0  0  0  0  0  0  0  0  0  0  0  0
   13.3252  -16.5058   20.3601 O   0  0  0  0  0  0  0  0  0  0  0  0
  2  1  1  0
  3  2  2  0
  4  2  1  0
  5  4  1  0
  6  5  1  0
  7  6  1  0
  8  7  1  0
  8  9  1  1
 10 17  1  0
 10  8  1  0
 11 10  2  0
 13 12  1  0
 14 13  2  0
 16 15  1  1
 15 13  1  0
 16 17  1  0
 18 16  1  0
 19 18  2  0
 20 18  1  0
 21 20  1  0
 21 25  1  0
 21 22  1  1
 23 22  1  0
 24 23  2  0
 25 28  1  0
 26 25  2  0
 27 23  1  0
M  END
$$$$
