RND.pdb
     RDKit          3D

 28 27  0  0  1  0  0  0  0  0999 V2000
    8.7124  -13.1072   18.0776 N   0  0  0  0  0  0  0  0  0  0  0  0
    8.3977  -12.5072   19.3241 C   0  0  0  0  0  0  0  0  0  0  0  0
    9.2058  -11.6657   19.9015 N   0  0  0  0  0  0  0  0  0  0  0  0
    7.1877  -12.7796   20.0253 N   0  0  0  0  0  0  0  0  0  0  0  0
    7.0269  -14.0046   20.7568 C   0  0  0  0  0  0  0  0  0  0  0  0
    7.5437  -15.2104   20.0670 C   0  0  0  0  0  0  0  0  0  0  0  0
    8.6202  -15.9729   20.7510 C   0  0  0  0  0  0  0  0  0  0  0  0
    8.1992  -17.2950   21.3289 C   0  0  2  0  0  0  0  0  0  0  0  0
    7.0002  -17.8383   20.7761 N   0  0  0  0  0  0  0  0  0  0  0  0
    8.1961  -17.2726   22.8105 C   0  0  0  0  0  0  0  0  0  0  0  0
    7.4623  -16.4309   23.3803 O   0  0  0  0  0  0  0  0  0  0  0  0
    8.8980  -11.2445   20.8111 N   0  0  0  0  0  0  0  0  0  0  0  0
    8.7489  -18.2487   27.8801 C   0  0  0  0  0  0  0  0  0  0  0  0
    7.5778  -18.5330   27.1187 O   0  0  0  0  0  0  0  0  0  0  0  0
    6.4984  -18.8192   27.7121 C   0  0  0  0  0  0  0  0  0  0  0  0
    7.5637  -18.5090   25.6389 C   0  0  1  0  0  0  0  0  0  0  0  0
    8.9049  -18.1254   25.0687 N   0  0  0  0  0  0  0  0  0  0  0  0
    8.9614  -18.1326   23.6379 C   0  0  0  0  0  0  0  0  0  0  0  0
    9.9222  -19.0802   25.6219 O   0  0  0  0  0  0  0  0  0  0  0  0
    9.7138  -20.3107   25.5236 N   0  0  0  0  0  0  0  0  0  0  0  0
   11.1041  -18.6397   26.2482 C   0  0  1  0  0  0  0  0  0  0  0  0
   12.2794  -19.4652   26.4843 C   0  0  0  0  0  0  0  0  0  0  0  0
   13.4951  -18.6178   26.2584 C   0  0  0  0  0  0  0  0  0  0  0  0
   14.7361  -19.3784   26.0416 O   0  0  0  0  0  0  0  0  0  0  0  0
   14.7065  -20.6343   26.0391 C   0  0  0  0  0  0  0  0  0  0  0  0
   12.2461  -20.0376   27.8492 O   0  0  0  0  0  0  0  0  0  0  0  0
   13.0977  -20.8837   28.1749 O   0  0  0  0  0  0  0  0  0  0  0  0
   15.9361  -18.7540   25.8400 O   0  0  0  0  0  0  0  0  0  0  0  0
  2  1  1  0
  3  2  2  0
  4  2  1  0
  5  4  1  0
  6  5  1  0
  7  6  1  0
  8  7  1  0
  8  9  1  6
 10 17  1  0
 10  8  1  0
 11 10  2  0
 13 12  1  0
 14 13  2  0
 16 15  1  6
 15 13  1  0
 16 17  1  0
 18 16  1  0
 19 18  2  0
 20 18  1  0
 21 20  1  0
 21 25  1  0
 21 22  1  1
 23 22  1  0
 24 23  2  0
 25 28  1  0
 26 25  2  0
 27 23  1  0
M  END
$$$$
