RND.pdb
     RDKit          3D

 28 27  0  0  1  0  0  0  0  0999 V2000
    6.5129  -13.5842   17.8548 N   0  0  0  0  0  0  0  0  0  0  0  0
    7.1588  -13.0648   19.0062 C   0  0  0  0  0  0  0  0  0  0  0  0
    6.8515  -11.8981   19.4950 N   0  0  0  0  0  0  0  0  0  0  0  0
    8.1786  -13.7755   19.7025 N   0  0  0  0  0  0  0  0  0  0  0  0
    9.0363  -14.6923   19.0059 C   0  0  0  0  0  0  0  0  0  0  0  0
    8.9111  -16.1055   19.4350 C   0  0  0  0  0  0  0  0  0  0  0  0
   10.1214  -16.7486   20.0094 C   0  0  0  0  0  0  0  0  0  0  0  0
   10.7732  -17.7817   19.1336 C   0  0  2  0  0  0  0  0  0  0  0  0
    9.9489  -18.9015   18.8094 N   0  0  0  0  0  0  0  0  0  0  0  0
   12.1082  -18.1732   19.6435 C   0  0  0  0  0  0  0  0  0  0  0  0
   12.1884  -19.2221   20.3253 O   0  0  0  0  0  0  0  0  0  0  0  0
    7.3656  -11.5810   20.3521 N   0  0  0  0  0  0  0  0  0  0  0  0
   17.0473  -19.3630   20.4549 C   0  0  0  0  0  0  0  0  0  0  0  0
   16.9677  -18.3408   19.4645 O   0  0  0  0  0  0  0  0  0  0  0  0
   18.0263  -17.7913   19.0443 C   0  0  0  0  0  0  0  0  0  0  0  0
   15.6815  -17.8827   18.8932 C   0  0  1  0  0  0  0  0  0  0  0  0
   14.5864  -17.8464   19.9279 N   0  0  0  0  0  0  0  0  0  0  0  0
   13.3075  -17.4510   19.4194 C   0  0  0  0  0  0  0  0  0  0  0  0
   15.0172  -16.9000   21.0103 O   0  0  0  0  0  0  0  0  0  0  0  0
   16.1876  -16.4560   20.9956 N   0  0  0  0  0  0  0  0  0  0  0  0
   14.1498  -16.4938   22.0427 C   0  0  2  0  0  0  0  0  0  0  0  0
   14.4224  -16.6382   23.4650 C   0  0  0  0  0  0  0  0  0  0  0  0
   14.1157  -18.0526   23.8555 C   0  0  0  0  0  0  0  0  0  0  0  0
   14.4806  -18.3954   25.2393 O   0  0  0  0  0  0  0  0  0  0  0  0
   15.0217  -17.5323   25.9746 C   0  0  0  0  0  0  0  0  0  0  0  0
   15.8245  -16.2699   23.7650 O   0  0  0  0  0  0  0  0  0  0  0  0
   16.0557  -15.2353   24.4157 O   0  0  0  0  0  0  0  0  0  0  0  0
   14.2465  -19.6393   25.7575 O   0  0  0  0  0  0  0  0  0  0  0  0
  2  1  1  0
  3  2  2  0
  4  2  1  0
  5  4  1  0
  6  5  1  0
  7  6  1  0
  8  7  1  0
  8  9  1  1
 10 17  1  0
 10  8  1  0
 11 10  2  0
 13 12  1  0
 14 13  2  0
 16 15  1  6
 15 13  1  0
 16 17  1  0
 18 16  1  0
 19 18  2  0
 20 18  1  0
 21 20  1  0
 21 25  1  0
 21 22  1  6
 23 22  1  0
 24 23  2  0
 25 28  1  0
 26 25  2  0
 27 23  1  0
M  END
$$$$
