RND.pdb
     RDKit          3D

 28 27  0  0  1  0  0  0  0  0999 V2000
    7.7540  -10.7158   19.8830 N   0  0  0  0  0  0  0  0  0  0  0  0
    8.1867  -12.0095   19.4934 C   0  0  0  0  0  0  0  0  0  0  0  0
    8.1668  -12.3914   18.2491 N   0  0  0  0  0  0  0  0  0  0  0  0
    8.6689  -12.9727   20.4260 N   0  0  0  0  0  0  0  0  0  0  0  0
    8.5722  -14.3768   20.1422 C   0  0  0  0  0  0  0  0  0  0  0  0
    7.2208  -14.9555   20.3320 C   0  0  0  0  0  0  0  0  0  0  0  0
    6.8773  -15.4416   21.6936 C   0  0  0  0  0  0  0  0  0  0  0  0
    7.5934  -16.6903   22.1263 C   0  0  2  0  0  0  0  0  0  0  0  0
    7.3566  -17.8342   21.3055 N   0  0  0  0  0  0  0  0  0  0  0  0
    7.4015  -16.9631   23.5700 C   0  0  0  0  0  0  0  0  0  0  0  0
    6.3330  -16.5775   24.1002 O   0  0  0  0  0  0  0  0  0  0  0  0
    8.3896  -13.3959   18.0467 N   0  0  0  0  0  0  0  0  0  0  0  0
    7.3583  -19.5469   28.0670 C   0  0  0  0  0  0  0  0  0  0  0  0
    6.5221  -19.7527   26.9310 O   0  0  0  0  0  0  0  0  0  0  0  0
    5.4968  -20.4860   27.0320 C   0  0  0  0  0  0  0  0  0  0  0  0
    6.8009  -19.1378   25.6139 C   0  0  2  0  0  0  0  0  0  0  0  0
    8.0026  -18.2294   25.6591 N   0  0  0  0  0  0  0  0  0  0  0  0
    8.3359  -17.6294   24.4024 C   0  0  0  0  0  0  0  0  0  0  0  0
    9.1635  -19.0386   26.1593 O   0  0  0  0  0  0  0  0  0  0  0  0
    9.2829  -20.2253   25.7789 N   0  0  0  0  0  0  0  0  0  0  0  0
   10.1241  -18.5088   27.0424 C   0  0  2  0  0  0  0  0  0  0  0  0
   11.1377  -19.2891   27.7366 C   0  0  0  0  0  0  0  0  0  0  0  0
   10.4489  -20.1372   28.7629 C   0  0  0  0  0  0  0  0  0  0  0  0
   10.3503  -19.5211   30.0957 O   0  0  0  0  0  0  0  0  0  0  0  0
   11.2128  -18.6844   30.4623 C   0  0  0  0  0  0  0  0  0  0  0  0
   11.9162  -20.1018   26.7749 O   0  0  0  0  0  0  0  0  0  0  0  0
   11.3253  -20.9331   26.0627 O   0  0  0  0  0  0  0  0  0  0  0  0
    9.3370  -19.8339   30.9593 O   0  0  0  0  0  0  0  0  0  0  0  0
  2  1  1  0
  3  2  2  0
  4  2  1  0
  5  4  1  0
  6  5  1  0
  7  6  1  0
  8  7  1  0
  8  9  1  6
 10 17  1  0
 10  8  1  0
 11 10  2  0
 13 12  1  0
 14 13  2  0
 16 15  1  1
 15 13  1  0
 16 17  1  0
 18 16  1  0
 19 18  2  0
 20 18  1  0
 21 20  1  0
 21 25  1  0
 21 22  1  1
 23 22  1  0
 24 23  2  0
 25 28  1  0
 26 25  2  0
 27 23  1  0
M  END
$$$$
