RND.pdb
     RDKit          3D

 28 27  0  0  1  0  0  0  0  0999 V2000
    7.4898  -12.2962   17.2170 N   0  0  0  0  0  0  0  0  0  0  0  0
    7.5326  -13.6463   16.7829 C   0  0  0  0  0  0  0  0  0  0  0  0
    7.9153  -13.9662   15.5805 N   0  0  0  0  0  0  0  0  0  0  0  0
    7.1642  -14.7364   17.6230 N   0  0  0  0  0  0  0  0  0  0  0  0
    8.0108  -15.8906   17.7359 C   0  0  0  0  0  0  0  0  0  0  0  0
    9.3655  -15.6151   18.2706 C   0  0  0  0  0  0  0  0  0  0  0  0
    9.6100  -15.9450   19.6988 C   0  0  0  0  0  0  0  0  0  0  0  0
    9.8113  -14.7613   20.6030 C   0  0  2  0  0  0  0  0  0  0  0  0
   10.4785  -13.6517   20.0012 N   0  0  0  0  0  0  0  0  0  0  0  0
   10.4008  -15.1559   21.9040 C   0  0  0  0  0  0  0  0  0  0  0  0
   11.6144  -14.9066   22.0948 O   0  0  0  0  0  0  0  0  0  0  0  0
    8.0712  -14.9828   15.3759 N   0  0  0  0  0  0  0  0  0  0  0  0
   10.9902  -15.5758   27.2718 C   0  0  0  0  0  0  0  0  0  0  0  0
    9.9358  -16.3277   26.6760 O   0  0  0  0  0  0  0  0  0  0  0  0
    9.5022  -17.3658   27.2537 C   0  0  0  0  0  0  0  0  0  0  0  0
    9.3119  -15.9451   25.3897 C   0  0  1  0  0  0  0  0  0  0  0  0
   10.2663  -16.0968   24.2333 N   0  0  0  0  0  0  0  0  0  0  0  0
    9.6962  -15.7961   22.9546 C   0  0  0  0  0  0  0  0  0  0  0  0
   10.7705  -17.5105   24.2446 O   0  0  0  0  0  0  0  0  0  0  0  0
    9.9830  -18.4364   23.9454 N   0  0  0  0  0  0  0  0  0  0  0  0
   12.0999  -17.8317   24.5803 C   0  0  1  0  0  0  0  0  0  0  0  0
   12.6675  -19.1715   24.5457 C   0  0  0  0  0  0  0  0  0  0  0  0
   14.1336  -19.0475   24.2588 C   0  0  0  0  0  0  0  0  0  0  0  0
   14.4501  -18.4741   22.9409 O   0  0  0  0  0  0  0  0  0  0  0  0
   13.6901  -18.6945   21.9651 C   0  0  0  0  0  0  0  0  0  0  0  0
   12.4079  -19.8784   25.8202 O   0  0  0  0  0  0  0  0  0  0  0  0
   11.9571  -19.2408   26.7885 O   0  0  0  0  0  0  0  0  0  0  0  0
   15.5591  -17.6990   22.7417 O   0  0  0  0  0  0  0  0  0  0  0  0
  2  1  1  0
  3  2  2  0
  4  2  1  0
  5  4  1  0
  6  5  1  0
  7  6  1  0
  8  7  1  0
  8  9  1  6
 10 17  1  0
 10  8  1  0
 11 10  2  0
 13 12  1  0
 14 13  2  0
 16 15  1  1
 15 13  1  0
 16 17  1  0
 18 16  1  0
 19 18  2  0
 20 18  1  0
 21 20  1  0
 21 25  1  0
 21 22  1  1
 23 22  1  0
 24 23  2  0
 25 28  1  0
 26 25  2  0
 27 23  1  0
M  END
$$$$
