RND.pdb
     RDKit          3D

 28 27  0  0  1  0  0  0  0  0999 V2000
    7.9132  -17.3811   15.6694 N   0  0  0  0  0  0  0  0  0  0  0  0
    8.2604  -16.3734   14.7330 C   0  0  0  0  0  0  0  0  0  0  0  0
    8.6699  -16.6671   13.5327 N   0  0  0  0  0  0  0  0  0  0  0  0
    8.1861  -14.9833   15.0359 N   0  0  0  0  0  0  0  0  0  0  0  0
    7.4742  -14.5250   16.1955 C   0  0  0  0  0  0  0  0  0  0  0  0
    7.6000  -15.3998   17.3855 C   0  0  0  0  0  0  0  0  0  0  0  0
    8.5010  -14.9381   18.4733 C   0  0  0  0  0  0  0  0  0  0  0  0
    7.8748  -14.0008   19.4675 C   0  0  2  0  0  0  0  0  0  0  0  0
    7.6879  -12.6650   18.9993 N   0  0  0  0  0  0  0  0  0  0  0  0
    8.5500  -14.0639   20.7850 C   0  0  0  0  0  0  0  0  0  0  0  0
    9.3859  -13.1699   21.0563 O   0  0  0  0  0  0  0  0  0  0  0  0
    8.8616  -15.8709   12.8777 N   0  0  0  0  0  0  0  0  0  0  0  0
    8.8261  -14.6054   26.2035 C   0  0  0  0  0  0  0  0  0  0  0  0
    8.7956  -15.8028   25.4306 O   0  0  0  0  0  0  0  0  0  0  0  0
    9.3238  -16.8572   25.8871 C   0  0  0  0  0  0  0  0  0  0  0  0
    8.1636  -15.8732   24.0941 C   0  0  1  0  0  0  0  0  0  0  0  0
    8.8993  -15.0379   23.0781 N   0  0  0  0  0  0  0  0  0  0  0  0
    8.3233  -15.0607   21.7674 C   0  0  0  0  0  0  0  0  0  0  0  0
   10.3136  -15.5369   23.0201 O   0  0  0  0  0  0  0  0  0  0  0  0
   11.0176  -15.4824   24.0538 N   0  0  0  0  0  0  0  0  0  0  0  0
   10.8766  -16.0649   21.8422 C   0  0  1  0  0  0  0  0  0  0  0  0
   12.2383  -16.5643   21.7208 C   0  0  0  0  0  0  0  0  0  0  0  0
   12.1867  -17.8885   21.0203 C   0  0  0  0  0  0  0  0  0  0  0  0
   12.1046  -19.0506   21.9195 O   0  0  0  0  0  0  0  0  0  0  0  0
   11.9341  -18.8759   23.1519 C   0  0  0  0  0  0  0  0  0  0  0  0
   13.0873  -15.5875   21.0021 O   0  0  0  0  0  0  0  0  0  0  0  0
   12.5656  -14.5657   20.5214 O   0  0  0  0  0  0  0  0  0  0  0  0
   12.2092  -20.3312   21.4508 O   0  0  0  0  0  0  0  0  0  0  0  0
  2  1  1  0
  3  2  2  0
  4  2  1  0
  5  4  1  0
  6  5  1  0
  7  6  1  0
  8  7  1  0
  8  9  1  6
 10 17  1  0
 10  8  1  0
 11 10  2  0
 13 12  1  0
 14 13  2  0
 16 15  1  1
 15 13  1  0
 16 17  1  0
 18 16  1  0
 19 18  2  0
 20 18  1  0
 21 20  1  0
 21 25  1  0
 21 22  1  6
 23 22  1  0
 24 23  2  0
 25 28  1  0
 26 25  2  0
 27 23  1  0
M  END
$$$$
