RND.pdb
     RDKit          3D

 28 27  0  0  1  0  0  0  0  0999 V2000
    9.5045  -13.4727   18.2213 N   0  0  0  0  0  0  0  0  0  0  0  0
    8.4493  -12.8212   18.9105 C   0  0  0  0  0  0  0  0  0  0  0  0
    8.4087  -11.5256   19.0313 N   0  0  0  0  0  0  0  0  0  0  0  0
    7.3705  -13.5304   19.5129 N   0  0  0  0  0  0  0  0  0  0  0  0
    7.1406  -14.9130   19.2017 C   0  0  0  0  0  0  0  0  0  0  0  0
    7.4423  -15.8550   20.3057 C   0  0  0  0  0  0  0  0  0  0  0  0
    8.8703  -16.0244   20.6803 C   0  0  0  0  0  0  0  0  0  0  0  0
    9.1277  -17.0000   21.7943 C   0  0  2  0  0  0  0  0  0  0  0  0
    8.1180  -17.9944   21.9679 N   0  0  0  0  0  0  0  0  0  0  0  0
    9.4871  -16.3124   23.0567 C   0  0  0  0  0  0  0  0  0  0  0  0
   10.4642  -15.5273   23.0364 O   0  0  0  0  0  0  0  0  0  0  0  0
    7.5927  -11.1120   19.5438 N   0  0  0  0  0  0  0  0  0  0  0  0
    5.8843  -13.9926   25.7678 C   0  0  0  0  0  0  0  0  0  0  0  0
    7.2876  -14.1986   25.6254 O   0  0  0  0  0  0  0  0  0  0  0  0
    7.9637  -13.4226   24.8904 C   0  0  0  0  0  0  0  0  0  0  0  0
    8.0056  -15.2975   26.3090 C   0  0  2  0  0  0  0  0  0  0  0  0
    9.1744  -15.7966   25.4991 N   0  0  0  0  0  0  0  0  0  0  0  0
    8.8090  -16.4735   24.2914 C   0  0  0  0  0  0  0  0  0  0  0  0
    9.9727  -16.7172   26.3756 O   0  0  0  0  0  0  0  0  0  0  0  0
   10.3145  -16.3239   27.5138 N   0  0  0  0  0  0  0  0  0  0  0  0
   10.3506  -18.0091   25.9617 C   0  0  1  0  0  0  0  0  0  0  0  0
   11.2508  -18.8883   26.6931 C   0  0  0  0  0  0  0  0  0  0  0  0
   10.5912  -20.2285   26.8182 C   0  0  0  0  0  0  0  0  0  0  0  0
    9.3978  -20.2422   27.6791 O   0  0  0  0  0  0  0  0  0  0  0  0
    8.9950  -19.1749   28.2053 C   0  0  0  0  0  0  0  0  0  0  0  0
   12.5611  -18.9747   26.0096 O   0  0  0  0  0  0  0  0  0  0  0  0
   12.6018  -18.9471   24.7667 O   0  0  0  0  0  0  0  0  0  0  0  0
    8.7040  -21.3942   27.9280 O   0  0  0  0  0  0  0  0  0  0  0  0
  2  1  1  0
  3  2  2  0
  4  2  1  0
  5  4  1  0
  6  5  1  0
  7  6  1  0
  8  7  1  0
  8  9  1  1
 10 17  1  0
 10  8  1  0
 11 10  2  0
 13 12  1  0
 14 13  2  0
 16 15  1  6
 15 13  1  0
 16 17  1  0
 18 16  1  0
 19 18  2  0
 20 18  1  0
 21 20  1  0
 21 25  1  0
 21 22  1  1
 23 22  1  0
 24 23  2  0
 25 28  1  0
 26 25  2  0
 27 23  1  0
M  END
$$$$
