RND.pdb
     RDKit          3D

 28 27  0  0  1  0  0  0  0  0999 V2000
    7.6529  -15.1831   15.4520 N   0  0  0  0  0  0  0  0  0  0  0  0
    7.9614  -13.8105   15.6355 C   0  0  0  0  0  0  0  0  0  0  0  0
    8.2235  -13.0280   14.6287 N   0  0  0  0  0  0  0  0  0  0  0  0
    8.0057  -13.1970   16.9206 N   0  0  0  0  0  0  0  0  0  0  0  0
    8.5116  -13.9154   18.0562 C   0  0  0  0  0  0  0  0  0  0  0  0
    9.9135  -14.3777   17.9224 C   0  0  0  0  0  0  0  0  0  0  0  0
   10.7748  -14.2872   19.1299 C   0  0  0  0  0  0  0  0  0  0  0  0
   10.9032  -15.5591   19.9205 C   0  0  2  0  0  0  0  0  0  0  0  0
    9.7574  -16.4099   19.8809 N   0  0  0  0  0  0  0  0  0  0  0  0
   11.3894  -15.3053   21.2971 C   0  0  0  0  0  0  0  0  0  0  0  0
   12.3697  -14.5367   21.4378 O   0  0  0  0  0  0  0  0  0  0  0  0
    8.4902  -12.0365   14.8421 N   0  0  0  0  0  0  0  0  0  0  0  0
    8.7957  -14.6461   23.3628 C   0  0  0  0  0  0  0  0  0  0  0  0
    9.0580  -15.3548   24.5716 O   0  0  0  0  0  0  0  0  0  0  0  0
    8.1255  -15.5374   25.4061 C   0  0  0  0  0  0  0  0  0  0  0  0
   10.3942  -15.8977   24.9036 C   0  0  2  0  0  0  0  0  0  0  0  0
   11.3806  -15.6915   23.7830 N   0  0  0  0  0  0  0  0  0  0  0  0
   10.8299  -15.8662   22.4728 C   0  0  0  0  0  0  0  0  0  0  0  0
   12.5111  -16.6565   23.9914 O   0  0  0  0  0  0  0  0  0  0  0  0
   13.1665  -16.6002   25.0565 N   0  0  0  0  0  0  0  0  0  0  0  0
   12.8604  -17.6242   23.0297 C   0  0  1  0  0  0  0  0  0  0  0  0
   14.0261  -18.4922   23.1064 C   0  0  0  0  0  0  0  0  0  0  0  0
   13.7593  -19.7037   22.2649 C   0  0  0  0  0  0  0  0  0  0  0  0
   14.6807  -20.8261   22.5034 O   0  0  0  0  0  0  0  0  0  0  0  0
   15.5646  -20.7307   23.3910 C   0  0  0  0  0  0  0  0  0  0  0  0
   15.2418  -17.7687   22.6702 O   0  0  0  0  0  0  0  0  0  0  0  0
   16.2339  -17.7389   23.4200 O   0  0  0  0  0  0  0  0  0  0  0  0
   14.6048  -21.9846   21.7805 O   0  0  0  0  0  0  0  0  0  0  0  0
  2  1  1  0
  3  2  2  0
  4  2  1  0
  5  4  1  0
  6  5  1  0
  7  6  1  0
  8  7  1  0
  8  9  1  1
 10 17  1  0
 10  8  1  0
 11 10  2  0
 13 12  1  0
 14 13  2  0
 16 15  1  6
 15 13  1  0
 16 17  1  0
 18 16  1  0
 19 18  2  0
 20 18  1  0
 21 20  1  0
 21 25  1  0
 21 22  1  6
 23 22  1  0
 24 23  2  0
 25 28  1  0
 26 25  2  0
 27 23  1  0
M  END
$$$$
