RND.pdb
     RDKit          3D

 28 27  0  0  1  0  0  0  0  0999 V2000
    8.3389  -12.8077   21.2965 N   0  0  0  0  0  0  0  0  0  0  0  0
    8.7269  -12.5343   19.9595 C   0  0  0  0  0  0  0  0  0  0  0  0
    9.0003  -11.3258   19.5603 N   0  0  0  0  0  0  0  0  0  0  0  0
    8.8441  -13.5517   18.9691 N   0  0  0  0  0  0  0  0  0  0  0  0
    7.7640  -14.4672   18.7306 C   0  0  0  0  0  0  0  0  0  0  0  0
    8.1851  -15.8358   18.3477 C   0  0  0  0  0  0  0  0  0  0  0  0
    8.1005  -16.8880   19.3936 C   0  0  0  0  0  0  0  0  0  0  0  0
    9.2534  -16.9258   20.3573 C   0  0  2  0  0  0  0  0  0  0  0  0
    9.4513  -15.7259   21.1052 N   0  0  0  0  0  0  0  0  0  0  0  0
   10.4937  -17.4185   19.7133 C   0  0  0  0  0  0  0  0  0  0  0  0
   10.4365  -17.7351   18.5017 O   0  0  0  0  0  0  0  0  0  0  0  0
    9.2621  -11.1956   18.5532 N   0  0  0  0  0  0  0  0  0  0  0  0
   14.3013  -15.6603   18.1184 C   0  0  0  0  0  0  0  0  0  0  0  0
   13.3324  -14.7943   18.7044 O   0  0  0  0  0  0  0  0  0  0  0  0
   13.2847  -13.5797   18.3554 C   0  0  0  0  0  0  0  0  0  0  0  0
   12.3611  -15.2565   19.7210 C   0  0  2  0  0  0  0  0  0  0  0  0
   12.7754  -16.5656   20.3421 N   0  0  0  0  0  0  0  0  0  0  0  0
   11.7457  -17.5604   20.3633 C   0  0  0  0  0  0  0  0  0  0  0  0
   13.2325  -16.2780   21.7425 O   0  0  0  0  0  0  0  0  0  0  0  0
   14.3015  -15.6493   21.9132 N   0  0  0  0  0  0  0  0  0  0  0  0
   12.4999  -16.6911   22.8720 C   0  0  1  0  0  0  0  0  0  0  0  0
   13.0612  -17.3879   24.0200 C   0  0  0  0  0  0  0  0  0  0  0  0
   12.2190  -18.5992   24.2854 C   0  0  0  0  0  0  0  0  0  0  0  0
   11.1175  -18.3788   25.2361 O   0  0  0  0  0  0  0  0  0  0  0  0
   10.7931  -17.2079   25.5557 C   0  0  0  0  0  0  0  0  0  0  0  0
   14.4779  -17.7388   23.7725 O   0  0  0  0  0  0  0  0  0  0  0  0
   14.7565  -18.5366   22.8598 O   0  0  0  0  0  0  0  0  0  0  0  0
   10.4266  -19.4211   25.7901 O   0  0  0  0  0  0  0  0  0  0  0  0
  2  1  1  0
  3  2  2  0
  4  2  1  0
  5  4  1  0
  6  5  1  0
  7  6  1  0
  8  7  1  0
  8  9  1  6
 10 17  1  0
 10  8  1  0
 11 10  2  0
 13 12  1  0
 14 13  2  0
 16 15  1  6
 15 13  1  0
 16 17  1  0
 18 16  1  0
 19 18  2  0
 20 18  1  0
 21 20  1  0
 21 25  1  0
 21 22  1  1
 23 22  1  0
 24 23  2  0
 25 28  1  0
 26 25  2  0
 27 23  1  0
M  END
$$$$
