RND.pdb
     RDKit          3D

 28 27  0  0  1  0  0  0  0  0999 V2000
    7.7369  -15.5706   16.5349 N   0  0  0  0  0  0  0  0  0  0  0  0
    7.7126  -14.1619   16.7022 C   0  0  0  0  0  0  0  0  0  0  0  0
    8.0587  -13.3532   15.7427 N   0  0  0  0  0  0  0  0  0  0  0  0
    7.3117  -13.5386   17.9190 N   0  0  0  0  0  0  0  0  0  0  0  0
    6.7016  -14.3070   18.9673 C   0  0  0  0  0  0  0  0  0  0  0  0
    7.4422  -14.3011   20.2512 C   0  0  0  0  0  0  0  0  0  0  0  0
    8.9231  -14.4003   20.1793 C   0  0  0  0  0  0  0  0  0  0  0  0
    9.5485  -15.3520   21.1603 C   0  0  2  0  0  0  0  0  0  0  0  0
    9.0232  -16.6791   21.1289 N   0  0  0  0  0  0  0  0  0  0  0  0
    9.5986  -14.7807   22.5266 C   0  0  0  0  0  0  0  0  0  0  0  0
    9.4454  -13.5424   22.6478 O   0  0  0  0  0  0  0  0  0  0  0  0
    8.0675  -12.3261   15.9540 N   0  0  0  0  0  0  0  0  0  0  0  0
    6.9417  -15.2972   26.8331 C   0  0  0  0  0  0  0  0  0  0  0  0
    6.5874  -15.9465   25.6145 O   0  0  0  0  0  0  0  0  0  0  0  0
    5.4132  -16.3893   25.4585 C   0  0  0  0  0  0  0  0  0  0  0  0
    7.5455  -16.1309   24.5016 C   0  0  2  0  0  0  0  0  0  0  0  0
    8.8972  -15.5448   24.8186 N   0  0  0  0  0  0  0  0  0  0  0  0
    9.8070  -15.5284   23.7130 C   0  0  0  0  0  0  0  0  0  0  0  0
    9.4834  -16.3424   25.9469 O   0  0  0  0  0  0  0  0  0  0  0  0
    8.7694  -16.5969   26.9431 N   0  0  0  0  0  0  0  0  0  0  0  0
   10.8098  -16.8148   25.9237 C   0  0  2  0  0  0  0  0  0  0  0  0
   11.1973  -18.2148   26.0137 C   0  0  0  0  0  0  0  0  0  0  0  0
    9.9616  -19.0495   25.8611 C   0  0  0  0  0  0  0  0  0  0  0  0
    9.4305  -19.5880   27.1235 O   0  0  0  0  0  0  0  0  0  0  0  0
   10.2189  -20.0454   27.9882 C   0  0  0  0  0  0  0  0  0  0  0  0
   12.2169  -18.5381   24.9902 O   0  0  0  0  0  0  0  0  0  0  0  0
   12.7838  -19.6448   25.0246 O   0  0  0  0  0  0  0  0  0  0  0  0
    8.0891  -19.6067   27.3893 O   0  0  0  0  0  0  0  0  0  0  0  0
  2  1  1  0
  3  2  2  0
  4  2  1  0
  5  4  1  0
  6  5  1  0
  7  6  1  0
  8  7  1  0
  8  9  1  1
 10 17  1  0
 10  8  1  0
 11 10  2  0
 13 12  1  0
 14 13  2  0
 16 15  1  6
 15 13  1  0
 16 17  1  0
 18 16  1  0
 19 18  2  0
 20 18  1  0
 21 20  1  0
 21 25  1  0
 21 22  1  1
 23 22  1  0
 24 23  2  0
 25 28  1  0
 26 25  2  0
 27 23  1  0
M  END
$$$$
