RND.pdb
     RDKit          3D

 28 27  0  0  1  0  0  0  0  0999 V2000
    9.8720  -13.7586   19.6369 N   0  0  0  0  0  0  0  0  0  0  0  0
    8.7544  -12.8849   19.6573 C   0  0  0  0  0  0  0  0  0  0  0  0
    8.6246  -11.9203   18.7928 N   0  0  0  0  0  0  0  0  0  0  0  0
    7.7056  -12.9997   20.6147 N   0  0  0  0  0  0  0  0  0  0  0  0
    7.5962  -14.1679   21.4422 C   0  0  0  0  0  0  0  0  0  0  0  0
    7.8395  -15.4500   20.7393 C   0  0  0  0  0  0  0  0  0  0  0  0
    9.1726  -16.0804   20.9223 C   0  0  0  0  0  0  0  0  0  0  0  0
    9.2800  -17.0217   22.0891 C   0  0  2  0  0  0  0  0  0  0  0  0
    8.0982  -17.7735   22.3657 N   0  0  0  0  0  0  0  0  0  0  0  0
    9.8344  -16.3513   23.2886 C   0  0  0  0  0  0  0  0  0  0  0  0
   10.8833  -15.6790   23.1494 O   0  0  0  0  0  0  0  0  0  0  0  0
    7.7831  -11.3008   18.8806 N   0  0  0  0  0  0  0  0  0  0  0  0
    9.1566  -12.6481   27.5396 C   0  0  0  0  0  0  0  0  0  0  0  0
    9.2335  -14.0715   27.5391 O   0  0  0  0  0  0  0  0  0  0  0  0
    9.7984  -14.6691   28.4997 C   0  0  0  0  0  0  0  0  0  0  0  0
    8.6734  -14.8997   26.4478 C   0  0  1  0  0  0  0  0  0  0  0  0
    9.7465  -15.6518   25.7036 N   0  0  0  0  0  0  0  0  0  0  0  0
    9.2687  -16.4108   24.5872 C   0  0  0  0  0  0  0  0  0  0  0  0
   10.4241  -16.5635   26.6847 O   0  0  0  0  0  0  0  0  0  0  0  0
   11.5123  -16.2069   27.1904 N   0  0  0  0  0  0  0  0  0  0  0  0
    9.8777  -17.8070   27.0565 C   0  0  2  0  0  0  0  0  0  0  0  0
   10.6526  -19.0046   27.3458 C   0  0  0  0  0  0  0  0  0  0  0  0
   11.4072  -19.3802   26.1063 C   0  0  0  0  0  0  0  0  0  0  0  0
   12.3657  -20.4822   26.2870 O   0  0  0  0  0  0  0  0  0  0  0  0
   12.2268  -21.2794   27.2481 C   0  0  0  0  0  0  0  0  0  0  0  0
   11.5539  -18.7741   28.4974 O   0  0  0  0  0  0  0  0  0  0  0  0
   12.3330  -19.6772   28.8504 O   0  0  0  0  0  0  0  0  0  0  0  0
   13.4161  -20.6691   25.4314 O   0  0  0  0  0  0  0  0  0  0  0  0
  2  1  1  0
  3  2  2  0
  4  2  1  0
  5  4  1  0
  6  5  1  0
  7  6  1  0
  8  7  1  0
  8  9  1  1
 10 17  1  0
 10  8  1  0
 11 10  2  0
 13 12  1  0
 14 13  2  0
 16 15  1  6
 15 13  1  0
 16 17  1  0
 18 16  1  0
 19 18  2  0
 20 18  1  0
 21 20  1  0
 21 25  1  0
 21 22  1  6
 23 22  1  0
 24 23  2  0
 25 28  1  0
 26 25  2  0
 27 23  1  0
M  END
$$$$
