RND.pdb
     RDKit          3D

 28 27  0  0  1  0  0  0  0  0999 V2000
    8.5349  -12.5350   17.8247 N   0  0  0  0  0  0  0  0  0  0  0  0
    8.3628  -13.5847   16.8859 C   0  0  0  0  0  0  0  0  0  0  0  0
    8.0037  -13.3507   15.6567 N   0  0  0  0  0  0  0  0  0  0  0  0
    8.5688  -14.9548   17.2176 N   0  0  0  0  0  0  0  0  0  0  0  0
    7.9248  -15.5343   18.3625 C   0  0  0  0  0  0  0  0  0  0  0  0
    8.3732  -14.9909   19.6666 C   0  0  0  0  0  0  0  0  0  0  0  0
    9.3599  -15.7958   20.4326 C   0  0  0  0  0  0  0  0  0  0  0  0
    8.8009  -16.5362   21.6152 C   0  0  2  0  0  0  0  0  0  0  0  0
    7.4765  -17.0392   21.4383 N   0  0  0  0  0  0  0  0  0  0  0  0
    8.9670  -15.7708   22.8730 C   0  0  0  0  0  0  0  0  0  0  0  0
   10.1173  -15.3651   23.1622 O   0  0  0  0  0  0  0  0  0  0  0  0
    7.9719  -14.1657   14.9976 N   0  0  0  0  0  0  0  0  0  0  0  0
    6.1519  -12.2659   27.2021 C   0  0  0  0  0  0  0  0  0  0  0  0
    7.1649  -13.0320   26.5549 O   0  0  0  0  0  0  0  0  0  0  0  0
    8.3593  -12.9658   26.9652 C   0  0  0  0  0  0  0  0  0  0  0  0
    6.8812  -13.9183   25.4040 C   0  0  2  0  0  0  0  0  0  0  0  0
    8.1012  -14.6917   24.9742 N   0  0  0  0  0  0  0  0  0  0  0  0
    7.9218  -15.4598   23.7791 C   0  0  0  0  0  0  0  0  0  0  0  0
    8.4853  -15.5980   26.1073 O   0  0  0  0  0  0  0  0  0  0  0  0
    7.6159  -16.3509   26.6017 N   0  0  0  0  0  0  0  0  0  0  0  0
    9.7910  -15.6309   26.6340 C   0  0  1  0  0  0  0  0  0  0  0  0
   10.2164  -16.4553   27.7555 C   0  0  0  0  0  0  0  0  0  0  0  0
   11.5589  -17.0338   27.4237 C   0  0  0  0  0  0  0  0  0  0  0  0
   11.5086  -18.2916   26.6612 O   0  0  0  0  0  0  0  0  0  0  0  0
   10.3983  -18.7772   26.3301 C   0  0  0  0  0  0  0  0  0  0  0  0
   10.2468  -15.6590   29.0031 O   0  0  0  0  0  0  0  0  0  0  0  0
   10.2221  -14.4173   28.9329 O   0  0  0  0  0  0  0  0  0  0  0  0
   12.6463  -18.9573   26.2967 O   0  0  0  0  0  0  0  0  0  0  0  0
  2  1  1  0
  3  2  2  0
  4  2  1  0
  5  4  1  0
  6  5  1  0
  7  6  1  0
  8  7  1  0
  8  9  1  6
 10 17  1  0
 10  8  1  0
 11 10  2  0
 13 12  1  0
 14 13  2  0
 16 15  1  6
 15 13  1  0
 16 17  1  0
 18 16  1  0
 19 18  2  0
 20 18  1  0
 21 20  1  0
 21 25  1  0
 21 22  1  1
 23 22  1  0
 24 23  2  0
 25 28  1  0
 26 25  2  0
 27 23  1  0
M  END
$$$$
