RND.pdb
     RDKit          3D

 28 27  0  0  1  0  0  0  0  0999 V2000
    7.3673  -12.1373   19.8669 N   0  0  0  0  0  0  0  0  0  0  0  0
    8.5281  -12.5459   19.1609 C   0  0  0  0  0  0  0  0  0  0  0  0
    9.5428  -11.7478   18.9932 N   0  0  0  0  0  0  0  0  0  0  0  0
    8.6649  -13.8446   18.5915 N   0  0  0  0  0  0  0  0  0  0  0  0
    7.7147  -14.8782   18.8922 C   0  0  0  0  0  0  0  0  0  0  0  0
    8.2448  -15.9838   19.7251 C   0  0  0  0  0  0  0  0  0  0  0  0
    7.9506  -15.9361   21.1809 C   0  0  0  0  0  0  0  0  0  0  0  0
    8.8025  -16.8327   22.0351 C   0  0  2  0  0  0  0  0  0  0  0  0
    8.7534  -18.2169   21.6889 N   0  0  0  0  0  0  0  0  0  0  0  0
    8.5827  -16.5884   23.4799 C   0  0  0  0  0  0  0  0  0  0  0  0
    8.7099  -15.4140   23.8996 O   0  0  0  0  0  0  0  0  0  0  0  0
   10.3092  -12.0664   18.3523 N   0  0  0  0  0  0  0  0  0  0  0  0
    5.9937  -19.9597   24.8790 C   0  0  0  0  0  0  0  0  0  0  0  0
    5.9409  -18.6311   25.3926 O   0  0  0  0  0  0  0  0  0  0  0  0
    5.0607  -17.8289   24.9670 C   0  0  0  0  0  0  0  0  0  0  0  0
    6.8843  -18.1352   26.4197 C   0  0  2  0  0  0  0  0  0  0  0  0
    7.9965  -17.3175   25.8153 N   0  0  0  0  0  0  0  0  0  0  0  0
    8.2381  -17.5835   24.4292 C   0  0  0  0  0  0  0  0  0  0  0  0
    9.2412  -17.5891   26.6089 O   0  0  0  0  0  0  0  0  0  0  0  0
    9.2565  -17.3028   27.8275 N   0  0  0  0  0  0  0  0  0  0  0  0
   10.3932  -18.1555   26.0300 C   0  0  1  0  0  0  0  0  0  0  0  0
   11.5736  -18.5805   26.7678 C   0  0  0  0  0  0  0  0  0  0  0  0
   11.1359  -19.5449   27.8286 C   0  0  0  0  0  0  0  0  0  0  0  0
   12.2392  -20.1916   28.5568 O   0  0  0  0  0  0  0  0  0  0  0  0
   13.4189  -19.7964   28.3825 C   0  0  0  0  0  0  0  0  0  0  0  0
   12.5718  -19.1767   25.8515 O   0  0  0  0  0  0  0  0  0  0  0  0
   12.2936  -19.2992   24.6453 O   0  0  0  0  0  0  0  0  0  0  0  0
   12.0189  -21.2222   29.4284 O   0  0  0  0  0  0  0  0  0  0  0  0
  2  1  1  0
  3  2  2  0
  4  2  1  0
  5  4  1  0
  6  5  1  0
  7  6  1  0
  8  7  1  0
  8  9  1  1
 10 17  1  0
 10  8  1  0
 11 10  2  0
 13 12  1  0
 14 13  2  0
 16 15  1  6
 15 13  1  0
 16 17  1  0
 18 16  1  0
 19 18  2  0
 20 18  1  0
 21 20  1  0
 21 25  1  0
 21 22  1  6
 23 22  1  0
 24 23  2  0
 25 28  1  0
 26 25  2  0
 27 23  1  0
M  END
$$$$
