RND.pdb
     RDKit          3D

 28 27  0  0  1  0  0  0  0  0999 V2000
   10.0744  -23.7966   16.0659 N   0  0  0  0  0  0  0  0  0  0  0  0
    9.4503  -22.5650   16.3921 C   0  0  0  0  0  0  0  0  0  0  0  0
    8.2289  -22.5147   16.8397 N   0  0  0  0  0  0  0  0  0  0  0  0
   10.1085  -21.3089   16.2548 N   0  0  0  0  0  0  0  0  0  0  0  0
    9.4823  -20.1016   16.7151 C   0  0  0  0  0  0  0  0  0  0  0  0
   10.2904  -19.3113   17.6739 C   0  0  0  0  0  0  0  0  0  0  0  0
    9.5580  -18.6097   18.7599 C   0  0  0  0  0  0  0  0  0  0  0  0
   10.1350  -18.7844   20.1368 C   0  0  2  0  0  0  0  0  0  0  0  0
   11.5471  -18.9914   20.1750 N   0  0  0  0  0  0  0  0  0  0  0  0
    9.3809  -19.7856   20.9271 C   0  0  0  0  0  0  0  0  0  0  0  0
    8.1847  -19.5313   21.2028 O   0  0  0  0  0  0  0  0  0  0  0  0
    7.6839  -23.4103   16.8628 N   0  0  0  0  0  0  0  0  0  0  0  0
    8.0651  -22.3814   19.4810 C   0  0  0  0  0  0  0  0  0  0  0  0
    8.7478  -23.4682   20.1014 O   0  0  0  0  0  0  0  0  0  0  0  0
    8.9270  -24.5436   19.4606 C   0  0  0  0  0  0  0  0  0  0  0  0
    9.2670  -23.3976   21.4856 C   0  0  2  0  0  0  0  0  0  0  0  0
    9.1329  -22.0141   22.0679 N   0  0  0  0  0  0  0  0  0  0  0  0
    9.9088  -21.0143   21.3979 C   0  0  0  0  0  0  0  0  0  0  0  0
    9.5384  -22.0889   23.5111 O   0  0  0  0  0  0  0  0  0  0  0  0
    9.0522  -22.9907   24.2305 N   0  0  0  0  0  0  0  0  0  0  0  0
   10.4475  -21.1791   24.0846 C   0  0  1  0  0  0  0  0  0  0  0  0
   10.9791  -21.2726   25.4362 C   0  0  0  0  0  0  0  0  0  0  0  0
   11.6065  -22.6246   25.5961 C   0  0  0  0  0  0  0  0  0  0  0  0
   12.2285  -22.8561   26.9096 O   0  0  0  0  0  0  0  0  0  0  0  0
   11.9620  -22.0917   27.8702 C   0  0  0  0  0  0  0  0  0  0  0  0
   11.9428  -20.1784   25.6919 O   0  0  0  0  0  0  0  0  0  0  0  0
   12.5345  -19.6523   24.7325 O   0  0  0  0  0  0  0  0  0  0  0  0
   13.0984  -23.8901   27.1209 O   0  0  0  0  0  0  0  0  0  0  0  0
  2  1  1  0
  3  2  2  0
  4  2  1  0
  5  4  1  0
  6  5  1  0
  7  6  1  0
  8  7  1  0
  8  9  1  6
 10 17  1  0
 10  8  1  0
 11 10  2  0
 13 12  1  0
 14 13  2  0
 16 15  1  6
 15 13  1  0
 16 17  1  0
 18 16  1  0
 19 18  2  0
 20 18  1  0
 21 20  1  0
 21 25  1  0
 21 22  1  1
 23 22  1  0
 24 23  2  0
 25 28  1  0
 26 25  2  0
 27 23  1  0
M  END
$$$$
