CLG.pdb
     RDKit          3D

 19 18  0  0  1  0  0  0  0  0999 V2000
    7.7507  -15.6231   20.8430 N   0  0  0  0  0  0  0  0  0  0  0  0
    7.0848  -15.9420   22.1338 C   0  0  1  0  0  0  0  0  0  0  0  0
    7.1569  -17.4199   22.3163 C   0  0  0  0  0  0  0  0  0  0  0  0
    6.4609  -17.9203   23.8854 S   0  0  0  0  0  0  0  0  0  0  0  0
    7.9005  -15.2628   23.1709 C   0  0  0  0  0  0  0  0  0  0  0  0
    9.1566  -15.0636   22.9964 O   0  0  0  0  0  0  0  0  0  0  0  0
    7.1151  -11.4119   25.0487 C   0  0  0  0  0  0  0  0  0  0  0  0
    6.4957  -12.5400   25.8700 C   0  0  2  0  0  0  0  0  0  0  0  0
    5.5811  -11.9324   26.8860 C   0  0  0  0  0  0  0  0  0  0  0  0
    7.6031  -13.3733   26.4132 C   0  0  0  0  0  0  0  0  0  0  0  0
    8.2760  -14.2795   25.4243 C   0  0  2  0  0  0  0  0  0  0  0  0
    7.4172  -14.7745   24.4132 N   0  0  0  0  0  0  0  0  0  0  0  0
    8.9984  -15.3063   26.2174 C   0  0  0  0  0  0  0  0  0  0  0  0
    9.7245  -14.8753   27.1517 O   0  0  0  0  0  0  0  0  0  0  0  0
    8.9400  -16.6905   26.0156 N   0  0  0  0  0  0  0  0  0  0  0  0
    9.5997  -17.6523   26.8913 C   0  0  0  0  0  0  0  0  0  0  0  0
   10.9240  -18.0302   26.3994 C   0  0  0  0  0  0  0  0  0  0  0  0
   11.4061  -17.5347   25.3565 O   0  0  0  0  0  0  0  0  0  0  0  0
   11.6750  -18.9580   27.0939 O   0  0  0  0  0  0  0  0  0  0  0  0
  2  1  1  6
  2  3  1  0
  4  3  1  0
  5  6  2  0
  5  2  1  0
  8  7  1  1
  8 10  1  0
  9  8  1  0
 11 10  1  1
 11 12  1  0
 12  5  1  0
 13 15  1  0
 13 11  1  0
 14 13  2  0
 16 15  1  0
 17 16  1  0
 18 17  2  0
 19 17  1  0
M  END
$$$$
