CLG.pdb
     RDKit          3D

 19 18  0  0  1  0  0  0  0  0999 V2000
    5.3025  -17.7345   22.2599 N   0  0  0  0  0  0  0  0  0  0  0  0
    5.7024  -17.7527   23.6919 C   0  0  1  0  0  0  0  0  0  0  0  0
    6.3291  -19.0786   23.9601 C   0  0  0  0  0  0  0  0  0  0  0  0
    6.9524  -19.1815   25.6329 S   0  0  0  0  0  0  0  0  0  0  0  0
    6.7152  -16.6766   23.8271 C   0  0  0  0  0  0  0  0  0  0  0  0
    7.6052  -16.4908   22.9207 O   0  0  0  0  0  0  0  0  0  0  0  0
    6.7068  -12.0131   24.6487 C   0  0  0  0  0  0  0  0  0  0  0  0
    6.4327  -12.9537   25.8195 C   0  0  2  0  0  0  0  0  0  0  0  0
    5.9706  -12.1329   26.9818 C   0  0  0  0  0  0  0  0  0  0  0  0
    7.6569  -13.7686   26.0497 C   0  0  0  0  0  0  0  0  0  0  0  0
    7.8989  -14.8675   25.0567 C   0  0  2  0  0  0  0  0  0  0  0  0
    6.8164  -15.7691   24.9141 N   0  0  0  0  0  0  0  0  0  0  0  0
    9.2047  -15.4778   25.4134 C   0  0  0  0  0  0  0  0  0  0  0  0
    9.3257  -15.8718   26.6034 O   0  0  0  0  0  0  0  0  0  0  0  0
   10.2941  -15.6485   24.5507 N   0  0  0  0  0  0  0  0  0  0  0  0
   11.5867  -16.1611   24.9908 C   0  0  0  0  0  0  0  0  0  0  0  0
   12.5678  -16.1905   23.9068 C   0  0  0  0  0  0  0  0  0  0  0  0
   12.2638  -15.8795   22.7336 O   0  0  0  0  0  0  0  0  0  0  0  0
   13.8696  -16.5696   24.1694 O   0  0  0  0  0  0  0  0  0  0  0  0
  2  1  1  6
  2  3  1  0
  4  3  1  0
  5  6  2  0
  5  2  1  0
  8  7  1  6
  8 10  1  0
  9  8  1  0
 11 10  1  1
 11 12  1  0
 12  5  1  0
 13 15  1  0
 13 11  1  0
 14 13  2  0
 16 15  1  0
 17 16  1  0
 18 17  2  0
 19 17  1  0
M  END
$$$$
