CLG.pdb
     RDKit          3D

 19 18  0  0  1  0  0  0  0  0999 V2000
    7.7738  -15.1385   20.6675 N   0  0  0  0  0  0  0  0  0  0  0  0
    6.9643  -15.4965   21.8624 C   0  0  1  0  0  0  0  0  0  0  0  0
    6.8220  -16.9805   21.8728 C   0  0  0  0  0  0  0  0  0  0  0  0
    5.9146  -17.5410   23.3080 S   0  0  0  0  0  0  0  0  0  0  0  0
    7.7727  -15.0566   23.0265 C   0  0  0  0  0  0  0  0  0  0  0  0
    9.0552  -15.0404   22.9705 O   0  0  0  0  0  0  0  0  0  0  0  0
    7.4560  -11.2225   25.3875 C   0  0  0  0  0  0  0  0  0  0  0  0
    6.5298  -12.3062   25.9337 C   0  0  2  0  0  0  0  0  0  0  0  0
    5.6341  -11.6846   26.9580 C   0  0  0  0  0  0  0  0  0  0  0  0
    7.3753  -13.4336   26.4130 C   0  0  0  0  0  0  0  0  0  0  0  0
    8.0873  -14.2088   25.3433 C   0  0  2  0  0  0  0  0  0  0  0  0
    7.2551  -14.6212   24.2745 N   0  0  0  0  0  0  0  0  0  0  0  0
    8.8351  -15.2901   26.0335 C   0  0  0  0  0  0  0  0  0  0  0  0
    9.5411  -14.9367   27.0146 O   0  0  0  0  0  0  0  0  0  0  0  0
    8.8205  -16.6472   25.6895 N   0  0  0  0  0  0  0  0  0  0  0  0
    9.5890  -17.6593   26.4051 C   0  0  0  0  0  0  0  0  0  0  0  0
   10.9597  -17.7672   25.9070 C   0  0  0  0  0  0  0  0  0  0  0  0
   11.6873  -18.7463   26.1855 O   0  0  0  0  0  0  0  0  0  0  0  0
   11.4795  -16.7693   25.1063 O   0  0  0  0  0  0  0  0  0  0  0  0
  2  1  1  6
  2  3  1  0
  4  3  1  0
  5  6  2  0
  5  2  1  0
  8  7  1  1
  8 10  1  0
  9  8  1  0
 11 10  1  1
 11 12  1  0
 12  5  1  0
 13 15  1  0
 13 11  1  0
 14 13  2  0
 16 15  1  0
 17 16  1  0
 18 17  2  0
 19 17  1  0
M  END
$$$$
