CLG.pdb
     RDKit          3D

 19 18  0  0  1  0  0  0  0  0999 V2000
    6.7986  -17.3093   20.8672 N   0  0  0  0  0  0  0  0  0  0  0  0
    6.1566  -17.2067   22.2045 C   0  0  1  0  0  0  0  0  0  0  0  0
    6.3861  -18.5016   22.9068 C   0  0  0  0  0  0  0  0  0  0  0  0
    8.1311  -18.8429   23.0966 S   0  0  0  0  0  0  0  0  0  0  0  0
    6.8820  -16.1161   22.9020 C   0  0  0  0  0  0  0  0  0  0  0  0
    7.9502  -15.6093   22.4020 O   0  0  0  0  0  0  0  0  0  0  0  0
    6.2612  -11.9738   27.4787 C   0  0  0  0  0  0  0  0  0  0  0  0
    7.1129  -12.5011   26.3267 C   0  0  2  0  0  0  0  0  0  0  0  0
    7.3222  -11.3870   25.3504 C   0  0  0  0  0  0  0  0  0  0  0  0
    6.4495  -13.7188   25.7855 C   0  0  0  0  0  0  0  0  0  0  0  0
    7.2114  -14.4516   24.7204 C   0  0  2  0  0  0  0  0  0  0  0  0
    6.5026  -15.5302   24.1381 N   0  0  0  0  0  0  0  0  0  0  0  0
    8.5340  -14.7890   25.3050 C   0  0  0  0  0  0  0  0  0  0  0  0
    9.1971  -13.8243   25.7693 O   0  0  0  0  0  0  0  0  0  0  0  0
    9.0954  -16.0693   25.3814 N   0  0  0  0  0  0  0  0  0  0  0  0
   10.3687  -16.3436   26.0376 C   0  0  0  0  0  0  0  0  0  0  0  0
   11.5046  -16.1772   25.1318 C   0  0  0  0  0  0  0  0  0  0  0  0
   11.3494  -15.8663   23.9298 O   0  0  0  0  0  0  0  0  0  0  0  0
   12.7898  -16.3649   25.6010 O   0  0  0  0  0  0  0  0  0  0  0  0
  2  1  1  6
  2  3  1  0
  4  3  1  0
  5  6  2  0
  5  2  1  0
  8  7  1  1
  8 10  1  0
  9  8  1  0
 11 10  1  1
 11 12  1  0
 12  5  1  0
 13 15  1  0
 13 11  1  0
 14 13  2  0
 16 15  1  0
 17 16  1  0
 18 17  2  0
 19 17  1  0
M  END
$$$$
