CLG.pdb
     RDKit          3D

 19 18  0  0  1  0  0  0  0  0999 V2000
    8.1161  -15.1226   19.9563 N   0  0  0  0  0  0  0  0  0  0  0  0
    7.0986  -15.3988   21.0048 C   0  0  1  0  0  0  0  0  0  0  0  0
    7.0295  -16.8781   21.1765 C   0  0  0  0  0  0  0  0  0  0  0  0
    8.5331  -17.5244   21.8967 S   0  0  0  0  0  0  0  0  0  0  0  0
    7.6306  -14.7695   22.2390 C   0  0  0  0  0  0  0  0  0  0  0  0
    8.8704  -14.4507   22.3352 O   0  0  0  0  0  0  0  0  0  0  0  0
    5.8184  -11.8441   27.3713 C   0  0  0  0  0  0  0  0  0  0  0  0
    6.9792  -12.3145   26.4985 C   0  0  2  0  0  0  0  0  0  0  0  0
    7.6552  -11.1082   25.9277 C   0  0  0  0  0  0  0  0  0  0  0  0
    6.4427  -13.2853   25.5057 C   0  0  0  0  0  0  0  0  0  0  0  0
    7.4463  -13.8450   24.5406 C   0  0  2  0  0  0  0  0  0  0  0  0
    6.8744  -14.4577   23.3993 N   0  0  0  0  0  0  0  0  0  0  0  0
    8.3675  -14.6953   25.3364 C   0  0  0  0  0  0  0  0  0  0  0  0
    8.9732  -14.1232   26.2807 O   0  0  0  0  0  0  0  0  0  0  0  0
    8.6143  -16.0575   25.1272 N   0  0  0  0  0  0  0  0  0  0  0  0
    9.3900  -16.8781   26.0502 C   0  0  0  0  0  0  0  0  0  0  0  0
   10.7999  -16.9558   25.6696 C   0  0  0  0  0  0  0  0  0  0  0  0
   11.2395  -16.3835   24.6475 O   0  0  0  0  0  0  0  0  0  0  0  0
   11.6825  -17.6767   26.4496 O   0  0  0  0  0  0  0  0  0  0  0  0
  2  1  1  6
  2  3  1  0
  4  3  1  0
  5  6  2  0
  5  2  1  0
  8  7  1  6
  8 10  1  0
  9  8  1  0
 11 10  1  1
 11 12  1  0
 12  5  1  0
 13 15  1  0
 13 11  1  0
 14 13  2  0
 16 15  1  0
 17 16  1  0
 18 17  2  0
 19 17  1  0
M  END
$$$$
