CLG.pdb
     RDKit          3D

 19 18  0  0  1  0  0  0  0  0999 V2000
    7.9781  -13.2202   19.9518 N   0  0  0  0  0  0  0  0  0  0  0  0
    7.1473  -14.0759   20.8398 C   0  0  1  0  0  0  0  0  0  0  0  0
    7.1348  -15.4453   20.2505 C   0  0  0  0  0  0  0  0  0  0  0  0
    6.2386  -16.5953   21.2857 S   0  0  0  0  0  0  0  0  0  0  0  0
    7.8581  -14.0911   22.1423 C   0  0  0  0  0  0  0  0  0  0  0  0
    9.1367  -13.9896   22.1972 O   0  0  0  0  0  0  0  0  0  0  0  0
    7.5207  -11.3781   25.7938 C   0  0  0  0  0  0  0  0  0  0  0  0
    6.4671  -12.4817   25.7428 C   0  0  2  0  0  0  0  0  0  0  0  0
    5.4568  -12.2149   26.8133 C   0  0  0  0  0  0  0  0  0  0  0  0
    7.1697  -13.7911   25.8288 C   0  0  0  0  0  0  0  0  0  0  0  0
    7.9820  -14.1699   24.6251 C   0  0  2  0  0  0  0  0  0  0  0  0
    7.2446  -14.2101   23.4170 N   0  0  0  0  0  0  0  0  0  0  0  0
    8.7066  -15.4162   24.9809 C   0  0  0  0  0  0  0  0  0  0  0  0
    8.0012  -16.4526   25.0999 O   0  0  0  0  0  0  0  0  0  0  0  0
   10.0859  -15.5324   25.1914 N   0  0  0  0  0  0  0  0  0  0  0  0
   10.7412  -16.7981   25.5007 C   0  0  0  0  0  0  0  0  0  0  0  0
   11.3326  -17.4185   24.3158 C   0  0  0  0  0  0  0  0  0  0  0  0
   10.6745  -18.1796   23.5721 O   0  0  0  0  0  0  0  0  0  0  0  0
   12.6522  -17.1670   23.9958 O   0  0  0  0  0  0  0  0  0  0  0  0
  2  1  1  6
  2  3  1  0
  4  3  1  0
  5  6  2  0
  5  2  1  0
  8  7  1  1
  8 10  1  0
  9  8  1  0
 11 10  1  1
 11 12  1  0
 12  5  1  0
 13 15  1  0
 13 11  1  0
 14 13  2  0
 16 15  1  0
 17 16  1  0
 18 17  2  0
 19 17  1  0
M  END
$$$$
