CLG.pdb
     RDKit          3D

 19 18  0  0  1  0  0  0  0  0999 V2000
    8.1663  -13.1699   19.9368 N   0  0  0  0  0  0  0  0  0  0  0  0
    7.3217  -14.0031   20.8332 C   0  0  1  0  0  0  0  0  0  0  0  0
    7.3968  -15.4062   20.3347 C   0  0  0  0  0  0  0  0  0  0  0  0
    6.4902  -16.5263   21.3934 S   0  0  0  0  0  0  0  0  0  0  0  0
    7.9586  -13.9054   22.1701 C   0  0  0  0  0  0  0  0  0  0  0  0
    9.2192  -13.6924   22.2861 O   0  0  0  0  0  0  0  0  0  0  0  0
    7.5262  -11.2125   25.9059 C   0  0  0  0  0  0  0  0  0  0  0  0
    6.4356  -12.2705   25.7577 C   0  0  2  0  0  0  0  0  0  0  0  0
    5.3850  -12.0084   26.7900 C   0  0  0  0  0  0  0  0  0  0  0  0
    7.0835  -13.6092   25.8201 C   0  0  0  0  0  0  0  0  0  0  0  0
    7.9657  -13.9559   24.6566 C   0  0  2  0  0  0  0  0  0  0  0  0
    7.2879  -14.0259   23.4154 N   0  0  0  0  0  0  0  0  0  0  0  0
    8.7217  -15.1722   25.0488 C   0  0  0  0  0  0  0  0  0  0  0  0
    9.2505  -15.1516   26.1916 O   0  0  0  0  0  0  0  0  0  0  0  0
    8.8925  -16.3207   24.2664 N   0  0  0  0  0  0  0  0  0  0  0  0
    9.6855  -17.4670   24.6956 C   0  0  0  0  0  0  0  0  0  0  0  0
   11.0446  -17.4318   24.1568 C   0  0  0  0  0  0  0  0  0  0  0  0
   11.3074  -17.8395   23.0034 O   0  0  0  0  0  0  0  0  0  0  0  0
   12.0768  -16.9381   24.9300 O   0  0  0  0  0  0  0  0  0  0  0  0
  2  1  1  6
  2  3  1  0
  4  3  1  0
  5  6  2  0
  5  2  1  0
  8  7  1  1
  8 10  1  0
  9  8  1  0
 11 10  1  1
 11 12  1  0
 12  5  1  0
 13 15  1  0
 13 11  1  0
 14 13  2  0
 16 15  1  0
 17 16  1  0
 18 17  2  0
 19 17  1  0
M  END
$$$$
