CLG.pdb
     RDKit          3D

 19 18  0  0  1  0  0  0  0  0999 V2000
    8.5663  -15.4342   20.7679 N   0  0  0  0  0  0  0  0  0  0  0  0
    7.5569  -15.7518   21.8125 C   0  0  1  0  0  0  0  0  0  0  0  0
    7.3677  -17.2306   21.8110 C   0  0  0  0  0  0  0  0  0  0  0  0
    6.2761  -17.7522   23.1275 S   0  0  0  0  0  0  0  0  0  0  0  0
    8.1721  -15.3208   23.0924 C   0  0  0  0  0  0  0  0  0  0  0  0
    9.4476  -15.2571   23.2225 O   0  0  0  0  0  0  0  0  0  0  0  0
    7.6939  -11.4671   25.5456 C   0  0  0  0  0  0  0  0  0  0  0  0
    6.5851  -12.4815   25.8139 C   0  0  2  0  0  0  0  0  0  0  0  0
    5.5557  -11.8317   26.6834 C   0  0  0  0  0  0  0  0  0  0  0  0
    7.2135  -13.7129   26.3659 C   0  0  0  0  0  0  0  0  0  0  0  0
    8.1136  -14.4579   25.4242 C   0  0  2  0  0  0  0  0  0  0  0  0
    7.4642  -14.9441   24.2638 N   0  0  0  0  0  0  0  0  0  0  0  0
    8.8269  -15.4743   26.2386 C   0  0  0  0  0  0  0  0  0  0  0  0
    9.4110  -15.0479   27.2696 O   0  0  0  0  0  0  0  0  0  0  0  0
    8.9026  -16.8442   25.9596 N   0  0  0  0  0  0  0  0  0  0  0  0
    9.4858  -17.8140   26.8795 C   0  0  0  0  0  0  0  0  0  0  0  0
   10.8846  -18.1023   26.5652 C   0  0  0  0  0  0  0  0  0  0  0  0
   11.4749  -17.5448   25.6133 O   0  0  0  0  0  0  0  0  0  0  0  0
   11.5865  -19.0125   27.3307 O   0  0  0  0  0  0  0  0  0  0  0  0
  2  1  1  6
  2  3  1  0
  4  3  1  0
  5  6  2  0
  5  2  1  0
  8  7  1  1
  8 10  1  0
  9  8  1  0
 11 10  1  1
 11 12  1  0
 12  5  1  0
 13 15  1  0
 13 11  1  0
 14 13  2  0
 16 15  1  0
 17 16  1  0
 18 17  2  0
 19 17  1  0
M  END
$$$$
