CLG.pdb
     RDKit          3D

 19 18  0  0  1  0  0  0  0  0999 V2000
    9.5509  -17.6025   17.2221 N   0  0  0  0  0  0  0  0  0  0  0  0
   10.7970  -16.8156   17.0242 C   0  0  1  0  0  0  0  0  0  0  0  0
   10.6333  -16.0358   15.7642 C   0  0  0  0  0  0  0  0  0  0  0  0
   10.3681  -17.1100   14.3595 S   0  0  0  0  0  0  0  0  0  0  0  0
   10.8641  -15.8941   18.1855 C   0  0  0  0  0  0  0  0  0  0  0  0
   11.9169  -15.1959   18.4135 O   0  0  0  0  0  0  0  0  0  0  0  0
    8.6249  -12.2952   19.5735 C   0  0  0  0  0  0  0  0  0  0  0  0
    7.8977  -13.5903   19.9265 C   0  0  2  0  0  0  0  0  0  0  0  0
    6.5276  -13.2402   20.4147 C   0  0  0  0  0  0  0  0  0  0  0  0
    8.7501  -14.3493   20.8820 C   0  0  0  0  0  0  0  0  0  0  0  0
   10.0157  -14.9175   20.3097 C   0  0  2  0  0  0  0  0  0  0  0  0
    9.8280  -15.6815   19.1324 N   0  0  0  0  0  0  0  0  0  0  0  0
   10.7088  -15.6103   21.4253 C   0  0  0  0  0  0  0  0  0  0  0  0
   10.0008  -16.3840   22.1224 O   0  0  0  0  0  0  0  0  0  0  0  0
   12.0616  -15.4765   21.7606 N   0  0  0  0  0  0  0  0  0  0  0  0
   12.7325  -16.3391   22.7264 C   0  0  0  0  0  0  0  0  0  0  0  0
   14.1479  -16.0038   22.8774 C   0  0  0  0  0  0  0  0  0  0  0  0
   14.8560  -15.6765   21.8991 O   0  0  0  0  0  0  0  0  0  0  0  0
   14.7334  -16.0450   24.1274 O   0  0  0  0  0  0  0  0  0  0  0  0
  2  1  1  1
  2  3  1  0
  4  3  1  0
  5  6  2  0
  5  2  1  0
  8  7  1  1
  8 10  1  0
  9  8  1  0
 11 10  1  1
 11 12  1  0
 12  5  1  0
 13 15  1  0
 13 11  1  0
 14 13  2  0
 16 15  1  0
 17 16  1  0
 18 17  2  0
 19 17  1  0
M  END
$$$$
