CLG.pdb
     RDKit          3D

 19 18  0  0  1  0  0  0  0  0999 V2000
    8.5486  -15.0050   20.4186 N   0  0  0  0  0  0  0  0  0  0  0  0
    7.4152  -14.8855   21.3738 C   0  0  1  0  0  0  0  0  0  0  0  0
    6.7360  -16.2117   21.4234 C   0  0  0  0  0  0  0  0  0  0  0  0
    7.7731  -17.4500   22.1904 S   0  0  0  0  0  0  0  0  0  0  0  0
    8.0415  -14.5873   22.6857 C   0  0  0  0  0  0  0  0  0  0  0  0
    9.3148  -14.4679   22.7969 O   0  0  0  0  0  0  0  0  0  0  0  0
    7.4918  -11.1976   25.6122 C   0  0  0  0  0  0  0  0  0  0  0  0
    6.4415  -12.2900   25.7968 C   0  0  2  0  0  0  0  0  0  0  0  0
    5.4110  -11.7914   26.7598 C   0  0  0  0  0  0  0  0  0  0  0  0
    7.1450  -13.5406   26.1929 C   0  0  0  0  0  0  0  0  0  0  0  0
    8.0126  -14.1576   25.1353 C   0  0  2  0  0  0  0  0  0  0  0  0
    7.3469  -14.4047   23.9102 N   0  0  0  0  0  0  0  0  0  0  0  0
    8.6692  -15.3329   25.7617 C   0  0  0  0  0  0  0  0  0  0  0  0
    9.1808  -15.1424   26.8965 O   0  0  0  0  0  0  0  0  0  0  0  0
    8.7650  -16.6137   25.2043 N   0  0  0  0  0  0  0  0  0  0  0  0
    9.4249  -17.7278   25.8754 C   0  0  0  0  0  0  0  0  0  0  0  0
   10.8642  -17.7542   25.6175 C   0  0  0  0  0  0  0  0  0  0  0  0
   11.4164  -16.9126   24.8744 O   0  0  0  0  0  0  0  0  0  0  0  0
   11.6485  -18.7285   26.2030 O   0  0  0  0  0  0  0  0  0  0  0  0
  2  1  1  6
  2  3  1  0
  4  3  1  0
  5  6  2  0
  5  2  1  0
  8  7  1  1
  8 10  1  0
  9  8  1  0
 11 10  1  1
 11 12  1  0
 12  5  1  0
 13 15  1  0
 13 11  1  0
 14 13  2  0
 16 15  1  0
 17 16  1  0
 18 17  2  0
 19 17  1  0
M  END
$$$$
