CLG.pdb
     RDKit          3D

 19 18  0  0  1  0  0  0  0  0999 V2000
    7.2260  -15.8677   20.7893 N   0  0  0  0  0  0  0  0  0  0  0  0
    6.6590  -16.1339   22.1380 C   0  0  1  0  0  0  0  0  0  0  0  0
    6.7302  -17.6055   22.3660 C   0  0  0  0  0  0  0  0  0  0  0  0
    6.1221  -18.0465   23.9886 S   0  0  0  0  0  0  0  0  0  0  0  0
    7.5594  -15.4301   23.0847 C   0  0  0  0  0  0  0  0  0  0  0  0
    8.8017  -15.2590   22.8100 O   0  0  0  0  0  0  0  0  0  0  0  0
    7.0670  -11.4541   25.0095 C   0  0  0  0  0  0  0  0  0  0  0  0
    6.4214  -12.5521   25.8511 C   0  0  2  0  0  0  0  0  0  0  0  0
    5.6163  -11.9021   26.9315 C   0  0  0  0  0  0  0  0  0  0  0  0
    7.4986  -13.4706   26.3113 C   0  0  0  0  0  0  0  0  0  0  0  0
    8.1120  -14.3329   25.2472 C   0  0  2  0  0  0  0  0  0  0  0  0
    7.1773  -14.8873   24.3396 N   0  0  0  0  0  0  0  0  0  0  0  0
    8.9881  -15.3065   25.9469 C   0  0  0  0  0  0  0  0  0  0  0  0
    9.7823  -14.8256   26.7977 O   0  0  0  0  0  0  0  0  0  0  0  0
    9.0039  -16.6914   25.7422 N   0  0  0  0  0  0  0  0  0  0  0  0
    9.7918  -17.6087   26.5576 C   0  0  0  0  0  0  0  0  0  0  0  0
   11.0928  -17.9032   25.9580 C   0  0  0  0  0  0  0  0  0  0  0  0
   11.8876  -18.7195   26.4751 O   0  0  0  0  0  0  0  0  0  0  0  0
   11.4685  -17.2711   24.7891 O   0  0  0  0  0  0  0  0  0  0  0  0
  2  1  1  6
  2  3  1  0
  4  3  1  0
  5  6  2  0
  5  2  1  0
  8  7  1  1
  8 10  1  0
  9  8  1  0
 11 10  1  1
 11 12  1  0
 12  5  1  0
 13 15  1  0
 13 11  1  0
 14 13  2  0
 16 15  1  0
 17 16  1  0
 18 17  2  0
 19 17  1  0
M  END
$$$$
