CLG.pdb
     RDKit          3D

 19 18  0  0  1  0  0  0  0  0999 V2000
    8.5437  -15.0830   20.5855 N   0  0  0  0  0  0  0  0  0  0  0  0
    7.7303  -15.6430   21.6972 C   0  0  1  0  0  0  0  0  0  0  0  0
    7.9508  -17.1174   21.7084 C   0  0  0  0  0  0  0  0  0  0  0  0
    6.6177  -17.9723   22.5387 S   0  0  0  0  0  0  0  0  0  0  0  0
    8.2887  -15.0375   22.9316 C   0  0  0  0  0  0  0  0  0  0  0  0
    9.5190  -14.6759   22.9907 O   0  0  0  0  0  0  0  0  0  0  0  0
    7.5878  -11.4138   25.6146 C   0  0  0  0  0  0  0  0  0  0  0  0
    6.5445  -12.5029   25.8515 C   0  0  2  0  0  0  0  0  0  0  0  0
    5.5076  -11.9633   26.7852 C   0  0  0  0  0  0  0  0  0  0  0  0
    7.2555  -13.7268   26.3125 C   0  0  0  0  0  0  0  0  0  0  0  0
    8.1954  -14.3424   25.3178 C   0  0  2  0  0  0  0  0  0  0  0  0
    7.5693  -14.7950   24.1312 N   0  0  0  0  0  0  0  0  0  0  0  0
    8.9864  -15.3580   26.0580 C   0  0  0  0  0  0  0  0  0  0  0  0
    9.4934  -14.9797   27.1469 O   0  0  0  0  0  0  0  0  0  0  0  0
    9.2113  -16.6790   25.6523 N   0  0  0  0  0  0  0  0  0  0  0  0
    9.8990  -17.6616   26.4821 C   0  0  0  0  0  0  0  0  0  0  0  0
   11.0027  -18.3083   25.7733 C   0  0  0  0  0  0  0  0  0  0  0  0
   11.3707  -17.9284   24.6394 O   0  0  0  0  0  0  0  0  0  0  0  0
   11.6666  -19.3684   26.3584 O   0  0  0  0  0  0  0  0  0  0  0  0
  2  1  1  6
  2  3  1  0
  4  3  1  0
  5  6  2  0
  5  2  1  0
  8  7  1  1
  8 10  1  0
  9  8  1  0
 11 10  1  1
 11 12  1  0
 12  5  1  0
 13 15  1  0
 13 11  1  0
 14 13  2  0
 16 15  1  0
 17 16  1  0
 18 17  2  0
 19 17  1  0
M  END
$$$$
