CLG.pdb
     RDKit          3D

 19 18  0  0  1  0  0  0  0  0999 V2000
    8.6984  -19.5945   17.2043 N   0  0  0  0  0  0  0  0  0  0  0  0
    8.1206  -19.3086   18.5442 C   0  0  1  0  0  0  0  0  0  0  0  0
    8.5294  -20.4204   19.4494 C   0  0  0  0  0  0  0  0  0  0  0  0
    8.1092  -20.0671   21.1512 S   0  0  0  0  0  0  0  0  0  0  0  0
    8.7564  -18.0404   18.9799 C   0  0  0  0  0  0  0  0  0  0  0  0
   10.0033  -17.8208   18.7675 O   0  0  0  0  0  0  0  0  0  0  0  0
    7.4997  -12.2853   20.8863 C   0  0  0  0  0  0  0  0  0  0  0  0
    8.5485  -13.3067   20.4534 C   0  0  2  0  0  0  0  0  0  0  0  0
    9.2516  -12.7731   19.2455 C   0  0  0  0  0  0  0  0  0  0  0  0
    7.8666  -14.6182   20.2778 C   0  0  0  0  0  0  0  0  0  0  0  0
    8.7718  -15.7917   20.0422 C   0  0  2  0  0  0  0  0  0  0  0  0
    8.0990  -16.9728   19.6456 N   0  0  0  0  0  0  0  0  0  0  0  0
    9.6292  -15.9113   21.2486 C   0  0  0  0  0  0  0  0  0  0  0  0
    9.0298  -16.1229   22.3358 O   0  0  0  0  0  0  0  0  0  0  0  0
   11.0253  -15.8100   21.2770 N   0  0  0  0  0  0  0  0  0  0  0  0
   11.8102  -15.9522   22.4979 C   0  0  0  0  0  0  0  0  0  0  0  0
   13.2377  -15.7351   22.2658 C   0  0  0  0  0  0  0  0  0  0  0  0
   13.6980  -15.5478   21.1175 O   0  0  0  0  0  0  0  0  0  0  0  0
   14.1141  -15.7338   23.3330 O   0  0  0  0  0  0  0  0  0  0  0  0
  2  1  1  6
  2  3  1  0
  4  3  1  0
  5  6  2  0
  5  2  1  0
  8  7  1  6
  8 10  1  0
  9  8  1  0
 11 10  1  1
 11 12  1  0
 12  5  1  0
 13 15  1  0
 13 11  1  0
 14 13  2  0
 16 15  1  0
 17 16  1  0
 18 17  2  0
 19 17  1  0
M  END
$$$$
