CLG.pdb
     RDKit          3D

 19 18  0  0  1  0  0  0  0  0999 V2000
   10.6288  -15.9105   20.7859 N   0  0  0  0  0  0  0  0  0  0  0  0
    9.1880  -15.8629   21.1504 C   0  0  1  0  0  0  0  0  0  0  0  0
    8.6733  -17.2614   21.1057 C   0  0  0  0  0  0  0  0  0  0  0  0
    7.6988  -17.5535   19.6352 S   0  0  0  0  0  0  0  0  0  0  0  0
    9.1556  -15.3551   22.5444 C   0  0  0  0  0  0  0  0  0  0  0  0
   10.1614  -15.5110   23.3267 O   0  0  0  0  0  0  0  0  0  0  0  0
    5.5744  -12.3094   26.6202 C   0  0  0  0  0  0  0  0  0  0  0  0
    6.8436  -13.1241   26.3836 C   0  0  2  0  0  0  0  0  0  0  0  0
    8.0043  -12.3512   26.9250 C   0  0  0  0  0  0  0  0  0  0  0  0
    6.9097  -13.4599   24.9349 C   0  0  0  0  0  0  0  0  0  0  0  0
    8.0279  -14.3768   24.5336 C   0  0  2  0  0  0  0  0  0  0  0  0
    8.0691  -14.6700   23.1490 N   0  0  0  0  0  0  0  0  0  0  0  0
    7.9563  -15.5506   25.4402 C   0  0  0  0  0  0  0  0  0  0  0  0
    6.8009  -15.9202   25.7781 O   0  0  0  0  0  0  0  0  0  0  0  0
    9.0488  -16.2683   25.9420 N   0  0  0  0  0  0  0  0  0  0  0  0
    8.9077  -17.4245   26.8196 C   0  0  0  0  0  0  0  0  0  0  0  0
   10.1983  -17.9081   27.3086 C   0  0  0  0  0  0  0  0  0  0  0  0
   10.2815  -18.8397   28.1397 O   0  0  0  0  0  0  0  0  0  0  0  0
   11.3660  -17.3307   26.8501 O   0  0  0  0  0  0  0  0  0  0  0  0
  2  1  1  1
  2  3  1  0
  4  3  1  0
  5  6  2  0
  5  2  1  0
  8  7  1  6
  8 10  1  0
  9  8  1  0
 11 10  1  6
 11 12  1  0
 12  5  1  0
 13 15  1  0
 13 11  1  0
 14 13  2  0
 16 15  1  0
 17 16  1  0
 18 17  2  0
 19 17  1  0
M  END
$$$$
