FQW.pdb
     RDKit          3D

 35 37  0  0  1  0  0  0  0  0999 V2000
    5.7292  -17.7980   23.7282 N   0  0  0  0  0  0  0  0  0  0  0  0
    6.4347  -16.5215   23.7428 C   0  0  1  0  0  0  0  0  0  0  0  0
    6.9337  -16.3442   25.1829 C   0  0  0  0  0  0  0  0  0  0  0  0
    7.0175  -14.8899   25.4150 C   0  0  0  0  0  0  0  0  0  0  0  0
    7.7390  -14.0630   24.5899 C   0  0  0  0  0  0  0  0  0  0  0  0
    7.8037  -12.6873   24.8284 C   0  0  0  0  0  0  0  0  0  0  0  0
    7.1424  -12.1340   25.8990 C   0  0  0  0  0  0  0  0  0  0  0  0
    6.4184  -12.9608   26.7274 C   0  0  0  0  0  0  0  0  0  0  0  0
    6.3575  -14.3332   26.4849 C   0  0  0  0  0  0  0  0  0  0  0  0
    7.6338  -16.6489   22.8824 C   0  0  0  0  0  0  0  0  0  0  0  0
    8.2717  -17.7466   22.8289 O   0  0  0  0  0  0  0  0  0  0  0  0
    9.0373  -13.1005   17.9090 N   0  0  0  0  0  0  0  0  0  0  0  0
    7.9966  -13.9974   18.2007 C   0  0  0  0  0  0  0  0  0  0  0  0
    6.9095  -13.9038   17.6014 O   0  0  0  0  0  0  0  0  0  0  0  0
    8.1956  -15.0461   19.2158 C   0  0  0  0  0  0  0  0  0  0  0  0
    9.1356  -14.5262   20.2741 C   0  0  0  0  0  0  0  0  0  0  0  0
    9.2309  -15.5985   21.3401 C   0  0  2  0  0  0  0  0  0  0  0  0
    8.0390  -15.5209   22.1325 N   0  0  0  0  0  0  0  0  0  0  0  0
   10.4037  -15.4287   22.2151 C   0  0  0  0  0  0  0  0  0  0  0  0
   10.8176  -14.2655   22.4322 O   0  0  0  0  0  0  0  0  0  0  0  0
   11.0596  -16.5278   22.8041 N   0  0  0  0  0  0  0  0  0  0  0  0
   11.2128  -16.5747   24.2551 C   0  0  1  0  0  0  0  0  0  0  0  0
    9.8664  -16.4644   24.9162 C   0  0  0  0  0  0  0  0  0  0  0  0
    9.9486  -16.5955   26.3757 C   0  0  0  0  0  0  0  0  0  0  0  0
   10.1520  -17.7819   27.0928 C   0  0  0  0  0  0  0  0  0  0  0  0
   10.1364  -17.5298   28.4066 N   0  0  0  0  0  0  0  0  0  0  0  0
    9.9330  -16.2281   28.6279 C   0  0  0  0  0  0  0  0  0  0  0  0
    9.8530  -15.4816   29.7932 C   0  0  0  0  0  0  0  0  0  0  0  0
    9.6527  -14.1261   29.6556 C   0  0  0  0  0  0  0  0  0  0  0  0
    9.5332  -13.5090   28.4290 C   0  0  0  0  0  0  0  0  0  0  0  0
    9.6150  -14.2679   27.2923 C   0  0  0  0  0  0  0  0  0  0  0  0
    9.8135  -15.6271   27.3686 C   0  0  0  0  0  0  0  0  0  0  0  0
   12.0817  -17.6583   24.6885 C   0  0  0  0  0  0  0  0  0  0  0  0
   11.9422  -18.9864   24.3196 O   0  0  0  0  0  0  0  0  0  0  0  0
   13.0730  -17.4407   25.4805 O   0  0  0  0  0  0  0  0  0  0  0  0
  2  1  1  1
  2  3  1  0
  3  4  1  0
  4  9  1  0
  4  5  2  0
  5  6  1  0
  6  7  2  0
  8  7  1  0
  9  8  2  0
 10 18  1  0
 10  2  1  0
 11 10  2  0
 12 13  1  0
 13 14  2  0
 15 16  1  0
 15 13  1  0
 17 16  1  6
 17 18  1  0
 19 17  1  0
 19 20  2  0
 21 19  1  0
 22 21  1  0
 22 33  1  0
 22 23  1  1
 24 23  1  0
 25 24  2  0
 26 25  1  0
 27 26  1  0
 27 32  2  0
 28 27  1  0
 29 28  2  0
 29 30  1  0
 30 31  2  0
 31 32  1  0
 32 24  1  0
 33 34  1  0
 35 33  2  0
M  END
$$$$
