FQW.pdb
     RDKit          3D

 35 37  0  0  1  0  0  0  0  0999 V2000
    6.8441  -18.3349   18.8990 N   0  0  0  0  0  0  0  0  0  0  0  0
    7.5724  -17.1342   19.2932 C   0  0  1  0  0  0  0  0  0  0  0  0
    6.5085  -16.1637   19.8231 C   0  0  0  0  0  0  0  0  0  0  0  0
    7.2151  -14.9077   20.1379 C   0  0  0  0  0  0  0  0  0  0  0  0
    7.8367  -14.1612   19.1677 C   0  0  0  0  0  0  0  0  0  0  0  0
    8.4997  -12.9733   19.4889 C   0  0  0  0  0  0  0  0  0  0  0  0
    8.5415  -12.5283   20.7888 C   0  0  0  0  0  0  0  0  0  0  0  0
    7.9189  -13.2748   21.7630 C   0  0  0  0  0  0  0  0  0  0  0  0
    7.2589  -14.4598   21.4370 C   0  0  0  0  0  0  0  0  0  0  0  0
    8.4480  -17.4819   20.4363 C   0  0  0  0  0  0  0  0  0  0  0  0
    7.9974  -18.1725   21.4031 O   0  0  0  0  0  0  0  0  0  0  0  0
   14.8563  -19.3803   20.5811 N   0  0  0  0  0  0  0  0  0  0  0  0
   14.3850  -18.1803   21.1382 C   0  0  0  0  0  0  0  0  0  0  0  0
   15.1044  -17.1644   21.1249 O   0  0  0  0  0  0  0  0  0  0  0  0
   13.0402  -18.1285   21.7370 C   0  0  0  0  0  0  0  0  0  0  0  0
   12.0655  -17.6288   20.7007 C   0  0  0  0  0  0  0  0  0  0  0  0
   10.7149  -17.5324   21.3803 C   0  0  2  0  0  0  0  0  0  0  0  0
    9.7855  -17.0242   20.4147 N   0  0  0  0  0  0  0  0  0  0  0  0
   10.7296  -16.6395   22.5518 C   0  0  0  0  0  0  0  0  0  0  0  0
   11.1274  -15.4613   22.3940 O   0  0  0  0  0  0  0  0  0  0  0  0
   10.3126  -17.0743   23.8255 N   0  0  0  0  0  0  0  0  0  0  0  0
   10.2222  -16.1080   24.9160 C   0  0  1  0  0  0  0  0  0  0  0  0
    9.3390  -14.9599   24.5113 C   0  0  0  0  0  0  0  0  0  0  0  0
    8.1918  -14.7936   25.4114 C   0  0  0  0  0  0  0  0  0  0  0  0
    7.3080  -15.7990   25.8250 C   0  0  0  0  0  0  0  0  0  0  0  0
    6.3628  -15.2790   26.6161 N   0  0  0  0  0  0  0  0  0  0  0  0
    6.5537  -13.9655   26.7673 C   0  0  0  0  0  0  0  0  0  0  0  0
    5.8694  -13.0008   27.4903 C   0  0  0  0  0  0  0  0  0  0  0  0
    6.3621  -11.7158   27.4419 C   0  0  0  0  0  0  0  0  0  0  0  0
    7.4827  -11.3718   26.7169 C   0  0  0  0  0  0  0  0  0  0  0  0
    8.1411  -12.3425   26.0103 C   0  0  0  0  0  0  0  0  0  0  0  0
    7.6940  -13.6435   26.0210 C   0  0  0  0  0  0  0  0  0  0  0  0
    9.9493  -16.7394   26.1982 C   0  0  0  0  0  0  0  0  0  0  0  0
   10.1766  -16.1590   27.4356 O   0  0  0  0  0  0  0  0  0  0  0  0
    9.4641  -17.9301   26.2643 O   0  0  0  0  0  0  0  0  0  0  0  0
  2  1  1  1
  2  3  1  0
  3  4  1  0
  4  9  1  0
  4  5  2  0
  5  6  1  0
  6  7  2  0
  8  7  1  0
  9  8  2  0
 10 18  1  0
 10  2  1  0
 11 10  2  0
 12 13  1  0
 13 14  2  0
 15 16  1  0
 15 13  1  0
 17 16  1  6
 17 18  1  0
 19 17  1  0
 19 20  2  0
 21 19  1  0
 22 21  1  0
 22 33  1  0
 22 23  1  6
 24 23  1  0
 25 24  2  0
 26 25  1  0
 27 26  1  0
 27 32  2  0
 28 27  1  0
 29 28  2  0
 29 30  1  0
 30 31  2  0
 31 32  1  0
 32 24  1  0
 33 34  1  0
 35 33  2  0
M  END
$$$$
