FQW.pdb
     RDKit          3D

 35 37  0  0  1  0  0  0  0  0999 V2000
    8.7752  -17.9565   18.4409 N   0  0  0  0  0  0  0  0  0  0  0  0
    9.0037  -17.0254   19.5402 C   0  0  1  0  0  0  0  0  0  0  0  0
    7.6204  -16.7616   20.1495 C   0  0  0  0  0  0  0  0  0  0  0  0
    7.5939  -15.3317   20.5107 C   0  0  0  0  0  0  0  0  0  0  0  0
    6.4744  -14.7362   21.0372 C   0  0  0  0  0  0  0  0  0  0  0  0
    6.4722  -13.3794   21.3732 C   0  0  0  0  0  0  0  0  0  0  0  0
    7.5968  -12.6124   21.1818 C   0  0  0  0  0  0  0  0  0  0  0  0
    8.7203  -13.2072   20.6544 C   0  0  0  0  0  0  0  0  0  0  0  0
    8.7168  -14.5617   20.3205 C   0  0  0  0  0  0  0  0  0  0  0  0
    9.8054  -17.7214   20.5732 C   0  0  0  0  0  0  0  0  0  0  0  0
   10.0830  -18.9550   20.4471 O   0  0  0  0  0  0  0  0  0  0  0  0
   15.1843  -17.3469   20.3220 N   0  0  0  0  0  0  0  0  0  0  0  0
   14.1963  -18.2307   19.8578 C   0  0  0  0  0  0  0  0  0  0  0  0
   14.4034  -18.9138   18.8378 O   0  0  0  0  0  0  0  0  0  0  0  0
   12.9177  -18.3457   20.5800 C   0  0  0  0  0  0  0  0  0  0  0  0
   12.5597  -16.9974   21.1524 C   0  0  0  0  0  0  0  0  0  0  0  0
   11.5396  -17.2426   22.2454 C   0  0  2  0  0  0  0  0  0  0  0  0
   10.2455  -16.9749   21.6904 N   0  0  0  0  0  0  0  0  0  0  0  0
   11.7475  -16.3807   23.4218 C   0  0  0  0  0  0  0  0  0  0  0  0
   12.8408  -16.4612   24.0296 O   0  0  0  0  0  0  0  0  0  0  0  0
   10.7598  -15.4821   23.8713 N   0  0  0  0  0  0  0  0  0  0  0  0
    9.7968  -15.9229   24.8760 C   0  0  1  0  0  0  0  0  0  0  0  0
    8.4155  -15.9555   24.2821 C   0  0  0  0  0  0  0  0  0  0  0  0
    7.4604  -15.1431   25.0449 C   0  0  0  0  0  0  0  0  0  0  0  0
    6.2143  -15.5623   25.5291 C   0  0  0  0  0  0  0  0  0  0  0  0
    5.6000  -14.5478   26.1482 N   0  0  0  0  0  0  0  0  0  0  0  0
    6.3631  -13.4518   26.1141 C   0  0  0  0  0  0  0  0  0  0  0  0
    6.1832  -12.1741   26.6209 C   0  0  0  0  0  0  0  0  0  0  0  0
    7.2042  -11.2719   26.4203 C   0  0  0  0  0  0  0  0  0  0  0  0
    8.3649  -11.5934   25.7503 C   0  0  0  0  0  0  0  0  0  0  0  0
    8.5188  -12.8620   25.2583 C   0  0  0  0  0  0  0  0  0  0  0  0
    7.5316  -13.8051   25.4280 C   0  0  0  0  0  0  0  0  0  0  0  0
   10.2428  -17.1082   25.5924 C   0  0  0  0  0  0  0  0  0  0  0  0
   10.2935  -17.2327   26.9714 O   0  0  0  0  0  0  0  0  0  0  0  0
   10.6405  -18.1574   24.9613 O   0  0  0  0  0  0  0  0  0  0  0  0
  2  1  1  6
  2  3  1  0
  3  4  1  0
  4  9  1  0
  4  5  2  0
  5  6  1  0
  6  7  2  0
  8  7  1  0
  9  8  2  0
 10 18  1  0
 10  2  1  0
 11 10  2  0
 12 13  1  0
 13 14  2  0
 15 16  1  0
 15 13  1  0
 17 16  1  6
 17 18  1  0
 19 17  1  0
 19 20  2  0
 21 19  1  0
 22 21  1  0
 22 33  1  0
 22 23  1  6
 24 23  1  0
 25 24  2  0
 26 25  1  0
 27 26  1  0
 27 32  2  0
 28 27  1  0
 29 28  2  0
 29 30  1  0
 30 31  2  0
 31 32  1  0
 32 24  1  0
 33 34  1  0
 35 33  2  0
M  END
$$$$
