FQW.pdb
     RDKit          3D

 35 37  0  0  1  0  0  0  0  0999 V2000
    6.5373  -18.1552   20.4324 N   0  0  0  0  0  0  0  0  0  0  0  0
    7.1692  -16.8552   20.6279 C   0  0  1  0  0  0  0  0  0  0  0  0
    6.1315  -16.0012   21.3683 C   0  0  0  0  0  0  0  0  0  0  0  0
    6.7127  -14.6501   21.4807 C   0  0  0  0  0  0  0  0  0  0  0  0
    6.9343  -13.8608   20.3794 C   0  0  0  0  0  0  0  0  0  0  0  0
    7.4854  -12.5828   20.5096 C   0  0  0  0  0  0  0  0  0  0  0  0
    7.8170  -12.0902   21.7494 C   0  0  0  0  0  0  0  0  0  0  0  0
    7.5955  -12.8794   22.8548 C   0  0  0  0  0  0  0  0  0  0  0  0
    7.0456  -14.1543   22.7190 C   0  0  0  0  0  0  0  0  0  0  0  0
    8.3164  -17.0352   21.5477 C   0  0  0  0  0  0  0  0  0  0  0  0
    8.2261  -17.8242   22.5396 O   0  0  0  0  0  0  0  0  0  0  0  0
   14.0943  -14.9471   20.3177 N   0  0  0  0  0  0  0  0  0  0  0  0
   14.2641  -15.7583   21.4516 C   0  0  0  0  0  0  0  0  0  0  0  0
   15.4066  -15.9706   21.8981 O   0  0  0  0  0  0  0  0  0  0  0  0
   13.0887  -16.3556   22.1084 C   0  0  0  0  0  0  0  0  0  0  0  0
   11.8544  -15.9880   21.3240 C   0  0  0  0  0  0  0  0  0  0  0  0
   10.6721  -16.5741   22.0681 C   0  0  2  0  0  0  0  0  0  0  0  0
    9.5003  -16.3077   21.2868 N   0  0  0  0  0  0  0  0  0  0  0  0
   10.4992  -15.9925   23.4104 C   0  0  0  0  0  0  0  0  0  0  0  0
   10.6628  -14.7572   23.5466 O   0  0  0  0  0  0  0  0  0  0  0  0
   10.1592  -16.7822   24.5267 N   0  0  0  0  0  0  0  0  0  0  0  0
   10.3890  -16.2577   25.8695 C   0  0  1  0  0  0  0  0  0  0  0  0
    9.1270  -16.3577   26.6814 C   0  0  0  0  0  0  0  0  0  0  0  0
    8.0294  -15.5709   26.1066 C   0  0  0  0  0  0  0  0  0  0  0  0
    6.9114  -16.0759   25.4297 C   0  0  0  0  0  0  0  0  0  0  0  0
    6.1356  -15.0683   25.0142 N   0  0  0  0  0  0  0  0  0  0  0  0
    6.6650  -13.8954   25.3728 C   0  0  0  0  0  0  0  0  0  0  0  0
    6.2406  -12.5876   25.1958 C   0  0  0  0  0  0  0  0  0  0  0  0
    7.0353  -11.5949   25.7243 C   0  0  0  0  0  0  0  0  0  0  0  0
    8.2055  -11.8566   26.4040 C   0  0  0  0  0  0  0  0  0  0  0  0
    8.6039  -13.1567   26.5653 C   0  0  0  0  0  0  0  0  0  0  0  0
    7.8503  -14.1898   26.0579 C   0  0  0  0  0  0  0  0  0  0  0  0
   11.6098  -16.7756   26.4681 C   0  0  0  0  0  0  0  0  0  0  0  0
   12.1439  -16.3566   27.6760 O   0  0  0  0  0  0  0  0  0  0  0  0
   12.3018  -17.6907   25.8839 O   0  0  0  0  0  0  0  0  0  0  0  0
  2  1  1  1
  2  3  1  0
  3  4  1  0
  4  9  1  0
  4  5  2  0
  5  6  1  0
  6  7  2  0
  8  7  1  0
  9  8  2  0
 10 18  1  0
 10  2  1  0
 11 10  2  0
 12 13  1  0
 13 14  2  0
 15 16  1  0
 15 13  1  0
 17 16  1  6
 17 18  1  0
 19 17  1  0
 19 20  2  0
 21 19  1  0
 22 21  1  0
 22 33  1  0
 22 23  1  1
 24 23  1  0
 25 24  2  0
 26 25  1  0
 27 26  1  0
 27 32  2  0
 28 27  1  0
 29 28  2  0
 29 30  1  0
 30 31  2  0
 31 32  1  0
 32 24  1  0
 33 34  1  0
 35 33  2  0
M  END
$$$$
