FQW.pdb
     RDKit          3D

 35 37  0  0  1  0  0  0  0  0999 V2000
    6.2006  -17.2187   20.8779 N   0  0  0  0  0  0  0  0  0  0  0  0
    7.3929  -16.4391   21.1911 C   0  0  1  0  0  0  0  0  0  0  0  0
    6.8790  -15.1365   21.8183 C   0  0  0  0  0  0  0  0  0  0  0  0
    7.3883  -14.0412   20.9716 C   0  0  0  0  0  0  0  0  0  0  0  0
    8.3814  -13.1946   21.3986 C   0  0  0  0  0  0  0  0  0  0  0  0
    8.8494  -12.1639   20.5788 C   0  0  0  0  0  0  0  0  0  0  0  0
    8.3214  -11.9780   19.3233 C   0  0  0  0  0  0  0  0  0  0  0  0
    7.3261  -12.8254   18.8930 C   0  0  0  0  0  0  0  0  0  0  0  0
    6.8624  -13.8524   19.7155 C   0  0  0  0  0  0  0  0  0  0  0  0
    8.1485  -17.1570   22.2438 C   0  0  0  0  0  0  0  0  0  0  0  0
    7.5358  -17.7069   23.2118 O   0  0  0  0  0  0  0  0  0  0  0  0
   13.2894  -19.0974   20.3495 N   0  0  0  0  0  0  0  0  0  0  0  0
   11.9793  -19.4970   20.0390 C   0  0  0  0  0  0  0  0  0  0  0  0
   11.7338  -20.0189   18.9357 O   0  0  0  0  0  0  0  0  0  0  0  0
   10.8996  -19.2966   21.0208 C   0  0  0  0  0  0  0  0  0  0  0  0
   11.4702  -18.6139   22.2383 C   0  0  0  0  0  0  0  0  0  0  0  0
   10.2966  -18.0601   23.0201 C   0  0  2  0  0  0  0  0  0  0  0  0
    9.5572  -17.2084   22.1355 N   0  0  0  0  0  0  0  0  0  0  0  0
   10.7143  -17.2835   24.2001 C   0  0  0  0  0  0  0  0  0  0  0  0
   11.3040  -16.1932   24.0136 O   0  0  0  0  0  0  0  0  0  0  0  0
   10.4691  -17.7326   25.5128 N   0  0  0  0  0  0  0  0  0  0  0  0
   10.9632  -16.9480   26.6403 C   0  0  1  0  0  0  0  0  0  0  0  0
   10.5176  -15.5181   26.5038 C   0  0  0  0  0  0  0  0  0  0  0  0
    9.0558  -15.3887   26.4790 C   0  0  0  0  0  0  0  0  0  0  0  0
    8.1281  -16.3852   26.8097 C   0  0  0  0  0  0  0  0  0  0  0  0
    6.8835  -15.9252   26.6390 N   0  0  0  0  0  0  0  0  0  0  0  0
    6.9100  -14.6611   26.2077 C   0  0  0  0  0  0  0  0  0  0  0  0
    5.9030  -13.7574   25.9061 C   0  0  0  0  0  0  0  0  0  0  0  0
    6.2914  -12.5001   25.5004 C   0  0  0  0  0  0  0  0  0  0  0  0
    7.6133  -12.1257   25.3891 C   0  0  0  0  0  0  0  0  0  0  0  0
    8.5898  -13.0365   25.6921 C   0  0  0  0  0  0  0  0  0  0  0  0
    8.2609  -14.3079   26.1019 C   0  0  0  0  0  0  0  0  0  0  0  0
   10.7271  -17.6008   27.9190 C   0  0  0  0  0  0  0  0  0  0  0  0
   11.2126  -17.1599   29.1395 O   0  0  0  0  0  0  0  0  0  0  0  0
   10.0269  -18.6783   27.9974 O   0  0  0  0  0  0  0  0  0  0  0  0
  2  1  1  1
  2  3  1  0
  3  4  1  0
  4  9  1  0
  4  5  2  0
  5  6  1  0
  6  7  2  0
  8  7  1  0
  9  8  2  0
 10 18  1  0
 10  2  1  0
 11 10  2  0
 12 13  1  0
 13 14  2  0
 15 16  1  0
 15 13  1  0
 17 16  1  6
 17 18  1  0
 19 17  1  0
 19 20  2  0
 21 19  1  0
 22 21  1  0
 22 33  1  0
 22 23  1  1
 24 23  1  0
 25 24  2  0
 26 25  1  0
 27 26  1  0
 27 32  2  0
 28 27  1  0
 29 28  2  0
 29 30  1  0
 30 31  2  0
 31 32  1  0
 32 24  1  0
 33 34  1  0
 35 33  2  0
M  END
$$$$
