FQW.pdb
     RDKit          3D

 35 37  0  0  1  0  0  0  0  0999 V2000
    6.9441  -18.2413   20.5844 N   0  0  0  0  0  0  0  0  0  0  0  0
    7.5564  -16.9253   20.7280 C   0  0  1  0  0  0  0  0  0  0  0  0
    6.5519  -16.0904   21.5332 C   0  0  0  0  0  0  0  0  0  0  0  0
    6.9442  -14.6806   21.3483 C   0  0  0  0  0  0  0  0  0  0  0  0
    7.0925  -14.1255   20.1013 C   0  0  0  0  0  0  0  0  0  0  0  0
    7.4642  -12.7865   19.9497 C   0  0  0  0  0  0  0  0  0  0  0  0
    7.6890  -11.9968   21.0522 C   0  0  0  0  0  0  0  0  0  0  0  0
    7.5407  -12.5510   22.3032 C   0  0  0  0  0  0  0  0  0  0  0  0
    7.1699  -13.8879   22.4487 C   0  0  0  0  0  0  0  0  0  0  0  0
    8.7683  -17.0710   21.5674 C   0  0  0  0  0  0  0  0  0  0  0  0
    8.9512  -18.1251   22.2531 O   0  0  0  0  0  0  0  0  0  0  0  0
   14.0563  -13.9203   20.3354 N   0  0  0  0  0  0  0  0  0  0  0  0
   13.5309  -14.9267   19.5087 C   0  0  0  0  0  0  0  0  0  0  0  0
   14.0868  -15.1961   18.4278 O   0  0  0  0  0  0  0  0  0  0  0  0
   12.3228  -15.6601   19.9239 C   0  0  0  0  0  0  0  0  0  0  0  0
   11.9123  -15.1841   21.2946 C   0  0  0  0  0  0  0  0  0  0  0  0
   11.0705  -16.2852   21.9065 C   0  0  2  0  0  0  0  0  0  0  0  0
    9.7025  -16.0099   21.5789 N   0  0  0  0  0  0  0  0  0  0  0  0
   11.2099  -16.3612   23.3710 C   0  0  0  0  0  0  0  0  0  0  0  0
   12.3094  -16.7347   23.8431 O   0  0  0  0  0  0  0  0  0  0  0  0
   10.1509  -16.0281   24.2387 N   0  0  0  0  0  0  0  0  0  0  0  0
   10.2967  -16.2726   25.6705 C   0  0  1  0  0  0  0  0  0  0  0  0
    8.9859  -16.7310   26.2479 C   0  0  0  0  0  0  0  0  0  0  0  0
    7.8999  -15.7768   25.9945 C   0  0  0  0  0  0  0  0  0  0  0  0
    6.6492  -16.0713   25.4359 C   0  0  0  0  0  0  0  0  0  0  0  0
    5.9255  -14.9520   25.3208 N   0  0  0  0  0  0  0  0  0  0  0  0
    6.6171  -13.9025   25.7736 C   0  0  0  0  0  0  0  0  0  0  0  0
    6.3046  -12.5563   25.8820 C   0  0  0  0  0  0  0  0  0  0  0  0
    7.2642  -11.7331   26.4278 C   0  0  0  0  0  0  0  0  0  0  0  0
    8.4898  -12.1957   26.8565 C   0  0  0  0  0  0  0  0  0  0  0  0
    8.7752  -13.5297   26.7382 C   0  0  0  0  0  0  0  0  0  0  0  0
    7.8551  -14.3992   26.1997 C   0  0  0  0  0  0  0  0  0  0  0  0
   11.4764  -17.0650   25.9828 C   0  0  0  0  0  0  0  0  0  0  0  0
   11.7516  -18.3206   25.4656 O   0  0  0  0  0  0  0  0  0  0  0  0
   12.3728  -16.6316   26.7988 O   0  0  0  0  0  0  0  0  0  0  0  0
  2  1  1  1
  2  3  1  0
  3  4  1  0
  4  9  1  0
  4  5  2  0
  5  6  1  0
  6  7  2  0
  8  7  1  0
  9  8  2  0
 10 18  1  0
 10  2  1  0
 11 10  2  0
 12 13  1  0
 13 14  2  0
 15 16  1  0
 15 13  1  0
 17 16  1  1
 17 18  1  0
 19 17  1  0
 19 20  2  0
 21 19  1  0
 22 21  1  0
 22 33  1  0
 22 23  1  6
 24 23  1  0
 25 24  2  0
 26 25  1  0
 27 26  1  0
 27 32  2  0
 28 27  1  0
 29 28  2  0
 29 30  1  0
 30 31  2  0
 31 32  1  0
 32 24  1  0
 33 34  1  0
 35 33  2  0
M  END
$$$$
