FQW.pdb
     RDKit          3D

 35 37  0  0  1  0  0  0  0  0999 V2000
    7.9862  -17.4531   18.0196 N   0  0  0  0  0  0  0  0  0  0  0  0
    8.0767  -16.5509   19.1621 C   0  0  1  0  0  0  0  0  0  0  0  0
    6.8897  -15.5888   19.0210 C   0  0  0  0  0  0  0  0  0  0  0  0
    7.3554  -14.2818   19.5216 C   0  0  0  0  0  0  0  0  0  0  0  0
    7.9236  -13.3469   18.6921 C   0  0  0  0  0  0  0  0  0  0  0  0
    8.3570  -12.1140   19.1881 C   0  0  0  0  0  0  0  0  0  0  0  0
    8.2213  -11.8134   20.5226 C   0  0  0  0  0  0  0  0  0  0  0  0
    7.6518  -12.7489   21.3560 C   0  0  0  0  0  0  0  0  0  0  0  0
    7.2213  -13.9778   20.8557 C   0  0  0  0  0  0  0  0  0  0  0  0
    7.8474  -17.3428   20.3928 C   0  0  0  0  0  0  0  0  0  0  0  0
    6.8809  -18.1654   20.4559 O   0  0  0  0  0  0  0  0  0  0  0  0
   10.1892  -21.8047   21.1357 N   0  0  0  0  0  0  0  0  0  0  0  0
    9.8805  -21.6984   22.5017 C   0  0  0  0  0  0  0  0  0  0  0  0
   10.0063  -22.6884   23.2459 O   0  0  0  0  0  0  0  0  0  0  0  0
    9.4082  -20.4150   23.0488 C   0  0  0  0  0  0  0  0  0  0  0  0
    9.2750  -19.4246   21.9195 C   0  0  0  0  0  0  0  0  0  0  0  0
    8.7701  -18.1322   22.5278 C   0  0  2  0  0  0  0  0  0  0  0  0
    8.7300  -17.1539   21.4810 N   0  0  0  0  0  0  0  0  0  0  0  0
    9.6329  -17.6397   23.6154 C   0  0  0  0  0  0  0  0  0  0  0  0
   10.6980  -17.0544   23.3081 O   0  0  0  0  0  0  0  0  0  0  0  0
    9.2922  -17.8094   24.9720 N   0  0  0  0  0  0  0  0  0  0  0  0
   10.1110  -17.1728   25.9992 C   0  0  1  0  0  0  0  0  0  0  0  0
    9.9116  -15.6826   25.9627 C   0  0  0  0  0  0  0  0  0  0  0  0
    8.5073  -15.3022   26.1559 C   0  0  0  0  0  0  0  0  0  0  0  0
    7.4025  -16.1636   26.1309 C   0  0  0  0  0  0  0  0  0  0  0  0
    6.2752  -15.4658   26.3099 N   0  0  0  0  0  0  0  0  0  0  0  0
    6.5508  -14.1670   26.4574 C   0  0  0  0  0  0  0  0  0  0  0  0
    5.7440  -13.0621   26.6815 C   0  0  0  0  0  0  0  0  0  0  0  0
    6.3730  -11.8437   26.8094 C   0  0  0  0  0  0  0  0  0  0  0  0
    7.7406  -11.6959   26.7236 C   0  0  0  0  0  0  0  0  0  0  0  0
    8.5161  -12.8022   26.5011 C   0  0  0  0  0  0  0  0  0  0  0  0
    7.9427  -14.0453   26.3644 C   0  0  0  0  0  0  0  0  0  0  0  0
    9.9926  -17.8299   27.2920 C   0  0  0  0  0  0  0  0  0  0  0  0
   10.7360  -17.5123   28.4173 O   0  0  0  0  0  0  0  0  0  0  0  0
    9.1577  -18.7925   27.4758 O   0  0  0  0  0  0  0  0  0  0  0  0
  2  1  1  6
  2  3  1  0
  3  4  1  0
  4  9  1  0
  4  5  2  0
  5  6  1  0
  6  7  2  0
  8  7  1  0
  9  8  2  0
 10 18  1  0
 10  2  1  0
 11 10  2  0
 12 13  1  0
 13 14  2  0
 15 16  1  0
 15 13  1  0
 17 16  1  6
 17 18  1  0
 19 17  1  0
 19 20  2  0
 21 19  1  0
 22 21  1  0
 22 33  1  0
 22 23  1  1
 24 23  1  0
 25 24  2  0
 26 25  1  0
 27 26  1  0
 27 32  2  0
 28 27  1  0
 29 28  2  0
 29 30  1  0
 30 31  2  0
 31 32  1  0
 32 24  1  0
 33 34  1  0
 35 33  2  0
M  END
$$$$
