FQW.pdb
     RDKit          3D

 35 37  0  0  1  0  0  0  0  0999 V2000
    8.5973  -15.7891   16.8613 N   0  0  0  0  0  0  0  0  0  0  0  0
    8.8548  -15.0250   18.0768 C   0  0  1  0  0  0  0  0  0  0  0  0
    7.4728  -14.6323   18.6157 C   0  0  0  0  0  0  0  0  0  0  0  0
    7.7155  -13.7291   19.7564 C   0  0  0  0  0  0  0  0  0  0  0  0
    8.3421  -12.5171   19.6027 C   0  0  0  0  0  0  0  0  0  0  0  0
    8.5608  -11.6766   20.6979 C   0  0  0  0  0  0  0  0  0  0  0  0
    8.1501  -12.0499   21.9555 C   0  0  0  0  0  0  0  0  0  0  0  0
    7.5216  -13.2642   22.1120 C   0  0  0  0  0  0  0  0  0  0  0  0
    7.3062  -14.0993   21.0155 C   0  0  0  0  0  0  0  0  0  0  0  0
    9.4640  -15.9367   19.0727 C   0  0  0  0  0  0  0  0  0  0  0  0
    9.4997  -17.1889   18.8594 O   0  0  0  0  0  0  0  0  0  0  0  0
   14.3736  -16.4890   18.7667 N   0  0  0  0  0  0  0  0  0  0  0  0
   13.9261  -15.1970   19.0876 C   0  0  0  0  0  0  0  0  0  0  0  0
   14.5795  -14.2037   18.7185 O   0  0  0  0  0  0  0  0  0  0  0  0
   12.6845  -15.0221   19.8605 C   0  0  0  0  0  0  0  0  0  0  0  0
   12.1487  -16.3812   20.2339 C   0  0  0  0  0  0  0  0  0  0  0  0
   10.8976  -16.1480   21.0559 C   0  0  2  0  0  0  0  0  0  0  0  0
    9.9976  -15.3724   20.2542 N   0  0  0  0  0  0  0  0  0  0  0  0
   11.1679  -15.4274   22.3119 C   0  0  0  0  0  0  0  0  0  0  0  0
   11.3408  -14.1870   22.2580 O   0  0  0  0  0  0  0  0  0  0  0  0
   11.2349  -16.0915   23.5527 N   0  0  0  0  0  0  0  0  0  0  0  0
   10.0898  -16.0347   24.4563 C   0  0  1  0  0  0  0  0  0  0  0  0
    9.1420  -14.9536   24.0147 C   0  0  0  0  0  0  0  0  0  0  0  0
    7.9929  -14.8156   24.9173 C   0  0  0  0  0  0  0  0  0  0  0  0
    7.1876  -15.8548   25.4016 C   0  0  0  0  0  0  0  0  0  0  0  0
    6.2135  -15.3569   26.1715 N   0  0  0  0  0  0  0  0  0  0  0  0
    6.3099  -14.0262   26.2410 C   0  0  0  0  0  0  0  0  0  0  0  0
    5.5632  -13.0709   26.9129 C   0  0  0  0  0  0  0  0  0  0  0  0
    5.9611  -11.7591   26.7811 C   0  0  0  0  0  0  0  0  0  0  0  0
    7.0481  -11.3804   26.0230 C   0  0  0  0  0  0  0  0  0  0  0  0
    7.7695  -12.3425   25.3681 C   0  0  0  0  0  0  0  0  0  0  0  0
    7.4180  -13.6692   25.4626 C   0  0  0  0  0  0  0  0  0  0  0  0
    9.5248  -17.3489   24.7225 C   0  0  0  0  0  0  0  0  0  0  0  0
    9.1614  -17.8204   25.9736 O   0  0  0  0  0  0  0  0  0  0  0  0
    9.3247  -18.1929   23.7711 O   0  0  0  0  0  0  0  0  0  0  0  0
  2  1  1  6
  2  3  1  0
  3  4  1  0
  4  9  1  0
  4  5  2  0
  5  6  1  0
  6  7  2  0
  8  7  1  0
  9  8  2  0
 10 18  1  0
 10  2  1  0
 11 10  2  0
 12 13  1  0
 13 14  2  0
 15 16  1  0
 15 13  1  0
 17 16  1  6
 17 18  1  0
 19 17  1  0
 19 20  2  0
 21 19  1  0
 22 21  1  0
 22 33  1  0
 22 23  1  6
 24 23  1  0
 25 24  2  0
 26 25  1  0
 27 26  1  0
 27 32  2  0
 28 27  1  0
 29 28  2  0
 29 30  1  0
 30 31  2  0
 31 32  1  0
 32 24  1  0
 33 34  1  0
 35 33  2  0
M  END
$$$$
