FQW.pdb
     RDKit          3D

 35 37  0  0  1  0  0  0  0  0999 V2000
    7.4903  -17.5974   18.4478 N   0  0  0  0  0  0  0  0  0  0  0  0
    7.9938  -16.5507   19.3300 C   0  0  1  0  0  0  0  0  0  0  0  0
    7.0938  -15.3336   19.0789 C   0  0  0  0  0  0  0  0  0  0  0  0
    7.5221  -14.2980   20.0381 C   0  0  0  0  0  0  0  0  0  0  0  0
    8.3559  -13.2701   19.6730 C   0  0  0  0  0  0  0  0  0  0  0  0
    8.7482  -12.2990   20.5987 C   0  0  0  0  0  0  0  0  0  0  0  0
    8.3038  -12.3555   21.8983 C   0  0  0  0  0  0  0  0  0  0  0  0
    7.4677  -13.3848   22.2665 C   0  0  0  0  0  0  0  0  0  0  0  0
    7.0796  -14.3515   21.3386 C   0  0  0  0  0  0  0  0  0  0  0  0
    7.7624  -16.9779   20.7294 C   0  0  0  0  0  0  0  0  0  0  0  0
    6.7013  -17.6028   21.0426 O   0  0  0  0  0  0  0  0  0  0  0  0
   11.4003  -21.2347   20.3977 N   0  0  0  0  0  0  0  0  0  0  0  0
   12.0073  -20.1018   20.9641 C   0  0  0  0  0  0  0  0  0  0  0  0
   13.1487  -19.7619   20.6015 O   0  0  0  0  0  0  0  0  0  0  0  0
   11.2906  -19.3199   21.9861 C   0  0  0  0  0  0  0  0  0  0  0  0
   10.4872  -18.2439   21.3002 C   0  0  0  0  0  0  0  0  0  0  0  0
    9.4804  -17.7368   22.3123 C   0  0  2  0  0  0  0  0  0  0  0  0
    8.7509  -16.6700   21.6923 N   0  0  0  0  0  0  0  0  0  0  0  0
   10.1144  -17.2354   23.5438 C   0  0  0  0  0  0  0  0  0  0  0  0
   10.8276  -18.0247   24.2068 O   0  0  0  0  0  0  0  0  0  0  0  0
    9.9392  -15.9089   23.9854 N   0  0  0  0  0  0  0  0  0  0  0  0
   10.5287  -15.4949   25.2551 C   0  0  1  0  0  0  0  0  0  0  0  0
    9.6246  -15.8863   26.3915 C   0  0  0  0  0  0  0  0  0  0  0  0
    8.2544  -15.3926   26.2104 C   0  0  0  0  0  0  0  0  0  0  0  0
    7.1359  -16.1580   25.8555 C   0  0  0  0  0  0  0  0  0  0  0  0
    6.0595  -15.3710   25.7474 N   0  0  0  0  0  0  0  0  0  0  0  0
    6.3830  -14.1020   26.0113 C   0  0  0  0  0  0  0  0  0  0  0  0
    5.6328  -12.9368   26.0484 C   0  0  0  0  0  0  0  0  0  0  0  0
    6.2943  -11.7772   26.3863 C   0  0  0  0  0  0  0  0  0  0  0  0
    7.6406  -11.7431   26.6800 C   0  0  0  0  0  0  0  0  0  0  0  0
    8.3602  -12.9072   26.6359 C   0  0  0  0  0  0  0  0  0  0  0  0
    7.7524  -14.0959   26.3037 C   0  0  0  0  0  0  0  0  0  0  0  0
   11.9325  -15.8619   25.3632 C   0  0  0  0  0  0  0  0  0  0  0  0
   12.8347  -15.3041   26.2546 O   0  0  0  0  0  0  0  0  0  0  0  0
   12.4461  -16.7625   24.5998 O   0  0  0  0  0  0  0  0  0  0  0  0
  2  1  1  6
  2  3  1  0
  3  4  1  0
  4  9  1  0
  4  5  2  0
  5  6  1  0
  6  7  2  0
  8  7  1  0
  9  8  2  0
 10 18  1  0
 10  2  1  0
 11 10  2  0
 12 13  1  0
 13 14  2  0
 15 16  1  0
 15 13  1  0
 17 16  1  6
 17 18  1  0
 19 17  1  0
 19 20  2  0
 21 19  1  0
 22 21  1  0
 22 33  1  0
 22 23  1  1
 24 23  1  0
 25 24  2  0
 26 25  1  0
 27 26  1  0
 27 32  2  0
 28 27  1  0
 29 28  2  0
 29 30  1  0
 30 31  2  0
 31 32  1  0
 32 24  1  0
 33 34  1  0
 35 33  2  0
M  END
$$$$
