FQW.pdb
     RDKit          3D

 35 37  0  0  1  0  0  0  0  0999 V2000
    6.1670  -18.0437   19.9813 N   0  0  0  0  0  0  0  0  0  0  0  0
    7.0626  -16.9880   20.4407 C   0  0  1  0  0  0  0  0  0  0  0  0
    6.1953  -16.0583   21.2997 C   0  0  0  0  0  0  0  0  0  0  0  0
    6.9478  -14.7965   21.4318 C   0  0  0  0  0  0  0  0  0  0  0  0
    7.3904  -14.3387   22.6482 C   0  0  0  0  0  0  0  0  0  0  0  0
    8.1028  -13.1404   22.7496 C   0  0  0  0  0  0  0  0  0  0  0  0
    8.3749  -12.3944   21.6275 C   0  0  0  0  0  0  0  0  0  0  0  0
    7.9324  -12.8514   20.4071 C   0  0  0  0  0  0  0  0  0  0  0  0
    7.2216  -14.0479   20.3116 C   0  0  0  0  0  0  0  0  0  0  0  0
    8.0672  -17.5975   21.3427 C   0  0  0  0  0  0  0  0  0  0  0  0
    7.7673  -18.6134   22.0445 O   0  0  0  0  0  0  0  0  0  0  0  0
   13.4194  -18.9349   19.8473 N   0  0  0  0  0  0  0  0  0  0  0  0
   12.8842  -17.6660   19.5715 C   0  0  0  0  0  0  0  0  0  0  0  0
   13.3380  -16.9920   18.6284 O   0  0  0  0  0  0  0  0  0  0  0  0
   11.7874  -17.1371   20.4002 C   0  0  0  0  0  0  0  0  0  0  0  0
   11.4385  -18.1577   21.4540 C   0  0  0  0  0  0  0  0  0  0  0  0
   10.3308  -17.5573   22.2953 C   0  0  2  0  0  0  0  0  0  0  0  0
    9.3552  -17.0166   21.3951 N   0  0  0  0  0  0  0  0  0  0  0  0
   10.8096  -16.4871   23.1871 C   0  0  0  0  0  0  0  0  0  0  0  0
   12.0005  -16.1117   23.0762 O   0  0  0  0  0  0  0  0  0  0  0  0
    9.9713  -15.8857   24.1466 N   0  0  0  0  0  0  0  0  0  0  0  0
   10.2897  -16.0294   25.5640 C   0  0  1  0  0  0  0  0  0  0  0  0
    9.0753  -16.4990   26.3168 C   0  0  0  0  0  0  0  0  0  0  0  0
    7.8933  -15.6742   26.0402 C   0  0  0  0  0  0  0  0  0  0  0  0
    6.6370  -16.1357   25.6259 C   0  0  0  0  0  0  0  0  0  0  0  0
    5.8101  -15.1012   25.4365 N   0  0  0  0  0  0  0  0  0  0  0  0
    6.4361  -13.9511   25.7010 C   0  0  0  0  0  0  0  0  0  0  0  0
    6.0135  -12.6311   25.6716 C   0  0  0  0  0  0  0  0  0  0  0  0
    6.9326  -11.6716   26.0333 C   0  0  0  0  0  0  0  0  0  0  0  0
    8.2220  -11.9770   26.4126 C   0  0  0  0  0  0  0  0  0  0  0  0
    8.6160  -13.2882   26.4330 C   0  0  0  0  0  0  0  0  0  0  0  0
    7.7408  -14.2896   26.0808 C   0  0  0  0  0  0  0  0  0  0  0  0
   11.5324  -16.7532   25.7849 C   0  0  0  0  0  0  0  0  0  0  0  0
   11.9767  -17.8224   25.0240 O   0  0  0  0  0  0  0  0  0  0  0  0
   12.3269  -16.4343   26.7464 O   0  0  0  0  0  0  0  0  0  0  0  0
  2  1  1  1
  2  3  1  0
  3  4  1  0
  4  9  1  0
  4  5  2  0
  5  6  1  0
  6  7  2  0
  8  7  1  0
  9  8  2  0
 10 18  1  0
 10  2  1  0
 11 10  2  0
 12 13  1  0
 13 14  2  0
 15 16  1  0
 15 13  1  0
 17 16  1  6
 17 18  1  0
 19 17  1  0
 19 20  2  0
 21 19  1  0
 22 21  1  0
 22 33  1  0
 22 23  1  1
 24 23  1  0
 25 24  2  0
 26 25  1  0
 27 26  1  0
 27 32  2  0
 28 27  1  0
 29 28  2  0
 29 30  1  0
 30 31  2  0
 31 32  1  0
 32 24  1  0
 33 34  1  0
 35 33  2  0
M  END
$$$$
