FQW.pdb
     RDKit          3D

 35 37  0  0  1  0  0  0  0  0999 V2000
    7.0654  -17.7492   19.2134 N   0  0  0  0  0  0  0  0  0  0  0  0
    7.6218  -16.4745   19.6530 C   0  0  1  0  0  0  0  0  0  0  0  0
    6.6849  -15.9780   20.7622 C   0  0  0  0  0  0  0  0  0  0  0  0
    7.3237  -14.7788   21.3364 C   0  0  0  0  0  0  0  0  0  0  0  0
    7.5190  -14.6366   22.6880 C   0  0  0  0  0  0  0  0  0  0  0  0
    8.1275  -13.4917   23.2101 C   0  0  0  0  0  0  0  0  0  0  0  0
    8.5440  -12.4819   22.3756 C   0  0  0  0  0  0  0  0  0  0  0  0
    8.3495  -12.6223   21.0204 C   0  0  0  0  0  0  0  0  0  0  0  0
    7.7413  -13.7669   20.5047 C   0  0  0  0  0  0  0  0  0  0  0  0
    8.9358  -16.7393   20.2836 C   0  0  0  0  0  0  0  0  0  0  0  0
    9.1160  -17.7904   20.9746 O   0  0  0  0  0  0  0  0  0  0  0  0
   14.1577  -13.6887   18.5703 N   0  0  0  0  0  0  0  0  0  0  0  0
   14.5907  -14.8675   19.1991 C   0  0  0  0  0  0  0  0  0  0  0  0
   15.7693  -15.2458   19.0660 O   0  0  0  0  0  0  0  0  0  0  0  0
   13.6478  -15.6526   20.0140 C   0  0  0  0  0  0  0  0  0  0  0  0
   12.2418  -15.3384   19.5685 C   0  0  0  0  0  0  0  0  0  0  0  0
   11.3119  -16.1414   20.4549 C   0  0  2  0  0  0  0  0  0  0  0  0
    9.9694  -15.7938   20.0924 N   0  0  0  0  0  0  0  0  0  0  0  0
   11.5115  -15.8645   21.8880 C   0  0  0  0  0  0  0  0  0  0  0  0
   11.7391  -14.6823   22.2370 O   0  0  0  0  0  0  0  0  0  0  0  0
   11.4528  -16.8836   22.8592 N   0  0  0  0  0  0  0  0  0  0  0  0
   10.8818  -16.5892   24.1700 C   0  0  1  0  0  0  0  0  0  0  0  0
    9.5954  -15.8269   24.0090 C   0  0  0  0  0  0  0  0  0  0  0  0
    8.9213  -15.5919   25.2914 C   0  0  0  0  0  0  0  0  0  0  0  0
    7.8095  -16.2873   25.7849 C   0  0  0  0  0  0  0  0  0  0  0  0
    7.4429  -15.7816   26.9679 N   0  0  0  0  0  0  0  0  0  0  0  0
    8.2485  -14.7731   27.3124 C   0  0  0  0  0  0  0  0  0  0  0  0
    8.2918  -13.9541   28.4300 C   0  0  0  0  0  0  0  0  0  0  0  0
    9.2911  -13.0076   28.4738 C   0  0  0  0  0  0  0  0  0  0  0  0
   10.2217  -12.8560   27.4684 C   0  0  0  0  0  0  0  0  0  0  0  0
   10.1576  -13.6767   26.3742 C   0  0  0  0  0  0  0  0  0  0  0  0
    9.1803  -14.6399   26.2755 C   0  0  0  0  0  0  0  0  0  0  0  0
   10.8625  -17.7530   25.0430 C   0  0  0  0  0  0  0  0  0  0  0  0
   10.6571  -19.0580   24.6253 O   0  0  0  0  0  0  0  0  0  0  0  0
   11.0368  -17.6357   26.3132 O   0  0  0  0  0  0  0  0  0  0  0  0
  2  1  1  1
  2  3  1  0
  3  4  1  0
  4  9  1  0
  4  5  2  0
  5  6  1  0
  6  7  2  0
  8  7  1  0
  9  8  2  0
 10 18  1  0
 10  2  1  0
 11 10  2  0
 12 13  1  0
 13 14  2  0
 15 16  1  0
 15 13  1  0
 17 16  1  6
 17 18  1  0
 19 17  1  0
 19 20  2  0
 21 19  1  0
 22 21  1  0
 22 33  1  0
 22 23  1  6
 24 23  1  0
 25 24  2  0
 26 25  1  0
 27 26  1  0
 27 32  2  0
 28 27  1  0
 29 28  2  0
 29 30  1  0
 30 31  2  0
 31 32  1  0
 32 24  1  0
 33 34  1  0
 35 33  2  0
M  END
$$$$
