FQW.pdb
     RDKit          3D

 35 37  0  0  1  0  0  0  0  0999 V2000
    6.4773  -18.0244   20.4999 N   0  0  0  0  0  0  0  0  0  0  0  0
    7.7394  -17.4595   20.9642 C   0  0  1  0  0  0  0  0  0  0  0  0
    7.3887  -16.6436   22.2155 C   0  0  0  0  0  0  0  0  0  0  0  0
    7.5717  -15.2264   21.8494 C   0  0  0  0  0  0  0  0  0  0  0  0
    6.5404  -14.4637   21.3598 C   0  0  0  0  0  0  0  0  0  0  0  0
    6.7364  -13.1220   21.0202 C   0  0  0  0  0  0  0  0  0  0  0  0
    7.9718  -12.5385   21.1713 C   0  0  0  0  0  0  0  0  0  0  0  0
    9.0071  -13.3010   21.6621 C   0  0  0  0  0  0  0  0  0  0  0  0
    8.8060  -14.6396   21.9991 C   0  0  0  0  0  0  0  0  0  0  0  0
    8.6081  -18.5753   21.4052 C   0  0  0  0  0  0  0  0  0  0  0  0
    8.6824  -19.6413   20.7176 O   0  0  0  0  0  0  0  0  0  0  0  0
   11.5471  -16.2638   18.5603 N   0  0  0  0  0  0  0  0  0  0  0  0
   11.8624  -16.8162   19.8125 C   0  0  0  0  0  0  0  0  0  0  0  0
   12.3811  -17.9458   19.8804 O   0  0  0  0  0  0  0  0  0  0  0  0
   11.5775  -16.0562   21.0417 C   0  0  0  0  0  0  0  0  0  0  0  0
   10.2247  -16.4682   21.5654 C   0  0  0  0  0  0  0  0  0  0  0  0
   10.4678  -17.5279   22.6205 C   0  0  2  0  0  0  0  0  0  0  0  0
    9.3423  -18.4152   22.6028 N   0  0  0  0  0  0  0  0  0  0  0  0
   10.6145  -16.9619   23.9726 C   0  0  0  0  0  0  0  0  0  0  0  0
   11.5186  -16.1155   24.1659 O   0  0  0  0  0  0  0  0  0  0  0  0
    9.7736  -17.3451   25.0363 N   0  0  0  0  0  0  0  0  0  0  0  0
   10.1015  -16.9219   26.3943 C   0  0  1  0  0  0  0  0  0  0  0  0
    8.8477  -16.5260   27.1243 C   0  0  0  0  0  0  0  0  0  0  0  0
    7.9505  -15.7143   26.2935 C   0  0  0  0  0  0  0  0  0  0  0  0
    7.0154  -16.1944   25.3671 C   0  0  0  0  0  0  0  0  0  0  0  0
    6.3985  -15.1696   24.7679 N   0  0  0  0  0  0  0  0  0  0  0  0
    6.8632  -14.0084   25.2374 C   0  0  0  0  0  0  0  0  0  0  0  0
    6.5387  -12.6909   24.9535 C   0  0  0  0  0  0  0  0  0  0  0  0
    7.2130  -11.7155   25.6537 C   0  0  0  0  0  0  0  0  0  0  0  0
    8.1723  -12.0032   26.6006 C   0  0  0  0  0  0  0  0  0  0  0  0
    8.4758  -13.3125   26.8629 C   0  0  0  0  0  0  0  0  0  0  0  0
    7.8349  -14.3292   26.1934 C   0  0  0  0  0  0  0  0  0  0  0  0
   10.9989  -17.8500   27.0654 C   0  0  0  0  0  0  0  0  0  0  0  0
   11.5082  -17.6817   28.3429 O   0  0  0  0  0  0  0  0  0  0  0  0
   11.3966  -18.9286   26.4857 O   0  0  0  0  0  0  0  0  0  0  0  0
  2  1  1  1
  2  3  1  0
  3  4  1  0
  4  9  1  0
  4  5  2  0
  5  6  1  0
  6  7  2  0
  8  7  1  0
  9  8  2  0
 10 18  1  0
 10  2  1  0
 11 10  2  0
 12 13  1  0
 13 14  2  0
 15 16  1  0
 15 13  1  0
 17 16  1  6
 17 18  1  0
 19 17  1  0
 19 20  2  0
 21 19  1  0
 22 21  1  0
 22 33  1  0
 22 23  1  1
 24 23  1  0
 25 24  2  0
 26 25  1  0
 27 26  1  0
 27 32  2  0
 28 27  1  0
 29 28  2  0
 29 30  1  0
 30 31  2  0
 31 32  1  0
 32 24  1  0
 33 34  1  0
 35 33  2  0
M  END
$$$$
