FQW.pdb
     RDKit          3D

 35 37  0  0  1  0  0  0  0  0999 V2000
    6.9122  -18.3741   20.7339 N   0  0  0  0  0  0  0  0  0  0  0  0
    7.6187  -17.1038   20.8546 C   0  0  1  0  0  0  0  0  0  0  0  0
    6.8534  -16.3077   21.9199 C   0  0  0  0  0  0  0  0  0  0  0  0
    7.3380  -14.9177   21.8244 C   0  0  0  0  0  0  0  0  0  0  0  0
    8.1118  -14.3493   22.8058 C   0  0  0  0  0  0  0  0  0  0  0  0
    8.5609  -13.0304   22.6939 C   0  0  0  0  0  0  0  0  0  0  0  0
    8.2345  -12.2744   21.5932 C   0  0  0  0  0  0  0  0  0  0  0  0
    7.4592  -12.8421   20.6080 C   0  0  0  0  0  0  0  0  0  0  0  0
    7.0134  -14.1587   20.7251 C   0  0  0  0  0  0  0  0  0  0  0  0
    8.9665  -17.3776   21.4050 C   0  0  0  0  0  0  0  0  0  0  0  0
    9.1989  -18.4631   22.0234 O   0  0  0  0  0  0  0  0  0  0  0  0
   12.3429  -14.2365   17.9511 N   0  0  0  0  0  0  0  0  0  0  0  0
   13.0845  -14.9685   18.8928 C   0  0  0  0  0  0  0  0  0  0  0  0
   14.2776  -14.6817   19.1028 O   0  0  0  0  0  0  0  0  0  0  0  0
   12.4472  -16.0740   19.6287 C   0  0  0  0  0  0  0  0  0  0  0  0
   12.2171  -15.6401   21.0544 C   0  0  0  0  0  0  0  0  0  0  0  0
   11.3022  -16.6708   21.6835 C   0  0  2  0  0  0  0  0  0  0  0  0
    9.9725  -16.4015   21.2209 N   0  0  0  0  0  0  0  0  0  0  0  0
   11.3193  -16.6240   23.1557 C   0  0  0  0  0  0  0  0  0  0  0  0
   12.4188  -16.7667   23.7404 O   0  0  0  0  0  0  0  0  0  0  0  0
   10.1451  -16.4254   23.9088 N   0  0  0  0  0  0  0  0  0  0  0  0
   10.2514  -16.1497   25.3384 C   0  0  1  0  0  0  0  0  0  0  0  0
    9.8178  -14.7377   25.6214 C   0  0  0  0  0  0  0  0  0  0  0  0
    8.3596  -14.6128   25.7316 C   0  0  0  0  0  0  0  0  0  0  0  0
    7.4299  -15.6595   25.6770 C   0  0  0  0  0  0  0  0  0  0  0  0
    6.1878  -15.1728   25.7774 N   0  0  0  0  0  0  0  0  0  0  0  0
    6.2180  -13.8427   25.8989 C   0  0  0  0  0  0  0  0  0  0  0  0
    5.2155  -12.8969   26.0481 C   0  0  0  0  0  0  0  0  0  0  0  0
    5.6083  -11.5827   26.1704 C   0  0  0  0  0  0  0  0  0  0  0  0
    6.9301  -11.1926   26.1495 C   0  0  0  0  0  0  0  0  0  0  0  0
    7.9020  -12.1455   26.0003 C   0  0  0  0  0  0  0  0  0  0  0  0
    7.5687  -13.4741   25.8728 C   0  0  0  0  0  0  0  0  0  0  0  0
    9.6658  -17.2031   26.1536 C   0  0  0  0  0  0  0  0  0  0  0  0
    8.9900  -18.3079   25.6613 O   0  0  0  0  0  0  0  0  0  0  0  0
    9.7379  -17.1686   27.4385 O   0  0  0  0  0  0  0  0  0  0  0  0
  2  1  1  1
  2  3  1  0
  3  4  1  0
  4  9  1  0
  4  5  2  0
  5  6  1  0
  6  7  2  0
  8  7  1  0
  9  8  2  0
 10 18  1  0
 10  2  1  0
 11 10  2  0
 12 13  1  0
 13 14  2  0
 15 16  1  0
 15 13  1  0
 17 16  1  6
 17 18  1  0
 19 17  1  0
 19 20  2  0
 21 19  1  0
 22 21  1  0
 22 33  1  0
 22 23  1  6
 24 23  1  0
 25 24  2  0
 26 25  1  0
 27 26  1  0
 27 32  2  0
 28 27  1  0
 29 28  2  0
 29 30  1  0
 30 31  2  0
 31 32  1  0
 32 24  1  0
 33 34  1  0
 35 33  2  0
M  END
$$$$
