FQW.pdb
     RDKit          3D

 35 37  0  0  1  0  0  0  0  0999 V2000
    7.6795  -17.2490   17.6163 N   0  0  0  0  0  0  0  0  0  0  0  0
    8.0584  -16.3035   18.6604 C   0  0  1  0  0  0  0  0  0  0  0  0
    6.7499  -15.6370   19.1056 C   0  0  0  0  0  0  0  0  0  0  0  0
    7.1131  -14.6858   20.1729 C   0  0  0  0  0  0  0  0  0  0  0  0
    6.9071  -14.9701   21.5002 C   0  0  0  0  0  0  0  0  0  0  0  0
    7.2600  -14.0539   22.4951 C   0  0  0  0  0  0  0  0  0  0  0  0
    7.8228  -12.8452   22.1611 C   0  0  0  0  0  0  0  0  0  0  0  0
    8.0305  -12.5580   20.8313 C   0  0  0  0  0  0  0  0  0  0  0  0
    7.6761  -13.4759   19.8424 C   0  0  0  0  0  0  0  0  0  0  0  0
    8.5658  -17.0757   19.8181 C   0  0  0  0  0  0  0  0  0  0  0  0
    7.8660  -18.0077   20.3244 O   0  0  0  0  0  0  0  0  0  0  0  0
   12.4416  -20.5558   21.3565 N   0  0  0  0  0  0  0  0  0  0  0  0
   11.9212  -20.2599   20.0860 C   0  0  0  0  0  0  0  0  0  0  0  0
   11.7954  -21.1645   19.2400 O   0  0  0  0  0  0  0  0  0  0  0  0
   11.5262  -18.8791   19.7590 C   0  0  0  0  0  0  0  0  0  0  0  0
   11.7461  -18.0104   20.9718 C   0  0  0  0  0  0  0  0  0  0  0  0
   10.3822  -17.5183   21.4111 C   0  0  2  0  0  0  0  0  0  0  0  0
    9.8397  -16.7438   20.3339 N   0  0  0  0  0  0  0  0  0  0  0  0
   10.4415  -16.6834   22.6232 C   0  0  0  0  0  0  0  0  0  0  0  0
   10.9461  -15.5396   22.5309 O   0  0  0  0  0  0  0  0  0  0  0  0
    9.9511  -17.1353   23.8643 N   0  0  0  0  0  0  0  0  0  0  0  0
   10.2501  -16.3714   25.0718 C   0  0  1  0  0  0  0  0  0  0  0  0
    9.8350  -14.9378   24.8869 C   0  0  0  0  0  0  0  0  0  0  0  0
    8.4895  -14.6740   25.4104 C   0  0  0  0  0  0  0  0  0  0  0  0
    7.4363  -15.5941   25.4953 C   0  0  0  0  0  0  0  0  0  0  0  0
    6.3468  -14.9967   25.9912 N   0  0  0  0  0  0  0  0  0  0  0  0
    6.5996  -13.7111   26.2521 C   0  0  0  0  0  0  0  0  0  0  0  0
    5.8179  -12.6957   26.7811 C   0  0  0  0  0  0  0  0  0  0  0  0
    6.4148  -11.4649   26.9404 C   0  0  0  0  0  0  0  0  0  0  0  0
    7.7277  -11.2212   26.5992 C   0  0  0  0  0  0  0  0  0  0  0  0
    8.4792  -12.2402   26.0778 C   0  0  0  0  0  0  0  0  0  0  0  0
    7.9357  -13.4908   25.8954 C   0  0  0  0  0  0  0  0  0  0  0  0
    9.8025  -17.0445   26.2816 C   0  0  0  0  0  0  0  0  0  0  0  0
   10.0955  -16.6380   27.5734 O   0  0  0  0  0  0  0  0  0  0  0  0
    9.0803  -18.1086   26.2233 O   0  0  0  0  0  0  0  0  0  0  0  0
  2  1  1  6
  2  3  1  0
  3  4  1  0
  4  9  1  0
  4  5  2  0
  5  6  1  0
  6  7  2  0
  8  7  1  0
  9  8  2  0
 10 18  1  0
 10  2  1  0
 11 10  2  0
 12 13  1  0
 13 14  2  0
 15 16  1  0
 15 13  1  0
 17 16  1  6
 17 18  1  0
 19 17  1  0
 19 20  2  0
 21 19  1  0
 22 21  1  0
 22 33  1  0
 22 23  1  6
 24 23  1  0
 25 24  2  0
 26 25  1  0
 27 26  1  0
 27 32  2  0
 28 27  1  0
 29 28  2  0
 29 30  1  0
 30 31  2  0
 31 32  1  0
 32 24  1  0
 33 34  1  0
 35 33  2  0
M  END
$$$$
