TRV.pdb
     RDKit          3D

 26 25  0  0  1  0  0  0  0  0999 V2000
    9.0819  -12.2623   20.5547 C   0  0  0  0  0  0  0  0  0  0  0  0
    8.2658  -12.8093   19.4028 C   0  0  1  0  0  0  0  0  0  0  0  0
    8.6324  -12.2799   18.1835 O   0  0  0  0  0  0  0  0  0  0  0  0
    8.3571  -14.3064   19.4354 C   0  0  2  0  0  0  0  0  0  0  0  0
    7.7474  -14.9600   18.3219 N   0  0  0  0  0  0  0  0  0  0  0  0
    7.8646  -14.8585   20.7385 C   0  0  0  0  0  0  0  0  0  0  0  0
    6.6323  -14.9417   20.9407 O   0  0  0  0  0  0  0  0  0  0  0  0
   10.9070  -20.5068   20.4256 N   0  0  0  0  0  0  0  0  0  0  0  0
   11.1643  -19.8395   21.6916 C   0  0  0  0  0  0  0  0  0  0  0  0
   12.2816  -19.3022   21.9058 N   0  0  0  0  0  0  0  0  0  0  0  0
   10.1474  -19.7978   22.6774 N   0  0  0  0  0  0  0  0  0  0  0  0
    8.7744  -19.5318   22.4807 C   0  0  0  0  0  0  0  0  0  0  0  0
    8.3507  -18.1369   22.1754 C   0  0  0  0  0  0  0  0  0  0  0  0
    8.7034  -17.1575   23.3163 C   0  0  0  0  0  0  0  0  0  0  0  0
    8.3715  -15.7492   23.0294 C   0  0  2  0  0  0  0  0  0  0  0  0
    8.7662  -15.2829   21.7343 N   0  0  0  0  0  0  0  0  0  0  0  0
    8.7859  -14.8244   24.1416 C   0  0  0  0  0  0  0  0  0  0  0  0
    9.9859  -14.5842   24.3827 O   0  0  0  0  0  0  0  0  0  0  0  0
   12.6254  -18.8623   22.7272 C   0  0  0  0  0  0  0  0  0  0  0  0
    6.7416  -11.4833   25.3945 C   0  0  2  0  0  0  0  0  0  0  0  0
    7.0864  -12.4361   26.5197 C   0  0  0  0  0  0  0  0  0  0  0  0
    5.8197  -13.2411   26.7996 C   0  0  2  0  0  0  0  0  0  0  0  0
    8.2001  -13.3812   26.1168 N   0  0  0  0  0  0  0  0  0  0  0  0
    7.8285  -14.1820   24.9680 C   0  0  0  0  0  0  0  0  0  0  0  0
    8.5064  -14.2788   27.2326 O   0  0  0  0  0  0  0  0  0  0  0  0
    8.9264  -13.8468   28.3462 O   0  0  0  0  0  0  0  0  0  0  0  0
  2  1  1  1
  2  3  1  0
  4  6  1  0
  4  2  1  0
  4  5  1  6
  6  7  2  0
  9 11  1  0
  9  8  1  0
 10  9  2  0
 12 11  1  0
 13 12  1  0
 15 14  1  1
 14 13  1  0
 16  6  1  0
 16 15  1  0
 17 15  1  0
 17 18  2  0
 20 19  1  1
 20 22  1  0
 21 20  1  0
 22 23  1  1
 22 24  1  0
 23 17  1  0
 24 26  1  0
 25 24  2  0
M  END
$$$$
