TRV.pdb
     RDKit          3D

 26 25  0  0  1  0  0  0  0  0999 V2000
    9.4862  -14.1220   17.9578 C   0  0  0  0  0  0  0  0  0  0  0  0
    9.1820  -14.2360   19.4365 C   0  0  1  0  0  0  0  0  0  0  0  0
    9.8788  -13.3248   20.2017 O   0  0  0  0  0  0  0  0  0  0  0  0
    7.6965  -14.1284   19.6172 C   0  0  2  0  0  0  0  0  0  0  0  0
    7.1287  -12.9116   19.1316 N   0  0  0  0  0  0  0  0  0  0  0  0
    7.2947  -14.3992   21.0352 C   0  0  0  0  0  0  0  0  0  0  0  0
    6.8332  -13.4654   21.7290 O   0  0  0  0  0  0  0  0  0  0  0  0
    6.4317  -20.4862   23.3063 N   0  0  0  0  0  0  0  0  0  0  0  0
    6.7225  -20.9040   24.6683 C   0  0  0  0  0  0  0  0  0  0  0  0
    6.2357  -21.9736   25.1176 N   0  0  0  0  0  0  0  0  0  0  0  0
    7.5586  -20.0991   25.4812 N   0  0  0  0  0  0  0  0  0  0  0  0
    8.0172  -18.7917   25.2077 C   0  0  0  0  0  0  0  0  0  0  0  0
    7.0305  -17.7593   24.7847 C   0  0  0  0  0  0  0  0  0  0  0  0
    7.1243  -17.4471   23.2751 C   0  0  0  0  0  0  0  0  0  0  0  0
    7.1076  -16.0078   22.9524 C   0  0  2  0  0  0  0  0  0  0  0  0
    7.4290  -15.6850   21.5948 N   0  0  0  0  0  0  0  0  0  0  0  0
    7.8758  -15.1870   23.9524 C   0  0  0  0  0  0  0  0  0  0  0  0
    9.1134  -15.0511   23.8774 O   0  0  0  0  0  0  0  0  0  0  0  0
    6.3344  -22.3858   26.0158 C   0  0  0  0  0  0  0  0  0  0  0  0
    6.2886  -11.8062   25.2989 C   0  0  2  0  0  0  0  0  0  0  0  0
    6.9772  -12.5362   26.4329 C   0  0  0  0  0  0  0  0  0  0  0  0
    5.8690  -13.1938   27.2516 C   0  0  2  0  0  0  0  0  0  0  0  0
    7.9131  -13.6063   25.9087 N   0  0  0  0  0  0  0  0  0  0  0  0
    7.2259  -14.5288   25.0278 C   0  0  0  0  0  0  0  0  0  0  0  0
    8.4702  -14.3612   27.0331 O   0  0  0  0  0  0  0  0  0  0  0  0
    8.2107  -15.5874   27.2130 O   0  0  0  0  0  0  0  0  0  0  0  0
  2  1  1  6
  2  3  1  0
  4  6  1  0
  4  2  1  0
  4  5  1  1
  6  7  2  0
  9 11  1  0
  9  8  1  0
 10  9  2  0
 12 11  1  0
 13 12  1  0
 15 14  1  1
 14 13  1  0
 16  6  1  0
 16 15  1  0
 17 15  1  0
 17 18  2  0
 20 19  1  1
 20 22  1  0
 21 20  1  0
 22 23  1  1
 22 24  1  0
 23 17  1  0
 24 26  1  0
 25 24  2  0
M  END
$$$$
