TRV.pdb
     RDKit          3D

 26 25  0  0  1  0  0  0  0  0999 V2000
    8.7654  -12.5617   19.9227 C   0  0  0  0  0  0  0  0  0  0  0  0
    8.1765  -13.4050   18.8118 C   0  0  1  0  0  0  0  0  0  0  0  0
    8.6830  -13.0886   17.5689 O   0  0  0  0  0  0  0  0  0  0  0  0
    8.3738  -14.8492   19.1673 C   0  0  2  0  0  0  0  0  0  0  0  0
    8.0109  -15.7667   18.1352 N   0  0  0  0  0  0  0  0  0  0  0  0
    7.7125  -15.1898   20.4681 C   0  0  0  0  0  0  0  0  0  0  0  0
    6.4680  -15.3172   20.5064 O   0  0  0  0  0  0  0  0  0  0  0  0
    8.9670  -19.2855   27.2679 N   0  0  0  0  0  0  0  0  0  0  0  0
    7.6121  -19.8012   27.1564 C   0  0  0  0  0  0  0  0  0  0  0  0
    7.0722  -20.3735   28.1382 N   0  0  0  0  0  0  0  0  0  0  0  0
    6.9070  -19.6514   25.9365 N   0  0  0  0  0  0  0  0  0  0  0  0
    7.3974  -19.1194   24.7237 C   0  0  0  0  0  0  0  0  0  0  0  0
    7.3935  -17.6420   24.5349 C   0  0  0  0  0  0  0  0  0  0  0  0
    7.9347  -17.2301   23.1483 C   0  0  0  0  0  0  0  0  0  0  0  0
    7.9182  -15.7762   22.8996 C   0  0  2  0  0  0  0  0  0  0  0  0
    8.4695  -15.3678   21.6427 N   0  0  0  0  0  0  0  0  0  0  0  0
    8.4557  -14.9891   24.0639 C   0  0  0  0  0  0  0  0  0  0  0  0
    9.6725  -14.9701   24.3374 O   0  0  0  0  0  0  0  0  0  0  0  0
    6.1554  -20.7447   28.2288 C   0  0  0  0  0  0  0  0  0  0  0  0
    6.6501  -11.4834   25.2701 C   0  0  2  0  0  0  0  0  0  0  0  0
    7.0666  -12.3788   26.4181 C   0  0  0  0  0  0  0  0  0  0  0  0
    5.8044  -13.1110   26.8670 C   0  0  2  0  0  0  0  0  0  0  0  0
    8.1017  -13.3930   25.9754 N   0  0  0  0  0  0  0  0  0  0  0  0
    7.6011  -14.2312   24.9050 C   0  0  0  0  0  0  0  0  0  0  0  0
    8.4631  -14.2479   27.1082 O   0  0  0  0  0  0  0  0  0  0  0  0
    8.1319  -15.4688   27.1605 O   0  0  0  0  0  0  0  0  0  0  0  0
  2  1  1  1
  2  3  1  0
  4  6  1  0
  4  2  1  0
  4  5  1  6
  6  7  2  0
  9 11  1  0
  9  8  1  0
 10  9  2  0
 12 11  1  0
 13 12  1  0
 15 14  1  1
 14 13  1  0
 16  6  1  0
 16 15  1  0
 17 15  1  0
 17 18  2  0
 20 19  1  1
 20 22  1  0
 21 20  1  0
 22 23  1  1
 22 24  1  0
 23 17  1  0
 24 26  1  0
 25 24  2  0
M  END
$$$$
