TRV.pdb
     RDKit          3D

 26 25  0  0  1  0  0  0  0  0999 V2000
   11.5319  -19.7986   22.9189 C   0  0  0  0  0  0  0  0  0  0  0  0
   12.7778  -19.2485   22.2577 C   0  0  1  0  0  0  0  0  0  0  0  0
   13.3582  -20.1375   21.3779 O   0  0  0  0  0  0  0  0  0  0  0  0
   12.4251  -17.9411   21.6119 C   0  0  2  0  0  0  0  0  0  0  0  0
   13.4754  -17.3626   20.8366 N   0  0  0  0  0  0  0  0  0  0  0  0
   11.8723  -16.9678   22.6082 C   0  0  0  0  0  0  0  0  0  0  0  0
   12.6615  -16.3050   23.3183 O   0  0  0  0  0  0  0  0  0  0  0  0
    7.9964  -14.6149   18.7382 N   0  0  0  0  0  0  0  0  0  0  0  0
    7.4634  -13.4899   19.4894 C   0  0  0  0  0  0  0  0  0  0  0  0
    7.7630  -12.3131   19.1604 N   0  0  0  0  0  0  0  0  0  0  0  0
    6.6042  -13.7304   20.5901 N   0  0  0  0  0  0  0  0  0  0  0  0
    6.9099  -14.4300   21.7783 C   0  0  0  0  0  0  0  0  0  0  0  0
    8.3245  -14.8164   22.0393 C   0  0  0  0  0  0  0  0  0  0  0  0
    8.4969  -15.5059   23.4105 C   0  0  0  0  0  0  0  0  0  0  0  0
    9.8822  -15.9119   23.7140 C   0  0  2  0  0  0  0  0  0  0  0  0
   10.4826  -16.7899   22.7553 N   0  0  0  0  0  0  0  0  0  0  0  0
   10.0426  -16.3877   25.1324 C   0  0  0  0  0  0  0  0  0  0  0  0
   10.0849  -17.6015   25.4166 O   0  0  0  0  0  0  0  0  0  0  0  0
    7.5095  -11.4526   19.5867 C   0  0  0  0  0  0  0  0  0  0  0  0
   11.3794  -13.5978   27.9767 C   0  0  2  0  0  0  0  0  0  0  0  0
   10.5198  -14.7217   28.5161 C   0  0  0  0  0  0  0  0  0  0  0  0
    9.1115  -14.1498   28.6594 C   0  0  2  0  0  0  0  0  0  0  0  0
   10.4871  -15.8957   27.5588 N   0  0  0  0  0  0  0  0  0  0  0  0
   10.1536  -15.4755   26.2130 C   0  0  0  0  0  0  0  0  0  0  0  0
    9.4845  -16.8641   28.0078 O   0  0  0  0  0  0  0  0  0  0  0  0
    8.4054  -17.0562   27.3740 O   0  0  0  0  0  0  0  0  0  0  0  0
  2  1  1  6
  2  3  1  0
  4  6  1  0
  4  2  1  0
  4  5  1  1
  6  7  2  0
  9 11  1  0
  9  8  1  0
 10  9  2  0
 12 11  1  0
 13 12  1  0
 15 14  1  6
 14 13  1  0
 16  6  1  0
 16 15  1  0
 17 15  1  0
 17 18  2  0
 20 19  1  1
 20 22  1  0
 21 20  1  0
 22 23  1  1
 22 24  1  0
 23 17  1  0
 24 26  1  0
 25 24  2  0
M  END
$$$$
