TRV.pdb
     RDKit          3D

 26 25  0  0  1  0  0  0  0  0999 V2000
    9.6701  -13.8133   17.9751 C   0  0  0  0  0  0  0  0  0  0  0  0
    9.3808  -13.9645   19.4535 C   0  0  1  0  0  0  0  0  0  0  0  0
    9.8637  -12.9155   20.2070 O   0  0  0  0  0  0  0  0  0  0  0  0
    7.9038  -14.1671   19.6218 C   0  0  2  0  0  0  0  0  0  0  0  0
    7.1015  -13.0824   19.1544 N   0  0  0  0  0  0  0  0  0  0  0  0
    7.5582  -14.5441   21.0304 C   0  0  0  0  0  0  0  0  0  0  0  0
    6.9976  -13.7030   21.7685 O   0  0  0  0  0  0  0  0  0  0  0  0
    7.0237  -19.6870   28.3859 N   0  0  0  0  0  0  0  0  0  0  0  0
    7.8691  -19.7040   27.2031 C   0  0  0  0  0  0  0  0  0  0  0  0
    9.0522  -19.2807   27.2673 N   0  0  0  0  0  0  0  0  0  0  0  0
    7.3507  -20.2025   25.9823 N   0  0  0  0  0  0  0  0  0  0  0  0
    7.5125  -19.6484   24.6934 C   0  0  0  0  0  0  0  0  0  0  0  0
    7.3916  -18.1733   24.5265 C   0  0  0  0  0  0  0  0  0  0  0  0
    7.6952  -17.7234   23.0805 C   0  0  0  0  0  0  0  0  0  0  0  0
    7.4837  -16.2840   22.8374 C   0  0  2  0  0  0  0  0  0  0  0  0
    7.8547  -15.8266   21.5322 N   0  0  0  0  0  0  0  0  0  0  0  0
    8.0391  -15.4280   23.9432 C   0  0  0  0  0  0  0  0  0  0  0  0
    9.2627  -15.2137   24.0556 O   0  0  0  0  0  0  0  0  0  0  0  0
    9.7581  -19.2666   26.5688 C   0  0  0  0  0  0  0  0  0  0  0  0
    7.0980  -12.1562   27.5960 C   0  0  2  0  0  0  0  0  0  0  0  0
    6.5652  -13.1552   26.5905 C   0  0  0  0  0  0  0  0  0  0  0  0
    5.8182  -12.3417   25.5364 C   0  0  1  0  0  0  0  0  0  0  0  0
    7.6923  -13.9191   25.9256 N   0  0  0  0  0  0  0  0  0  0  0  0
    7.1945  -14.8243   24.9098 C   0  0  0  0  0  0  0  0  0  0  0  0
    8.4144  -14.6990   26.9331 O   0  0  0  0  0  0  0  0  0  0  0  0
    8.3677  -15.9639   26.9635 O   0  0  0  0  0  0  0  0  0  0  0  0
  2  1  1  6
  2  3  1  0
  4  6  1  0
  4  2  1  0
  4  5  1  1
  6  7  2  0
  9 11  1  0
  9  8  1  0
 10  9  2  0
 12 11  1  0
 13 12  1  0
 15 14  1  1
 14 13  1  0
 16  6  1  0
 16 15  1  0
 17 15  1  0
 17 18  2  0
 20 19  1  1
 20 22  1  0
 21 20  1  0
 22 23  1  1
 22 24  1  0
 23 17  1  0
 24 26  1  0
 25 24  2  0
M  END
$$$$
