TRV.pdb
     RDKit          3D

 26 25  0  0  1  0  0  0  0  0999 V2000
    7.4783  -12.3521   20.0364 C   0  0  0  0  0  0  0  0  0  0  0  0
    8.5771  -13.2432   19.4974 C   0  0  1  0  0  0  0  0  0  0  0  0
    9.7561  -13.1318   20.2036 O   0  0  0  0  0  0  0  0  0  0  0  0
    8.0582  -14.6503   19.4544 C   0  0  2  0  0  0  0  0  0  0  0  0
    6.9800  -14.8548   18.5409 N   0  0  0  0  0  0  0  0  0  0  0  0
    7.7250  -15.1548   20.8255 C   0  0  0  0  0  0  0  0  0  0  0  0
    6.6026  -14.8972   21.3158 O   0  0  0  0  0  0  0  0  0  0  0  0
   10.6162  -22.6094   23.7503 N   0  0  0  0  0  0  0  0  0  0  0  0
    9.2196  -22.4810   23.3669 C   0  0  0  0  0  0  0  0  0  0  0  0
    8.4785  -23.4972   23.3341 N   0  0  0  0  0  0  0  0  0  0  0  0
    8.7021  -21.2046   23.0342 N   0  0  0  0  0  0  0  0  0  0  0  0
    9.4176  -19.9916   22.9282 C   0  0  0  0  0  0  0  0  0  0  0  0
    8.6827  -18.7575   22.5340 C   0  0  0  0  0  0  0  0  0  0  0  0
    9.1306  -17.5261   23.3515 C   0  0  0  0  0  0  0  0  0  0  0  0
    8.4874  -16.2626   22.9444 C   0  0  2  0  0  0  0  0  0  0  0  0
    8.6540  -15.9117   21.5661 N   0  0  0  0  0  0  0  0  0  0  0  0
    8.8016  -15.1304   23.8842 C   0  0  0  0  0  0  0  0  0  0  0  0
    9.8718  -14.4939   23.8103 O   0  0  0  0  0  0  0  0  0  0  0  0
    7.5194  -23.5735   23.0876 C   0  0  0  0  0  0  0  0  0  0  0  0
    5.7595  -13.3468   26.4245 C   0  0  2  0  0  0  0  0  0  0  0  0
    6.9990  -12.6719   25.8758 C   0  0  0  0  0  0  0  0  0  0  0  0
    7.3368  -11.5451   26.8489 C   0  0  1  0  0  0  0  0  0  0  0  0
    8.1645  -13.6377   25.8060 N   0  0  0  0  0  0  0  0  0  0  0  0
    7.8929  -14.7343   24.8989 C   0  0  0  0  0  0  0  0  0  0  0  0
    8.4238  -14.1871   27.1385 O   0  0  0  0  0  0  0  0  0  0  0  0
    8.7792  -13.4556   28.1089 O   0  0  0  0  0  0  0  0  0  0  0  0
  2  1  1  1
  2  3  1  0
  4  6  1  0
  4  2  1  0
  4  5  1  6
  6  7  2  0
  9 11  1  0
  9  8  1  0
 10  9  2  0
 12 11  1  0
 13 12  1  0
 15 14  1  1
 14 13  1  0
 16  6  1  0
 16 15  1  0
 17 15  1  0
 17 18  2  0
 20 19  1  6
 20 22  1  0
 21 20  1  0
 22 23  1  6
 22 24  1  0
 23 17  1  0
 24 26  1  0
 25 24  2  0
M  END
$$$$
