TRV.pdb
     RDKit          3D

 26 25  0  0  1  0  0  0  0  0999 V2000
   10.5575  -13.7124   20.0855 C   0  0  0  0  0  0  0  0  0  0  0  0
    9.4166  -13.0546   19.3387 C   0  0  1  0  0  0  0  0  0  0  0  0
    9.7661  -12.6525   18.0669 O   0  0  0  0  0  0  0  0  0  0  0  0
    8.2483  -13.9957   19.3483 C   0  0  2  0  0  0  0  0  0  0  0  0
    7.1241  -13.5498   18.5891 N   0  0  0  0  0  0  0  0  0  0  0  0
    7.8581  -14.3727   20.7451 C   0  0  0  0  0  0  0  0  0  0  0  0
    6.9266  -13.7546   21.3078 O   0  0  0  0  0  0  0  0  0  0  0  0
    5.9570  -21.0525   25.1795 N   0  0  0  0  0  0  0  0  0  0  0  0
    6.9455  -20.5898   26.1402 C   0  0  0  0  0  0  0  0  0  0  0  0
    6.7438  -20.7371   27.3733 N   0  0  0  0  0  0  0  0  0  0  0  0
    8.1352  -19.9759   25.6761 N   0  0  0  0  0  0  0  0  0  0  0  0
    8.3446  -19.3484   24.4283 C   0  0  0  0  0  0  0  0  0  0  0  0
    8.0593  -17.8921   24.3009 C   0  0  0  0  0  0  0  0  0  0  0  0
    8.2363  -17.3880   22.8519 C   0  0  0  0  0  0  0  0  0  0  0  0
    8.1107  -15.9261   22.7000 C   0  0  2  0  0  0  0  0  0  0  0  0
    8.5230  -15.4088   21.4299 N   0  0  0  0  0  0  0  0  0  0  0  0
    8.7012  -15.1759   23.8630 C   0  0  0  0  0  0  0  0  0  0  0  0
    9.9337  -15.0410   23.9993 O   0  0  0  0  0  0  0  0  0  0  0  0
    7.2897  -20.4320   28.1449 C   0  0  0  0  0  0  0  0  0  0  0  0
    7.2689  -11.7108   25.2496 C   0  0  2  0  0  0  0  0  0  0  0  0
    7.4780  -12.7029   26.3744 C   0  0  0  0  0  0  0  0  0  0  0  0
    6.1050  -13.2970   26.6792 C   0  0  2  0  0  0  0  0  0  0  0  0
    8.4215  -13.8132   25.9587 N   0  0  0  0  0  0  0  0  0  0  0  0
    7.8811  -14.5866   24.8592 C   0  0  0  0  0  0  0  0  0  0  0  0
    8.6496  -14.7105   27.0933 O   0  0  0  0  0  0  0  0  0  0  0  0
    8.2474  -15.9111   27.0914 O   0  0  0  0  0  0  0  0  0  0  0  0
  2  1  1  6
  2  3  1  0
  4  6  1  0
  4  2  1  0
  4  5  1  1
  6  7  2  0
  9 11  1  0
  9  8  1  0
 10  9  2  0
 12 11  1  0
 13 12  1  0
 15 14  1  1
 14 13  1  0
 16  6  1  0
 16 15  1  0
 17 15  1  0
 17 18  2  0
 20 19  1  1
 20 22  1  0
 21 20  1  0
 22 23  1  1
 22 24  1  0
 23 17  1  0
 24 26  1  0
 25 24  2  0
M  END
$$$$
