TRV.pdb
     RDKit          3D

 26 25  0  0  1  0  0  0  0  0999 V2000
    9.1950  -21.5431   20.2515 C   0  0  0  0  0  0  0  0  0  0  0  0
    9.8703  -21.0755   18.9798 C   0  0  1  0  0  0  0  0  0  0  0  0
    9.6322  -21.9072   17.9061 O   0  0  0  0  0  0  0  0  0  0  0  0
    9.4480  -19.6594   18.7205 C   0  0  2  0  0  0  0  0  0  0  0  0
    9.9011  -19.1262   17.4759 N   0  0  0  0  0  0  0  0  0  0  0  0
    9.8005  -18.7623   19.8679 C   0  0  0  0  0  0  0  0  0  0  0  0
   11.0026  -18.4888   20.0834 O   0  0  0  0  0  0  0  0  0  0  0  0
    8.5592  -13.6818   19.1289 N   0  0  0  0  0  0  0  0  0  0  0  0
    8.2491  -12.7143   20.1691 C   0  0  0  0  0  0  0  0  0  0  0  0
    8.3096  -11.4820   19.9226 N   0  0  0  0  0  0  0  0  0  0  0  0
    7.8769  -13.1708   21.4578 N   0  0  0  0  0  0  0  0  0  0  0  0
    7.0646  -14.2829   21.7707 C   0  0  0  0  0  0  0  0  0  0  0  0
    7.4313  -15.6169   21.2189 C   0  0  0  0  0  0  0  0  0  0  0  0
    7.9568  -16.5748   22.3105 C   0  0  0  0  0  0  0  0  0  0  0  0
    9.0667  -17.4418   21.8718 C   0  0  2  0  0  0  0  0  0  0  0  0
    8.8012  -18.2254   20.7031 N   0  0  0  0  0  0  0  0  0  0  0  0
    9.6474  -18.2463   23.0030 C   0  0  0  0  0  0  0  0  0  0  0  0
    9.0264  -19.1976   23.5181 O   0  0  0  0  0  0  0  0  0  0  0  0
    8.1157  -10.7080   20.5140 C   0  0  0  0  0  0  0  0  0  0  0  0
   13.5993  -20.1448   24.6838 C   0  0  2  0  0  0  0  0  0  0  0  0
   13.0417  -18.7493   24.4971 C   0  0  0  0  0  0  0  0  0  0  0  0
   13.4563  -18.3089   23.0953 C   0  0  2  0  0  0  0  0  0  0  0  0
   11.5297  -18.7447   24.5954 N   0  0  0  0  0  0  0  0  0  0  0  0
   10.9302  -17.9591   23.5358 C   0  0  0  0  0  0  0  0  0  0  0  0
   11.1259  -18.1770   25.8835 O   0  0  0  0  0  0  0  0  0  0  0  0
   10.5478  -17.0539   25.9708 O   0  0  0  0  0  0  0  0  0  0  0  0
  2  1  1  1
  2  3  1  0
  4  6  1  0
  4  2  1  0
  4  5  1  6
  6  7  2  0
  9 11  1  0
  9  8  1  0
 10  9  2  0
 12 11  1  0
 13 12  1  0
 15 14  1  1
 14 13  1  0
 16  6  1  0
 16 15  1  0
 17 15  1  0
 17 18  2  0
 20 19  1  1
 20 22  1  0
 21 20  1  0
 22 23  1  1
 22 24  1  0
 23 17  1  0
 24 26  1  0
 25 24  2  0
M  END
$$$$
