TRV.pdb
     RDKit          3D

 26 25  0  0  1  0  0  0  0  0999 V2000
   10.3598  -13.9643   20.4213 C   0  0  0  0  0  0  0  0  0  0  0  0
    9.2904  -13.3384   19.5515 C   0  0  1  0  0  0  0  0  0  0  0  0
    9.7377  -13.0331   18.2834 O   0  0  0  0  0  0  0  0  0  0  0  0
    8.1016  -14.2536   19.5418 C   0  0  2  0  0  0  0  0  0  0  0  0
    7.0629  -13.8636   18.6430 N   0  0  0  0  0  0  0  0  0  0  0  0
    7.5769  -14.4870   20.9259 C   0  0  0  0  0  0  0  0  0  0  0  0
    6.8937  -13.5961   21.4791 O   0  0  0  0  0  0  0  0  0  0  0  0
    6.4638  -21.4600   22.9445 N   0  0  0  0  0  0  0  0  0  0  0  0
    7.7541  -20.9705   23.4025 C   0  0  0  0  0  0  0  0  0  0  0  0
    8.8120  -21.3678   22.8493 N   0  0  0  0  0  0  0  0  0  0  0  0
    7.8085  -20.0431   24.4724 N   0  0  0  0  0  0  0  0  0  0  0  0
    6.7647  -19.2161   24.9427 C   0  0  0  0  0  0  0  0  0  0  0  0
    6.8350  -17.7521   24.6781 C   0  0  0  0  0  0  0  0  0  0  0  0
    7.2587  -17.4419   23.2257 C   0  0  0  0  0  0  0  0  0  0  0  0
    7.3340  -16.0027   22.9113 C   0  0  2  0  0  0  0  0  0  0  0  0
    7.8414  -15.6901   21.6093 N   0  0  0  0  0  0  0  0  0  0  0  0
    7.9924  -15.2099   24.0077 C   0  0  0  0  0  0  0  0  0  0  0  0
    9.2187  -15.2821   24.2240 O   0  0  0  0  0  0  0  0  0  0  0  0
    9.7565  -21.1339   23.0481 C   0  0  0  0  0  0  0  0  0  0  0  0
    5.6997  -12.7596   26.8403 C   0  0  2  0  0  0  0  0  0  0  0  0
    6.9838  -12.3031   26.1802 C   0  0  0  0  0  0  0  0  0  0  0  0
    7.6979  -11.4214   27.2017 C   0  0  1  0  0  0  0  0  0  0  0  0
    7.8703  -13.4813   25.8309 N   0  0  0  0  0  0  0  0  0  0  0  0
    7.2468  -14.3426   24.8467 C   0  0  0  0  0  0  0  0  0  0  0  0
    8.1362  -14.2669   27.0377 O   0  0  0  0  0  0  0  0  0  0  0  0
    7.5549  -15.3688   27.2634 O   0  0  0  0  0  0  0  0  0  0  0  0
  2  1  1  1
  2  3  1  0
  4  6  1  0
  4  2  1  0
  4  5  1  6
  6  7  2  0
  9 11  1  0
  9  8  1  0
 10  9  2  0
 12 11  1  0
 13 12  1  0
 15 14  1  1
 14 13  1  0
 16  6  1  0
 16 15  1  0
 17 15  1  0
 17 18  2  0
 20 19  1  6
 20 22  1  0
 21 20  1  0
 22 23  1  6
 22 24  1  0
 23 17  1  0
 24 26  1  0
 25 24  2  0
M  END
$$$$
