TRV.pdb
     RDKit          3D

 26 25  0  0  1  0  0  0  0  0999 V2000
    8.5734  -12.5208   20.8894 C   0  0  0  0  0  0  0  0  0  0  0  0
    7.7712  -13.1303   19.7593 C   0  0  1  0  0  0  0  0  0  0  0  0
    8.1133  -12.6259   18.5225 O   0  0  0  0  0  0  0  0  0  0  0  0
    7.9146  -14.6217   19.8366 C   0  0  2  0  0  0  0  0  0  0  0  0
    7.2913  -15.3315   18.7658 N   0  0  0  0  0  0  0  0  0  0  0  0
    7.4842  -15.1464   21.1726 C   0  0  0  0  0  0  0  0  0  0  0  0
    6.2646  -15.1822   21.4516 O   0  0  0  0  0  0  0  0  0  0  0  0
    6.8063  -19.6835   22.7276 N   0  0  0  0  0  0  0  0  0  0  0  0
    6.6552  -20.4001   23.9837 C   0  0  0  0  0  0  0  0  0  0  0  0
    5.5600  -20.9501   24.2684 N   0  0  0  0  0  0  0  0  0  0  0  0
    7.7501  -20.4753   24.8799 N   0  0  0  0  0  0  0  0  0  0  0  0
    8.6092  -19.4253   25.2724 C   0  0  0  0  0  0  0  0  0  0  0  0
    8.1611  -18.0191   25.0718 C   0  0  0  0  0  0  0  0  0  0  0  0
    8.4098  -17.5282   23.6287 C   0  0  0  0  0  0  0  0  0  0  0  0
    8.0937  -16.1039   23.4109 C   0  0  2  0  0  0  0  0  0  0  0  0
    8.4298  -15.5977   22.1142 N   0  0  0  0  0  0  0  0  0  0  0  0
    8.5857  -15.2294   24.5321 C   0  0  0  0  0  0  0  0  0  0  0  0
    9.8023  -15.0837   24.7653 O   0  0  0  0  0  0  0  0  0  0  0  0
    5.2975  -21.4536   25.0833 C   0  0  0  0  0  0  0  0  0  0  0  0
    6.7522  -11.7468   25.5836 C   0  0  2  0  0  0  0  0  0  0  0  0
    7.0829  -12.6132   26.7807 C   0  0  0  0  0  0  0  0  0  0  0  0
    5.7863  -13.3220   27.1648 C   0  0  2  0  0  0  0  0  0  0  0  0
    8.1345  -13.6481   26.4355 N   0  0  0  0  0  0  0  0  0  0  0  0
    7.6862  -14.5291   25.3763 C   0  0  0  0  0  0  0  0  0  0  0  0
    8.4321  -14.4556   27.6203 O   0  0  0  0  0  0  0  0  0  0  0  0
    8.1510  -15.6887   27.6805 O   0  0  0  0  0  0  0  0  0  0  0  0
  2  1  1  1
  2  3  1  0
  4  6  1  0
  4  2  1  0
  4  5  1  6
  6  7  2  0
  9 11  1  0
  9  8  1  0
 10  9  2  0
 12 11  1  0
 13 12  1  0
 15 14  1  1
 14 13  1  0
 16  6  1  0
 16 15  1  0
 17 15  1  0
 17 18  2  0
 20 19  1  1
 20 22  1  0
 21 20  1  0
 22 23  1  1
 22 24  1  0
 23 17  1  0
 24 26  1  0
 25 24  2  0
M  END
$$$$
