TRV.pdb
     RDKit          3D

 26 25  0  0  1  0  0  0  0  0999 V2000
    9.2437  -13.9826   17.8465 C   0  0  0  0  0  0  0  0  0  0  0  0
    9.0847  -14.1358   19.3442 C   0  0  1  0  0  0  0  0  0  0  0  0
    9.7856  -13.1884   20.0601 O   0  0  0  0  0  0  0  0  0  0  0  0
    7.6182  -14.1332   19.6608 C   0  0  2  0  0  0  0  0  0  0  0  0
    6.9224  -12.9638   19.2283 N   0  0  0  0  0  0  0  0  0  0  0  0
    7.3687  -14.4213   21.1100 C   0  0  0  0  0  0  0  0  0  0  0  0
    6.9180  -13.5140   21.8450 O   0  0  0  0  0  0  0  0  0  0  0  0
    5.7600  -21.4295   26.0469 N   0  0  0  0  0  0  0  0  0  0  0  0
    6.6176  -20.6705   26.9427 C   0  0  0  0  0  0  0  0  0  0  0  0
    6.5203  -20.8219   28.1879 N   0  0  0  0  0  0  0  0  0  0  0  0
    7.5626  -19.7637   26.4019 N   0  0  0  0  0  0  0  0  0  0  0  0
    7.6311  -19.2893   25.0734 C   0  0  0  0  0  0  0  0  0  0  0  0
    7.4277  -17.8359   24.8195 C   0  0  0  0  0  0  0  0  0  0  0  0
    7.4845  -17.4935   23.3145 C   0  0  0  0  0  0  0  0  0  0  0  0
    7.3866  -16.0519   23.0176 C   0  0  2  0  0  0  0  0  0  0  0  0
    7.6335  -15.6938   21.6533 N   0  0  0  0  0  0  0  0  0  0  0  0
    8.1583  -15.2108   23.9979 C   0  0  0  0  0  0  0  0  0  0  0  0
    9.3992  -15.1012   23.9343 O   0  0  0  0  0  0  0  0  0  0  0  0
    7.0841  -20.4510   28.9166 C   0  0  0  0  0  0  0  0  0  0  0  0
    6.9886  -11.6127   25.3408 C   0  0  2  0  0  0  0  0  0  0  0  0
    7.3811  -12.5254   26.4836 C   0  0  0  0  0  0  0  0  0  0  0  0
    6.0768  -13.0653   27.0650 C   0  0  2  0  0  0  0  0  0  0  0  0
    8.2275  -13.6835   25.9953 N   0  0  0  0  0  0  0  0  0  0  0  0
    7.5082  -14.5026   25.0410 C   0  0  0  0  0  0  0  0  0  0  0  0
    8.6123  -14.5209   27.1333 O   0  0  0  0  0  0  0  0  0  0  0  0
    8.2405  -15.7269   27.2357 O   0  0  0  0  0  0  0  0  0  0  0  0
  2  1  1  6
  2  3  1  0
  4  6  1  0
  4  2  1  0
  4  5  1  1
  6  7  2  0
  9 11  1  0
  9  8  1  0
 10  9  2  0
 12 11  1  0
 13 12  1  0
 15 14  1  6
 14 13  1  0
 16  6  1  0
 16 15  1  0
 17 15  1  0
 17 18  2  0
 20 19  1  1
 20 22  1  0
 21 20  1  0
 22 23  1  1
 22 24  1  0
 23 17  1  0
 24 26  1  0
 25 24  2  0
M  END
$$$$
