TRV.pdb
     RDKit          3D

 26 25  0  0  1  0  0  0  0  0999 V2000
    6.1176  -19.8508   28.2486 C   0  0  0  0  0  0  0  0  0  0  0  0
    6.9716  -18.9676   27.3639 C   0  0  1  0  0  0  0  0  0  0  0  0
    8.2140  -18.7064   27.9019 O   0  0  0  0  0  0  0  0  0  0  0  0
    7.0497  -19.6024   26.0068 C   0  0  2  0  0  0  0  0  0  0  0  0
    7.5399  -20.9436   26.0091 N   0  0  0  0  0  0  0  0  0  0  0  0
    7.8022  -18.7400   25.0395 C   0  0  0  0  0  0  0  0  0  0  0  0
    8.9613  -19.0687   24.7008 O   0  0  0  0  0  0  0  0  0  0  0  0
    9.0791  -14.0054   18.5080 N   0  0  0  0  0  0  0  0  0  0  0  0
    8.2921  -12.9431   19.1132 C   0  0  0  0  0  0  0  0  0  0  0  0
    8.5010  -11.7439   18.7954 N   0  0  0  0  0  0  0  0  0  0  0  0
    7.2891  -13.2705   20.0591 N   0  0  0  0  0  0  0  0  0  0  0  0
    6.9872  -14.5481   20.5797 C   0  0  0  0  0  0  0  0  0  0  0  0
    7.8663  -15.1172   21.6388 C   0  0  0  0  0  0  0  0  0  0  0  0
    7.0751  -15.9621   22.6613 C   0  0  0  0  0  0  0  0  0  0  0  0
    7.9164  -16.6455   23.6619 C   0  0  2  0  0  0  0  0  0  0  0  0
    7.2247  -17.5698   24.5090 N   0  0  0  0  0  0  0  0  0  0  0  0
    8.7932  -15.6887   24.4234 C   0  0  0  0  0  0  0  0  0  0  0  0
    9.6944  -15.0349   23.8610 O   0  0  0  0  0  0  0  0  0  0  0  0
    8.0878  -10.9136   19.1509 C   0  0  0  0  0  0  0  0  0  0  0  0
    7.8165  -12.7421   25.9541 C   0  0  2  0  0  0  0  0  0  0  0  0
    8.6075  -13.3825   27.0754 C   0  0  0  0  0  0  0  0  0  0  0  0
    7.5805  -13.9008   28.0792 C   0  0  2  0  0  0  0  0  0  0  0  0
    9.4391  -14.5428   26.5674 N   0  0  0  0  0  0  0  0  0  0  0  0
    8.6342  -15.4863   25.8183 C   0  0  0  0  0  0  0  0  0  0  0  0
   10.0448  -15.2430   27.7020 O   0  0  0  0  0  0  0  0  0  0  0  0
    9.7412  -16.4370   27.9939 O   0  0  0  0  0  0  0  0  0  0  0  0
  2  1  1  1
  2  3  1  0
  4  6  1  0
  4  2  1  0
  4  5  1  1
  6  7  2  0
  9 11  1  0
  9  8  1  0
 10  9  2  0
 12 11  1  0
 13 12  1  0
 15 14  1  1
 14 13  1  0
 16  6  1  0
 16 15  1  0
 17 15  1  0
 17 18  2  0
 20 19  1  1
 20 22  1  0
 21 20  1  0
 22 23  1  1
 22 24  1  0
 23 17  1  0
 24 26  1  0
 25 24  2  0
M  END
$$$$
