TRV.pdb
     RDKit          3D

 26 25  0  0  1  0  0  0  0  0999 V2000
    7.9920  -12.5123   18.2082 C   0  0  0  0  0  0  0  0  0  0  0  0
    7.5007  -13.4918   19.2528 C   0  0  1  0  0  0  0  0  0  0  0  0
    6.9874  -14.6493   18.7068 O   0  0  0  0  0  0  0  0  0  0  0  0
    8.6235  -13.7526   20.2131 C   0  0  2  0  0  0  0  0  0  0  0  0
    9.6777  -14.5578   19.6850 N   0  0  0  0  0  0  0  0  0  0  0  0
    8.1172  -14.2897   21.5172 C   0  0  0  0  0  0  0  0  0  0  0  0
    7.2686  -13.6326   22.1611 O   0  0  0  0  0  0  0  0  0  0  0  0
    9.4944  -20.6816   20.7210 N   0  0  0  0  0  0  0  0  0  0  0  0
    8.1624  -20.5595   20.1507 C   0  0  0  0  0  0  0  0  0  0  0  0
    7.9224  -21.0196   19.0046 N   0  0  0  0  0  0  0  0  0  0  0  0
    7.1402  -19.9219   20.8964 N   0  0  0  0  0  0  0  0  0  0  0  0
    7.2922  -19.1357   22.0597 C   0  0  0  0  0  0  0  0  0  0  0  0
    8.5118  -18.2925   22.2013 C   0  0  0  0  0  0  0  0  0  0  0  0
    8.5042  -17.4714   23.5093 C   0  0  0  0  0  0  0  0  0  0  0  0
    8.2443  -16.0319   23.3190 C   0  0  2  0  0  0  0  0  0  0  0  0
    8.5816  -15.5187   22.0255 N   0  0  0  0  0  0  0  0  0  0  0  0
    8.7890  -15.1970   24.4461 C   0  0  0  0  0  0  0  0  0  0  0  0
   10.0135  -15.0097   24.5917 O   0  0  0  0  0  0  0  0  0  0  0  0
    7.0842  -20.9884   18.4727 C   0  0  0  0  0  0  0  0  0  0  0  0
    7.0764  -11.7873   25.6408 C   0  0  2  0  0  0  0  0  0  0  0  0
    7.4150  -12.6634   26.8286 C   0  0  0  0  0  0  0  0  0  0  0  0
    6.1099  -13.3354   27.2481 C   0  0  2  0  0  0  0  0  0  0  0  0
    8.4271  -13.7274   26.4551 N   0  0  0  0  0  0  0  0  0  0  0  0
    7.9326  -14.5833   25.3960 C   0  0  0  0  0  0  0  0  0  0  0  0
    8.7197  -14.5556   27.6269 O   0  0  0  0  0  0  0  0  0  0  0  0
    8.3542  -15.7654   27.7023 O   0  0  0  0  0  0  0  0  0  0  0  0
  2  1  1  6
  2  3  1  0
  4  6  1  0
  4  2  1  0
  4  5  1  6
  6  7  2  0
  9 11  1  0
  9  8  1  0
 10  9  2  0
 12 11  1  0
 13 12  1  0
 15 14  1  1
 14 13  1  0
 16  6  1  0
 16 15  1  0
 17 15  1  0
 17 18  2  0
 20 19  1  1
 20 22  1  0
 21 20  1  0
 22 23  1  1
 22 24  1  0
 23 17  1  0
 24 26  1  0
 25 24  2  0
M  END
$$$$
