TRV.pdb
     RDKit          3D

 26 25  0  0  1  0  0  0  0  0999 V2000
    9.3484  -12.2006   18.4385 C   0  0  0  0  0  0  0  0  0  0  0  0
    8.8083  -12.7682   19.7339 C   0  0  1  0  0  0  0  0  0  0  0  0
    7.8871  -11.9416   20.3417 O   0  0  0  0  0  0  0  0  0  0  0  0
    8.2617  -14.1366   19.4521 C   0  0  2  0  0  0  0  0  0  0  0  0
    7.1995  -14.1637   18.4981 N   0  0  0  0  0  0  0  0  0  0  0  0
    7.8885  -14.8500   20.7159 C   0  0  0  0  0  0  0  0  0  0  0  0
    6.6795  -15.0463   20.9732 O   0  0  0  0  0  0  0  0  0  0  0  0
   11.6924  -19.9484   22.9285 N   0  0  0  0  0  0  0  0  0  0  0  0
   11.6943  -19.9651   24.3824 C   0  0  0  0  0  0  0  0  0  0  0  0
   12.7306  -20.3080   25.0080 N   0  0  0  0  0  0  0  0  0  0  0  0
   10.5227  -19.5902   25.0857 N   0  0  0  0  0  0  0  0  0  0  0  0
    9.2522  -19.3016   24.5407 C   0  0  0  0  0  0  0  0  0  0  0  0
    8.8172  -17.8802   24.4488 C   0  0  0  0  0  0  0  0  0  0  0  0
    9.0750  -17.2809   23.0489 C   0  0  0  0  0  0  0  0  0  0  0  0
    8.5942  -15.8961   22.8853 C   0  0  2  0  0  0  0  0  0  0  0  0
    8.8760  -15.3005   21.6139 N   0  0  0  0  0  0  0  0  0  0  0  0
    8.9724  -15.0168   24.0462 C   0  0  0  0  0  0  0  0  0  0  0  0
   10.1612  -14.7320   24.2937 O   0  0  0  0  0  0  0  0  0  0  0  0
   12.8669  -20.4401   25.9828 C   0  0  0  0  0  0  0  0  0  0  0  0
    7.0754  -11.6776   25.1353 C   0  0  2  0  0  0  0  0  0  0  0  0
    7.2573  -12.6027   26.3202 C   0  0  0  0  0  0  0  0  0  0  0  0
    5.9179  -13.3077   26.5199 C   0  0  2  0  0  0  0  0  0  0  0  0
    8.3308  -13.6372   26.0493 N   0  0  0  0  0  0  0  0  0  0  0  0
    7.9919  -14.4705   24.9136 C   0  0  0  0  0  0  0  0  0  0  0  0
    8.4914  -14.4939   27.2260 O   0  0  0  0  0  0  0  0  0  0  0  0
    8.1483  -15.7127   27.2211 O   0  0  0  0  0  0  0  0  0  0  0  0
  2  1  1  6
  2  3  1  0
  4  6  1  0
  4  2  1  0
  4  5  1  6
  6  7  2  0
  9 11  1  0
  9  8  1  0
 10  9  2  0
 12 11  1  0
 13 12  1  0
 15 14  1  1
 14 13  1  0
 16  6  1  0
 16 15  1  0
 17 15  1  0
 17 18  2  0
 20 19  1  1
 20 22  1  0
 21 20  1  0
 22 23  1  1
 22 24  1  0
 23 17  1  0
 24 26  1  0
 25 24  2  0
M  END
$$$$
