TRV.pdb
     RDKit          3D

 26 25  0  0  1  0  0  0  0  0999 V2000
    7.1723  -12.6120   19.1670 C   0  0  0  0  0  0  0  0  0  0  0  0
    7.9381  -13.7954   18.6149 C   0  0  1  0  0  0  0  0  0  0  0  0
    8.3852  -13.5941   17.3261 O   0  0  0  0  0  0  0  0  0  0  0  0
    9.0493  -14.1190   19.5696 C   0  0  2  0  0  0  0  0  0  0  0  0
    9.9827  -15.0845   19.0846 N   0  0  0  0  0  0  0  0  0  0  0  0
    8.5208  -14.4909   20.9216 C   0  0  0  0  0  0  0  0  0  0  0  0
    7.7431  -13.7072   21.5110 O   0  0  0  0  0  0  0  0  0  0  0  0
   13.7797  -18.5602   22.8585 N   0  0  0  0  0  0  0  0  0  0  0  0
   12.8162  -19.6384   22.7056 C   0  0  0  0  0  0  0  0  0  0  0  0
   12.9260  -20.4521   21.7524 N   0  0  0  0  0  0  0  0  0  0  0  0
   11.7575  -19.7652   23.6388 N   0  0  0  0  0  0  0  0  0  0  0  0
   10.4233  -19.3285   23.4848 C   0  0  0  0  0  0  0  0  0  0  0  0
   10.1635  -17.8770   23.2752 C   0  0  0  0  0  0  0  0  0  0  0  0
    8.6583  -17.5719   23.1114 C   0  0  0  0  0  0  0  0  0  0  0  0
    8.3579  -16.1653   22.7839 C   0  0  2  0  0  0  0  0  0  0  0  0
    8.8862  -15.7053   21.5350 N   0  0  0  0  0  0  0  0  0  0  0  0
    8.6528  -15.2345   23.9287 C   0  0  0  0  0  0  0  0  0  0  0  0
    9.7934  -14.7659   24.1164 O   0  0  0  0  0  0  0  0  0  0  0  0
   12.3495  -21.2232   21.5087 C   0  0  0  0  0  0  0  0  0  0  0  0
    6.9316  -12.0852   27.3416 C   0  0  2  0  0  0  0  0  0  0  0  0
    6.6665  -13.0647   26.2175 C   0  0  0  0  0  0  0  0  0  0  0  0
    6.3330  -12.2227   24.9885 C   0  0  1  0  0  0  0  0  0  0  0  0
    7.8896  -13.9105   25.9266 N   0  0  0  0  0  0  0  0  0  0  0  0
    7.6447  -14.8464   24.8482 C   0  0  0  0  0  0  0  0  0  0  0  0
    8.2574  -14.6658   27.1261 O   0  0  0  0  0  0  0  0  0  0  0  0
    8.0544  -15.9117   27.2237 O   0  0  0  0  0  0  0  0  0  0  0  0
  2  1  1  1
  2  3  1  0
  4  6  1  0
  4  2  1  0
  4  5  1  6
  6  7  2  0
  9 11  1  0
  9  8  1  0
 10  9  2  0
 12 11  1  0
 13 12  1  0
 15 14  1  1
 14 13  1  0
 16  6  1  0
 16 15  1  0
 17 15  1  0
 17 18  2  0
 20 19  1  1
 20 22  1  0
 21 20  1  0
 22 23  1  1
 22 24  1  0
 23 17  1  0
 24 26  1  0
 25 24  2  0
M  END
$$$$
