GTI.pdb
     RDKit          3D

 20 19  0  0  1  0  0  0  0  0999 V2000
   28.8574   -9.1172  -19.8046 N   0  0  0  0  0  0  0  0  0  0  0  0
   30.1736   -8.5510  -19.7505 C   0  0  0  0  0  0  0  0  0  0  0  0
   30.6531   -8.3922  -18.3342 C   0  0  0  0  0  0  0  0  0  0  0  0
   29.8568   -8.3471  -17.3730 O   0  0  0  0  0  0  0  0  0  0  0  0
   32.8629  -10.6292  -16.5727 C   0  0  0  0  0  0  0  0  0  0  0  0
   33.6080   -9.3106  -16.6189 C   0  0  1  0  0  0  0  0  0  0  0  0
   34.4909   -9.3349  -17.6952 O   0  0  0  0  0  0  0  0  0  0  0  0
   32.6267   -8.1442  -16.7784 C   0  0  2  0  0  0  0  0  0  0  0  0
   32.0317   -8.2916  -18.0822 N   0  0  0  0  0  0  0  0  0  0  0  0
   33.4069   -6.8887  -16.7571 C   0  0  0  0  0  0  0  0  0  0  0  0
   33.3564   -6.1443  -17.7644 O   0  0  0  0  0  0  0  0  0  0  0  0
   33.1358   -1.7681  -15.2100 C   0  0  0  0  0  0  0  0  0  0  0  0
   34.3046   -2.7321  -15.2237 C   0  0  0  0  0  0  0  0  0  0  0  0
   33.7355   -4.1224  -15.3335 C   0  0  2  0  0  0  0  0  0  0  0  0
   32.9858   -4.4247  -14.0590 C   0  0  0  0  0  0  0  0  0  0  0  0
   34.7973   -5.1808  -15.4977 C   0  0  2  0  0  0  0  0  0  0  0  0
   34.2048   -6.4919  -15.6543 N   0  0  0  0  0  0  0  0  0  0  0  0
   35.7999   -5.1532  -14.4149 C   0  0  0  0  0  0  0  0  0  0  0  0
   35.7208   -5.9667  -13.4597 O   0  0  0  0  0  0  0  0  0  0  0  0
   36.8579   -4.2556  -14.3866 O   0  0  0  0  0  0  0  0  0  0  0  0
  2  1  1  0
  3  4  2  0
  3  2  1  0
  6  5  1  6
  6  8  1  0
  7  6  1  0
  8  9  1  6
  9  3  1  0
 10  8  1  0
 10 17  1  0
 11 10  2  0
 12 13  1  0
 13 14  1  0
 14 16  1  0
 14 15  1  1
 16 17  1  1
 16 18  1  0
 18 19  2  0
 18 20  1  0
M  END
$$$$
