GTI.pdb
     RDKit          3D

 20 19  0  0  1  0  0  0  0  0999 V2000
   28.0627  -22.2359  -18.9650 N   0  0  0  0  0  0  0  0  0  0  0  0
   27.8679  -23.5943  -19.3803 C   0  0  0  0  0  0  0  0  0  0  0  0
   28.2160  -24.5657  -18.2866 C   0  0  0  0  0  0  0  0  0  0  0  0
   28.7047  -24.1852  -17.2020 O   0  0  0  0  0  0  0  0  0  0  0  0
   25.8840  -27.7938  -17.8754 C   0  0  0  0  0  0  0  0  0  0  0  0
   26.8634  -27.2539  -16.8530 C   0  0  1  0  0  0  0  0  0  0  0  0
   27.0173  -28.1979  -15.8412 O   0  0  0  0  0  0  0  0  0  0  0  0
   28.2196  -26.9676  -17.5068 C   0  0  2  0  0  0  0  0  0  0  0  0
   27.9869  -25.9375  -18.4867 N   0  0  0  0  0  0  0  0  0  0  0  0
   28.6530  -28.1945  -18.2086 C   0  0  0  0  0  0  0  0  0  0  0  0
   28.2280  -28.3917  -19.3713 O   0  0  0  0  0  0  0  0  0  0  0  0
   33.2857  -30.8003  -19.9569 C   0  0  0  0  0  0  0  0  0  0  0  0
   31.7752  -30.8716  -19.8619 C   0  0  0  0  0  0  0  0  0  0  0  0
   31.3964  -30.4687  -18.4608 C   0  0  2  0  0  0  0  0  0  0  0  0
   31.9416  -31.5066  -17.5104 C   0  0  0  0  0  0  0  0  0  0  0  0
   29.9043  -30.4009  -18.2519 C   0  0  2  0  0  0  0  0  0  0  0  0
   29.5227  -29.1520  -17.6282 N   0  0  0  0  0  0  0  0  0  0  0  0
   29.3793  -31.5685  -17.5173 C   0  0  0  0  0  0  0  0  0  0  0  0
   29.3484  -32.6989  -18.0665 O   0  0  0  0  0  0  0  0  0  0  0  0
   28.9027  -31.4916  -16.2162 O   0  0  0  0  0  0  0  0  0  0  0  0
  2  1  1  0
  3  4  2  0
  3  2  1  0
  6  5  1  6
  6  8  1  0
  7  6  1  0
  8  9  1  6
  9  3  1  0
 10  8  1  0
 10 17  1  0
 11 10  2  0
 12 13  1  0
 13 14  1  0
 14 16  1  0
 14 15  1  1
 16 17  1  1
 16 18  1  0
 18 19  2  0
 18 20  1  0
M  END
$$$$
