GTI.pdb
     RDKit          3D

 20 19  0  0  1  0  0  0  0  0999 V2000
   21.8550  -16.7083  -18.6171 N   0  0  0  0  0  0  0  0  0  0  0  0
   22.0868  -15.3222  -18.9014 C   0  0  0  0  0  0  0  0  0  0  0  0
   23.3803  -15.1145  -19.6394 C   0  0  0  0  0  0  0  0  0  0  0  0
   24.1225  -16.0713  -19.9448 O   0  0  0  0  0  0  0  0  0  0  0  0
   25.9221  -12.0696  -22.4987 C   0  0  0  0  0  0  0  0  0  0  0  0
   24.6659  -12.5144  -21.7775 C   0  0  1  0  0  0  0  0  0  0  0  0
   23.8366  -13.1655  -22.6868 O   0  0  0  0  0  0  0  0  0  0  0  0
   25.0152  -13.4605  -20.6235 C   0  0  2  0  0  0  0  0  0  0  0  0
   23.7667  -13.8115  -19.9961 N   0  0  0  0  0  0  0  0  0  0  0  0
   25.8343  -12.7066  -19.6508 C   0  0  0  0  0  0  0  0  0  0  0  0
   25.2926  -11.7637  -19.0271 O   0  0  0  0  0  0  0  0  0  0  0  0
   27.6306  -13.4380  -15.7041 C   0  0  0  0  0  0  0  0  0  0  0  0
   28.2305  -14.2022  -16.8668 C   0  0  0  0  0  0  0  0  0  0  0  0
   28.9624  -13.2051  -17.7265 C   0  0  2  0  0  0  0  0  0  0  0  0
   29.8339  -12.3615  -16.8284 C   0  0  0  0  0  0  0  0  0  0  0  0
   28.0347  -12.2730  -18.4648 C   0  0  2  0  0  0  0  0  0  0  0  0
   27.1972  -13.0011  -19.3937 N   0  0  0  0  0  0  0  0  0  0  0  0
   28.7496  -11.1606  -19.1204 C   0  0  0  0  0  0  0  0  0  0  0  0
   29.3409  -11.3468  -20.2141 O   0  0  0  0  0  0  0  0  0  0  0  0
   28.8105   -9.8813  -18.5858 O   0  0  0  0  0  0  0  0  0  0  0  0
  2  1  1  0
  3  4  2  0
  3  2  1  0
  6  5  1  6
  6  8  1  0
  7  6  1  0
  8  9  1  1
  9  3  1  0
 10  8  1  0
 10 17  1  0
 11 10  2  0
 12 13  1  0
 13 14  1  0
 14 16  1  0
 14 15  1  1
 16 17  1  6
 16 18  1  0
 18 19  2  0
 18 20  1  0
M  END
$$$$
