GTI.pdb
     RDKit          3D

 20 19  0  0  1  0  0  0  0  0999 V2000
   21.8092  -15.4243  -21.5632 N   0  0  0  0  0  0  0  0  0  0  0  0
   21.4167  -14.2510  -20.8384 C   0  0  0  0  0  0  0  0  0  0  0  0
   22.5488  -13.2691  -20.7145 C   0  0  0  0  0  0  0  0  0  0  0  0
   23.7383  -13.6160  -20.8709 O   0  0  0  0  0  0  0  0  0  0  0  0
   22.5269  -10.0340  -22.5498 C   0  0  0  0  0  0  0  0  0  0  0  0
   22.6883   -9.6820  -21.0848 C   0  0  1  0  0  0  0  0  0  0  0  0
   21.4445   -9.3218  -20.5732 O   0  0  0  0  0  0  0  0  0  0  0  0
   23.2452  -10.8769  -20.3032 C   0  0  2  0  0  0  0  0  0  0  0  0
   22.2644  -11.9261  -20.4152 N   0  0  0  0  0  0  0  0  0  0  0  0
   23.3499  -10.4809  -18.8828 C   0  0  0  0  0  0  0  0  0  0  0  0
   22.5487  -10.9930  -18.0659 O   0  0  0  0  0  0  0  0  0  0  0  0
   25.2722  -11.7999  -15.4479 C   0  0  0  0  0  0  0  0  0  0  0  0
   26.0608  -11.2717  -16.6289 C   0  0  0  0  0  0  0  0  0  0  0  0
   25.9420   -9.7702  -16.6097 C   0  0  2  0  0  0  0  0  0  0  0  0
   26.1994   -9.2971  -15.1999 C   0  0  0  0  0  0  0  0  0  0  0  0
   24.5712   -9.2841  -17.0087 C   0  0  2  0  0  0  0  0  0  0  0  0
   24.3105   -9.5532  -18.4066 N   0  0  0  0  0  0  0  0  0  0  0  0
   24.3497   -7.8651  -16.6685 C   0  0  0  0  0  0  0  0  0  0  0  0
   24.6998   -6.9613  -17.4691 O   0  0  0  0  0  0  0  0  0  0  0  0
   23.7598   -7.4553  -15.4810 O   0  0  0  0  0  0  0  0  0  0  0  0
  2  1  1  0
  3  4  2  0
  3  2  1  0
  6  5  1  6
  6  8  1  0
  7  6  1  0
  8  9  1  1
  9  3  1  0
 10  8  1  0
 10 17  1  0
 11 10  2  0
 12 13  1  0
 13 14  1  0
 14 16  1  0
 14 15  1  1
 16 17  1  6
 16 18  1  0
 18 19  2  0
 18 20  1  0
M  END
$$$$
