GTI.pdb
     RDKit          3D

 20 19  0  0  1  0  0  0  0  0999 V2000
   20.2100  -21.4822  -17.8527 N   0  0  0  0  0  0  0  0  0  0  0  0
   21.1487  -20.7177  -17.0844 C   0  0  0  0  0  0  0  0  0  0  0  0
   22.1027  -21.6028  -16.3312 C   0  0  0  0  0  0  0  0  0  0  0  0
   22.0727  -22.8462  -16.4444 O   0  0  0  0  0  0  0  0  0  0  0  0
   24.6944  -22.7186  -17.0729 C   0  0  0  0  0  0  0  0  0  0  0  0
   25.2220  -21.8981  -15.9133 C   0  0  1  0  0  0  0  0  0  0  0  0
   25.6184  -20.6524  -16.3924 O   0  0  0  0  0  0  0  0  0  0  0  0
   24.1394  -21.7224  -14.8429 C   0  0  2  0  0  0  0  0  0  0  0  0
   23.0537  -21.0192  -15.4772 N   0  0  0  0  0  0  0  0  0  0  0  0
   24.6935  -20.8651  -13.7736 C   0  0  0  0  0  0  0  0  0  0  0  0
   24.4214  -19.6417  -13.7963 O   0  0  0  0  0  0  0  0  0  0  0  0
   23.8526  -21.3393   -8.7718 C   0  0  0  0  0  0  0  0  0  0  0  0
   24.1871  -20.8044  -10.1494 C   0  0  0  0  0  0  0  0  0  0  0  0
   25.6752  -20.9463  -10.3343 C   0  0  2  0  0  0  0  0  0  0  0  0
   26.3601  -20.0384   -9.3421 C   0  0  0  0  0  0  0  0  0  0  0  0
   26.1372  -20.5435  -11.7124 C   0  0  2  0  0  0  0  0  0  0  0  0
   25.5140  -21.3626  -12.7297 N   0  0  0  0  0  0  0  0  0  0  0  0
   27.6077  -20.5300  -11.8379 C   0  0  0  0  0  0  0  0  0  0  0  0
   28.2237  -21.5764  -12.1635 O   0  0  0  0  0  0  0  0  0  0  0  0
   28.3757  -19.3966  -11.6110 O   0  0  0  0  0  0  0  0  0  0  0  0
  2  1  1  0
  3  4  2  0
  3  2  1  0
  6  5  1  6
  6  8  1  0
  7  6  1  0
  8  9  1  6
  9  3  1  0
 10  8  1  0
 10 17  1  0
 11 10  2  0
 12 13  1  0
 13 14  1  0
 14 16  1  0
 14 15  1  1
 16 17  1  6
 16 18  1  0
 18 19  2  0
 18 20  1  0
M  END
$$$$
