GTI.pdb
     RDKit          3D

 20 19  0  0  1  0  0  0  0  0999 V2000
   28.0081  -21.4485  -15.7539 N   0  0  0  0  0  0  0  0  0  0  0  0
   27.0627  -21.8961  -14.7732 C   0  0  0  0  0  0  0  0  0  0  0  0
   26.7538  -20.8220  -13.7674 C   0  0  0  0  0  0  0  0  0  0  0  0
   26.6081  -19.6286  -14.1056 O   0  0  0  0  0  0  0  0  0  0  0  0
   24.1968  -19.9199  -13.1176 C   0  0  0  0  0  0  0  0  0  0  0  0
   24.4748  -20.4213  -11.7150 C   0  0  1  0  0  0  0  0  0  0  0  0
   24.0264  -21.7356  -11.6144 O   0  0  0  0  0  0  0  0  0  0  0  0
   25.9754  -20.3597  -11.4099 C   0  0  2  0  0  0  0  0  0  0  0  0
   26.6253  -21.1663  -12.4112 N   0  0  0  0  0  0  0  0  0  0  0  0
   26.1956  -20.9839  -10.0880 C   0  0  0  0  0  0  0  0  0  0  0  0
   26.2417  -22.2350  -10.0255 O   0  0  0  0  0  0  0  0  0  0  0  0
   29.0266  -19.7234   -4.8609 C   0  0  0  0  0  0  0  0  0  0  0  0
   27.9315  -20.5753   -5.4697 C   0  0  0  0  0  0  0  0  0  0  0  0
   27.6078  -19.9892   -6.8191 C   0  0  2  0  0  0  0  0  0  0  0  0
   27.0085  -18.6208   -6.6048 C   0  0  0  0  0  0  0  0  0  0  0  0
   26.6039  -20.8090   -7.5903 C   0  0  2  0  0  0  0  0  0  0  0  0
   26.3561  -20.2344   -8.8952 N   0  0  0  0  0  0  0  0  0  0  0  0
   25.3537  -21.0317   -6.8381 C   0  0  0  0  0  0  0  0  0  0  0  0
   25.3590  -21.7390   -5.7988 O   0  0  0  0  0  0  0  0  0  0  0  0
   24.1343  -20.4908   -7.2207 O   0  0  0  0  0  0  0  0  0  0  0  0
  2  1  1  0
  3  4  2  0
  3  2  1  0
  6  5  1  6
  6  8  1  0
  7  6  1  0
  8  9  1  6
  9  3  1  0
 10  8  1  0
 10 17  1  0
 11 10  2  0
 12 13  1  0
 13 14  1  0
 14 16  1  0
 14 15  1  1
 16 17  1  6
 16 18  1  0
 18 19  2  0
 18 20  1  0
M  END
$$$$
