GTI.pdb
     RDKit          3D

 20 19  0  0  1  0  0  0  0  0999 V2000
   22.5295  -21.5436  -13.3561 N   0  0  0  0  0  0  0  0  0  0  0  0
   22.9435  -20.8274  -12.1849 C   0  0  0  0  0  0  0  0  0  0  0  0
   24.1746  -21.4324  -11.5691 C   0  0  0  0  0  0  0  0  0  0  0  0
   24.4908  -22.6238  -11.7695 O   0  0  0  0  0  0  0  0  0  0  0  0
   27.3671  -21.0975  -12.3427 C   0  0  0  0  0  0  0  0  0  0  0  0
   27.3591  -20.4955  -10.9522 C   0  0  1  0  0  0  0  0  0  0  0  0
   27.2048  -19.1163  -11.0643 O   0  0  0  0  0  0  0  0  0  0  0  0
   26.2126  -21.0803  -10.1201 C   0  0  2  0  0  0  0  0  0  0  0  0
   24.9924  -20.6395  -10.7464 N   0  0  0  0  0  0  0  0  0  0  0  0
   26.2866  -20.4892   -8.7671 C   0  0  0  0  0  0  0  0  0  0  0  0
   25.2821  -19.8771   -8.3339 O   0  0  0  0  0  0  0  0  0  0  0  0
   30.3099  -22.0951   -5.0897 C   0  0  0  0  0  0  0  0  0  0  0  0
   28.8989  -21.7932   -5.5521 C   0  0  0  0  0  0  0  0  0  0  0  0
   28.8702  -20.3512   -5.9865 C   0  0  2  0  0  0  0  0  0  0  0  0
   29.0364  -19.4881   -4.7596 C   0  0  0  0  0  0  0  0  0  0  0  0
   27.5698  -19.9612   -6.6432 C   0  0  2  0  0  0  0  0  0  0  0  0
   27.4364  -20.5836   -7.9429 N   0  0  0  0  0  0  0  0  0  0  0  0
   27.3822  -18.4987   -6.7091 C   0  0  0  0  0  0  0  0  0  0  0  0
   27.7795  -17.8553   -7.7134 O   0  0  0  0  0  0  0  0  0  0  0  0
   26.7747  -17.7678   -5.6978 O   0  0  0  0  0  0  0  0  0  0  0  0
  2  1  1  0
  3  4  2  0
  3  2  1  0
  6  5  1  6
  6  8  1  0
  7  6  1  0
  8  9  1  6
  9  3  1  0
 10  8  1  0
 10 17  1  0
 11 10  2  0
 12 13  1  0
 13 14  1  0
 14 16  1  0
 14 15  1  1
 16 17  1  6
 16 18  1  0
 18 19  2  0
 18 20  1  0
M  END
$$$$
