GTI.pdb
     RDKit          3D

 20 19  0  0  1  0  0  0  0  0999 V2000
   15.0947  -13.9186  -16.4264 N   0  0  0  0  0  0  0  0  0  0  0  0
   15.4195  -12.8636  -15.5114 C   0  0  0  0  0  0  0  0  0  0  0  0
   16.3404  -11.8510  -16.1341 C   0  0  0  0  0  0  0  0  0  0  0  0
   17.0574  -12.1332  -17.1170 O   0  0  0  0  0  0  0  0  0  0  0  0
   15.2098   -8.3493  -17.0304 C   0  0  0  0  0  0  0  0  0  0  0  0
   16.3748   -8.2205  -16.0701 C   0  0  1  0  0  0  0  0  0  0  0  0
   15.8745   -8.0135  -14.7874 O   0  0  0  0  0  0  0  0  0  0  0  0
   17.2339   -9.4894  -16.0941 C   0  0  2  0  0  0  0  0  0  0  0  0
   16.3980  -10.5532  -15.5989 N   0  0  0  0  0  0  0  0  0  0  0  0
   18.3559   -9.2956  -15.1513 C   0  0  0  0  0  0  0  0  0  0  0  0
   18.2677   -9.8137  -14.0132 O   0  0  0  0  0  0  0  0  0  0  0  0
   23.5899  -10.8559  -14.1439 C   0  0  0  0  0  0  0  0  0  0  0  0
   22.8338   -9.5581  -13.9450 C   0  0  0  0  0  0  0  0  0  0  0  0
   21.6318   -9.5981  -14.8519 C   0  0  2  0  0  0  0  0  0  0  0  0
   22.1174   -9.5165  -16.2786 C   0  0  0  0  0  0  0  0  0  0  0  0
   20.6874   -8.4439  -14.6271 C   0  0  2  0  0  0  0  0  0  0  0  0
   19.5201   -8.5542  -15.4755 N   0  0  0  0  0  0  0  0  0  0  0  0
   21.3494   -7.1320  -14.7659 C   0  0  0  0  0  0  0  0  0  0  0  0
   22.2403   -6.7844  -13.9499 O   0  0  0  0  0  0  0  0  0  0  0  0
   21.0381   -6.2308  -15.7743 O   0  0  0  0  0  0  0  0  0  0  0  0
  2  1  1  0
  3  4  2  0
  3  2  1  0
  6  5  1  6
  6  8  1  0
  7  6  1  0
  8  9  1  1
  9  3  1  0
 10  8  1  0
 10 17  1  0
 11 10  2  0
 12 13  1  0
 13 14  1  0
 14 16  1  0
 14 15  1  6
 16 17  1  6
 16 18  1  0
 18 19  2  0
 18 20  1  0
M  END
$$$$
