GTI.pdb
     RDKit          3D

 20 19  0  0  1  0  0  0  0  0999 V2000
   15.0962  -14.8772  -17.7037 N   0  0  0  0  0  0  0  0  0  0  0  0
   14.6604  -13.7441  -16.9406 C   0  0  0  0  0  0  0  0  0  0  0  0
   15.8114  -13.0550  -16.2615 C   0  0  0  0  0  0  0  0  0  0  0  0
   16.5588  -13.6583  -15.4632 O   0  0  0  0  0  0  0  0  0  0  0  0
   18.3143  -10.9956  -18.1230 C   0  0  0  0  0  0  0  0  0  0  0  0
   17.7219  -10.0856  -17.0662 C   0  0  1  0  0  0  0  0  0  0  0  0
   16.7443   -9.2911  -17.6591 O   0  0  0  0  0  0  0  0  0  0  0  0
   17.1034  -10.9104  -15.9321 C   0  0  2  0  0  0  0  0  0  0  0  0
   16.0551  -11.6975  -16.5296 N   0  0  0  0  0  0  0  0  0  0  0  0
   16.4939   -9.9704  -14.9677 C   0  0  0  0  0  0  0  0  0  0  0  0
   15.2474   -9.8377  -14.9789 O   0  0  0  0  0  0  0  0  0  0  0  0
   14.8925   -8.8819   -9.7971 C   0  0  0  0  0  0  0  0  0  0  0  0
   15.4710   -8.0357  -10.9129 C   0  0  0  0  0  0  0  0  0  0  0  0
   16.1554   -8.9718  -11.8743 C   0  0  2  0  0  0  0  0  0  0  0  0
   17.3260   -9.6034  -11.1612 C   0  0  0  0  0  0  0  0  0  0  0  0
   16.6931   -8.2695  -13.0959 C   0  0  2  0  0  0  0  0  0  0  0  0
   17.2522   -9.2168  -14.0363 N   0  0  0  0  0  0  0  0  0  0  0  0
   17.6479   -7.1952  -12.7602 C   0  0  0  0  0  0  0  0  0  0  0  0
   18.8844   -7.3898  -12.8762 O   0  0  0  0  0  0  0  0  0  0  0  0
   17.2507   -5.9439  -12.3101 O   0  0  0  0  0  0  0  0  0  0  0  0
  2  1  1  0
  3  4  2  0
  3  2  1  0
  6  5  1  6
  6  8  1  0
  7  6  1  0
  8  9  1  6
  9  3  1  0
 10  8  1  0
 10 17  1  0
 11 10  2  0
 12 13  1  0
 13 14  1  0
 14 16  1  0
 14 15  1  1
 16 17  1  6
 16 18  1  0
 18 19  2  0
 18 20  1  0
M  END
$$$$
