GTI.pdb
     RDKit          3D

 20 19  0  0  1  0  0  0  0  0999 V2000
   17.0863  -15.5309  -18.2136 N   0  0  0  0  0  0  0  0  0  0  0  0
   17.1215  -14.5203  -17.1971 C   0  0  0  0  0  0  0  0  0  0  0  0
   18.1512  -13.4662  -17.4963 C   0  0  0  0  0  0  0  0  0  0  0  0
   19.3293  -13.7630  -17.7855 O   0  0  0  0  0  0  0  0  0  0  0  0
   17.1720  -10.3665  -19.6531 C   0  0  0  0  0  0  0  0  0  0  0  0
   17.7748   -9.9048  -18.3418 C   0  0  1  0  0  0  0  0  0  0  0  0
   16.7420   -9.5929  -17.4617 O   0  0  0  0  0  0  0  0  0  0  0  0
   18.6566  -11.0039  -17.7392 C   0  0  2  0  0  0  0  0  0  0  0  0
   17.7817  -12.1113  -17.4501 N   0  0  0  0  0  0  0  0  0  0  0  0
   19.2081  -10.4956  -16.4653 C   0  0  0  0  0  0  0  0  0  0  0  0
   18.6045  -10.7809  -15.4043 O   0  0  0  0  0  0  0  0  0  0  0  0
   23.8052  -11.7154  -14.6604 C   0  0  0  0  0  0  0  0  0  0  0  0
   22.3620  -11.2863  -14.8301 C   0  0  0  0  0  0  0  0  0  0  0  0
   22.3548   -9.7858  -14.9626 C   0  0  2  0  0  0  0  0  0  0  0  0
   22.9069   -9.1994  -13.6862 C   0  0  0  0  0  0  0  0  0  0  0  0
   20.9709   -9.2200  -15.1609 C   0  0  2  0  0  0  0  0  0  0  0  0
   20.3825   -9.7046  -16.3911 N   0  0  0  0  0  0  0  0  0  0  0  0
   20.9415   -7.7467  -15.0771 C   0  0  0  0  0  0  0  0  0  0  0  0
   21.0725   -7.1743  -13.9655 O   0  0  0  0  0  0  0  0  0  0  0  0
   20.7727   -6.9294  -16.1859 O   0  0  0  0  0  0  0  0  0  0  0  0
  2  1  1  0
  3  4  2  0
  3  2  1  0
  6  5  1  6
  6  8  1  0
  7  6  1  0
  8  9  1  1
  9  3  1  0
 10  8  1  0
 10 17  1  0
 11 10  2  0
 12 13  1  0
 13 14  1  0
 14 16  1  0
 14 15  1  1
 16 17  1  6
 16 18  1  0
 18 19  2  0
 18 20  1  0
M  END
$$$$
