GTI.pdb
     RDKit          3D

 20 19  0  0  1  0  0  0  0  0999 V2000
   27.7649  -12.4927  -18.7633 N   0  0  0  0  0  0  0  0  0  0  0  0
   28.0347  -11.2002  -18.2043 C   0  0  0  0  0  0  0  0  0  0  0  0
   29.4016  -10.7034  -18.5861 C   0  0  0  0  0  0  0  0  0  0  0  0
   30.2130  -11.4245  -19.2037 O   0  0  0  0  0  0  0  0  0  0  0  0
   30.0733   -7.8476  -20.6979 C   0  0  0  0  0  0  0  0  0  0  0  0
   30.6923   -7.5027  -19.3586 C   0  0  1  0  0  0  0  0  0  0  0  0
   29.7846   -6.7368  -18.6319 O   0  0  0  0  0  0  0  0  0  0  0  0
   31.0355   -8.7779  -18.5809 C   0  0  2  0  0  0  0  0  0  0  0  0
   29.7789   -9.3948  -18.2406 N   0  0  0  0  0  0  0  0  0  0  0  0
   31.7163   -8.3778  -17.3312 C   0  0  0  0  0  0  0  0  0  0  0  0
   31.0150   -8.1959  -16.3082 O   0  0  0  0  0  0  0  0  0  0  0  0
   35.8044   -9.6500  -13.6119 C   0  0  0  0  0  0  0  0  0  0  0  0
   35.7631   -8.4575  -14.5457 C   0  0  0  0  0  0  0  0  0  0  0  0
   34.9159   -8.8460  -15.7290 C   0  0  2  0  0  0  0  0  0  0  0  0
   35.8092   -8.9143  -16.9436 C   0  0  0  0  0  0  0  0  0  0  0  0
   33.8246   -7.8475  -16.0235 C   0  0  2  0  0  0  0  0  0  0  0  0
   33.1189   -8.1919  -17.2391 N   0  0  0  0  0  0  0  0  0  0  0  0
   34.3175   -6.4565  -16.0459 C   0  0  0  0  0  0  0  0  0  0  0  0
   34.6430   -5.8841  -14.9750 O   0  0  0  0  0  0  0  0  0  0  0  0
   34.4474   -5.7189  -17.2143 O   0  0  0  0  0  0  0  0  0  0  0  0
  2  1  1  0
  3  4  2  0
  3  2  1  0
  6  5  1  6
  6  8  1  0
  7  6  1  0
  8  9  1  1
  9  3  1  0
 10  8  1  0
 10 17  1  0
 11 10  2  0
 12 13  1  0
 13 14  1  0
 14 16  1  0
 14 15  1  6
 16 17  1  6
 16 18  1  0
 18 19  2  0
 18 20  1  0
M  END
$$$$
