GTI.pdb
     RDKit          3D

 20 19  0  0  1  0  0  0  0  0999 V2000
   43.2454  -12.0282   -7.7013 N   0  0  0  0  0  0  0  0  0  0  0  0
   43.9063  -12.8577   -8.6661 C   0  0  0  0  0  0  0  0  0  0  0  0
   44.1822  -14.2321   -8.1221 C   0  0  0  0  0  0  0  0  0  0  0  0
   44.0671  -14.4917   -6.9059 O   0  0  0  0  0  0  0  0  0  0  0  0
   42.8979  -17.3878   -9.9548 C   0  0  0  0  0  0  0  0  0  0  0  0
   44.3990  -17.4951   -9.7788 C   0  0  1  0  0  0  0  0  0  0  0  0
   45.0163  -17.0910  -10.9596 O   0  0  0  0  0  0  0  0  0  0  0  0
   44.8687  -16.6111   -8.6184 C   0  0  2  0  0  0  0  0  0  0  0  0
   44.5799  -15.2528   -9.0020 N   0  0  0  0  0  0  0  0  0  0  0  0
   46.3340  -16.7635   -8.4960 C   0  0  0  0  0  0  0  0  0  0  0  0
   47.0551  -15.7719   -8.7567 O   0  0  0  0  0  0  0  0  0  0  0  0
   50.2852  -16.9614   -4.6969 C   0  0  0  0  0  0  0  0  0  0  0  0
   50.0918  -17.7193   -5.9945 C   0  0  0  0  0  0  0  0  0  0  0  0
   48.6553  -17.5357   -6.4090 C   0  0  2  0  0  0  0  0  0  0  0  0
   47.7830  -18.2592   -5.4123 C   0  0  0  0  0  0  0  0  0  0  0  0
   48.3591  -18.1092   -7.7721 C   0  0  2  0  0  0  0  0  0  0  0  0
   46.9559  -17.9744   -8.0992 N   0  0  0  0  0  0  0  0  0  0  0  0
   48.8293  -19.5006   -7.9180 C   0  0  0  0  0  0  0  0  0  0  0  0
   50.0487  -19.7387   -8.1102 O   0  0  0  0  0  0  0  0  0  0  0  0
   47.9803  -20.5965   -7.8539 O   0  0  0  0  0  0  0  0  0  0  0  0
  2  1  1  0
  3  4  2  0
  3  2  1  0
  6  5  1  6
  6  8  1  0
  7  6  1  0
  8  9  1  6
  9  3  1  0
 10  8  1  0
 10 17  1  0
 11 10  2  0
 12 13  1  0
 13 14  1  0
 14 16  1  0
 14 15  1  1
 16 17  1  1
 16 18  1  0
 18 19  2  0
 18 20  1  0
M  END
$$$$
