GTI.pdb
     RDKit          3D

 20 19  0  0  1  0  0  0  0  0999 V2000
   13.4741  -12.0319  -13.6141 N   0  0  0  0  0  0  0  0  0  0  0  0
   13.5945  -10.6043  -13.6729 C   0  0  0  0  0  0  0  0  0  0  0  0
   14.5273  -10.1695  -14.7692 C   0  0  0  0  0  0  0  0  0  0  0  0
   14.1963  -10.2231  -15.9722 O   0  0  0  0  0  0  0  0  0  0  0  0
   14.9089   -8.0859  -16.6643 C   0  0  0  0  0  0  0  0  0  0  0  0
   16.1849   -7.8412  -15.8845 C   0  0  1  0  0  0  0  0  0  0  0  0
   15.8968   -7.0050  -14.8092 O   0  0  0  0  0  0  0  0  0  0  0  0
   16.7641   -9.1645  -15.3727 C   0  0  2  0  0  0  0  0  0  0  0  0
   15.8050   -9.6900  -14.4348 N   0  0  0  0  0  0  0  0  0  0  0  0
   18.0150   -8.8613  -14.6456 C   0  0  0  0  0  0  0  0  0  0  0  0
   17.9510   -8.6896  -13.4055 O   0  0  0  0  0  0  0  0  0  0  0  0
   22.2455  -11.8495  -15.1511 C   0  0  0  0  0  0  0  0  0  0  0  0
   21.1383  -10.9318  -14.6741 C   0  0  0  0  0  0  0  0  0  0  0  0
   21.5691   -9.5196  -14.9724 C   0  0  2  0  0  0  0  0  0  0  0  0
   22.8045   -9.2238  -14.1575 C   0  0  0  0  0  0  0  0  0  0  0  0
   20.5251   -8.4960  -14.6022 C   0  0  2  0  0  0  0  0  0  0  0  0
   19.2761   -8.7568  -15.2851 N   0  0  0  0  0  0  0  0  0  0  0  0
   20.9890   -7.1102  -14.8088 C   0  0  0  0  0  0  0  0  0  0  0  0
   20.8506   -6.5580  -15.9297 O   0  0  0  0  0  0  0  0  0  0  0  0
   21.5874   -6.3560  -13.8092 O   0  0  0  0  0  0  0  0  0  0  0  0
  2  1  1  0
  3  4  2  0
  3  2  1  0
  6  5  1  1
  6  8  1  0
  7  6  1  0
  8  9  1  1
  9  3  1  0
 10  8  1  0
 10 17  1  0
 11 10  2  0
 12 13  1  0
 13 14  1  0
 14 16  1  0
 14 15  1  1
 16 17  1  6
 16 18  1  0
 18 19  2  0
 18 20  1  0
M  END
$$$$
