NQK.pdb
     RDKit          3D

 27 26  0  0  1  0  0  0  0  0999 V2000
   20.9681  -21.1951  -13.1071 N   0  0  0  0  0  0  0  0  0  0  0  0
   19.7187  -20.7964  -12.5901 C   0  0  0  0  0  0  0  0  0  0  0  0
   19.2639  -19.6463  -12.9177 O   0  0  0  0  0  0  0  0  0  0  0  0
   18.9752  -21.7107  -11.6914 C   0  0  0  0  0  0  0  0  0  0  0  0
   18.8610  -23.0925  -12.2421 C   0  0  2  0  0  0  0  0  0  0  0  0
   18.0864  -23.1713  -13.4504 N   0  0  0  0  0  0  0  0  0  0  0  0
   18.3588  -24.0652  -11.2400 C   0  0  0  0  0  0  0  0  0  0  0  0
   17.1836  -23.9576  -10.7662 O   0  0  0  0  0  0  0  0  0  0  0  0
   21.3876  -29.3133  -10.2318 N   0  0  0  0  0  0  0  0  0  0  0  0
   20.2632  -29.6083   -9.4212 C   0  0  0  0  0  0  0  0  0  0  0  0
   20.1981  -30.7387   -8.8842 O   0  0  0  0  0  0  0  0  0  0  0  0
   19.1946  -28.5629   -9.2342 C   0  0  0  0  0  0  0  0  0  0  0  0
   19.5765  -27.3294   -9.9766 C   0  0  0  0  0  0  0  0  0  0  0  0
   18.6183  -26.1787   -9.8610 C   0  0  2  0  0  0  0  0  0  0  0  0
   19.1417  -25.1440  -10.7642 N   0  0  0  0  0  0  0  0  0  0  0  0
   18.6290  -25.6801   -8.4597 C   0  0  0  0  0  0  0  0  0  0  0  0
   19.6552  -25.1614   -8.0025 O   0  0  0  0  0  0  0  0  0  0  0  0
   17.5129  -25.7650   -7.5991 N   0  0  0  0  0  0  0  0  0  0  0  0
   17.4479  -25.1754   -6.2790 C   0  0  1  0  0  0  0  0  0  0  0  0
   16.0287  -24.7775   -5.9880 C   0  0  0  0  0  0  0  0  0  0  0  0
   15.8199  -24.0824   -4.6982 C   0  0  0  0  0  0  0  0  0  0  0  0
   14.3916  -23.5950   -4.6167 C   0  0  0  0  0  0  0  0  0  0  0  0
   14.1512  -22.8480   -3.2999 C   0  0  0  0  0  0  0  0  0  0  0  0
   12.8007  -22.3333   -3.2565 N   0  0  0  0  0  0  0  0  0  0  0  0
   18.0540  -26.0176   -5.2406 C   0  0  0  0  0  0  0  0  0  0  0  0
   18.7139  -25.4754   -4.1466 O   0  0  0  0  0  0  0  0  0  0  0  0
   18.0263  -27.2943   -5.2545 O   0  0  0  0  0  0  0  0  0  0  0  0
  2  1  1  0
  3  2  2  0
  4  2  1  0
  5  6  1  6
  5  4  1  0
  7  5  1  0
  8  7  2  0
  9 10  1  0
 10 11  2  0
 10 12  1  0
 12 13  1  0
 14 13  1  1
 14 15  1  0
 15  7  1  0
 16 18  1  0
 16 14  1  0
 17 16  2  0
 19 18  1  0
 19 25  1  0
 19 20  1  1
 21 20  1  0
 22 21  1  0
 23 24  1  0
 23 22  1  0
 25 26  1  0
 27 25  2  0
M  END
$$$$
