NQK.pdb
     RDKit          3D

 27 26  0  0  1  0  0  0  0  0999 V2000
   16.6637  -11.9989  -15.6608 N   0  0  0  0  0  0  0  0  0  0  0  0
   17.7012  -12.3638  -14.7791 C   0  0  0  0  0  0  0  0  0  0  0  0
   18.1661  -13.5539  -14.8462 O   0  0  0  0  0  0  0  0  0  0  0  0
   18.2188  -11.3694  -13.8096 C   0  0  0  0  0  0  0  0  0  0  0  0
   17.4816  -10.0737  -13.8648 C   0  0  2  0  0  0  0  0  0  0  0  0
   17.7684   -9.2947  -15.0383 N   0  0  0  0  0  0  0  0  0  0  0  0
   17.6733   -9.2568  -12.6406 C   0  0  0  0  0  0  0  0  0  0  0  0
   17.4414   -9.7492  -11.4912 O   0  0  0  0  0  0  0  0  0  0  0  0
   21.1150   -4.2018  -12.6967 N   0  0  0  0  0  0  0  0  0  0  0  0
   21.6740   -5.4705  -12.4028 C   0  0  0  0  0  0  0  0  0  0  0  0
   22.9143   -5.6129  -12.5119 O   0  0  0  0  0  0  0  0  0  0  0  0
   20.7671   -6.5941  -11.9730 C   0  0  0  0  0  0  0  0  0  0  0  0
   19.3713   -6.0861  -11.8627 C   0  0  0  0  0  0  0  0  0  0  0  0
   18.3380   -7.1045  -11.4740 C   0  0  2  0  0  0  0  0  0  0  0  0
   18.1147   -7.9127  -12.6811 N   0  0  0  0  0  0  0  0  0  0  0  0
   17.0834   -6.4000  -11.0971 C   0  0  0  0  0  0  0  0  0  0  0  0
   16.3415   -5.9557  -11.9821 O   0  0  0  0  0  0  0  0  0  0  0  0
   16.6783   -6.2027   -9.7590 N   0  0  0  0  0  0  0  0  0  0  0  0
   15.4928   -5.4751   -9.3594 C   0  0  1  0  0  0  0  0  0  0  0  0
   14.6897   -6.3246   -8.4157 C   0  0  0  0  0  0  0  0  0  0  0  0
   13.4395   -5.7074   -7.9193 C   0  0  0  0  0  0  0  0  0  0  0  0
   12.6902   -6.7070   -7.0687 C   0  0  0  0  0  0  0  0  0  0  0  0
   11.3562   -6.1190   -6.5950 C   0  0  0  0  0  0  0  0  0  0  0  0
   10.5973   -7.1174   -5.8753 N   0  0  0  0  0  0  0  0  0  0  0  0
   15.7864   -4.1314   -8.8464 C   0  0  0  0  0  0  0  0  0  0  0  0
   14.8739   -3.0903   -8.9470 O   0  0  0  0  0  0  0  0  0  0  0  0
   16.8831   -3.8119   -8.2753 O   0  0  0  0  0  0  0  0  0  0  0  0
  2  1  1  0
  3  2  2  0
  4  2  1  0
  5  6  1  6
  5  4  1  0
  7  5  1  0
  8  7  2  0
  9 10  1  0
 10 11  2  0
 10 12  1  0
 12 13  1  0
 14 13  1  6
 14 15  1  0
 15  7  1  0
 16 18  1  0
 16 14  1  0
 17 16  2  0
 19 18  1  0
 19 25  1  0
 19 20  1  1
 21 20  1  0
 22 21  1  0
 23 24  1  0
 23 22  1  0
 25 26  1  0
 27 25  2  0
M  END
$$$$
