NQK.pdb
     RDKit          3D

 27 26  0  0  1  0  0  0  0  0999 V2000
   28.7484  -20.7158  -17.5359 N   0  0  0  0  0  0  0  0  0  0  0  0
   28.9903  -21.8536  -16.7397 C   0  0  0  0  0  0  0  0  0  0  0  0
   30.0743  -22.5073  -16.9262 O   0  0  0  0  0  0  0  0  0  0  0  0
   27.9931  -22.2564  -15.7200 C   0  0  0  0  0  0  0  0  0  0  0  0
   26.8542  -21.2983  -15.6185 C   0  0  2  0  0  0  0  0  0  0  0  0
   27.2335  -19.9980  -15.1372 N   0  0  0  0  0  0  0  0  0  0  0  0
   25.7255  -21.8378  -14.8199 C   0  0  0  0  0  0  0  0  0  0  0  0
   25.2739  -23.0053  -15.0443 O   0  0  0  0  0  0  0  0  0  0  0  0
   24.3131  -20.4786   -8.9708 N   0  0  0  0  0  0  0  0  0  0  0  0
   25.5082  -20.9917   -9.5336 C   0  0  0  0  0  0  0  0  0  0  0  0
   26.5211  -21.0773   -8.8006 O   0  0  0  0  0  0  0  0  0  0  0  0
   25.5205  -21.4128  -10.9800 C   0  0  0  0  0  0  0  0  0  0  0  0
   24.2052  -21.0879  -11.5991 C   0  0  0  0  0  0  0  0  0  0  0  0
   23.9878  -21.6277  -12.9837 C   0  0  2  0  0  0  0  0  0  0  0  0
   25.1004  -21.1003  -13.7862 N   0  0  0  0  0  0  0  0  0  0  0  0
   22.6957  -21.1090  -13.5069 C   0  0  0  0  0  0  0  0  0  0  0  0
   22.6062  -19.9238  -13.8507 O   0  0  0  0  0  0  0  0  0  0  0  0
   21.5376  -21.9061  -13.6380 N   0  0  0  0  0  0  0  0  0  0  0  0
   20.2688  -21.4321  -14.1480 C   0  0  1  0  0  0  0  0  0  0  0  0
   19.4037  -22.6127  -14.4868 C   0  0  0  0  0  0  0  0  0  0  0  0
   18.0410  -22.2815  -14.9598 C   0  0  0  0  0  0  0  0  0  0  0  0
   17.2850  -23.5586  -15.2453 C   0  0  0  0  0  0  0  0  0  0  0  0
   15.8623  -23.2476  -15.7237 C   0  0  0  0  0  0  0  0  0  0  0  0
   15.0998  -24.4694  -15.8524 N   0  0  0  0  0  0  0  0  0  0  0  0
   19.6212  -20.4545  -13.2649 C   0  0  0  0  0  0  0  0  0  0  0  0
   18.9869  -19.3235  -13.7599 O   0  0  0  0  0  0  0  0  0  0  0  0
   19.5863  -20.5588  -11.9925 O   0  0  0  0  0  0  0  0  0  0  0  0
  2  1  1  0
  3  2  2  0
  4  2  1  0
  5  6  1  1
  5  4  1  0
  7  5  1  0
  8  7  2  0
  9 10  1  0
 10 11  2  0
 10 12  1  0
 12 13  1  0
 14 13  1  1
 14 15  1  0
 15  7  1  0
 16 18  1  0
 16 14  1  0
 17 16  2  0
 19 18  1  0
 19 25  1  0
 19 20  1  1
 21 20  1  0
 22 21  1  0
 23 24  1  0
 23 22  1  0
 25 26  1  0
 27 25  2  0
M  END
$$$$
