NQK.pdb
     RDKit          3D

 27 26  0  0  1  0  0  0  0  0999 V2000
   21.1863   -8.8323  -12.9157 N   0  0  0  0  0  0  0  0  0  0  0  0
   20.9735   -7.4478  -12.7579 C   0  0  0  0  0  0  0  0  0  0  0  0
   21.9752   -6.6608  -12.8780 O   0  0  0  0  0  0  0  0  0  0  0  0
   19.6103   -6.9480  -12.4605 C   0  0  0  0  0  0  0  0  0  0  0  0
   18.5973   -8.0413  -12.3968 C   0  0  2  0  0  0  0  0  0  0  0  0
   18.4209   -8.7394  -13.6409 N   0  0  0  0  0  0  0  0  0  0  0  0
   17.2889   -7.5756  -11.8736 C   0  0  0  0  0  0  0  0  0  0  0  0
   16.4443   -7.0197  -12.6449 O   0  0  0  0  0  0  0  0  0  0  0  0
   12.4481  -11.1990   -9.9254 N   0  0  0  0  0  0  0  0  0  0  0  0
   13.5939  -10.5156   -9.4476 C   0  0  0  0  0  0  0  0  0  0  0  0
   14.1112  -10.9018   -8.3735 O   0  0  0  0  0  0  0  0  0  0  0  0
   14.1461   -9.3590  -10.2396 C   0  0  0  0  0  0  0  0  0  0  0  0
   15.0199   -8.5325   -9.3609 C   0  0  0  0  0  0  0  0  0  0  0  0
   15.6042   -7.3036   -9.9966 C   0  0  2  0  0  0  0  0  0  0  0  0
   16.9145   -7.7197  -10.5163 N   0  0  0  0  0  0  0  0  0  0  0  0
   15.7819   -6.2583   -8.9535 C   0  0  0  0  0  0  0  0  0  0  0  0
   16.6291   -6.4174   -8.0658 O   0  0  0  0  0  0  0  0  0  0  0  0
   15.0244   -5.0673   -8.9138 N   0  0  0  0  0  0  0  0  0  0  0  0
   15.0058   -4.1435   -7.8000 C   0  0  1  0  0  0  0  0  0  0  0  0
   15.8661   -2.9572   -8.1313 C   0  0  0  0  0  0  0  0  0  0  0  0
   15.9306   -1.9125   -7.0849 C   0  0  0  0  0  0  0  0  0  0  0  0
   16.8592   -0.8083   -7.5353 C   0  0  0  0  0  0  0  0  0  0  0  0
   17.1469    0.1585   -6.3811 C   0  0  0  0  0  0  0  0  0  0  0  0
   18.0961    1.1664   -6.7981 N   0  0  0  0  0  0  0  0  0  0  0  0
   13.6486   -3.7908   -7.3657 C   0  0  0  0  0  0  0  0  0  0  0  0
   12.5251   -4.1585   -8.0930 O   0  0  0  0  0  0  0  0  0  0  0  0
   13.3909   -3.1297   -6.3038 O   0  0  0  0  0  0  0  0  0  0  0  0
  2  1  1  0
  3  2  2  0
  4  2  1  0
  5  6  1  6
  5  4  1  0
  7  5  1  0
  8  7  2  0
  9 10  1  0
 10 11  2  0
 10 12  1  0
 12 13  1  0
 14 13  1  1
 14 15  1  0
 15  7  1  0
 16 18  1  0
 16 14  1  0
 17 16  2  0
 19 18  1  0
 19 25  1  0
 19 20  1  6
 21 20  1  0
 22 21  1  0
 23 24  1  0
 23 22  1  0
 25 26  1  0
 27 25  2  0
M  END
$$$$
