NQK.pdb
     RDKit          3D

 27 26  0  0  1  0  0  0  0  0999 V2000
   29.2884  -18.4194  -16.1522 N   0  0  0  0  0  0  0  0  0  0  0  0
   27.9965  -18.1525  -16.6491 C   0  0  0  0  0  0  0  0  0  0  0  0
   27.8442  -17.1651  -17.4484 O   0  0  0  0  0  0  0  0  0  0  0  0
   26.8632  -19.0137  -16.2360 C   0  0  0  0  0  0  0  0  0  0  0  0
   27.2489  -20.0151  -15.1998 C   0  0  2  0  0  0  0  0  0  0  0  0
   28.1927  -20.9945  -15.6649 N   0  0  0  0  0  0  0  0  0  0  0  0
   26.0731  -20.6795  -14.5844 C   0  0  0  0  0  0  0  0  0  0  0  0
   25.4747  -21.6254  -15.1883 O   0  0  0  0  0  0  0  0  0  0  0  0
   25.1679  -20.5648   -8.5222 N   0  0  0  0  0  0  0  0  0  0  0  0
   26.2538  -21.1141   -9.2486 C   0  0  0  0  0  0  0  0  0  0  0  0
   27.3245  -21.3385   -8.6374 O   0  0  0  0  0  0  0  0  0  0  0  0
   26.0857  -21.4067  -10.7169 C   0  0  0  0  0  0  0  0  0  0  0  0
   24.7635  -20.8948  -11.1732 C   0  0  0  0  0  0  0  0  0  0  0  0
   24.4823  -21.0397  -12.6415 C   0  0  2  0  0  0  0  0  0  0  0  0
   25.5612  -20.3066  -13.3187 N   0  0  0  0  0  0  0  0  0  0  0  0
   23.1711  -20.4072  -12.9468 C   0  0  0  0  0  0  0  0  0  0  0  0
   23.0127  -19.1974  -12.7414 O   0  0  0  0  0  0  0  0  0  0  0  0
   22.0702  -21.1206  -13.4692 N   0  0  0  0  0  0  0  0  0  0  0  0
   20.7836  -20.5338  -13.7768 C   0  0  1  0  0  0  0  0  0  0  0  0
   20.6136  -20.4770  -15.2684 C   0  0  0  0  0  0  0  0  0  0  0  0
   19.3473  -19.8705  -15.7366 C   0  0  0  0  0  0  0  0  0  0  0  0
   19.2627  -19.9850  -17.2413 C   0  0  0  0  0  0  0  0  0  0  0  0
   18.0203  -19.2581  -17.7683 C   0  0  0  0  0  0  0  0  0  0  0  0
   17.9911  -19.3016  -19.2133 N   0  0  0  0  0  0  0  0  0  0  0  0
   19.6702  -21.1851  -13.0760 C   0  0  0  0  0  0  0  0  0  0  0  0
   19.7703  -22.4762  -12.5766 O   0  0  0  0  0  0  0  0  0  0  0  0
   18.5381  -20.6311  -12.8698 O   0  0  0  0  0  0  0  0  0  0  0  0
  2  1  1  0
  3  2  2  0
  4  2  1  0
  5  6  1  6
  5  4  1  0
  7  5  1  0
  8  7  2  0
  9 10  1  0
 10 11  2  0
 10 12  1  0
 12 13  1  0
 14 13  1  1
 14 15  1  0
 15  7  1  0
 16 18  1  0
 16 14  1  0
 17 16  2  0
 19 18  1  0
 19 25  1  0
 19 20  1  6
 21 20  1  0
 22 21  1  0
 23 24  1  0
 23 22  1  0
 25 26  1  0
 27 25  2  0
M  END
$$$$
