NQK.pdb
     RDKit          3D

 27 26  0  0  1  0  0  0  0  0999 V2000
   17.6315  -16.1612  -15.0315 N   0  0  0  0  0  0  0  0  0  0  0  0
   17.0997  -14.8936  -15.3435 C   0  0  0  0  0  0  0  0  0  0  0  0
   15.8484  -14.6976  -15.1624 O   0  0  0  0  0  0  0  0  0  0  0  0
   17.9953  -13.8350  -15.8668 C   0  0  0  0  0  0  0  0  0  0  0  0
   17.3193  -12.9459  -16.8558 C   0  0  2  0  0  0  0  0  0  0  0  0
   16.9621  -13.6090  -18.0801 N   0  0  0  0  0  0  0  0  0  0  0  0
   18.0982  -11.7152  -17.1409 C   0  0  0  0  0  0  0  0  0  0  0  0
   19.0870  -11.7458  -17.9400 O   0  0  0  0  0  0  0  0  0  0  0  0
   15.9928   -6.1249  -15.6935 N   0  0  0  0  0  0  0  0  0  0  0  0
   17.3458   -5.7420  -15.8697 C   0  0  0  0  0  0  0  0  0  0  0  0
   17.6581   -4.5476  -15.6543 O   0  0  0  0  0  0  0  0  0  0  0  0
   18.3533   -6.7739  -16.3057 C   0  0  0  0  0  0  0  0  0  0  0  0
   17.7005   -8.1120  -16.3500 C   0  0  0  0  0  0  0  0  0  0  0  0
   18.5734   -9.2458  -16.8063 C   0  0  2  0  0  0  0  0  0  0  0  0
   17.7925  -10.4648  -16.5525 N   0  0  0  0  0  0  0  0  0  0  0  0
   19.8146   -9.2598  -15.9869 C   0  0  0  0  0  0  0  0  0  0  0  0
   19.7577   -9.5889  -14.7955 O   0  0  0  0  0  0  0  0  0  0  0  0
   21.0840   -8.9121  -16.4983 N   0  0  0  0  0  0  0  0  0  0  0  0
   22.3022   -8.8793  -15.7178 C   0  0  1  0  0  0  0  0  0  0  0  0
   23.4185   -9.4801  -16.5238 C   0  0  0  0  0  0  0  0  0  0  0  0
   24.7104   -9.6107  -15.8136 C   0  0  0  0  0  0  0  0  0  0  0  0
   25.6802  -10.3862  -16.6752 C   0  0  0  0  0  0  0  0  0  0  0  0
   27.0248  -10.5522  -15.9581 C   0  0  0  0  0  0  0  0  0  0  0  0
   27.8891  -11.4311  -16.7139 N   0  0  0  0  0  0  0  0  0  0  0  0
   22.6070   -7.5477  -15.1801 C   0  0  0  0  0  0  0  0  0  0  0  0
   23.0710   -7.3663  -13.8847 O   0  0  0  0  0  0  0  0  0  0  0  0
   22.4745   -6.4650  -15.8444 O   0  0  0  0  0  0  0  0  0  0  0  0
  2  1  1  0
  3  2  2  0
  4  2  1  0
  5  6  1  6
  5  4  1  0
  7  5  1  0
  8  7  2  0
  9 10  1  0
 10 11  2  0
 10 12  1  0
 12 13  1  0
 14 13  1  1
 14 15  1  0
 15  7  1  0
 16 18  1  0
 16 14  1  0
 17 16  2  0
 19 18  1  0
 19 25  1  0
 19 20  1  6
 21 20  1  0
 22 21  1  0
 23 24  1  0
 23 22  1  0
 25 26  1  0
 27 25  2  0
M  END
$$$$
