NQK.pdb
     RDKit          3D

 27 26  0  0  1  0  0  0  0  0999 V2000
   26.5458  -24.4081  -14.7464 N   0  0  0  0  0  0  0  0  0  0  0  0
   26.5385  -23.4839  -15.8107 C   0  0  0  0  0  0  0  0  0  0  0  0
   27.2546  -23.7365  -16.8406 O   0  0  0  0  0  0  0  0  0  0  0  0
   25.7106  -22.2590  -15.7082 C   0  0  0  0  0  0  0  0  0  0  0  0
   24.8107  -22.2702  -14.5184 C   0  0  2  0  0  0  0  0  0  0  0  0
   23.9430  -23.4147  -14.4603 N   0  0  0  0  0  0  0  0  0  0  0  0
   24.0260  -21.0174  -14.3861 C   0  0  0  0  0  0  0  0  0  0  0  0
   24.5964  -19.9277  -14.0628 O   0  0  0  0  0  0  0  0  0  0  0  0
   23.6319  -17.9128  -18.1282 N   0  0  0  0  0  0  0  0  0  0  0  0
   22.6437  -17.1280  -17.4833 C   0  0  0  0  0  0  0  0  0  0  0  0
   22.4031  -15.9850  -17.9373 O   0  0  0  0  0  0  0  0  0  0  0  0
   21.9227  -17.6891  -16.2853 C   0  0  0  0  0  0  0  0  0  0  0  0
   22.5070  -19.0134  -15.9341 C   0  0  0  0  0  0  0  0  0  0  0  0
   21.8865  -19.7050  -14.7541 C   0  0  2  0  0  0  0  0  0  0  0  0
   22.6290  -20.9648  -14.6064 N   0  0  0  0  0  0  0  0  0  0  0  0
   20.4589  -19.9912  -15.0578 C   0  0  0  0  0  0  0  0  0  0  0  0
   20.1732  -20.8304  -15.9211 O   0  0  0  0  0  0  0  0  0  0  0  0
   19.3844  -19.3481  -14.4054 N   0  0  0  0  0  0  0  0  0  0  0  0
   18.2545  -20.0331  -13.8153 C   0  0  1  0  0  0  0  0  0  0  0  0
   18.7565  -21.0519  -12.8319 C   0  0  0  0  0  0  0  0  0  0  0  0
   17.7064  -21.8311  -12.1387 C   0  0  0  0  0  0  0  0  0  0  0  0
   18.3549  -22.8267  -11.2046 C   0  0  0  0  0  0  0  0  0  0  0  0
   17.2911  -23.5923  -10.4098 C   0  0  0  0  0  0  0  0  0  0  0  0
   17.9166  -24.3990   -9.3857 N   0  0  0  0  0  0  0  0  0  0  0  0
   17.2496  -19.1173  -13.2616 C   0  0  0  0  0  0  0  0  0  0  0  0
   17.5871  -17.8609  -12.7778 O   0  0  0  0  0  0  0  0  0  0  0  0
   16.0052  -19.3922  -13.1796 O   0  0  0  0  0  0  0  0  0  0  0  0
  2  1  1  0
  3  2  2  0
  4  2  1  0
  5  6  1  6
  5  4  1  0
  7  5  1  0
  8  7  2  0
  9 10  1  0
 10 11  2  0
 10 12  1  0
 12 13  1  0
 14 13  1  6
 14 15  1  0
 15  7  1  0
 16 18  1  0
 16 14  1  0
 17 16  2  0
 19 18  1  0
 19 25  1  0
 19 20  1  1
 21 20  1  0
 22 21  1  0
 23 24  1  0
 23 22  1  0
 25 26  1  0
 27 25  2  0
M  END
$$$$
