NQK.pdb
     RDKit          3D

 27 26  0  0  1  0  0  0  0  0999 V2000
   28.8321  -20.8322  -17.3811 N   0  0  0  0  0  0  0  0  0  0  0  0
   28.7654  -22.1127  -16.7954 C   0  0  0  0  0  0  0  0  0  0  0  0
   29.6982  -22.9493  -17.0542 O   0  0  0  0  0  0  0  0  0  0  0  0
   27.6290  -22.4502  -15.9059 C   0  0  0  0  0  0  0  0  0  0  0  0
   26.6804  -21.3128  -15.7268 C   0  0  2  0  0  0  0  0  0  0  0  0
   27.2863  -20.1376  -15.1631 N   0  0  0  0  0  0  0  0  0  0  0  0
   25.4725  -21.6950  -14.9538 C   0  0  0  0  0  0  0  0  0  0  0  0
   24.8219  -22.7474  -15.2482 O   0  0  0  0  0  0  0  0  0  0  0  0
   24.6360  -20.1845   -9.0974 N   0  0  0  0  0  0  0  0  0  0  0  0
   25.6581  -20.9387   -9.7259 C   0  0  0  0  0  0  0  0  0  0  0  0
   26.7273  -21.1276   -9.1001 O   0  0  0  0  0  0  0  0  0  0  0  0
   25.4269  -21.4825  -11.1117 C   0  0  0  0  0  0  0  0  0  0  0  0
   24.1581  -20.9228  -11.6554 C   0  0  0  0  0  0  0  0  0  0  0  0
   23.8221  -21.3234  -13.0634 C   0  0  2  0  0  0  0  0  0  0  0  0
   24.9857  -20.9272  -13.8691 N   0  0  0  0  0  0  0  0  0  0  0  0
   22.6191  -20.5690  -13.5061 C   0  0  0  0  0  0  0  0  0  0  0  0
   22.7519  -19.4482  -14.0132 O   0  0  0  0  0  0  0  0  0  0  0  0
   21.3036  -21.0661  -13.3797 N   0  0  0  0  0  0  0  0  0  0  0  0
   20.1320  -20.4431  -13.9575 C   0  0  1  0  0  0  0  0  0  0  0  0
   20.3451  -20.2710  -15.4347 C   0  0  0  0  0  0  0  0  0  0  0  0
   19.2859  -20.8425  -16.2960 C   0  0  0  0  0  0  0  0  0  0  0  0
   19.8836  -21.2484  -17.6235 C   0  0  0  0  0  0  0  0  0  0  0  0
   18.8008  -21.8050  -18.5547 C   0  0  0  0  0  0  0  0  0  0  0  0
   19.3705  -22.1371  -19.8415 N   0  0  0  0  0  0  0  0  0  0  0  0
   18.8829  -21.1332  -13.6136 C   0  0  0  0  0  0  0  0  0  0  0  0
   17.6653  -20.4688  -13.5640 O   0  0  0  0  0  0  0  0  0  0  0  0
   18.8109  -22.3779  -13.3366 O   0  0  0  0  0  0  0  0  0  0  0  0
  2  1  1  0
  3  2  2  0
  4  2  1  0
  5  6  1  1
  5  4  1  0
  7  5  1  0
  8  7  2  0
  9 10  1  0
 10 11  2  0
 10 12  1  0
 12 13  1  0
 14 13  1  1
 14 15  1  0
 15  7  1  0
 16 18  1  0
 16 14  1  0
 17 16  2  0
 19 18  1  0
 19 25  1  0
 19 20  1  6
 21 20  1  0
 22 21  1  0
 23 24  1  0
 23 22  1  0
 25 26  1  0
 27 25  2  0
M  END
$$$$
