NQK.pdb
     RDKit          3D

 27 26  0  0  1  0  0  0  0  0999 V2000
   23.2242   -5.6200  -15.0234 N   0  0  0  0  0  0  0  0  0  0  0  0
   22.2694   -4.9606  -14.2230 C   0  0  0  0  0  0  0  0  0  0  0  0
   22.6809   -4.1028  -13.3674 O   0  0  0  0  0  0  0  0  0  0  0  0
   20.8313   -5.2761  -14.3930 C   0  0  0  0  0  0  0  0  0  0  0  0
   20.5900   -6.3233  -15.4277 C   0  0  2  0  0  0  0  0  0  0  0  0
   20.7350   -5.8479  -16.7765 N   0  0  0  0  0  0  0  0  0  0  0  0
   19.2821   -7.0033  -15.2555 C   0  0  0  0  0  0  0  0  0  0  0  0
   18.2254   -6.5122  -15.7650 O   0  0  0  0  0  0  0  0  0  0  0  0
   18.7356  -12.8720  -15.4433 N   0  0  0  0  0  0  0  0  0  0  0  0
   17.3656  -12.6161  -15.1866 C   0  0  0  0  0  0  0  0  0  0  0  0
   16.5477  -13.5537  -15.3373 O   0  0  0  0  0  0  0  0  0  0  0  0
   16.9427  -11.2391  -14.7455 C   0  0  0  0  0  0  0  0  0  0  0  0
   18.1232  -10.3310  -14.7657 C   0  0  0  0  0  0  0  0  0  0  0  0
   17.8534   -8.9059  -14.3755 C   0  0  2  0  0  0  0  0  0  0  0  0
   19.1387   -8.2100  -14.5300 N   0  0  0  0  0  0  0  0  0  0  0  0
   17.4249   -8.8679  -12.9517 C   0  0  0  0  0  0  0  0  0  0  0  0
   18.2781   -8.8722  -12.0555 O   0  0  0  0  0  0  0  0  0  0  0  0
   16.0716   -8.8263  -12.5512 N   0  0  0  0  0  0  0  0  0  0  0  0
   15.6243   -8.7634  -11.1763 C   0  0  1  0  0  0  0  0  0  0  0  0
   14.1264   -8.6509  -11.1517 C   0  0  0  0  0  0  0  0  0  0  0  0
   13.5244   -8.5332   -9.8048 C   0  0  0  0  0  0  0  0  0  0  0  0
   12.0393   -8.2869   -9.9390 C   0  0  0  0  0  0  0  0  0  0  0  0
   11.4001   -8.0817   -8.5610 C   0  0  0  0  0  0  0  0  0  0  0  0
    9.9787   -7.8543   -8.6981 N   0  0  0  0  0  0  0  0  0  0  0  0
   16.1522   -9.8539  -10.3475 C   0  0  0  0  0  0  0  0  0  0  0  0
   16.7089   -9.6239   -9.0971 O   0  0  0  0  0  0  0  0  0  0  0  0
   16.1444  -11.0819  -10.6984 O   0  0  0  0  0  0  0  0  0  0  0  0
  2  1  1  0
  3  2  2  0
  4  2  1  0
  5  6  1  6
  5  4  1  0
  7  5  1  0
  8  7  2  0
  9 10  1  0
 10 11  2  0
 10 12  1  0
 12 13  1  0
 14 13  1  1
 14 15  1  0
 15  7  1  0
 16 18  1  0
 16 14  1  0
 17 16  2  0
 19 18  1  0
 19 25  1  0
 19 20  1  6
 21 20  1  0
 22 21  1  0
 23 24  1  0
 23 22  1  0
 25 26  1  0
 27 25  2  0
M  END
$$$$
