NQK.pdb
     RDKit          3D

 27 26  0  0  1  0  0  0  0  0999 V2000
   19.5146  -16.4023  -17.7910 N   0  0  0  0  0  0  0  0  0  0  0  0
   19.0524  -15.0807  -17.6272 C   0  0  0  0  0  0  0  0  0  0  0  0
   17.9064  -14.7733  -18.1059 O   0  0  0  0  0  0  0  0  0  0  0  0
   19.8979  -14.0950  -16.9130 C   0  0  0  0  0  0  0  0  0  0  0  0
   20.0007  -12.7939  -17.6355 C   0  0  2  0  0  0  0  0  0  0  0  0
   20.5129  -12.9141  -18.9732 N   0  0  0  0  0  0  0  0  0  0  0  0
   20.7714  -11.7792  -16.8745 C   0  0  0  0  0  0  0  0  0  0  0  0
   20.5559  -11.5993  -15.6341 O   0  0  0  0  0  0  0  0  0  0  0  0
   25.8077   -9.0356  -19.1037 N   0  0  0  0  0  0  0  0  0  0  0  0
   25.7633   -8.3567  -17.8605 C   0  0  0  0  0  0  0  0  0  0  0  0
   26.7241   -7.6122  -17.5554 O   0  0  0  0  0  0  0  0  0  0  0  0
   24.5739   -8.5512  -16.9564 C   0  0  0  0  0  0  0  0  0  0  0  0
   23.6388   -9.5311  -17.5760 C   0  0  0  0  0  0  0  0  0  0  0  0
   22.3986   -9.8350  -16.7854 C   0  0  2  0  0  0  0  0  0  0  0  0
   21.7677  -10.9710  -17.4722 N   0  0  0  0  0  0  0  0  0  0  0  0
   21.4967   -8.6531  -16.8283 C   0  0  0  0  0  0  0  0  0  0  0  0
   20.5901   -8.6053  -17.6691 O   0  0  0  0  0  0  0  0  0  0  0  0
   21.6152   -7.5563  -15.9470 N   0  0  0  0  0  0  0  0  0  0  0  0
   20.6354   -6.4993  -15.8162 C   0  0  1  0  0  0  0  0  0  0  0  0
   19.2805   -7.1098  -15.5955 C   0  0  0  0  0  0  0  0  0  0  0  0
   18.2854   -6.8381  -16.6567 C   0  0  0  0  0  0  0  0  0  0  0  0
   16.9755   -7.5009  -16.2975 C   0  0  0  0  0  0  0  0  0  0  0  0
   15.9084   -7.1943  -17.3543 C   0  0  0  0  0  0  0  0  0  0  0  0
   14.6412   -7.7736  -16.9679 N   0  0  0  0  0  0  0  0  0  0  0  0
   21.0039   -5.4920  -14.8139 C   0  0  0  0  0  0  0  0  0  0  0  0
   21.4914   -4.2427  -15.1718 O   0  0  0  0  0  0  0  0  0  0  0  0
   20.9092   -5.6749  -13.5535 O   0  0  0  0  0  0  0  0  0  0  0  0
  2  1  1  0
  3  2  2  0
  4  2  1  0
  5  6  1  6
  5  4  1  0
  7  5  1  0
  8  7  2  0
  9 10  1  0
 10 11  2  0
 10 12  1  0
 12 13  1  0
 14 13  1  6
 14 15  1  0
 15  7  1  0
 16 18  1  0
 16 14  1  0
 17 16  2  0
 19 18  1  0
 19 25  1  0
 19 20  1  1
 21 20  1  0
 22 21  1  0
 23 24  1  0
 23 22  1  0
 25 26  1  0
 27 25  2  0
M  END
$$$$
