NQK.pdb
     RDKit          3D

 27 26  0  0  1  0  0  0  0  0999 V2000
   24.1903  -18.4211  -19.1399 N   0  0  0  0  0  0  0  0  0  0  0  0
   24.9014  -19.4527  -18.4941 C   0  0  0  0  0  0  0  0  0  0  0  0
   26.0182  -19.8270  -18.9940 O   0  0  0  0  0  0  0  0  0  0  0  0
   24.3417  -20.0682  -17.2676 C   0  0  0  0  0  0  0  0  0  0  0  0
   23.9400  -19.0565  -16.2475 C   0  0  2  0  0  0  0  0  0  0  0  0
   25.0026  -18.1670  -15.8655 N   0  0  0  0  0  0  0  0  0  0  0  0
   23.3227  -19.6726  -15.0466 C   0  0  0  0  0  0  0  0  0  0  0  0
   24.0351  -20.3098  -14.2076 O   0  0  0  0  0  0  0  0  0  0  0  0
   22.5640  -19.3182  -10.6760 N   0  0  0  0  0  0  0  0  0  0  0  0
   21.1821  -19.4444  -10.3882 C   0  0  0  0  0  0  0  0  0  0  0  0
   20.8438  -19.7460   -9.2198 O   0  0  0  0  0  0  0  0  0  0  0  0
   20.1763  -19.2137  -11.4858 C   0  0  0  0  0  0  0  0  0  0  0  0
   20.8937  -18.9243  -12.7587 C   0  0  0  0  0  0  0  0  0  0  0  0
   21.3267  -20.1264  -13.5482 C   0  0  2  0  0  0  0  0  0  0  0  0
   21.9368  -19.5889  -14.7726 N   0  0  0  0  0  0  0  0  0  0  0  0
   20.1271  -20.9353  -13.8933 C   0  0  0  0  0  0  0  0  0  0  0  0
   19.2693  -20.4652  -14.6510 O   0  0  0  0  0  0  0  0  0  0  0  0
   19.9025  -22.2378  -13.3967 N   0  0  0  0  0  0  0  0  0  0  0  0
   18.7616  -23.0605  -13.7374 C   0  0  1  0  0  0  0  0  0  0  0  0
   18.9536  -24.4321  -13.1553 C   0  0  0  0  0  0  0  0  0  0  0  0
   17.8327  -25.3732  -13.3744 C   0  0  0  0  0  0  0  0  0  0  0  0
   18.1142  -26.6669  -12.6455 C   0  0  0  0  0  0  0  0  0  0  0  0
   17.0305  -27.7063  -12.9535 C   0  0  0  0  0  0  0  0  0  0  0  0
   17.3067  -28.9397  -12.2513 N   0  0  0  0  0  0  0  0  0  0  0  0
   17.4781  -22.4402  -13.3869 C   0  0  0  0  0  0  0  0  0  0  0  0
   16.3397  -22.6185  -14.1606 O   0  0  0  0  0  0  0  0  0  0  0  0
   17.3026  -21.6994  -12.3615 O   0  0  0  0  0  0  0  0  0  0  0  0
  2  1  1  0
  3  2  2  0
  4  2  1  0
  5  6  1  1
  5  4  1  0
  7  5  1  0
  8  7  2  0
  9 10  1  0
 10 11  2  0
 10 12  1  0
 12 13  1  0
 14 13  1  1
 14 15  1  0
 15  7  1  0
 16 18  1  0
 16 14  1  0
 17 16  2  0
 19 18  1  0
 19 25  1  0
 19 20  1  1
 21 20  1  0
 22 21  1  0
 23 24  1  0
 23 22  1  0
 25 26  1  0
 27 25  2  0
M  END
$$$$
