NQK.pdb
     RDKit          3D

 27 26  0  0  1  0  0  0  0  0999 V2000
   17.8752  -13.6040  -15.2234 N   0  0  0  0  0  0  0  0  0  0  0  0
   18.5802  -12.7319  -16.0774 C   0  0  0  0  0  0  0  0  0  0  0  0
   19.4117  -13.2355  -16.9094 O   0  0  0  0  0  0  0  0  0  0  0  0
   18.3413  -11.2719  -15.9887 C   0  0  0  0  0  0  0  0  0  0  0  0
   17.3957  -10.9088  -14.8934 C   0  0  2  0  0  0  0  0  0  0  0  0
   16.0125  -11.0922  -15.2390 N   0  0  0  0  0  0  0  0  0  0  0  0
   17.6232   -9.5364  -14.3763 C   0  0  0  0  0  0  0  0  0  0  0  0
   17.2367   -8.5225  -15.0398 O   0  0  0  0  0  0  0  0  0  0  0  0
   17.2399   -5.0850   -9.8718 N   0  0  0  0  0  0  0  0  0  0  0  0
   17.7958   -6.3626   -9.6130 C   0  0  0  0  0  0  0  0  0  0  0  0
   17.2697   -7.0701   -8.7224 O   0  0  0  0  0  0  0  0  0  0  0  0
   18.9889   -6.8226  -10.4096 C   0  0  0  0  0  0  0  0  0  0  0  0
   18.6371   -8.0658  -11.1507 C   0  0  0  0  0  0  0  0  0  0  0  0
   18.5414   -7.9275  -12.6431 C   0  0  2  0  0  0  0  0  0  0  0  0
   18.2695   -9.2826  -13.1430 N   0  0  0  0  0  0  0  0  0  0  0  0
   19.8472   -7.4466  -13.1684 C   0  0  0  0  0  0  0  0  0  0  0  0
   20.8463   -8.1713  -13.0810 O   0  0  0  0  0  0  0  0  0  0  0  0
   20.0199   -6.1832  -13.7748 N   0  0  0  0  0  0  0  0  0  0  0  0
   21.2892   -5.6587  -14.2311 C   0  0  1  0  0  0  0  0  0  0  0  0
   21.2563   -5.5249  -15.7271 C   0  0  0  0  0  0  0  0  0  0  0  0
   22.4820   -4.9636  -16.3377 C   0  0  0  0  0  0  0  0  0  0  0  0
   22.3852   -5.0669  -17.8425 C   0  0  0  0  0  0  0  0  0  0  0  0
   23.6766   -4.5689  -18.5012 C   0  0  0  0  0  0  0  0  0  0  0  0
   23.6537   -4.8475  -19.9199 N   0  0  0  0  0  0  0  0  0  0  0  0
   21.6906   -4.4313  -13.5332 C   0  0  0  0  0  0  0  0  0  0  0  0
   23.0240   -4.0999  -13.3361 O   0  0  0  0  0  0  0  0  0  0  0  0
   20.8648   -3.5809  -13.0578 O   0  0  0  0  0  0  0  0  0  0  0  0
  2  1  1  0
  3  2  2  0
  4  2  1  0
  5  6  1  6
  5  4  1  0
  7  5  1  0
  8  7  2  0
  9 10  1  0
 10 11  2  0
 10 12  1  0
 12 13  1  0
 14 13  1  1
 14 15  1  0
 15  7  1  0
 16 18  1  0
 16 14  1  0
 17 16  2  0
 19 18  1  0
 19 25  1  0
 19 20  1  6
 21 20  1  0
 22 21  1  0
 23 24  1  0
 23 22  1  0
 25 26  1  0
 27 25  2  0
M  END
$$$$
