NQK.pdb
     RDKit          3D

 27 26  0  0  1  0  0  0  0  0999 V2000
   22.2182  -16.8283  -19.2928 N   0  0  0  0  0  0  0  0  0  0  0  0
   21.4565  -15.6498  -19.1590 C   0  0  0  0  0  0  0  0  0  0  0  0
   20.3678  -15.5503  -19.8238 O   0  0  0  0  0  0  0  0  0  0  0  0
   21.9330  -14.5707  -18.2617 C   0  0  0  0  0  0  0  0  0  0  0  0
   21.7637  -13.2122  -18.8546 C   0  0  2  0  0  0  0  0  0  0  0  0
   22.2617  -13.1015  -20.1985 N   0  0  0  0  0  0  0  0  0  0  0  0
   22.3361  -12.1424  -17.9998 C   0  0  0  0  0  0  0  0  0  0  0  0
   21.9649  -12.0126  -16.7904 O   0  0  0  0  0  0  0  0  0  0  0  0
   27.2957   -8.9578  -19.7692 N   0  0  0  0  0  0  0  0  0  0  0  0
   27.1953   -8.4212  -18.4614 C   0  0  0  0  0  0  0  0  0  0  0  0
   28.1080   -7.6628  -18.0587 O   0  0  0  0  0  0  0  0  0  0  0  0
   26.0060   -8.7773  -17.6077 C   0  0  0  0  0  0  0  0  0  0  0  0
   25.1527   -9.7575  -18.3356 C   0  0  0  0  0  0  0  0  0  0  0  0
   23.8971  -10.1779  -17.6268 C   0  0  2  0  0  0  0  0  0  0  0  0
   23.3056  -11.2255  -18.4711 N   0  0  0  0  0  0  0  0  0  0  0  0
   22.9756   -9.0132  -17.5448 C   0  0  0  0  0  0  0  0  0  0  0  0
   22.4567   -8.5697  -18.5768 O   0  0  0  0  0  0  0  0  0  0  0  0
   22.6495   -8.3678  -16.3321 N   0  0  0  0  0  0  0  0  0  0  0  0
   21.6342   -7.3459  -16.1937 C   0  0  1  0  0  0  0  0  0  0  0  0
   20.3431   -7.8549  -16.7691 C   0  0  0  0  0  0  0  0  0  0  0  0
   19.1982   -6.9221  -16.6732 C   0  0  0  0  0  0  0  0  0  0  0  0
   17.9613   -7.5871  -17.2320 C   0  0  0  0  0  0  0  0  0  0  0  0
   16.8026   -6.5871  -17.3156 C   0  0  0  0  0  0  0  0  0  0  0  0
   15.7051   -7.1553  -18.0663 N   0  0  0  0  0  0  0  0  0  0  0  0
   21.5134   -6.8346  -14.8229 C   0  0  0  0  0  0  0  0  0  0  0  0
   20.8358   -5.6583  -14.5339 O   0  0  0  0  0  0  0  0  0  0  0  0
   22.0106   -7.4163  -13.8005 O   0  0  0  0  0  0  0  0  0  0  0  0
  2  1  1  0
  3  2  2  0
  4  2  1  0
  5  6  1  6
  5  4  1  0
  7  5  1  0
  8  7  2  0
  9 10  1  0
 10 11  2  0
 10 12  1  0
 12 13  1  0
 14 13  1  6
 14 15  1  0
 15  7  1  0
 16 18  1  0
 16 14  1  0
 17 16  2  0
 19 18  1  0
 19 25  1  0
 19 20  1  1
 21 20  1  0
 22 21  1  0
 23 24  1  0
 23 22  1  0
 25 26  1  0
 27 25  2  0
M  END
$$$$
