NQK.pdb
     RDKit          3D

 27 26  0  0  1  0  0  0  0  0999 V2000
   13.3626  -13.3927   -9.6445 N   0  0  0  0  0  0  0  0  0  0  0  0
   13.9749  -13.1182  -10.8842 C   0  0  0  0  0  0  0  0  0  0  0  0
   14.3849  -14.1026  -11.5913 O   0  0  0  0  0  0  0  0  0  0  0  0
   14.1249  -11.7125  -11.3289 C   0  0  0  0  0  0  0  0  0  0  0  0
   13.5372  -10.7377  -10.3646 C   0  0  2  0  0  0  0  0  0  0  0  0
   12.1072  -10.8279  -10.2502 N   0  0  0  0  0  0  0  0  0  0  0  0
   13.9475   -9.3396  -10.6468 C   0  0  0  0  0  0  0  0  0  0  0  0
   13.3626   -8.6636  -11.5514 O   0  0  0  0  0  0  0  0  0  0  0  0
   14.5409   -5.2800   -6.6508 N   0  0  0  0  0  0  0  0  0  0  0  0
   15.1905   -4.4944   -7.6353 C   0  0  0  0  0  0  0  0  0  0  0  0
   15.4191   -3.2894   -7.3781 O   0  0  0  0  0  0  0  0  0  0  0  0
   15.5805   -5.1284   -8.9452 C   0  0  0  0  0  0  0  0  0  0  0  0
   15.2044   -6.5695   -8.9265 C   0  0  0  0  0  0  0  0  0  0  0  0
   15.4087   -7.3110  -10.2165 C   0  0  2  0  0  0  0  0  0  0  0  0
   14.9904   -8.6929   -9.9416 N   0  0  0  0  0  0  0  0  0  0  0  0
   16.8537   -7.2798  -10.5678 C   0  0  0  0  0  0  0  0  0  0  0  0
   17.6792   -7.8046   -9.8101 O   0  0  0  0  0  0  0  0  0  0  0  0
   17.3523   -6.6732  -11.7413 N   0  0  0  0  0  0  0  0  0  0  0  0
   18.7471   -6.6551  -12.1266 C   0  0  1  0  0  0  0  0  0  0  0  0
   19.0415   -7.8679  -12.9629 C   0  0  0  0  0  0  0  0  0  0  0  0
   20.4462   -8.0007  -13.4096 C   0  0  0  0  0  0  0  0  0  0  0  0
   20.6081   -9.2919  -14.1782 C   0  0  0  0  0  0  0  0  0  0  0  0
   22.0747   -9.5066  -14.5690 C   0  0  0  0  0  0  0  0  0  0  0  0
   22.2652  -10.8460  -15.0792 N   0  0  0  0  0  0  0  0  0  0  0  0
   19.1574   -5.3903  -12.7486 C   0  0  0  0  0  0  0  0  0  0  0  0
   20.4621   -4.9229  -12.6729 O   0  0  0  0  0  0  0  0  0  0  0  0
   18.3658   -4.6278  -13.3991 O   0  0  0  0  0  0  0  0  0  0  0  0
  2  1  1  0
  3  2  2  0
  4  2  1  0
  5  6  1  6
  5  4  1  0
  7  5  1  0
  8  7  2  0
  9 10  1  0
 10 11  2  0
 10 12  1  0
 12 13  1  0
 14 13  1  1
 14 15  1  0
 15  7  1  0
 16 18  1  0
 16 14  1  0
 17 16  2  0
 19 18  1  0
 19 25  1  0
 19 20  1  6
 21 20  1  0
 22 21  1  0
 23 24  1  0
 23 22  1  0
 25 26  1  0
 27 25  2  0
M  END
$$$$
