NQK.pdb
     RDKit          3D

 27 26  0  0  1  0  0  0  0  0999 V2000
   22.0470  -22.2510   -9.9195 N   0  0  0  0  0  0  0  0  0  0  0  0
   21.8016  -20.8636   -9.9636 C   0  0  0  0  0  0  0  0  0  0  0  0
   20.5997  -20.4639  -10.1450 O   0  0  0  0  0  0  0  0  0  0  0  0
   22.9303  -19.9171   -9.8005 C   0  0  0  0  0  0  0  0  0  0  0  0
   24.2375  -20.6084   -9.6028 C   0  0  2  0  0  0  0  0  0  0  0  0
   24.6231  -20.7329   -8.2237 N   0  0  0  0  0  0  0  0  0  0  0  0
   25.3323  -19.9933  -10.3938 C   0  0  0  0  0  0  0  0  0  0  0  0
   25.9812  -18.9995   -9.9370 O   0  0  0  0  0  0  0  0  0  0  0  0
   30.0821  -22.3496  -11.9834 N   0  0  0  0  0  0  0  0  0  0  0  0
   30.2277  -21.3718  -12.9989 C   0  0  0  0  0  0  0  0  0  0  0  0
   31.3143  -21.3186  -13.6210 O   0  0  0  0  0  0  0  0  0  0  0  0
   29.0823  -20.4386  -13.2934 C   0  0  0  0  0  0  0  0  0  0  0  0
   27.9396  -20.7617  -12.3942 C   0  0  0  0  0  0  0  0  0  0  0  0
   26.7598  -19.8368  -12.4850 C   0  0  2  0  0  0  0  0  0  0  0  0
   25.7084  -20.4663  -11.6736 N   0  0  0  0  0  0  0  0  0  0  0  0
   26.3214  -19.7511  -13.9038 C   0  0  0  0  0  0  0  0  0  0  0  0
   25.8313  -20.7452  -14.4540 O   0  0  0  0  0  0  0  0  0  0  0  0
   26.4332  -18.5764  -14.6791 N   0  0  0  0  0  0  0  0  0  0  0  0
   26.0791  -18.4804  -16.0791 C   0  0  1  0  0  0  0  0  0  0  0  0
   27.3300  -18.5508  -16.9082 C   0  0  0  0  0  0  0  0  0  0  0  0
   27.1212  -18.4890  -18.3720 C   0  0  0  0  0  0  0  0  0  0  0  0
   28.4609  -18.5139  -19.0712 C   0  0  0  0  0  0  0  0  0  0  0  0
   28.2753  -18.5018  -20.5927 C   0  0  0  0  0  0  0  0  0  0  0  0
   29.5590  -18.4110  -21.2521 N   0  0  0  0  0  0  0  0  0  0  0  0
   25.0454  -19.4426  -16.4798 C   0  0  0  0  0  0  0  0  0  0  0  0
   25.2865  -20.8090  -16.5145 O   0  0  0  0  0  0  0  0  0  0  0  0
   23.8607  -19.1119  -16.8233 O   0  0  0  0  0  0  0  0  0  0  0  0
  2  1  1  0
  3  2  2  0
  4  2  1  0
  5  6  1  1
  5  4  1  0
  7  5  1  0
  8  7  2  0
  9 10  1  0
 10 11  2  0
 10 12  1  0
 12 13  1  0
 14 13  1  6
 14 15  1  0
 15  7  1  0
 16 18  1  0
 16 14  1  0
 17 16  2  0
 19 18  1  0
 19 25  1  0
 19 20  1  6
 21 20  1  0
 22 21  1  0
 23 24  1  0
 23 22  1  0
 25 26  1  0
 27 25  2  0
M  END
$$$$
