VNQ.pdb
     RDKit          3D

 25 24  0  0  1  0  0  0  0  0999 V2000
    7.0525  -12.3539   20.4346 C   0  0  0  0  0  0  0  0  0  0  0  0
    7.4144  -13.6476   19.6929 C   0  0  1  0  0  0  0  0  0  0  0  0
    8.2408  -13.2330   18.4858 C   0  0  0  0  0  0  0  0  0  0  0  0
    8.2758  -14.4963   20.5642 C   0  0  2  0  0  0  0  0  0  0  0  0
    8.6254  -15.7068   19.9043 N   0  0  0  0  0  0  0  0  0  0  0  0
    7.7032  -14.7170   21.9221 C   0  0  0  0  0  0  0  0  0  0  0  0
    7.4176  -13.7053   22.6040 O   0  0  0  0  0  0  0  0  0  0  0  0
    6.3409  -17.3586   21.5136 N   0  0  0  0  0  0  0  0  0  0  0  0
    5.9114  -18.1299   22.6483 C   0  0  0  0  0  0  0  0  0  0  0  0
    5.2023  -19.1268   22.5031 O   0  0  0  0  0  0  0  0  0  0  0  0
    6.3614  -17.6648   23.9658 C   0  0  0  0  0  0  0  0  0  0  0  0
    7.1148  -16.3634   23.7947 C   0  0  2  0  0  0  0  0  0  0  0  0
    7.4725  -16.0014   22.4661 N   0  0  0  0  0  0  0  0  0  0  0  0
    8.1025  -16.0633   24.8172 C   0  0  0  0  0  0  0  0  0  0  0  0
    7.8662  -15.0908   25.5922 O   0  0  0  0  0  0  0  0  0  0  0  0
   10.5860  -13.6238   28.9739 N   0  0  0  0  0  0  0  0  0  0  0  0
   10.5619  -15.0335   29.0803 C   0  0  0  0  0  0  0  0  0  0  0  0
   10.8471  -15.4918   30.2371 O   0  0  0  0  0  0  0  0  0  0  0  0
   10.2426  -15.9579   27.9709 C   0  0  0  0  0  0  0  0  0  0  0  0
   10.3897  -15.2110   26.6681 C   0  0  0  0  0  0  0  0  0  0  0  0
   10.5396  -16.1044   25.4879 C   0  0  2  0  0  0  0  0  0  0  0  0
    9.3139  -16.7429   25.0469 N   0  0  0  0  0  0  0  0  0  0  0  0
   11.6129  -17.1362   25.7081 C   0  0  0  0  0  0  0  0  0  0  0  0
   11.3620  -18.4867   25.6606 O   0  0  0  0  0  0  0  0  0  0  0  0
   12.7966  -16.7742   25.9467 O   0  0  0  0  0  0  0  0  0  0  0  0
  2  1  1  1
  2  4  1  0
  3  2  1  0
  4  6  1  0
  4  5  1  6
  6 13  1  0
  7  6  2  0
  8  9  1  0
  9 10  2  0
 12 11  1  6
 11  9  1  0
 13 12  1  0
 14 12  1  0
 14 15  2  0
 16 17  1  0
 17 18  2  0
 17 19  1  0
 19 20  1  0
 21 20  1  1
 21 22  1  0
 21 23  1  0
 22 14  1  0
 23 24  1  0
 25 23  2  0
M  END
$$$$
