VNQ.pdb
     RDKit          3D

 25 24  0  0  1  0  0  0  0  0999 V2000
    7.4956  -12.9239   19.0915 C   0  0  0  0  0  0  0  0  0  0  0  0
    8.9153  -13.3543   18.6993 C   0  0  1  0  0  0  0  0  0  0  0  0
    9.8657  -12.4802   19.5023 C   0  0  0  0  0  0  0  0  0  0  0  0
    9.1386  -14.7686   19.1132 C   0  0  2  0  0  0  0  0  0  0  0  0
    8.6715  -14.9873   20.4387 N   0  0  0  0  0  0  0  0  0  0  0  0
   10.5409  -15.2281   18.9061 C   0  0  0  0  0  0  0  0  0  0  0  0
   10.8138  -15.7908   17.8203 O   0  0  0  0  0  0  0  0  0  0  0  0
   14.6763  -13.1441   18.0316 N   0  0  0  0  0  0  0  0  0  0  0  0
   14.3898  -14.4947   18.4323 C   0  0  0  0  0  0  0  0  0  0  0  0
   14.4436  -15.4198   17.6205 O   0  0  0  0  0  0  0  0  0  0  0  0
   14.0358  -14.6994   19.8421 C   0  0  0  0  0  0  0  0  0  0  0  0
   12.8570  -15.6456   19.9186 C   0  0  2  0  0  0  0  0  0  0  0  0
   11.5618  -15.0589   19.8695 N   0  0  0  0  0  0  0  0  0  0  0  0
   13.0051  -16.7711   20.8255 C   0  0  0  0  0  0  0  0  0  0  0  0
   14.1514  -17.2993   20.9210 O   0  0  0  0  0  0  0  0  0  0  0  0
   11.1261  -17.6366   26.4742 N   0  0  0  0  0  0  0  0  0  0  0  0
   10.6366  -16.7437   25.4933 C   0  0  0  0  0  0  0  0  0  0  0  0
   10.0951  -15.6826   25.9523 O   0  0  0  0  0  0  0  0  0  0  0  0
   10.7133  -16.9692   24.0337 C   0  0  0  0  0  0  0  0  0  0  0  0
   11.3140  -18.3320   23.7908 C   0  0  0  0  0  0  0  0  0  0  0  0
   12.2391  -18.3715   22.6263 C   0  0  2  0  0  0  0  0  0  0  0  0
   12.0003  -17.3512   21.6230 N   0  0  0  0  0  0  0  0  0  0  0  0
   12.2650  -19.7334   21.9864 C   0  0  0  0  0  0  0  0  0  0  0  0
   12.6343  -20.8661   22.6716 O   0  0  0  0  0  0  0  0  0  0  0  0
   11.9395  -19.8680   20.7760 O   0  0  0  0  0  0  0  0  0  0  0  0
  2  1  1  1
  2  4  1  0
  3  2  1  0
  4  6  1  0
  4  5  1  1
  6 13  1  0
  7  6  2  0
  8  9  1  0
  9 10  2  0
 12 11  1  1
 11  9  1  0
 13 12  1  0
 14 12  1  0
 14 15  2  0
 16 17  1  0
 17 18  2  0
 17 19  1  0
 19 20  1  0
 21 20  1  1
 21 22  1  0
 21 23  1  0
 22 14  1  0
 23 24  1  0
 25 23  2  0
M  END
$$$$
