VNQ.pdb
     RDKit          3D

 25 24  0  0  1  0  0  0  0  0999 V2000
   12.6802  -19.7024   17.7889 C   0  0  0  0  0  0  0  0  0  0  0  0
   11.6241  -18.8367   18.4890 C   0  0  1  0  0  0  0  0  0  0  0  0
   10.4130  -19.7299   18.7065 C   0  0  0  0  0  0  0  0  0  0  0  0
   12.1294  -18.4214   19.8282 C   0  0  2  0  0  0  0  0  0  0  0  0
   12.6370  -19.5394   20.5461 N   0  0  0  0  0  0  0  0  0  0  0  0
   11.1404  -17.6269   20.6100 C   0  0  0  0  0  0  0  0  0  0  0  0
   10.6988  -16.5755   20.0908 O   0  0  0  0  0  0  0  0  0  0  0  0
    7.7233  -19.6940   21.0319 N   0  0  0  0  0  0  0  0  0  0  0  0
    7.6996  -18.3949   21.6471 C   0  0  0  0  0  0  0  0  0  0  0  0
    7.1005  -17.4565   21.1195 O   0  0  0  0  0  0  0  0  0  0  0  0
    8.4198  -18.2582   22.9188 C   0  0  0  0  0  0  0  0  0  0  0  0
    9.6608  -17.4223   22.6915 C   0  0  2  0  0  0  0  0  0  0  0  0
   10.6863  -18.0036   21.8949 N   0  0  0  0  0  0  0  0  0  0  0  0
   10.1136  -16.6375   23.8273 C   0  0  0  0  0  0  0  0  0  0  0  0
   11.3605  -16.4659   23.9608 O   0  0  0  0  0  0  0  0  0  0  0  0
    6.0488  -13.5360   26.4467 N   0  0  0  0  0  0  0  0  0  0  0  0
    7.2682  -12.8295   26.5602 C   0  0  0  0  0  0  0  0  0  0  0  0
    7.1742  -11.6739   27.0945 O   0  0  0  0  0  0  0  0  0  0  0  0
    8.5821  -13.3364   26.1086 C   0  0  0  0  0  0  0  0  0  0  0  0
    8.8580  -14.6433   26.8107 C   0  0  0  0  0  0  0  0  0  0  0  0
    9.8073  -15.5211   26.0748 C   0  0  2  0  0  0  0  0  0  0  0  0
    9.3086  -16.0368   24.8139 N   0  0  0  0  0  0  0  0  0  0  0  0
   10.3004  -16.6502   26.9392 C   0  0  0  0  0  0  0  0  0  0  0  0
   11.2573  -16.4754   27.9100 O   0  0  0  0  0  0  0  0  0  0  0  0
    9.8333  -17.8112   26.7875 O   0  0  0  0  0  0  0  0  0  0  0  0
  2  1  1  1
  2  4  1  0
  3  2  1  0
  4  6  1  0
  4  5  1  1
  6 13  1  0
  7  6  2  0
  8  9  1  0
  9 10  2  0
 12 11  1  1
 11  9  1  0
 13 12  1  0
 14 12  1  0
 14 15  2  0
 16 17  1  0
 17 18  2  0
 17 19  1  0
 19 20  1  0
 21 20  1  1
 21 22  1  0
 21 23  1  0
 22 14  1  0
 23 24  1  0
 25 23  2  0
M  END
$$$$
