VNQ.pdb
     RDKit          3D

 25 24  0  0  1  0  0  0  0  0999 V2000
    8.2766  -12.6633   21.0937 C   0  0  0  0  0  0  0  0  0  0  0  0
    7.7465  -13.7021   20.0964 C   0  0  1  0  0  0  0  0  0  0  0  0
    8.3831  -13.3730   18.7554 C   0  0  0  0  0  0  0  0  0  0  0  0
    8.2102  -15.0601   20.4991 C   0  0  2  0  0  0  0  0  0  0  0  0
    7.9598  -16.0064   19.4672 N   0  0  0  0  0  0  0  0  0  0  0  0
    7.6861  -15.4918   21.8255 C   0  0  0  0  0  0  0  0  0  0  0  0
    6.5061  -15.9102   21.8761 O   0  0  0  0  0  0  0  0  0  0  0  0
    5.6744  -17.3070   24.5582 N   0  0  0  0  0  0  0  0  0  0  0  0
    6.5885  -17.8119   23.5701 C   0  0  0  0  0  0  0  0  0  0  0  0
    6.1762  -18.2738   22.5050 O   0  0  0  0  0  0  0  0  0  0  0  0
    8.0167  -17.7444   23.9025 C   0  0  0  0  0  0  0  0  0  0  0  0
    8.3938  -16.2999   24.1513 C   0  0  2  0  0  0  0  0  0  0  0  0
    8.4528  -15.4491   23.0126 N   0  0  0  0  0  0  0  0  0  0  0  0
    9.4165  -16.0761   25.1589 C   0  0  0  0  0  0  0  0  0  0  0  0
    9.8254  -17.0806   25.8115 O   0  0  0  0  0  0  0  0  0  0  0  0
    6.7152  -11.3126   26.9375 N   0  0  0  0  0  0  0  0  0  0  0  0
    6.4035  -12.6893   27.0194 C   0  0  0  0  0  0  0  0  0  0  0  0
    5.1643  -12.9532   27.1761 O   0  0  0  0  0  0  0  0  0  0  0  0
    7.3940  -13.7847   26.9408 C   0  0  0  0  0  0  0  0  0  0  0  0
    8.7720  -13.1778   26.8412 C   0  0  0  0  0  0  0  0  0  0  0  0
    9.8610  -14.1898   26.7822 C   0  0  2  0  0  0  0  0  0  0  0  0
   10.0136  -14.8471   25.4981 N   0  0  0  0  0  0  0  0  0  0  0  0
    9.7246  -15.2135   27.8770 C   0  0  0  0  0  0  0  0  0  0  0  0
    9.3402  -16.5104   27.6336 O   0  0  0  0  0  0  0  0  0  0  0  0
    9.9669  -14.8949   29.0724 O   0  0  0  0  0  0  0  0  0  0  0  0
  2  1  1  1
  2  4  1  0
  3  2  1  0
  4  6  1  0
  4  5  1  6
  6 13  1  0
  7  6  2  0
  8  9  1  0
  9 10  2  0
 12 11  1  6
 11  9  1  0
 13 12  1  0
 14 12  1  0
 14 15  2  0
 16 17  1  0
 17 18  2  0
 17 19  1  0
 19 20  1  0
 21 20  1  6
 21 22  1  0
 21 23  1  0
 22 14  1  0
 23 24  1  0
 25 23  2  0
M  END
$$$$
