VNQ.pdb
     RDKit          3D

 25 24  0  0  1  0  0  0  0  0999 V2000
    6.7584  -19.0362   12.2709 C   0  0  0  0  0  0  0  0  0  0  0  0
    7.3116  -18.6983   13.6618 C   0  0  1  0  0  0  0  0  0  0  0  0
    8.6383  -19.4307   13.7852 C   0  0  0  0  0  0  0  0  0  0  0  0
    7.5896  -17.2364   13.7450 C   0  0  2  0  0  0  0  0  0  0  0  0
    8.2012  -16.7692   12.5489 N   0  0  0  0  0  0  0  0  0  0  0  0
    8.3394  -16.8488   14.9730 C   0  0  0  0  0  0  0  0  0  0  0  0
    9.5680  -16.6306   14.8592 O   0  0  0  0  0  0  0  0  0  0  0  0
    7.3397  -13.2884   18.7019 N   0  0  0  0  0  0  0  0  0  0  0  0
    8.1263  -14.4778   18.8851 C   0  0  0  0  0  0  0  0  0  0  0  0
    9.2789  -14.4134   19.3154 O   0  0  0  0  0  0  0  0  0  0  0  0
    7.4833  -15.7498   18.5341 C   0  0  0  0  0  0  0  0  0  0  0  0
    8.3352  -16.4617   17.5055 C   0  0  2  0  0  0  0  0  0  0  0  0
    7.7319  -16.7194   16.2431 N   0  0  0  0  0  0  0  0  0  0  0  0
    9.2013  -17.5108   18.0160 C   0  0  0  0  0  0  0  0  0  0  0  0
    8.6858  -18.6490   18.2184 O   0  0  0  0  0  0  0  0  0  0  0  0
   14.3684  -20.0502   15.4803 N   0  0  0  0  0  0  0  0  0  0  0  0
   13.4918  -18.9957   15.8249 C   0  0  0  0  0  0  0  0  0  0  0  0
   13.8381  -17.8445   15.3953 O   0  0  0  0  0  0  0  0  0  0  0  0
   12.2565  -19.1522   16.6228 C   0  0  0  0  0  0  0  0  0  0  0  0
   12.5745  -18.8377   18.0640 C   0  0  0  0  0  0  0  0  0  0  0  0
   11.3764  -18.4766   18.8687 C   0  0  2  0  0  0  0  0  0  0  0  0
   10.5724  -17.4025   18.3169 N   0  0  0  0  0  0  0  0  0  0  0  0
   11.7406  -18.1720   20.2969 C   0  0  0  0  0  0  0  0  0  0  0  0
   10.8240  -18.2166   21.3200 O   0  0  0  0  0  0  0  0  0  0  0  0
   12.9259  -17.8616   20.5931 O   0  0  0  0  0  0  0  0  0  0  0  0
  2  1  1  6
  2  4  1  0
  3  2  1  0
  4  6  1  0
  4  5  1  6
  6 13  1  0
  7  6  2  0
  8  9  1  0
  9 10  2  0
 12 11  1  1
 11  9  1  0
 13 12  1  0
 14 12  1  0
 14 15  2  0
 16 17  1  0
 17 18  2  0
 17 19  1  0
 19 20  1  0
 21 20  1  6
 21 22  1  0
 21 23  1  0
 22 14  1  0
 23 24  1  0
 25 23  2  0
M  END
$$$$
