VNQ.pdb
     RDKit          3D

 25 24  0  0  1  0  0  0  0  0999 V2000
    7.9475  -12.5240   17.6542 C   0  0  0  0  0  0  0  0  0  0  0  0
    8.7680  -12.6162   18.9477 C   0  0  1  0  0  0  0  0  0  0  0  0
    7.7709  -12.5497   20.0937 C   0  0  0  0  0  0  0  0  0  0  0  0
    9.4476  -13.9411   19.0123 C   0  0  2  0  0  0  0  0  0  0  0  0
    8.7461  -14.9074   18.2397 N   0  0  0  0  0  0  0  0  0  0  0  0
    9.7209  -14.3951   20.4051 C   0  0  0  0  0  0  0  0  0  0  0  0
   10.4928  -13.6972   21.1030 O   0  0  0  0  0  0  0  0  0  0  0  0
    6.1819  -16.0351   21.7033 N   0  0  0  0  0  0  0  0  0  0  0  0
    7.0421  -15.9216   22.8497 C   0  0  0  0  0  0  0  0  0  0  0  0
    6.8073  -15.1001   23.7372 O   0  0  0  0  0  0  0  0  0  0  0  0
    8.1958  -16.8279   22.8962 C   0  0  0  0  0  0  0  0  0  0  0  0
    9.3791  -16.1484   22.2415 C   0  0  2  0  0  0  0  0  0  0  0  0
    9.1545  -15.5637   20.9641 N   0  0  0  0  0  0  0  0  0  0  0  0
   10.6639  -16.8039   22.4174 C   0  0  0  0  0  0  0  0  0  0  0  0
   10.9574  -17.7410   21.6189 O   0  0  0  0  0  0  0  0  0  0  0  0
   15.0133  -15.2666   19.9582 N   0  0  0  0  0  0  0  0  0  0  0  0
   15.1050  -15.1212   21.3616 C   0  0  0  0  0  0  0  0  0  0  0  0
   16.2458  -14.7418   21.7910 O   0  0  0  0  0  0  0  0  0  0  0  0
   14.0001  -15.3785   22.3104 C   0  0  0  0  0  0  0  0  0  0  0  0
   13.9576  -16.8577   22.6059 C   0  0  0  0  0  0  0  0  0  0  0  0
   12.8785  -17.2402   23.5560 C   0  0  2  0  0  0  0  0  0  0  0  0
   11.6356  -16.5100   23.3930 N   0  0  0  0  0  0  0  0  0  0  0  0
   13.3450  -17.1593   24.9845 C   0  0  0  0  0  0  0  0  0  0  0  0
   14.4436  -17.8455   25.4442 O   0  0  0  0  0  0  0  0  0  0  0  0
   12.7217  -16.4411   25.8121 O   0  0  0  0  0  0  0  0  0  0  0  0
  2  1  1  6
  2  4  1  0
  3  2  1  0
  4  6  1  0
  4  5  1  1
  6 13  1  0
  7  6  2  0
  8  9  1  0
  9 10  2  0
 12 11  1  6
 11  9  1  0
 13 12  1  0
 14 12  1  0
 14 15  2  0
 16 17  1  0
 17 18  2  0
 17 19  1  0
 19 20  1  0
 21 20  1  6
 21 22  1  0
 21 23  1  0
 22 14  1  0
 23 24  1  0
 25 23  2  0
M  END
$$$$
