VNQ.pdb
     RDKit          3D

 25 24  0  0  1  0  0  0  0  0999 V2000
    8.2923  -12.6083   18.4002 C   0  0  0  0  0  0  0  0  0  0  0  0
    8.3831  -13.0457   19.8682 C   0  0  1  0  0  0  0  0  0  0  0  0
    6.9527  -13.1596   20.3710 C   0  0  0  0  0  0  0  0  0  0  0  0
    9.0020  -14.3993   19.9466 C   0  0  2  0  0  0  0  0  0  0  0  0
    8.5242  -15.2351   18.8997 N   0  0  0  0  0  0  0  0  0  0  0  0
    8.8803  -15.0250   21.2936 C   0  0  0  0  0  0  0  0  0  0  0  0
    9.3822  -14.4141   22.2657 O   0  0  0  0  0  0  0  0  0  0  0  0
    6.8261  -17.6030   20.5323 N   0  0  0  0  0  0  0  0  0  0  0  0
    6.1018  -17.9559   21.7230 C   0  0  0  0  0  0  0  0  0  0  0  0
    5.0141  -18.5303   21.6543 O   0  0  0  0  0  0  0  0  0  0  0  0
    6.7267  -17.5962   23.0016 C   0  0  0  0  0  0  0  0  0  0  0  0
    8.0880  -16.9935   22.7290 C   0  0  2  0  0  0  0  0  0  0  0  0
    8.2323  -16.2614   21.5177 N   0  0  0  0  0  0  0  0  0  0  0  0
    9.2296  -17.8053   23.1146 C   0  0  0  0  0  0  0  0  0  0  0  0
    9.7485  -18.5449   22.2280 O   0  0  0  0  0  0  0  0  0  0  0  0
   13.3747  -16.8600   21.8140 N   0  0  0  0  0  0  0  0  0  0  0  0
   14.0002  -16.6928   23.0709 C   0  0  0  0  0  0  0  0  0  0  0  0
   15.2547  -16.9294   23.0846 O   0  0  0  0  0  0  0  0  0  0  0  0
   13.3064  -16.2816   24.3105 C   0  0  0  0  0  0  0  0  0  0  0  0
   11.8190  -16.4128   24.0925 C   0  0  0  0  0  0  0  0  0  0  0  0
   11.2529  -17.6813   24.6253 C   0  0  2  0  0  0  0  0  0  0  0  0
    9.8340  -17.8642   24.3848 N   0  0  0  0  0  0  0  0  0  0  0  0
   11.5579  -17.8513   26.0893 C   0  0  0  0  0  0  0  0  0  0  0  0
   12.7959  -18.2331   26.5477 O   0  0  0  0  0  0  0  0  0  0  0  0
   10.6603  -17.6411   26.9492 O   0  0  0  0  0  0  0  0  0  0  0  0
  2  1  1  6
  2  4  1  0
  3  2  1  0
  4  6  1  0
  4  5  1  6
  6 13  1  0
  7  6  2  0
  8  9  1  0
  9 10  2  0
 12 11  1  6
 11  9  1  0
 13 12  1  0
 14 12  1  0
 14 15  2  0
 16 17  1  0
 17 18  2  0
 17 19  1  0
 19 20  1  0
 21 20  1  1
 21 22  1  0
 21 23  1  0
 22 14  1  0
 23 24  1  0
 25 23  2  0
M  END
$$$$
