VNQ.pdb
     RDKit          3D

 25 24  0  0  1  0  0  0  0  0999 V2000
    7.4367  -12.4062   19.4262 C   0  0  0  0  0  0  0  0  0  0  0  0
    8.2774  -13.4480   20.1762 C   0  0  1  0  0  0  0  0  0  0  0  0
    7.6696  -13.5707   21.5645 C   0  0  0  0  0  0  0  0  0  0  0  0
    8.1457  -14.7714   19.5034 C   0  0  2  0  0  0  0  0  0  0  0  0
    6.8007  -15.0037   19.1035 N   0  0  0  0  0  0  0  0  0  0  0  0
    8.7203  -15.8946   20.2964 C   0  0  0  0  0  0  0  0  0  0  0  0
    7.9694  -16.8616   20.5630 O   0  0  0  0  0  0  0  0  0  0  0  0
   13.1496  -18.5438   18.2614 N   0  0  0  0  0  0  0  0  0  0  0  0
   12.0451  -18.6525   19.1754 C   0  0  0  0  0  0  0  0  0  0  0  0
   11.9370  -19.6255   19.9233 O   0  0  0  0  0  0  0  0  0  0  0  0
   11.0724  -17.5532   19.1623 C   0  0  0  0  0  0  0  0  0  0  0  0
   11.0738  -16.8821   20.5188 C   0  0  2  0  0  0  0  0  0  0  0  0
   10.0577  -15.9146   20.7547 N   0  0  0  0  0  0  0  0  0  0  0  0
   12.3812  -16.5702   21.0707 C   0  0  0  0  0  0  0  0  0  0  0  0
   13.3643  -17.2620   20.6745 O   0  0  0  0  0  0  0  0  0  0  0  0
   10.4671  -18.0344   25.8314 N   0  0  0  0  0  0  0  0  0  0  0  0
   11.7546  -17.7128   26.3193 C   0  0  0  0  0  0  0  0  0  0  0  0
   11.9996  -18.1206   27.5039 O   0  0  0  0  0  0  0  0  0  0  0  0
   12.7795  -16.9605   25.5637 C   0  0  0  0  0  0  0  0  0  0  0  0
   12.2050  -16.5873   24.2192 C   0  0  0  0  0  0  0  0  0  0  0  0
   13.1540  -15.8285   23.3606 C   0  0  2  0  0  0  0  0  0  0  0  0
   12.6833  -15.5689   22.0132 N   0  0  0  0  0  0  0  0  0  0  0  0
   14.5085  -16.4834   23.3207 C   0  0  0  0  0  0  0  0  0  0  0  0
   15.6463  -15.8581   23.7714 O   0  0  0  0  0  0  0  0  0  0  0  0
   14.6315  -17.6507   22.8609 O   0  0  0  0  0  0  0  0  0  0  0  0
  2  1  1  6
  2  4  1  0
  3  2  1  0
  4  6  1  0
  4  5  1  1
  6 13  1  0
  7  6  2  0
  8  9  1  0
  9 10  2  0
 12 11  1  6
 11  9  1  0
 13 12  1  0
 14 12  1  0
 14 15  2  0
 16 17  1  0
 17 18  2  0
 17 19  1  0
 19 20  1  0
 21 20  1  6
 21 22  1  0
 21 23  1  0
 22 14  1  0
 23 24  1  0
 25 23  2  0
M  END
$$$$
