VNQ.pdb
     RDKit          3D

 25 24  0  0  1  0  0  0  0  0999 V2000
    8.6503  -12.7589   20.9572 C   0  0  0  0  0  0  0  0  0  0  0  0
    7.6051  -13.4101   20.0416 C   0  0  1  0  0  0  0  0  0  0  0  0
    7.5324  -12.5470   18.7920 C   0  0  0  0  0  0  0  0  0  0  0  0
    8.0762  -14.7638   19.6328 C   0  0  2  0  0  0  0  0  0  0  0  0
    7.2034  -15.3316   18.6639 N   0  0  0  0  0  0  0  0  0  0  0  0
    8.3348  -15.6704   20.7868 C   0  0  0  0  0  0  0  0  0  0  0  0
    7.3470  -16.2217   21.3256 O   0  0  0  0  0  0  0  0  0  0  0  0
   12.5437  -18.8697   23.8570 N   0  0  0  0  0  0  0  0  0  0  0  0
   11.2166  -18.5838   23.3837 C   0  0  0  0  0  0  0  0  0  0  0  0
   10.2281  -19.0427   23.9583 O   0  0  0  0  0  0  0  0  0  0  0  0
   11.1142  -17.7276   22.1959 C   0  0  0  0  0  0  0  0  0  0  0  0
   10.0139  -16.7123   22.4174 C   0  0  2  0  0  0  0  0  0  0  0  0
    9.6292  -15.9305   21.2927 N   0  0  0  0  0  0  0  0  0  0  0  0
   10.0432  -16.0130   23.6907 C   0  0  0  0  0  0  0  0  0  0  0  0
   10.9769  -15.1795   23.8796 O   0  0  0  0  0  0  0  0  0  0  0  0
    5.6457  -12.9897   26.4382 N   0  0  0  0  0  0  0  0  0  0  0  0
    6.9158  -12.3780   26.5472 C   0  0  0  0  0  0  0  0  0  0  0  0
    6.8917  -11.1176   26.7485 O   0  0  0  0  0  0  0  0  0  0  0  0
    8.2073  -13.0907   26.4405 C   0  0  0  0  0  0  0  0  0  0  0  0
    7.9281  -14.5546   26.2039 C   0  0  0  0  0  0  0  0  0  0  0  0
    9.1563  -15.3599   25.9662 C   0  0  2  0  0  0  0  0  0  0  0  0
    9.1356  -16.1608   24.7568 N   0  0  0  0  0  0  0  0  0  0  0  0
    9.4916  -16.2211   27.1540 C   0  0  0  0  0  0  0  0  0  0  0  0
    9.5861  -17.5898   27.0726 O   0  0  0  0  0  0  0  0  0  0  0  0
    9.6988  -15.6913   28.2790 O   0  0  0  0  0  0  0  0  0  0  0  0
  2  1  1  1
  2  4  1  0
  3  2  1  0
  4  6  1  0
  4  5  1  6
  6 13  1  0
  7  6  2  0
  8  9  1  0
  9 10  2  0
 12 11  1  6
 11  9  1  0
 13 12  1  0
 14 12  1  0
 14 15  2  0
 16 17  1  0
 17 18  2  0
 17 19  1  0
 19 20  1  0
 21 20  1  1
 21 22  1  0
 21 23  1  0
 22 14  1  0
 23 24  1  0
 25 23  2  0
M  END
$$$$
