VNQ.pdb
     RDKit          3D

 25 24  0  0  1  0  0  0  0  0999 V2000
    8.9592  -12.8513   20.7475 C   0  0  0  0  0  0  0  0  0  0  0  0
    7.7790  -13.4815   19.9960 C   0  0  1  0  0  0  0  0  0  0  0  0
    7.4234  -12.5204   18.8727 C   0  0  0  0  0  0  0  0  0  0  0  0
    8.2127  -14.7656   19.3759 C   0  0  2  0  0  0  0  0  0  0  0  0
    7.1798  -15.3085   18.5627 N   0  0  0  0  0  0  0  0  0  0  0  0
    8.7522  -15.7431   20.3628 C   0  0  0  0  0  0  0  0  0  0  0  0
    7.9282  -16.4249   21.0156 O   0  0  0  0  0  0  0  0  0  0  0  0
   12.3071  -19.6773   22.1452 N   0  0  0  0  0  0  0  0  0  0  0  0
   12.5835  -18.2669   22.1803 C   0  0  0  0  0  0  0  0  0  0  0  0
   13.2373  -17.7737   23.1006 O   0  0  0  0  0  0  0  0  0  0  0  0
   12.0483  -17.4659   21.0728 C   0  0  0  0  0  0  0  0  0  0  0  0
   10.7834  -16.7751   21.5345 C   0  0  2  0  0  0  0  0  0  0  0  0
   10.1349  -15.9307   20.5909 N   0  0  0  0  0  0  0  0  0  0  0  0
   10.7851  -16.3007   22.9079 C   0  0  0  0  0  0  0  0  0  0  0  0
   11.3829  -15.2118   23.1506 O   0  0  0  0  0  0  0  0  0  0  0  0
    6.8368  -13.5128   25.6531 N   0  0  0  0  0  0  0  0  0  0  0  0
    6.5456  -14.8843   25.4702 C   0  0  0  0  0  0  0  0  0  0  0  0
    5.3023  -15.1730   25.4461 O   0  0  0  0  0  0  0  0  0  0  0  0
    7.5605  -15.9490   25.3172 C   0  0  0  0  0  0  0  0  0  0  0  0
    8.9298  -15.3246   25.4272 C   0  0  0  0  0  0  0  0  0  0  0  0
   10.0394  -16.3103   25.3234 C   0  0  2  0  0  0  0  0  0  0  0  0
   10.1874  -16.9265   24.0185 N   0  0  0  0  0  0  0  0  0  0  0  0
    9.9410  -17.3682   26.3894 C   0  0  0  0  0  0  0  0  0  0  0  0
    9.8754  -18.7094   26.0971 O   0  0  0  0  0  0  0  0  0  0  0  0
    9.9163  -17.0377   27.6057 O   0  0  0  0  0  0  0  0  0  0  0  0
  2  1  1  6
  2  4  1  0
  3  2  1  0
  4  6  1  0
  4  5  1  1
  6 13  1  0
  7  6  2  0
  8  9  1  0
  9 10  2  0
 12 11  1  6
 11  9  1  0
 13 12  1  0
 14 12  1  0
 14 15  2  0
 16 17  1  0
 17 18  2  0
 17 19  1  0
 19 20  1  0
 21 20  1  6
 21 22  1  0
 21 23  1  0
 22 14  1  0
 23 24  1  0
 25 23  2  0
M  END
$$$$
