IKF.pdb
     RDKit          3D

 29 29  0  0  1  0  0  0  0  0999 V2000
   29.4333  -16.4773  -16.4600 C   0  0  0  0  0  0  0  0  0  0  0  0
   28.2734  -17.4216  -16.6763 C   0  0  0  0  0  0  0  0  0  0  0  0
   27.6526  -17.8287  -15.3398 C   0  0  2  0  0  0  0  0  0  0  0  0
   28.7264  -18.4030  -14.4536 C   0  0  0  0  0  0  0  0  0  0  0  0
   26.4998  -18.7955  -15.5911 C   0  0  2  0  0  0  0  0  0  0  0  0
   25.5453  -17.9878  -16.3825 N   0  0  0  0  0  0  0  0  0  0  0  0
   25.8059  -19.0558  -14.3101 C   0  0  0  0  0  0  0  0  0  0  0  0
   25.1868  -18.1306  -13.6733 O   0  0  0  0  0  0  0  0  0  0  0  0
   25.7966  -20.3561  -13.7352 N   0  0  0  0  0  0  0  0  0  0  0  0
   25.0110  -20.6671  -12.5555 C   0  0  1  0  0  0  0  0  0  0  0  0
   24.0954  -21.8683  -12.8393 C   0  0  0  0  0  0  0  0  0  0  0  0
   22.6513  -21.4840  -12.7340 C   0  0  0  0  0  0  0  0  0  0  0  0
   21.8239  -22.7234  -12.9961 C   0  0  0  0  0  0  0  0  0  0  0  0
   20.3454  -22.4487  -12.8196 C   0  0  0  0  0  0  0  0  0  0  0  0
   19.6290  -23.6872  -13.0410 N   0  0  0  0  0  0  0  0  0  0  0  0
   25.8263  -20.9368  -11.3541 C   0  0  0  0  0  0  0  0  0  0  0  0
   27.0703  -21.2172  -11.4463 O   0  0  0  0  0  0  0  0  0  0  0  0
   25.2868  -20.9001  -10.0470 N   0  0  0  0  0  0  0  0  0  0  0  0
   26.1083  -21.0489   -8.8526 C   0  0  1  0  0  0  0  0  0  0  0  0
   27.1369  -19.9722   -8.7558 C   0  0  0  0  0  0  0  0  0  0  0  0
   27.8350  -19.9602   -7.4597 C   0  0  0  0  0  0  0  0  0  0  0  0
   28.9672  -20.7191   -7.2065 C   0  0  0  0  0  0  0  0  0  0  0  0
   29.6242  -20.6862   -5.9954 C   0  0  0  0  0  0  0  0  0  0  0  0
   29.1509  -19.8707   -4.9816 C   0  0  0  0  0  0  0  0  0  0  0  0
   28.0303  -19.1058   -5.2019 C   0  0  0  0  0  0  0  0  0  0  0  0
   27.3866  -19.1592   -6.4362 C   0  0  0  0  0  0  0  0  0  0  0  0
   25.2247  -21.0526   -7.6728 C   0  0  0  0  0  0  0  0  0  0  0  0
   25.6023  -21.7197   -6.5125 O   0  0  0  0  0  0  0  0  0  0  0  0
   24.1134  -20.4763   -7.6355 O   0  0  0  0  0  0  0  0  0  0  0  0
  2  1  1  0
  3  2  1  0
  3  4  1  1
  5  3  1  0
  5  6  1  6
  7  8  2  0
  7  5  1  0
  9  7  1  0
 10  9  1  0
 11 12  1  0
 10 11  1  6
 12 13  1  0
 13 14  1  0
 14 15  1  0
 16 17  2  0
 16 10  1  0
 18 16  1  0
 19 20  1  1
 19 18  1  0
 20 21  1  0
 21 26  2  0
 21 22  1  0
 22 23  2  0
 23 24  1  0
 25 24  2  0
 26 25  1  0
 27 19  1  0
 28 27  1  0
 29 27  2  0
M  END
$$$$
