IKF.pdb
     RDKit          3D

 29 29  0  0  1  0  0  0  0  0999 V2000
   29.0807  -16.1367  -16.2673 C   0  0  0  0  0  0  0  0  0  0  0  0
   28.1798  -17.3339  -16.4643 C   0  0  0  0  0  0  0  0  0  0  0  0
   27.8743  -18.0055  -15.1253 C   0  0  2  0  0  0  0  0  0  0  0  0
   29.1641  -18.4749  -14.5053 C   0  0  0  0  0  0  0  0  0  0  0  0
   26.8671  -19.1304  -15.3417 C   0  0  2  0  0  0  0  0  0  0  0  0
   25.8941  -18.5381  -16.2862 N   0  0  0  0  0  0  0  0  0  0  0  0
   26.1042  -19.3367  -14.0904 C   0  0  0  0  0  0  0  0  0  0  0  0
   25.3099  -18.4440  -13.6247 O   0  0  0  0  0  0  0  0  0  0  0  0
   26.2222  -20.5470  -13.3539 N   0  0  0  0  0  0  0  0  0  0  0  0
   25.4810  -20.7732  -12.1270 C   0  0  1  0  0  0  0  0  0  0  0  0
   24.5885  -22.0152  -12.2773 C   0  0  0  0  0  0  0  0  0  0  0  0
   23.2220  -21.7700  -11.7145 C   0  0  0  0  0  0  0  0  0  0  0  0
   22.3049  -21.4203  -12.8661 C   0  0  0  0  0  0  0  0  0  0  0  0
   20.8873  -21.1812  -12.3910 C   0  0  0  0  0  0  0  0  0  0  0  0
   20.2847  -22.4674  -12.1104 N   0  0  0  0  0  0  0  0  0  0  0  0
   26.3390  -20.9194  -10.9341 C   0  0  0  0  0  0  0  0  0  0  0  0
   27.4127  -21.6125  -10.9705 O   0  0  0  0  0  0  0  0  0  0  0  0
   26.0288  -20.3081   -9.6967 N   0  0  0  0  0  0  0  0  0  0  0  0
   26.7604  -20.5990   -8.4704 C   0  0  1  0  0  0  0  0  0  0  0  0
   27.5887  -19.4363   -8.0360 C   0  0  0  0  0  0  0  0  0  0  0  0
   28.1806  -19.6202   -6.7007 C   0  0  0  0  0  0  0  0  0  0  0  0
   27.6663  -19.0238   -5.5598 C   0  0  0  0  0  0  0  0  0  0  0  0
   28.2170  -19.2177   -4.3113 C   0  0  0  0  0  0  0  0  0  0  0  0
   29.3254  -20.0354   -4.1713 C   0  0  0  0  0  0  0  0  0  0  0  0
   29.8587  -20.6413   -5.2840 C   0  0  0  0  0  0  0  0  0  0  0  0
   29.2810  -20.4272   -6.5334 C   0  0  0  0  0  0  0  0  0  0  0  0
   25.7932  -20.9865   -7.4277 C   0  0  0  0  0  0  0  0  0  0  0  0
   26.2232  -21.6321   -6.2736 O   0  0  0  0  0  0  0  0  0  0  0  0
   24.5624  -20.7689   -7.5067 O   0  0  0  0  0  0  0  0  0  0  0  0
  2  1  1  0
  3  2  1  0
  3  4  1  6
  5  3  1  0
  5  6  1  6
  7  8  2  0
  7  5  1  0
  9  7  1  0
 10  9  1  0
 11 12  1  0
 10 11  1  6
 12 13  1  0
 13 14  1  0
 14 15  1  0
 16 17  2  0
 16 10  1  0
 18 16  1  0
 19 20  1  1
 19 18  1  0
 20 21  1  0
 21 26  2  0
 21 22  1  0
 22 23  2  0
 23 24  1  0
 25 24  2  0
 26 25  1  0
 27 19  1  0
 28 27  1  0
 29 27  2  0
M  END
$$$$
