IKF.pdb
     RDKit          3D

 29 29  0  0  1  0  0  0  0  0999 V2000
   28.9458  -19.0392   -5.2597 C   0  0  0  0  0  0  0  0  0  0  0  0
   28.5119  -20.2007   -6.1237 C   0  0  0  0  0  0  0  0  0  0  0  0
   27.8951  -19.7004   -7.4301 C   0  0  2  0  0  0  0  0  0  0  0  0
   27.6648  -18.2156   -7.3280 C   0  0  0  0  0  0  0  0  0  0  0  0
   26.6216  -20.4876   -7.7223 C   0  0  2  0  0  0  0  0  0  0  0  0
   27.1056  -21.8795   -7.8557 N   0  0  0  0  0  0  0  0  0  0  0  0
   26.1337  -20.1244   -9.0715 C   0  0  0  0  0  0  0  0  0  0  0  0
   25.6072  -18.9812   -9.3179 O   0  0  0  0  0  0  0  0  0  0  0  0
   26.2362  -21.0380  -10.1560 N   0  0  0  0  0  0  0  0  0  0  0  0
   25.7024  -20.7312  -11.4700 C   0  0  1  0  0  0  0  0  0  0  0  0
   26.4114  -21.5838  -12.5340 C   0  0  0  0  0  0  0  0  0  0  0  0
   27.1954  -20.7261  -13.4794 C   0  0  0  0  0  0  0  0  0  0  0  0
   26.7528  -21.0662  -14.8858 C   0  0  0  0  0  0  0  0  0  0  0  0
   27.5477  -20.2941  -15.9176 C   0  0  0  0  0  0  0  0  0  0  0  0
   28.3126  -21.2438  -16.6981 N   0  0  0  0  0  0  0  0  0  0  0  0
   24.2415  -20.9191  -11.5754 C   0  0  0  0  0  0  0  0  0  0  0  0
   23.6647  -21.9362  -11.0582 O   0  0  0  0  0  0  0  0  0  0  0  0
   23.4041  -19.9963  -12.2449 N   0  0  0  0  0  0  0  0  0  0  0  0
   21.9598  -20.1679  -12.3369 C   0  0  1  0  0  0  0  0  0  0  0  0
   21.2330  -18.9237  -11.9491 C   0  0  0  0  0  0  0  0  0  0  0  0
   19.7756  -19.0314  -12.1265 C   0  0  0  0  0  0  0  0  0  0  0  0
   18.9322  -19.5327  -11.1471 C   0  0  0  0  0  0  0  0  0  0  0  0
   17.5667  -19.6116  -11.3163 C   0  0  0  0  0  0  0  0  0  0  0  0
   16.9975  -19.1791  -12.5019 C   0  0  0  0  0  0  0  0  0  0  0  0
   17.8074  -18.6767  -13.4925 C   0  0  0  0  0  0  0  0  0  0  0  0
   19.1845  -18.6087  -13.2936 C   0  0  0  0  0  0  0  0  0  0  0  0
   21.6227  -20.5783  -13.7118 C   0  0  0  0  0  0  0  0  0  0  0  0
   20.6186  -21.5127  -13.9415 O   0  0  0  0  0  0  0  0  0  0  0  0
   22.1964  -20.1301  -14.7309 O   0  0  0  0  0  0  0  0  0  0  0  0
  2  1  1  0
  3  2  1  0
  3  4  1  1
  5  3  1  0
  5  6  1  6
  7  8  2  0
  7  5  1  0
  9  7  1  0
 10  9  1  0
 11 12  1  0
 10 11  1  6
 12 13  1  0
 13 14  1  0
 14 15  1  0
 16 17  2  0
 16 10  1  0
 18 16  1  0
 19 20  1  6
 19 18  1  0
 20 21  1  0
 21 26  2  0
 21 22  1  0
 22 23  2  0
 23 24  1  0
 25 24  2  0
 26 25  1  0
 27 19  1  0
 28 27  1  0
 29 27  2  0
M  END
$$$$
