IKF.pdb
     RDKit          3D

 29 29  0  0  1  0  0  0  0  0999 V2000
   12.0836   -9.4793   -9.2813 C   0  0  0  0  0  0  0  0  0  0  0  0
   12.3010  -10.4049  -10.4560 C   0  0  0  0  0  0  0  0  0  0  0  0
   13.7769  -10.4342  -10.8538 C   0  0  2  0  0  0  0  0  0  0  0  0
   14.2764   -9.0203  -10.9936 C   0  0  0  0  0  0  0  0  0  0  0  0
   13.9414  -11.2585  -12.1267 C   0  0  2  0  0  0  0  0  0  0  0  0
   13.6758  -12.6415  -11.6726 N   0  0  0  0  0  0  0  0  0  0  0  0
   15.3688  -11.2549  -12.5178 C   0  0  0  0  0  0  0  0  0  0  0  0
   16.2685  -11.8306  -11.8080 O   0  0  0  0  0  0  0  0  0  0  0  0
   15.7981  -10.6099  -13.7098 N   0  0  0  0  0  0  0  0  0  0  0  0
   17.1956  -10.5678  -14.0980 C   0  0  1  0  0  0  0  0  0  0  0  0
   17.3400  -10.9682  -15.5747 C   0  0  0  0  0  0  0  0  0  0  0  0
   18.7816  -11.0934  -15.9624 C   0  0  0  0  0  0  0  0  0  0  0  0
   18.8336  -11.5838  -17.3929 C   0  0  0  0  0  0  0  0  0  0  0  0
   20.2605  -11.7034  -17.8848 C   0  0  0  0  0  0  0  0  0  0  0  0
   20.2235  -12.0407  -19.2923 N   0  0  0  0  0  0  0  0  0  0  0  0
   17.8340   -9.2551  -13.8745 C   0  0  0  0  0  0  0  0  0  0  0  0
   17.2368   -8.1667  -14.1801 O   0  0  0  0  0  0  0  0  0  0  0  0
   19.1268   -9.1254  -13.3152 N   0  0  0  0  0  0  0  0  0  0  0  0
   19.7602   -7.8324  -13.0900 C   0  0  1  0  0  0  0  0  0  0  0  0
   21.0506   -7.9737  -12.3539 C   0  0  0  0  0  0  0  0  0  0  0  0
   22.0137   -8.8458  -13.0461 C   0  0  0  0  0  0  0  0  0  0  0  0
   22.2520  -10.1572  -12.6650 C   0  0  0  0  0  0  0  0  0  0  0  0
   23.1421  -10.9712  -13.3317 C   0  0  0  0  0  0  0  0  0  0  0  0
   23.8337  -10.4786  -14.4252 C   0  0  0  0  0  0  0  0  0  0  0  0
   23.6192   -9.1819  -14.8279 C   0  0  0  0  0  0  0  0  0  0  0  0
   22.7133   -8.3821  -14.1349 C   0  0  0  0  0  0  0  0  0  0  0  0
   19.9569   -7.1728  -14.3934 C   0  0  0  0  0  0  0  0  0  0  0  0
   19.7285   -7.8680  -15.5758 O   0  0  0  0  0  0  0  0  0  0  0  0
   20.3298   -5.9840  -14.5209 O   0  0  0  0  0  0  0  0  0  0  0  0
  2  1  1  0
  3  2  1  0
  3  4  1  6
  5  3  1  0
  5  6  1  1
  7  8  2  0
  7  5  1  0
  9  7  1  0
 10  9  1  0
 11 12  1  0
 10 11  1  6
 12 13  1  0
 13 14  1  0
 14 15  1  0
 16 17  2  0
 16 10  1  0
 18 16  1  0
 19 20  1  6
 19 18  1  0
 20 21  1  0
 21 26  2  0
 21 22  1  0
 22 23  2  0
 23 24  1  0
 25 24  2  0
 26 25  1  0
 27 19  1  0
 28 27  1  0
 29 27  2  0
M  END
$$$$
