IKF.pdb
     RDKit          3D

 29 29  0  0  1  0  0  0  0  0999 V2000
   26.0335  -18.4462  -22.7916 C   0  0  0  0  0  0  0  0  0  0  0  0
   26.6329  -19.6664  -22.1315 C   0  0  0  0  0  0  0  0  0  0  0  0
   27.3184  -19.2876  -20.8186 C   0  0  2  0  0  0  0  0  0  0  0  0
   28.3929  -18.2706  -21.1006 C   0  0  0  0  0  0  0  0  0  0  0  0
   27.8468  -20.5483  -20.1417 C   0  0  2  0  0  0  0  0  0  0  0  0
   28.4155  -21.3246  -21.2658 N   0  0  0  0  0  0  0  0  0  0  0  0
   26.6992  -21.3532  -19.6668 C   0  0  0  0  0  0  0  0  0  0  0  0
   25.8113  -21.8101  -20.4715 O   0  0  0  0  0  0  0  0  0  0  0  0
   26.5404  -21.6560  -18.2868 N   0  0  0  0  0  0  0  0  0  0  0  0
   25.4083  -22.4187  -17.7946 C   0  0  1  0  0  0  0  0  0  0  0  0
   25.7522  -23.0450  -16.4340 C   0  0  0  0  0  0  0  0  0  0  0  0
   25.7831  -24.5403  -16.5196 C   0  0  0  0  0  0  0  0  0  0  0  0
   27.2322  -24.9743  -16.4860 C   0  0  0  0  0  0  0  0  0  0  0  0
   27.4461  -26.2487  -17.2751 C   0  0  0  0  0  0  0  0  0  0  0  0
   28.8722  -26.4638  -17.4028 N   0  0  0  0  0  0  0  0  0  0  0  0
   24.1663  -21.6284  -17.6782 C   0  0  0  0  0  0  0  0  0  0  0  0
   24.1835  -20.4266  -17.2424 O   0  0  0  0  0  0  0  0  0  0  0  0
   22.9005  -22.1470  -18.0383 N   0  0  0  0  0  0  0  0  0  0  0  0
   21.6751  -21.3631  -17.9495 C   0  0  1  0  0  0  0  0  0  0  0  0
   21.0359  -21.1894  -19.2866 C   0  0  0  0  0  0  0  0  0  0  0  0
   19.7367  -20.5008  -19.2167 C   0  0  0  0  0  0  0  0  0  0  0  0
   19.6167  -19.1203  -19.1763 C   0  0  0  0  0  0  0  0  0  0  0  0
   18.3945  -18.4850  -19.1299 C   0  0  0  0  0  0  0  0  0  0  0  0
   17.2319  -19.2367  -19.1227 C   0  0  0  0  0  0  0  0  0  0  0  0
   17.3178  -20.6081  -19.1621 C   0  0  0  0  0  0  0  0  0  0  0  0
   18.5669  -21.2231  -19.2087 C   0  0  0  0  0  0  0  0  0  0  0  0
   20.7616  -22.0261  -17.0015 C   0  0  0  0  0  0  0  0  0  0  0  0
   20.6863  -23.4137  -16.9500 O   0  0  0  0  0  0  0  0  0  0  0  0
   20.0175  -21.4078  -16.2062 O   0  0  0  0  0  0  0  0  0  0  0  0
  2  1  1  0
  3  2  1  0
  3  4  1  6
  5  3  1  0
  5  6  1  6
  7  8  2  0
  7  5  1  0
  9  7  1  0
 10  9  1  0
 11 12  1  0
 10 11  1  1
 12 13  1  0
 13 14  1  0
 14 15  1  0
 16 17  2  0
 16 10  1  0
 18 16  1  0
 19 20  1  6
 19 18  1  0
 20 21  1  0
 21 26  2  0
 21 22  1  0
 22 23  2  0
 23 24  1  0
 25 24  2  0
 26 25  1  0
 27 19  1  0
 28 27  1  0
 29 27  2  0
M  END
$$$$
