IKF.pdb
     RDKit          3D

 29 29  0  0  1  0  0  0  0  0999 V2000
   33.9982  -21.9536  -10.5551 C   0  0  0  0  0  0  0  0  0  0  0  0
   32.6305  -22.5119  -10.8736 C   0  0  0  0  0  0  0  0  0  0  0  0
   31.6563  -21.3866  -11.2227 C   0  0  2  0  0  0  0  0  0  0  0  0
   31.6538  -20.3748  -10.1071 C   0  0  0  0  0  0  0  0  0  0  0  0
   30.2781  -21.9785  -11.5004 C   0  0  2  0  0  0  0  0  0  0  0  0
   30.5230  -22.8895  -12.6405 N   0  0  0  0  0  0  0  0  0  0  0  0
   29.4021  -20.9168  -12.0441 C   0  0  0  0  0  0  0  0  0  0  0  0
   29.0329  -19.9129  -11.3365 O   0  0  0  0  0  0  0  0  0  0  0  0
   28.9369  -20.9696  -13.3865 N   0  0  0  0  0  0  0  0  0  0  0  0
   27.8859  -20.0931  -13.8687 C   0  0  1  0  0  0  0  0  0  0  0  0
   28.1821  -19.6691  -15.3159 C   0  0  0  0  0  0  0  0  0  0  0  0
   27.1289  -18.7375  -15.8325 C   0  0  0  0  0  0  0  0  0  0  0  0
   27.4912  -18.3758  -17.2564 C   0  0  0  0  0  0  0  0  0  0  0  0
   26.5109  -17.3808  -17.8407 C   0  0  0  0  0  0  0  0  0  0  0  0
   26.8759  -17.1493  -19.2225 N   0  0  0  0  0  0  0  0  0  0  0  0
   26.5361  -20.6872  -13.7915 C   0  0  0  0  0  0  0  0  0  0  0  0
   26.2786  -21.8196  -14.3261 O   0  0  0  0  0  0  0  0  0  0  0  0
   25.4623  -20.0476  -13.1290 N   0  0  0  0  0  0  0  0  0  0  0  0
   24.2320  -20.7426  -12.7728 C   0  0  1  0  0  0  0  0  0  0  0  0
   24.4808  -21.8226  -11.7735 C   0  0  0  0  0  0  0  0  0  0  0  0
   25.2384  -21.3560  -10.6007 C   0  0  0  0  0  0  0  0  0  0  0  0
   24.7240  -20.4557   -9.6806 C   0  0  0  0  0  0  0  0  0  0  0  0
   25.4348  -20.0398   -8.5756 C   0  0  0  0  0  0  0  0  0  0  0  0
   26.7122  -20.5282   -8.3594 C   0  0  0  0  0  0  0  0  0  0  0  0
   27.2502  -21.4225   -9.2539 C   0  0  0  0  0  0  0  0  0  0  0  0
   26.5084  -21.8254  -10.3621 C   0  0  0  0  0  0  0  0  0  0  0  0
   23.2652  -19.7538  -12.2627 C   0  0  0  0  0  0  0  0  0  0  0  0
   23.6284  -18.4181  -12.1294 O   0  0  0  0  0  0  0  0  0  0  0  0
   22.0928  -20.0381  -11.9265 O   0  0  0  0  0  0  0  0  0  0  0  0
  2  1  1  0
  3  2  1  0
  3  4  1  1
  5  3  1  0
  5  6  1  6
  7  8  2  0
  7  5  1  0
  9  7  1  0
 10  9  1  0
 11 12  1  0
 10 11  1  6
 12 13  1  0
 13 14  1  0
 14 15  1  0
 16 17  2  0
 16 10  1  0
 18 16  1  0
 19 20  1  1
 19 18  1  0
 20 21  1  0
 21 26  2  0
 21 22  1  0
 22 23  2  0
 23 24  1  0
 25 24  2  0
 26 25  1  0
 27 19  1  0
 28 27  1  0
 29 27  2  0
M  END
$$$$
