IKF.pdb
     RDKit          3D

 29 29  0  0  1  0  0  0  0  0999 V2000
   19.3528   -9.7353  -24.4421 C   0  0  0  0  0  0  0  0  0  0  0  0
   18.8272  -10.5629  -23.2921 C   0  0  0  0  0  0  0  0  0  0  0  0
   18.7157   -9.7156  -22.0243 C   0  0  2  0  0  0  0  0  0  0  0  0
   18.7262   -8.2584  -22.4046 C   0  0  0  0  0  0  0  0  0  0  0  0
   19.8377  -10.0940  -21.0628 C   0  0  2  0  0  0  0  0  0  0  0  0
   19.6061  -11.5354  -20.8207 N   0  0  0  0  0  0  0  0  0  0  0  0
   19.5877   -9.4448  -19.7566 C   0  0  0  0  0  0  0  0  0  0  0  0
   19.4256   -8.1771  -19.6487 O   0  0  0  0  0  0  0  0  0  0  0  0
   19.5129  -10.2117  -18.5618 N   0  0  0  0  0  0  0  0  0  0  0  0
   19.4169   -9.5879  -17.2552 C   0  0  1  0  0  0  0  0  0  0  0  0
   19.1049  -10.6512  -16.1903 C   0  0  0  0  0  0  0  0  0  0  0  0
   17.6294  -10.8826  -16.0736 C   0  0  0  0  0  0  0  0  0  0  0  0
   17.4199  -12.0737  -15.1643 C   0  0  0  0  0  0  0  0  0  0  0  0
   15.9496  -12.3058  -14.8871 C   0  0  0  0  0  0  0  0  0  0  0  0
   15.8364  -13.4148  -13.9633 N   0  0  0  0  0  0  0  0  0  0  0  0
   20.6269   -8.8358  -16.8666 C   0  0  0  0  0  0  0  0  0  0  0  0
   21.7783   -9.1493  -17.3253 O   0  0  0  0  0  0  0  0  0  0  0  0
   20.5842   -7.7372  -15.9765 N   0  0  0  0  0  0  0  0  0  0  0  0
   21.7679   -6.9631  -15.6253 C   0  0  1  0  0  0  0  0  0  0  0  0
   22.4030   -6.3535  -16.8302 C   0  0  0  0  0  0  0  0  0  0  0  0
   23.5537   -5.4964  -16.5008 C   0  0  0  0  0  0  0  0  0  0  0  0
   24.8665   -5.9359  -16.5747 C   0  0  0  0  0  0  0  0  0  0  0  0
   25.9375   -5.1194  -16.2823 C   0  0  0  0  0  0  0  0  0  0  0  0
   25.7142   -3.8081  -15.8986 C   0  0  0  0  0  0  0  0  0  0  0  0
   24.4235   -3.3423  -15.8160 C   0  0  0  0  0  0  0  0  0  0  0  0
   23.3602   -4.1903  -16.1177 C   0  0  0  0  0  0  0  0  0  0  0  0
   21.3808   -5.9325  -14.6451 C   0  0  0  0  0  0  0  0  0  0  0  0
   22.2858   -5.5031  -13.6806 O   0  0  0  0  0  0  0  0  0  0  0  0
   20.2512   -5.3925  -14.6145 O   0  0  0  0  0  0  0  0  0  0  0  0
  2  1  1  0
  3  2  1  0
  3  4  1  6
  5  3  1  0
  5  6  1  1
  7  8  2  0
  7  5  1  0
  9  7  1  0
 10  9  1  0
 11 12  1  0
 10 11  1  1
 12 13  1  0
 13 14  1  0
 14 15  1  0
 16 17  2  0
 16 10  1  0
 18 16  1  0
 19 20  1  6
 19 18  1  0
 20 21  1  0
 21 26  2  0
 21 22  1  0
 22 23  2  0
 23 24  1  0
 25 24  2  0
 26 25  1  0
 27 19  1  0
 28 27  1  0
 29 27  2  0
M  END
$$$$
