IKF.pdb
     RDKit          3D

 29 29  0  0  1  0  0  0  0  0999 V2000
   26.8349  -14.0129  -15.4362 C   0  0  0  0  0  0  0  0  0  0  0  0
   27.3573  -15.2921  -16.0483 C   0  0  0  0  0  0  0  0  0  0  0  0
   26.4315  -16.4640  -15.7215 C   0  0  2  0  0  0  0  0  0  0  0  0
   26.4434  -16.6998  -14.2341 C   0  0  0  0  0  0  0  0  0  0  0  0
   26.8593  -17.6865  -16.5273 C   0  0  2  0  0  0  0  0  0  0  0  0
   26.6396  -17.2639  -17.9283 N   0  0  0  0  0  0  0  0  0  0  0  0
   25.8817  -18.7745  -16.3012 C   0  0  0  0  0  0  0  0  0  0  0  0
   24.6705  -18.6955  -16.7153 O   0  0  0  0  0  0  0  0  0  0  0  0
   26.2554  -19.9612  -15.6133 N   0  0  0  0  0  0  0  0  0  0  0  0
   25.2942  -21.0037  -15.3051 C   0  0  1  0  0  0  0  0  0  0  0  0
   25.8576  -22.3725  -15.7182 C   0  0  0  0  0  0  0  0  0  0  0  0
   24.7842  -23.4174  -15.7307 C   0  0  0  0  0  0  0  0  0  0  0  0
   25.3646  -24.6674  -16.3552 C   0  0  0  0  0  0  0  0  0  0  0  0
   24.3096  -25.7394  -16.5296 C   0  0  0  0  0  0  0  0  0  0  0  0
   24.8968  -26.8294  -17.2801 N   0  0  0  0  0  0  0  0  0  0  0  0
   24.8933  -21.0396  -13.8843 C   0  0  0  0  0  0  0  0  0  0  0  0
   25.7530  -20.8957  -12.9490 O   0  0  0  0  0  0  0  0  0  0  0  0
   23.5517  -21.2315  -13.4790 N   0  0  0  0  0  0  0  0  0  0  0  0
   23.1205  -21.0899  -12.0942 C   0  0  1  0  0  0  0  0  0  0  0  0
   23.4787  -19.7509  -11.5415 C   0  0  0  0  0  0  0  0  0  0  0  0
   24.2553  -19.8341  -10.2937 C   0  0  0  0  0  0  0  0  0  0  0  0
   23.8414  -20.5731   -9.1962 C   0  0  0  0  0  0  0  0  0  0  0  0
   24.5854  -20.6595   -8.0393 C   0  0  0  0  0  0  0  0  0  0  0  0
   25.7941  -19.9903   -7.9509 C   0  0  0  0  0  0  0  0  0  0  0  0
   26.2321  -19.2491   -9.0226 C   0  0  0  0  0  0  0  0  0  0  0  0
   25.4591  -19.1798  -10.1794 C   0  0  0  0  0  0  0  0  0  0  0  0
   21.6667  -21.3244  -12.0291 C   0  0  0  0  0  0  0  0  0  0  0  0
   21.0029  -21.2951  -10.8076 O   0  0  0  0  0  0  0  0  0  0  0  0
   20.9552  -21.5576  -13.0330 O   0  0  0  0  0  0  0  0  0  0  0  0
  2  1  1  0
  3  2  1  0
  3  4  1  1
  5  3  1  0
  5  6  1  6
  7  8  2  0
  7  5  1  0
  9  7  1  0
 10  9  1  0
 11 12  1  0
 10 11  1  1
 12 13  1  0
 13 14  1  0
 14 15  1  0
 16 17  2  0
 16 10  1  0
 18 16  1  0
 19 20  1  6
 19 18  1  0
 20 21  1  0
 21 26  2  0
 21 22  1  0
 22 23  2  0
 23 24  1  0
 25 24  2  0
 26 25  1  0
 27 19  1  0
 28 27  1  0
 29 27  2  0
M  END
$$$$
