IKF.pdb
     RDKit          3D

 29 29  0  0  1  0  0  0  0  0999 V2000
   27.6457  -16.2569  -18.2614 C   0  0  0  0  0  0  0  0  0  0  0  0
   28.3096  -16.8144  -17.0235 C   0  0  0  0  0  0  0  0  0  0  0  0
   27.2742  -17.0862  -15.9320 C   0  0  2  0  0  0  0  0  0  0  0  0
   27.1202  -15.8522  -15.0823 C   0  0  0  0  0  0  0  0  0  0  0  0
   27.6918  -18.3172  -15.1339 C   0  0  2  0  0  0  0  0  0  0  0  0
   27.9012  -19.3443  -16.1783 N   0  0  0  0  0  0  0  0  0  0  0  0
   26.5293  -18.7993  -14.3550 C   0  0  0  0  0  0  0  0  0  0  0  0
   25.3651  -18.2757  -14.4787 O   0  0  0  0  0  0  0  0  0  0  0  0
   26.6617  -19.8749  -13.4347 N   0  0  0  0  0  0  0  0  0  0  0  0
   25.5345  -20.3702  -12.6670 C   0  0  1  0  0  0  0  0  0  0  0  0
   24.9291  -21.6001  -13.3617 C   0  0  0  0  0  0  0  0  0  0  0  0
   23.6892  -22.0620  -12.6593 C   0  0  0  0  0  0  0  0  0  0  0  0
   23.2039  -23.3145  -13.3559 C   0  0  0  0  0  0  0  0  0  0  0  0
   21.7027  -23.2919  -13.5517 C   0  0  0  0  0  0  0  0  0  0  0  0
   21.3110  -24.5437  -14.1648 N   0  0  0  0  0  0  0  0  0  0  0  0
   25.8705  -20.7048  -11.2685 C   0  0  0  0  0  0  0  0  0  0  0  0
   26.9198  -21.3763  -10.9811 O   0  0  0  0  0  0  0  0  0  0  0  0
   25.0626  -20.3063  -10.1778 N   0  0  0  0  0  0  0  0  0  0  0  0
   25.2306  -20.8479   -8.8353 C   0  0  1  0  0  0  0  0  0  0  0  0
   25.5576  -19.7778   -7.8482 C   0  0  0  0  0  0  0  0  0  0  0  0
   27.0054  -19.6140   -7.6377 C   0  0  0  0  0  0  0  0  0  0  0  0
   27.6821  -18.4410   -7.9342 C   0  0  0  0  0  0  0  0  0  0  0  0
   29.0346  -18.2917   -7.7157 C   0  0  0  0  0  0  0  0  0  0  0  0
   29.7617  -19.3414   -7.1806 C   0  0  0  0  0  0  0  0  0  0  0  0
   29.1192  -20.5178   -6.8758 C   0  0  0  0  0  0  0  0  0  0  0  0
   27.7510  -20.6401   -7.1073 C   0  0  0  0  0  0  0  0  0  0  0  0
   23.9977  -21.5635   -8.4604 C   0  0  0  0  0  0  0  0  0  0  0  0
   23.9163  -22.2376   -7.2468 O   0  0  0  0  0  0  0  0  0  0  0  0
   22.9757  -21.6118   -9.1827 O   0  0  0  0  0  0  0  0  0  0  0  0
  2  1  1  0
  3  2  1  0
  3  4  1  1
  5  3  1  0
  5  6  1  6
  7  8  2  0
  7  5  1  0
  9  7  1  0
 10  9  1  0
 11 12  1  0
 10 11  1  6
 12 13  1  0
 13 14  1  0
 14 15  1  0
 16 17  2  0
 16 10  1  0
 18 16  1  0
 19 20  1  1
 19 18  1  0
 20 21  1  0
 21 26  2  0
 21 22  1  0
 22 23  2  0
 23 24  1  0
 25 24  2  0
 26 25  1  0
 27 19  1  0
 28 27  1  0
 29 27  2  0
M  END
$$$$
