MIH.pdb
     RDKit          3D

 27 27  0  0  1  0  0  0  0  0999 V2000
   26.3774  -16.5013  -17.7184 C   0  0  0  0  0  0  0  0  0  0  0  0
   28.0056  -16.4184  -17.0254 S   0  0  0  0  0  0  0  0  0  0  0  0
   28.5918  -17.8069  -16.0995 C   0  0  0  0  0  0  0  0  0  0  0  0
   27.5727  -18.6872  -15.4884 C   0  0  0  0  0  0  0  0  0  0  0  0
   28.0732  -19.8245  -14.6848 C   0  0  2  0  0  0  0  0  0  0  0  0
   28.9177  -20.7452  -15.3646 N   0  0  0  0  0  0  0  0  0  0  0  0
   26.9424  -20.5530  -14.0285 C   0  0  0  0  0  0  0  0  0  0  0  0
   26.5630  -21.6348  -14.5028 O   0  0  0  0  0  0  0  0  0  0  0  0
   26.7236  -20.8546   -8.7708 C   0  0  0  0  0  0  0  0  0  0  0  0
   26.5030  -21.1875  -10.2061 C   0  0  0  0  0  0  0  0  0  0  0  0
   25.2306  -20.5545  -10.7709 C   0  0  2  0  0  0  0  0  0  0  0  0
   24.1045  -21.2521  -10.0545 C   0  0  0  0  0  0  0  0  0  0  0  0
   25.1943  -20.8293  -12.2512 C   0  0  2  0  0  0  0  0  0  0  0  0
   26.2884  -20.0610  -12.8910 N   0  0  0  0  0  0  0  0  0  0  0  0
   23.9122  -20.4604  -12.9041 C   0  0  0  0  0  0  0  0  0  0  0  0
   23.5559  -19.2247  -12.8285 O   0  0  0  0  0  0  0  0  0  0  0  0
   23.0388  -21.3083  -13.6016 N   0  0  0  0  0  0  0  0  0  0  0  0
   21.8382  -20.8255  -14.2841 C   0  0  1  0  0  0  0  0  0  0  0  0
   21.5181  -21.5952  -15.5042 C   0  0  0  0  0  0  0  0  0  0  0  0
   20.2697  -21.1127  -16.1265 C   0  0  0  0  0  0  0  0  0  0  0  0
   19.4249  -20.0869  -15.7372 C   0  0  0  0  0  0  0  0  0  0  0  0
   18.3775  -19.9702  -16.5506 N   0  0  0  0  0  0  0  0  0  0  0  0
   18.5365  -20.9309  -17.4853 C   0  0  0  0  0  0  0  0  0  0  0  0
   19.6577  -21.6151  -17.2422 N   0  0  0  0  0  0  0  0  0  0  0  0
   20.7268  -20.6986  -13.3210 C   0  0  0  0  0  0  0  0  0  0  0  0
   20.5891  -21.5366  -12.4067 O   0  0  0  0  0  0  0  0  0  0  0  0
   19.7921  -19.6647  -13.3746 O   0  0  0  0  0  0  0  0  0  0  0  0
  1  2  1  0
  3  4  1  0
  3  2  1  0
  4  5  1  0
  5  6  1  6
  5  7  1  0
  7  8  2  0
  9 10  1  0
 11 10  1  0
 11 12  1  1
 13 11  1  0
 14  7  1  0
 13 14  1  6
 15 13  1  0
 15 16  2  0
 17 15  1  0
 18 17  1  0
 18 19  1  6
 20 19  1  0
 21 20  2  0
 22 23  1  0
 22 21  1  0
 23 24  2  0
 24 20  1  0
 25 18  1  0
 26 25  2  0
 27 25  1  0
M  END
$$$$
