MIH.pdb
     RDKit          3D

 27 27  0  0  1  0  0  0  0  0999 V2000
   26.8284  -27.5401  -15.5350 C   0  0  0  0  0  0  0  0  0  0  0  0
   27.3329  -27.3888  -17.2263 S   0  0  0  0  0  0  0  0  0  0  0  0
   28.2333  -25.9430  -17.7039 C   0  0  0  0  0  0  0  0  0  0  0  0
   28.0758  -24.7413  -16.8566 C   0  0  0  0  0  0  0  0  0  0  0  0
   28.8880  -23.5597  -17.2221 C   0  0  2  0  0  0  0  0  0  0  0  0
   30.2987  -23.7228  -17.1413 N   0  0  0  0  0  0  0  0  0  0  0  0
   28.4645  -22.3573  -16.4380 C   0  0  0  0  0  0  0  0  0  0  0  0
   28.9218  -22.1868  -15.2974 O   0  0  0  0  0  0  0  0  0  0  0  0
   29.4344  -17.7894  -17.9611 C   0  0  0  0  0  0  0  0  0  0  0  0
   29.0042  -18.9333  -17.1093 C   0  0  0  0  0  0  0  0  0  0  0  0
   27.4882  -18.9888  -16.9157 C   0  0  2  0  0  0  0  0  0  0  0  0
   27.1554  -17.7448  -16.1350 C   0  0  0  0  0  0  0  0  0  0  0  0
   27.1668  -20.2331  -16.1305 C   0  0  2  0  0  0  0  0  0  0  0  0
   27.5656  -21.4077  -16.9417 N   0  0  0  0  0  0  0  0  0  0  0  0
   25.7314  -20.3697  -15.7734 C   0  0  0  0  0  0  0  0  0  0  0  0
   24.9008  -20.5094  -16.7481 O   0  0  0  0  0  0  0  0  0  0  0  0
   25.1717  -20.3668  -14.4870 N   0  0  0  0  0  0  0  0  0  0  0  0
   23.7302  -20.4354  -14.2472 C   0  0  1  0  0  0  0  0  0  0  0  0
   23.3774  -20.3433  -12.8152 C   0  0  0  0  0  0  0  0  0  0  0  0
   21.9175  -20.4362  -12.6188 C   0  0  0  0  0  0  0  0  0  0  0  0
   20.9006  -20.5089  -13.5559 C   0  0  0  0  0  0  0  0  0  0  0  0
   19.6999  -20.5586  -12.9831 N   0  0  0  0  0  0  0  0  0  0  0  0
   19.9312  -20.5181  -11.6539 C   0  0  0  0  0  0  0  0  0  0  0  0
   21.2455  -20.4453  -11.4272 N   0  0  0  0  0  0  0  0  0  0  0  0
   23.0268  -19.4771  -15.1224 C   0  0  0  0  0  0  0  0  0  0  0  0
   23.4015  -18.2883  -15.1813 O   0  0  0  0  0  0  0  0  0  0  0  0
   21.9338  -19.8335  -15.9121 O   0  0  0  0  0  0  0  0  0  0  0  0
  1  2  1  0
  3  4  1  0
  3  2  1  0
  4  5  1  0
  5  6  1  1
  5  7  1  0
  7  8  2  0
  9 10  1  0
 11 10  1  0
 11 12  1  1
 13 11  1  0
 14  7  1  0
 13 14  1  6
 15 13  1  0
 15 16  2  0
 17 15  1  0
 18 17  1  0
 18 19  1  1
 20 19  1  0
 21 20  2  0
 22 23  1  0
 22 21  1  0
 23 24  2  0
 24 20  1  0
 25 18  1  0
 26 25  2  0
 27 25  1  0
M  END
$$$$
