MIH.pdb
     RDKit          3D

 27 27  0  0  1  0  0  0  0  0999 V2000
   13.5497  -10.8921  -17.0911 C   0  0  0  0  0  0  0  0  0  0  0  0
   14.2709  -11.7876  -18.4387 S   0  0  0  0  0  0  0  0  0  0  0  0
   15.6284  -12.8678  -18.0934 C   0  0  0  0  0  0  0  0  0  0  0  0
   16.6028  -12.4200  -17.0751 C   0  0  0  0  0  0  0  0  0  0  0  0
   17.7525  -13.3151  -16.8171 C   0  0  2  0  0  0  0  0  0  0  0  0
   17.4348  -14.6199  -16.3484 N   0  0  0  0  0  0  0  0  0  0  0  0
   18.7392  -12.6656  -15.8980 C   0  0  0  0  0  0  0  0  0  0  0  0
   18.5414  -12.7028  -14.6739 O   0  0  0  0  0  0  0  0  0  0  0  0
   24.5684  -11.8272  -14.8265 C   0  0  0  0  0  0  0  0  0  0  0  0
   23.1829  -11.2940  -14.7031 C   0  0  0  0  0  0  0  0  0  0  0  0
   22.1937  -11.9975  -15.6334 C   0  0  2  0  0  0  0  0  0  0  0  0
   22.7124  -11.7261  -17.0208 C   0  0  0  0  0  0  0  0  0  0  0  0
   20.8378  -11.3770  -15.4222 C   0  0  2  0  0  0  0  0  0  0  0  0
   19.8869  -12.0116  -16.3656 N   0  0  0  0  0  0  0  0  0  0  0  0
   20.8051   -9.9072  -15.6343 C   0  0  0  0  0  0  0  0  0  0  0  0
   20.9006   -9.4932  -16.8504 O   0  0  0  0  0  0  0  0  0  0  0  0
   20.6785   -8.9100  -14.6557 N   0  0  0  0  0  0  0  0  0  0  0  0
   20.6566   -7.4822  -14.9738 C   0  0  1  0  0  0  0  0  0  0  0  0
   20.0671   -6.6592  -13.8974 C   0  0  0  0  0  0  0  0  0  0  0  0
   20.0287   -5.2334  -14.2770 C   0  0  0  0  0  0  0  0  0  0  0  0
   20.9028   -4.2079  -13.9578 C   0  0  0  0  0  0  0  0  0  0  0  0
   20.5132   -3.0443  -14.4741 N   0  0  0  0  0  0  0  0  0  0  0  0
   19.3695   -3.3089  -15.1403 C   0  0  0  0  0  0  0  0  0  0  0  0
   19.0731   -4.6066  -15.0293 N   0  0  0  0  0  0  0  0  0  0  0  0
   21.9915   -7.0459  -15.4282 C   0  0  0  0  0  0  0  0  0  0  0  0
   23.0177   -7.4591  -14.8507 O   0  0  0  0  0  0  0  0  0  0  0  0
   22.1793   -6.1716  -16.4985 O   0  0  0  0  0  0  0  0  0  0  0  0
  1  2  1  0
  3  4  1  0
  3  2  1  0
  4  5  1  0
  5  6  1  1
  5  7  1  0
  7  8  2  0
  9 10  1  0
 11 10  1  0
 11 12  1  6
 13 11  1  0
 14  7  1  0
 13 14  1  6
 15 13  1  0
 15 16  2  0
 17 15  1  0
 18 17  1  0
 18 19  1  1
 20 19  1  0
 21 20  2  0
 22 23  1  0
 22 21  1  0
 23 24  2  0
 24 20  1  0
 25 18  1  0
 26 25  2  0
 27 25  1  0
M  END
$$$$
