MIH.pdb
     RDKit          3D

 27 27  0  0  1  0  0  0  0  0999 V2000
   25.0993  -24.5415  -19.8564 C   0  0  0  0  0  0  0  0  0  0  0  0
   26.6899  -24.4060  -19.0885 S   0  0  0  0  0  0  0  0  0  0  0  0
   26.7796  -24.5205  -17.3257 C   0  0  0  0  0  0  0  0  0  0  0  0
   25.9505  -23.5757  -16.5466 C   0  0  0  0  0  0  0  0  0  0  0  0
   26.2513  -22.1363  -16.7114 C   0  0  2  0  0  0  0  0  0  0  0  0
   27.5824  -21.7380  -16.4074 N   0  0  0  0  0  0  0  0  0  0  0  0
   25.2767  -21.2963  -15.9467 C   0  0  0  0  0  0  0  0  0  0  0  0
   25.4543  -21.1179  -14.7319 O   0  0  0  0  0  0  0  0  0  0  0  0
   25.3011  -17.7273  -17.5984 C   0  0  0  0  0  0  0  0  0  0  0  0
   24.5096  -17.7664  -16.3369 C   0  0  0  0  0  0  0  0  0  0  0  0
   23.1721  -18.4897  -16.5003 C   0  0  2  0  0  0  0  0  0  0  0  0
   22.1618  -17.5782  -15.8553 C   0  0  0  0  0  0  0  0  0  0  0  0
   23.2662  -19.8065  -15.7756 C   0  0  2  0  0  0  0  0  0  0  0  0
   24.1626  -20.6974  -16.5498 N   0  0  0  0  0  0  0  0  0  0  0  0
   21.9608  -20.4914  -15.5928 C   0  0  0  0  0  0  0  0  0  0  0  0
   21.4412  -21.0402  -16.6360 O   0  0  0  0  0  0  0  0  0  0  0  0
   21.2238  -20.6130  -14.4052 N   0  0  0  0  0  0  0  0  0  0  0  0
   19.9338  -21.2994  -14.3370 C   0  0  1  0  0  0  0  0  0  0  0  0
   19.8422  -22.2468  -13.2066 C   0  0  0  0  0  0  0  0  0  0  0  0
   18.5170  -22.8950  -13.1606 C   0  0  0  0  0  0  0  0  0  0  0  0
   17.3500  -22.4819  -12.5400 C   0  0  0  0  0  0  0  0  0  0  0  0
   16.3612  -23.3574  -12.7082 N   0  0  0  0  0  0  0  0  0  0  0  0
   16.8853  -24.3574  -13.4480 C   0  0  0  0  0  0  0  0  0  0  0  0
   18.1655  -24.0921  -13.7220 N   0  0  0  0  0  0  0  0  0  0  0  0
   18.8347  -20.3171  -14.4139 C   0  0  0  0  0  0  0  0  0  0  0  0
   18.9750  -19.1779  -13.9241 O   0  0  0  0  0  0  0  0  0  0  0  0
   17.6102  -20.5960  -15.0207 O   0  0  0  0  0  0  0  0  0  0  0  0
  1  2  1  0
  3  4  1  0
  3  2  1  0
  4  5  1  0
  5  6  1  1
  5  7  1  0
  7  8  2  0
  9 10  1  0
 11 10  1  0
 11 12  1  1
 13 11  1  0
 14  7  1  0
 13 14  1  6
 15 13  1  0
 15 16  2  0
 17 15  1  0
 18 17  1  0
 18 19  1  1
 20 19  1  0
 21 20  2  0
 22 23  1  0
 22 21  1  0
 23 24  2  0
 24 20  1  0
 25 18  1  0
 26 25  2  0
 27 25  1  0
M  END
$$$$
