MIH.pdb
     RDKit          3D

 27 27  0  0  1  0  0  0  0  0999 V2000
   14.6760   -8.2493  -17.4596 C   0  0  0  0  0  0  0  0  0  0  0  0
   14.5111   -9.7526  -16.5370 S   0  0  0  0  0  0  0  0  0  0  0  0
   15.5035   -9.9566  -15.0871 C   0  0  0  0  0  0  0  0  0  0  0  0
   16.7882   -9.2257  -15.0423 C   0  0  0  0  0  0  0  0  0  0  0  0
   17.7282   -9.6001  -13.9625 C   0  0  2  0  0  0  0  0  0  0  0  0
   17.2231   -9.5090  -12.6359 N   0  0  0  0  0  0  0  0  0  0  0  0
   19.0079   -8.8326  -14.0785 C   0  0  0  0  0  0  0  0  0  0  0  0
   19.1379   -7.7736  -13.4454 O   0  0  0  0  0  0  0  0  0  0  0  0
   23.8885  -10.8438  -14.0074 C   0  0  0  0  0  0  0  0  0  0  0  0
   22.7316   -9.9067  -13.9568 C   0  0  0  0  0  0  0  0  0  0  0  0
   22.4573   -9.2329  -15.3020 C   0  0  2  0  0  0  0  0  0  0  0  0
   23.6819   -8.3983  -15.5697 C   0  0  0  0  0  0  0  0  0  0  0  0
   21.2297   -8.3742  -15.1482 C   0  0  2  0  0  0  0  0  0  0  0  0
   20.0746   -9.2630  -14.8788 N   0  0  0  0  0  0  0  0  0  0  0  0
   20.9195   -7.5427  -16.3393 C   0  0  0  0  0  0  0  0  0  0  0  0
   20.7321   -8.1664  -17.4508 O   0  0  0  0  0  0  0  0  0  0  0  0
   20.8033   -6.1456  -16.3936 N   0  0  0  0  0  0  0  0  0  0  0  0
   20.6130   -5.4118  -17.6448 C   0  0  1  0  0  0  0  0  0  0  0  0
   19.1976   -5.3401  -18.0633 C   0  0  0  0  0  0  0  0  0  0  0  0
   19.0529   -4.5924  -19.3276 C   0  0  0  0  0  0  0  0  0  0  0  0
   19.4929   -4.9122  -20.6011 C   0  0  0  0  0  0  0  0  0  0  0  0
   19.1871   -3.9646  -21.4848 N   0  0  0  0  0  0  0  0  0  0  0  0
   18.5384   -3.0113  -20.7832 C   0  0  0  0  0  0  0  0  0  0  0  0
   18.4535   -3.3748  -19.5006 N   0  0  0  0  0  0  0  0  0  0  0  0
   21.3068   -4.1107  -17.5773 C   0  0  0  0  0  0  0  0  0  0  0  0
   21.7387   -3.6850  -16.4867 O   0  0  0  0  0  0  0  0  0  0  0  0
   21.5145   -3.3038  -18.6958 O   0  0  0  0  0  0  0  0  0  0  0  0
  1  2  1  0
  3  4  1  0
  3  2  1  0
  4  5  1  0
  5  6  1  1
  5  7  1  0
  7  8  2  0
  9 10  1  0
 11 10  1  0
 11 12  1  1
 13 11  1  0
 14  7  1  0
 13 14  1  6
 15 13  1  0
 15 16  2  0
 17 15  1  0
 18 17  1  0
 18 19  1  1
 20 19  1  0
 21 20  2  0
 22 23  1  0
 22 21  1  0
 23 24  2  0
 24 20  1  0
 25 18  1  0
 26 25  2  0
 27 25  1  0
M  END
$$$$
