MIH.pdb
     RDKit          3D

 27 27  0  0  1  0  0  0  0  0999 V2000
   18.5504  -12.8013  -21.0659 C   0  0  0  0  0  0  0  0  0  0  0  0
   18.0310  -14.2382  -20.1695 S   0  0  0  0  0  0  0  0  0  0  0  0
   17.3285  -14.0121  -18.5620 C   0  0  0  0  0  0  0  0  0  0  0  0
   18.0867  -13.1748  -17.6076 C   0  0  0  0  0  0  0  0  0  0  0  0
   19.1724  -13.8420  -16.8555 C   0  0  2  0  0  0  0  0  0  0  0  0
   18.8067  -15.0168  -16.1420 N   0  0  0  0  0  0  0  0  0  0  0  0
   19.8583  -12.8774  -15.9395 C   0  0  0  0  0  0  0  0  0  0  0  0
   19.4191  -12.7175  -14.7903 O   0  0  0  0  0  0  0  0  0  0  0  0
   24.7646  -13.0360  -14.6871 C   0  0  0  0  0  0  0  0  0  0  0  0
   23.3223  -12.6628  -14.6899 C   0  0  0  0  0  0  0  0  0  0  0  0
   23.0590  -11.3254  -15.3833 C   0  0  2  0  0  0  0  0  0  0  0  0
   23.7310  -10.3007  -14.5080 C   0  0  0  0  0  0  0  0  0  0  0  0
   21.5687  -11.1145  -15.4319 C   0  0  2  0  0  0  0  0  0  0  0  0
   20.9854  -12.1409  -16.3280 N   0  0  0  0  0  0  0  0  0  0  0  0
   21.1630   -9.7723  -15.9223 C   0  0  0  0  0  0  0  0  0  0  0  0
   21.6461   -9.3974  -17.0561 O   0  0  0  0  0  0  0  0  0  0  0  0
   20.3055   -8.8598  -15.2897 N   0  0  0  0  0  0  0  0  0  0  0  0
   20.0237   -7.5291  -15.8283 C   0  0  1  0  0  0  0  0  0  0  0  0
   18.5842   -7.1952  -15.8201 C   0  0  0  0  0  0  0  0  0  0  0  0
   17.8113   -8.1484  -16.6402 C   0  0  0  0  0  0  0  0  0  0  0  0
   17.8772   -8.4039  -17.9996 C   0  0  0  0  0  0  0  0  0  0  0  0
   16.9943   -9.3269  -18.3749 N   0  0  0  0  0  0  0  0  0  0  0  0
   16.3409   -9.6818  -17.2484 C   0  0  0  0  0  0  0  0  0  0  0  0
   16.8189   -8.9874  -16.2123 N   0  0  0  0  0  0  0  0  0  0  0  0
   20.8965   -6.5285  -15.1836 C   0  0  0  0  0  0  0  0  0  0  0  0
   20.8553   -5.3342  -15.5432 O   0  0  0  0  0  0  0  0  0  0  0  0
   21.7926   -6.8493  -14.1640 O   0  0  0  0  0  0  0  0  0  0  0  0
  1  2  1  0
  3  4  1  0
  3  2  1  0
  4  5  1  0
  5  6  1  1
  5  7  1  0
  7  8  2  0
  9 10  1  0
 11 10  1  0
 11 12  1  1
 13 11  1  0
 14  7  1  0
 13 14  1  6
 15 13  1  0
 15 16  2  0
 17 15  1  0
 18 17  1  0
 18 19  1  1
 20 19  1  0
 21 20  2  0
 22 23  1  0
 22 21  1  0
 23 24  2  0
 24 20  1  0
 25 18  1  0
 26 25  2  0
 27 25  1  0
M  END
$$$$
