MIH.pdb
     RDKit          3D

 27 27  0  0  1  0  0  0  0  0999 V2000
    9.3834  -11.4826    6.2546 C   0  0  0  0  0  0  0  0  0  0  0  0
   10.9164  -12.3535    6.0829 S   0  0  0  0  0  0  0  0  0  0  0  0
   12.3165  -11.4673    5.4640 C   0  0  0  0  0  0  0  0  0  0  0  0
   13.5852  -12.2164    5.3374 C   0  0  0  0  0  0  0  0  0  0  0  0
   14.7507  -11.4664    4.8190 C   0  0  2  0  0  0  0  0  0  0  0  0
   14.6884  -11.0842    3.4504 N   0  0  0  0  0  0  0  0  0  0  0  0
   16.0240  -12.2054    5.0883 C   0  0  0  0  0  0  0  0  0  0  0  0
   16.4810  -12.9610    4.2169 O   0  0  0  0  0  0  0  0  0  0  0  0
   21.3494  -11.5317    7.9249 C   0  0  0  0  0  0  0  0  0  0  0  0
   20.3217  -12.4380    7.3403 C   0  0  0  0  0  0  0  0  0  0  0  0
   18.9918  -11.7309    7.0754 C   0  0  2  0  0  0  0  0  0  0  0  0
   18.5241  -11.2729    8.4316 C   0  0  0  0  0  0  0  0  0  0  0  0
   18.0436  -12.7365    6.4776 C   0  0  2  0  0  0  0  0  0  0  0  0
   16.7281  -12.0790    6.2932 N   0  0  0  0  0  0  0  0  0  0  0  0
   17.8519  -13.9546    7.3058 C   0  0  0  0  0  0  0  0  0  0  0  0
   17.1147  -13.8338    8.3552 O   0  0  0  0  0  0  0  0  0  0  0  0
   18.3830  -15.2323    7.0739 N   0  0  0  0  0  0  0  0  0  0  0  0
   18.0735  -16.3869    7.9172 C   0  0  1  0  0  0  0  0  0  0  0  0
   18.0634  -17.6619    7.1703 C   0  0  0  0  0  0  0  0  0  0  0  0
   17.0150  -17.6628    6.1314 C   0  0  0  0  0  0  0  0  0  0  0  0
   15.6423  -17.7928    6.2584 C   0  0  0  0  0  0  0  0  0  0  0  0
   15.0294  -17.7674    5.0768 N   0  0  0  0  0  0  0  0  0  0  0  0
   16.0117  -17.6188    4.1629 C   0  0  0  0  0  0  0  0  0  0  0  0
   17.1950  -17.5557    4.7794 N   0  0  0  0  0  0  0  0  0  0  0  0
   18.9305  -16.3785    9.1189 C   0  0  0  0  0  0  0  0  0  0  0  0
   19.9629  -15.6782    9.1493 O   0  0  0  0  0  0  0  0  0  0  0  0
   18.6453  -17.1308   10.2582 O   0  0  0  0  0  0  0  0  0  0  0  0
  1  2  1  0
  3  4  1  0
  3  2  1  0
  4  5  1  0
  5  6  1  6
  5  7  1  0
  7  8  2  0
  9 10  1  0
 11 10  1  0
 11 12  1  1
 13 11  1  0
 14  7  1  0
 13 14  1  1
 15 13  1  0
 15 16  2  0
 17 15  1  0
 18 17  1  0
 18 19  1  6
 20 19  1  0
 21 20  2  0
 22 23  1  0
 22 21  1  0
 23 24  2  0
 24 20  1  0
 25 18  1  0
 26 25  2  0
 27 25  1  0
M  END
$$$$
