MIH.pdb
     RDKit          3D

 27 27  0  0  1  0  0  0  0  0999 V2000
   25.8182  -16.4046  -16.9520 C   0  0  0  0  0  0  0  0  0  0  0  0
   27.5623  -16.7125  -16.9130 S   0  0  0  0  0  0  0  0  0  0  0  0
   28.1384  -18.1505  -16.0591 C   0  0  0  0  0  0  0  0  0  0  0  0
   27.1385  -18.9229  -15.2908 C   0  0  0  0  0  0  0  0  0  0  0  0
   27.6323  -20.1177  -14.5708 C   0  0  2  0  0  0  0  0  0  0  0  0
   28.2426  -21.1216  -15.3726 N   0  0  0  0  0  0  0  0  0  0  0  0
   26.5502  -20.7195  -13.7300 C   0  0  0  0  0  0  0  0  0  0  0  0
   25.9090  -21.6863  -14.1699 O   0  0  0  0  0  0  0  0  0  0  0  0
   27.0592  -20.7729   -8.4226 C   0  0  0  0  0  0  0  0  0  0  0  0
   26.6223  -21.1863   -9.7855 C   0  0  0  0  0  0  0  0  0  0  0  0
   25.3281  -20.5002  -10.2250 C   0  0  2  0  0  0  0  0  0  0  0  0
   24.2572  -21.1118   -9.3608 C   0  0  0  0  0  0  0  0  0  0  0  0
   25.1073  -20.8168  -11.6807 C   0  0  2  0  0  0  0  0  0  0  0  0
   26.2277  -20.2333  -12.4559 N   0  0  0  0  0  0  0  0  0  0  0  0
   23.8297  -20.2921  -12.2273 C   0  0  0  0  0  0  0  0  0  0  0  0
   23.8303  -19.0702  -12.6352 O   0  0  0  0  0  0  0  0  0  0  0  0
   22.6135  -20.9797  -12.3542 N   0  0  0  0  0  0  0  0  0  0  0  0
   21.5238  -20.5158  -13.2130 C   0  0  1  0  0  0  0  0  0  0  0  0
   21.9158  -20.4018  -14.6332 C   0  0  0  0  0  0  0  0  0  0  0  0
   20.8062  -19.8751  -15.4517 C   0  0  0  0  0  0  0  0  0  0  0  0
   20.0074  -18.7621  -15.2499 C   0  0  0  0  0  0  0  0  0  0  0  0
   19.0906  -18.6287  -16.2059 N   0  0  0  0  0  0  0  0  0  0  0  0
   19.2898  -19.6666  -17.0456 C   0  0  0  0  0  0  0  0  0  0  0  0
   20.3068  -20.4129  -16.6063 N   0  0  0  0  0  0  0  0  0  0  0  0
   20.3102  -21.3192  -12.9669 C   0  0  0  0  0  0  0  0  0  0  0  0
   20.3836  -22.5630  -12.8974 O   0  0  0  0  0  0  0  0  0  0  0  0
   19.0466  -20.7521  -12.8022 O   0  0  0  0  0  0  0  0  0  0  0  0
  1  2  1  0
  3  4  1  0
  3  2  1  0
  4  5  1  0
  5  6  1  6
  5  7  1  0
  7  8  2  0
  9 10  1  0
 11 10  1  0
 11 12  1  1
 13 11  1  0
 14  7  1  0
 13 14  1  6
 15 13  1  0
 15 16  2  0
 17 15  1  0
 18 17  1  0
 18 19  1  6
 20 19  1  0
 21 20  2  0
 22 23  1  0
 22 21  1  0
 23 24  2  0
 24 20  1  0
 25 18  1  0
 26 25  2  0
 27 25  1  0
M  END
$$$$
