MIH.pdb
     RDKit          3D

 27 27  0  0  1  0  0  0  0  0999 V2000
   21.6993  -20.3574   -1.9406 C   0  0  0  0  0  0  0  0  0  0  0  0
   20.8169  -19.7227   -0.5418 S   0  0  0  0  0  0  0  0  0  0  0  0
   19.1736  -20.3102   -0.2532 C   0  0  0  0  0  0  0  0  0  0  0  0
   18.5131  -19.8758    0.9966 C   0  0  0  0  0  0  0  0  0  0  0  0
   17.2184  -20.5149    1.3205 C   0  0  2  0  0  0  0  0  0  0  0  0
   16.2386  -20.4974    0.2896 N   0  0  0  0  0  0  0  0  0  0  0  0
   16.6455  -19.9508    2.5830 C   0  0  0  0  0  0  0  0  0  0  0  0
   15.5102  -19.4512    2.5620 O   0  0  0  0  0  0  0  0  0  0  0  0
   16.5134  -20.6533    8.6072 C   0  0  0  0  0  0  0  0  0  0  0  0
   16.3932  -19.7505    7.4283 C   0  0  0  0  0  0  0  0  0  0  0  0
   16.8811  -20.4013    6.1332 C   0  0  2  0  0  0  0  0  0  0  0  0
   18.3261  -20.7366    6.3930 C   0  0  0  0  0  0  0  0  0  0  0  0
   16.7419  -19.3902    5.0258 C   0  0  2  0  0  0  0  0  0  0  0  0
   17.3432  -19.9633    3.7982 N   0  0  0  0  0  0  0  0  0  0  0  0
   17.3966  -18.0874    5.3097 C   0  0  0  0  0  0  0  0  0  0  0  0
   18.6709  -18.0262    5.1312 O   0  0  0  0  0  0  0  0  0  0  0  0
   16.7823  -16.9058    5.7508 N   0  0  0  0  0  0  0  0  0  0  0  0
   17.5188  -15.6612    5.9708 C   0  0  1  0  0  0  0  0  0  0  0  0
   16.9093  -14.5006    5.2887 C   0  0  0  0  0  0  0  0  0  0  0  0
   17.7252  -13.2846    5.4739 C   0  0  0  0  0  0  0  0  0  0  0  0
   18.6095  -12.6702    4.6033 C   0  0  0  0  0  0  0  0  0  0  0  0
   19.1762  -11.5954    5.1473 N   0  0  0  0  0  0  0  0  0  0  0  0
   18.6577  -11.5029    6.3901 C   0  0  0  0  0  0  0  0  0  0  0  0
   17.7947  -12.5018    6.5938 N   0  0  0  0  0  0  0  0  0  0  0  0
   17.7702  -15.4716    7.4129 C   0  0  0  0  0  0  0  0  0  0  0  0
   18.7186  -14.7571    7.7966 O   0  0  0  0  0  0  0  0  0  0  0  0
   16.9854  -16.0627    8.4030 O   0  0  0  0  0  0  0  0  0  0  0  0
  1  2  1  0
  3  4  1  0
  3  2  1  0
  4  5  1  0
  5  6  1  6
  5  7  1  0
  7  8  2  0
  9 10  1  0
 11 10  1  0
 11 12  1  1
 13 11  1  0
 14  7  1  0
 13 14  1  6
 15 13  1  0
 15 16  2  0
 17 15  1  0
 18 17  1  0
 18 19  1  1
 20 19  1  0
 21 20  2  0
 22 23  1  0
 22 21  1  0
 23 24  2  0
 24 20  1  0
 25 18  1  0
 26 25  2  0
 27 25  1  0
M  END
$$$$
