MIH.pdb
     RDKit          3D

 27 27  0  0  1  0  0  0  0  0999 V2000
   25.1048   -8.9820  -23.7408 C   0  0  0  0  0  0  0  0  0  0  0  0
   25.1211  -10.6839  -24.2322 S   0  0  0  0  0  0  0  0  0  0  0  0
   25.5469  -11.8999  -23.0203 C   0  0  0  0  0  0  0  0  0  0  0  0
   25.2102  -11.5946  -21.6131 C   0  0  0  0  0  0  0  0  0  0  0  0
   25.8526  -12.4356  -20.5788 C   0  0  2  0  0  0  0  0  0  0  0  0
   25.8680  -13.8349  -20.8333 N   0  0  0  0  0  0  0  0  0  0  0  0
   25.2640  -12.1655  -19.2295 C   0  0  0  0  0  0  0  0  0  0  0  0
   24.2439  -12.7793  -18.8805 O   0  0  0  0  0  0  0  0  0  0  0  0
   28.4172  -12.3892  -15.6910 C   0  0  0  0  0  0  0  0  0  0  0  0
   26.9358  -12.3862  -15.8487 C   0  0  0  0  0  0  0  0  0  0  0  0
   26.3593  -10.9769  -15.9913 C   0  0  2  0  0  0  0  0  0  0  0  0
   25.8554  -10.6277  -14.6158 C   0  0  0  0  0  0  0  0  0  0  0  0
   25.2341  -11.0357  -16.9905 C   0  0  2  0  0  0  0  0  0  0  0  0
   25.8208  -11.2408  -18.3360 N   0  0  0  0  0  0  0  0  0  0  0  0
   24.3896   -9.8142  -17.0236 C   0  0  0  0  0  0  0  0  0  0  0  0
   24.9917   -8.6971  -17.2449 O   0  0  0  0  0  0  0  0  0  0  0  0
   23.0005   -9.7362  -16.8431 N   0  0  0  0  0  0  0  0  0  0  0  0
   22.2719   -8.4678  -16.8195 C   0  0  1  0  0  0  0  0  0  0  0  0
   20.9279   -8.5619  -17.4266 C   0  0  0  0  0  0  0  0  0  0  0  0
   20.2418   -7.2553  -17.4073 C   0  0  0  0  0  0  0  0  0  0  0  0
   20.5384   -6.0889  -18.0922 C   0  0  0  0  0  0  0  0  0  0  0  0
   19.6916   -5.1068  -17.7908 N   0  0  0  0  0  0  0  0  0  0  0  0
   18.8286   -5.6347  -16.8973 C   0  0  0  0  0  0  0  0  0  0  0  0
   19.1469   -6.9106  -16.6628 N   0  0  0  0  0  0  0  0  0  0  0  0
   22.2996   -7.8951  -15.4593 C   0  0  0  0  0  0  0  0  0  0  0  0
   22.1624   -8.6345  -14.4635 O   0  0  0  0  0  0  0  0  0  0  0  0
   22.4757   -6.5334  -15.2140 O   0  0  0  0  0  0  0  0  0  0  0  0
  1  2  1  0
  3  4  1  0
  3  2  1  0
  4  5  1  0
  5  6  1  6
  5  7  1  0
  7  8  2  0
  9 10  1  0
 11 10  1  0
 11 12  1  1
 13 11  1  0
 14  7  1  0
 13 14  1  6
 15 13  1  0
 15 16  2  0
 17 15  1  0
 18 17  1  0
 18 19  1  1
 20 19  1  0
 21 20  2  0
 22 23  1  0
 22 21  1  0
 23 24  2  0
 24 20  1  0
 25 18  1  0
 26 25  2  0
 27 25  1  0
M  END
$$$$
