MIH.pdb
     RDKit          3D

 27 27  0  0  1  0  0  0  0  0999 V2000
   29.5217  -18.0050  -15.6637 C   0  0  0  0  0  0  0  0  0  0  0  0
   28.3528  -17.8559  -16.9864 S   0  0  0  0  0  0  0  0  0  0  0  0
   27.5770  -19.3281  -17.5863 C   0  0  0  0  0  0  0  0  0  0  0  0
   26.7809  -20.1121  -16.6176 C   0  0  0  0  0  0  0  0  0  0  0  0
   27.5351  -20.9793  -15.6855 C   0  0  2  0  0  0  0  0  0  0  0  0
   28.2959  -22.0230  -16.2813 N   0  0  0  0  0  0  0  0  0  0  0  0
   26.6341  -21.5391  -14.6296 C   0  0  0  0  0  0  0  0  0  0  0  0
   26.3788  -22.7531  -14.6334 O   0  0  0  0  0  0  0  0  0  0  0  0
   25.5043  -20.9113   -8.7308 C   0  0  0  0  0  0  0  0  0  0  0  0
   25.0374  -21.3792  -10.0659 C   0  0  0  0  0  0  0  0  0  0  0  0
   25.8414  -20.7757  -11.2183 C   0  0  2  0  0  0  0  0  0  0  0  0
   25.5786  -19.2952  -11.1353 C   0  0  0  0  0  0  0  0  0  0  0  0
   25.3149  -21.3562  -12.5042 C   0  0  2  0  0  0  0  0  0  0  0  0
   26.0618  -20.7433  -13.6282 N   0  0  0  0  0  0  0  0  0  0  0  0
   23.8631  -21.1293  -12.7212 C   0  0  0  0  0  0  0  0  0  0  0  0
   23.0693  -21.5008  -11.7771 O   0  0  0  0  0  0  0  0  0  0  0  0
   23.2518  -20.5500  -13.8433 N   0  0  0  0  0  0  0  0  0  0  0  0
   21.8113  -20.3092  -13.9281 C   0  0  1  0  0  0  0  0  0  0  0  0
   21.3999  -19.7127  -15.2159 C   0  0  0  0  0  0  0  0  0  0  0  0
   22.3020  -18.6114  -15.6056 C   0  0  0  0  0  0  0  0  0  0  0  0
   23.3557  -18.6054  -16.5040 C   0  0  0  0  0  0  0  0  0  0  0  0
   23.9485  -17.4150  -16.5664 N   0  0  0  0  0  0  0  0  0  0  0  0
   23.2759  -16.6299  -15.6985 C   0  0  0  0  0  0  0  0  0  0  0  0
   22.2958  -17.3314  -15.1226 N   0  0  0  0  0  0  0  0  0  0  0  0
   21.0724  -21.5281  -13.5446 C   0  0  0  0  0  0  0  0  0  0  0  0
   21.6173  -22.6471  -13.6337 O   0  0  0  0  0  0  0  0  0  0  0  0
   19.7597  -21.5018  -13.0737 O   0  0  0  0  0  0  0  0  0  0  0  0
  1  2  1  0
  3  4  1  0
  3  2  1  0
  4  5  1  0
  5  6  1  6
  5  7  1  0
  7  8  2  0
  9 10  1  0
 11 10  1  0
 11 12  1  6
 13 11  1  0
 14  7  1  0
 13 14  1  6
 15 13  1  0
 15 16  2  0
 17 15  1  0
 18 17  1  0
 18 19  1  6
 20 19  1  0
 21 20  2  0
 22 23  1  0
 22 21  1  0
 23 24  2  0
 24 20  1  0
 25 18  1  0
 26 25  2  0
 27 25  1  0
M  END
$$$$
