MIH.pdb
     RDKit          3D

 27 27  0  0  1  0  0  0  0  0999 V2000
   28.3284  -29.7131   10.8899 C   0  0  0  0  0  0  0  0  0  0  0  0
   29.2844  -28.2392   11.1172 S   0  0  0  0  0  0  0  0  0  0  0  0
   30.6407  -27.9451   10.0205 C   0  0  0  0  0  0  0  0  0  0  0  0
   31.2549  -26.6003   10.0550 C   0  0  0  0  0  0  0  0  0  0  0  0
   32.3348  -26.3380    9.0779 C   0  0  2  0  0  0  0  0  0  0  0  0
   33.5037  -27.1377    9.2099 N   0  0  0  0  0  0  0  0  0  0  0  0
   32.7038  -24.8876    9.0663 C   0  0  0  0  0  0  0  0  0  0  0  0
   33.6283  -24.4924    9.7932 O   0  0  0  0  0  0  0  0  0  0  0  0
   32.9859  -22.3743    4.4908 C   0  0  0  0  0  0  0  0  0  0  0  0
   33.2581  -22.6517    5.9290 C   0  0  0  0  0  0  0  0  0  0  0  0
   32.2455  -21.9855    6.8615 C   0  0  2  0  0  0  0  0  0  0  0  0
   32.5660  -20.5159    6.7887 C   0  0  0  0  0  0  0  0  0  0  0  0
   32.4666  -22.5282    8.2488 C   0  0  2  0  0  0  0  0  0  0  0  0
   32.0436  -23.9487    8.2624 N   0  0  0  0  0  0  0  0  0  0  0  0
   31.7211  -21.8022    9.3088 C   0  0  0  0  0  0  0  0  0  0  0  0
   30.4511  -22.0089    9.3716 O   0  0  0  0  0  0  0  0  0  0  0  0
   32.2448  -20.9125   10.2586 N   0  0  0  0  0  0  0  0  0  0  0  0
   31.4431  -20.3444   11.3425 C   0  0  1  0  0  0  0  0  0  0  0  0
   30.6729  -21.3625   12.0867 C   0  0  0  0  0  0  0  0  0  0  0  0
   29.2218  -21.1902   11.8788 C   0  0  0  0  0  0  0  0  0  0  0  0
   28.5383  -20.2200   11.1653 C   0  0  0  0  0  0  0  0  0  0  0  0
   27.2197  -20.3911   11.2320 N   0  0  0  0  0  0  0  0  0  0  0  0
   27.0352  -21.4867   11.9984 C   0  0  0  0  0  0  0  0  0  0  0  0
   28.2186  -21.9689   12.3876 N   0  0  0  0  0  0  0  0  0  0  0  0
   32.2800  -19.4639   12.1811 C   0  0  0  0  0  0  0  0  0  0  0  0
   31.7504  -18.7026   13.0161 O   0  0  0  0  0  0  0  0  0  0  0  0
   33.6716  -19.4319   12.0925 O   0  0  0  0  0  0  0  0  0  0  0  0
  1  2  1  0
  3  4  1  0
  3  2  1  0
  4  5  1  0
  5  6  1  1
  5  7  1  0
  7  8  2  0
  9 10  1  0
 11 10  1  0
 11 12  1  1
 13 11  1  0
 14  7  1  0
 13 14  1  6
 15 13  1  0
 15 16  2  0
 17 15  1  0
 18 17  1  0
 18 19  1  1
 20 19  1  0
 21 20  2  0
 22 23  1  0
 22 21  1  0
 23 24  2  0
 24 20  1  0
 25 18  1  0
 26 25  2  0
 27 25  1  0
M  END
$$$$
