MIH.pdb
     RDKit          3D

 27 27  0  0  1  0  0  0  0  0999 V2000
   26.8029  -16.0213  -15.2234 C   0  0  0  0  0  0  0  0  0  0  0  0
   27.9135  -16.6367  -16.4587 S   0  0  0  0  0  0  0  0  0  0  0  0
   28.0589  -18.3887  -16.6540 C   0  0  0  0  0  0  0  0  0  0  0  0
   27.1322  -19.2327  -15.8694 C   0  0  0  0  0  0  0  0  0  0  0  0
   27.7457  -20.1907  -14.9232 C   0  0  2  0  0  0  0  0  0  0  0  0
   28.5881  -21.1826  -15.4976 N   0  0  0  0  0  0  0  0  0  0  0  0
   26.7028  -20.8367  -14.0658 C   0  0  0  0  0  0  0  0  0  0  0  0
   26.1412  -21.8669  -14.4688 O   0  0  0  0  0  0  0  0  0  0  0  0
   26.9866  -20.9014   -8.7230 C   0  0  0  0  0  0  0  0  0  0  0  0
   26.5848  -21.3199  -10.0951 C   0  0  0  0  0  0  0  0  0  0  0  0
   25.3624  -20.5594  -10.6110 C   0  0  2  0  0  0  0  0  0  0  0  0
   24.2134  -21.0750   -9.7852 C   0  0  0  0  0  0  0  0  0  0  0  0
   25.1875  -20.8975  -12.0680 C   0  0  2  0  0  0  0  0  0  0  0  0
   26.3305  -20.3228  -12.8164 N   0  0  0  0  0  0  0  0  0  0  0  0
   23.9266  -20.3835  -12.6617 C   0  0  0  0  0  0  0  0  0  0  0  0
   23.8337  -19.1077  -12.8137 O   0  0  0  0  0  0  0  0  0  0  0  0
   22.8176  -21.1330  -13.0817 N   0  0  0  0  0  0  0  0  0  0  0  0
   21.6274  -20.5259  -13.6774 C   0  0  1  0  0  0  0  0  0  0  0  0
   21.4446  -20.8864  -15.0988 C   0  0  0  0  0  0  0  0  0  0  0  0
   20.2100  -20.2901  -15.6453 C   0  0  0  0  0  0  0  0  0  0  0  0
   19.2238  -19.5556  -15.0084 C   0  0  0  0  0  0  0  0  0  0  0  0
   18.2463  -19.2081  -15.8427 N   0  0  0  0  0  0  0  0  0  0  0  0
   18.5948  -19.7204  -17.0418 C   0  0  0  0  0  0  0  0  0  0  0  0
   19.7598  -20.3650  -16.9351 N   0  0  0  0  0  0  0  0  0  0  0  0
   20.4520  -20.7715  -12.8189 C   0  0  0  0  0  0  0  0  0  0  0  0
   20.3287  -21.8586  -12.2188 O   0  0  0  0  0  0  0  0  0  0  0  0
   19.4394  -19.8305  -12.6332 O   0  0  0  0  0  0  0  0  0  0  0  0
  1  2  1  0
  3  4  1  0
  3  2  1  0
  4  5  1  0
  5  6  1  6
  5  7  1  0
  7  8  2  0
  9 10  1  0
 11 10  1  0
 11 12  1  1
 13 11  1  0
 14  7  1  0
 13 14  1  6
 15 13  1  0
 15 16  2  0
 17 15  1  0
 18 17  1  0
 18 19  1  6
 20 19  1  0
 21 20  2  0
 22 23  1  0
 22 21  1  0
 23 24  2  0
 24 20  1  0
 25 18  1  0
 26 25  2  0
 27 25  1  0
M  END
$$$$
