MIH.pdb
     RDKit          3D

 27 27  0  0  1  0  0  0  0  0999 V2000
   30.2262  -18.0985  -15.4860 C   0  0  0  0  0  0  0  0  0  0  0  0
   28.8334  -17.5279  -16.4201 S   0  0  0  0  0  0  0  0  0  0  0  0
   27.7518  -18.7344  -17.1296 C   0  0  0  0  0  0  0  0  0  0  0  0
   26.8667  -19.4727  -16.2032 C   0  0  0  0  0  0  0  0  0  0  0  0
   27.5148  -20.4556  -15.3069 C   0  0  2  0  0  0  0  0  0  0  0  0
   28.2426  -21.4976  -15.9455 N   0  0  0  0  0  0  0  0  0  0  0  0
   26.5252  -21.0353  -14.3453 C   0  0  0  0  0  0  0  0  0  0  0  0
   25.8710  -22.0351  -14.6794 O   0  0  0  0  0  0  0  0  0  0  0  0
   27.3508  -21.0771   -9.0952 C   0  0  0  0  0  0  0  0  0  0  0  0
   26.7581  -21.4989  -10.3952 C   0  0  0  0  0  0  0  0  0  0  0  0
   25.5349  -20.6676  -10.7847 C   0  0  2  0  0  0  0  0  0  0  0  0
   24.4466  -21.1254   -9.8499 C   0  0  0  0  0  0  0  0  0  0  0  0
   25.1975  -20.9836  -12.2180 C   0  0  2  0  0  0  0  0  0  0  0  0
   26.3042  -20.4920  -13.0727 N   0  0  0  0  0  0  0  0  0  0  0  0
   23.9282  -20.3733  -12.6897 C   0  0  0  0  0  0  0  0  0  0  0  0
   24.0017  -19.1839  -13.1792 O   0  0  0  0  0  0  0  0  0  0  0  0
   22.6486  -20.9480  -12.6662 N   0  0  0  0  0  0  0  0  0  0  0  0
   21.5692  -20.5218  -13.5569 C   0  0  1  0  0  0  0  0  0  0  0  0
   21.9355  -20.5980  -14.9865 C   0  0  0  0  0  0  0  0  0  0  0  0
   20.7973  -20.2248  -15.8489 C   0  0  0  0  0  0  0  0  0  0  0  0
   19.7027  -19.4228  -15.5731 C   0  0  0  0  0  0  0  0  0  0  0  0
   18.8715  -19.3429  -16.6100 N   0  0  0  0  0  0  0  0  0  0  0  0
   19.4271  -20.1017  -17.5783 C   0  0  0  0  0  0  0  0  0  0  0  0
   20.5714  -20.6299  -17.1360 N   0  0  0  0  0  0  0  0  0  0  0  0
   20.3163  -21.2157  -13.1996 C   0  0  0  0  0  0  0  0  0  0  0  0
   20.3391  -22.4136  -12.8509 O   0  0  0  0  0  0  0  0  0  0  0  0
   19.0693  -20.5915  -13.2297 O   0  0  0  0  0  0  0  0  0  0  0  0
  1  2  1  0
  3  4  1  0
  3  2  1  0
  4  5  1  0
  5  6  1  6
  5  7  1  0
  7  8  2  0
  9 10  1  0
 11 10  1  0
 11 12  1  1
 13 11  1  0
 14  7  1  0
 13 14  1  6
 15 13  1  0
 15 16  2  0
 17 15  1  0
 18 17  1  0
 18 19  1  6
 20 19  1  0
 21 20  2  0
 22 23  1  0
 22 21  1  0
 23 24  2  0
 24 20  1  0
 25 18  1  0
 26 25  2  0
 27 25  1  0
M  END
$$$$
