MIH.pdb
     RDKit          3D

 27 27  0  0  1  0  0  0  0  0999 V2000
   27.0395   -2.8505  -19.6821 C   0  0  0  0  0  0  0  0  0  0  0  0
   27.2459   -3.8787  -21.1098 S   0  0  0  0  0  0  0  0  0  0  0  0
   27.3465   -5.6286  -20.8722 C   0  0  0  0  0  0  0  0  0  0  0  0
   26.2438   -6.2711  -20.1250 C   0  0  0  0  0  0  0  0  0  0  0  0
   26.3740   -7.7221  -19.8659 C   0  0  2  0  0  0  0  0  0  0  0  0
   26.5007   -8.5522  -21.0139 N   0  0  0  0  0  0  0  0  0  0  0  0
   25.2567   -8.2120  -18.9988 C   0  0  0  0  0  0  0  0  0  0  0  0
   24.2610   -8.7284  -19.5290 O   0  0  0  0  0  0  0  0  0  0  0  0
   26.5593  -10.8059  -14.7659 C   0  0  0  0  0  0  0  0  0  0  0  0
   25.6562  -10.3923  -15.8761 C   0  0  0  0  0  0  0  0  0  0  0  0
   24.7690   -9.2033  -15.5048 C   0  0  2  0  0  0  0  0  0  0  0  0
   23.7033   -9.7836  -14.6130 C   0  0  0  0  0  0  0  0  0  0  0  0
   24.1808   -8.6496  -16.7758 C   0  0  2  0  0  0  0  0  0  0  0  0
   25.2878   -8.1114  -17.6015 N   0  0  0  0  0  0  0  0  0  0  0  0
   23.1827   -7.5706  -16.5611 C   0  0  0  0  0  0  0  0  0  0  0  0
   23.5022   -6.6404  -15.7291 O   0  0  0  0  0  0  0  0  0  0  0  0
   21.9234   -7.4451  -17.1665 N   0  0  0  0  0  0  0  0  0  0  0  0
   20.9953   -6.3586  -16.8528 C   0  0  1  0  0  0  0  0  0  0  0  0
   21.0583   -5.2463  -17.8236 C   0  0  0  0  0  0  0  0  0  0  0  0
   20.0454   -4.2164  -17.5204 C   0  0  0  0  0  0  0  0  0  0  0  0
   18.7893   -4.0207  -18.0695 C   0  0  0  0  0  0  0  0  0  0  0  0
   18.1778   -2.9606  -17.5455 N   0  0  0  0  0  0  0  0  0  0  0  0
   19.0428   -2.4541  -16.6414 C   0  0  0  0  0  0  0  0  0  0  0  0
   20.1553   -3.1931  -16.6190 N   0  0  0  0  0  0  0  0  0  0  0  0
   19.6430   -6.9019  -16.6185 C   0  0  0  0  0  0  0  0  0  0  0  0
   19.2980   -7.9781  -17.1476 O   0  0  0  0  0  0  0  0  0  0  0  0
   18.6984   -6.2630  -15.8153 O   0  0  0  0  0  0  0  0  0  0  0  0
  1  2  1  0
  3  4  1  0
  3  2  1  0
  4  5  1  0
  5  6  1  6
  5  7  1  0
  7  8  2  0
  9 10  1  0
 11 10  1  0
 11 12  1  1
 13 11  1  0
 14  7  1  0
 13 14  1  6
 15 13  1  0
 15 16  2  0
 17 15  1  0
 18 17  1  0
 18 19  1  6
 20 19  1  0
 21 20  2  0
 22 23  1  0
 22 21  1  0
 23 24  2  0
 24 20  1  0
 25 18  1  0
 26 25  2  0
 27 25  1  0
M  END
$$$$
