NYK.pdb
     RDKit          3D

 30 30  0  0  1  0  0  0  0  0999 V2000
   24.1407    1.9907  -11.1419 N   0  0  0  0  0  0  0  0  0  0  0  0
   25.2847    2.7064  -10.7064 C   0  0  0  0  0  0  0  0  0  0  0  0
   26.2133    2.9122  -11.5241 O   0  0  0  0  0  0  0  0  0  0  0  0
   25.3448    3.1824   -9.3123 C   0  0  0  0  0  0  0  0  0  0  0  0
   24.0569    2.7776   -8.5942 C   0  0  2  0  0  0  0  0  0  0  0  0
   22.9848    3.6827   -8.9948 N   0  0  0  0  0  0  0  0  0  0  0  0
   24.2988    2.8586   -7.1260 C   0  0  0  0  0  0  0  0  0  0  0  0
   24.3186    3.9794   -6.5942 O   0  0  0  0  0  0  0  0  0  0  0  0
   25.1715    0.0625    1.3273 O   0  0  0  0  0  0  0  0  0  0  0  0
   24.9748    0.1307   -0.0448 C   0  0  0  0  0  0  0  0  0  0  0  0
   24.0178    0.9816   -0.5566 C   0  0  0  0  0  0  0  0  0  0  0  0
   23.7901    1.0808   -1.9095 C   0  0  0  0  0  0  0  0  0  0  0  0
   24.5166    0.3241   -2.8376 C   0  0  0  0  0  0  0  0  0  0  0  0
   24.2520    0.4236   -4.2873 C   0  0  0  0  0  0  0  0  0  0  0  0
   24.7562    1.7243   -4.9056 C   0  0  2  0  0  0  0  0  0  0  0  0
   24.5003    1.7180   -6.3425 N   0  0  0  0  0  0  0  0  0  0  0  0
   26.2070    1.8089   -4.6840 C   0  0  0  0  0  0  0  0  0  0  0  0
   27.0300    1.1197   -5.3764 O   0  0  0  0  0  0  0  0  0  0  0  0
   25.4675   -0.5177   -2.2808 C   0  0  0  0  0  0  0  0  0  0  0  0
   25.7055   -0.6265   -0.9337 C   0  0  0  0  0  0  0  0  0  0  0  0
   26.8139    2.6435   -3.7062 N   0  0  0  0  0  0  0  0  0  0  0  0
   28.2813    2.7158   -3.5344 C   0  0  1  0  0  0  0  0  0  0  0  0
   28.7293    4.1467   -3.5523 C   0  0  0  0  0  0  0  0  0  0  0  0
   30.1679    4.4029   -3.3721 C   0  0  0  0  0  0  0  0  0  0  0  0
   30.5635    5.8512   -3.3745 C   0  0  0  0  0  0  0  0  0  0  0  0
   32.0603    6.0379   -3.2799 C   0  0  0  0  0  0  0  0  0  0  0  0
   32.7370    5.6950   -4.5099 N   0  0  0  0  0  0  0  0  0  0  0  0
   28.6505    2.1309   -2.2165 C   0  0  0  0  0  0  0  0  0  0  0  0
   29.7249    1.5281   -1.9915 O   0  0  0  0  0  0  0  0  0  0  0  0
   27.7656    2.2465   -1.1492 O   0  0  0  0  0  0  0  0  0  0  0  0
  2  3  2  0
  2  1  1  0
  4  5  1  0
  4  2  1  0
  5  7  1  0
  5  6  1  6
  7  8  2  0
  9 10  1  0
 10 11  2  0
 11 12  1  0
 13 14  1  0
 13 12  2  0
 15 14  1  6
 15 17  1  0
 16 15  1  0
 16  7  1  0
 17 18  2  0
 19 13  1  0
 20 19  2  0
 20 10  1  0
 21 17  1  0
 21 22  1  0
 22 28  1  0
 22 23  1  1
 24 23  1  0
 25 24  1  0
 26 25  1  0
 26 27  1  0
 28 29  2  0
 28 30  1  0
M  END
$$$$
