NYK.pdb
     RDKit          3D

 30 30  0  0  1  0  0  0  0  0999 V2000
   29.3755  -23.9636  -18.6874 N   0  0  0  0  0  0  0  0  0  0  0  0
   29.2305  -22.7007  -18.0592 C   0  0  0  0  0  0  0  0  0  0  0  0
   29.5319  -21.6688  -18.7055 O   0  0  0  0  0  0  0  0  0  0  0  0
   28.7330  -22.6426  -16.6726 C   0  0  0  0  0  0  0  0  0  0  0  0
   27.7047  -21.5164  -16.5614 C   0  0  2  0  0  0  0  0  0  0  0  0
   28.3951  -20.2332  -16.6392 N   0  0  0  0  0  0  0  0  0  0  0  0
   26.9977  -21.6602  -15.2575 C   0  0  0  0  0  0  0  0  0  0  0  0
   26.4972  -22.7605  -14.9781 O   0  0  0  0  0  0  0  0  0  0  0  0
   31.4628  -22.4698   -9.8138 O   0  0  0  0  0  0  0  0  0  0  0  0
   30.3805  -21.8120  -10.3810 C   0  0  0  0  0  0  0  0  0  0  0  0
   29.1806  -21.7597   -9.7032 C   0  0  0  0  0  0  0  0  0  0  0  0
   28.0828  -21.1184  -10.2281 C   0  0  0  0  0  0  0  0  0  0  0  0
   28.1251  -20.4854  -11.4769 C   0  0  0  0  0  0  0  0  0  0  0  0
   26.9357  -19.8153  -12.0408 C   0  0  0  0  0  0  0  0  0  0  0  0
   26.1944  -20.6649  -13.0689 C   0  0  2  0  0  0  0  0  0  0  0  0
   26.8866  -20.6003  -14.3522 N   0  0  0  0  0  0  0  0  0  0  0  0
   24.8412  -20.1145  -13.2332 C   0  0  0  0  0  0  0  0  0  0  0  0
   24.6460  -18.9667  -13.7588 O   0  0  0  0  0  0  0  0  0  0  0  0
   29.3492  -20.5621  -12.1238 C   0  0  0  0  0  0  0  0  0  0  0  0
   30.4523  -21.1980  -11.6120 C   0  0  0  0  0  0  0  0  0  0  0  0
   23.6553  -20.7896  -12.8349 N   0  0  0  0  0  0  0  0  0  0  0  0
   22.3120  -20.2008  -13.0273 C   0  0  1  0  0  0  0  0  0  0  0  0
   21.6241  -20.8612  -14.1845 C   0  0  0  0  0  0  0  0  0  0  0  0
   20.2416  -20.4442  -14.4715 C   0  0  0  0  0  0  0  0  0  0  0  0
   19.5579  -21.2108  -15.5665 C   0  0  0  0  0  0  0  0  0  0  0  0
   18.1566  -20.7097  -15.8300 C   0  0  0  0  0  0  0  0  0  0  0  0
   17.4835  -21.4711  -16.8575 N   0  0  0  0  0  0  0  0  0  0  0  0
   21.4938  -20.4356  -11.8063 C   0  0  0  0  0  0  0  0  0  0  0  0
   20.3916  -19.8849  -11.5825 O   0  0  0  0  0  0  0  0  0  0  0  0
   21.9580  -21.3178  -10.8358 O   0  0  0  0  0  0  0  0  0  0  0  0
  2  3  2  0
  2  1  1  0
  4  5  1  0
  4  2  1  0
  5  7  1  0
  5  6  1  1
  7  8  2  0
  9 10  1  0
 10 11  2  0
 11 12  1  0
 13 14  1  0
 13 12  2  0
 15 14  1  1
 15 17  1  0
 16 15  1  0
 16  7  1  0
 17 18  2  0
 19 13  1  0
 20 19  2  0
 20 10  1  0
 21 17  1  0
 21 22  1  0
 22 28  1  0
 22 23  1  6
 24 23  1  0
 25 24  1  0
 26 25  1  0
 26 27  1  0
 28 29  2  0
 28 30  1  0
M  END
$$$$
