NYK.pdb
     RDKit          3D

 30 30  0  0  1  0  0  0  0  0999 V2000
   27.6934  -20.9664  -21.0192 N   0  0  0  0  0  0  0  0  0  0  0  0
   27.9633  -20.7346  -19.6466 C   0  0  0  0  0  0  0  0  0  0  0  0
   28.8459  -19.8978  -19.3397 O   0  0  0  0  0  0  0  0  0  0  0  0
   27.2012  -21.4823  -18.6300 C   0  0  0  0  0  0  0  0  0  0  0  0
   28.1426  -21.8670  -17.4880 C   0  0  2  0  0  0  0  0  0  0  0  0
   28.8654  -23.0799  -17.8561 N   0  0  0  0  0  0  0  0  0  0  0  0
   27.3217  -22.0893  -16.2644 C   0  0  0  0  0  0  0  0  0  0  0  0
   26.6976  -23.1565  -16.1607 O   0  0  0  0  0  0  0  0  0  0  0  0
   24.1595  -20.7623   -8.0017 O   0  0  0  0  0  0  0  0  0  0  0  0
   24.8103  -20.6323   -9.2204 C   0  0  0  0  0  0  0  0  0  0  0  0
   25.8807  -21.4507   -9.5144 C   0  0  0  0  0  0  0  0  0  0  0  0
   26.5542  -21.3559  -10.7100 C   0  0  0  0  0  0  0  0  0  0  0  0
   26.1894  -20.4248  -11.6907 C   0  0  0  0  0  0  0  0  0  0  0  0
   26.9305  -20.3178  -12.9639 C   0  0  0  0  0  0  0  0  0  0  0  0
   26.4190  -21.2683  -14.0423 C   0  0  2  0  0  0  0  0  0  0  0  0
   27.2389  -21.1381  -15.2427 N   0  0  0  0  0  0  0  0  0  0  0  0
   25.0363  -20.8926  -14.3710 C   0  0  0  0  0  0  0  0  0  0  0  0
   24.7727  -19.8450  -15.0528 O   0  0  0  0  0  0  0  0  0  0  0  0
   25.1095  -19.6226  -11.3545 C   0  0  0  0  0  0  0  0  0  0  0  0
   24.4284  -19.7064  -10.1661 C   0  0  0  0  0  0  0  0  0  0  0  0
   23.8942  -21.6397  -13.9732 N   0  0  0  0  0  0  0  0  0  0  0  0
   22.5183  -21.2126  -14.3086 C   0  0  1  0  0  0  0  0  0  0  0  0
   21.5753  -22.3708  -14.1750 C   0  0  0  0  0  0  0  0  0  0  0  0
   20.1613  -22.1278  -14.5055 C   0  0  0  0  0  0  0  0  0  0  0  0
   19.2541  -23.3124  -14.3384 C   0  0  0  0  0  0  0  0  0  0  0  0
   17.8248  -22.9991  -14.7165 C   0  0  0  0  0  0  0  0  0  0  0  0
   16.9535  -24.1430  -14.5720 N   0  0  0  0  0  0  0  0  0  0  0  0
   22.0879  -20.1522  -13.3570 C   0  0  0  0  0  0  0  0  0  0  0  0
   21.6109  -19.0476  -13.7045 O   0  0  0  0  0  0  0  0  0  0  0  0
   22.2112  -20.3750  -11.9892 O   0  0  0  0  0  0  0  0  0  0  0  0
  2  3  2  0
  2  1  1  0
  4  5  1  0
  4  2  1  0
  5  7  1  0
  5  6  1  6
  7  8  2  0
  9 10  1  0
 10 11  2  0
 11 12  1  0
 13 14  1  0
 13 12  2  0
 15 14  1  1
 15 17  1  0
 16 15  1  0
 16  7  1  0
 17 18  2  0
 19 13  1  0
 20 19  2  0
 20 10  1  0
 21 17  1  0
 21 22  1  0
 22 28  1  0
 22 23  1  1
 24 23  1  0
 25 24  1  0
 26 25  1  0
 26 27  1  0
 28 29  2  0
 28 30  1  0
M  END
$$$$
