NYK.pdb
     RDKit          3D

 30 30  0  0  1  0  0  0  0  0999 V2000
   29.9104  -20.9619  -18.9394 N   0  0  0  0  0  0  0  0  0  0  0  0
   28.6310  -21.2340  -19.4869 C   0  0  0  0  0  0  0  0  0  0  0  0
   28.3599  -20.7951  -20.6303 O   0  0  0  0  0  0  0  0  0  0  0  0
   27.6656  -22.0199  -18.6971 C   0  0  0  0  0  0  0  0  0  0  0  0
   28.3041  -22.3879  -17.3572 C   0  0  2  0  0  0  0  0  0  0  0  0
   29.0147  -23.6542  -17.5014 N   0  0  0  0  0  0  0  0  0  0  0  0
   27.2196  -22.5008  -16.3415 C   0  0  0  0  0  0  0  0  0  0  0  0
   26.5335  -23.5343  -16.3261 O   0  0  0  0  0  0  0  0  0  0  0  0
   22.8317  -20.6590   -8.7538 O   0  0  0  0  0  0  0  0  0  0  0  0
   23.6505  -20.6089   -9.8732 C   0  0  0  0  0  0  0  0  0  0  0  0
   24.8853  -21.2224   -9.8448 C   0  0  0  0  0  0  0  0  0  0  0  0
   25.7283  -21.1975  -10.9314 C   0  0  0  0  0  0  0  0  0  0  0  0
   25.3781  -20.5487  -12.1224 C   0  0  0  0  0  0  0  0  0  0  0  0
   26.2978  -20.5112  -13.2775 C   0  0  0  0  0  0  0  0  0  0  0  0
   25.9862  -21.5688  -14.3324 C   0  0  2  0  0  0  0  0  0  0  0  0
   26.9597  -21.4847  -15.4165 N   0  0  0  0  0  0  0  0  0  0  0  0
   24.6477  -21.2978  -14.8766 C   0  0  0  0  0  0  0  0  0  0  0  0
   24.4481  -20.3647  -15.7259 O   0  0  0  0  0  0  0  0  0  0  0  0
   24.1297  -19.9454  -12.1077 C   0  0  0  0  0  0  0  0  0  0  0  0
   23.2786  -19.9627  -11.0314 C   0  0  0  0  0  0  0  0  0  0  0  0
   23.4821  -22.0291  -14.5197 N   0  0  0  0  0  0  0  0  0  0  0  0
   22.1544  -21.7240  -15.0959 C   0  0  1  0  0  0  0  0  0  0  0  0
   21.6026  -22.9376  -15.7825 C   0  0  0  0  0  0  0  0  0  0  0  0
   20.3410  -22.7751  -16.5238 C   0  0  0  0  0  0  0  0  0  0  0  0
   19.8490  -24.0084  -17.2244 C   0  0  0  0  0  0  0  0  0  0  0  0
   18.6247  -23.7396  -18.0687 C   0  0  0  0  0  0  0  0  0  0  0  0
   18.1162  -24.9368  -18.6985 N   0  0  0  0  0  0  0  0  0  0  0  0
   21.2196  -21.3454  -14.0014 C   0  0  0  0  0  0  0  0  0  0  0  0
   21.2029  -21.8875  -12.8726 O   0  0  0  0  0  0  0  0  0  0  0  0
   20.2956  -20.3280  -14.2176 O   0  0  0  0  0  0  0  0  0  0  0  0
  2  3  2  0
  2  1  1  0
  4  5  1  0
  4  2  1  0
  5  7  1  0
  5  6  1  6
  7  8  2  0
  9 10  1  0
 10 11  2  0
 11 12  1  0
 13 14  1  0
 13 12  2  0
 15 14  1  1
 15 17  1  0
 16 15  1  0
 16  7  1  0
 17 18  2  0
 19 13  1  0
 20 19  2  0
 20 10  1  0
 21 17  1  0
 21 22  1  0
 22 28  1  0
 22 23  1  1
 24 23  1  0
 25 24  1  0
 26 25  1  0
 26 27  1  0
 28 29  2  0
 28 30  1  0
M  END
$$$$
