NYK.pdb
     RDKit          3D

 30 30  0  0  1  0  0  0  0  0999 V2000
   22.6534  -10.5861  -22.6814 N   0  0  0  0  0  0  0  0  0  0  0  0
   21.4150   -9.8954  -22.6799 C   0  0  0  0  0  0  0  0  0  0  0  0
   21.0208   -9.3642  -23.7456 O   0  0  0  0  0  0  0  0  0  0  0  0
   20.6354   -9.8244  -21.4306 C   0  0  0  0  0  0  0  0  0  0  0  0
   21.3741  -10.6013  -20.3402 C   0  0  2  0  0  0  0  0  0  0  0  0
   21.1161  -12.0268  -20.5148 N   0  0  0  0  0  0  0  0  0  0  0  0
   20.8769  -10.1304  -19.0167 C   0  0  0  0  0  0  0  0  0  0  0  0
   19.6511  -10.0864  -18.8306 O   0  0  0  0  0  0  0  0  0  0  0  0
   19.7521  -15.6442  -15.8522 O   0  0  0  0  0  0  0  0  0  0  0  0
   20.2623  -14.3550  -15.7941 C   0  0  0  0  0  0  0  0  0  0  0  0
   21.5441  -14.1065  -16.2381 C   0  0  0  0  0  0  0  0  0  0  0  0
   22.0892  -12.8442  -16.1989 C   0  0  0  0  0  0  0  0  0  0  0  0
   21.3727  -11.7460  -15.7066 C   0  0  0  0  0  0  0  0  0  0  0  0
   21.9731  -10.3977  -15.6510 C   0  0  0  0  0  0  0  0  0  0  0  0
   21.3393   -9.4133  -16.6296 C   0  0  2  0  0  0  0  0  0  0  0  0
   21.7460   -9.7428  -17.9921 N   0  0  0  0  0  0  0  0  0  0  0  0
   21.8228   -8.0635  -16.3050 C   0  0  0  0  0  0  0  0  0  0  0  0
   23.0208   -7.7029  -16.5629 O   0  0  0  0  0  0  0  0  0  0  0  0
   20.0896  -12.0400  -15.2706 C   0  0  0  0  0  0  0  0  0  0  0  0
   19.5332  -13.2939  -15.3043 C   0  0  0  0  0  0  0  0  0  0  0  0
   21.0244   -7.0599  -15.6917 N   0  0  0  0  0  0  0  0  0  0  0  0
   21.5676   -5.7312  -15.3347 C   0  0  1  0  0  0  0  0  0  0  0  0
   20.6160   -4.6557  -15.7664 C   0  0  0  0  0  0  0  0  0  0  0  0
   21.0102   -3.2626  -15.4995 C   0  0  0  0  0  0  0  0  0  0  0  0
   20.0181   -2.2237  -15.9358 C   0  0  0  0  0  0  0  0  0  0  0  0
   20.5462   -0.8178  -15.7658 C   0  0  0  0  0  0  0  0  0  0  0  0
   19.5576    0.1849  -16.0909 N   0  0  0  0  0  0  0  0  0  0  0  0
   21.7240   -5.6459  -13.8570 C   0  0  0  0  0  0  0  0  0  0  0  0
   20.9850   -6.2373  -13.0369 O   0  0  0  0  0  0  0  0  0  0  0  0
   22.7473   -4.8677  -13.3251 O   0  0  0  0  0  0  0  0  0  0  0  0
  2  3  2  0
  2  1  1  0
  4  5  1  0
  4  2  1  0
  5  7  1  0
  5  6  1  6
  7  8  2  0
  9 10  1  0
 10 11  2  0
 11 12  1  0
 13 14  1  0
 13 12  2  0
 15 14  1  1
 15 17  1  0
 16 15  1  0
 16  7  1  0
 17 18  2  0
 19 13  1  0
 20 19  2  0
 20 10  1  0
 21 17  1  0
 21 22  1  0
 22 28  1  0
 22 23  1  1
 24 23  1  0
 25 24  1  0
 26 25  1  0
 26 27  1  0
 28 29  2  0
 28 30  1  0
M  END
$$$$
