NYK.pdb
     RDKit          3D

 30 30  0  0  1  0  0  0  0  0999 V2000
   28.5604  -19.3718  -20.2666 N   0  0  0  0  0  0  0  0  0  0  0  0
   28.0820  -20.7056  -20.2133 C   0  0  0  0  0  0  0  0  0  0  0  0
   28.3638  -21.4842  -21.1554 O   0  0  0  0  0  0  0  0  0  0  0  0
   27.2719  -21.1309  -19.0572 C   0  0  0  0  0  0  0  0  0  0  0  0
   28.1265  -21.0396  -17.7924 C   0  0  2  0  0  0  0  0  0  0  0  0
   29.2303  -21.9884  -17.8953 N   0  0  0  0  0  0  0  0  0  0  0  0
   27.2601  -21.3585  -16.6227 C   0  0  0  0  0  0  0  0  0  0  0  0
   26.2951  -22.1189  -16.7954 O   0  0  0  0  0  0  0  0  0  0  0  0
   24.0490  -20.7297   -8.2928 O   0  0  0  0  0  0  0  0  0  0  0  0
   24.8575  -20.6785   -9.4196 C   0  0  0  0  0  0  0  0  0  0  0  0
   24.8742  -19.5400  -10.1977 C   0  0  0  0  0  0  0  0  0  0  0  0
   25.6605  -19.4464  -11.3224 C   0  0  0  0  0  0  0  0  0  0  0  0
   26.4846  -20.5006  -11.7365 C   0  0  0  0  0  0  0  0  0  0  0  0
   27.3113  -20.3977  -12.9562 C   0  0  0  0  0  0  0  0  0  0  0  0
   26.6852  -21.0789  -14.1696 C   0  0  2  0  0  0  0  0  0  0  0  0
   27.5047  -20.8298  -15.3514 N   0  0  0  0  0  0  0  0  0  0  0  0
   25.3521  -20.4991  -14.3878 C   0  0  0  0  0  0  0  0  0  0  0  0
   25.2045  -19.2969  -14.7937 O   0  0  0  0  0  0  0  0  0  0  0  0
   26.4372  -21.6252  -10.9267 C   0  0  0  0  0  0  0  0  0  0  0  0
   25.6580  -21.7322   -9.8022 C   0  0  0  0  0  0  0  0  0  0  0  0
   24.1353  -21.2027  -14.1747 N   0  0  0  0  0  0  0  0  0  0  0  0
   22.8144  -20.5546  -14.3268 C   0  0  1  0  0  0  0  0  0  0  0  0
   21.9551  -21.3553  -15.2590 C   0  0  0  0  0  0  0  0  0  0  0  0
   20.6315  -20.8041  -15.5935 C   0  0  0  0  0  0  0  0  0  0  0  0
   19.8321  -21.6134  -16.5734 C   0  0  0  0  0  0  0  0  0  0  0  0
   18.5329  -20.9394  -16.9502 C   0  0  0  0  0  0  0  0  0  0  0  0
   17.8428  -21.6303  -18.0155 N   0  0  0  0  0  0  0  0  0  0  0  0
   22.1378  -20.5026  -13.0021 C   0  0  0  0  0  0  0  0  0  0  0  0
   21.5385  -19.4966  -12.5581 O   0  0  0  0  0  0  0  0  0  0  0  0
   22.1559  -21.6283  -12.1846 O   0  0  0  0  0  0  0  0  0  0  0  0
  2  3  2  0
  2  1  1  0
  4  5  1  0
  4  2  1  0
  5  7  1  0
  5  6  1  6
  7  8  2  0
  9 10  1  0
 10 11  2  0
 11 12  1  0
 13 14  1  0
 13 12  2  0
 15 14  1  1
 15 17  1  0
 16 15  1  0
 16  7  1  0
 17 18  2  0
 19 13  1  0
 20 19  2  0
 20 10  1  0
 21 17  1  0
 21 22  1  0
 22 28  1  0
 22 23  1  6
 24 23  1  0
 25 24  1  0
 26 25  1  0
 26 27  1  0
 28 29  2  0
 28 30  1  0
M  END
$$$$
