NYK.pdb
     RDKit          3D

 30 30  0  0  1  0  0  0  0  0999 V2000
   28.3212  -20.9421  -19.2108 N   0  0  0  0  0  0  0  0  0  0  0  0
   26.9755  -21.3430  -19.4084 C   0  0  0  0  0  0  0  0  0  0  0  0
   26.4375  -21.1184  -20.5190 O   0  0  0  0  0  0  0  0  0  0  0  0
   26.2562  -22.0071  -18.3062 C   0  0  0  0  0  0  0  0  0  0  0  0
   27.1607  -22.0422  -17.0737 C   0  0  2  0  0  0  0  0  0  0  0  0
   28.1077  -23.1439  -17.2106 N   0  0  0  0  0  0  0  0  0  0  0  0
   26.3003  -22.2286  -15.8715 C   0  0  0  0  0  0  0  0  0  0  0  0
   25.8464  -23.3604  -15.6427 O   0  0  0  0  0  0  0  0  0  0  0  0
   22.5296  -20.4686   -7.9854 O   0  0  0  0  0  0  0  0  0  0  0  0
   23.2830  -20.4097   -9.1493 C   0  0  0  0  0  0  0  0  0  0  0  0
   22.7863  -19.7476  -10.2524 C   0  0  0  0  0  0  0  0  0  0  0  0
   23.4994  -19.6647  -11.4256 C   0  0  0  0  0  0  0  0  0  0  0  0
   24.7657  -20.2475  -11.5623 C   0  0  0  0  0  0  0  0  0  0  0  0
   25.5159  -20.1693  -12.8323 C   0  0  0  0  0  0  0  0  0  0  0  0
   25.1627  -21.2844  -13.8121 C   0  0  2  0  0  0  0  0  0  0  0  0
   25.9963  -21.1738  -15.0051 N   0  0  0  0  0  0  0  0  0  0  0  0
   23.7544  -21.1268  -14.2029 C   0  0  0  0  0  0  0  0  0  0  0  0
   23.3720  -20.1637  -14.9500 O   0  0  0  0  0  0  0  0  0  0  0  0
   25.2268  -20.9029  -10.4306 C   0  0  0  0  0  0  0  0  0  0  0  0
   24.5265  -20.9931   -9.2539 C   0  0  0  0  0  0  0  0  0  0  0  0
   22.7145  -22.0076  -13.7986 N   0  0  0  0  0  0  0  0  0  0  0  0
   21.3125  -21.8214  -14.2318 C   0  0  1  0  0  0  0  0  0  0  0  0
   20.4418  -22.8761  -13.6168 C   0  0  0  0  0  0  0  0  0  0  0  0
   19.0304  -22.9101  -14.0344 C   0  0  0  0  0  0  0  0  0  0  0  0
   18.2439  -24.0858  -13.5311 C   0  0  0  0  0  0  0  0  0  0  0  0
   16.8369  -24.1141  -14.0823 C   0  0  0  0  0  0  0  0  0  0  0  0
   16.0397  -25.1711  -13.5030 N   0  0  0  0  0  0  0  0  0  0  0  0
   20.8280  -20.4925  -13.7687 C   0  0  0  0  0  0  0  0  0  0  0  0
   20.5253  -19.5490  -14.5346 O   0  0  0  0  0  0  0  0  0  0  0  0
   20.6929  -20.2554  -12.4045 O   0  0  0  0  0  0  0  0  0  0  0  0
  2  3  2  0
  2  1  1  0
  4  5  1  0
  4  2  1  0
  5  7  1  0
  5  6  1  6
  7  8  2  0
  9 10  1  0
 10 11  2  0
 11 12  1  0
 13 14  1  0
 13 12  2  0
 15 14  1  1
 15 17  1  0
 16 15  1  0
 16  7  1  0
 17 18  2  0
 19 13  1  0
 20 19  2  0
 20 10  1  0
 21 17  1  0
 21 22  1  0
 22 28  1  0
 22 23  1  1
 24 23  1  0
 25 24  1  0
 26 25  1  0
 26 27  1  0
 28 29  2  0
 28 30  1  0
M  END
$$$$
