NYK.pdb
     RDKit          3D

 30 30  0  0  1  0  0  0  0  0999 V2000
   28.5190  -21.9265  -20.8809 N   0  0  0  0  0  0  0  0  0  0  0  0
   28.5017  -21.2146  -19.6547 C   0  0  0  0  0  0  0  0  0  0  0  0
   29.2066  -20.1826  -19.5480 O   0  0  0  0  0  0  0  0  0  0  0  0
   27.6596  -21.7093  -18.5504 C   0  0  0  0  0  0  0  0  0  0  0  0
   28.5206  -21.8490  -17.2944 C   0  0  2  0  0  0  0  0  0  0  0  0
   29.4629  -22.9469  -17.4839 N   0  0  0  0  0  0  0  0  0  0  0  0
   27.6175  -22.1183  -16.1400 C   0  0  0  0  0  0  0  0  0  0  0  0
   27.1357  -23.2556  -16.0230 O   0  0  0  0  0  0  0  0  0  0  0  0
   23.5277  -20.6782   -8.2943 O   0  0  0  0  0  0  0  0  0  0  0  0
   24.2803  -20.5617   -9.4544 C   0  0  0  0  0  0  0  0  0  0  0  0
   25.5381  -21.1244   -9.5126 C   0  0  0  0  0  0  0  0  0  0  0  0
   26.3176  -21.0330  -10.6421 C   0  0  0  0  0  0  0  0  0  0  0  0
   25.8764  -20.3648  -11.7913 C   0  0  0  0  0  0  0  0  0  0  0  0
   26.7282  -20.2558  -12.9930 C   0  0  0  0  0  0  0  0  0  0  0  0
   26.4424  -21.3324  -14.0358 C   0  0  2  0  0  0  0  0  0  0  0  0
   27.3043  -21.1345  -15.1969 N   0  0  0  0  0  0  0  0  0  0  0  0
   25.0407  -21.2039  -14.4599 C   0  0  0  0  0  0  0  0  0  0  0  0
   24.6776  -20.3204  -15.3080 O   0  0  0  0  0  0  0  0  0  0  0  0
   24.6078  -19.8142  -11.6898 C   0  0  0  0  0  0  0  0  0  0  0  0
   23.8192  -19.8979  -10.5699 C   0  0  0  0  0  0  0  0  0  0  0  0
   23.9869  -22.0287  -13.9804 N   0  0  0  0  0  0  0  0  0  0  0  0
   22.5794  -21.8229  -14.3863 C   0  0  1  0  0  0  0  0  0  0  0  0
   21.9409  -23.1411  -14.7077 C   0  0  0  0  0  0  0  0  0  0  0  0
   20.5587  -23.1127  -15.2139 C   0  0  0  0  0  0  0  0  0  0  0  0
   19.9914  -24.4491  -15.5964 C   0  0  0  0  0  0  0  0  0  0  0  0
   18.5938  -24.3395  -16.1611 C   0  0  0  0  0  0  0  0  0  0  0  0
   18.0024  -25.6320  -16.4222 N   0  0  0  0  0  0  0  0  0  0  0  0
   21.8285  -21.2069  -13.2585 C   0  0  0  0  0  0  0  0  0  0  0  0
   21.7948  -21.6755  -12.0976 O   0  0  0  0  0  0  0  0  0  0  0  0
   21.1103  -20.0359  -13.4788 O   0  0  0  0  0  0  0  0  0  0  0  0
  2  3  2  0
  2  1  1  0
  4  5  1  0
  4  2  1  0
  5  7  1  0
  5  6  1  6
  7  8  2  0
  9 10  1  0
 10 11  2  0
 11 12  1  0
 13 14  1  0
 13 12  2  0
 15 14  1  1
 15 17  1  0
 16 15  1  0
 16  7  1  0
 17 18  2  0
 19 13  1  0
 20 19  2  0
 20 10  1  0
 21 17  1  0
 21 22  1  0
 22 28  1  0
 22 23  1  1
 24 23  1  0
 25 24  1  0
 26 25  1  0
 26 27  1  0
 28 29  2  0
 28 30  1  0
M  END
$$$$
