NYK.pdb
     RDKit          3D

 30 30  0  0  1  0  0  0  0  0999 V2000
   18.3002  -14.7756  -14.9075 N   0  0  0  0  0  0  0  0  0  0  0  0
   19.2964  -14.5382  -15.8882 C   0  0  0  0  0  0  0  0  0  0  0  0
   20.1147  -15.4525  -16.1485 O   0  0  0  0  0  0  0  0  0  0  0  0
   19.3375  -13.2297  -16.5662 C   0  0  0  0  0  0  0  0  0  0  0  0
   18.2570  -12.3275  -15.9688 C   0  0  2  0  0  0  0  0  0  0  0  0
   16.9454  -12.8405  -16.3503 N   0  0  0  0  0  0  0  0  0  0  0  0
   18.4608  -10.9483  -16.4948 C   0  0  0  0  0  0  0  0  0  0  0  0
   18.4366  -10.7778  -17.7235 O   0  0  0  0  0  0  0  0  0  0  0  0
   12.8352   -7.7990  -18.4660 O   0  0  0  0  0  0  0  0  0  0  0  0
   14.0043   -7.7862  -17.7184 C   0  0  0  0  0  0  0  0  0  0  0  0
   14.8760   -6.7235  -17.8309 C   0  0  0  0  0  0  0  0  0  0  0  0
   16.0454   -6.6702  -17.1086 C   0  0  0  0  0  0  0  0  0  0  0  0
   16.4124   -7.6906  -16.2221 C   0  0  0  0  0  0  0  0  0  0  0  0
   17.6793   -7.6334  -15.4649 C   0  0  0  0  0  0  0  0  0  0  0  0
   18.7940   -8.4683  -16.0884 C   0  0  2  0  0  0  0  0  0  0  0  0
   18.6747   -9.8552  -15.6494 N   0  0  0  0  0  0  0  0  0  0  0  0
   20.0837   -7.9353  -15.6264 C   0  0  0  0  0  0  0  0  0  0  0  0
   20.5073   -8.1457  -14.4398 O   0  0  0  0  0  0  0  0  0  0  0  0
   15.5087   -8.7390  -16.1398 C   0  0  0  0  0  0  0  0  0  0  0  0
   14.3387   -8.8051  -16.8538 C   0  0  0  0  0  0  0  0  0  0  0  0
   20.9574   -7.1580  -16.4348 N   0  0  0  0  0  0  0  0  0  0  0  0
   22.2307   -6.6115  -15.9172 C   0  0  1  0  0  0  0  0  0  0  0  0
   22.9740   -5.9145  -17.0174 C   0  0  0  0  0  0  0  0  0  0  0  0
   24.2571   -5.2834  -16.6668 C   0  0  0  0  0  0  0  0  0  0  0  0
   24.9084   -4.5042  -17.7725 C   0  0  0  0  0  0  0  0  0  0  0  0
   26.1243   -3.7416  -17.2990 C   0  0  0  0  0  0  0  0  0  0  0  0
   26.6351   -2.8394  -18.3057 N   0  0  0  0  0  0  0  0  0  0  0  0
   21.9396   -5.6150  -14.8507 C   0  0  0  0  0  0  0  0  0  0  0  0
   21.0218   -4.7654  -14.9144 O   0  0  0  0  0  0  0  0  0  0  0  0
   22.7200   -5.6039  -13.6989 O   0  0  0  0  0  0  0  0  0  0  0  0
  2  3  2  0
  2  1  1  0
  4  5  1  0
  4  2  1  0
  5  7  1  0
  5  6  1  6
  7  8  2  0
  9 10  1  0
 10 11  2  0
 11 12  1  0
 13 14  1  0
 13 12  2  0
 15 14  1  1
 15 17  1  0
 16 15  1  0
 16  7  1  0
 17 18  2  0
 19 13  1  0
 20 19  2  0
 20 10  1  0
 21 17  1  0
 21 22  1  0
 22 28  1  0
 22 23  1  6
 24 23  1  0
 25 24  1  0
 26 25  1  0
 26 27  1  0
 28 29  2  0
 28 30  1  0
M  END
$$$$
