NYK.pdb
     RDKit          3D

 30 30  0  0  1  0  0  0  0  0999 V2000
   13.5564  -11.2663  -16.6665 N   0  0  0  0  0  0  0  0  0  0  0  0
   14.5441  -10.2918  -16.3741 C   0  0  0  0  0  0  0  0  0  0  0  0
   14.7986   -9.4157  -17.2349 O   0  0  0  0  0  0  0  0  0  0  0  0
   15.2368  -10.3411  -15.0736 C   0  0  0  0  0  0  0  0  0  0  0  0
   16.6287   -9.7275  -15.2296 C   0  0  2  0  0  0  0  0  0  0  0  0
   17.5643  -10.7698  -15.6386 N   0  0  0  0  0  0  0  0  0  0  0  0
   17.0273   -9.1414  -13.9188 C   0  0  0  0  0  0  0  0  0  0  0  0
   17.3038   -9.9143  -12.9886 O   0  0  0  0  0  0  0  0  0  0  0  0
   23.2951   -9.7458  -14.2690 O   0  0  0  0  0  0  0  0  0  0  0  0
   22.2294   -8.9374  -13.8991 C   0  0  0  0  0  0  0  0  0  0  0  0
   21.6112   -8.1465  -14.8447 C   0  0  0  0  0  0  0  0  0  0  0  0
   20.5518   -7.3307  -14.5218 C   0  0  0  0  0  0  0  0  0  0  0  0
   20.0456   -7.2600  -13.2177 C   0  0  0  0  0  0  0  0  0  0  0  0
   18.9197   -6.3670  -12.8766 C   0  0  0  0  0  0  0  0  0  0  0  0
   17.6397   -7.1175  -12.5205 C   0  0  2  0  0  0  0  0  0  0  0  0
   17.0976   -7.7599  -13.7136 N   0  0  0  0  0  0  0  0  0  0  0  0
   16.6581   -6.1446  -12.0197 C   0  0  0  0  0  0  0  0  0  0  0  0
   16.1613   -5.2454  -12.7790 O   0  0  0  0  0  0  0  0  0  0  0  0
   20.6958   -8.0704  -12.2994 C   0  0  0  0  0  0  0  0  0  0  0  0
   21.7532   -8.8890  -12.6075 C   0  0  0  0  0  0  0  0  0  0  0  0
   16.1814   -6.1145  -10.6808 N   0  0  0  0  0  0  0  0  0  0  0  0
   15.2254   -5.0893  -10.2086 C   0  0  1  0  0  0  0  0  0  0  0  0
   14.4170   -5.6297   -9.0671 C   0  0  0  0  0  0  0  0  0  0  0  0
   13.4877   -6.7323   -9.3642 C   0  0  0  0  0  0  0  0  0  0  0  0
   12.6607   -7.2008   -8.2021 C   0  0  0  0  0  0  0  0  0  0  0  0
   11.7085   -8.3103   -8.5849 C   0  0  0  0  0  0  0  0  0  0  0  0
   10.9041   -8.7550   -7.4696 N   0  0  0  0  0  0  0  0  0  0  0  0
   15.9795   -3.9022   -9.7214 C   0  0  0  0  0  0  0  0  0  0  0  0
   17.2133   -3.8931   -9.5069 O   0  0  0  0  0  0  0  0  0  0  0  0
   15.2966   -2.7142   -9.4812 O   0  0  0  0  0  0  0  0  0  0  0  0
  2  3  2  0
  2  1  1  0
  4  5  1  0
  4  2  1  0
  5  7  1  0
  5  6  1  1
  7  8  2  0
  9 10  1  0
 10 11  2  0
 11 12  1  0
 13 14  1  0
 13 12  2  0
 15 14  1  6
 15 17  1  0
 16 15  1  0
 16  7  1  0
 17 18  2  0
 19 13  1  0
 20 19  2  0
 20 10  1  0
 21 17  1  0
 21 22  1  0
 22 28  1  0
 22 23  1  1
 24 23  1  0
 25 24  1  0
 26 25  1  0
 26 27  1  0
 28 29  2  0
 28 30  1  0
M  END
$$$$
