NYK.pdb
     RDKit          3D

 30 30  0  0  1  0  0  0  0  0999 V2000
   29.8133  -19.2450  -20.1237 N   0  0  0  0  0  0  0  0  0  0  0  0
   28.3999  -19.1487  -20.0615 C   0  0  0  0  0  0  0  0  0  0  0  0
   27.8075  -18.4357  -20.9064 O   0  0  0  0  0  0  0  0  0  0  0  0
   27.6768  -19.8863  -19.0096 C   0  0  0  0  0  0  0  0  0  0  0  0
   28.6893  -20.6432  -18.1492 C   0  0  2  0  0  0  0  0  0  0  0  0
   29.1899  -21.7888  -18.9016 N   0  0  0  0  0  0  0  0  0  0  0  0
   28.0012  -21.0860  -16.9038 C   0  0  0  0  0  0  0  0  0  0  0  0
   27.4176  -22.1807  -16.9118 O   0  0  0  0  0  0  0  0  0  0  0  0
   25.1698  -20.8347   -8.4122 O   0  0  0  0  0  0  0  0  0  0  0  0
   25.7734  -20.5372   -9.6258 C   0  0  0  0  0  0  0  0  0  0  0  0
   26.6306  -21.4493  -10.2047 C   0  0  0  0  0  0  0  0  0  0  0  0
   27.2499  -21.1954  -11.4064 C   0  0  0  0  0  0  0  0  0  0  0  0
   27.0433  -19.9989  -12.1047 C   0  0  0  0  0  0  0  0  0  0  0  0
   27.7274  -19.7273  -13.3853 C   0  0  0  0  0  0  0  0  0  0  0  0
   27.2575  -20.6276  -14.5241 C   0  0  2  0  0  0  0  0  0  0  0  0
   27.9978  -20.3093  -15.7410 N   0  0  0  0  0  0  0  0  0  0  0  0
   25.8294  -20.3690  -14.7580 C   0  0  0  0  0  0  0  0  0  0  0  0
   25.4305  -19.3105  -15.3515 O   0  0  0  0  0  0  0  0  0  0  0  0
   26.1754  -19.1107  -11.4877 C   0  0  0  0  0  0  0  0  0  0  0  0
   25.5506  -19.3510  -10.2898 C   0  0  0  0  0  0  0  0  0  0  0  0
   24.7869  -21.2487  -14.3579 N   0  0  0  0  0  0  0  0  0  0  0  0
   23.3637  -20.9634  -14.6426 C   0  0  1  0  0  0  0  0  0  0  0  0
   22.6173  -22.2459  -14.8590 C   0  0  0  0  0  0  0  0  0  0  0  0
   21.1803  -22.1443  -15.1624 C   0  0  0  0  0  0  0  0  0  0  0  0
   20.4897  -23.4509  -15.4268 C   0  0  0  0  0  0  0  0  0  0  0  0
   19.0396  -23.2670  -15.8105 C   0  0  0  0  0  0  0  0  0  0  0  0
   18.8822  -22.8529  -17.1861 N   0  0  0  0  0  0  0  0  0  0  0  0
   22.7594  -20.2670  -13.4742 C   0  0  0  0  0  0  0  0  0  0  0  0
   23.0484  -20.5159  -12.2813 O   0  0  0  0  0  0  0  0  0  0  0  0
   21.8115  -19.2720  -13.6911 O   0  0  0  0  0  0  0  0  0  0  0  0
  2  3  2  0
  2  1  1  0
  4  5  1  0
  4  2  1  0
  5  7  1  0
  5  6  1  6
  7  8  2  0
  9 10  1  0
 10 11  2  0
 11 12  1  0
 13 14  1  0
 13 12  2  0
 15 14  1  1
 15 17  1  0
 16 15  1  0
 16  7  1  0
 17 18  2  0
 19 13  1  0
 20 19  2  0
 20 10  1  0
 21 17  1  0
 21 22  1  0
 22 28  1  0
 22 23  1  1
 24 23  1  0
 25 24  1  0
 26 25  1  0
 26 27  1  0
 28 29  2  0
 28 30  1  0
M  END
$$$$
