NYK.pdb
     RDKit          3D

 30 30  0  0  1  0  0  0  0  0999 V2000
   17.3559  -14.1006  -19.4871 N   0  0  0  0  0  0  0  0  0  0  0  0
   16.5455  -14.1989  -18.3278 C   0  0  0  0  0  0  0  0  0  0  0  0
   15.7223  -15.1418  -18.2471 O   0  0  0  0  0  0  0  0  0  0  0  0
   16.6964  -13.1934  -17.2603 C   0  0  0  0  0  0  0  0  0  0  0  0
   18.1813  -13.0410  -16.9288 C   0  0  2  0  0  0  0  0  0  0  0  0
   18.6253  -14.2160  -16.1861 N   0  0  0  0  0  0  0  0  0  0  0  0
   18.3510  -11.8040  -16.1154 C   0  0  0  0  0  0  0  0  0  0  0  0
   17.5902  -11.6246  -15.1520 O   0  0  0  0  0  0  0  0  0  0  0  0
   22.5225   -4.3962  -13.2492 O   0  0  0  0  0  0  0  0  0  0  0  0
   22.1778   -5.6168  -13.8125 C   0  0  0  0  0  0  0  0  0  0  0  0
   21.7174   -6.6362  -13.0057 C   0  0  0  0  0  0  0  0  0  0  0  0
   21.3645   -7.8613  -13.5220 C   0  0  0  0  0  0  0  0  0  0  0  0
   21.4540   -8.1382  -14.8921 C   0  0  0  0  0  0  0  0  0  0  0  0
   21.0905   -9.4630  -15.4348 C   0  0  0  0  0  0  0  0  0  0  0  0
   19.5878   -9.6460  -15.6260 C   0  0  2  0  0  0  0  0  0  0  0  0
   19.3341  -10.8530  -16.4063 N   0  0  0  0  0  0  0  0  0  0  0  0
   19.0721   -8.4862  -16.3677 C   0  0  0  0  0  0  0  0  0  0  0  0
   19.3478   -8.3059  -17.6019 O   0  0  0  0  0  0  0  0  0  0  0  0
   21.9213   -7.0869  -15.6661 C   0  0  0  0  0  0  0  0  0  0  0  0
   22.2764   -5.8599  -15.1647 C   0  0  0  0  0  0  0  0  0  0  0  0
   18.2400   -7.4846  -15.7973 N   0  0  0  0  0  0  0  0  0  0  0  0
   17.7918   -6.3026  -16.5654 C   0  0  1  0  0  0  0  0  0  0  0  0
   16.2998   -6.1754  -16.4859 C   0  0  0  0  0  0  0  0  0  0  0  0
   15.5001   -7.2066  -17.1675 C   0  0  0  0  0  0  0  0  0  0  0  0
   14.7958   -8.1723  -16.2590 C   0  0  0  0  0  0  0  0  0  0  0  0
   13.9239   -9.1448  -17.0194 C   0  0  0  0  0  0  0  0  0  0  0  0
   13.2271  -10.0600  -16.1445 N   0  0  0  0  0  0  0  0  0  0  0  0
   18.3937   -5.0763  -15.9744 C   0  0  0  0  0  0  0  0  0  0  0  0
   18.3102   -3.9361  -16.4856 O   0  0  0  0  0  0  0  0  0  0  0  0
   19.0986   -5.1729  -14.7788 O   0  0  0  0  0  0  0  0  0  0  0  0
  2  3  2  0
  2  1  1  0
  4  5  1  0
  4  2  1  0
  5  7  1  0
  5  6  1  1
  7  8  2  0
  9 10  1  0
 10 11  2  0
 11 12  1  0
 13 14  1  0
 13 12  2  0
 15 14  1  6
 15 17  1  0
 16 15  1  0
 16  7  1  0
 17 18  2  0
 19 13  1  0
 20 19  2  0
 20 10  1  0
 21 17  1  0
 21 22  1  0
 22 28  1  0
 22 23  1  1
 24 23  1  0
 25 24  1  0
 26 25  1  0
 26 27  1  0
 28 29  2  0
 28 30  1  0
M  END
$$$$
