NYK.pdb
     RDKit          3D

 30 30  0  0  1  0  0  0  0  0999 V2000
   27.7213  -20.0751  -22.0246 N   0  0  0  0  0  0  0  0  0  0  0  0
   26.7884  -20.8348  -21.2741 C   0  0  0  0  0  0  0  0  0  0  0  0
   26.6803  -22.0613  -21.5130 O   0  0  0  0  0  0  0  0  0  0  0  0
   25.9795  -20.1603  -20.2425 C   0  0  0  0  0  0  0  0  0  0  0  0
   26.2349  -18.6545  -20.3180 C   0  0  2  0  0  0  0  0  0  0  0  0
   27.6371  -18.3944  -20.0096 N   0  0  0  0  0  0  0  0  0  0  0  0
   25.3414  -17.9821  -19.3330 C   0  0  0  0  0  0  0  0  0  0  0  0
   25.5448  -18.1779  -18.1249 O   0  0  0  0  0  0  0  0  0  0  0  0
   24.2108  -12.8697  -24.1648 O   0  0  0  0  0  0  0  0  0  0  0  0
   24.0776  -13.3597  -22.8733 C   0  0  0  0  0  0  0  0  0  0  0  0
   25.1962  -13.7708  -22.1794 C   0  0  0  0  0  0  0  0  0  0  0  0
   25.1098  -14.2626  -20.8978 C   0  0  0  0  0  0  0  0  0  0  0  0
   23.8832  -14.3720  -20.2304 C   0  0  0  0  0  0  0  0  0  0  0  0
   23.7981  -14.9189  -18.8610 C   0  0  0  0  0  0  0  0  0  0  0  0
   23.4283  -16.3988  -18.8235 C   0  0  2  0  0  0  0  0  0  0  0  0
   24.2937  -17.1458  -19.7309 N   0  0  0  0  0  0  0  0  0  0  0  0
   22.0364  -16.5385  -19.2752 C   0  0  0  0  0  0  0  0  0  0  0  0
   21.7475  -16.7033  -20.5086 O   0  0  0  0  0  0  0  0  0  0  0  0
   22.7852  -13.9483  -20.9637 C   0  0  0  0  0  0  0  0  0  0  0  0
   22.8568  -13.4555  -22.2424 C   0  0  0  0  0  0  0  0  0  0  0  0
   20.9120  -16.5055  -18.4059 N   0  0  0  0  0  0  0  0  0  0  0  0
   19.5313  -16.7063  -18.8971 C   0  0  1  0  0  0  0  0  0  0  0  0
   18.5962  -16.8850  -17.7385 C   0  0  0  0  0  0  0  0  0  0  0  0
   17.1900  -17.1898  -18.0505 C   0  0  0  0  0  0  0  0  0  0  0  0
   16.2780  -17.2826  -16.8615 C   0  0  0  0  0  0  0  0  0  0  0  0
   14.8529  -17.5977  -17.2539 C   0  0  0  0  0  0  0  0  0  0  0  0
   13.9947  -17.7867  -16.1066 N   0  0  0  0  0  0  0  0  0  0  0  0
   19.1012  -15.5019  -19.6585 C   0  0  0  0  0  0  0  0  0  0  0  0
   19.5488  -14.3491  -19.4612 O   0  0  0  0  0  0  0  0  0  0  0  0
   18.1433  -15.6357  -20.6585 O   0  0  0  0  0  0  0  0  0  0  0  0
  2  3  2  0
  2  1  1  0
  4  5  1  0
  4  2  1  0
  5  7  1  0
  5  6  1  1
  7  8  2  0
  9 10  1  0
 10 11  2  0
 11 12  1  0
 13 14  1  0
 13 12  2  0
 15 14  1  6
 15 17  1  0
 16 15  1  0
 16  7  1  0
 17 18  2  0
 19 13  1  0
 20 19  2  0
 20 10  1  0
 21 17  1  0
 21 22  1  0
 22 28  1  0
 22 23  1  1
 24 23  1  0
 25 24  1  0
 26 25  1  0
 26 27  1  0
 28 29  2  0
 28 30  1  0
M  END
$$$$
