NYK.pdb
     RDKit          3D

 30 30  0  0  1  0  0  0  0  0999 V2000
   36.8581  -33.9748  -18.8865 N   0  0  0  0  0  0  0  0  0  0  0  0
   35.6180  -33.7020  -19.5178 C   0  0  0  0  0  0  0  0  0  0  0  0
   35.6246  -33.2616  -20.6922 O   0  0  0  0  0  0  0  0  0  0  0  0
   34.3674  -33.9435  -18.7755 C   0  0  0  0  0  0  0  0  0  0  0  0
   33.3531  -32.8613  -19.1473 C   0  0  2  0  0  0  0  0  0  0  0  0
   33.7931  -31.5863  -18.5905 N   0  0  0  0  0  0  0  0  0  0  0  0
   32.0286  -33.2550  -18.5895 C   0  0  0  0  0  0  0  0  0  0  0  0
   31.6250  -34.4105  -18.7922 O   0  0  0  0  0  0  0  0  0  0  0  0
   24.5675  -32.6905  -13.7026 O   0  0  0  0  0  0  0  0  0  0  0  0
   25.8180  -32.4807  -14.2667 C   0  0  0  0  0  0  0  0  0  0  0  0
   25.9798  -31.5028  -15.2256 C   0  0  0  0  0  0  0  0  0  0  0  0
   27.2011  -31.2612  -15.8105 C   0  0  0  0  0  0  0  0  0  0  0  0
   28.3432  -31.9943  -15.4641 C   0  0  0  0  0  0  0  0  0  0  0  0
   29.6464  -31.7403  -16.1112 C   0  0  0  0  0  0  0  0  0  0  0  0
   29.9384  -32.6855  -17.2729 C   0  0  2  0  0  0  0  0  0  0  0  0
   31.2396  -32.3666  -17.8521 N   0  0  0  0  0  0  0  0  0  0  0  0
   28.9036  -32.4902  -18.2985 C   0  0  0  0  0  0  0  0  0  0  0  0
   28.9807  -31.5447  -19.1540 O   0  0  0  0  0  0  0  0  0  0  0  0
   28.1361  -32.9667  -14.4975 C   0  0  0  0  0  0  0  0  0  0  0  0
   26.9239  -33.2182  -13.9055 C   0  0  0  0  0  0  0  0  0  0  0  0
   27.7522  -33.3132  -18.4320 N   0  0  0  0  0  0  0  0  0  0  0  0
   26.7690  -33.1207  -19.5203 C   0  0  1  0  0  0  0  0  0  0  0  0
   26.9173  -34.2073  -20.5429 C   0  0  0  0  0  0  0  0  0  0  0  0
   26.0464  -34.1384  -21.7280 C   0  0  0  0  0  0  0  0  0  0  0  0
   26.3616  -35.1300  -22.8103 C   0  0  0  0  0  0  0  0  0  0  0  0
   25.1502  -35.9339  -23.2234 C   0  0  0  0  0  0  0  0  0  0  0  0
   25.4505  -36.8839  -24.2702 N   0  0  0  0  0  0  0  0  0  0  0  0
   25.3931  -33.1979  -18.9580 C   0  0  0  0  0  0  0  0  0  0  0  0
   24.4201  -32.5372  -19.3882 O   0  0  0  0  0  0  0  0  0  0  0  0
   25.1429  -34.0499  -17.8869 O   0  0  0  0  0  0  0  0  0  0  0  0
  2  3  2  0
  2  1  1  0
  4  5  1  0
  4  2  1  0
  5  7  1  0
  5  6  1  1
  7  8  2  0
  9 10  1  0
 10 11  2  0
 11 12  1  0
 13 14  1  0
 13 12  2  0
 15 14  1  1
 15 17  1  0
 16 15  1  0
 16  7  1  0
 17 18  2  0
 19 13  1  0
 20 19  2  0
 20 10  1  0
 21 17  1  0
 21 22  1  0
 22 28  1  0
 22 23  1  6
 24 23  1  0
 25 24  1  0
 26 25  1  0
 26 27  1  0
 28 29  2  0
 28 30  1  0
M  END
$$$$
