NYK.pdb
     RDKit          3D

 30 30  0  0  1  0  0  0  0  0999 V2000
   27.9486  -21.3944  -17.3550 N   0  0  0  0  0  0  0  0  0  0  0  0
   26.7075  -21.9507  -17.7561 C   0  0  0  0  0  0  0  0  0  0  0  0
   26.4865  -22.1087  -18.9806 O   0  0  0  0  0  0  0  0  0  0  0  0
   25.7220  -22.3228  -16.7248 C   0  0  0  0  0  0  0  0  0  0  0  0
   26.3397  -22.0972  -15.3443 C   0  0  2  0  0  0  0  0  0  0  0  0
   27.2421  -23.2031  -15.0410 N   0  0  0  0  0  0  0  0  0  0  0  0
   25.2346  -22.0255  -14.3472 C   0  0  0  0  0  0  0  0  0  0  0  0
   24.3582  -22.9032  -14.3764 O   0  0  0  0  0  0  0  0  0  0  0  0
   27.8035  -20.9795   -7.0377 O   0  0  0  0  0  0  0  0  0  0  0  0
   26.9836  -20.7027   -8.1227 C   0  0  0  0  0  0  0  0  0  0  0  0
   26.6811  -19.3939   -8.4344 C   0  0  0  0  0  0  0  0  0  0  0  0
   25.8730  -19.0746   -9.5007 C   0  0  0  0  0  0  0  0  0  0  0  0
   25.3153  -20.0601  -10.3251 C   0  0  0  0  0  0  0  0  0  0  0  0
   24.4335  -19.7083  -11.4566 C   0  0  0  0  0  0  0  0  0  0  0  0
   24.1243  -20.8897  -12.3715 C   0  0  2  0  0  0  0  0  0  0  0  0
   25.1619  -21.0077  -13.3911 N   0  0  0  0  0  0  0  0  0  0  0  0
   22.8368  -20.6361  -13.0341 C   0  0  0  0  0  0  0  0  0  0  0  0
   22.7502  -19.8759  -14.0570 O   0  0  0  0  0  0  0  0  0  0  0  0
   25.6445  -21.3611   -9.9764 C   0  0  0  0  0  0  0  0  0  0  0  0
   26.4494  -21.6941   -8.9160 C   0  0  0  0  0  0  0  0  0  0  0  0
   21.6015  -21.1982  -12.6113 N   0  0  0  0  0  0  0  0  0  0  0  0
   20.3265  -20.9062  -13.3021 C   0  0  1  0  0  0  0  0  0  0  0  0
   20.0155  -21.9947  -14.2855 C   0  0  0  0  0  0  0  0  0  0  0  0
   18.7830  -21.8525  -15.0780 C   0  0  0  0  0  0  0  0  0  0  0  0
   18.5276  -22.9552  -16.0645 C   0  0  0  0  0  0  0  0  0  0  0  0
   17.2983  -22.6999  -16.9058 C   0  0  0  0  0  0  0  0  0  0  0  0
   17.1175  -23.6991  -17.9341 N   0  0  0  0  0  0  0  0  0  0  0  0
   19.2260  -20.8576  -12.3012 C   0  0  0  0  0  0  0  0  0  0  0  0
   18.1204  -20.3035  -12.4988 O   0  0  0  0  0  0  0  0  0  0  0  0
   19.4090  -21.4576  -11.0594 O   0  0  0  0  0  0  0  0  0  0  0  0
  2  3  2  0
  2  1  1  0
  4  5  1  0
  4  2  1  0
  5  7  1  0
  5  6  1  1
  7  8  2  0
  9 10  1  0
 10 11  2  0
 11 12  1  0
 13 14  1  0
 13 12  2  0
 15 14  1  1
 15 17  1  0
 16 15  1  0
 16  7  1  0
 17 18  2  0
 19 13  1  0
 20 19  2  0
 20 10  1  0
 21 17  1  0
 21 22  1  0
 22 28  1  0
 22 23  1  6
 24 23  1  0
 25 24  1  0
 26 25  1  0
 26 27  1  0
 28 29  2  0
 28 30  1  0
M  END
$$$$
