NYK.pdb
     RDKit          3D

 30 30  0  0  1  0  0  0  0  0999 V2000
   26.7453  -18.7748  -19.2123 N   0  0  0  0  0  0  0  0  0  0  0  0
   27.4917  -19.9515  -19.4751 C   0  0  0  0  0  0  0  0  0  0  0  0
   28.4479  -19.8894  -20.2845 O   0  0  0  0  0  0  0  0  0  0  0  0
   27.1201  -21.2037  -18.7915 C   0  0  0  0  0  0  0  0  0  0  0  0
   28.0393  -21.4020  -17.5856 C   0  0  2  0  0  0  0  0  0  0  0  0
   28.8871  -22.5660  -17.8207 N   0  0  0  0  0  0  0  0  0  0  0  0
   27.1868  -21.6014  -16.3798 C   0  0  0  0  0  0  0  0  0  0  0  0
   26.1795  -22.3183  -16.4836 O   0  0  0  0  0  0  0  0  0  0  0  0
   24.4657  -20.6030   -7.8909 O   0  0  0  0  0  0  0  0  0  0  0  0
   25.1756  -20.5454   -9.0820 C   0  0  0  0  0  0  0  0  0  0  0  0
   25.7605  -21.6886   -9.5850 C   0  0  0  0  0  0  0  0  0  0  0  0
   26.4725  -21.6768  -10.7617 C   0  0  0  0  0  0  0  0  0  0  0  0
   26.6414  -20.5050  -11.5103 C   0  0  0  0  0  0  0  0  0  0  0  0
   27.4237  -20.4982  -12.7632 C   0  0  0  0  0  0  0  0  0  0  0  0
   26.6948  -21.1510  -13.9341 C   0  0  2  0  0  0  0  0  0  0  0  0
   27.4901  -21.0095  -15.1497 N   0  0  0  0  0  0  0  0  0  0  0  0
   25.4127  -20.4574  -14.1243 C   0  0  0  0  0  0  0  0  0  0  0  0
   25.3340  -19.3685  -14.7876 O   0  0  0  0  0  0  0  0  0  0  0  0
   26.0380  -19.3800  -10.9690 C   0  0  0  0  0  0  0  0  0  0  0  0
   25.3247  -19.3774   -9.7967 C   0  0  0  0  0  0  0  0  0  0  0  0
   24.1738  -20.9210  -13.6036 N   0  0  0  0  0  0  0  0  0  0  0  0
   22.9190  -20.1529  -13.7567 C   0  0  1  0  0  0  0  0  0  0  0  0
   22.4601  -20.2002  -15.1835 C   0  0  0  0  0  0  0  0  0  0  0  0
   21.2078  -19.4983  -15.5104 C   0  0  0  0  0  0  0  0  0  0  0  0
   20.7766  -19.5969  -16.9451 C   0  0  0  0  0  0  0  0  0  0  0  0
   19.5472  -18.7666  -17.2338 C   0  0  0  0  0  0  0  0  0  0  0  0
   19.0512  -18.9653  -18.5765 N   0  0  0  0  0  0  0  0  0  0  0  0
   21.8610  -20.7673  -12.9089 C   0  0  0  0  0  0  0  0  0  0  0  0
   20.7086  -20.2966  -12.7724 O   0  0  0  0  0  0  0  0  0  0  0  0
   22.1420  -21.9389  -12.2133 O   0  0  0  0  0  0  0  0  0  0  0  0
  2  3  2  0
  2  1  1  0
  4  5  1  0
  4  2  1  0
  5  7  1  0
  5  6  1  6
  7  8  2  0
  9 10  1  0
 10 11  2  0
 11 12  1  0
 13 14  1  0
 13 12  2  0
 15 14  1  1
 15 17  1  0
 16 15  1  0
 16  7  1  0
 17 18  2  0
 19 13  1  0
 20 19  2  0
 20 10  1  0
 21 17  1  0
 21 22  1  0
 22 28  1  0
 22 23  1  6
 24 23  1  0
 25 24  1  0
 26 25  1  0
 26 27  1  0
 28 29  2  0
 28 30  1  0
M  END
$$$$
