NYK.pdb
     RDKit          3D

 30 30  0  0  1  0  0  0  0  0999 V2000
   26.7281  -19.7623  -20.5725 N   0  0  0  0  0  0  0  0  0  0  0  0
   25.3215  -19.8717  -20.4307 C   0  0  0  0  0  0  0  0  0  0  0  0
   24.5857  -19.2986  -21.2694 O   0  0  0  0  0  0  0  0  0  0  0  0
   24.7729  -20.6517  -19.3064 C   0  0  0  0  0  0  0  0  0  0  0  0
   25.9307  -21.1934  -18.4671 C   0  0  2  0  0  0  0  0  0  0  0  0
   26.5441  -22.3145  -19.1713 N   0  0  0  0  0  0  0  0  0  0  0  0
   25.3857  -21.6284  -17.1501 C   0  0  0  0  0  0  0  0  0  0  0  0
   24.8658  -22.7521  -17.0709 O   0  0  0  0  0  0  0  0  0  0  0  0
   23.2586  -21.1601   -8.4500 O   0  0  0  0  0  0  0  0  0  0  0  0
   23.7648  -20.9290   -9.7212 C   0  0  0  0  0  0  0  0  0  0  0  0
   24.9726  -21.4847  -10.0875 C   0  0  0  0  0  0  0  0  0  0  0  0
   25.5108  -21.2817  -11.3369 C   0  0  0  0  0  0  0  0  0  0  0  0
   24.8620  -20.5010  -12.3019 C   0  0  0  0  0  0  0  0  0  0  0  0
   25.4568  -20.2732  -13.6346 C   0  0  0  0  0  0  0  0  0  0  0  0
   24.8149  -21.1139  -14.7344 C   0  0  2  0  0  0  0  0  0  0  0  0
   25.4456  -20.8129  -16.0157 N   0  0  0  0  0  0  0  0  0  0  0  0
   23.3903  -20.7603  -14.8138 C   0  0  0  0  0  0  0  0  0  0  0  0
   23.0069  -19.6286  -15.2657 O   0  0  0  0  0  0  0  0  0  0  0  0
   23.6520  -19.9615  -11.8925 C   0  0  0  0  0  0  0  0  0  0  0  0
   23.1032  -20.1560  -10.6498 C   0  0  0  0  0  0  0  0  0  0  0  0
   22.3343  -21.6210  -14.4077 N   0  0  0  0  0  0  0  0  0  0  0  0
   20.9202  -21.1871  -14.4101 C   0  0  1  0  0  0  0  0  0  0  0  0
   20.1168  -22.0638  -15.3236 C   0  0  0  0  0  0  0  0  0  0  0  0
   20.4703  -22.0483  -16.7527 C   0  0  0  0  0  0  0  0  0  0  0  0
   20.4774  -23.3916  -17.4232 C   0  0  0  0  0  0  0  0  0  0  0  0
   20.8578  -23.3029  -18.8832 C   0  0  0  0  0  0  0  0  0  0  0  0
   20.9633  -24.6033  -19.5048 N   0  0  0  0  0  0  0  0  0  0  0  0
   20.3645  -21.3175  -13.0355 C   0  0  0  0  0  0  0  0  0  0  0  0
   20.5740  -22.2962  -12.2828 O   0  0  0  0  0  0  0  0  0  0  0  0
   19.5587  -20.3029  -12.5286 O   0  0  0  0  0  0  0  0  0  0  0  0
  2  3  2  0
  2  1  1  0
  4  5  1  0
  4  2  1  0
  5  7  1  0
  5  6  1  6
  7  8  2  0
  9 10  1  0
 10 11  2  0
 11 12  1  0
 13 14  1  0
 13 12  2  0
 15 14  1  1
 15 17  1  0
 16 15  1  0
 16  7  1  0
 17 18  2  0
 19 13  1  0
 20 19  2  0
 20 10  1  0
 21 17  1  0
 21 22  1  0
 22 28  1  0
 22 23  1  6
 24 23  1  0
 25 24  1  0
 26 25  1  0
 26 27  1  0
 28 29  2  0
 28 30  1  0
M  END
$$$$
