NYK.pdb
     RDKit          3D

 30 30  0  0  1  0  0  0  0  0999 V2000
   28.6081  -21.3576  -20.9477 N   0  0  0  0  0  0  0  0  0  0  0  0
   28.5696  -20.8312  -19.6316 C   0  0  0  0  0  0  0  0  0  0  0  0
   29.2800  -19.8333  -19.3616 O   0  0  0  0  0  0  0  0  0  0  0  0
   27.6999  -21.4719  -18.6285 C   0  0  0  0  0  0  0  0  0  0  0  0
   28.5093  -21.7168  -17.3544 C   0  0  2  0  0  0  0  0  0  0  0  0
   29.3994  -22.8531  -17.5680 N   0  0  0  0  0  0  0  0  0  0  0  0
   27.5548  -21.9921  -16.2436 C   0  0  0  0  0  0  0  0  0  0  0  0
   26.8949  -23.0420  -16.2818 O   0  0  0  0  0  0  0  0  0  0  0  0
   23.3880  -20.8108   -8.3872 O   0  0  0  0  0  0  0  0  0  0  0  0
   24.2024  -20.6882   -9.5041 C   0  0  0  0  0  0  0  0  0  0  0  0
   25.3945  -21.3794   -9.5600 C   0  0  0  0  0  0  0  0  0  0  0  0
   26.2316  -21.2871  -10.6475 C   0  0  0  0  0  0  0  0  0  0  0  0
   25.9184  -20.4875  -11.7541 C   0  0  0  0  0  0  0  0  0  0  0  0
   26.8325  -20.3800  -12.9093 C   0  0  0  0  0  0  0  0  0  0  0  0
   26.4578  -21.3042  -14.0642 C   0  0  2  0  0  0  0  0  0  0  0  0
   27.3869  -21.1087  -15.1727 N   0  0  0  0  0  0  0  0  0  0  0  0
   25.1032  -20.9539  -14.5151 C   0  0  0  0  0  0  0  0  0  0  0  0
   24.8819  -19.9107  -15.2183 O   0  0  0  0  0  0  0  0  0  0  0  0
   24.7122  -19.8105  -11.6565 C   0  0  0  0  0  0  0  0  0  0  0  0
   23.8675  -19.8935  -10.5782 C   0  0  0  0  0  0  0  0  0  0  0  0
   23.9443  -21.7226  -14.2203 N   0  0  0  0  0  0  0  0  0  0  0  0
   22.5845  -21.2670  -14.5829 C   0  0  1  0  0  0  0  0  0  0  0  0
   22.0336  -22.1237  -15.6835 C   0  0  0  0  0  0  0  0  0  0  0  0
   20.6663  -21.8299  -16.1435 C   0  0  0  0  0  0  0  0  0  0  0  0
   20.1580  -22.7176  -17.2425 C   0  0  0  0  0  0  0  0  0  0  0  0
   18.7963  -22.2921  -17.7412 C   0  0  0  0  0  0  0  0  0  0  0  0
   18.2485  -23.2189  -18.7053 N   0  0  0  0  0  0  0  0  0  0  0  0
   21.6906  -21.4002  -13.4003 C   0  0  0  0  0  0  0  0  0  0  0  0
   21.8909  -22.1958  -12.4542 O   0  0  0  0  0  0  0  0  0  0  0  0
   20.5539  -20.6027  -13.3137 O   0  0  0  0  0  0  0  0  0  0  0  0
  2  3  2  0
  2  1  1  0
  4  5  1  0
  4  2  1  0
  5  7  1  0
  5  6  1  6
  7  8  2  0
  9 10  1  0
 10 11  2  0
 11 12  1  0
 13 14  1  0
 13 12  2  0
 15 14  1  1
 15 17  1  0
 16 15  1  0
 16  7  1  0
 17 18  2  0
 19 13  1  0
 20 19  2  0
 20 10  1  0
 21 17  1  0
 21 22  1  0
 22 28  1  0
 22 23  1  6
 24 23  1  0
 25 24  1  0
 26 25  1  0
 26 27  1  0
 28 29  2  0
 28 30  1  0
M  END
$$$$
