NFK.pdb
     RDKit          3D

 29 29  0  0  1  0  0  0  0  0999 V2000
   29.1105  -20.5696  -19.1171 N   0  0  0  0  0  0  0  0  0  0  0  0
   27.6815  -20.4418  -19.1815 C   0  0  0  0  0  0  0  0  0  0  0  0
   27.2583  -19.7489  -20.1419 O   0  0  0  0  0  0  0  0  0  0  0  0
   26.8442  -21.0999  -18.1658 C   0  0  0  0  0  0  0  0  0  0  0  0
   27.5738  -21.7630  -17.0531 C   0  0  2  0  0  0  0  0  0  0  0  0
   27.9475  -23.1036  -17.5653 N   0  0  0  0  0  0  0  0  0  0  0  0
   26.7824  -22.0249  -15.8387 C   0  0  0  0  0  0  0  0  0  0  0  0
   26.0592  -23.0470  -15.8082 O   0  0  0  0  0  0  0  0  0  0  0  0
   26.7827  -21.2025  -14.7052 N   0  0  0  0  0  0  0  0  0  0  0  0
   26.0123  -21.5098  -13.4690 C   0  0  1  0  0  0  0  0  0  0  0  0
   26.7014  -20.7995  -12.3935 C   0  0  0  0  0  0  0  0  0  0  0  0
   26.1448  -20.6552  -11.0787 C   0  0  0  0  0  0  0  0  0  0  0  0
   26.4361  -21.5921  -10.1122 C   0  0  0  0  0  0  0  0  0  0  0  0
   25.9164  -21.5021   -8.8187 C   0  0  0  0  0  0  0  0  0  0  0  0
   25.0927  -20.4383   -8.5259 C   0  0  0  0  0  0  0  0  0  0  0  0
   24.7856  -19.4848   -9.4791 C   0  0  0  0  0  0  0  0  0  0  0  0
   25.3145  -19.6029  -10.7452 C   0  0  0  0  0  0  0  0  0  0  0  0
   24.6113  -21.1101  -13.6978 C   0  0  0  0  0  0  0  0  0  0  0  0
   24.3994  -19.9904  -14.2932 O   0  0  0  0  0  0  0  0  0  0  0  0
   23.4572  -21.8170  -13.3448 N   0  0  0  0  0  0  0  0  0  0  0  0
   22.0925  -21.2047  -13.5757 C   0  0  1  0  0  0  0  0  0  0  0  0
   21.1676  -22.3604  -13.8153 C   0  0  0  0  0  0  0  0  0  0  0  0
   19.7490  -22.2011  -13.9872 C   0  0  0  0  0  0  0  0  0  0  0  0
   18.7810  -23.2351  -14.3215 C   0  0  0  0  0  0  0  0  0  0  0  0
   17.3617  -22.8590  -14.5503 C   0  0  0  0  0  0  0  0  0  0  0  0
   16.5529  -23.9395  -14.9842 N   0  0  0  0  0  0  0  0  0  0  0  0
   21.8209  -20.4929  -12.3430 C   0  0  0  0  0  0  0  0  0  0  0  0
   22.0842  -21.0535  -11.2240 O   0  0  0  0  0  0  0  0  0  0  0  0
   21.2982  -19.2364  -12.2646 O   0  0  0  0  0  0  0  0  0  0  0  0
  1  2  1  0
  2  3  2  0
  4  5  1  0
  4  2  1  0
  5  6  1  6
  5  7  1  0
  7  8  2  0
  9  7  1  0
  9 10  1  0
 10 18  1  0
 11 12  1  0
 10 11  1  1
 12 13  2  0
 13 14  1  0
 15 14  2  0
 16 15  1  0
 17 12  1  0
 17 16  2  0
 18 20  1  0
 19 18  2  0
 20 21  1  0
 21 27  1  0
 21 22  1  1
 23 22  1  0
 24 23  1  0
 25 24  1  0
 26 25  1  0
 27 28  2  0
 27 29  1  0
M  END
$$$$
