NFK.pdb
     RDKit          3D

 29 29  0  0  1  0  0  0  0  0999 V2000
   28.4372  -19.9132  -17.4145 N   0  0  0  0  0  0  0  0  0  0  0  0
   27.0067  -19.9098  -17.5411 C   0  0  0  0  0  0  0  0  0  0  0  0
   26.5451  -18.9917  -18.2659 O   0  0  0  0  0  0  0  0  0  0  0  0
   26.2110  -20.9344  -16.8461 C   0  0  0  0  0  0  0  0  0  0  0  0
   26.9687  -21.8495  -15.9524 C   0  0  2  0  0  0  0  0  0  0  0  0
   26.8326  -23.1975  -16.5554 N   0  0  0  0  0  0  0  0  0  0  0  0
   26.4394  -21.9875  -14.5848 C   0  0  0  0  0  0  0  0  0  0  0  0
   25.4644  -22.7510  -14.3978 O   0  0  0  0  0  0  0  0  0  0  0  0
   26.9558  -21.3176  -13.4686 N   0  0  0  0  0  0  0  0  0  0  0  0
   26.3249  -21.3626  -12.1209 C   0  0  1  0  0  0  0  0  0  0  0  0
   27.3550  -20.9010  -11.1926 C   0  0  0  0  0  0  0  0  0  0  0  0
   27.0602  -20.4884   -9.8501 C   0  0  0  0  0  0  0  0  0  0  0  0
   25.7625  -20.1832   -9.5039 C   0  0  0  0  0  0  0  0  0  0  0  0
   25.4220  -19.7715   -8.2132 C   0  0  0  0  0  0  0  0  0  0  0  0
   26.4288  -19.6760   -7.2788 C   0  0  0  0  0  0  0  0  0  0  0  0
   27.7391  -19.9771   -7.6021 C   0  0  0  0  0  0  0  0  0  0  0  0
   28.0413  -20.3801   -8.8839 C   0  0  0  0  0  0  0  0  0  0  0  0
   25.0993  -20.5437  -12.1675 C   0  0  0  0  0  0  0  0  0  0  0  0
   25.1928  -19.3559  -12.6508 O   0  0  0  0  0  0  0  0  0  0  0  0
   23.8164  -20.9090  -11.7470 N   0  0  0  0  0  0  0  0  0  0  0  0
   22.6677  -19.9326  -11.8808 C   0  0  1  0  0  0  0  0  0  0  0  0
   22.4115  -19.8112  -13.3532 C   0  0  0  0  0  0  0  0  0  0  0  0
   21.2993  -20.4468  -14.0062 C   0  0  0  0  0  0  0  0  0  0  0  0
   21.3452  -21.3380  -15.1558 C   0  0  0  0  0  0  0  0  0  0  0  0
   20.0852  -21.9420  -15.6613 C   0  0  0  0  0  0  0  0  0  0  0  0
   20.2763  -22.8055  -16.7694 N   0  0  0  0  0  0  0  0  0  0  0  0
   21.5868  -20.5706  -11.1566 C   0  0  0  0  0  0  0  0  0  0  0  0
   21.6878  -21.8053  -10.8387 O   0  0  0  0  0  0  0  0  0  0  0  0
   20.4363  -19.9531  -10.7654 O   0  0  0  0  0  0  0  0  0  0  0  0
  1  2  1  0
  2  3  2  0
  4  5  1  0
  4  2  1  0
  5  6  1  6
  5  7  1  0
  7  8  2  0
  9  7  1  0
  9 10  1  0
 10 18  1  0
 11 12  1  0
 10 11  1  1
 12 13  2  0
 13 14  1  0
 15 14  2  0
 16 15  1  0
 17 12  1  0
 17 16  2  0
 18 20  1  0
 19 18  2  0
 20 21  1  0
 21 27  1  0
 21 22  1  6
 23 22  1  0
 24 23  1  0
 25 24  1  0
 26 25  1  0
 27 28  2  0
 27 29  1  0
M  END
$$$$
