NFK.pdb
     RDKit          3D

 29 29  0  0  1  0  0  0  0  0999 V2000
   26.4201  -19.6818  -22.2526 N   0  0  0  0  0  0  0  0  0  0  0  0
   25.5783  -20.6797  -21.6543 C   0  0  0  0  0  0  0  0  0  0  0  0
   25.1444  -21.5491  -22.4526 O   0  0  0  0  0  0  0  0  0  0  0  0
   25.2915  -20.6222  -20.2119 C   0  0  0  0  0  0  0  0  0  0  0  0
   25.8635  -19.4603  -19.4819 C   0  0  2  0  0  0  0  0  0  0  0  0
   27.2684  -19.8301  -19.1838 N   0  0  0  0  0  0  0  0  0  0  0  0
   25.2582  -19.1706  -18.1707 C   0  0  0  0  0  0  0  0  0  0  0  0
   25.9156  -19.4387  -17.1390 O   0  0  0  0  0  0  0  0  0  0  0  0
   23.9863  -18.6109  -17.9962 N   0  0  0  0  0  0  0  0  0  0  0  0
   23.4165  -18.2697  -16.6639 C   0  0  1  0  0  0  0  0  0  0  0  0
   23.3876  -16.8092  -16.6147 C   0  0  0  0  0  0  0  0  0  0  0  0
   24.5728  -16.0153  -16.4590 C   0  0  0  0  0  0  0  0  0  0  0  0
   25.1185  -15.8498  -15.2054 C   0  0  0  0  0  0  0  0  0  0  0  0
   26.2674  -15.0829  -14.9975 C   0  0  0  0  0  0  0  0  0  0  0  0
   26.8526  -14.4861  -16.0918 C   0  0  0  0  0  0  0  0  0  0  0  0
   26.3236  -14.6375  -17.3604 C   0  0  0  0  0  0  0  0  0  0  0  0
   25.1896  -15.4002  -17.5310 C   0  0  0  0  0  0  0  0  0  0  0  0
   22.1052  -18.9347  -16.5489 C   0  0  0  0  0  0  0  0  0  0  0  0
   21.3106  -18.8666  -17.5574 O   0  0  0  0  0  0  0  0  0  0  0  0
   21.6090  -19.6523  -15.4557 N   0  0  0  0  0  0  0  0  0  0  0  0
   20.2355  -20.2842  -15.5237 C   0  0  1  0  0  0  0  0  0  0  0  0
   20.1824  -21.2567  -14.3834 C   0  0  0  0  0  0  0  0  0  0  0  0
   19.0069  -22.0208  -14.0644 C   0  0  0  0  0  0  0  0  0  0  0  0
   18.9043  -23.1277  -13.1252 C   0  0  0  0  0  0  0  0  0  0  0  0
   17.5768  -23.7420  -12.8641 C   0  0  0  0  0  0  0  0  0  0  0  0
   17.6359  -24.8799  -12.0204 N   0  0  0  0  0  0  0  0  0  0  0  0
   19.3316  -19.1621  -15.3690 C   0  0  0  0  0  0  0  0  0  0  0  0
   19.6959  -18.1552  -14.6695 O   0  0  0  0  0  0  0  0  0  0  0  0
   18.0895  -19.0765  -15.9238 O   0  0  0  0  0  0  0  0  0  0  0  0
  1  2  1  0
  2  3  2  0
  4  5  1  0
  4  2  1  0
  5  6  1  1
  5  7  1  0
  7  8  2  0
  9  7  1  0
  9 10  1  0
 10 18  1  0
 11 12  1  0
 10 11  1  6
 12 13  2  0
 13 14  1  0
 15 14  2  0
 16 15  1  0
 17 12  1  0
 17 16  2  0
 18 20  1  0
 19 18  2  0
 20 21  1  0
 21 27  1  0
 21 22  1  1
 23 22  1  0
 24 23  1  0
 25 24  1  0
 26 25  1  0
 27 28  2  0
 27 29  1  0
M  END
$$$$
