NFK.pdb
     RDKit          3D

 29 29  0  0  1  0  0  0  0  0999 V2000
   32.9527  -22.0113   -9.8627 N   0  0  0  0  0  0  0  0  0  0  0  0
   31.8688  -22.3369  -10.7468 C   0  0  0  0  0  0  0  0  0  0  0  0
   32.2100  -22.5643  -11.9356 O   0  0  0  0  0  0  0  0  0  0  0  0
   30.4925  -22.3811  -10.2273 C   0  0  0  0  0  0  0  0  0  0  0  0
   29.4959  -21.5544  -10.9577 C   0  0  2  0  0  0  0  0  0  0  0  0
   29.9357  -20.1496  -10.7778 N   0  0  0  0  0  0  0  0  0  0  0  0
   28.1223  -21.5956  -10.4274 C   0  0  0  0  0  0  0  0  0  0  0  0
   27.5433  -22.7040  -10.3594 O   0  0  0  0  0  0  0  0  0  0  0  0
   27.4123  -20.4705   -9.9900 N   0  0  0  0  0  0  0  0  0  0  0  0
   26.0478  -20.5408   -9.3991 C   0  0  1  0  0  0  0  0  0  0  0  0
   26.0143  -19.5027   -8.3707 C   0  0  0  0  0  0  0  0  0  0  0  0
   26.6388  -19.6615   -7.0885 C   0  0  0  0  0  0  0  0  0  0  0  0
   27.5307  -18.7098   -6.6459 C   0  0  0  0  0  0  0  0  0  0  0  0
   28.1704  -18.8186   -5.4089 C   0  0  0  0  0  0  0  0  0  0  0  0
   27.8850  -19.9164   -4.6282 C   0  0  0  0  0  0  0  0  0  0  0  0
   26.9931  -20.8851   -5.0506 C   0  0  0  0  0  0  0  0  0  0  0  0
   26.3795  -20.7479   -6.2758 C   0  0  0  0  0  0  0  0  0  0  0  0
   25.0721  -20.3818  -10.4934 C   0  0  0  0  0  0  0  0  0  0  0  0
   25.2659  -19.4267  -11.3321 O   0  0  0  0  0  0  0  0  0  0  0  0
   23.9386  -21.1626  -10.7418 N   0  0  0  0  0  0  0  0  0  0  0  0
   23.0588  -20.8639  -11.9366 C   0  0  1  0  0  0  0  0  0  0  0  0
   22.7639  -22.1942  -12.5625 C   0  0  0  0  0  0  0  0  0  0  0  0
   21.8333  -22.3568  -13.6464 C   0  0  0  0  0  0  0  0  0  0  0  0
   21.5241  -23.5839  -14.3650 C   0  0  0  0  0  0  0  0  0  0  0  0
   20.4572  -23.5745  -15.3992 C   0  0  0  0  0  0  0  0  0  0  0  0
   20.9547  -23.6200  -16.7260 N   0  0  0  0  0  0  0  0  0  0  0  0
   21.8937  -20.2270  -11.3562 C   0  0  0  0  0  0  0  0  0  0  0  0
   21.6128  -20.4352  -10.1259 O   0  0  0  0  0  0  0  0  0  0  0  0
   21.0446  -19.3944  -12.0223 O   0  0  0  0  0  0  0  0  0  0  0  0
  1  2  1  0
  2  3  2  0
  4  5  1  0
  4  2  1  0
  5  6  1  1
  5  7  1  0
  7  8  2  0
  9  7  1  0
  9 10  1  0
 10 18  1  0
 11 12  1  0
 10 11  1  1
 12 13  2  0
 13 14  1  0
 15 14  2  0
 16 15  1  0
 17 12  1  0
 17 16  2  0
 18 20  1  0
 19 18  2  0
 20 21  1  0
 21 27  1  0
 21 22  1  1
 23 22  1  0
 24 23  1  0
 25 24  1  0
 26 25  1  0
 27 28  2  0
 27 29  1  0
M  END
$$$$
