NFK.pdb
     RDKit          3D

 29 29  0  0  1  0  0  0  0  0999 V2000
   29.1292  -20.7796  -19.1360 N   0  0  0  0  0  0  0  0  0  0  0  0
   29.5995  -21.8739  -18.3338 C   0  0  0  0  0  0  0  0  0  0  0  0
   30.6724  -22.3951  -18.7322 O   0  0  0  0  0  0  0  0  0  0  0  0
   28.8303  -22.2947  -17.1517 C   0  0  0  0  0  0  0  0  0  0  0  0
   27.5703  -21.5477  -16.8973 C   0  0  2  0  0  0  0  0  0  0  0  0
   27.9747  -20.1309  -16.7292 N   0  0  0  0  0  0  0  0  0  0  0  0
   26.8646  -21.8940  -15.6516 C   0  0  0  0  0  0  0  0  0  0  0  0
   26.4630  -23.0708  -15.5021 O   0  0  0  0  0  0  0  0  0  0  0  0
   26.6091  -20.9898  -14.6131 N   0  0  0  0  0  0  0  0  0  0  0  0
   25.9062  -21.3633  -13.3551 C   0  0  1  0  0  0  0  0  0  0  0  0
   26.6156  -20.6597  -12.2884 C   0  0  0  0  0  0  0  0  0  0  0  0
   26.1123  -20.5753  -10.9472 C   0  0  0  0  0  0  0  0  0  0  0  0
   26.3989  -21.5807  -10.0507 C   0  0  0  0  0  0  0  0  0  0  0  0
   25.9295  -21.5507   -8.7354 C   0  0  0  0  0  0  0  0  0  0  0  0
   25.1612  -20.4757   -8.3480 C   0  0  0  0  0  0  0  0  0  0  0  0
   24.8600  -19.4539   -9.2296 C   0  0  0  0  0  0  0  0  0  0  0  0
   25.3384  -19.5141  -10.5197 C   0  0  0  0  0  0  0  0  0  0  0  0
   24.4826  -21.0109  -13.5105 C   0  0  0  0  0  0  0  0  0  0  0  0
   24.2030  -19.8934  -14.0816 O   0  0  0  0  0  0  0  0  0  0  0  0
   23.3725  -21.7614  -13.1097 N   0  0  0  0  0  0  0  0  0  0  0  0
   21.9759  -21.2098  -13.2989 C   0  0  1  0  0  0  0  0  0  0  0  0
   21.1625  -22.3485  -13.8378 C   0  0  0  0  0  0  0  0  0  0  0  0
   19.7413  -22.2648  -14.0395 C   0  0  0  0  0  0  0  0  0  0  0  0
   18.8656  -23.2965  -14.5746 C   0  0  0  0  0  0  0  0  0  0  0  0
   17.4326  -22.9848  -14.8140 C   0  0  0  0  0  0  0  0  0  0  0  0
   16.6721  -24.1054  -15.2336 N   0  0  0  0  0  0  0  0  0  0  0  0
   21.5837  -20.7994  -11.9656 C   0  0  0  0  0  0  0  0  0  0  0  0
   20.8447  -19.7658  -11.8196 O   0  0  0  0  0  0  0  0  0  0  0  0
   21.9375  -21.4388  -10.8150 O   0  0  0  0  0  0  0  0  0  0  0  0
  1  2  1  0
  2  3  2  0
  4  5  1  0
  4  2  1  0
  5  6  1  1
  5  7  1  0
  7  8  2  0
  9  7  1  0
  9 10  1  0
 10 18  1  0
 11 12  1  0
 10 11  1  1
 12 13  2  0
 13 14  1  0
 15 14  2  0
 16 15  1  0
 17 12  1  0
 17 16  2  0
 18 20  1  0
 19 18  2  0
 20 21  1  0
 21 27  1  0
 21 22  1  1
 23 22  1  0
 24 23  1  0
 25 24  1  0
 26 25  1  0
 27 28  2  0
 27 29  1  0
M  END
$$$$
