NFK.pdb
     RDKit          3D

 29 29  0  0  1  0  0  0  0  0999 V2000
   26.5127  -24.5598  -19.6077 N   0  0  0  0  0  0  0  0  0  0  0  0
   26.7514  -24.6024  -18.1923 C   0  0  0  0  0  0  0  0  0  0  0  0
   27.7675  -25.2595  -17.8499 O   0  0  0  0  0  0  0  0  0  0  0  0
   25.8334  -23.9058  -17.2768 C   0  0  0  0  0  0  0  0  0  0  0  0
   26.2899  -23.7850  -15.8671 C   0  0  2  0  0  0  0  0  0  0  0  0
   25.7668  -24.9877  -15.1750 N   0  0  0  0  0  0  0  0  0  0  0  0
   25.7418  -22.6429  -15.1154 C   0  0  0  0  0  0  0  0  0  0  0  0
   24.7033  -22.8192  -14.4379 O   0  0  0  0  0  0  0  0  0  0  0  0
   26.3069  -21.3616  -15.1059 N   0  0  0  0  0  0  0  0  0  0  0  0
   25.7629  -20.2315  -14.3039 C   0  0  1  0  0  0  0  0  0  0  0  0
   26.9084  -19.6758  -13.5862 C   0  0  0  0  0  0  0  0  0  0  0  0
   27.4980  -20.3218  -12.4485 C   0  0  0  0  0  0  0  0  0  0  0  0
   26.7386  -20.5325  -11.3191 C   0  0  0  0  0  0  0  0  0  0  0  0
   27.2647  -21.1513  -10.1826 C   0  0  0  0  0  0  0  0  0  0  0  0
   28.5813  -21.5531  -10.2167 C   0  0  0  0  0  0  0  0  0  0  0  0
   29.3639  -21.3528  -11.3389 C   0  0  0  0  0  0  0  0  0  0  0  0
   28.8146  -20.7394  -12.4428 C   0  0  0  0  0  0  0  0  0  0  0  0
   25.0836  -19.3057  -15.2293 C   0  0  0  0  0  0  0  0  0  0  0  0
   25.6745  -19.0282  -16.3370 O   0  0  0  0  0  0  0  0  0  0  0  0
   23.8447  -18.6818  -15.0504 N   0  0  0  0  0  0  0  0  0  0  0  0
   23.2100  -17.9152  -16.1906 C   0  0  1  0  0  0  0  0  0  0  0  0
   21.7385  -17.9085  -15.9019 C   0  0  0  0  0  0  0  0  0  0  0  0
   20.7845  -17.2218  -16.7300 C   0  0  0  0  0  0  0  0  0  0  0  0
   19.3509  -17.1038  -16.5094 C   0  0  0  0  0  0  0  0  0  0  0  0
   18.5109  -16.4167  -17.5245 C   0  0  0  0  0  0  0  0  0  0  0  0
   17.1226  -16.4740  -17.2428 N   0  0  0  0  0  0  0  0  0  0  0  0
   23.8214  -16.6041  -16.1072 C   0  0  0  0  0  0  0  0  0  0  0  0
   24.3364  -16.2215  -15.0008 O   0  0  0  0  0  0  0  0  0  0  0  0
   23.9054  -15.7137  -17.1359 O   0  0  0  0  0  0  0  0  0  0  0  0
  1  2  1  0
  2  3  2  0
  4  5  1  0
  4  2  1  0
  5  6  1  1
  5  7  1  0
  7  8  2  0
  9  7  1  0
  9 10  1  0
 10 18  1  0
 11 12  1  0
 10 11  1  6
 12 13  2  0
 13 14  1  0
 15 14  2  0
 16 15  1  0
 17 12  1  0
 17 16  2  0
 18 20  1  0
 19 18  2  0
 20 21  1  0
 21 27  1  0
 21 22  1  1
 23 22  1  0
 24 23  1  0
 25 24  1  0
 26 25  1  0
 27 28  2  0
 27 29  1  0
M  END
$$$$
