NFK.pdb
     RDKit          3D

 29 29  0  0  1  0  0  0  0  0999 V2000
   26.6229  -25.0170  -16.9981 N   0  0  0  0  0  0  0  0  0  0  0  0
   25.4347  -24.2815  -17.3289 C   0  0  0  0  0  0  0  0  0  0  0  0
   25.1875  -24.2075  -18.5598 O   0  0  0  0  0  0  0  0  0  0  0  0
   24.6210  -23.6895  -16.2549 C   0  0  0  0  0  0  0  0  0  0  0  0
   25.0861  -23.9527  -14.8676 C   0  0  2  0  0  0  0  0  0  0  0  0
   24.5494  -25.2893  -14.5148 N   0  0  0  0  0  0  0  0  0  0  0  0
   24.5582  -23.0443  -13.8353 C   0  0  0  0  0  0  0  0  0  0  0  0
   23.3790  -23.2067  -13.4458 O   0  0  0  0  0  0  0  0  0  0  0  0
   25.2905  -22.0018  -13.2536 N   0  0  0  0  0  0  0  0  0  0  0  0
   24.7160  -21.0483  -12.2653 C   0  0  1  0  0  0  0  0  0  0  0  0
   25.8634  -20.3705  -11.6650 C   0  0  0  0  0  0  0  0  0  0  0  0
   26.2019  -20.5015  -10.2767 C   0  0  0  0  0  0  0  0  0  0  0  0
   25.2219  -20.3441   -9.3218 C   0  0  0  0  0  0  0  0  0  0  0  0
   25.4985  -20.4557   -7.9571 C   0  0  0  0  0  0  0  0  0  0  0  0
   26.7941  -20.7313   -7.5809 C   0  0  0  0  0  0  0  0  0  0  0  0
   27.7953  -20.8937   -8.5207 C   0  0  0  0  0  0  0  0  0  0  0  0
   27.4892  -20.7772   -9.8584 C   0  0  0  0  0  0  0  0  0  0  0  0
   23.7651  -20.1755  -12.9785 C   0  0  0  0  0  0  0  0  0  0  0  0
   24.1132  -19.7314  -14.1339 O   0  0  0  0  0  0  0  0  0  0  0  0
   22.4993  -19.7657  -12.5472 N   0  0  0  0  0  0  0  0  0  0  0  0
   21.5207  -19.1632  -13.5320 C   0  0  1  0  0  0  0  0  0  0  0  0
   21.3338  -20.1995  -14.5996 C   0  0  0  0  0  0  0  0  0  0  0  0
   21.5768  -19.9369  -15.9922 C   0  0  0  0  0  0  0  0  0  0  0  0
   20.5881  -19.6380  -17.0175 C   0  0  0  0  0  0  0  0  0  0  0  0
   21.0218  -19.5064  -18.4326 C   0  0  0  0  0  0  0  0  0  0  0  0
   19.9664  -19.1746  -19.3193 N   0  0  0  0  0  0  0  0  0  0  0  0
   20.3312  -18.9306  -12.7377 C   0  0  0  0  0  0  0  0  0  0  0  0
   20.1434  -19.6158  -11.6742 O   0  0  0  0  0  0  0  0  0  0  0  0
   19.3648  -18.0138  -13.0270 O   0  0  0  0  0  0  0  0  0  0  0  0
  1  2  1  0
  2  3  2  0
  4  5  1  0
  4  2  1  0
  5  6  1  1
  5  7  1  0
  7  8  2  0
  9  7  1  0
  9 10  1  0
 10 18  1  0
 11 12  1  0
 10 11  1  6
 12 13  2  0
 13 14  1  0
 15 14  2  0
 16 15  1  0
 17 12  1  0
 17 16  2  0
 18 20  1  0
 19 18  2  0
 20 21  1  0
 21 27  1  0
 21 22  1  6
 23 22  1  0
 24 23  1  0
 25 24  1  0
 26 25  1  0
 27 28  2  0
 27 29  1  0
M  END
$$$$
