NFK.pdb
     RDKit          3D

 29 29  0  0  1  0  0  0  0  0999 V2000
   27.6635  -21.8524  -18.0803 N   0  0  0  0  0  0  0  0  0  0  0  0
   28.1594  -21.5075  -16.7775 C   0  0  0  0  0  0  0  0  0  0  0  0
   29.3769  -21.1943  -16.7441 O   0  0  0  0  0  0  0  0  0  0  0  0
   27.2519  -21.5417  -15.6194 C   0  0  0  0  0  0  0  0  0  0  0  0
   25.8929  -22.0875  -15.8752 C   0  0  2  0  0  0  0  0  0  0  0  0
   25.2516  -21.1349  -16.8136 N   0  0  0  0  0  0  0  0  0  0  0  0
   24.9957  -22.1366  -14.7081 C   0  0  0  0  0  0  0  0  0  0  0  0
   25.3855  -22.7404  -13.6823 O   0  0  0  0  0  0  0  0  0  0  0  0
   23.7249  -21.5495  -14.6656 N   0  0  0  0  0  0  0  0  0  0  0  0
   22.8413  -21.5929  -13.4683 C   0  0  1  0  0  0  0  0  0  0  0  0
   22.9027  -20.2521  -12.8898 C   0  0  0  0  0  0  0  0  0  0  0  0
   22.0623  -19.8376  -11.8029 C   0  0  0  0  0  0  0  0  0  0  0  0
   20.9141  -19.1245  -12.0672 C   0  0  0  0  0  0  0  0  0  0  0  0
   20.0641  -18.6922  -11.0464 C   0  0  0  0  0  0  0  0  0  0  0  0
   20.4048  -18.9999   -9.7482 C   0  0  0  0  0  0  0  0  0  0  0  0
   21.5522  -19.7149   -9.4576 C   0  0  0  0  0  0  0  0  0  0  0  0
   22.3689  -20.1262  -10.4874 C   0  0  0  0  0  0  0  0  0  0  0  0
   21.5046  -22.0338  -13.9083 C   0  0  0  0  0  0  0  0  0  0  0  0
   21.0607  -21.5727  -15.0235 O   0  0  0  0  0  0  0  0  0  0  0  0
   20.6415  -22.9164  -13.2508 N   0  0  0  0  0  0  0  0  0  0  0  0
   19.2827  -23.2284  -13.8399 C   0  0  1  0  0  0  0  0  0  0  0  0
   18.8310  -24.4893  -13.1658 C   0  0  0  0  0  0  0  0  0  0  0  0
   18.7749  -24.6321  -11.7362 C   0  0  0  0  0  0  0  0  0  0  0  0
   18.2949  -25.7819  -10.9843 C   0  0  0  0  0  0  0  0  0  0  0  0
   18.2592  -25.7197   -9.5001 C   0  0  0  0  0  0  0  0  0  0  0  0
   17.7336  -26.8903   -8.8971 N   0  0  0  0  0  0  0  0  0  0  0  0
   18.4831  -22.0701  -13.4950 C   0  0  0  0  0  0  0  0  0  0  0  0
   18.7309  -21.4371  -12.4116 O   0  0  0  0  0  0  0  0  0  0  0  0
   17.4606  -21.5737  -14.2474 O   0  0  0  0  0  0  0  0  0  0  0  0
  1  2  1  0
  2  3  2  0
  4  5  1  0
  4  2  1  0
  5  6  1  6
  5  7  1  0
  7  8  2  0
  9  7  1  0
  9 10  1  0
 10 18  1  0
 11 12  1  0
 10 11  1  6
 12 13  2  0
 13 14  1  0
 15 14  2  0
 16 15  1  0
 17 12  1  0
 17 16  2  0
 18 20  1  0
 19 18  2  0
 20 21  1  0
 21 27  1  0
 21 22  1  1
 23 22  1  0
 24 23  1  0
 25 24  1  0
 26 25  1  0
 27 28  2  0
 27 29  1  0
M  END
$$$$
