NFK.pdb
     RDKit          3D

 29 29  0  0  1  0  0  0  0  0999 V2000
   21.8210  -12.1784  -20.9149 N   0  0  0  0  0  0  0  0  0  0  0  0
   20.5266  -11.7531  -20.4610 C   0  0  0  0  0  0  0  0  0  0  0  0
   19.6056  -11.8761  -21.3084 O   0  0  0  0  0  0  0  0  0  0  0  0
   20.3698  -11.2253  -19.0962 C   0  0  0  0  0  0  0  0  0  0  0  0
   21.6222  -11.0787  -18.3087 C   0  0  2  0  0  0  0  0  0  0  0  0
   21.9401  -12.4385  -17.8098 N   0  0  0  0  0  0  0  0  0  0  0  0
   21.5212  -10.2423  -17.1005 C   0  0  0  0  0  0  0  0  0  0  0  0
   20.9956  -10.7362  -16.0766 O   0  0  0  0  0  0  0  0  0  0  0  0
   21.9764   -8.9205  -17.0166 N   0  0  0  0  0  0  0  0  0  0  0  0
   21.7945   -8.0656  -15.8115 C   0  0  1  0  0  0  0  0  0  0  0  0
   23.1320   -7.5876  -15.4671 C   0  0  0  0  0  0  0  0  0  0  0  0
   24.2175   -8.4751  -15.1615 C   0  0  0  0  0  0  0  0  0  0  0  0
   24.1203   -9.3168  -14.0757 C   0  0  0  0  0  0  0  0  0  0  0  0
   25.1496  -10.1959  -13.7307 C   0  0  0  0  0  0  0  0  0  0  0  0
   26.2826  -10.2030  -14.5132 C   0  0  0  0  0  0  0  0  0  0  0  0
   26.4037   -9.3676  -15.6084 C   0  0  0  0  0  0  0  0  0  0  0  0
   25.3704   -8.5126  -15.9212 C   0  0  0  0  0  0  0  0  0  0  0  0
   20.8120   -7.0174  -16.1445 C   0  0  0  0  0  0  0  0  0  0  0  0
   20.9640   -6.3877  -17.2552 O   0  0  0  0  0  0  0  0  0  0  0  0
   19.7061   -6.6175  -15.3875 N   0  0  0  0  0  0  0  0  0  0  0  0
   18.7610   -5.5638  -15.9235 C   0  0  1  0  0  0  0  0  0  0  0  0
   17.3837   -6.1290  -15.7439 C   0  0  0  0  0  0  0  0  0  0  0  0
   16.1900   -5.3567  -15.9585 C   0  0  0  0  0  0  0  0  0  0  0  0
   14.8139   -5.8252  -15.8891 C   0  0  0  0  0  0  0  0  0  0  0  0
   13.7055   -4.8774  -16.1741 C   0  0  0  0  0  0  0  0  0  0  0  0
   12.4283   -5.4922  -16.2017 N   0  0  0  0  0  0  0  0  0  0  0  0
   19.0248   -4.4080  -15.0902 C   0  0  0  0  0  0  0  0  0  0  0  0
   19.2760   -4.5752  -13.8474 O   0  0  0  0  0  0  0  0  0  0  0  0
   19.0354   -3.1164  -15.5256 O   0  0  0  0  0  0  0  0  0  0  0  0
  1  2  1  0
  2  3  2  0
  4  5  1  0
  4  2  1  0
  5  6  1  1
  5  7  1  0
  7  8  2  0
  9  7  1  0
  9 10  1  0
 10 18  1  0
 11 12  1  0
 10 11  1  6
 12 13  2  0
 13 14  1  0
 15 14  2  0
 16 15  1  0
 17 12  1  0
 17 16  2  0
 18 20  1  0
 19 18  2  0
 20 21  1  0
 21 27  1  0
 21 22  1  1
 23 22  1  0
 24 23  1  0
 25 24  1  0
 26 25  1  0
 27 28  2  0
 27 29  1  0
M  END
$$$$
