NFK.pdb
     RDKit          3D

 29 29  0  0  1  0  0  0  0  0999 V2000
   28.6778  -20.8435  -18.1067 N   0  0  0  0  0  0  0  0  0  0  0  0
   27.2820  -20.5883  -17.8860 C   0  0  0  0  0  0  0  0  0  0  0  0
   26.7166  -19.9325  -18.7980 O   0  0  0  0  0  0  0  0  0  0  0  0
   26.6340  -21.0880  -16.6627 C   0  0  0  0  0  0  0  0  0  0  0  0
   27.4988  -21.8753  -15.7449 C   0  0  2  0  0  0  0  0  0  0  0  0
   27.5160  -23.2515  -16.2971 N   0  0  0  0  0  0  0  0  0  0  0  0
   26.9985  -22.0225  -14.3674 C   0  0  0  0  0  0  0  0  0  0  0  0
   26.0292  -22.7892  -14.1646 O   0  0  0  0  0  0  0  0  0  0  0  0
   27.5367  -21.3581  -13.2582 N   0  0  0  0  0  0  0  0  0  0  0  0
   26.9643  -21.4547  -11.8873 C   0  0  1  0  0  0  0  0  0  0  0  0
   28.0424  -21.0538  -10.9856 C   0  0  0  0  0  0  0  0  0  0  0  0
   27.8257  -20.7723   -9.5952 C   0  0  0  0  0  0  0  0  0  0  0  0
   28.6492  -21.3442   -8.6510 C   0  0  0  0  0  0  0  0  0  0  0  0
   28.4786  -21.1080   -7.2848 C   0  0  0  0  0  0  0  0  0  0  0  0
   27.4519  -20.2767   -6.8961 C   0  0  0  0  0  0  0  0  0  0  0  0
   26.6120  -19.6907   -7.8252 C   0  0  0  0  0  0  0  0  0  0  0  0
   26.8073  -19.9443   -9.1646 C   0  0  0  0  0  0  0  0  0  0  0  0
   25.7536  -20.6140  -11.8423 C   0  0  0  0  0  0  0  0  0  0  0  0
   25.7308  -19.5599  -12.5783 O   0  0  0  0  0  0  0  0  0  0  0  0
   24.5973  -20.8286  -11.0853 N   0  0  0  0  0  0  0  0  0  0  0  0
   23.2821  -20.2187  -11.5200 C   0  0  1  0  0  0  0  0  0  0  0  0
   22.9082  -20.9279  -12.7872 C   0  0  0  0  0  0  0  0  0  0  0  0
   21.8259  -20.4987  -13.6308 C   0  0  0  0  0  0  0  0  0  0  0  0
   20.5405  -21.1552  -13.8165 C   0  0  0  0  0  0  0  0  0  0  0  0
   19.5390  -20.5519  -14.7336 C   0  0  0  0  0  0  0  0  0  0  0  0
   18.3106  -21.2586  -14.7741 N   0  0  0  0  0  0  0  0  0  0  0  0
   22.3889  -20.5010  -10.4144 C   0  0  0  0  0  0  0  0  0  0  0  0
   22.6330  -21.4966   -9.6495 O   0  0  0  0  0  0  0  0  0  0  0  0
   21.2785  -19.7751  -10.1014 O   0  0  0  0  0  0  0  0  0  0  0  0
  1  2  1  0
  2  3  2  0
  4  5  1  0
  4  2  1  0
  5  6  1  6
  5  7  1  0
  7  8  2  0
  9  7  1  0
  9 10  1  0
 10 18  1  0
 11 12  1  0
 10 11  1  1
 12 13  2  0
 13 14  1  0
 15 14  2  0
 16 15  1  0
 17 12  1  0
 17 16  2  0
 18 20  1  0
 19 18  2  0
 20 21  1  0
 21 27  1  0
 21 22  1  6
 23 22  1  0
 24 23  1  0
 25 24  1  0
 26 25  1  0
 27 28  2  0
 27 29  1  0
M  END
$$$$
