CAR.pdb
     RDKit          3D

 23 22  0  0  1  0  0  0  0  0999 V2000
   19.5632  -11.8403  -15.2795 N   0  0  0  0  0  0  0  0  0  0  0  0
   19.1898  -10.4647  -15.4177 C   0  0  1  0  0  0  0  0  0  0  0  0
   17.7754  -10.2848  -15.9175 C   0  0  0  0  0  0  0  0  0  0  0  0
   17.5553  -10.7484  -17.6288 S   0  0  0  0  0  0  0  0  0  0  0  0
   19.2491   -9.8069  -14.0651 C   0  0  0  0  0  0  0  0  0  0  0  0
   18.7316  -10.3978  -13.0597 O   0  0  0  0  0  0  0  0  0  0  0  0
   20.9186   -6.7773  -12.6668 C   0  0  0  0  0  0  0  0  0  0  0  0
   19.9414   -7.9300  -12.6167 C   0  0  2  0  0  0  0  0  0  0  0  0
   19.8747   -8.5446  -13.9193 N   0  0  0  0  0  0  0  0  0  0  0  0
   18.5700   -7.4558  -12.2408 C   0  0  0  0  0  0  0  0  0  0  0  0
   17.7901   -7.0110  -13.1366 O   0  0  0  0  0  0  0  0  0  0  0  0
   13.6296   -5.2786   -6.7787 N   0  0  0  0  0  0  0  0  0  0  0  0
   12.6410   -6.2768   -6.9647 C   0  0  0  0  0  0  0  0  0  0  0  0
   11.4019   -6.0131   -6.6994 N   0  0  0  0  0  0  0  0  0  0  0  0
   12.9911   -7.5687   -7.4396 N   0  0  0  0  0  0  0  0  0  0  0  0
   14.3794   -7.8961   -7.7465 C   0  0  0  0  0  0  0  0  0  0  0  0
   14.7993   -7.1990   -9.0235 C   0  0  0  0  0  0  0  0  0  0  0  0
   16.2261   -7.5830   -9.3111 C   0  0  0  0  0  0  0  0  0  0  0  0
   16.7654   -6.9765  -10.5686 C   0  0  2  0  0  0  0  0  0  0  0  0
   18.0753   -7.4718  -10.9219 N   0  0  0  0  0  0  0  0  0  0  0  0
   16.7174   -5.4932  -10.5569 C   0  0  0  0  0  0  0  0  0  0  0  0
   17.7614   -4.8372  -10.2860 O   0  0  0  0  0  0  0  0  0  0  0  0
   15.5781   -4.7536  -10.8293 O   0  0  0  0  0  0  0  0  0  0  0  0
  2  1  1  1
  2  3  1  0
  3  4  1  0
  5  2  1  0
  6  5  2  0
  8  7  1  6
  8 10  1  0
  8  9  1  0
  9  5  1  0
 10 20  1  0
 11 10  2  0
 12 13  1  0
 13 15  1  0
 14 13  2  0
 16 15  1  0
 16 17  1  0
 18 17  1  0
 19 18  1  1
 19 21  1  0
 20 19  1  0
 21 23  1  0
 22 21  2  0
M  END
$$$$
