CAR.pdb
     RDKit          3D

 23 22  0  0  1  0  0  0  0  0999 V2000
   29.0981  -19.2343  -14.6543 N   0  0  0  0  0  0  0  0  0  0  0  0
   27.8896  -18.7659  -14.0454 C   0  0  1  0  0  0  0  0  0  0  0  0
   26.8594  -18.3111  -15.0527 C   0  0  0  0  0  0  0  0  0  0  0  0
   27.0091  -16.5889  -15.5037 S   0  0  0  0  0  0  0  0  0  0  0  0
   27.2618  -19.8983  -13.2778 C   0  0  0  0  0  0  0  0  0  0  0  0
   27.3122  -21.0804  -13.7551 O   0  0  0  0  0  0  0  0  0  0  0  0
   25.4134  -20.2040  -10.0379 C   0  0  0  0  0  0  0  0  0  0  0  0
   25.9326  -20.7146  -11.3629 C   0  0  2  0  0  0  0  0  0  0  0  0
   26.6236  -19.6450  -12.0390 N   0  0  0  0  0  0  0  0  0  0  0  0
   24.8080  -21.1845  -12.2356 C   0  0  0  0  0  0  0  0  0  0  0  0
   24.2137  -20.3605  -12.9948 O   0  0  0  0  0  0  0  0  0  0  0  0
   23.9149  -27.8819  -16.4580 N   0  0  0  0  0  0  0  0  0  0  0  0
   23.3211  -26.9871  -17.3828 C   0  0  0  0  0  0  0  0  0  0  0  0
   22.6194  -27.4503  -18.3668 N   0  0  0  0  0  0  0  0  0  0  0  0
   23.4856  -25.5832  -17.2458 N   0  0  0  0  0  0  0  0  0  0  0  0
   24.1674  -25.0253  -16.0827 C   0  0  0  0  0  0  0  0  0  0  0  0
   23.2329  -25.0292  -14.8912 C   0  0  0  0  0  0  0  0  0  0  0  0
   23.9844  -24.4687  -13.7135 C   0  0  0  0  0  0  0  0  0  0  0  0
   23.6005  -23.0622  -13.3751 C   0  0  2  0  0  0  0  0  0  0  0  0
   24.3544  -22.5177  -12.2700 N   0  0  0  0  0  0  0  0  0  0  0  0
   22.1379  -22.8965  -13.1846 C   0  0  0  0  0  0  0  0  0  0  0  0
   21.3456  -23.2453  -14.1033 O   0  0  0  0  0  0  0  0  0  0  0  0
   21.5612  -22.3717  -12.0394 O   0  0  0  0  0  0  0  0  0  0  0  0
  2  1  1  6
  2  3  1  0
  3  4  1  0
  5  2  1  0
  6  5  2  0
  8  7  1  1
  8 10  1  0
  8  9  1  0
  9  5  1  0
 10 20  1  0
 11 10  2  0
 12 13  1  0
 13 15  1  0
 14 13  2  0
 16 15  1  0
 16 17  1  0
 18 17  1  0
 19 18  1  1
 19 21  1  0
 20 19  1  0
 21 23  1  0
 22 21  2  0
M  END
$$$$
