CAR.pdb
     RDKit          3D

 23 22  0  0  1  0  0  0  0  0999 V2000
   28.1013  -18.1085  -17.2238 N   0  0  0  0  0  0  0  0  0  0  0  0
   27.0420  -19.0615  -17.3655 C   0  0  1  0  0  0  0  0  0  0  0  0
   27.2712  -20.3218  -16.5643 C   0  0  0  0  0  0  0  0  0  0  0  0
   28.6774  -21.2760  -17.1155 S   0  0  0  0  0  0  0  0  0  0  0  0
   25.7678  -18.4528  -16.8441 C   0  0  0  0  0  0  0  0  0  0  0  0
   25.7526  -17.9399  -15.6761 O   0  0  0  0  0  0  0  0  0  0  0  0
   22.6155  -17.2709  -18.3080 C   0  0  0  0  0  0  0  0  0  0  0  0
   23.3914  -17.8528  -17.1481 C   0  0  2  0  0  0  0  0  0  0  0  0
   24.6023  -18.4541  -17.6489 N   0  0  0  0  0  0  0  0  0  0  0  0
   22.5918  -18.9052  -16.4408 C   0  0  0  0  0  0  0  0  0  0  0  0
   22.6747  -20.1148  -16.8127 O   0  0  0  0  0  0  0  0  0  0  0  0
   25.9251  -20.8875  -11.2427 N   0  0  0  0  0  0  0  0  0  0  0  0
   25.6718  -21.4863  -12.5019 C   0  0  0  0  0  0  0  0  0  0  0  0
   26.6539  -21.9625  -13.1976 N   0  0  0  0  0  0  0  0  0  0  0  0
   24.3502  -21.5717  -13.0148 N   0  0  0  0  0  0  0  0  0  0  0  0
   23.2418  -20.9217  -12.3235 C   0  0  0  0  0  0  0  0  0  0  0  0
   21.9472  -21.1996  -13.0580 C   0  0  0  0  0  0  0  0  0  0  0  0
   21.2614  -19.8814  -13.2991 C   0  0  0  0  0  0  0  0  0  0  0  0
   20.9111  -19.6448  -14.7348 C   0  0  2  0  0  0  0  0  0  0  0  0
   21.7302  -18.6329  -15.3601 N   0  0  0  0  0  0  0  0  0  0  0  0
   19.4631  -19.3905  -14.9380 C   0  0  0  0  0  0  0  0  0  0  0  0
   19.0578  -18.2106  -15.1310 O   0  0  0  0  0  0  0  0  0  0  0  0
   18.4948  -20.3813  -14.9312 O   0  0  0  0  0  0  0  0  0  0  0  0
  2  1  1  1
  2  3  1  0
  3  4  1  0
  5  2  1  0
  6  5  2  0
  8  7  1  6
  8 10  1  0
  8  9  1  0
  9  5  1  0
 10 20  1  0
 11 10  2  0
 12 13  1  0
 13 15  1  0
 14 13  2  0
 16 15  1  0
 16 17  1  0
 18 17  1  0
 19 18  1  1
 19 21  1  0
 20 19  1  0
 21 23  1  0
 22 21  2  0
M  END
$$$$
