CAR.pdb
     RDKit          3D

 23 22  0  0  1  0  0  0  0  0999 V2000
   24.6053  -11.3925  -15.5309 N   0  0  0  0  0  0  0  0  0  0  0  0
   23.1934  -11.2514  -15.7238 C   0  0  1  0  0  0  0  0  0  0  0  0
   22.3972  -12.3699  -15.0932 C   0  0  0  0  0  0  0  0  0  0  0  0
   22.7816  -13.9846  -15.7540 S   0  0  0  0  0  0  0  0  0  0  0  0
   22.7372   -9.9794  -15.0609 C   0  0  0  0  0  0  0  0  0  0  0  0
   23.0054   -9.7859  -13.8287 O   0  0  0  0  0  0  0  0  0  0  0  0
   21.8079   -6.6456  -16.1729 C   0  0  0  0  0  0  0  0  0  0  0  0
   21.6368   -7.7713  -15.1781 C   0  0  2  0  0  0  0  0  0  0  0  0
   22.0177   -9.0126  -15.8051 N   0  0  0  0  0  0  0  0  0  0  0  0
   20.2105   -7.8800  -14.7297 C   0  0  0  0  0  0  0  0  0  0  0  0
   19.4089   -8.6357  -15.3581 O   0  0  0  0  0  0  0  0  0  0  0  0
   15.5254   -6.9141   -7.8394 N   0  0  0  0  0  0  0  0  0  0  0  0
   14.6460   -7.7588   -8.5616 C   0  0  0  0  0  0  0  0  0  0  0  0
   13.4213   -7.9004   -8.1677 N   0  0  0  0  0  0  0  0  0  0  0  0
   15.0906   -8.4560   -9.7162 N   0  0  0  0  0  0  0  0  0  0  0  0
   16.4894   -8.3966  -10.1270 C   0  0  0  0  0  0  0  0  0  0  0  0
   16.5924   -7.7746  -11.5038 C   0  0  0  0  0  0  0  0  0  0  0  0
   18.0375   -7.8183  -11.9230 C   0  0  0  0  0  0  0  0  0  0  0  0
   18.2873   -7.2114  -13.2681 C   0  0  2  0  0  0  0  0  0  0  0  0
   19.6861   -7.1792  -13.6260 N   0  0  0  0  0  0  0  0  0  0  0  0
   17.6427   -5.8840  -13.4275 C   0  0  0  0  0  0  0  0  0  0  0  0
   18.3565   -4.8431  -13.4553 O   0  0  0  0  0  0  0  0  0  0  0  0
   16.2756   -5.6973  -13.5518 O   0  0  0  0  0  0  0  0  0  0  0  0
  2  1  1  1
  2  3  1  0
  3  4  1  0
  5  2  1  0
  6  5  2  0
  8  7  1  6
  8 10  1  0
  8  9  1  0
  9  5  1  0
 10 20  1  0
 11 10  2  0
 12 13  1  0
 13 15  1  0
 14 13  2  0
 16 15  1  0
 16 17  1  0
 18 17  1  0
 19 18  1  1
 19 21  1  0
 20 19  1  0
 21 23  1  0
 22 21  2  0
M  END
$$$$
