CAR.pdb
     RDKit          3D

 23 22  0  0  1  0  0  0  0  0999 V2000
   28.2249  -18.0132  -17.1798 N   0  0  0  0  0  0  0  0  0  0  0  0
   28.1526  -17.6832  -15.7882 C   0  0  1  0  0  0  0  0  0  0  0  0
   26.9859  -16.7828  -15.4553 C   0  0  0  0  0  0  0  0  0  0  0  0
   27.2100  -15.0923  -15.9882 S   0  0  0  0  0  0  0  0  0  0  0  0
   27.9511  -18.9487  -14.9986 C   0  0  0  0  0  0  0  0  0  0  0  0
   27.0823  -19.7975  -15.3894 O   0  0  0  0  0  0  0  0  0  0  0  0
   29.4688  -20.4334  -11.9190 C   0  0  0  0  0  0  0  0  0  0  0  0
   28.4136  -20.3178  -12.9956 C   0  0  2  0  0  0  0  0  0  0  0  0
   28.7223  -19.1866  -13.8347 N   0  0  0  0  0  0  0  0  0  0  0  0
   27.0549  -20.1122  -12.3965 C   0  0  0  0  0  0  0  0  0  0  0  0
   26.6705  -18.9418  -12.0947 O   0  0  0  0  0  0  0  0  0  0  0  0
   19.1193  -23.4406  -14.0008 N   0  0  0  0  0  0  0  0  0  0  0  0
   18.9292  -22.3945  -13.0639 C   0  0  0  0  0  0  0  0  0  0  0  0
   17.7412  -21.9249  -12.8556 N   0  0  0  0  0  0  0  0  0  0  0  0
   20.0279  -21.8505  -12.3471 N   0  0  0  0  0  0  0  0  0  0  0  0
   21.3982  -22.1659  -12.7367 C   0  0  0  0  0  0  0  0  0  0  0  0
   22.3679  -21.3913  -11.8692 C   0  0  0  0  0  0  0  0  0  0  0  0
   23.7558  -21.6324  -12.3999 C   0  0  0  0  0  0  0  0  0  0  0  0
   24.8246  -20.9431  -11.6109 C   0  0  2  0  0  0  0  0  0  0  0  0
   26.1510  -21.1614  -12.1390 N   0  0  0  0  0  0  0  0  0  0  0  0
   24.7491  -21.2418  -10.1590 C   0  0  0  0  0  0  0  0  0  0  0  0
   25.5763  -22.0438   -9.6432 O   0  0  0  0  0  0  0  0  0  0  0  0
   23.8104  -20.6893   -9.3029 O   0  0  0  0  0  0  0  0  0  0  0  0
  2  1  1  6
  2  3  1  0
  3  4  1  0
  5  2  1  0
  6  5  2  0
  8  7  1  1
  8 10  1  0
  8  9  1  0
  9  5  1  0
 10 20  1  0
 11 10  2  0
 12 13  1  0
 13 15  1  0
 14 13  2  0
 16 15  1  0
 16 17  1  0
 18 17  1  0
 19 18  1  6
 19 21  1  0
 20 19  1  0
 21 23  1  0
 22 21  2  0
M  END
$$$$
