CAR.pdb
     RDKit          3D

 23 22  0  0  1  0  0  0  0  0999 V2000
   25.8771  -19.5972  -15.1665 N   0  0  0  0  0  0  0  0  0  0  0  0
   25.7716  -18.5884  -16.1772 C   0  0  1  0  0  0  0  0  0  0  0  0
   24.8743  -18.9933  -17.3234 C   0  0  0  0  0  0  0  0  0  0  0  0
   25.5926  -20.2304  -18.3938 S   0  0  0  0  0  0  0  0  0  0  0  0
   25.1560  -17.3558  -15.5711 C   0  0  0  0  0  0  0  0  0  0  0  0
   24.0861  -17.4646  -14.8846 O   0  0  0  0  0  0  0  0  0  0  0  0
   26.1514  -13.7877  -15.1980 C   0  0  0  0  0  0  0  0  0  0  0  0
   25.1386  -14.9100  -15.2281 C   0  0  2  0  0  0  0  0  0  0  0  0
   25.7648  -16.0920  -15.7662 N   0  0  0  0  0  0  0  0  0  0  0  0
   23.9672  -14.5535  -16.0929 C   0  0  0  0  0  0  0  0  0  0  0  0
   23.9882  -14.8361  -17.3291 O   0  0  0  0  0  0  0  0  0  0  0  0
   15.5066  -12.1921  -14.3929 N   0  0  0  0  0  0  0  0  0  0  0  0
   15.5830  -12.4199  -15.7896 C   0  0  0  0  0  0  0  0  0  0  0  0
   14.5047  -12.4000  -16.5051 N   0  0  0  0  0  0  0  0  0  0  0  0
   16.8311  -12.6715  -16.4190 N   0  0  0  0  0  0  0  0  0  0  0  0
   18.0546  -12.7686  -15.6299 C   0  0  0  0  0  0  0  0  0  0  0  0
   19.2285  -13.0620  -16.5402 C   0  0  0  0  0  0  0  0  0  0  0  0
   20.4443  -13.2617  -15.6754 C   0  0  0  0  0  0  0  0  0  0  0  0
   21.6812  -13.5901  -16.4515 C   0  0  2  0  0  0  0  0  0  0  0  0
   22.8119  -13.9075  -15.6108 N   0  0  0  0  0  0  0  0  0  0  0  0
   22.0148  -12.5573  -17.4638 C   0  0  0  0  0  0  0  0  0  0  0  0
   22.8812  -11.6788  -17.1969 O   0  0  0  0  0  0  0  0  0  0  0  0
   21.4284  -12.4839  -18.7168 O   0  0  0  0  0  0  0  0  0  0  0  0
  2  1  1  1
  2  3  1  0
  3  4  1  0
  5  2  1  0
  6  5  2  0
  8  7  1  6
  8 10  1  0
  8  9  1  0
  9  5  1  0
 10 20  1  0
 11 10  2  0
 12 13  1  0
 13 15  1  0
 14 13  2  0
 16 15  1  0
 16 17  1  0
 18 17  1  0
 19 18  1  1
 19 21  1  0
 20 19  1  0
 21 23  1  0
 22 21  2  0
M  END
$$$$
