CAR.pdb
     RDKit          3D

 23 22  0  0  1  0  0  0  0  0999 V2000
   19.0076  -11.0332  -15.1944 N   0  0  0  0  0  0  0  0  0  0  0  0
   19.1123   -9.6076  -15.1094 C   0  0  1  0  0  0  0  0  0  0  0  0
   17.9948   -8.8900  -15.8299 C   0  0  0  0  0  0  0  0  0  0  0  0
   18.0215   -9.1179  -17.6017 S   0  0  0  0  0  0  0  0  0  0  0  0
   19.0169   -9.1987  -13.6639 C   0  0  0  0  0  0  0  0  0  0  0  0
   18.1208   -9.7247  -12.9236 O   0  0  0  0  0  0  0  0  0  0  0  0
   21.2304   -7.3051  -11.3550 C   0  0  0  0  0  0  0  0  0  0  0  0
   19.9226   -7.9686  -11.7232 C   0  0  2  0  0  0  0  0  0  0  0  0
   19.9168   -8.2390  -13.1394 N   0  0  0  0  0  0  0  0  0  0  0  0
   18.7596   -7.0793  -11.4012 C   0  0  0  0  0  0  0  0  0  0  0  0
   18.4315   -6.1558  -12.2062 O   0  0  0  0  0  0  0  0  0  0  0  0
   12.3840  -11.2003   -8.8956 N   0  0  0  0  0  0  0  0  0  0  0  0
   12.6042   -9.8218   -8.6514 C   0  0  0  0  0  0  0  0  0  0  0  0
   11.8060   -9.1714   -7.8672 N   0  0  0  0  0  0  0  0  0  0  0  0
   13.6924   -9.1397   -9.2578 N   0  0  0  0  0  0  0  0  0  0  0  0
   13.4967   -7.8347   -9.8803 C   0  0  0  0  0  0  0  0  0  0  0  0
   14.7958   -7.3630  -10.4990 C   0  0  0  0  0  0  0  0  0  0  0  0
   15.6996   -6.9086   -9.3843 C   0  0  0  0  0  0  0  0  0  0  0  0
   16.9583   -6.2567   -9.8647 C   0  0  2  0  0  0  0  0  0  0  0  0
   17.9847   -7.2043  -10.2315 N   0  0  0  0  0  0  0  0  0  0  0  0
   17.4651   -5.2253   -8.9255 C   0  0  0  0  0  0  0  0  0  0  0  0
   18.4487   -5.4897   -8.1798 O   0  0  0  0  0  0  0  0  0  0  0  0
   16.9224   -3.9564   -8.8031 O   0  0  0  0  0  0  0  0  0  0  0  0
  2  1  1  1
  2  3  1  0
  3  4  1  0
  5  2  1  0
  6  5  2  0
  8  7  1  6
  8 10  1  0
  8  9  1  0
  9  5  1  0
 10 20  1  0
 11 10  2  0
 12 13  1  0
 13 15  1  0
 14 13  2  0
 16 15  1  0
 16 17  1  0
 18 17  1  0
 19 18  1  1
 19 21  1  0
 20 19  1  0
 21 23  1  0
 22 21  2  0
M  END
$$$$
