CAR.pdb
     RDKit          3D

 23 22  0  0  1  0  0  0  0  0999 V2000
   27.1928  -18.5331  -18.5640 N   0  0  0  0  0  0  0  0  0  0  0  0
   26.9640  -17.2102  -19.0622 C   0  0  1  0  0  0  0  0  0  0  0  0
   26.2400  -17.1963  -20.3882 C   0  0  0  0  0  0  0  0  0  0  0  0
   25.8305  -15.5555  -20.9643 S   0  0  0  0  0  0  0  0  0  0  0  0
   26.0844  -16.4704  -18.0904 C   0  0  0  0  0  0  0  0  0  0  0  0
   24.9377  -16.9469  -17.7977 O   0  0  0  0  0  0  0  0  0  0  0  0
   26.5426  -13.5815  -15.7880 C   0  0  0  0  0  0  0  0  0  0  0  0
   25.6991  -14.5753  -16.5541 C   0  0  2  0  0  0  0  0  0  0  0  0
   26.5332  -15.2580  -17.5117 N   0  0  0  0  0  0  0  0  0  0  0  0
   24.5915  -13.8846  -17.2911 C   0  0  0  0  0  0  0  0  0  0  0  0
   24.8185  -13.3647  -18.4254 O   0  0  0  0  0  0  0  0  0  0  0  0
   15.8374  -14.2991  -16.5867 N   0  0  0  0  0  0  0  0  0  0  0  0
   16.3304  -12.9895  -16.3624 C   0  0  0  0  0  0  0  0  0  0  0  0
   15.5956  -12.1222  -15.7436 N   0  0  0  0  0  0  0  0  0  0  0  0
   17.6247  -12.6124  -16.8092 N   0  0  0  0  0  0  0  0  0  0  0  0
   18.4509  -13.5474  -17.5656 C   0  0  0  0  0  0  0  0  0  0  0  0
   19.7631  -12.8878  -17.9345 C   0  0  0  0  0  0  0  0  0  0  0  0
   20.8610  -13.5930  -17.1840 C   0  0  0  0  0  0  0  0  0  0  0  0
   22.2288  -13.0746  -17.5009 C   0  0  2  0  0  0  0  0  0  0  0  0
   23.2782  -13.7712  -16.7942 N   0  0  0  0  0  0  0  0  0  0  0  0
   22.3356  -11.6027  -17.3433 C   0  0  0  0  0  0  0  0  0  0  0  0
   22.8821  -11.1238  -16.3112 O   0  0  0  0  0  0  0  0  0  0  0  0
   21.8659  -10.6888  -18.2726 O   0  0  0  0  0  0  0  0  0  0  0  0
  2  1  1  1
  2  3  1  0
  3  4  1  0
  5  2  1  0
  6  5  2  0
  8  7  1  6
  8 10  1  0
  8  9  1  0
  9  5  1  0
 10 20  1  0
 11 10  2  0
 12 13  1  0
 13 15  1  0
 14 13  2  0
 16 15  1  0
 16 17  1  0
 18 17  1  0
 19 18  1  1
 19 21  1  0
 20 19  1  0
 21 23  1  0
 22 21  2  0
M  END
$$$$
