CAR.pdb
     RDKit          3D

 23 22  0  0  1  0  0  0  0  0999 V2000
   23.0173  -10.1173  -15.0290 N   0  0  0  0  0  0  0  0  0  0  0  0
   22.0624   -9.1896  -15.5564 C   0  0  1  0  0  0  0  0  0  0  0  0
   20.7561   -9.8431  -15.9424 C   0  0  0  0  0  0  0  0  0  0  0  0
   20.8344  -10.7488  -17.4804 S   0  0  0  0  0  0  0  0  0  0  0  0
   21.7323   -8.1755  -14.4941 C   0  0  0  0  0  0  0  0  0  0  0  0
   21.2999   -8.5746  -13.3621 O   0  0  0  0  0  0  0  0  0  0  0  0
   22.1527   -4.4841  -14.1392 C   0  0  0  0  0  0  0  0  0  0  0  0
   21.6050   -5.8315  -13.7263 C   0  0  2  0  0  0  0  0  0  0  0  0
   21.9028   -6.7943  -14.7574 N   0  0  0  0  0  0  0  0  0  0  0  0
   20.1186   -5.7735  -13.5410 C   0  0  0  0  0  0  0  0  0  0  0  0
   19.3530   -5.9338  -14.5394 O   0  0  0  0  0  0  0  0  0  0  0  0
   14.4896   -7.6881   -6.9607 N   0  0  0  0  0  0  0  0  0  0  0  0
   13.6973   -7.3466   -8.0850 C   0  0  0  0  0  0  0  0  0  0  0  0
   12.4246   -7.5814   -8.0709 N   0  0  0  0  0  0  0  0  0  0  0  0
   14.2817   -6.7480   -9.2326 N   0  0  0  0  0  0  0  0  0  0  0  0
   15.7285   -6.7603   -9.4214 C   0  0  0  0  0  0  0  0  0  0  0  0
   16.0828   -6.0436  -10.7073 C   0  0  0  0  0  0  0  0  0  0  0  0
   17.5702   -6.1618  -10.9067 C   0  0  0  0  0  0  0  0  0  0  0  0
   18.0642   -5.4687  -12.1378 C   0  0  2  0  0  0  0  0  0  0  0  0
   19.4976   -5.5465  -12.2972 N   0  0  0  0  0  0  0  0  0  0  0  0
   17.5681   -4.0744  -12.2498 C   0  0  0  0  0  0  0  0  0  0  0  0
   18.3067   -3.1181  -11.8844 O   0  0  0  0  0  0  0  0  0  0  0  0
   16.3177   -3.7349  -12.7402 O   0  0  0  0  0  0  0  0  0  0  0  0
  2  1  1  1
  2  3  1  0
  3  4  1  0
  5  2  1  0
  6  5  2  0
  8  7  1  6
  8 10  1  0
  8  9  1  0
  9  5  1  0
 10 20  1  0
 11 10  2  0
 12 13  1  0
 13 15  1  0
 14 13  2  0
 16 15  1  0
 16 17  1  0
 18 17  1  0
 19 18  1  1
 19 21  1  0
 20 19  1  0
 21 23  1  0
 22 21  2  0
M  END
$$$$
