CAR.pdb
     RDKit          3D

 23 22  0  0  1  0  0  0  0  0999 V2000
   19.9419  -21.2444  -11.3173 N   0  0  0  0  0  0  0  0  0  0  0  0
   20.1461  -19.9300  -11.8475 C   0  0  1  0  0  0  0  0  0  0  0  0
   21.2870  -19.1962  -11.1823 C   0  0  0  0  0  0  0  0  0  0  0  0
   21.0454  -18.9310   -9.4321 S   0  0  0  0  0  0  0  0  0  0  0  0
   20.5069  -20.0444  -13.3044 C   0  0  0  0  0  0  0  0  0  0  0  0
   21.2942  -20.9747  -13.6819 O   0  0  0  0  0  0  0  0  0  0  0  0
   19.3130  -18.4785  -16.4597 C   0  0  0  0  0  0  0  0  0  0  0  0
   20.3216  -19.2442  -15.6336 C   0  0  2  0  0  0  0  0  0  0  0  0
   19.9733  -19.1243  -14.2396 N   0  0  0  0  0  0  0  0  0  0  0  0
   21.7034  -18.6971  -15.8301 C   0  0  0  0  0  0  0  0  0  0  0  0
   22.1849  -17.8843  -14.9839 O   0  0  0  0  0  0  0  0  0  0  0  0
   26.9975  -21.5505  -11.9495 N   0  0  0  0  0  0  0  0  0  0  0  0
   27.5369  -21.3784  -13.2487 C   0  0  0  0  0  0  0  0  0  0  0  0
   28.6574  -21.9460  -13.5608 N   0  0  0  0  0  0  0  0  0  0  0  0
   26.8634  -20.5883  -14.2178 N   0  0  0  0  0  0  0  0  0  0  0  0
   25.5309  -20.0586  -13.9483 C   0  0  0  0  0  0  0  0  0  0  0  0
   24.7030  -20.0872  -15.2158 C   0  0  0  0  0  0  0  0  0  0  0  0
   24.6699  -18.6907  -15.7769 C   0  0  0  0  0  0  0  0  0  0  0  0
   23.8901  -18.5771  -17.0493 C   0  0  2  0  0  0  0  0  0  0  0  0
   22.5261  -19.0349  -16.9225 N   0  0  0  0  0  0  0  0  0  0  0  0
   24.5809  -19.2037  -18.2038 C   0  0  0  0  0  0  0  0  0  0  0  0
   25.7126  -18.7741  -18.5619 O   0  0  0  0  0  0  0  0  0  0  0  0
   24.0603  -20.2562  -18.9391 O   0  0  0  0  0  0  0  0  0  0  0  0
  2  1  1  1
  2  3  1  0
  3  4  1  0
  5  2  1  0
  6  5  2  0
  8  7  1  6
  8 10  1  0
  8  9  1  0
  9  5  1  0
 10 20  1  0
 11 10  2  0
 12 13  1  0
 13 15  1  0
 14 13  2  0
 16 15  1  0
 16 17  1  0
 18 17  1  0
 19 18  1  1
 19 21  1  0
 20 19  1  0
 21 23  1  0
 22 21  2  0
M  END
$$$$
