CAR.pdb
     RDKit          3D

 23 22  0  0  1  0  0  0  0  0999 V2000
   27.5279  -20.6280  -12.8494 N   0  0  0  0  0  0  0  0  0  0  0  0
   26.4271  -21.1275  -12.0816 C   0  0  1  0  0  0  0  0  0  0  0  0
   26.3774  -20.5587  -10.6827 C   0  0  0  0  0  0  0  0  0  0  0  0
   26.8282  -21.7335   -9.4145 S   0  0  0  0  0  0  0  0  0  0  0  0
   25.1425  -20.7196  -12.7517 C   0  0  0  0  0  0  0  0  0  0  0  0
   24.7298  -19.5183  -12.6329 O   0  0  0  0  0  0  0  0  0  0  0  0
   23.3542  -21.5615  -15.6641 C   0  0  0  0  0  0  0  0  0  0  0  0
   23.2077  -21.2524  -14.1914 C   0  0  2  0  0  0  0  0  0  0  0  0
   24.4057  -21.6666  -13.5043 N   0  0  0  0  0  0  0  0  0  0  0  0
   22.0405  -21.9854  -13.6020 C   0  0  0  0  0  0  0  0  0  0  0  0
   22.1742  -23.1929  -13.2379 O   0  0  0  0  0  0  0  0  0  0  0  0
   19.0616  -23.6551   -7.7320 N   0  0  0  0  0  0  0  0  0  0  0  0
   17.8035  -23.9789   -8.2983 C   0  0  0  0  0  0  0  0  0  0  0  0
   17.0225  -24.8165   -7.6952 N   0  0  0  0  0  0  0  0  0  0  0  0
   17.3849  -23.3959   -9.5237 N   0  0  0  0  0  0  0  0  0  0  0  0
   18.2686  -22.4971  -10.2586 C   0  0  0  0  0  0  0  0  0  0  0  0
   17.5610  -21.9807  -11.4938 C   0  0  0  0  0  0  0  0  0  0  0  0
   18.5735  -21.2488  -12.3335 C   0  0  0  0  0  0  0  0  0  0  0  0
   19.6425  -22.1372  -12.8886 C   0  0  2  0  0  0  0  0  0  0  0  0
   20.7692  -21.4065  -13.4201 N   0  0  0  0  0  0  0  0  0  0  0  0
   19.1173  -23.1302  -13.8586 C   0  0  0  0  0  0  0  0  0  0  0  0
   19.0055  -22.8146  -15.0758 O   0  0  0  0  0  0  0  0  0  0  0  0
   18.7292  -24.4155  -13.5170 O   0  0  0  0  0  0  0  0  0  0  0  0
  2  1  1  6
  2  3  1  0
  3  4  1  0
  5  2  1  0
  6  5  2  0
  8  7  1  6
  8 10  1  0
  8  9  1  0
  9  5  1  0
 10 20  1  0
 11 10  2  0
 12 13  1  0
 13 15  1  0
 14 13  2  0
 16 15  1  0
 16 17  1  0
 18 17  1  0
 19 18  1  6
 19 21  1  0
 20 19  1  0
 21 23  1  0
 22 21  2  0
M  END
$$$$
