LHW.pdb
     RDKit          3D

 33 35  0  0  1  0  0  0  0  0999 V2000
   29.3583  -16.3248  -19.2619 C   0  0  0  0  0  0  0  0  0  0  0  0
   29.1636  -17.6368  -18.5350 C   0  0  1  0  0  0  0  0  0  0  0  0
   30.4690  -18.3661  -18.5139 C   0  0  0  0  0  0  0  0  0  0  0  0
   28.6647  -17.4343  -17.1228 C   0  0  0  0  0  0  0  0  0  0  0  0
   28.4807  -18.7477  -16.3990 C   0  0  2  0  0  0  0  0  0  0  0  0
   28.4680  -19.8723  -17.2728 N   0  0  0  0  0  0  0  0  0  0  0  0
   27.3354  -18.6426  -15.4880 C   0  0  0  0  0  0  0  0  0  0  0  0
   27.1682  -17.6031  -14.7989 O   0  0  0  0  0  0  0  0  0  0  0  0
   26.3423  -19.6735  -15.3073 N   0  0  0  0  0  0  0  0  0  0  0  0
   25.2088  -19.4871  -14.4623 C   0  0  1  0  0  0  0  0  0  0  0  0
   23.8952  -19.8547  -15.0294 C   0  0  0  0  0  0  0  0  0  0  0  0
   22.7169  -19.6982  -14.1731 C   0  0  0  0  0  0  0  0  0  0  0  0
   22.0027  -18.5706  -13.8915 C   0  0  0  0  0  0  0  0  0  0  0  0
   20.9556  -18.8729  -13.0692 N   0  0  0  0  0  0  0  0  0  0  0  0
   21.0397  -20.1902  -12.8553 C   0  0  0  0  0  0  0  0  0  0  0  0
   22.0816  -20.7076  -13.5023 N   0  0  0  0  0  0  0  0  0  0  0  0
   25.4694  -20.1547  -13.1390 C   0  0  0  0  0  0  0  0  0  0  0  0
   25.9795  -21.2944  -13.1139 O   0  0  0  0  0  0  0  0  0  0  0  0
   25.1470  -19.5133  -11.9288 N   0  0  0  0  0  0  0  0  0  0  0  0
   25.2620  -20.2392  -10.6458 C   0  0  1  0  0  0  0  0  0  0  0  0
   26.3750  -19.6354   -9.8420 C   0  0  0  0  0  0  0  0  0  0  0  0
   26.4729  -20.2161   -8.5007 C   0  0  0  0  0  0  0  0  0  0  0  0
   25.7813  -21.3466   -8.0427 C   0  0  0  0  0  0  0  0  0  0  0  0
   26.0778  -21.5636   -6.7564 N   0  0  0  0  0  0  0  0  0  0  0  0
   26.9386  -20.6272   -6.3361 C   0  0  0  0  0  0  0  0  0  0  0  0
   27.5650  -20.4101   -5.1205 C   0  0  0  0  0  0  0  0  0  0  0  0
   28.4319  -19.3766   -4.9651 C   0  0  0  0  0  0  0  0  0  0  0  0
   28.6933  -18.5349   -6.0225 C   0  0  0  0  0  0  0  0  0  0  0  0
   28.0888  -18.7310   -7.2196 C   0  0  0  0  0  0  0  0  0  0  0  0
   27.2003  -19.7853   -7.3855 C   0  0  0  0  0  0  0  0  0  0  0  0
   24.0105  -20.2900   -9.9218 C   0  0  0  0  0  0  0  0  0  0  0  0
   23.6443  -21.5218   -9.3436 O   0  0  0  0  0  0  0  0  0  0  0  0
   23.2793  -19.2994   -9.8056 O   0  0  0  0  0  0  0  0  0  0  0  0
  2  3  1  1
  2  1  1  0
  4  5  1  0
  4  2  1  0
  5  6  1  6
  7  5  1  0
  8  7  2  0
  9  7  1  0
 10  9  1  0
 11 12  1  0
 10 11  1  6
 12 16  1  0
 13 12  2  0
 13 14  1  0
 14 15  1  0
 16 15  2  0
 17 19  1  0
 17 10  1  0
 18 17  2  0
 20 31  1  0
 20 19  1  0
 20 21  1  1
 21 22  1  0
 22 23  2  0
 22 30  1  0
 23 24  1  0
 24 25  1  0
 25 26  2  0
 27 26  1  0
 28 27  2  0
 29 30  2  0
 29 28  1  0
 30 25  1  0
 31 32  1  0
 33 31  2  0
M  END
$$$$
