LHW.pdb
     RDKit          3D

 33 35  0  0  1  0  0  0  0  0999 V2000
   29.7332  -22.2998  -20.3735 C   0  0  0  0  0  0  0  0  0  0  0  0
   28.4109  -22.3465  -19.6407 C   0  0  1  0  0  0  0  0  0  0  0  0
   27.7467  -23.6519  -19.9428 C   0  0  0  0  0  0  0  0  0  0  0  0
   28.5841  -22.1909  -18.1475 C   0  0  0  0  0  0  0  0  0  0  0  0
   27.2698  -22.3200  -17.4137 C   0  0  2  0  0  0  0  0  0  0  0  0
   26.1543  -21.8747  -18.1792 N   0  0  0  0  0  0  0  0  0  0  0  0
   27.3989  -21.7232  -16.0796 C   0  0  0  0  0  0  0  0  0  0  0  0
   28.3040  -22.1128  -15.2970 O   0  0  0  0  0  0  0  0  0  0  0  0
   26.5400  -20.6835  -15.5668 N   0  0  0  0  0  0  0  0  0  0  0  0
   26.8073  -20.0289  -14.3283 C   0  0  1  0  0  0  0  0  0  0  0  0
   26.6188  -18.5640  -14.3020 C   0  0  0  0  0  0  0  0  0  0  0  0
   27.4424  -17.7560  -15.2049 C   0  0  0  0  0  0  0  0  0  0  0  0
   28.4171  -18.1583  -16.0702 C   0  0  0  0  0  0  0  0  0  0  0  0
   28.9149  -17.0823  -16.7475 N   0  0  0  0  0  0  0  0  0  0  0  0
   28.2351  -16.0266  -16.2876 C   0  0  0  0  0  0  0  0  0  0  0  0
   27.3500  -16.4003  -15.3662 N   0  0  0  0  0  0  0  0  0  0  0  0
   26.0463  -20.7250  -13.2323 C   0  0  0  0  0  0  0  0  0  0  0  0
   24.8998  -21.1642  -13.4614 O   0  0  0  0  0  0  0  0  0  0  0  0
   26.6079  -20.8889  -11.9526 N   0  0  0  0  0  0  0  0  0  0  0  0
   25.8386  -21.5547  -10.8797 C   0  0  1  0  0  0  0  0  0  0  0  0
   26.7697  -21.9041   -9.7570 C   0  0  0  0  0  0  0  0  0  0  0  0
   26.9613  -20.7907   -8.8244 C   0  0  0  0  0  0  0  0  0  0  0  0
   26.1402  -19.6594   -8.7162 C   0  0  0  0  0  0  0  0  0  0  0  0
   26.6395  -18.8287   -7.7942 N   0  0  0  0  0  0  0  0  0  0  0  0
   27.7584  -19.3575   -7.2812 C   0  0  0  0  0  0  0  0  0  0  0  0
   28.6342  -18.9233   -6.3004 C   0  0  0  0  0  0  0  0  0  0  0  0
   29.7032  -19.6810   -5.9446 C   0  0  0  0  0  0  0  0  0  0  0  0
   29.9222  -20.8919   -6.5615 C   0  0  0  0  0  0  0  0  0  0  0  0
   29.0764  -21.3329   -7.5244 C   0  0  0  0  0  0  0  0  0  0  0  0
   27.9816  -20.5628   -7.8942 C   0  0  0  0  0  0  0  0  0  0  0  0
   24.7020  -20.7730  -10.4436 C   0  0  0  0  0  0  0  0  0  0  0  0
   23.6254  -21.4655   -9.8543 O   0  0  0  0  0  0  0  0  0  0  0  0
   24.6617  -19.5441  -10.5755 O   0  0  0  0  0  0  0  0  0  0  0  0
  2  3  1  1
  2  1  1  0
  4  5  1  0
  4  2  1  0
  5  6  1  6
  7  5  1  0
  8  7  2  0
  9  7  1  0
 10  9  1  0
 11 12  1  0
 10 11  1  6
 12 16  1  0
 13 12  2  0
 13 14  1  0
 14 15  1  0
 16 15  2  0
 17 19  1  0
 17 10  1  0
 18 17  2  0
 20 31  1  0
 20 19  1  0
 20 21  1  1
 21 22  1  0
 22 23  2  0
 22 30  1  0
 23 24  1  0
 24 25  1  0
 25 26  2  0
 27 26  1  0
 28 27  2  0
 29 30  2  0
 29 28  1  0
 30 25  1  0
 31 32  1  0
 33 31  2  0
M  END
$$$$
