LHW.pdb
     RDKit          3D

 33 35  0  0  1  0  0  0  0  0999 V2000
   18.9182  -17.7828  -15.7056 C   0  0  0  0  0  0  0  0  0  0  0  0
   20.2925  -17.2719  -15.3340 C   0  0  1  0  0  0  0  0  0  0  0  0
   20.1704  -16.4357  -14.1001 C   0  0  0  0  0  0  0  0  0  0  0  0
   21.2715  -18.3986  -15.0970 C   0  0  0  0  0  0  0  0  0  0  0  0
   22.5333  -18.2258  -15.9098 C   0  0  2  0  0  0  0  0  0  0  0  0
   22.2822  -17.8708  -17.2661 N   0  0  0  0  0  0  0  0  0  0  0  0
   23.4005  -19.3926  -15.7125 C   0  0  0  0  0  0  0  0  0  0  0  0
   23.5778  -20.2148  -16.6485 O   0  0  0  0  0  0  0  0  0  0  0  0
   24.0969  -19.6904  -14.4845 N   0  0  0  0  0  0  0  0  0  0  0  0
   25.3017  -20.4533  -14.4682 C   0  0  1  0  0  0  0  0  0  0  0  0
   26.3413  -20.0660  -15.4435 C   0  0  0  0  0  0  0  0  0  0  0  0
   27.5300  -20.9164  -15.5442 C   0  0  0  0  0  0  0  0  0  0  0  0
   27.8420  -22.0439  -14.8425 C   0  0  0  0  0  0  0  0  0  0  0  0
   29.0363  -22.5471  -15.2721 N   0  0  0  0  0  0  0  0  0  0  0  0
   29.4451  -21.7179  -16.2383 C   0  0  0  0  0  0  0  0  0  0  0  0
   28.5649  -20.7362  -16.4211 N   0  0  0  0  0  0  0  0  0  0  0  0
   25.8282  -20.5071  -13.0594 C   0  0  0  0  0  0  0  0  0  0  0  0
   26.2956  -19.4736  -12.5367 O   0  0  0  0  0  0  0  0  0  0  0  0
   25.8013  -21.7050  -12.3219 N   0  0  0  0  0  0  0  0  0  0  0  0
   25.8748  -21.6743  -10.8454 C   0  0  1  0  0  0  0  0  0  0  0  0
   27.2089  -21.1257  -10.4350 C   0  0  0  0  0  0  0  0  0  0  0  0
   27.1643  -20.4731   -9.1242 C   0  0  0  0  0  0  0  0  0  0  0  0
   26.0560  -19.8158   -8.5714 C   0  0  0  0  0  0  0  0  0  0  0  0
   26.3870  -19.2999   -7.3824 N   0  0  0  0  0  0  0  0  0  0  0  0
   27.6687  -19.5855   -7.1170 C   0  0  0  0  0  0  0  0  0  0  0  0
   28.4838  -19.3087   -6.0324 C   0  0  0  0  0  0  0  0  0  0  0  0
   29.7691  -19.7456   -6.0052 C   0  0  0  0  0  0  0  0  0  0  0  0
   30.2704  -20.4703   -7.0628 C   0  0  0  0  0  0  0  0  0  0  0  0
   29.4879  -20.7501   -8.1335 C   0  0  0  0  0  0  0  0  0  0  0  0
   28.1727  -20.3056   -8.1686 C   0  0  0  0  0  0  0  0  0  0  0  0
   24.7668  -20.9607  -10.2485 C   0  0  0  0  0  0  0  0  0  0  0  0
   24.5942  -21.0781   -8.8548 O   0  0  0  0  0  0  0  0  0  0  0  0
   23.9925  -20.2702  -10.9215 O   0  0  0  0  0  0  0  0  0  0  0  0
  2  3  1  1
  2  1  1  0
  4  5  1  0
  4  2  1  0
  5  6  1  6
  7  5  1  0
  8  7  2  0
  9  7  1  0
 10  9  1  0
 11 12  1  0
 10 11  1  6
 12 16  1  0
 13 12  2  0
 13 14  1  0
 14 15  1  0
 16 15  2  0
 17 19  1  0
 17 10  1  0
 18 17  2  0
 20 31  1  0
 20 19  1  0
 20 21  1  6
 21 22  1  0
 22 23  2  0
 22 30  1  0
 23 24  1  0
 24 25  1  0
 25 26  2  0
 27 26  1  0
 28 27  2  0
 29 30  2  0
 29 28  1  0
 30 25  1  0
 31 32  1  0
 33 31  2  0
M  END
$$$$
