LHW.pdb
     RDKit          3D

 33 35  0  0  1  0  0  0  0  0999 V2000
   24.3566  -20.5824  -22.9513 C   0  0  0  0  0  0  0  0  0  0  0  0
   25.6959  -20.3611  -22.2841 C   0  0  1  0  0  0  0  0  0  0  0  0
   25.7796  -18.9325  -21.8499 C   0  0  0  0  0  0  0  0  0  0  0  0
   25.8947  -21.2726  -21.0952 C   0  0  0  0  0  0  0  0  0  0  0  0
   27.1420  -20.9189  -20.3194 C   0  0  2  0  0  0  0  0  0  0  0  0
   28.3383  -21.0904  -21.0729 N   0  0  0  0  0  0  0  0  0  0  0  0
   27.1122  -21.5969  -19.0186 C   0  0  0  0  0  0  0  0  0  0  0  0
   26.4620  -22.6649  -18.8764 O   0  0  0  0  0  0  0  0  0  0  0  0
   27.7937  -21.1233  -17.8384 N   0  0  0  0  0  0  0  0  0  0  0  0
   27.8449  -21.8928  -16.6389 C   0  0  1  0  0  0  0  0  0  0  0  0
   29.1894  -22.2276  -16.1265 C   0  0  0  0  0  0  0  0  0  0  0  0
   29.9732  -23.2176  -16.8695 C   0  0  0  0  0  0  0  0  0  0  0  0
   29.6431  -23.8995  -18.0038 C   0  0  0  0  0  0  0  0  0  0  0  0
   30.6774  -24.7061  -18.3829 N   0  0  0  0  0  0  0  0  0  0  0  0
   31.6358  -24.5079  -17.4716 C   0  0  0  0  0  0  0  0  0  0  0  0
   31.2419  -23.6243  -16.5572 N   0  0  0  0  0  0  0  0  0  0  0  0
   26.9818  -21.2337  -15.5970 C   0  0  0  0  0  0  0  0  0  0  0  0
   26.6408  -20.0413  -15.7441 O   0  0  0  0  0  0  0  0  0  0  0  0
   26.5525  -21.9416  -14.4593 N   0  0  0  0  0  0  0  0  0  0  0  0
   26.1315  -21.2144  -13.2427 C   0  0  1  0  0  0  0  0  0  0  0  0
   26.2430  -22.1331  -12.0624 C   0  0  0  0  0  0  0  0  0  0  0  0
   26.1202  -21.4212  -10.7880 C   0  0  0  0  0  0  0  0  0  0  0  0
   24.9202  -21.0207  -10.1834 C   0  0  0  0  0  0  0  0  0  0  0  0
   25.1867  -20.3568   -9.0531 N   0  0  0  0  0  0  0  0  0  0  0  0
   26.5134  -20.2978   -8.8764 C   0  0  0  0  0  0  0  0  0  0  0  0
   27.3007  -19.7527   -7.8763 C   0  0  0  0  0  0  0  0  0  0  0  0
   28.6536  -19.8557   -7.9291 C   0  0  0  0  0  0  0  0  0  0  0  0
   29.2518  -20.5067   -8.9842 C   0  0  0  0  0  0  0  0  0  0  0  0
   28.4976  -21.0455   -9.9729 C   0  0  0  0  0  0  0  0  0  0  0  0
   27.1135  -20.9432   -9.9260 C   0  0  0  0  0  0  0  0  0  0  0  0
   26.8532  -19.9741  -13.0587 C   0  0  0  0  0  0  0  0  0  0  0  0
   28.2300  -19.9733  -13.3592 O   0  0  0  0  0  0  0  0  0  0  0  0
   26.2978  -18.9459  -12.6544 O   0  0  0  0  0  0  0  0  0  0  0  0
  2  3  1  1
  2  1  1  0
  4  5  1  0
  4  2  1  0
  5  6  1  6
  7  5  1  0
  8  7  2  0
  9  7  1  0
 10  9  1  0
 11 12  1  0
 10 11  1  1
 12 16  1  0
 13 12  2  0
 13 14  1  0
 14 15  1  0
 16 15  2  0
 17 19  1  0
 17 10  1  0
 18 17  2  0
 20 31  1  0
 20 19  1  0
 20 21  1  1
 21 22  1  0
 22 23  2  0
 22 30  1  0
 23 24  1  0
 24 25  1  0
 25 26  2  0
 27 26  1  0
 28 27  2  0
 29 30  2  0
 29 28  1  0
 30 25  1  0
 31 32  1  0
 33 31  2  0
M  END
$$$$
