LHW.pdb
     RDKit          3D

 33 35  0  0  1  0  0  0  0  0999 V2000
   27.1544  -14.2886  -15.8100 C   0  0  0  0  0  0  0  0  0  0  0  0
   25.7155  -14.7538  -15.7819 C   0  0  1  0  0  0  0  0  0  0  0  0
   25.4030  -15.2477  -14.4053 C   0  0  0  0  0  0  0  0  0  0  0  0
   24.7551  -13.6508  -16.1629 C   0  0  0  0  0  0  0  0  0  0  0  0
   23.3171  -14.1082  -16.0883 C   0  0  2  0  0  0  0  0  0  0  0  0
   23.0579  -15.2718  -16.8675 N   0  0  0  0  0  0  0  0  0  0  0  0
   22.4316  -12.9667  -16.3439 C   0  0  0  0  0  0  0  0  0  0  0  0
   22.2095  -12.5899  -17.5239 O   0  0  0  0  0  0  0  0  0  0  0  0
   21.7655  -12.2070  -15.3140 N   0  0  0  0  0  0  0  0  0  0  0  0
   20.9321  -11.0913  -15.6213 C   0  0  1  0  0  0  0  0  0  0  0  0
   19.5818  -11.0915  -15.0224 C   0  0  0  0  0  0  0  0  0  0  0  0
   18.6050  -12.0490  -15.5473 C   0  0  0  0  0  0  0  0  0  0  0  0
   18.7442  -12.9492  -16.5627 C   0  0  0  0  0  0  0  0  0  0  0  0
   17.5953  -13.6724  -16.7079 N   0  0  0  0  0  0  0  0  0  0  0  0
   16.7601  -13.2050  -15.7740 C   0  0  0  0  0  0  0  0  0  0  0  0
   17.3373  -12.2358  -15.0672 N   0  0  0  0  0  0  0  0  0  0  0  0
   21.6873   -9.8219  -15.3331 C   0  0  0  0  0  0  0  0  0  0  0  0
   22.3571   -9.7284  -14.2831 O   0  0  0  0  0  0  0  0  0  0  0  0
   21.6504   -8.7383  -16.2299 N   0  0  0  0  0  0  0  0  0  0  0  0
   22.4450   -7.5205  -15.9621 C   0  0  1  0  0  0  0  0  0  0  0  0
   22.7213   -6.8231  -17.2608 C   0  0  0  0  0  0  0  0  0  0  0  0
   23.4810   -5.5840  -17.0779 C   0  0  0  0  0  0  0  0  0  0  0  0
   24.8780   -5.4664  -17.0999 C   0  0  0  0  0  0  0  0  0  0  0  0
   25.2258   -4.1986  -16.8529 N   0  0  0  0  0  0  0  0  0  0  0  0
   24.1208   -3.4641  -16.6680 C   0  0  0  0  0  0  0  0  0  0  0  0
   23.9244   -2.1183  -16.4080 C   0  0  0  0  0  0  0  0  0  0  0  0
   22.6694   -1.6143  -16.2867 C   0  0  0  0  0  0  0  0  0  0  0  0
   21.5800   -2.4448  -16.4225 C   0  0  0  0  0  0  0  0  0  0  0  0
   21.7526   -3.7650  -16.6760 C   0  0  0  0  0  0  0  0  0  0  0  0
   23.0332   -4.2876  -16.8004 C   0  0  0  0  0  0  0  0  0  0  0  0
   21.8243   -6.6562  -14.9818 C   0  0  0  0  0  0  0  0  0  0  0  0
   20.4187   -6.5578  -15.0003 O   0  0  0  0  0  0  0  0  0  0  0  0
   22.4877   -6.0218  -14.1531 O   0  0  0  0  0  0  0  0  0  0  0  0
  2  3  1  1
  2  1  1  0
  4  5  1  0
  4  2  1  0
  5  6  1  6
  7  5  1  0
  8  7  2  0
  9  7  1  0
 10  9  1  0
 11 12  1  0
 10 11  1  1
 12 16  1  0
 13 12  2  0
 13 14  1  0
 14 15  1  0
 16 15  2  0
 17 19  1  0
 17 10  1  0
 18 17  2  0
 20 31  1  0
 20 19  1  0
 20 21  1  6
 21 22  1  0
 22 23  2  0
 22 30  1  0
 23 24  1  0
 24 25  1  0
 25 26  2  0
 27 26  1  0
 28 27  2  0
 29 30  2  0
 29 28  1  0
 30 25  1  0
 31 32  1  0
 33 31  2  0
M  END
$$$$
