LHW.pdb
     RDKit          3D

 33 35  0  0  1  0  0  0  0  0999 V2000
   26.8097  -15.5991  -17.3362 C   0  0  0  0  0  0  0  0  0  0  0  0
   25.7716  -16.6913  -17.4674 C   0  0  1  0  0  0  0  0  0  0  0  0
   26.4745  -17.9856  -17.7271 C   0  0  0  0  0  0  0  0  0  0  0  0
   24.9146  -16.8110  -16.2283 C   0  0  0  0  0  0  0  0  0  0  0  0
   24.1516  -18.1147  -16.1977 C   0  0  2  0  0  0  0  0  0  0  0  0
   23.0256  -18.1259  -17.0698 N   0  0  0  0  0  0  0  0  0  0  0  0
   23.8750  -18.4817  -14.8043 C   0  0  0  0  0  0  0  0  0  0  0  0
   23.5327  -17.6004  -13.9739 O   0  0  0  0  0  0  0  0  0  0  0  0
   23.9659  -19.8239  -14.2831 N   0  0  0  0  0  0  0  0  0  0  0  0
   23.6339  -20.1303  -12.9304 C   0  0  1  0  0  0  0  0  0  0  0  0
   22.5037  -21.0585  -12.7223 C   0  0  0  0  0  0  0  0  0  0  0  0
   21.1693  -20.6060  -13.1236 C   0  0  0  0  0  0  0  0  0  0  0  0
   20.7853  -19.3938  -13.6174 C   0  0  0  0  0  0  0  0  0  0  0  0
   19.4478  -19.4026  -13.8918 N   0  0  0  0  0  0  0  0  0  0  0  0
   19.0247  -20.6274  -13.5618 C   0  0  0  0  0  0  0  0  0  0  0  0
   20.0316  -21.3661  -13.1008 N   0  0  0  0  0  0  0  0  0  0  0  0
   24.8786  -20.5710  -12.2084 C   0  0  0  0  0  0  0  0  0  0  0  0
   25.6427  -21.3990  -12.7473 O   0  0  0  0  0  0  0  0  0  0  0  0
   25.1946  -20.0634  -10.9348 N   0  0  0  0  0  0  0  0  0  0  0  0
   26.3489  -20.6004  -10.1827 C   0  0  1  0  0  0  0  0  0  0  0  0
   26.9130  -19.5151   -9.3148 C   0  0  0  0  0  0  0  0  0  0  0  0
   28.0392  -19.9800   -8.5016 C   0  0  0  0  0  0  0  0  0  0  0  0
   29.1380  -20.7173   -8.9654 C   0  0  0  0  0  0  0  0  0  0  0  0
   29.9484  -21.0075   -7.9415 N   0  0  0  0  0  0  0  0  0  0  0  0
   29.4385  -20.4946   -6.8138 C   0  0  0  0  0  0  0  0  0  0  0  0
   29.8836  -20.4909   -5.5026 C   0  0  0  0  0  0  0  0  0  0  0  0
   29.1706  -19.8622   -4.5331 C   0  0  0  0  0  0  0  0  0  0  0  0
   27.9945  -19.2216   -4.8518 C   0  0  0  0  0  0  0  0  0  0  0  0
   27.5425  -19.2156   -6.1296 C   0  0  0  0  0  0  0  0  0  0  0  0
   28.2659  -19.8573   -7.1261 C   0  0  0  0  0  0  0  0  0  0  0  0
   26.0203  -21.7983   -9.4409 C   0  0  0  0  0  0  0  0  0  0  0  0
   26.9399  -22.8650   -9.4896 O   0  0  0  0  0  0  0  0  0  0  0  0
   24.9769  -21.8978   -8.7845 O   0  0  0  0  0  0  0  0  0  0  0  0
  2  3  1  1
  2  1  1  0
  4  5  1  0
  4  2  1  0
  5  6  1  6
  7  5  1  0
  8  7  2  0
  9  7  1  0
 10  9  1  0
 11 12  1  0
 10 11  1  6
 12 16  1  0
 13 12  2  0
 13 14  1  0
 14 15  1  0
 16 15  2  0
 17 19  1  0
 17 10  1  0
 18 17  2  0
 20 31  1  0
 20 19  1  0
 20 21  1  1
 21 22  1  0
 22 23  2  0
 22 30  1  0
 23 24  1  0
 24 25  1  0
 25 26  2  0
 27 26  1  0
 28 27  2  0
 29 30  2  0
 29 28  1  0
 30 25  1  0
 31 32  1  0
 33 31  2  0
M  END
$$$$
