LHW.pdb
     RDKit          3D

 33 35  0  0  1  0  0  0  0  0999 V2000
   22.1418  -17.7372  -18.8066 C   0  0  0  0  0  0  0  0  0  0  0  0
   23.1968  -18.5225  -18.0596 C   0  0  1  0  0  0  0  0  0  0  0  0
   24.5430  -18.0984  -18.5538 C   0  0  0  0  0  0  0  0  0  0  0  0
   23.1079  -18.3132  -16.5655 C   0  0  0  0  0  0  0  0  0  0  0  0
   24.1689  -19.0936  -15.8254 C   0  0  2  0  0  0  0  0  0  0  0  0
   24.4695  -20.3462  -16.4330 N   0  0  0  0  0  0  0  0  0  0  0  0
   23.8241  -19.1493  -14.4005 C   0  0  0  0  0  0  0  0  0  0  0  0
   23.3729  -18.1291  -13.8182 O   0  0  0  0  0  0  0  0  0  0  0  0
   23.9643  -20.3241  -13.5748 N   0  0  0  0  0  0  0  0  0  0  0  0
   23.5564  -20.3369  -12.2083 C   0  0  1  0  0  0  0  0  0  0  0  0
   22.2980  -21.0471  -11.9018 C   0  0  0  0  0  0  0  0  0  0  0  0
   21.0479  -20.4547  -12.3843 C   0  0  0  0  0  0  0  0  0  0  0  0
   20.4935  -20.5132  -13.6293 C   0  0  0  0  0  0  0  0  0  0  0  0
   19.3017  -19.8472  -13.6428 N   0  0  0  0  0  0  0  0  0  0  0  0
   19.1376  -19.3860  -12.3984 C   0  0  0  0  0  0  0  0  0  0  0  0
   20.1649  -19.7343  -11.6269 N   0  0  0  0  0  0  0  0  0  0  0  0
   24.7046  -20.8118  -11.3591 C   0  0  0  0  0  0  0  0  0  0  0  0
   25.3759  -21.7986  -11.7269 O   0  0  0  0  0  0  0  0  0  0  0  0
   25.0333  -20.1598  -10.1564 N   0  0  0  0  0  0  0  0  0  0  0  0
   26.1134  -20.6849   -9.2938 C   0  0  1  0  0  0  0  0  0  0  0  0
   27.0525  -19.5663   -8.9529 C   0  0  0  0  0  0  0  0  0  0  0  0
   28.1816  -20.0158   -8.1350 C   0  0  0  0  0  0  0  0  0  0  0  0
   29.1925  -20.8972   -8.5439 C   0  0  0  0  0  0  0  0  0  0  0  0
   30.0324  -21.1199   -7.5268 N   0  0  0  0  0  0  0  0  0  0  0  0
   29.6262  -20.4241   -6.4565 C   0  0  0  0  0  0  0  0  0  0  0  0
   30.1410  -20.2885   -5.1782 C   0  0  0  0  0  0  0  0  0  0  0  0
   29.5333  -19.4815   -4.2710 C   0  0  0  0  0  0  0  0  0  0  0  0
   28.3952  -18.7905   -4.6206 C   0  0  0  0  0  0  0  0  0  0  0  0
   27.8761  -18.9115   -5.8667 C   0  0  0  0  0  0  0  0  0  0  0  0
   28.4918  -19.7357   -6.7994 C   0  0  0  0  0  0  0  0  0  0  0  0
   25.6074  -21.3691   -8.1239 C   0  0  0  0  0  0  0  0  0  0  0  0
   26.4070  -22.3898   -7.5720 O   0  0  0  0  0  0  0  0  0  0  0  0
   24.5174  -21.0809   -7.6157 O   0  0  0  0  0  0  0  0  0  0  0  0
  2  3  1  6
  2  1  1  0
  4  5  1  0
  4  2  1  0
  5  6  1  6
  7  5  1  0
  8  7  2  0
  9  7  1  0
 10  9  1  0
 11 12  1  0
 10 11  1  6
 12 16  1  0
 13 12  2  0
 13 14  1  0
 14 15  1  0
 16 15  2  0
 17 19  1  0
 17 10  1  0
 18 17  2  0
 20 31  1  0
 20 19  1  0
 20 21  1  1
 21 22  1  0
 22 23  2  0
 22 30  1  0
 23 24  1  0
 24 25  1  0
 25 26  2  0
 27 26  1  0
 28 27  2  0
 29 30  2  0
 29 28  1  0
 30 25  1  0
 31 32  1  0
 33 31  2  0
M  END
$$$$
