LHW.pdb
     RDKit          3D

 33 35  0  0  1  0  0  0  0  0999 V2000
   25.7816  -14.3153  -14.1864 C   0  0  0  0  0  0  0  0  0  0  0  0
   26.3441  -15.3579  -15.1268 C   0  0  1  0  0  0  0  0  0  0  0  0
   27.7188  -14.9350  -15.5368 C   0  0  0  0  0  0  0  0  0  0  0  0
   26.3958  -16.7274  -14.4898 C   0  0  0  0  0  0  0  0  0  0  0  0
   27.0052  -17.7542  -15.4156 C   0  0  2  0  0  0  0  0  0  0  0  0
   26.5812  -17.6114  -16.7678 N   0  0  0  0  0  0  0  0  0  0  0  0
   26.8322  -19.0914  -14.8373 C   0  0  0  0  0  0  0  0  0  0  0  0
   25.7587  -19.7236  -15.0150 O   0  0  0  0  0  0  0  0  0  0  0  0
   27.8303  -19.7722  -14.0487 N   0  0  0  0  0  0  0  0  0  0  0  0
   27.6510  -21.1152  -13.6039 C   0  0  1  0  0  0  0  0  0  0  0  0
   28.6748  -22.0926  -14.0265 C   0  0  0  0  0  0  0  0  0  0  0  0
   28.8578  -22.3071  -15.4642 C   0  0  0  0  0  0  0  0  0  0  0  0
   28.2371  -21.6907  -16.5109 C   0  0  0  0  0  0  0  0  0  0  0  0
   28.7262  -22.1689  -17.6925 N   0  0  0  0  0  0  0  0  0  0  0  0
   29.6471  -23.0778  -17.3548 C   0  0  0  0  0  0  0  0  0  0  0  0
   29.7459  -23.1801  -16.0313 N   0  0  0  0  0  0  0  0  0  0  0  0
   27.4401  -21.1134  -12.1137 C   0  0  0  0  0  0  0  0  0  0  0  0
   28.4268  -21.1885  -11.3519 O   0  0  0  0  0  0  0  0  0  0  0  0
   26.1469  -21.0279  -11.5659 N   0  0  0  0  0  0  0  0  0  0  0  0
   25.9458  -21.1443  -10.1057 C   0  0  1  0  0  0  0  0  0  0  0  0
   26.8304  -20.1521   -9.4111 C   0  0  0  0  0  0  0  0  0  0  0  0
   26.6771  -20.1919   -7.9547 C   0  0  0  0  0  0  0  0  0  0  0  0
   25.5409  -20.6309   -7.2602 C   0  0  0  0  0  0  0  0  0  0  0  0
   25.7349  -20.4855   -5.9447 N   0  0  0  0  0  0  0  0  0  0  0  0
   26.9524  -19.9691   -5.7309 C   0  0  0  0  0  0  0  0  0  0  0  0
   27.6422  -19.6471   -4.5742 C   0  0  0  0  0  0  0  0  0  0  0  0
   28.9036  -19.1489   -4.6385 C   0  0  0  0  0  0  0  0  0  0  0  0
   29.5059  -18.9607   -5.8620 C   0  0  0  0  0  0  0  0  0  0  0  0
   28.8459  -19.2691   -7.0049 C   0  0  0  0  0  0  0  0  0  0  0  0
   27.5552  -19.7781   -6.9468 C   0  0  0  0  0  0  0  0  0  0  0  0
   24.5557  -21.0202   -9.7243 C   0  0  0  0  0  0  0  0  0  0  0  0
   23.6825  -20.4058  -10.6440 O   0  0  0  0  0  0  0  0  0  0  0  0
   24.1346  -21.4326   -8.6372 O   0  0  0  0  0  0  0  0  0  0  0  0
  2  3  1  1
  2  1  1  0
  4  5  1  0
  4  2  1  0
  5  6  1  6
  7  5  1  0
  8  7  2  0
  9  7  1  0
 10  9  1  0
 11 12  1  0
 10 11  1  1
 12 16  1  0
 13 12  2  0
 13 14  1  0
 14 15  1  0
 16 15  2  0
 17 19  1  0
 17 10  1  0
 18 17  2  0
 20 31  1  0
 20 19  1  0
 20 21  1  1
 21 22  1  0
 22 23  2  0
 22 30  1  0
 23 24  1  0
 24 25  1  0
 25 26  2  0
 27 26  1  0
 28 27  2  0
 29 30  2  0
 29 28  1  0
 30 25  1  0
 31 32  1  0
 33 31  2  0
M  END
$$$$
