LHW.pdb
     RDKit          3D

 33 35  0  0  1  0  0  0  0  0999 V2000
   26.7421  -14.9286  -15.7693 C   0  0  0  0  0  0  0  0  0  0  0  0
   26.9368  -16.4205  -15.9250 C   0  0  1  0  0  0  0  0  0  0  0  0
   28.4042  -16.7052  -15.9736 C   0  0  0  0  0  0  0  0  0  0  0  0
   26.2993  -17.1966  -14.7957 C   0  0  0  0  0  0  0  0  0  0  0  0
   26.6169  -18.6713  -14.8791 C   0  0  2  0  0  0  0  0  0  0  0  0
   26.3787  -19.2239  -16.1700 N   0  0  0  0  0  0  0  0  0  0  0  0
   25.9693  -19.3703  -13.7635 C   0  0  0  0  0  0  0  0  0  0  0  0
   24.8720  -18.9553  -13.3083 O   0  0  0  0  0  0  0  0  0  0  0  0
   26.5062  -20.5427  -13.1164 N   0  0  0  0  0  0  0  0  0  0  0  0
   25.8975  -21.1082  -11.9573 C   0  0  1  0  0  0  0  0  0  0  0  0
   25.1083  -22.3401  -12.1607 C   0  0  0  0  0  0  0  0  0  0  0  0
   25.0767  -22.9128  -13.5089 C   0  0  0  0  0  0  0  0  0  0  0  0
   25.5855  -22.4075  -14.6693 C   0  0  0  0  0  0  0  0  0  0  0  0
   25.3640  -23.2794  -15.6963 N   0  0  0  0  0  0  0  0  0  0  0  0
   24.7187  -24.3157  -15.1506 C   0  0  0  0  0  0  0  0  0  0  0  0
   24.5345  -24.1230  -13.8464 N   0  0  0  0  0  0  0  0  0  0  0  0
   26.9406  -21.2658  -10.8840 C   0  0  0  0  0  0  0  0  0  0  0  0
   28.0773  -20.7769  -11.0532 O   0  0  0  0  0  0  0  0  0  0  0  0
   26.6538  -21.9559   -9.6918 N   0  0  0  0  0  0  0  0  0  0  0  0
   26.6340  -21.2372   -8.3997 C   0  0  1  0  0  0  0  0  0  0  0  0
   27.3535  -19.9307   -8.5574 C   0  0  0  0  0  0  0  0  0  0  0  0
   27.5920  -19.2669   -7.2735 C   0  0  0  0  0  0  0  0  0  0  0  0
   27.0355  -18.0468   -6.8639 C   0  0  0  0  0  0  0  0  0  0  0  0
   27.5076  -17.7213   -5.6554 N   0  0  0  0  0  0  0  0  0  0  0  0
   28.3546  -18.6723   -5.2398 C   0  0  0  0  0  0  0  0  0  0  0  0
   29.0867  -18.8294   -4.0750 C   0  0  0  0  0  0  0  0  0  0  0  0
   29.8677  -19.9250   -3.8926 C   0  0  0  0  0  0  0  0  0  0  0  0
   29.9354  -20.8905   -4.8714 C   0  0  0  0  0  0  0  0  0  0  0  0
   29.2269  -20.7535   -6.0187 C   0  0  0  0  0  0  0  0  0  0  0  0
   28.4268  -19.6352   -6.2125 C   0  0  0  0  0  0  0  0  0  0  0  0
   25.2964  -21.0810   -7.8710 C   0  0  0  0  0  0  0  0  0  0  0  0
   25.0993  -21.3728   -6.5065 O   0  0  0  0  0  0  0  0  0  0  0  0
   24.3520  -20.7067   -8.5762 O   0  0  0  0  0  0  0  0  0  0  0  0
  2  3  1  1
  2  1  1  0
  4  5  1  0
  4  2  1  0
  5  6  1  6
  7  5  1  0
  8  7  2  0
  9  7  1  0
 10  9  1  0
 11 12  1  0
 10 11  1  6
 12 16  1  0
 13 12  2  0
 13 14  1  0
 14 15  1  0
 16 15  2  0
 17 19  1  0
 17 10  1  0
 18 17  2  0
 20 31  1  0
 20 19  1  0
 20 21  1  6
 21 22  1  0
 22 23  2  0
 22 30  1  0
 23 24  1  0
 24 25  1  0
 25 26  2  0
 27 26  1  0
 28 27  2  0
 29 30  2  0
 29 28  1  0
 30 25  1  0
 31 32  1  0
 33 31  2  0
M  END
$$$$
