LHW.pdb
     RDKit          3D

 33 35  0  0  1  0  0  0  0  0999 V2000
   19.5289  -12.6433    4.0049 C   0  0  0  0  0  0  0  0  0  0  0  0
   18.3831  -13.5186    3.5482 C   0  0  1  0  0  0  0  0  0  0  0  0
   18.7086  -14.0571    2.1915 C   0  0  0  0  0  0  0  0  0  0  0  0
   18.1238  -14.6589    4.5055 C   0  0  0  0  0  0  0  0  0  0  0  0
   17.0094  -15.5564    4.0205 C   0  0  2  0  0  0  0  0  0  0  0  0
   15.7507  -14.8946    3.9419 N   0  0  0  0  0  0  0  0  0  0  0  0
   17.0201  -16.8033    4.7936 C   0  0  0  0  0  0  0  0  0  0  0  0
   16.4001  -16.8758    5.8862 O   0  0  0  0  0  0  0  0  0  0  0  0
   17.7104  -18.0045    4.3907 N   0  0  0  0  0  0  0  0  0  0  0  0
   17.7042  -19.1821    5.1951 C   0  0  1  0  0  0  0  0  0  0  0  0
   17.5776  -20.4687    4.4805 C   0  0  0  0  0  0  0  0  0  0  0  0
   16.5956  -20.5508    3.3964 C   0  0  0  0  0  0  0  0  0  0  0  0
   16.8049  -20.6077    2.0497 C   0  0  0  0  0  0  0  0  0  0  0  0
   15.6114  -20.7078    1.3942 N   0  0  0  0  0  0  0  0  0  0  0  0
   14.6784  -20.7120    2.3522 C   0  0  0  0  0  0  0  0  0  0  0  0
   15.2383  -20.6195    3.5564 N   0  0  0  0  0  0  0  0  0  0  0  0
   18.8939  -19.1522    6.1163 C   0  0  0  0  0  0  0  0  0  0  0  0
   20.0335  -18.9562    5.6445 O   0  0  0  0  0  0  0  0  0  0  0  0
   18.7410  -19.3413    7.5022 N   0  0  0  0  0  0  0  0  0  0  0  0
   19.9100  -19.2428    8.4022 C   0  0  1  0  0  0  0  0  0  0  0  0
   19.6303  -18.2104    9.4535 C   0  0  0  0  0  0  0  0  0  0  0  0
   20.7794  -17.9853   10.3338 C   0  0  0  0  0  0  0  0  0  0  0  0
   20.8504  -18.3205   11.6935 C   0  0  0  0  0  0  0  0  0  0  0  0
   22.0289  -17.9298   12.1913 N   0  0  0  0  0  0  0  0  0  0  0  0
   22.7485  -17.3490   11.2219 C   0  0  0  0  0  0  0  0  0  0  0  0
   24.0196  -16.8002   11.2012 C   0  0  0  0  0  0  0  0  0  0  0  0
   24.5318  -16.2874   10.0531 C   0  0  0  0  0  0  0  0  0  0  0  0
   23.7845  -16.3111    8.8973 C   0  0  0  0  0  0  0  0  0  0  0  0
   22.5380  -16.8432    8.8985 C   0  0  0  0  0  0  0  0  0  0  0  0
   22.0073  -17.3686   10.0692 C   0  0  0  0  0  0  0  0  0  0  0  0
   20.2918  -20.5222    8.9595 C   0  0  0  0  0  0  0  0  0  0  0  0
   21.6680  -20.7691    9.1353 O   0  0  0  0  0  0  0  0  0  0  0  0
   19.4550  -21.3764    9.2746 O   0  0  0  0  0  0  0  0  0  0  0  0
  2  3  1  6
  2  1  1  0
  4  5  1  0
  4  2  1  0
  5  6  1  1
  7  5  1  0
  8  7  2  0
  9  7  1  0
 10  9  1  0
 11 12  1  0
 10 11  1  6
 12 16  1  0
 13 12  2  0
 13 14  1  0
 14 15  1  0
 16 15  2  0
 17 19  1  0
 17 10  1  0
 18 17  2  0
 20 31  1  0
 20 19  1  0
 20 21  1  1
 21 22  1  0
 22 23  2  0
 22 30  1  0
 23 24  1  0
 24 25  1  0
 25 26  2  0
 27 26  1  0
 28 27  2  0
 29 30  2  0
 29 28  1  0
 30 25  1  0
 31 32  1  0
 33 31  2  0
M  END
$$$$
