QNN.pdb
     RDKit          3D

 26 25  0  0  1  0  0  0  0  0999 V2000
   17.7791  -29.1936   -0.7986 N   0  0  0  0  0  0  0  0  0  0  0  0
   18.9193  -28.3693   -0.7409 C   0  0  0  0  0  0  0  0  0  0  0  0
   19.5939  -28.3249    0.3051 O   0  0  0  0  0  0  0  0  0  0  0  0
   19.3238  -27.5592   -1.9033 C   0  0  0  0  0  0  0  0  0  0  0  0
   18.4519  -27.7259   -3.1108 C   0  0  0  0  0  0  0  0  0  0  0  0
   17.8500  -26.4554   -3.6067 C   0  0  2  0  0  0  0  0  0  0  0  0
   16.7411  -26.0174   -2.7689 N   0  0  0  0  0  0  0  0  0  0  0  0
   17.2741  -26.7171   -4.9714 C   0  0  0  0  0  0  0  0  0  0  0  0
   16.9247  -27.9077   -5.2017 O   0  0  0  0  0  0  0  0  0  0  0  0
   13.2867  -26.3653   -5.4394 N   0  0  0  0  0  0  0  0  0  0  0  0
   14.2189  -26.7116   -6.4614 C   0  0  0  0  0  0  0  0  0  0  0  0
   14.3499  -27.9297   -6.7353 O   0  0  0  0  0  0  0  0  0  0  0  0
   15.0028  -25.6580   -7.1711 C   0  0  0  0  0  0  0  0  0  0  0  0
   16.4860  -25.9490   -7.1928 C   0  0  2  0  0  0  0  0  0  0  0  0
   17.1319  -25.6997   -5.9356 N   0  0  0  0  0  0  0  0  0  0  0  0
   17.1463  -25.2072   -8.3057 C   0  0  0  0  0  0  0  0  0  0  0  0
   17.5047  -24.0110   -8.1868 O   0  0  0  0  0  0  0  0  0  0  0  0
   19.8155  -28.3042  -11.4866 N   0  0  0  0  0  0  0  0  0  0  0  0
   19.7360  -26.9179  -11.1937 C   0  0  0  0  0  0  0  0  0  0  0  0
   20.6280  -26.4100  -10.4743 O   0  0  0  0  0  0  0  0  0  0  0  0
   18.6409  -26.0735  -11.7065 C   0  0  0  0  0  0  0  0  0  0  0  0
   18.0358  -25.1800  -10.6627 C   0  0  2  0  0  0  0  0  0  0  0  0
   17.3986  -25.8434   -9.5718 N   0  0  0  0  0  0  0  0  0  0  0  0
   17.1373  -24.1483  -11.2911 C   0  0  0  0  0  0  0  0  0  0  0  0
   17.6084  -22.9047  -11.6793 O   0  0  0  0  0  0  0  0  0  0  0  0
   15.9215  -24.3711  -11.4898 O   0  0  0  0  0  0  0  0  0  0  0  0
  2  3  2  0
  2  1  1  0
  4  2  1  0
  5  4  1  0
  6  5  1  0
  6  7  1  1
  8  9  2  0
  8  6  1  0
 11 10  1  0
 11 13  1  0
 12 11  2  0
 14 13  1  1
 14 15  1  0
 15  8  1  0
 16 23  1  0
 16 14  1  0
 17 16  2  0
 18 19  1  0
 19 21  1  0
 20 19  2  0
 22 21  1  6
 22 23  1  0
 22 24  1  0
 24 25  1  0
 26 24  2  0
M  END
$$$$
