QNN.pdb
     RDKit          3D

 26 25  0  0  1  0  0  0  0  0999 V2000
   25.8196  -16.3164  -24.1066 N   0  0  0  0  0  0  0  0  0  0  0  0
   26.2900  -17.2938  -23.2087 C   0  0  0  0  0  0  0  0  0  0  0  0
   27.2501  -18.0173  -23.5345 O   0  0  0  0  0  0  0  0  0  0  0  0
   25.6604  -17.4704  -21.8884 C   0  0  0  0  0  0  0  0  0  0  0  0
   24.4824  -16.5787  -21.6373 C   0  0  0  0  0  0  0  0  0  0  0  0
   24.7801  -15.4091  -20.7622 C   0  0  2  0  0  0  0  0  0  0  0  0
   25.2169  -15.8222  -19.4347 N   0  0  0  0  0  0  0  0  0  0  0  0
   23.5031  -14.6381  -20.5685 C   0  0  0  0  0  0  0  0  0  0  0  0
   22.9736  -14.1788  -21.6180 O   0  0  0  0  0  0  0  0  0  0  0  0
   19.9103  -15.7470  -19.7537 N   0  0  0  0  0  0  0  0  0  0  0  0
   19.9612  -15.3021  -18.3998 C   0  0  0  0  0  0  0  0  0  0  0  0
   19.2273  -15.8924  -17.5698 O   0  0  0  0  0  0  0  0  0  0  0  0
   20.8560  -14.1772  -17.9971 C   0  0  0  0  0  0  0  0  0  0  0  0
   21.7208  -13.6833  -19.1342 C   0  0  2  0  0  0  0  0  0  0  0  0
   22.9306  -14.4382  -19.2969 N   0  0  0  0  0  0  0  0  0  0  0  0
   21.9996  -12.2259  -18.9818 C   0  0  0  0  0  0  0  0  0  0  0  0
   23.0368  -11.8029  -18.4173 O   0  0  0  0  0  0  0  0  0  0  0  0
   22.0156   -7.0934  -19.6782 N   0  0  0  0  0  0  0  0  0  0  0  0
   22.9494   -8.0316  -20.1902 C   0  0  0  0  0  0  0  0  0  0  0  0
   24.0165   -7.5988  -20.6853 O   0  0  0  0  0  0  0  0  0  0  0  0
   22.6947   -9.4839  -20.1565 C   0  0  0  0  0  0  0  0  0  0  0  0
   21.3797   -9.8461  -19.5292 C   0  0  2  0  0  0  0  0  0  0  0  0
   21.0780  -11.2400  -19.4818 N   0  0  0  0  0  0  0  0  0  0  0  0
   20.2551   -9.0512  -20.1373 C   0  0  0  0  0  0  0  0  0  0  0  0
   19.8346   -7.8459  -19.5991 O   0  0  0  0  0  0  0  0  0  0  0  0
   19.6493   -9.4475  -21.1587 O   0  0  0  0  0  0  0  0  0  0  0  0
  2  3  2  0
  2  1  1  0
  4  2  1  0
  5  4  1  0
  6  5  1  0
  6  7  1  1
  8  9  2  0
  8  6  1  0
 11 10  1  0
 11 13  1  0
 12 11  2  0
 14 13  1  1
 14 15  1  0
 15  8  1  0
 16 23  1  0
 16 14  1  0
 17 16  2  0
 18 19  1  0
 19 21  1  0
 20 19  2  0
 22 21  1  6
 22 23  1  0
 22 24  1  0
 24 25  1  0
 26 24  2  0
M  END
$$$$
