QNN.pdb
     RDKit          3D

 26 25  0  0  1  0  0  0  0  0999 V2000
   27.9530  -25.6730  -16.0483 N   0  0  0  0  0  0  0  0  0  0  0  0
   27.6690  -25.5700  -17.4236 C   0  0  0  0  0  0  0  0  0  0  0  0
   27.6137  -26.6017  -18.1192 O   0  0  0  0  0  0  0  0  0  0  0  0
   27.4360  -24.2565  -18.0493 C   0  0  0  0  0  0  0  0  0  0  0  0
   27.5845  -23.0902  -17.1199 C   0  0  0  0  0  0  0  0  0  0  0  0
   26.3370  -22.7349  -16.3853 C   0  0  2  0  0  0  0  0  0  0  0  0
   25.1466  -23.2211  -17.0710 N   0  0  0  0  0  0  0  0  0  0  0  0
   26.2276  -21.2349  -16.3560 C   0  0  0  0  0  0  0  0  0  0  0  0
   27.1660  -20.6265  -15.7713 O   0  0  0  0  0  0  0  0  0  0  0  0
   27.5806  -19.5573  -18.8632 N   0  0  0  0  0  0  0  0  0  0  0  0
   26.9287  -18.4136  -18.3149 C   0  0  0  0  0  0  0  0  0  0  0  0
   27.6461  -17.4277  -18.0160 O   0  0  0  0  0  0  0  0  0  0  0  0
   25.4503  -18.4008  -18.1089 C   0  0  0  0  0  0  0  0  0  0  0  0
   25.0304  -19.1205  -16.8477 C   0  0  2  0  0  0  0  0  0  0  0  0
   25.1467  -20.5479  -16.9430 N   0  0  0  0  0  0  0  0  0  0  0  0
   23.6547  -18.7076  -16.4456 C   0  0  0  0  0  0  0  0  0  0  0  0
   23.0076  -17.8419  -17.0822 O   0  0  0  0  0  0  0  0  0  0  0  0
   18.4649  -20.7789  -16.3529 N   0  0  0  0  0  0  0  0  0  0  0  0
   19.3383  -19.6903  -16.0958 C   0  0  0  0  0  0  0  0  0  0  0  0
   18.8423  -18.6125  -15.6916 O   0  0  0  0  0  0  0  0  0  0  0  0
   20.7961  -19.7958  -16.2940 C   0  0  0  0  0  0  0  0  0  0  0  0
   21.5959  -19.3053  -15.1221 C   0  0  2  0  0  0  0  0  0  0  0  0
   23.0119  -19.2932  -15.2988 N   0  0  0  0  0  0  0  0  0  0  0  0
   21.1964  -20.0206  -13.8591 C   0  0  0  0  0  0  0  0  0  0  0  0
   20.0772  -19.6522  -13.1306 O   0  0  0  0  0  0  0  0  0  0  0  0
   21.8615  -20.9823  -13.4116 O   0  0  0  0  0  0  0  0  0  0  0  0
  2  3  2  0
  2  1  1  0
  4  2  1  0
  5  4  1  0
  6  5  1  0
  6  7  1  6
  8  9  2  0
  8  6  1  0
 11 10  1  0
 11 13  1  0
 12 11  2  0
 14 13  1  6
 14 15  1  0
 15  8  1  0
 16 23  1  0
 16 14  1  0
 17 16  2  0
 18 19  1  0
 19 21  1  0
 20 19  2  0
 22 21  1  6
 22 23  1  0
 22 24  1  0
 24 25  1  0
 26 24  2  0
M  END
$$$$
