QNN.pdb
     RDKit          3D

 26 25  0  0  1  0  0  0  0  0999 V2000
   16.9193  -21.7987  -11.5350 N   0  0  0  0  0  0  0  0  0  0  0  0
   16.9400  -23.0482  -12.1838 C   0  0  0  0  0  0  0  0  0  0  0  0
   15.9578  -23.8080  -12.0869 O   0  0  0  0  0  0  0  0  0  0  0  0
   18.1094  -23.4674  -12.9762 C   0  0  0  0  0  0  0  0  0  0  0  0
   19.2338  -22.4769  -12.9964 C   0  0  0  0  0  0  0  0  0  0  0  0
   19.3825  -21.7514  -14.2902 C   0  0  2  0  0  0  0  0  0  0  0  0
   19.7763  -22.6457  -15.3713 N   0  0  0  0  0  0  0  0  0  0  0  0
   20.4976  -20.7536  -14.1366 C   0  0  0  0  0  0  0  0  0  0  0  0
   20.3637  -19.9193  -13.1993 O   0  0  0  0  0  0  0  0  0  0  0  0
   24.0291  -21.2965  -12.8159 N   0  0  0  0  0  0  0  0  0  0  0  0
   24.6309  -21.2204  -14.1065 C   0  0  0  0  0  0  0  0  0  0  0  0
   25.6639  -21.9060  -14.3036 O   0  0  0  0  0  0  0  0  0  0  0  0
   24.0463  -20.3556  -15.1736 C   0  0  0  0  0  0  0  0  0  0  0  0
   22.6895  -19.8041  -14.8000 C   0  0  2  0  0  0  0  0  0  0  0  0
   21.6230  -20.7468  -14.9842 N   0  0  0  0  0  0  0  0  0  0  0  0
   22.4267  -18.5291  -15.5282 C   0  0  0  0  0  0  0  0  0  0  0  0
   23.1735  -17.5285  -15.4076 O   0  0  0  0  0  0  0  0  0  0  0  0
   23.4345  -17.8779  -19.6722 N   0  0  0  0  0  0  0  0  0  0  0  0
   22.6174  -16.9385  -18.9911 C   0  0  0  0  0  0  0  0  0  0  0  0
   23.1041  -15.8168  -18.7152 O   0  0  0  0  0  0  0  0  0  0  0  0
   21.2288  -17.2489  -18.6028 C   0  0  0  0  0  0  0  0  0  0  0  0
   20.9972  -17.1991  -17.1203 C   0  0  2  0  0  0  0  0  0  0  0  0
   21.2933  -18.3981  -16.4054 N   0  0  0  0  0  0  0  0  0  0  0  0
   19.6160  -16.6884  -16.8072 C   0  0  0  0  0  0  0  0  0  0  0  0
   19.3709  -15.3501  -16.5461 O   0  0  0  0  0  0  0  0  0  0  0  0
   18.6266  -17.4545  -16.7688 O   0  0  0  0  0  0  0  0  0  0  0  0
  2  3  2  0
  2  1  1  0
  4  2  1  0
  5  4  1  0
  6  5  1  0
  6  7  1  6
  8  9  2  0
  8  6  1  0
 11 10  1  0
 11 13  1  0
 12 11  2  0
 14 13  1  6
 14 15  1  0
 15  8  1  0
 16 23  1  0
 16 14  1  0
 17 16  2  0
 18 19  1  0
 19 21  1  0
 20 19  2  0
 22 21  1  6
 22 23  1  0
 22 24  1  0
 24 25  1  0
 26 24  2  0
M  END
$$$$
