QNN.pdb
     RDKit          3D

 26 25  0  0  1  0  0  0  0  0999 V2000
   13.8399   -8.8449   -8.7930 N   0  0  0  0  0  0  0  0  0  0  0  0
   13.0149   -9.2656   -9.8537 C   0  0  0  0  0  0  0  0  0  0  0  0
   11.9717   -9.9000   -9.6073 O   0  0  0  0  0  0  0  0  0  0  0  0
   13.3706   -8.9639  -11.2513 C   0  0  0  0  0  0  0  0  0  0  0  0
   14.6617   -8.2213  -11.4176 C   0  0  0  0  0  0  0  0  0  0  0  0
   15.0770   -8.0330  -12.8369 C   0  0  2  0  0  0  0  0  0  0  0  0
   14.8380   -9.2285  -13.6351 N   0  0  0  0  0  0  0  0  0  0  0  0
   16.5626   -7.7979  -12.8579 C   0  0  0  0  0  0  0  0  0  0  0  0
   17.0129   -7.0443  -11.9513 O   0  0  0  0  0  0  0  0  0  0  0  0
   20.1452   -9.8999  -12.0398 N   0  0  0  0  0  0  0  0  0  0  0  0
   20.2443  -10.1837  -13.4338 C   0  0  0  0  0  0  0  0  0  0  0  0
   20.8858  -11.2089  -13.7704 O   0  0  0  0  0  0  0  0  0  0  0  0
   19.6060   -9.2892  -14.4441 C   0  0  0  0  0  0  0  0  0  0  0  0
   18.8211   -8.1621  -13.8129 C   0  0  2  0  0  0  0  0  0  0  0  0
   17.4026   -8.3803  -13.8275 N   0  0  0  0  0  0  0  0  0  0  0  0
   19.1825   -6.8591  -14.4425 C   0  0  0  0  0  0  0  0  0  0  0  0
   18.5031   -6.3578  -15.3702 O   0  0  0  0  0  0  0  0  0  0  0  0
   21.2914   -2.2194  -15.4116 N   0  0  0  0  0  0  0  0  0  0  0  0
   19.9527   -2.5033  -15.0357 C   0  0  0  0  0  0  0  0  0  0  0  0
   19.1010   -1.5889  -15.1332 O   0  0  0  0  0  0  0  0  0  0  0  0
   19.5470   -3.8306  -14.5365 C   0  0  0  0  0  0  0  0  0  0  0  0
   20.6699   -4.8266  -14.5054 C   0  0  2  0  0  0  0  0  0  0  0  0
   20.3376   -6.1207  -14.0044 N   0  0  0  0  0  0  0  0  0  0  0  0
   21.8796   -4.2540  -13.8160 C   0  0  0  0  0  0  0  0  0  0  0  0
   22.4956   -4.9020  -12.7578 O   0  0  0  0  0  0  0  0  0  0  0  0
   22.3819   -3.1636  -14.1709 O   0  0  0  0  0  0  0  0  0  0  0  0
  2  3  2  0
  2  1  1  0
  4  2  1  0
  5  4  1  0
  6  5  1  0
  6  7  1  6
  8  9  2  0
  8  6  1  0
 11 10  1  0
 11 13  1  0
 12 11  2  0
 14 13  1  6
 14 15  1  0
 15  8  1  0
 16 23  1  0
 16 14  1  0
 17 16  2  0
 18 19  1  0
 19 21  1  0
 20 19  2  0
 22 21  1  1
 22 23  1  0
 22 24  1  0
 24 25  1  0
 26 24  2  0
M  END
$$$$
