QNN.pdb
     RDKit          3D

 26 25  0  0  1  0  0  0  0  0999 V2000
   17.9322  -14.6251  -20.4833 N   0  0  0  0  0  0  0  0  0  0  0  0
   17.8802  -14.7117  -19.0788 C   0  0  0  0  0  0  0  0  0  0  0  0
   17.2616  -15.6506  -18.5429 O   0  0  0  0  0  0  0  0  0  0  0  0
   18.5491  -13.7053  -18.2359 C   0  0  0  0  0  0  0  0  0  0  0  0
   19.1155  -12.5405  -18.9897 C   0  0  0  0  0  0  0  0  0  0  0  0
   20.5336  -12.7208  -19.4126 C   0  0  2  0  0  0  0  0  0  0  0  0
   21.1500  -13.8723  -18.7665 N   0  0  0  0  0  0  0  0  0  0  0  0
   21.3093  -11.5140  -18.9603 C   0  0  0  0  0  0  0  0  0  0  0  0
   22.3352  -11.7490  -18.2639 O   0  0  0  0  0  0  0  0  0  0  0  0
   22.8687   -8.3338  -22.2857 N   0  0  0  0  0  0  0  0  0  0  0  0
   23.0030   -8.5579  -20.8839 C   0  0  0  0  0  0  0  0  0  0  0  0
   24.0208   -9.1804  -20.4932 O   0  0  0  0  0  0  0  0  0  0  0  0
   21.9671   -8.0669  -19.9277 C   0  0  0  0  0  0  0  0  0  0  0  0
   21.6641   -9.0638  -18.8326 C   0  0  2  0  0  0  0  0  0  0  0  0
   20.9185  -10.2014  -19.2908 N   0  0  0  0  0  0  0  0  0  0  0  0
   20.9879   -8.3896  -17.6868 C   0  0  0  0  0  0  0  0  0  0  0  0
   19.7994   -7.9944  -17.7552 O   0  0  0  0  0  0  0  0  0  0  0  0
   19.7222   -6.4016  -13.0971 N   0  0  0  0  0  0  0  0  0  0  0  0
   20.5397   -7.5441  -12.8956 C   0  0  0  0  0  0  0  0  0  0  0  0
   20.7176   -7.9486  -11.7227 O   0  0  0  0  0  0  0  0  0  0  0  0
   21.1788   -8.2544  -14.0192 C   0  0  0  0  0  0  0  0  0  0  0  0
   21.0814   -7.5189  -15.3244 C   0  0  2  0  0  0  0  0  0  0  0  0
   21.6823   -8.1642  -16.4464 N   0  0  0  0  0  0  0  0  0  0  0  0
   21.5535   -6.0969  -15.1786 C   0  0  0  0  0  0  0  0  0  0  0  0
   20.6681   -5.0333  -15.1146 O   0  0  0  0  0  0  0  0  0  0  0  0
   22.7711   -5.8139  -15.1094 O   0  0  0  0  0  0  0  0  0  0  0  0
  2  3  2  0
  2  1  1  0
  4  2  1  0
  5  4  1  0
  6  5  1  0
  6  7  1  1
  8  9  2  0
  8  6  1  0
 11 10  1  0
 11 13  1  0
 12 11  2  0
 14 13  1  6
 14 15  1  0
 15  8  1  0
 16 23  1  0
 16 14  1  0
 17 16  2  0
 18 19  1  0
 19 21  1  0
 20 19  2  0
 22 21  1  1
 22 23  1  0
 22 24  1  0
 24 25  1  0
 26 24  2  0
M  END
$$$$
