QNN.pdb
     RDKit          3D

 26 25  0  0  1  0  0  0  0  0999 V2000
   17.7535  -14.6842  -14.6049 N   0  0  0  0  0  0  0  0  0  0  0  0
   17.0987  -14.2357  -15.7680 C   0  0  0  0  0  0  0  0  0  0  0  0
   16.3440  -15.0100  -16.3863 O   0  0  0  0  0  0  0  0  0  0  0  0
   17.2953  -12.8616  -16.2619 C   0  0  0  0  0  0  0  0  0  0  0  0
   18.2285  -12.0311  -15.4339 C   0  0  0  0  0  0  0  0  0  0  0  0
   18.4452  -10.6529  -15.9591 C   0  0  2  0  0  0  0  0  0  0  0  0
   19.3707  -10.6407  -17.0846 N   0  0  0  0  0  0  0  0  0  0  0  0
   19.0888   -9.8380  -14.8708 C   0  0  0  0  0  0  0  0  0  0  0  0
   20.3069  -10.0818  -14.6486 O   0  0  0  0  0  0  0  0  0  0  0  0
   20.4630   -6.5722  -11.2313 N   0  0  0  0  0  0  0  0  0  0  0  0
   20.8574   -6.4563  -12.5968 C   0  0  0  0  0  0  0  0  0  0  0  0
   21.7727   -5.6405  -12.8665 O   0  0  0  0  0  0  0  0  0  0  0  0
   20.2001   -7.2780  -13.6556 C   0  0  0  0  0  0  0  0  0  0  0  0
   19.0242   -8.0712  -13.1331 C   0  0  2  0  0  0  0  0  0  0  0  0
   18.3798   -8.8626  -14.1422 N   0  0  0  0  0  0  0  0  0  0  0  0
   18.0566   -7.1726  -12.4393 C   0  0  0  0  0  0  0  0  0  0  0  0
   17.4131   -6.2880  -13.0531 O   0  0  0  0  0  0  0  0  0  0  0  0
   14.7155   -5.3156   -8.8909 N   0  0  0  0  0  0  0  0  0  0  0  0
   15.1773   -6.5724   -8.4203 C   0  0  0  0  0  0  0  0  0  0  0  0
   14.6451   -7.0548   -7.3931 O   0  0  0  0  0  0  0  0  0  0  0  0
   16.2567   -7.3119   -9.1010 C   0  0  0  0  0  0  0  0  0  0  0  0
   16.7349   -6.6479  -10.3596 C   0  0  2  0  0  0  0  0  0  0  0  0
   17.8236   -7.2882  -11.0238 N   0  0  0  0  0  0  0  0  0  0  0  0
   17.0038   -5.1847  -10.1288 C   0  0  0  0  0  0  0  0  0  0  0  0
   16.0166   -4.2248  -10.2814 O   0  0  0  0  0  0  0  0  0  0  0  0
   18.1355   -4.7716   -9.7882 O   0  0  0  0  0  0  0  0  0  0  0  0
  2  3  2  0
  2  1  1  0
  4  2  1  0
  5  4  1  0
  6  5  1  0
  6  7  1  6
  8  9  2  0
  8  6  1  0
 11 10  1  0
 11 13  1  0
 12 11  2  0
 14 13  1  6
 14 15  1  0
 15  8  1  0
 16 23  1  0
 16 14  1  0
 17 16  2  0
 18 19  1  0
 19 21  1  0
 20 19  2  0
 22 21  1  1
 22 23  1  0
 22 24  1  0
 24 25  1  0
 26 24  2  0
M  END
$$$$
