QNN.pdb
     RDKit          3D

 26 25  0  0  1  0  0  0  0  0999 V2000
   11.0137   -9.4944  -10.3750 N   0  0  0  0  0  0  0  0  0  0  0  0
   11.0245  -10.8755  -10.1007 C   0  0  0  0  0  0  0  0  0  0  0  0
    9.9973  -11.5506  -10.3019 O   0  0  0  0  0  0  0  0  0  0  0  0
   12.2363  -11.5314   -9.5790 C   0  0  0  0  0  0  0  0  0  0  0  0
   13.4218  -10.6253   -9.4383 C   0  0  0  0  0  0  0  0  0  0  0  0
   14.2551  -10.5179  -10.6698 C   0  0  2  0  0  0  0  0  0  0  0  0
   14.8674  -11.7922  -11.0231 N   0  0  0  0  0  0  0  0  0  0  0  0
   15.3858   -9.5682  -10.3829 C   0  0  0  0  0  0  0  0  0  0  0  0
   16.5422  -10.0736  -10.3844 O   0  0  0  0  0  0  0  0  0  0  0  0
   18.3982   -5.4460   -9.9365 N   0  0  0  0  0  0  0  0  0  0  0  0
   18.3349   -6.3384  -11.0470 C   0  0  0  0  0  0  0  0  0  0  0  0
   19.2376   -6.2458  -11.9145 O   0  0  0  0  0  0  0  0  0  0  0  0
   17.2335   -7.3392  -11.1627 C   0  0  0  0  0  0  0  0  0  0  0  0
   16.2702   -7.2843   -9.9991 C   0  0  2  0  0  0  0  0  0  0  0  0
   15.1719   -8.1993  -10.1277 N   0  0  0  0  0  0  0  0  0  0  0  0
   15.7975   -5.8868   -9.7796 C   0  0  0  0  0  0  0  0  0  0  0  0
   15.3274   -5.1899  -10.7106 O   0  0  0  0  0  0  0  0  0  0  0  0
   13.3799   -2.1025   -7.1226 N   0  0  0  0  0  0  0  0  0  0  0  0
   13.7674   -3.1087   -6.1999 C   0  0  0  0  0  0  0  0  0  0  0  0
   13.3626   -3.0186   -5.0171 O   0  0  0  0  0  0  0  0  0  0  0  0
   14.6266   -4.2406   -6.5948 C   0  0  0  0  0  0  0  0  0  0  0  0
   14.9782   -4.2437   -8.0543 C   0  0  2  0  0  0  0  0  0  0  0  0
   15.8648   -5.2790   -8.4767 N   0  0  0  0  0  0  0  0  0  0  0  0
   15.4533   -2.8857   -8.4975 C   0  0  0  0  0  0  0  0  0  0  0  0
   16.6853   -2.7018   -9.1037 O   0  0  0  0  0  0  0  0  0  0  0  0
   14.7528   -1.8608   -8.3358 O   0  0  0  0  0  0  0  0  0  0  0  0
  2  3  2  0
  2  1  1  0
  4  2  1  0
  5  4  1  0
  6  5  1  0
  6  7  1  1
  8  9  2  0
  8  6  1  0
 11 10  1  0
 11 13  1  0
 12 11  2  0
 14 13  1  6
 14 15  1  0
 15  8  1  0
 16 23  1  0
 16 14  1  0
 17 16  2  0
 18 19  1  0
 19 21  1  0
 20 19  2  0
 22 21  1  1
 22 23  1  0
 22 24  1  0
 24 25  1  0
 26 24  2  0
M  END
$$$$
