QNN.pdb
     RDKit          3D

 26 25  0  0  1  0  0  0  0  0999 V2000
   28.2534  -25.6214  -15.8770 N   0  0  0  0  0  0  0  0  0  0  0  0
   28.7945  -24.5555  -16.6212 C   0  0  0  0  0  0  0  0  0  0  0  0
   29.8432  -24.7285  -17.2705 O   0  0  0  0  0  0  0  0  0  0  0  0
   28.1347  -23.2382  -16.6411 C   0  0  0  0  0  0  0  0  0  0  0  0
   26.9535  -23.1208  -15.7262 C   0  0  0  0  0  0  0  0  0  0  0  0
   26.2755  -21.7941  -15.7750 C   0  0  2  0  0  0  0  0  0  0  0  0
   27.1532  -20.7197  -15.3290 N   0  0  0  0  0  0  0  0  0  0  0  0
   25.1212  -21.8277  -14.8110 C   0  0  0  0  0  0  0  0  0  0  0  0
   24.2274  -22.6851  -15.0531 O   0  0  0  0  0  0  0  0  0  0  0  0
   25.5955  -22.8112  -11.3833 N   0  0  0  0  0  0  0  0  0  0  0  0
   25.2336  -21.5978  -10.7274 C   0  0  0  0  0  0  0  0  0  0  0  0
   25.7210  -21.3887   -9.5895 O   0  0  0  0  0  0  0  0  0  0  0  0
   24.3103  -20.6220  -11.3781 C   0  0  0  0  0  0  0  0  0  0  0  0
   23.9375  -21.0216  -12.7874 C   0  0  2  0  0  0  0  0  0  0  0  0
   25.0387  -20.9579  -13.7058 N   0  0  0  0  0  0  0  0  0  0  0  0
   22.7759  -20.2180  -13.2669 C   0  0  0  0  0  0  0  0  0  0  0  0
   22.8866  -19.0068  -13.5733 O   0  0  0  0  0  0  0  0  0  0  0  0
   19.6884  -17.6929  -16.4853 N   0  0  0  0  0  0  0  0  0  0  0  0
   19.6449  -19.0870  -16.2234 C   0  0  0  0  0  0  0  0  0  0  0  0
   18.6325  -19.7295  -16.5886 O   0  0  0  0  0  0  0  0  0  0  0  0
   20.7472  -19.7869  -15.5375 C   0  0  0  0  0  0  0  0  0  0  0  0
   20.4107  -20.2022  -14.1345 C   0  0  2  0  0  0  0  0  0  0  0  0
   21.4702  -20.8093  -13.3962 N   0  0  0  0  0  0  0  0  0  0  0  0
   19.1586  -21.0376  -14.1050 C   0  0  0  0  0  0  0  0  0  0  0  0
   19.1902  -22.4121  -14.2749 O   0  0  0  0  0  0  0  0  0  0  0  0
   18.0313  -20.5235  -13.9256 O   0  0  0  0  0  0  0  0  0  0  0  0
  2  3  2  0
  2  1  1  0
  4  2  1  0
  5  4  1  0
  6  5  1  0
  6  7  1  1
  8  9  2  0
  8  6  1  0
 11 10  1  0
 11 13  1  0
 12 11  2  0
 14 13  1  1
 14 15  1  0
 15  8  1  0
 16 23  1  0
 16 14  1  0
 17 16  2  0
 18 19  1  0
 19 21  1  0
 20 19  2  0
 22 21  1  6
 22 23  1  0
 22 24  1  0
 24 25  1  0
 26 24  2  0
M  END
$$$$
