QNN.pdb
     RDKit          3D

 26 25  0  0  1  0  0  0  0  0999 V2000
   31.8000  -25.1884  -15.5389 N   0  0  0  0  0  0  0  0  0  0  0  0
   31.9837  -25.1907  -16.9350 C   0  0  0  0  0  0  0  0  0  0  0  0
   32.6689  -26.0864  -17.4638 O   0  0  0  0  0  0  0  0  0  0  0  0
   31.3748  -24.1465  -17.7775 C   0  0  0  0  0  0  0  0  0  0  0  0
   30.5630  -23.1360  -17.0253 C   0  0  0  0  0  0  0  0  0  0  0  0
   29.2863  -23.6710  -16.4721 C   0  0  2  0  0  0  0  0  0  0  0  0
   28.4970  -24.3518  -17.4905 N   0  0  0  0  0  0  0  0  0  0  0  0
   28.4597  -22.5051  -16.0029 C   0  0  0  0  0  0  0  0  0  0  0  0
   29.0378  -21.7005  -15.2211 O   0  0  0  0  0  0  0  0  0  0  0  0
   26.0242  -18.5688  -17.8869 N   0  0  0  0  0  0  0  0  0  0  0  0
   25.8486  -19.9810  -17.9786 C   0  0  0  0  0  0  0  0  0  0  0  0
   26.1977  -20.5383  -19.0480 O   0  0  0  0  0  0  0  0  0  0  0  0
   25.2711  -20.7559  -16.8409 C   0  0  0  0  0  0  0  0  0  0  0  0
   26.3250  -21.2509  -15.8771 C   0  0  2  0  0  0  0  0  0  0  0  0
   27.1233  -22.3190  -16.4081 N   0  0  0  0  0  0  0  0  0  0  0  0
   25.7043  -21.6254  -14.5735 C   0  0  0  0  0  0  0  0  0  0  0  0
   25.1164  -22.7209  -14.4074 O   0  0  0  0  0  0  0  0  0  0  0  0
   25.3893  -20.2150   -8.5302 N   0  0  0  0  0  0  0  0  0  0  0  0
   25.2616  -20.9985   -9.7067 C   0  0  0  0  0  0  0  0  0  0  0  0
   24.5725  -22.0441   -9.6530 O   0  0  0  0  0  0  0  0  0  0  0  0
   25.9153  -20.6175  -10.9728 C   0  0  0  0  0  0  0  0  0  0  0  0
   25.1408  -21.0261  -12.1922 C   0  0  2  0  0  0  0  0  0  0  0  0
   25.7568  -20.7330  -13.4455 N   0  0  0  0  0  0  0  0  0  0  0  0
   23.7271  -20.5121  -12.1305 C   0  0  0  0  0  0  0  0  0  0  0  0
   22.7396  -21.1667  -11.4127 O   0  0  0  0  0  0  0  0  0  0  0  0
   23.3826  -19.4673  -12.7281 O   0  0  0  0  0  0  0  0  0  0  0  0
  2  3  2  0
  2  1  1  0
  4  2  1  0
  5  4  1  0
  6  5  1  0
  6  7  1  6
  8  9  2  0
  8  6  1  0
 11 10  1  0
 11 13  1  0
 12 11  2  0
 14 13  1  6
 14 15  1  0
 15  8  1  0
 16 23  1  0
 16 14  1  0
 17 16  2  0
 18 19  1  0
 19 21  1  0
 20 19  2  0
 22 21  1  1
 22 23  1  0
 22 24  1  0
 24 25  1  0
 26 24  2  0
M  END
$$$$
