QNN.pdb
     RDKit          3D

 26 25  0  0  1  0  0  0  0  0999 V2000
   20.4856  -16.5557  -16.3763 N   0  0  0  0  0  0  0  0  0  0  0  0
   19.4552  -15.7423  -16.8856 C   0  0  0  0  0  0  0  0  0  0  0  0
   18.3346  -15.7568  -16.3421 O   0  0  0  0  0  0  0  0  0  0  0  0
   19.6869  -14.8743  -18.0534 C   0  0  0  0  0  0  0  0  0  0  0  0
   19.1416  -13.4854  -17.9133 C   0  0  0  0  0  0  0  0  0  0  0  0
   20.1138  -12.5035  -17.3536 C   0  0  2  0  0  0  0  0  0  0  0  0
   20.5679  -12.8880  -16.0234 N   0  0  0  0  0  0  0  0  0  0  0  0
   19.4040  -11.1867  -17.1963 C   0  0  0  0  0  0  0  0  0  0  0  0
   19.1338  -10.5763  -18.2673 O   0  0  0  0  0  0  0  0  0  0  0  0
   16.9745   -6.9715  -15.7513 N   0  0  0  0  0  0  0  0  0  0  0  0
   16.4001   -8.1055  -15.1049 C   0  0  0  0  0  0  0  0  0  0  0  0
   15.3113   -7.9375  -14.5031 O   0  0  0  0  0  0  0  0  0  0  0  0
   17.0764   -9.4355  -15.1489 C   0  0  0  0  0  0  0  0  0  0  0  0
   18.4370   -9.3771  -15.8049 C   0  0  2  0  0  0  0  0  0  0  0  0
   19.0607  -10.6633  -15.9341 N   0  0  0  0  0  0  0  0  0  0  0  0
   19.3187   -8.4089  -15.0906 C   0  0  0  0  0  0  0  0  0  0  0  0
   19.9662   -8.7305  -14.0656 O   0  0  0  0  0  0  0  0  0  0  0  0
   21.7959   -4.0769  -13.6078 N   0  0  0  0  0  0  0  0  0  0  0  0
   22.4041   -4.8818  -14.6059 C   0  0  0  0  0  0  0  0  0  0  0  0
   23.5961   -4.6471  -14.9143 O   0  0  0  0  0  0  0  0  0  0  0  0
   21.6746   -5.9711  -15.2816 C   0  0  0  0  0  0  0  0  0  0  0  0
   20.2347   -6.0724  -14.8689 C   0  0  2  0  0  0  0  0  0  0  0  0
   19.4600   -7.0544  -15.5559 N   0  0  0  0  0  0  0  0  0  0  0  0
   19.5710   -4.7213  -14.8909 C   0  0  0  0  0  0  0  0  0  0  0  0
   19.3643   -3.9871  -13.7345 O   0  0  0  0  0  0  0  0  0  0  0  0
   19.1758   -4.2021  -15.9594 O   0  0  0  0  0  0  0  0  0  0  0  0
  2  3  2  0
  2  1  1  0
  4  2  1  0
  5  4  1  0
  6  5  1  0
  6  7  1  1
  8  9  2  0
  8  6  1  0
 11 10  1  0
 11 13  1  0
 12 11  2  0
 14 13  1  1
 14 15  1  0
 15  8  1  0
 16 23  1  0
 16 14  1  0
 17 16  2  0
 18 19  1  0
 19 21  1  0
 20 19  2  0
 22 21  1  6
 22 23  1  0
 22 24  1  0
 24 25  1  0
 26 24  2  0
M  END
$$$$
