QNN.pdb
     RDKit          3D

 26 25  0  0  1  0  0  0  0  0999 V2000
   25.8219  -18.0108  -15.3225 N   0  0  0  0  0  0  0  0  0  0  0  0
   24.7071  -18.7859  -15.6955 C   0  0  0  0  0  0  0  0  0  0  0  0
   24.8549  -19.9983  -15.9400 O   0  0  0  0  0  0  0  0  0  0  0  0
   23.3681  -18.1801  -15.7997 C   0  0  0  0  0  0  0  0  0  0  0  0
   23.3104  -16.7311  -15.4215 C   0  0  0  0  0  0  0  0  0  0  0  0
   23.3209  -15.7979  -16.5840 C   0  0  2  0  0  0  0  0  0  0  0  0
   24.3651  -16.1370  -17.5422 N   0  0  0  0  0  0  0  0  0  0  0  0
   23.6458  -14.4217  -16.0707 C   0  0  0  0  0  0  0  0  0  0  0  0
   22.9147  -13.9976  -15.1336 O   0  0  0  0  0  0  0  0  0  0  0  0
   26.9640  -13.9351  -14.9136 N   0  0  0  0  0  0  0  0  0  0  0  0
   27.3973  -12.7898  -15.6444 C   0  0  0  0  0  0  0  0  0  0  0  0
   28.6312  -12.5624  -15.6836 O   0  0  0  0  0  0  0  0  0  0  0  0
   26.4126  -11.9032  -16.3319 C   0  0  0  0  0  0  0  0  0  0  0  0
   24.9815  -12.3336  -16.1049 C   0  0  2  0  0  0  0  0  0  0  0  0
   24.6993  -13.6507  -16.6004 N   0  0  0  0  0  0  0  0  0  0  0  0
   24.0383  -11.3228  -16.6648 C   0  0  0  0  0  0  0  0  0  0  0  0
   23.8126  -11.2341  -17.8955 O   0  0  0  0  0  0  0  0  0  0  0  0
   19.6856   -8.5688  -17.8119 N   0  0  0  0  0  0  0  0  0  0  0  0
   20.0012   -8.7564  -16.4410 C   0  0  0  0  0  0  0  0  0  0  0  0
   19.4549   -8.0078  -15.5971 O   0  0  0  0  0  0  0  0  0  0  0  0
   20.9471   -9.7957  -15.9932 C   0  0  0  0  0  0  0  0  0  0  0  0
   22.3821   -9.4631  -16.2829 C   0  0  2  0  0  0  0  0  0  0  0  0
   23.3453  -10.4008  -15.8040 N   0  0  0  0  0  0  0  0  0  0  0  0
   22.7077   -8.0579  -15.8516 C   0  0  0  0  0  0  0  0  0  0  0  0
   22.1212   -6.9535  -16.4478 O   0  0  0  0  0  0  0  0  0  0  0  0
   23.5258   -7.8269  -14.9326 O   0  0  0  0  0  0  0  0  0  0  0  0
  2  3  2  0
  2  1  1  0
  4  2  1  0
  5  4  1  0
  6  5  1  0
  6  7  1  6
  8  9  2  0
  8  6  1  0
 11 10  1  0
 11 13  1  0
 12 11  2  0
 14 13  1  6
 14 15  1  0
 15  8  1  0
 16 23  1  0
 16 14  1  0
 17 16  2  0
 18 19  1  0
 19 21  1  0
 20 19  2  0
 22 21  1  1
 22 23  1  0
 22 24  1  0
 24 25  1  0
 26 24  2  0
M  END
$$$$
