QNN.pdb
     RDKit          3D

 26 25  0  0  1  0  0  0  0  0999 V2000
   24.7784  -19.9690  -19.7820 N   0  0  0  0  0  0  0  0  0  0  0  0
   23.4470  -20.3952  -19.9504 C   0  0  0  0  0  0  0  0  0  0  0  0
   23.1203  -20.9952  -20.9919 O   0  0  0  0  0  0  0  0  0  0  0  0
   22.4360  -20.1401  -18.9093 C   0  0  0  0  0  0  0  0  0  0  0  0
   22.9289  -19.3285  -17.7499 C   0  0  0  0  0  0  0  0  0  0  0  0
   22.2829  -19.6692  -16.4503 C   0  0  2  0  0  0  0  0  0  0  0  0
   21.5538  -20.9289  -16.5208 N   0  0  0  0  0  0  0  0  0  0  0  0
   21.2642  -18.6050  -16.1461 C   0  0  0  0  0  0  0  0  0  0  0  0
   20.1832  -18.6775  -16.7934 O   0  0  0  0  0  0  0  0  0  0  0  0
   19.0661  -18.7508  -13.8929 N   0  0  0  0  0  0  0  0  0  0  0  0
   19.3235  -17.6538  -13.0189 C   0  0  0  0  0  0  0  0  0  0  0  0
   18.8471  -17.7152  -11.8590 O   0  0  0  0  0  0  0  0  0  0  0  0
   20.1292  -16.4835  -13.4764 C   0  0  0  0  0  0  0  0  0  0  0  0
   20.5163  -16.5755  -14.9347 C   0  0  2  0  0  0  0  0  0  0  0  0
   21.4979  -17.5888  -15.1987 N   0  0  0  0  0  0  0  0  0  0  0  0
   20.9527  -15.2429  -15.4431 C   0  0  0  0  0  0  0  0  0  0  0  0
   22.1341  -14.8393  -15.3215 O   0  0  0  0  0  0  0  0  0  0  0  0
   21.4539  -11.2480  -19.5473 N   0  0  0  0  0  0  0  0  0  0  0  0
   20.5297  -11.4806  -18.4957 C   0  0  0  0  0  0  0  0  0  0  0  0
   20.0085  -10.4898  -17.9321 O   0  0  0  0  0  0  0  0  0  0  0  0
   20.1760  -12.8428  -18.0547 C   0  0  0  0  0  0  0  0  0  0  0  0
   20.3880  -13.0697  -16.5858 C   0  0  2  0  0  0  0  0  0  0  0  0
   20.0237  -14.3605  -16.0985 N   0  0  0  0  0  0  0  0  0  0  0  0
   19.7605  -11.9682  -15.7739 C   0  0  0  0  0  0  0  0  0  0  0  0
   20.4939  -10.8855  -15.3166 O   0  0  0  0  0  0  0  0  0  0  0  0
   18.5446  -11.9841  -15.4760 O   0  0  0  0  0  0  0  0  0  0  0  0
  2  3  2  0
  2  1  1  0
  4  2  1  0
  5  4  1  0
  6  5  1  0
  6  7  1  6
  8  9  2  0
  8  6  1  0
 11 10  1  0
 11 13  1  0
 12 11  2  0
 14 13  1  1
 14 15  1  0
 15  8  1  0
 16 23  1  0
 16 14  1  0
 17 16  2  0
 18 19  1  0
 19 21  1  0
 20 19  2  0
 22 21  1  6
 22 23  1  0
 22 24  1  0
 24 25  1  0
 26 24  2  0
M  END
$$$$
