ERQ.pdb
     RDKit          3D

 30 29  0  0  1  0  0  0  0  0999 V2000
    8.5650  -19.8912   20.4966 N   0  0  0  0  0  0  0  0  0  0  0  0
    7.6989  -19.2360   21.4528 C   0  0  1  0  0  0  0  0  0  0  0  0
    7.1900  -20.1814   22.4857 C   0  0  0  0  0  0  0  0  0  0  0  0
    6.5402  -21.4163   21.9162 C   0  0  0  0  0  0  0  0  0  0  0  0
    5.9206  -22.3025   22.9013 C   0  0  0  0  0  0  0  0  0  0  0  0
    6.5346  -23.1767   23.5899 O   0  0  0  0  0  0  0  0  0  0  0  0
    8.4071  -18.0598   22.0931 C   0  0  0  0  0  0  0  0  0  0  0  0
    9.5968  -18.1818   22.4253 O   0  0  0  0  0  0  0  0  0  0  0  0
    4.5346  -22.1987   23.1223 O   0  0  0  0  0  0  0  0  0  0  0  0
    6.6440  -12.2347   17.5634 N   0  0  0  0  0  0  0  0  0  0  0  0
    7.3953  -13.4298   17.5862 C   0  0  0  0  0  0  0  0  0  0  0  0
    7.6124  -14.1269   16.5457 N   0  0  0  0  0  0  0  0  0  0  0  0
    7.9434  -13.8984   18.8170 N   0  0  0  0  0  0  0  0  0  0  0  0
    7.8415  -13.1877   20.0485 C   0  0  0  0  0  0  0  0  0  0  0  0
    8.6337  -13.8462   21.1616 C   0  0  0  0  0  0  0  0  0  0  0  0
    7.7822  -14.3567   22.2576 C   0  0  0  0  0  0  0  0  0  0  0  0
    8.2247  -15.6435   22.9075 C   0  0  2  0  0  0  0  0  0  0  0  0
    7.7187  -16.8441   22.3068 N   0  0  0  0  0  0  0  0  0  0  0  0
    7.8709  -15.5966   24.3340 C   0  0  0  0  0  0  0  0  0  0  0  0
    6.7113  -15.2942   24.7556 O   0  0  0  0  0  0  0  0  0  0  0  0
    8.1753  -15.0041   16.5183 N   0  0  0  0  0  0  0  0  0  0  0  0
    6.8429  -20.3548   25.9048 C   0  0  0  0  0  0  0  0  0  0  0  0
    7.1060  -20.0520   27.2600 O   0  0  0  0  0  0  0  0  0  0  0  0
    6.8603  -20.8770   28.1429 C   0  0  0  0  0  0  0  0  0  0  0  0
    7.6890  -18.6971   27.5446 C   0  0  0  0  0  0  0  0  0  0  0  0
    7.8791  -17.9207   26.2733 C   0  0  1  0  0  0  0  0  0  0  0  0
    8.5555  -16.6254   26.5478 N   0  0  0  0  0  0  0  0  0  0  0  0
    8.8345  -15.8950   25.3149 C   0  0  0  0  0  0  0  0  0  0  0  0
    9.8455  -16.8490   27.2235 O   0  0  0  0  0  0  0  0  0  0  0  0
    9.9787  -17.2909   28.4003 O   0  0  0  0  0  0  0  0  0  0  0  0
  2  1  1  6
  3  2  1  0
  3  4  1  0
  5  4  1  0
  5  9  1  0
  6  5  2  0
  7  2  1  0
  7  8  2  0
 10 11  1  0
 11 12  2  0
 13 11  1  0
 13 14  1  0
 14 15  1  0
 16 15  1  0
 17 16  1  6
 17 18  1  0
 18  7  1  0
 19 20  2  0
 19 17  1  0
 22 21  1  0
 22 23  2  0
 24 22  1  0
 25 24  1  0
 26 25  1  1
 26 27  1  0
 27 19  1  0
 28 26  1  0
 29 28  2  0
 30 28  1  0
M  END
$$$$
