ERQ.pdb
     RDKit          3D

 30 29  0  0  1  0  0  0  0  0999 V2000
    7.6360  -13.0852   18.3734 N   0  0  0  0  0  0  0  0  0  0  0  0
    7.5470  -14.4108   18.9468 C   0  0  1  0  0  0  0  0  0  0  0  0
    8.7234  -15.2534   18.5920 C   0  0  0  0  0  0  0  0  0  0  0  0
    9.5391  -14.7121   17.4462 C   0  0  0  0  0  0  0  0  0  0  0  0
   10.6923  -15.5274   17.0652 C   0  0  0  0  0  0  0  0  0  0  0  0
   11.0124  -16.6376   17.5944 O   0  0  0  0  0  0  0  0  0  0  0  0
    7.3688  -14.3296   20.4490 C   0  0  0  0  0  0  0  0  0  0  0  0
    8.0237  -13.4912   21.0884 O   0  0  0  0  0  0  0  0  0  0  0  0
   11.5303  -15.0669   16.0325 O   0  0  0  0  0  0  0  0  0  0  0  0
    7.3169  -19.1374   26.4017 N   0  0  0  0  0  0  0  0  0  0  0  0
    6.8273  -20.2854   25.7418 C   0  0  0  0  0  0  0  0  0  0  0  0
    6.2717  -21.2490   26.3568 N   0  0  0  0  0  0  0  0  0  0  0  0
    6.9509  -20.3944   24.3248 N   0  0  0  0  0  0  0  0  0  0  0  0
    6.1926  -19.6146   23.4034 C   0  0  0  0  0  0  0  0  0  0  0  0
    6.4533  -18.1282   23.5545 C   0  0  0  0  0  0  0  0  0  0  0  0
    6.4203  -17.3986   22.2688 C   0  0  0  0  0  0  0  0  0  0  0  0
    6.6791  -15.9143   22.3327 C   0  0  2  0  0  0  0  0  0  0  0  0
    6.4689  -15.1979   21.1076 N   0  0  0  0  0  0  0  0  0  0  0  0
    8.0473  -15.6956   22.8250 C   0  0  0  0  0  0  0  0  0  0  0  0
    8.9509  -15.1204   22.1420 O   0  0  0  0  0  0  0  0  0  0  0  0
    5.8684  -22.0968   25.9032 N   0  0  0  0  0  0  0  0  0  0  0  0
    5.9441  -12.4955   26.3422 C   0  0  0  0  0  0  0  0  0  0  0  0
    7.1488  -12.4367   27.0788 O   0  0  0  0  0  0  0  0  0  0  0  0
    7.2460  -11.6933   28.0579 C   0  0  0  0  0  0  0  0  0  0  0  0
    8.2703  -13.3157   26.6034 C   0  0  0  0  0  0  0  0  0  0  0  0
    7.8057  -14.2235   25.5011 C   0  0  2  0  0  0  0  0  0  0  0  0
    8.8442  -15.2406   25.1885 N   0  0  0  0  0  0  0  0  0  0  0  0
    8.4169  -16.1290   24.1116 C   0  0  0  0  0  0  0  0  0  0  0  0
    9.1142  -16.0826   26.3670 O   0  0  0  0  0  0  0  0  0  0  0  0
    8.6683  -17.2530   26.5373 O   0  0  0  0  0  0  0  0  0  0  0  0
  2  1  1  1
  3  2  1  0
  3  4  1  0
  5  4  1  0
  5  9  1  0
  6  5  2  0
  7  2  1  0
  7  8  2  0
 10 11  1  0
 11 12  2  0
 13 11  1  0
 13 14  1  0
 14 15  1  0
 16 15  1  0
 17 16  1  6
 17 18  1  0
 18  7  1  0
 19 20  2  0
 19 17  1  0
 22 21  1  0
 22 23  2  0
 24 22  1  0
 25 24  1  0
 26 25  1  6
 26 27  1  0
 27 19  1  0
 28 26  1  0
 29 28  2  0
 30 28  1  0
M  END
$$$$
