ERQ.pdb
     RDKit          3D

 30 29  0  0  1  0  0  0  0  0999 V2000
   14.9334  -17.0603   17.0121 N   0  0  0  0  0  0  0  0  0  0  0  0
   13.9283  -17.8038   17.7407 C   0  0  1  0  0  0  0  0  0  0  0  0
   14.4404  -19.1204   18.2139 C   0  0  0  0  0  0  0  0  0  0  0  0
   15.3863  -19.0234   19.3831 C   0  0  0  0  0  0  0  0  0  0  0  0
   15.9088  -20.3011   19.8671 C   0  0  0  0  0  0  0  0  0  0  0  0
   15.5628  -20.8726   20.9483 O   0  0  0  0  0  0  0  0  0  0  0  0
   13.3911  -16.9821   18.8944 C   0  0  0  0  0  0  0  0  0  0  0  0
   14.1626  -16.2255   19.5051 O   0  0  0  0  0  0  0  0  0  0  0  0
   16.8731  -20.9711   19.0912 O   0  0  0  0  0  0  0  0  0  0  0  0
    7.8025  -12.1728   19.7835 N   0  0  0  0  0  0  0  0  0  0  0  0
    7.6118  -13.1899   18.8231 C   0  0  0  0  0  0  0  0  0  0  0  0
    7.4855  -12.9497   17.5814 N   0  0  0  0  0  0  0  0  0  0  0  0
    7.5526  -14.5535   19.2379 N   0  0  0  0  0  0  0  0  0  0  0  0
    7.7068  -14.9750   20.5909 C   0  0  0  0  0  0  0  0  0  0  0  0
    9.1589  -15.2110   20.9594 C   0  0  0  0  0  0  0  0  0  0  0  0
    9.8921  -16.0079   19.9525 C   0  0  0  0  0  0  0  0  0  0  0  0
   11.3363  -16.3136   20.2605 C   0  0  2  0  0  0  0  0  0  0  0  0
   12.0308  -17.0793   19.2657 N   0  0  0  0  0  0  0  0  0  0  0  0
   11.4071  -16.9868   21.5660 C   0  0  0  0  0  0  0  0  0  0  0  0
   10.8288  -18.0903   21.8141 O   0  0  0  0  0  0  0  0  0  0  0  0
    7.3641  -13.6728   16.8400 N   0  0  0  0  0  0  0  0  0  0  0  0
   15.9343  -15.7422   25.4988 C   0  0  0  0  0  0  0  0  0  0  0  0
   16.0071  -16.9384   24.7497 O   0  0  0  0  0  0  0  0  0  0  0  0
   17.0908  -17.5002   24.5746 C   0  0  0  0  0  0  0  0  0  0  0  0
   14.7131  -17.4651   24.1977 C   0  0  0  0  0  0  0  0  0  0  0  0
   13.5660  -16.5792   24.5906 C   0  0  2  0  0  0  0  0  0  0  0  0
   12.3095  -17.0288   23.9349 N   0  0  0  0  0  0  0  0  0  0  0  0
   12.1417  -16.4148   22.6210 C   0  0  0  0  0  0  0  0  0  0  0  0
   11.1392  -16.6500   24.7458 O   0  0  0  0  0  0  0  0  0  0  0  0
   10.2399  -15.8391   24.3834 O   0  0  0  0  0  0  0  0  0  0  0  0
  2  1  1  1
  3  2  1  0
  3  4  1  0
  5  4  1  0
  5  9  1  0
  6  5  2  0
  7  2  1  0
  7  8  2  0
 10 11  1  0
 11 12  2  0
 13 11  1  0
 13 14  1  0
 14 15  1  0
 16 15  1  0
 17 16  1  6
 17 18  1  0
 18  7  1  0
 19 20  2  0
 19 17  1  0
 22 21  1  0
 22 23  2  0
 24 22  1  0
 25 24  1  0
 26 25  1  6
 26 27  1  0
 27 19  1  0
 28 26  1  0
 29 28  2  0
 30 28  1  0
M  END
$$$$
