ERQ.pdb
     RDKit          3D

 30 29  0  0  1  0  0  0  0  0999 V2000
   11.3871  -16.3813   19.7587 N   0  0  0  0  0  0  0  0  0  0  0  0
   12.0051  -16.6766   21.0333 C   0  0  1  0  0  0  0  0  0  0  0  0
   13.2300  -15.8601   21.2632 C   0  0  0  0  0  0  0  0  0  0  0  0
   13.9747  -16.2177   22.5237 C   0  0  0  0  0  0  0  0  0  0  0  0
   15.1776  -15.4260   22.7802 C   0  0  0  0  0  0  0  0  0  0  0  0
   15.3468  -14.6495   23.7720 O   0  0  0  0  0  0  0  0  0  0  0  0
   11.0104  -16.4953   22.1614 C   0  0  0  0  0  0  0  0  0  0  0  0
   10.2448  -15.5186   22.1376 O   0  0  0  0  0  0  0  0  0  0  0  0
   16.2476  -15.5135   21.8701 O   0  0  0  0  0  0  0  0  0  0  0  0
   11.0467  -22.1803   22.2419 N   0  0  0  0  0  0  0  0  0  0  0  0
    9.7678  -22.7475   22.4312 C   0  0  0  0  0  0  0  0  0  0  0  0
    9.2794  -23.6219   21.6486 N   0  0  0  0  0  0  0  0  0  0  0  0
    8.9682  -22.3376   23.5391 N   0  0  0  0  0  0  0  0  0  0  0  0
    9.3675  -21.3390   24.4749 C   0  0  0  0  0  0  0  0  0  0  0  0
    9.3934  -19.9519   23.8621 C   0  0  0  0  0  0  0  0  0  0  0  0
    9.7541  -18.8949   24.8313 C   0  0  0  0  0  0  0  0  0  0  0  0
    9.9788  -17.5148   24.2665 C   0  0  2  0  0  0  0  0  0  0  0  0
   10.9591  -17.4273   23.2226 N   0  0  0  0  0  0  0  0  0  0  0  0
   10.3227  -16.6049   25.3692 C   0  0  0  0  0  0  0  0  0  0  0  0
   11.4846  -16.5331   25.8778 O   0  0  0  0  0  0  0  0  0  0  0  0
    8.3412  -24.0644   21.7546 N   0  0  0  0  0  0  0  0  0  0  0  0
    6.3416  -12.2803   27.2847 C   0  0  0  0  0  0  0  0  0  0  0  0
    7.3918  -11.8507   26.4421 O   0  0  0  0  0  0  0  0  0  0  0  0
    7.2950  -10.7945   25.8131 C   0  0  0  0  0  0  0  0  0  0  0  0
    8.5995  -12.7408   26.3670 C   0  0  0  0  0  0  0  0  0  0  0  0
    8.4377  -13.9358   27.2619 C   0  0  2  0  0  0  0  0  0  0  0  0
    9.5646  -14.8872   27.0729 N   0  0  0  0  0  0  0  0  0  0  0  0
    9.3463  -15.7534   25.9181 C   0  0  0  0  0  0  0  0  0  0  0  0
    9.7075  -15.7597   28.2515 O   0  0  0  0  0  0  0  0  0  0  0  0
    9.3891  -16.9823   28.2893 O   0  0  0  0  0  0  0  0  0  0  0  0
  2  1  1  6
  3  2  1  0
  3  4  1  0
  5  4  1  0
  5  9  1  0
  6  5  2  0
  7  2  1  0
  7  8  2  0
 10 11  1  0
 11 12  2  0
 13 11  1  0
 13 14  1  0
 14 15  1  0
 16 15  1  0
 17 16  1  1
 17 18  1  0
 18  7  1  0
 19 20  2  0
 19 17  1  0
 22 21  1  0
 22 23  2  0
 24 22  1  0
 25 24  1  0
 26 25  1  6
 26 27  1  0
 27 19  1  0
 28 26  1  0
 29 28  2  0
 30 28  1  0
M  END
$$$$
