ERQ.pdb
     RDKit          3D

 30 29  0  0  1  0  0  0  0  0999 V2000
    9.1766  -15.2600   12.9494 N   0  0  0  0  0  0  0  0  0  0  0  0
    9.2924  -16.0955   14.1251 C   0  0  1  0  0  0  0  0  0  0  0  0
   10.1567  -17.2846   13.8829 C   0  0  0  0  0  0  0  0  0  0  0  0
    9.8891  -17.9773   12.5715 C   0  0  0  0  0  0  0  0  0  0  0  0
   11.0729  -18.2322   11.7508 C   0  0  0  0  0  0  0  0  0  0  0  0
   11.6054  -19.3712   11.5656 O   0  0  0  0  0  0  0  0  0  0  0  0
    9.7953  -15.2880   15.3040 C   0  0  0  0  0  0  0  0  0  0  0  0
   10.9163  -14.7593   15.2371 O   0  0  0  0  0  0  0  0  0  0  0  0
   11.6903  -17.1452   11.1042 O   0  0  0  0  0  0  0  0  0  0  0  0
    7.4044  -15.1004   23.5104 N   0  0  0  0  0  0  0  0  0  0  0  0
    7.7760  -13.7396   23.4512 C   0  0  0  0  0  0  0  0  0  0  0  0
    8.1116  -13.0720   24.4794 N   0  0  0  0  0  0  0  0  0  0  0  0
    7.7814  -13.0609   22.1966 N   0  0  0  0  0  0  0  0  0  0  0  0
    7.4240  -13.6788   20.9626 C   0  0  0  0  0  0  0  0  0  0  0  0
    8.6088  -13.8271   20.0275 C   0  0  0  0  0  0  0  0  0  0  0  0
    8.2434  -14.3947   18.7119 C   0  0  0  0  0  0  0  0  0  0  0  0
    9.3587  -14.5286   17.7056 C   0  0  2  0  0  0  0  0  0  0  0  0
    8.9960  -15.1420   16.4604 N   0  0  0  0  0  0  0  0  0  0  0  0
   10.4717  -15.2586   18.3306 C   0  0  0  0  0  0  0  0  0  0  0  0
   10.4528  -16.5110   18.5427 O   0  0  0  0  0  0  0  0  0  0  0  0
    8.4330  -12.0801   24.4717 N   0  0  0  0  0  0  0  0  0  0  0  0
   16.2505  -12.8682   18.9875 C   0  0  0  0  0  0  0  0  0  0  0  0
   16.4260  -14.0909   19.6741 O   0  0  0  0  0  0  0  0  0  0  0  0
   17.5182  -14.3773   20.1696 C   0  0  0  0  0  0  0  0  0  0  0  0
   15.2271  -14.9920   19.7583 C   0  0  0  0  0  0  0  0  0  0  0  0
   14.0249  -14.3393   19.1389 C   0  0  1  0  0  0  0  0  0  0  0  0
   12.8350  -15.2242   19.2479 N   0  0  0  0  0  0  0  0  0  0  0  0
   11.6350  -14.5746   18.7286 C   0  0  0  0  0  0  0  0  0  0  0  0
   12.5714  -15.5646   20.6569 O   0  0  0  0  0  0  0  0  0  0  0  0
   11.7775  -14.9390   21.4159 O   0  0  0  0  0  0  0  0  0  0  0  0
  2  1  1  6
  3  2  1  0
  3  4  1  0
  5  4  1  0
  5  9  1  0
  6  5  2  0
  7  2  1  0
  7  8  2  0
 10 11  1  0
 11 12  2  0
 13 11  1  0
 13 14  1  0
 14 15  1  0
 16 15  1  0
 17 16  1  1
 17 18  1  0
 18  7  1  0
 19 20  2  0
 19 17  1  0
 22 21  1  0
 22 23  2  0
 24 22  1  0
 25 24  1  0
 26 25  1  6
 26 27  1  0
 27 19  1  0
 28 26  1  0
 29 28  2  0
 30 28  1  0
M  END
$$$$
