ERQ.pdb
     RDKit          3D

 30 29  0  0  1  0  0  0  0  0999 V2000
    6.3268  -17.8939   26.8272 N   0  0  0  0  0  0  0  0  0  0  0  0
    6.3216  -16.5756   26.2306 C   0  0  1  0  0  0  0  0  0  0  0  0
    6.7354  -15.5219   27.1993 C   0  0  0  0  0  0  0  0  0  0  0  0
    5.7426  -14.3967   27.3388 C   0  0  0  0  0  0  0  0  0  0  0  0
    6.2681  -13.0644   27.0411 C   0  0  0  0  0  0  0  0  0  0  0  0
    7.4410  -12.8161   26.6193 O   0  0  0  0  0  0  0  0  0  0  0  0
    7.1933  -16.5489   24.9920 C   0  0  0  0  0  0  0  0  0  0  0  0
    7.9871  -17.4824   24.7944 O   0  0  0  0  0  0  0  0  0  0  0  0
    5.4270  -11.9517   27.2291 O   0  0  0  0  0  0  0  0  0  0  0  0
    7.2730  -15.2114   17.9068 N   0  0  0  0  0  0  0  0  0  0  0  0
    7.9903  -14.0467   17.5573 C   0  0  0  0  0  0  0  0  0  0  0  0
    8.5781  -13.9095   16.4387 N   0  0  0  0  0  0  0  0  0  0  0  0
    8.0763  -12.9638   18.4819 N   0  0  0  0  0  0  0  0  0  0  0  0
    7.4778  -12.9802   19.7756 C   0  0  0  0  0  0  0  0  0  0  0  0
    8.0905  -14.0313   20.6811 C   0  0  0  0  0  0  0  0  0  0  0  0
    7.3364  -14.2267   21.9380 C   0  0  0  0  0  0  0  0  0  0  0  0
    7.8765  -15.2638   22.8904 C   0  0  2  0  0  0  0  0  0  0  0  0
    7.1000  -15.4748   24.0781 N   0  0  0  0  0  0  0  0  0  0  0  0
    9.2596  -14.9074   23.2398 C   0  0  0  0  0  0  0  0  0  0  0  0
    9.6938  -13.7136   23.2392 O   0  0  0  0  0  0  0  0  0  0  0  0
    9.1509  -13.0842   16.1596 N   0  0  0  0  0  0  0  0  0  0  0  0
   11.5055  -16.9898   28.0230 C   0  0  0  0  0  0  0  0  0  0  0  0
   10.8369  -15.7630   27.8100 O   0  0  0  0  0  0  0  0  0  0  0  0
   10.3558  -15.1413   28.7600 C   0  0  0  0  0  0  0  0  0  0  0  0
   10.7547  -15.2806   26.3898 C   0  0  0  0  0  0  0  0  0  0  0  0
   11.6884  -16.0585   25.5076 C   0  0  2  0  0  0  0  0  0  0  0  0
   11.5321  -15.6454   24.0878 N   0  0  0  0  0  0  0  0  0  0  0  0
   10.1816  -15.9077   23.5992 C   0  0  0  0  0  0  0  0  0  0  0  0
   12.4612  -16.3966   23.2258 O   0  0  0  0  0  0  0  0  0  0  0  0
   13.7217  -16.3510   23.3081 O   0  0  0  0  0  0  0  0  0  0  0  0
  2  1  1  1
  3  2  1  0
  3  4  1  0
  5  4  1  0
  5  9  1  0
  6  5  2  0
  7  2  1  0
  7  8  2  0
 10 11  1  0
 11 12  2  0
 13 11  1  0
 13 14  1  0
 14 15  1  0
 16 15  1  0
 17 16  1  1
 17 18  1  0
 18  7  1  0
 19 20  2  0
 19 17  1  0
 22 21  1  0
 22 23  2  0
 24 22  1  0
 25 24  1  0
 26 25  1  1
 26 27  1  0
 27 19  1  0
 28 26  1  0
 29 28  2  0
 30 28  1  0
M  END
$$$$
