ERQ.pdb
     RDKit          3D

 30 29  0  0  1  0  0  0  0  0999 V2000
   12.3859  -18.6426   18.9039 N   0  0  0  0  0  0  0  0  0  0  0  0
   13.3351  -17.7652   19.5542 C   0  0  1  0  0  0  0  0  0  0  0  0
   14.0543  -16.8984   18.5789 C   0  0  0  0  0  0  0  0  0  0  0  0
   15.1293  -16.0432   19.1987 C   0  0  0  0  0  0  0  0  0  0  0  0
   15.3363  -14.7446   18.5579 C   0  0  0  0  0  0  0  0  0  0  0  0
   15.5431  -13.6498   19.1694 O   0  0  0  0  0  0  0  0  0  0  0  0
   12.6485  -16.9339   20.6183 C   0  0  0  0  0  0  0  0  0  0  0  0
   13.3404  -16.3685   21.4799 O   0  0  0  0  0  0  0  0  0  0  0  0
   15.3085  -14.6756   17.1525 O   0  0  0  0  0  0  0  0  0  0  0  0
    7.4667  -13.0658   17.5123 N   0  0  0  0  0  0  0  0  0  0  0  0
    7.5375  -12.8848   18.9107 C   0  0  0  0  0  0  0  0  0  0  0  0
    7.7991  -11.7629   19.4477 N   0  0  0  0  0  0  0  0  0  0  0  0
    7.3119  -13.9928   19.7804 N   0  0  0  0  0  0  0  0  0  0  0  0
    7.2432  -13.8817   21.1999 C   0  0  0  0  0  0  0  0  0  0  0  0
    8.3646  -14.6325   21.8920 C   0  0  0  0  0  0  0  0  0  0  0  0
    9.2219  -15.3899   20.9550 C   0  0  0  0  0  0  0  0  0  0  0  0
   10.4315  -16.0665   21.5496 C   0  0  2  0  0  0  0  0  0  0  0  0
   11.2409  -16.8072   20.6253 N   0  0  0  0  0  0  0  0  0  0  0  0
    9.9915  -16.9330   22.6531 C   0  0  0  0  0  0  0  0  0  0  0  0
    9.4417  -18.0643   22.4751 O   0  0  0  0  0  0  0  0  0  0  0  0
    7.8313  -11.5824   20.4741 N   0  0  0  0  0  0  0  0  0  0  0  0
   13.5685  -20.0447   24.5923 C   0  0  0  0  0  0  0  0  0  0  0  0
   12.9914  -20.0660   25.8822 O   0  0  0  0  0  0  0  0  0  0  0  0
   13.4517  -20.7998   26.7599 C   0  0  0  0  0  0  0  0  0  0  0  0
   11.8141  -19.1603   26.1063 C   0  0  0  0  0  0  0  0  0  0  0  0
   11.5306  -18.3411   24.8801 C   0  0  1  0  0  0  0  0  0  0  0  0
   10.3667  -17.4444   25.1079 N   0  0  0  0  0  0  0  0  0  0  0  0
   10.1696  -16.5278   23.9887 C   0  0  0  0  0  0  0  0  0  0  0  0
   10.5754  -16.6226   26.3128 O   0  0  0  0  0  0  0  0  0  0  0  0
   10.7083  -15.3657   26.3171 O   0  0  0  0  0  0  0  0  0  0  0  0
  2  1  1  6
  3  2  1  0
  3  4  1  0
  5  4  1  0
  5  9  1  0
  6  5  2  0
  7  2  1  0
  7  8  2  0
 10 11  1  0
 11 12  2  0
 13 11  1  0
 13 14  1  0
 14 15  1  0
 16 15  1  0
 17 16  1  6
 17 18  1  0
 18  7  1  0
 19 20  2  0
 19 17  1  0
 22 21  1  0
 22 23  2  0
 24 22  1  0
 25 24  1  0
 26 25  1  6
 26 27  1  0
 27 19  1  0
 28 26  1  0
 29 28  2  0
 30 28  1  0
M  END
$$$$
