ERQ.pdb
     RDKit          3D

 30 29  0  0  1  0  0  0  0  0999 V2000
    4.4063  -18.9439   23.7500 N   0  0  0  0  0  0  0  0  0  0  0  0
    5.6018  -19.7524   23.6456 C   0  0  1  0  0  0  0  0  0  0  0  0
    5.3672  -20.9991   22.8643 C   0  0  0  0  0  0  0  0  0  0  0  0
    4.5738  -20.7876   21.6005 C   0  0  0  0  0  0  0  0  0  0  0  0
    3.7396  -21.9185   21.1944 C   0  0  0  0  0  0  0  0  0  0  0  0
    3.5866  -22.9921   21.8570 O   0  0  0  0  0  0  0  0  0  0  0  0
    6.7396  -18.9456   23.0545 C   0  0  0  0  0  0  0  0  0  0  0  0
    7.8507  -19.4818   22.9186 O   0  0  0  0  0  0  0  0  0  0  0  0
    3.0403  -21.8355   19.9758 O   0  0  0  0  0  0  0  0  0  0  0  0
    8.3210  -13.1700   16.8514 N   0  0  0  0  0  0  0  0  0  0  0  0
    8.9149  -13.1105   18.1308 C   0  0  0  0  0  0  0  0  0  0  0  0
   10.1241  -13.4388   18.3449 N   0  0  0  0  0  0  0  0  0  0  0  0
    8.1464  -12.6686   19.2484 N   0  0  0  0  0  0  0  0  0  0  0  0
    7.2062  -13.4909   19.9353 C   0  0  0  0  0  0  0  0  0  0  0  0
    7.8767  -14.6036   20.7179 C   0  0  0  0  0  0  0  0  0  0  0  0
    6.9155  -15.4845   21.4155 C   0  0  0  0  0  0  0  0  0  0  0  0
    7.4931  -16.6944   22.1062 C   0  0  2  0  0  0  0  0  0  0  0  0
    6.5335  -17.6026   22.6652 N   0  0  0  0  0  0  0  0  0  0  0  0
    8.4329  -16.2412   23.1423 C   0  0  0  0  0  0  0  0  0  0  0  0
    8.1486  -15.3476   23.9994 O   0  0  0  0  0  0  0  0  0  0  0  0
   10.5934  -13.4248   19.2758 N   0  0  0  0  0  0  0  0  0  0  0  0
   10.6988  -19.3257   27.1255 C   0  0  0  0  0  0  0  0  0  0  0  0
    9.8519  -18.2182   27.3566 O   0  0  0  0  0  0  0  0  0  0  0  0
    9.2582  -18.1000   28.4310 C   0  0  0  0  0  0  0  0  0  0  0  0
    9.7275  -17.2228   26.2385 C   0  0  0  0  0  0  0  0  0  0  0  0
   10.8905  -17.3328   25.2949 C   0  0  2  0  0  0  0  0  0  0  0  0
   10.7461  -16.3686   24.1723 N   0  0  0  0  0  0  0  0  0  0  0  0
    9.7220  -16.7990   23.2250 C   0  0  0  0  0  0  0  0  0  0  0  0
   12.0104  -16.2527   23.4248 O   0  0  0  0  0  0  0  0  0  0  0  0
   12.2027  -16.6939   22.2559 O   0  0  0  0  0  0  0  0  0  0  0  0
  2  1  1  6
  3  2  1  0
  3  4  1  0
  5  4  1  0
  5  9  1  0
  6  5  2  0
  7  2  1  0
  7  8  2  0
 10 11  1  0
 11 12  2  0
 13 11  1  0
 13 14  1  0
 14 15  1  0
 16 15  1  0
 17 16  1  1
 17 18  1  0
 18  7  1  0
 19 20  2  0
 19 17  1  0
 22 21  1  0
 22 23  2  0
 24 22  1  0
 25 24  1  0
 26 25  1  1
 26 27  1  0
 27 19  1  0
 28 26  1  0
 29 28  2  0
 30 28  1  0
M  END
$$$$
