ERQ.pdb
     RDKit          3D

 30 29  0  0  1  0  0  0  0  0999 V2000
   15.9512  -13.6016   17.6991 N   0  0  0  0  0  0  0  0  0  0  0  0
   14.7491  -14.4012   17.6020 C   0  0  1  0  0  0  0  0  0  0  0  0
   15.0449  -15.8111   17.2217 C   0  0  0  0  0  0  0  0  0  0  0  0
   16.3271  -16.3453   17.8065 C   0  0  0  0  0  0  0  0  0  0  0  0
   16.2821  -17.7458   18.2265 C   0  0  0  0  0  0  0  0  0  0  0  0
   16.1865  -18.1483   19.4282 O   0  0  0  0  0  0  0  0  0  0  0  0
   13.9634  -14.3397   18.8957 C   0  0  0  0  0  0  0  0  0  0  0  0
   14.5788  -14.2544   19.9702 O   0  0  0  0  0  0  0  0  0  0  0  0
   16.3487  -18.7468   17.2394 O   0  0  0  0  0  0  0  0  0  0  0  0
    7.7106  -15.1853   17.7365 N   0  0  0  0  0  0  0  0  0  0  0  0
    7.5989  -13.7873   17.8987 C   0  0  0  0  0  0  0  0  0  0  0  0
    7.4215  -12.9927   16.9227 N   0  0  0  0  0  0  0  0  0  0  0  0
    7.6875  -13.2164   19.2030 N   0  0  0  0  0  0  0  0  0  0  0  0
    7.8211  -13.9867   20.3951 C   0  0  0  0  0  0  0  0  0  0  0  0
    9.2693  -14.1573   20.8120 C   0  0  0  0  0  0  0  0  0  0  0  0
   10.1928  -14.2897   19.6647 C   0  0  0  0  0  0  0  0  0  0  0  0
   11.6573  -14.4318   19.9951 C   0  0  2  0  0  0  0  0  0  0  0  0
   12.5508  -14.3791   18.8738 N   0  0  0  0  0  0  0  0  0  0  0  0
   11.8517  -15.6810   20.7459 C   0  0  0  0  0  0  0  0  0  0  0  0
   12.1671  -16.7827   20.1976 O   0  0  0  0  0  0  0  0  0  0  0  0
    7.3769  -11.9535   16.9960 N   0  0  0  0  0  0  0  0  0  0  0  0
   15.9464  -18.0188   22.9350 C   0  0  0  0  0  0  0  0  0  0  0  0
   15.7211  -16.6595   23.2496 O   0  0  0  0  0  0  0  0  0  0  0  0
   16.6715  -15.8921   23.4182 C   0  0  0  0  0  0  0  0  0  0  0  0
   14.2876  -16.2245   23.3609 C   0  0  0  0  0  0  0  0  0  0  0  0
   13.3630  -17.3092   22.8882 C   0  0  1  0  0  0  0  0  0  0  0  0
   11.9465  -16.8677   22.9845 N   0  0  0  0  0  0  0  0  0  0  0  0
   11.6905  -15.7020   22.1436 C   0  0  0  0  0  0  0  0  0  0  0  0
   11.6167  -16.4873   24.3691 O   0  0  0  0  0  0  0  0  0  0  0  0
   11.2493  -15.3344   24.7346 O   0  0  0  0  0  0  0  0  0  0  0  0
  2  1  1  1
  3  2  1  0
  3  4  1  0
  5  4  1  0
  5  9  1  0
  6  5  2  0
  7  2  1  0
  7  8  2  0
 10 11  1  0
 11 12  2  0
 13 11  1  0
 13 14  1  0
 14 15  1  0
 16 15  1  0
 17 16  1  6
 17 18  1  0
 18  7  1  0
 19 20  2  0
 19 17  1  0
 22 21  1  0
 22 23  2  0
 24 22  1  0
 25 24  1  0
 26 25  1  6
 26 27  1  0
 27 19  1  0
 28 26  1  0
 29 28  2  0
 30 28  1  0
M  END
$$$$
