ERQ.pdb
     RDKit          3D

 30 29  0  0  1  0  0  0  0  0999 V2000
   14.0504  -17.1373   19.4667 N   0  0  0  0  0  0  0  0  0  0  0  0
   12.7762  -17.6206   19.9534 C   0  0  1  0  0  0  0  0  0  0  0  0
   12.8428  -19.0491   20.3711 C   0  0  0  0  0  0  0  0  0  0  0  0
   13.9351  -19.3440   21.3668 C   0  0  0  0  0  0  0  0  0  0  0  0
   14.0274  -20.7406   21.7920 C   0  0  0  0  0  0  0  0  0  0  0  0
   13.2717  -21.6806   21.3912 O   0  0  0  0  0  0  0  0  0  0  0  0
   12.2719  -16.7460   21.0828 C   0  0  0  0  0  0  0  0  0  0  0  0
   13.0918  -16.1101   21.7639 O   0  0  0  0  0  0  0  0  0  0  0  0
   15.0245  -21.0974   22.7189 O   0  0  0  0  0  0  0  0  0  0  0  0
    7.9779  -11.7273   19.5083 N   0  0  0  0  0  0  0  0  0  0  0  0
    7.5169  -12.9949   19.0916 C   0  0  0  0  0  0  0  0  0  0  0  0
    7.9231  -13.5602   18.0281 N   0  0  0  0  0  0  0  0  0  0  0  0
    6.5522  -13.6915   19.8785 N   0  0  0  0  0  0  0  0  0  0  0  0
    6.8922  -14.6058   20.9180 C   0  0  0  0  0  0  0  0  0  0  0  0
    8.3892  -14.6871   21.1477 C   0  0  0  0  0  0  0  0  0  0  0  0
    8.7648  -15.6656   22.1907 C   0  0  0  0  0  0  0  0  0  0  0  0
   10.2410  -15.9036   22.3871 C   0  0  2  0  0  0  0  0  0  0  0  0
   10.8872  -16.6591   21.3527 N   0  0  0  0  0  0  0  0  0  0  0  0
   10.4446  -16.5467   23.6937 C   0  0  0  0  0  0  0  0  0  0  0  0
   10.5470  -17.8040   23.8440 O   0  0  0  0  0  0  0  0  0  0  0  0
    7.6379  -14.5105   17.7076 N   0  0  0  0  0  0  0  0  0  0  0  0
   11.2970  -13.4237   29.1256 C   0  0  0  0  0  0  0  0  0  0  0  0
   11.2483  -14.7503   29.6101 O   0  0  0  0  0  0  0  0  0  0  0  0
   11.4096  -14.9827   30.8104 C   0  0  0  0  0  0  0  0  0  0  0  0
   10.9931  -15.8274   28.5946 C   0  0  0  0  0  0  0  0  0  0  0  0
   10.8508  -15.2409   27.2196 C   0  0  2  0  0  0  0  0  0  0  0  0
   10.6728  -16.3161   26.2082 N   0  0  0  0  0  0  0  0  0  0  0  0
   10.5368  -15.7679   24.8619 C   0  0  0  0  0  0  0  0  0  0  0  0
    9.4520  -17.0920   26.4883 O   0  0  0  0  0  0  0  0  0  0  0  0
    9.3890  -18.0852   27.2675 O   0  0  0  0  0  0  0  0  0  0  0  0
  2  1  1  1
  3  2  1  0
  3  4  1  0
  5  4  1  0
  5  9  1  0
  6  5  2  0
  7  2  1  0
  7  8  2  0
 10 11  1  0
 11 12  2  0
 13 11  1  0
 13 14  1  0
 14 15  1  0
 16 15  1  0
 17 16  1  6
 17 18  1  0
 18  7  1  0
 19 20  2  0
 19 17  1  0
 22 21  1  0
 22 23  2  0
 24 22  1  0
 25 24  1  0
 26 25  1  6
 26 27  1  0
 27 19  1  0
 28 26  1  0
 29 28  2  0
 30 28  1  0
M  END
$$$$
