ERQ.pdb
     RDKit          3D

 30 29  0  0  1  0  0  0  0  0999 V2000
   12.2690  -17.6191   19.7153 N   0  0  0  0  0  0  0  0  0  0  0  0
   13.1919  -17.0169   20.6531 C   0  0  1  0  0  0  0  0  0  0  0  0
   14.1948  -16.1507   19.9724 C   0  0  0  0  0  0  0  0  0  0  0  0
   13.6037  -15.2308   18.9352 C   0  0  0  0  0  0  0  0  0  0  0  0
   14.5699  -14.3928   18.2253 C   0  0  0  0  0  0  0  0  0  0  0  0
   14.9951  -13.2640   18.6256 O   0  0  0  0  0  0  0  0  0  0  0  0
   12.4401  -16.2456   21.7183 C   0  0  0  0  0  0  0  0  0  0  0  0
   13.0751  -15.7451   22.6601 O   0  0  0  0  0  0  0  0  0  0  0  0
   15.0846  -14.8510   16.9982 O   0  0  0  0  0  0  0  0  0  0  0  0
    8.1083  -12.9260   17.3194 N   0  0  0  0  0  0  0  0  0  0  0  0
    7.7195  -12.9981   18.6747 C   0  0  0  0  0  0  0  0  0  0  0  0
    8.0451  -12.1185   19.5325 N   0  0  0  0  0  0  0  0  0  0  0  0
    6.9290  -14.0960   19.1271 N   0  0  0  0  0  0  0  0  0  0  0  0
    7.0914  -14.7144   20.4012 C   0  0  0  0  0  0  0  0  0  0  0  0
    8.5372  -14.7199   20.8594 C   0  0  0  0  0  0  0  0  0  0  0  0
    8.7255  -15.3553   22.1813 C   0  0  0  0  0  0  0  0  0  0  0  0
   10.1506  -15.5639   22.6286 C   0  0  2  0  0  0  0  0  0  0  0  0
   11.0366  -16.1009   21.6362 N   0  0  0  0  0  0  0  0  0  0  0  0
   10.1480  -16.4159   23.8271 C   0  0  0  0  0  0  0  0  0  0  0  0
   11.1601  -17.0793   24.2135 O   0  0  0  0  0  0  0  0  0  0  0  0
    7.8782  -12.1914   20.5591 N   0  0  0  0  0  0  0  0  0  0  0  0
    9.8524  -13.4570   28.5202 C   0  0  0  0  0  0  0  0  0  0  0  0
   10.0703  -14.7483   29.0517 O   0  0  0  0  0  0  0  0  0  0  0  0
   10.7138  -14.8939   30.0936 C   0  0  0  0  0  0  0  0  0  0  0  0
    9.4819  -15.8983   28.2851 C   0  0  0  0  0  0  0  0  0  0  0  0
    9.6365  -15.6881   26.8063 C   0  0  1  0  0  0  0  0  0  0  0  0
    8.9898  -16.7933   26.0506 N   0  0  0  0  0  0  0  0  0  0  0  0
    8.9876  -16.5306   24.6145 C   0  0  0  0  0  0  0  0  0  0  0  0
    7.5854  -16.9515   26.4670 O   0  0  0  0  0  0  0  0  0  0  0  0
    6.6091  -16.3169   25.9751 O   0  0  0  0  0  0  0  0  0  0  0  0
  2  1  1  6
  3  2  1  0
  3  4  1  0
  5  4  1  0
  5  9  1  0
  6  5  2  0
  7  2  1  0
  7  8  2  0
 10 11  1  0
 11 12  2  0
 13 11  1  0
 13 14  1  0
 14 15  1  0
 16 15  1  0
 17 16  1  6
 17 18  1  0
 18  7  1  0
 19 20  2  0
 19 17  1  0
 22 21  1  0
 22 23  2  0
 24 22  1  0
 25 24  1  0
 26 25  1  6
 26 27  1  0
 27 19  1  0
 28 26  1  0
 29 28  2  0
 30 28  1  0
M  END
$$$$
