ERQ.pdb
     RDKit          3D

 30 29  0  0  1  0  0  0  0  0999 V2000
   11.7143  -15.9826   17.5624 N   0  0  0  0  0  0  0  0  0  0  0  0
   11.0148  -16.9246   18.4092 C   0  0  1  0  0  0  0  0  0  0  0  0
   11.7861  -18.1850   18.5996 C   0  0  0  0  0  0  0  0  0  0  0  0
   13.1811  -18.1391   18.0310 C   0  0  0  0  0  0  0  0  0  0  0  0
   13.6770  -19.4082   17.4989 C   0  0  0  0  0  0  0  0  0  0  0  0
   14.0692  -20.3937   18.1991 O   0  0  0  0  0  0  0  0  0  0  0  0
   10.6721  -16.2897   19.7412 C   0  0  0  0  0  0  0  0  0  0  0  0
   11.4710  -16.4013   20.6846 O   0  0  0  0  0  0  0  0  0  0  0  0
   13.7344  -19.5761   16.1028 O   0  0  0  0  0  0  0  0  0  0  0  0
    7.3209  -13.5167   15.7283 N   0  0  0  0  0  0  0  0  0  0  0  0
    8.1591  -14.3126   16.5388 C   0  0  0  0  0  0  0  0  0  0  0  0
    8.7617  -15.3435   16.1031 N   0  0  0  0  0  0  0  0  0  0  0  0
    8.3532  -13.9684   17.9095 N   0  0  0  0  0  0  0  0  0  0  0  0
    7.5214  -13.0544   18.6199 C   0  0  0  0  0  0  0  0  0  0  0  0
    7.9747  -12.8569   20.0537 C   0  0  0  0  0  0  0  0  0  0  0  0
    7.7676  -14.0526   20.8987 C   0  0  0  0  0  0  0  0  0  0  0  0
    8.9619  -14.9530   21.0917 C   0  0  2  0  0  0  0  0  0  0  0  0
    9.4594  -15.5817   19.9020 N   0  0  0  0  0  0  0  0  0  0  0  0
    8.6296  -15.9655   22.1049 C   0  0  0  0  0  0  0  0  0  0  0  0
    8.1409  -17.1030   21.8204 O   0  0  0  0  0  0  0  0  0  0  0  0
    9.3478  -15.9842   16.6803 N   0  0  0  0  0  0  0  0  0  0  0  0
   12.6824  -18.8148   23.3077 C   0  0  0  0  0  0  0  0  0  0  0  0
   12.2408  -19.0528   24.6289 O   0  0  0  0  0  0  0  0  0  0  0  0
   12.9019  -19.7635   25.3894 C   0  0  0  0  0  0  0  0  0  0  0  0
   10.9496  -18.4002   25.0334 C   0  0  0  0  0  0  0  0  0  0  0  0
   10.5738  -17.3160   24.0647 C   0  0  2  0  0  0  0  0  0  0  0  0
    9.2726  -16.7044   24.4434 N   0  0  0  0  0  0  0  0  0  0  0  0
    8.8481  -15.7027   23.4699 C   0  0  0  0  0  0  0  0  0  0  0  0
    9.3800  -16.0270   25.7473 O   0  0  0  0  0  0  0  0  0  0  0  0
    9.3451  -14.7749   25.9171 O   0  0  0  0  0  0  0  0  0  0  0  0
  2  1  1  6
  3  2  1  0
  3  4  1  0
  5  4  1  0
  5  9  1  0
  6  5  2  0
  7  2  1  0
  7  8  2  0
 10 11  1  0
 11 12  2  0
 13 11  1  0
 13 14  1  0
 14 15  1  0
 16 15  1  0
 17 16  1  6
 17 18  1  0
 18  7  1  0
 19 20  2  0
 19 17  1  0
 22 21  1  0
 22 23  2  0
 24 22  1  0
 25 24  1  0
 26 25  1  6
 26 27  1  0
 27 19  1  0
 28 26  1  0
 29 28  2  0
 30 28  1  0
M  END
$$$$
