SNE.pdb
     RDKit          3D

 24 23  0  0  1  0  0  0  0  0999 V2000
   12.6693  -19.3136   20.2604 O   0  0  0  0  0  0  0  0  0  0  0  0
   11.3911  -18.8253   20.5387 C   0  0  0  0  0  0  0  0  0  0  0  0
   11.3235  -17.3341   20.3670 C   0  0  2  0  0  0  0  0  0  0  0  0
   11.7507  -16.9340   19.0651 N   0  0  0  0  0  0  0  0  0  0  0  0
   12.1511  -16.7140   21.4492 C   0  0  0  0  0  0  0  0  0  0  0  0
   13.2819  -16.2141   21.2180 O   0  0  0  0  0  0  0  0  0  0  0  0
   13.0624  -14.4943   26.3660 N   0  0  0  0  0  0  0  0  0  0  0  0
   12.2546  -15.6509   26.2903 C   0  0  0  0  0  0  0  0  0  0  0  0
   12.1089  -16.3500   27.3172 O   0  0  0  0  0  0  0  0  0  0  0  0
   11.6031  -16.0257   25.0457 C   0  0  0  0  0  0  0  0  0  0  0  0
   12.5358  -16.0656   23.8259 C   0  0  2  0  0  0  0  0  0  0  0  0
   11.7034  -16.6583   22.7895 N   0  0  0  0  0  0  0  0  0  0  0  0
   13.7553  -16.8417   24.0633 C   0  0  0  0  0  0  0  0  0  0  0  0
   13.7242  -18.0968   24.0343 O   0  0  0  0  0  0  0  0  0  0  0  0
   15.0138  -16.2488   24.3305 N   0  0  0  0  0  0  0  0  0  0  0  0
   16.1645  -17.0656   24.5117 C   0  0  1  0  0  0  0  0  0  0  0  0
   17.1244  -16.9190   23.3246 C   0  0  0  0  0  0  0  0  0  0  0  0
   17.4495  -15.4617   23.0816 C   0  0  0  0  0  0  0  0  0  0  0  0
   18.8237  -15.3428   22.5324 C   0  0  0  0  0  0  0  0  0  0  0  0
   19.8533  -15.6928   23.1910 O   0  0  0  0  0  0  0  0  0  0  0  0
   16.9390  -16.8362   25.7261 C   0  0  0  0  0  0  0  0  0  0  0  0
   18.0352  -17.5267   26.1543 O   0  0  0  0  0  0  0  0  0  0  0  0
   19.0688  -14.8361   21.2516 O   0  0  0  0  0  0  0  0  0  0  0  0
   16.5441  -15.8799   26.4717 O   0  0  0  0  0  0  0  0  0  0  0  0
  1  2  1  0
  2  3  1  0
  3  4  1  6
  5  3  1  0
  6  5  2  0
  7  8  1  0
  8 10  1  0
  9  8  2  0
 11 10  1  1
 11 13  1  0
 11 12  1  0
 12  5  1  0
 13 15  1  0
 14 13  2  0
 15 16  1  0
 16 21  1  0
 16 17  1  6
 18 17  1  0
 19 18  1  0
 20 19  2  0
 21 24  2  0
 21 22  1  0
 23 19  1  0
M  END
$$$$
