SNE.pdb
     RDKit          3D

 24 23  0  0  1  0  0  0  0  0999 V2000
    8.2097  -14.8443   18.6300 O   0  0  0  0  0  0  0  0  0  0  0  0
    7.5010  -13.6467   18.7454 C   0  0  0  0  0  0  0  0  0  0  0  0
    8.1833  -12.6931   19.6849 C   0  0  2  0  0  0  0  0  0  0  0  0
    9.5219  -12.4162   19.2739 N   0  0  0  0  0  0  0  0  0  0  0  0
    8.1247  -13.2872   21.0575 C   0  0  0  0  0  0  0  0  0  0  0  0
    7.9607  -12.5777   22.0830 O   0  0  0  0  0  0  0  0  0  0  0  0
    7.7003  -16.7983   24.9044 N   0  0  0  0  0  0  0  0  0  0  0  0
    6.7564  -16.8488   23.8545 C   0  0  0  0  0  0  0  0  0  0  0  0
    5.7304  -17.5488   24.0023 O   0  0  0  0  0  0  0  0  0  0  0  0
    6.9686  -16.1034   22.6242 C   0  0  0  0  0  0  0  0  0  0  0  0
    8.2302  -15.2271   22.6204 C   0  0  2  0  0  0  0  0  0  0  0  0
    8.2510  -14.6793   21.2721 N   0  0  0  0  0  0  0  0  0  0  0  0
    9.4495  -15.9783   22.9283 C   0  0  0  0  0  0  0  0  0  0  0  0
    9.6179  -17.1326   22.4632 O   0  0  0  0  0  0  0  0  0  0  0  0
   10.4904  -15.4695   23.7434 N   0  0  0  0  0  0  0  0  0  0  0  0
   11.2960  -16.3567   24.5103 C   0  0  1  0  0  0  0  0  0  0  0  0
   10.5501  -16.8119   25.7707 C   0  0  0  0  0  0  0  0  0  0  0  0
   11.3802  -17.8100   26.5474 C   0  0  0  0  0  0  0  0  0  0  0  0
   10.6167  -18.2786   27.7314 C   0  0  0  0  0  0  0  0  0  0  0  0
    9.4025  -17.9578   27.9296 O   0  0  0  0  0  0  0  0  0  0  0  0
   11.7693  -17.5567   23.8297 C   0  0  0  0  0  0  0  0  0  0  0  0
   11.2665  -18.1187   22.6926 O   0  0  0  0  0  0  0  0  0  0  0  0
   11.1902  -19.1047   28.7038 O   0  0  0  0  0  0  0  0  0  0  0  0
   12.7678  -18.1463   24.3603 O   0  0  0  0  0  0  0  0  0  0  0  0
  1  2  1  0
  2  3  1  0
  3  4  1  6
  5  3  1  0
  6  5  2  0
  7  8  1  0
  8 10  1  0
  9  8  2  0
 11 10  1  6
 11 13  1  0
 11 12  1  0
 12  5  1  0
 13 15  1  0
 14 13  2  0
 15 16  1  0
 16 21  1  0
 16 17  1  1
 18 17  1  0
 19 18  1  0
 20 19  2  0
 21 24  2  0
 21 22  1  0
 23 19  1  0
M  END
$$$$
