SNE.pdb
     RDKit          3D

 24 23  0  0  1  0  0  0  0  0999 V2000
    8.7423  -15.5712   18.3816 O   0  0  0  0  0  0  0  0  0  0  0  0
    7.4782  -14.9952   18.5232 C   0  0  0  0  0  0  0  0  0  0  0  0
    7.5721  -13.5788   19.0159 C   0  0  2  0  0  0  0  0  0  0  0  0
    8.2834  -12.7482   18.0985 N   0  0  0  0  0  0  0  0  0  0  0  0
    8.2156  -13.6093   20.3671 C   0  0  0  0  0  0  0  0  0  0  0  0
    9.3952  -13.2136   20.5512 O   0  0  0  0  0  0  0  0  0  0  0  0
    8.7378  -14.2057   25.5728 N   0  0  0  0  0  0  0  0  0  0  0  0
    7.4152  -13.8887   25.1905 C   0  0  0  0  0  0  0  0  0  0  0  0
    6.5738  -13.6449   26.0834 O   0  0  0  0  0  0  0  0  0  0  0  0
    7.0342  -13.8452   23.7880 C   0  0  0  0  0  0  0  0  0  0  0  0
    8.1840  -14.1205   22.8073 C   0  0  2  0  0  0  0  0  0  0  0  0
    7.5290  -14.0855   21.5080 N   0  0  0  0  0  0  0  0  0  0  0  0
    8.8513  -15.4012   23.0530 C   0  0  0  0  0  0  0  0  0  0  0  0
    8.2184  -16.4794   22.9344 O   0  0  0  0  0  0  0  0  0  0  0  0
   10.2136  -15.5083   23.4265 N   0  0  0  0  0  0  0  0  0  0  0  0
   10.8066  -16.7890   23.6066 C   0  0  1  0  0  0  0  0  0  0  0  0
   12.1789  -16.8504   22.9247 C   0  0  0  0  0  0  0  0  0  0  0  0
   13.2810  -16.9431   23.9570 C   0  0  0  0  0  0  0  0  0  0  0  0
   14.5437  -16.4095   23.3868 C   0  0  0  0  0  0  0  0  0  0  0  0
   14.6216  -15.9707   22.1960 O   0  0  0  0  0  0  0  0  0  0  0  0
   10.9869  -17.2331   24.9841 C   0  0  0  0  0  0  0  0  0  0  0  0
   11.3812  -18.4668   25.4135 O   0  0  0  0  0  0  0  0  0  0  0  0
   15.7284  -16.3574   24.1290 O   0  0  0  0  0  0  0  0  0  0  0  0
   10.7478  -16.3671   25.8891 O   0  0  0  0  0  0  0  0  0  0  0  0
  1  2  1  0
  2  3  1  0
  3  4  1  6
  5  3  1  0
  6  5  2  0
  7  8  1  0
  8 10  1  0
  9  8  2  0
 11 10  1  1
 11 13  1  0
 11 12  1  0
 12  5  1  0
 13 15  1  0
 14 13  2  0
 15 16  1  0
 16 21  1  0
 16 17  1  1
 18 17  1  0
 19 18  1  0
 20 19  2  0
 21 24  2  0
 21 22  1  0
 23 19  1  0
M  END
$$$$
