SNE.pdb
     RDKit          3D

 24 23  0  0  1  0  0  0  0  0999 V2000
    6.1514  -20.5582   21.2940 O   0  0  0  0  0  0  0  0  0  0  0  0
    7.1649  -20.9142   22.1861 C   0  0  0  0  0  0  0  0  0  0  0  0
    8.5020  -20.9734   21.5031 C   0  0  2  0  0  0  0  0  0  0  0  0
    8.4915  -21.8828   20.4029 N   0  0  0  0  0  0  0  0  0  0  0  0
    9.5226  -21.3440   22.5334 C   0  0  0  0  0  0  0  0  0  0  0  0
    9.5258  -22.4714   23.0911 O   0  0  0  0  0  0  0  0  0  0  0  0
   15.1390  -19.7636   24.1665 N   0  0  0  0  0  0  0  0  0  0  0  0
   13.9822  -20.5701   24.2506 C   0  0  0  0  0  0  0  0  0  0  0  0
   13.9631  -21.5088   25.0772 O   0  0  0  0  0  0  0  0  0  0  0  0
   12.8335  -20.3183   23.3956 C   0  0  0  0  0  0  0  0  0  0  0  0
   11.4959  -20.8166   23.9634 C   0  0  2  0  0  0  0  0  0  0  0  0
   10.5375  -20.4440   22.9334 N   0  0  0  0  0  0  0  0  0  0  0  0
   11.1683  -20.2219   25.2613 C   0  0  0  0  0  0  0  0  0  0  0  0
   11.1522  -18.9740   25.4014 O   0  0  0  0  0  0  0  0  0  0  0  0
   10.8541  -20.9888   26.4102 N   0  0  0  0  0  0  0  0  0  0  0  0
   10.7009  -20.3530   27.6738 C   0  0  1  0  0  0  0  0  0  0  0  0
   10.0675  -21.3125   28.6888 C   0  0  0  0  0  0  0  0  0  0  0  0
   10.9624  -22.5107   28.9167 C   0  0  0  0  0  0  0  0  0  0  0  0
   10.2806  -23.4783   29.8129 C   0  0  0  0  0  0  0  0  0  0  0  0
   10.7868  -24.6065   30.1086 O   0  0  0  0  0  0  0  0  0  0  0  0
   11.9131  -19.8169   28.2823 C   0  0  0  0  0  0  0  0  0  0  0  0
   13.1926  -19.9294   27.8217 O   0  0  0  0  0  0  0  0  0  0  0  0
    9.0349  -23.2053   30.3881 O   0  0  0  0  0  0  0  0  0  0  0  0
   11.7565  -19.1692   29.3695 O   0  0  0  0  0  0  0  0  0  0  0  0
  1  2  1  0
  2  3  1  0
  3  4  1  6
  5  3  1  0
  6  5  2  0
  7  8  1  0
  8 10  1  0
  9  8  2  0
 11 10  1  6
 11 13  1  0
 11 12  1  0
 12  5  1  0
 13 15  1  0
 14 13  2  0
 15 16  1  0
 16 21  1  0
 16 17  1  1
 18 17  1  0
 19 18  1  0
 20 19  2  0
 21 24  2  0
 21 22  1  0
 23 19  1  0
M  END
$$$$
