SNE.pdb
     RDKit          3D

 24 23  0  0  1  0  0  0  0  0999 V2000
    2.2357  -23.3079   22.9255 O   0  0  0  0  0  0  0  0  0  0  0  0
    3.5368  -22.9556   22.5612 C   0  0  0  0  0  0  0  0  0  0  0  0
    3.5449  -22.0431   21.3674 C   0  0  2  0  0  0  0  0  0  0  0  0
    2.6543  -22.4997   20.3496 N   0  0  0  0  0  0  0  0  0  0  0  0
    4.9569  -21.9441   20.8805 C   0  0  0  0  0  0  0  0  0  0  0  0
    5.6492  -22.9653   20.6357 O   0  0  0  0  0  0  0  0  0  0  0  0
    6.6571  -20.5827   16.9917 N   0  0  0  0  0  0  0  0  0  0  0  0
    6.1708  -19.7645   18.0357 C   0  0  0  0  0  0  0  0  0  0  0  0
    5.0265  -19.2710   17.9288 O   0  0  0  0  0  0  0  0  0  0  0  0
    6.9807  -19.4981   19.2135 C   0  0  0  0  0  0  0  0  0  0  0  0
    6.9795  -20.6268   20.2554 C   0  0  2  0  0  0  0  0  0  0  0  0
    5.5862  -20.6952   20.6706 N   0  0  0  0  0  0  0  0  0  0  0  0
    7.8776  -20.3657   21.3828 C   0  0  0  0  0  0  0  0  0  0  0  0
    9.0904  -20.1093   21.1814 O   0  0  0  0  0  0  0  0  0  0  0  0
    7.4530  -20.3812   22.7342 N   0  0  0  0  0  0  0  0  0  0  0  0
    8.4015  -20.2258   23.7831 C   0  0  1  0  0  0  0  0  0  0  0  0
    7.8453  -19.3156   24.8850 C   0  0  0  0  0  0  0  0  0  0  0  0
    7.3626  -18.0070   24.2993 C   0  0  0  0  0  0  0  0  0  0  0  0
    6.8031  -17.1545   25.3784 C   0  0  0  0  0  0  0  0  0  0  0  0
    6.7701  -17.5277   26.5934 O   0  0  0  0  0  0  0  0  0  0  0  0
    8.8656  -21.4502   24.4256 C   0  0  0  0  0  0  0  0  0  0  0  0
   10.1235  -21.9780   24.3954 O   0  0  0  0  0  0  0  0  0  0  0  0
    6.2765  -15.8841   25.1217 O   0  0  0  0  0  0  0  0  0  0  0  0
    7.9935  -22.1002   25.0913 O   0  0  0  0  0  0  0  0  0  0  0  0
  1  2  1  0
  2  3  1  0
  3  4  1  6
  5  3  1  0
  6  5  2  0
  7  8  1  0
  8 10  1  0
  9  8  2  0
 11 10  1  6
 11 13  1  0
 11 12  1  0
 12  5  1  0
 13 15  1  0
 14 13  2  0
 15 16  1  0
 16 21  1  0
 16 17  1  1
 18 17  1  0
 19 18  1  0
 20 19  2  0
 21 24  2  0
 21 22  1  0
 23 19  1  0
M  END
$$$$
