SNE.pdb
     RDKit          3D

 24 23  0  0  1  0  0  0  0  0999 V2000
   -0.1102  -27.6939   31.1549 O   0  0  0  0  0  0  0  0  0  0  0  0
   -0.4051  -26.4709   30.5491 C   0  0  0  0  0  0  0  0  0  0  0  0
   -1.3330  -26.6466   29.3803 C   0  0  2  0  0  0  0  0  0  0  0  0
   -0.6706  -27.2473   28.2677 N   0  0  0  0  0  0  0  0  0  0  0  0
   -1.8988  -25.3024   29.0431 C   0  0  0  0  0  0  0  0  0  0  0  0
   -1.2019  -24.2564   29.0906 O   0  0  0  0  0  0  0  0  0  0  0  0
   -3.6611  -22.0992   24.9429 N   0  0  0  0  0  0  0  0  0  0  0  0
   -3.5616  -22.2819   26.3403 C   0  0  0  0  0  0  0  0  0  0  0  0
   -3.7682  -21.3024   27.0903 O   0  0  0  0  0  0  0  0  0  0  0  0
   -3.2261  -23.5808   26.9008 C   0  0  0  0  0  0  0  0  0  0  0  0
   -3.7696  -23.8226   28.3170 C   0  0  2  0  0  0  0  0  0  0  0  0
   -3.2484  -25.1393   28.6534 N   0  0  0  0  0  0  0  0  0  0  0  0
   -5.2322  -23.7758   28.3842 C   0  0  0  0  0  0  0  0  0  0  0  0
   -5.9238  -24.5927   27.7273 O   0  0  0  0  0  0  0  0  0  0  0  0
   -5.9441  -22.8379   29.1718 N   0  0  0  0  0  0  0  0  0  0  0  0
   -7.3661  -22.8678   29.2073 C   0  0  1  0  0  0  0  0  0  0  0  0
   -7.8635  -24.1514   29.8832 C   0  0  0  0  0  0  0  0  0  0  0  0
   -7.4389  -24.1859   31.3347 C   0  0  0  0  0  0  0  0  0  0  0  0
   -7.9925  -25.3994   31.9869 C   0  0  0  0  0  0  0  0  0  0  0  0
   -8.8288  -26.1624   31.4083 O   0  0  0  0  0  0  0  0  0  0  0  0
   -8.0227  -21.7466   29.8699 C   0  0  0  0  0  0  0  0  0  0  0  0
   -9.3545  -21.4500   29.8750 O   0  0  0  0  0  0  0  0  0  0  0  0
   -7.6253  -25.7773   33.2829 O   0  0  0  0  0  0  0  0  0  0  0  0
   -7.2626  -20.9541   30.5183 O   0  0  0  0  0  0  0  0  0  0  0  0
  1  2  1  0
  2  3  1  0
  3  4  1  6
  5  3  1  0
  6  5  2  0
  7  8  1  0
  8 10  1  0
  9  8  2  0
 11 10  1  6
 11 13  1  0
 11 12  1  0
 12  5  1  0
 13 15  1  0
 14 13  2  0
 15 16  1  0
 16 21  1  0
 16 17  1  1
 18 17  1  0
 19 18  1  0
 20 19  2  0
 21 24  2  0
 21 22  1  0
 23 19  1  0
M  END
$$$$
