SNE.pdb
     RDKit          3D

 24 23  0  0  1  0  0  0  0  0999 V2000
    8.2383  -17.4330   20.4035 O   0  0  0  0  0  0  0  0  0  0  0  0
    7.1824  -16.6058   20.0156 C   0  0  0  0  0  0  0  0  0  0  0  0
    7.5795  -15.1569   20.0474 C   0  0  2  0  0  0  0  0  0  0  0  0
    8.4991  -14.8399   19.0027 N   0  0  0  0  0  0  0  0  0  0  0  0
    8.1437  -14.8699   21.4038 C   0  0  0  0  0  0  0  0  0  0  0  0
    9.3830  -14.8464   21.6174 O   0  0  0  0  0  0  0  0  0  0  0  0
    5.9801  -12.7182   26.7664 N   0  0  0  0  0  0  0  0  0  0  0  0
    6.9985  -13.1604   25.8928 C   0  0  0  0  0  0  0  0  0  0  0  0
    8.1903  -13.0562   26.2580 O   0  0  0  0  0  0  0  0  0  0  0  0
    6.6731  -13.7262   24.5936 C   0  0  0  0  0  0  0  0  0  0  0  0
    7.8844  -14.2439   23.8034 C   0  0  2  0  0  0  0  0  0  0  0  0
    7.3108  -14.6102   22.5168 N   0  0  0  0  0  0  0  0  0  0  0  0
    8.5491  -15.3766   24.4522 C   0  0  0  0  0  0  0  0  0  0  0  0
    7.9610  -16.4811   24.5588 O   0  0  0  0  0  0  0  0  0  0  0  0
    9.8602  -15.3071   24.9844 N   0  0  0  0  0  0  0  0  0  0  0  0
   10.4222  -16.4325   25.6491 C   0  0  1  0  0  0  0  0  0  0  0  0
   11.9277  -16.5277   25.3728 C   0  0  0  0  0  0  0  0  0  0  0  0
   12.1948  -16.5345   23.8838 C   0  0  0  0  0  0  0  0  0  0  0  0
   13.6592  -16.5586   23.6405 C   0  0  0  0  0  0  0  0  0  0  0  0
   14.5069  -16.5808   24.5878 O   0  0  0  0  0  0  0  0  0  0  0  0
   10.2426  -16.4887   27.0954 C   0  0  0  0  0  0  0  0  0  0  0  0
    9.6042  -15.5802   27.8884 O   0  0  0  0  0  0  0  0  0  0  0  0
   14.1961  -16.5583   22.3487 O   0  0  0  0  0  0  0  0  0  0  0  0
   10.7404  -17.5046   27.6840 O   0  0  0  0  0  0  0  0  0  0  0  0
  1  2  1  0
  2  3  1  0
  3  4  1  6
  5  3  1  0
  6  5  2  0
  7  8  1  0
  8 10  1  0
  9  8  2  0
 11 10  1  1
 11 13  1  0
 11 12  1  0
 12  5  1  0
 13 15  1  0
 14 13  2  0
 15 16  1  0
 16 21  1  0
 16 17  1  1
 18 17  1  0
 19 18  1  0
 20 19  2  0
 21 24  2  0
 21 22  1  0
 23 19  1  0
M  END
$$$$
