SNE.pdb
     RDKit          3D

 24 23  0  0  1  0  0  0  0  0999 V2000
    7.4298  -13.2488   14.7623 O   0  0  0  0  0  0  0  0  0  0  0  0
    7.8929  -13.2443   16.0796 C   0  0  0  0  0  0  0  0  0  0  0  0
    8.7810  -14.4249   16.3536 C   0  0  2  0  0  0  0  0  0  0  0  0
    8.4832  -15.5201   15.4879 N   0  0  0  0  0  0  0  0  0  0  0  0
    8.6237  -14.7866   17.7976 C   0  0  0  0  0  0  0  0  0  0  0  0
    8.8750  -13.9686   18.7194 O   0  0  0  0  0  0  0  0  0  0  0  0
    7.6450  -17.6692   22.0952 N   0  0  0  0  0  0  0  0  0  0  0  0
    6.9514  -18.1707   20.9713 C   0  0  0  0  0  0  0  0  0  0  0  0
    6.1230  -19.0928   21.1389 O   0  0  0  0  0  0  0  0  0  0  0  0
    7.1917  -17.6289   19.6436 C   0  0  0  0  0  0  0  0  0  0  0  0
    8.1600  -16.4370   19.6082 C   0  0  2  0  0  0  0  0  0  0  0  0
    8.1836  -16.0689   18.2003 N   0  0  0  0  0  0  0  0  0  0  0  0
    9.4946  -16.7689   20.1129 C   0  0  0  0  0  0  0  0  0  0  0  0
   10.0631  -17.8293   19.7534 O   0  0  0  0  0  0  0  0  0  0  0  0
   10.2138  -15.9414   21.0100 N   0  0  0  0  0  0  0  0  0  0  0  0
   11.4770  -16.3609   21.5126 C   0  0  1  0  0  0  0  0  0  0  0  0
   12.5144  -15.2401   21.3721 C   0  0  0  0  0  0  0  0  0  0  0  0
   13.4264  -15.5054   20.1946 C   0  0  0  0  0  0  0  0  0  0  0  0
   14.4869  -14.4677   20.1423 C   0  0  0  0  0  0  0  0  0  0  0  0
   14.5770  -13.6332   19.1874 O   0  0  0  0  0  0  0  0  0  0  0  0
   11.5077  -16.8083   22.9004 C   0  0  0  0  0  0  0  0  0  0  0  0
   12.5198  -17.4637   23.5390 O   0  0  0  0  0  0  0  0  0  0  0  0
   15.4547  -14.3457   21.1451 O   0  0  0  0  0  0  0  0  0  0  0  0
   10.4679  -16.5567   23.5946 O   0  0  0  0  0  0  0  0  0  0  0  0
  1  2  1  0
  2  3  1  0
  3  4  1  6
  5  3  1  0
  6  5  2  0
  7  8  1  0
  8 10  1  0
  9  8  2  0
 11 10  1  6
 11 13  1  0
 11 12  1  0
 12  5  1  0
 13 15  1  0
 14 13  2  0
 15 16  1  0
 16 21  1  0
 16 17  1  1
 18 17  1  0
 19 18  1  0
 20 19  2  0
 21 24  2  0
 21 22  1  0
 23 19  1  0
M  END
$$$$
