SNE.pdb
     RDKit          3D

 24 23  0  0  1  0  0  0  0  0999 V2000
    8.1029  -19.2512   23.7296 O   0  0  0  0  0  0  0  0  0  0  0  0
    7.2507  -19.1522   22.6279 C   0  0  0  0  0  0  0  0  0  0  0  0
    7.6451  -20.1114   21.5406 C   0  0  2  0  0  0  0  0  0  0  0  0
    7.5941  -21.4656   21.9891 N   0  0  0  0  0  0  0  0  0  0  0  0
    9.0108  -19.7239   21.0660 C   0  0  0  0  0  0  0  0  0  0  0  0
    9.9771  -20.5287   21.0916 O   0  0  0  0  0  0  0  0  0  0  0  0
   12.6798  -17.8152   18.1187 N   0  0  0  0  0  0  0  0  0  0  0  0
   11.3692  -17.5529   17.6612 C   0  0  0  0  0  0  0  0  0  0  0  0
   11.2055  -17.2175   16.4673 O   0  0  0  0  0  0  0  0  0  0  0  0
   10.2294  -17.6692   18.5564 C   0  0  0  0  0  0  0  0  0  0  0  0
   10.5827  -18.1209   19.9814 C   0  0  2  0  0  0  0  0  0  0  0  0
    9.2853  -18.4307   20.5637 N   0  0  0  0  0  0  0  0  0  0  0  0
   11.2985  -17.0963   20.7454 C   0  0  0  0  0  0  0  0  0  0  0  0
   10.6780  -16.1190   21.2324 O   0  0  0  0  0  0  0  0  0  0  0  0
   12.6945  -17.1375   20.9824 N   0  0  0  0  0  0  0  0  0  0  0  0
   13.2185  -16.7240   22.2388 C   0  0  1  0  0  0  0  0  0  0  0  0
   12.6148  -17.5560   23.3770 C   0  0  0  0  0  0  0  0  0  0  0  0
   13.1035  -17.0545   24.7180 C   0  0  0  0  0  0  0  0  0  0  0  0
   12.5729  -17.9240   25.7983 C   0  0  0  0  0  0  0  0  0  0  0  0
   12.1833  -19.1152   25.5846 O   0  0  0  0  0  0  0  0  0  0  0  0
   14.6687  -16.7758   22.3863 C   0  0  0  0  0  0  0  0  0  0  0  0
   15.5073  -17.7789   21.9960 O   0  0  0  0  0  0  0  0  0  0  0  0
   12.4696  -17.4824   27.1217 O   0  0  0  0  0  0  0  0  0  0  0  0
   15.2127  -15.7664   22.9444 O   0  0  0  0  0  0  0  0  0  0  0  0
  1  2  1  0
  2  3  1  0
  3  4  1  1
  5  3  1  0
  6  5  2  0
  7  8  1  0
  8 10  1  0
  9  8  2  0
 11 10  1  6
 11 13  1  0
 11 12  1  0
 12  5  1  0
 13 15  1  0
 14 13  2  0
 15 16  1  0
 16 21  1  0
 16 17  1  1
 18 17  1  0
 19 18  1  0
 20 19  2  0
 21 24  2  0
 21 22  1  0
 23 19  1  0
M  END
$$$$
