SNE.pdb
     RDKit          3D

 24 23  0  0  1  0  0  0  0  0999 V2000
   15.2945  -16.3755   18.0886 O   0  0  0  0  0  0  0  0  0  0  0  0
   14.3330  -15.7659   17.2801 C   0  0  0  0  0  0  0  0  0  0  0  0
   14.0306  -14.3692   17.7444 C   0  0  2  0  0  0  0  0  0  0  0  0
   15.1315  -13.4892   17.5187 N   0  0  0  0  0  0  0  0  0  0  0  0
   13.6529  -14.4430   19.1910 C   0  0  0  0  0  0  0  0  0  0  0  0
   14.4383  -14.0776   20.1030 O   0  0  0  0  0  0  0  0  0  0  0  0
    9.2569  -14.3466   22.9830 N   0  0  0  0  0  0  0  0  0  0  0  0
    9.9104  -15.3920   22.2930 C   0  0  0  0  0  0  0  0  0  0  0  0
    9.9637  -16.5223   22.8260 O   0  0  0  0  0  0  0  0  0  0  0  0
   10.5107  -15.1638   20.9885 C   0  0  0  0  0  0  0  0  0  0  0  0
   12.0305  -14.9428   21.0172 C   0  0  2  0  0  0  0  0  0  0  0  0
   12.3915  -14.9283   19.6073 N   0  0  0  0  0  0  0  0  0  0  0  0
   12.7463  -15.9843   21.7580 C   0  0  0  0  0  0  0  0  0  0  0  0
   12.8220  -17.1509   21.2992 O   0  0  0  0  0  0  0  0  0  0  0  0
   13.3844  -15.7539   23.0016 N   0  0  0  0  0  0  0  0  0  0  0  0
   13.9712  -16.8360   23.7149 C   0  0  1  0  0  0  0  0  0  0  0  0
   15.4286  -16.5205   24.0735 C   0  0  0  0  0  0  0  0  0  0  0  0
   16.2279  -16.2144   22.8261 C   0  0  0  0  0  0  0  0  0  0  0  0
   17.6305  -15.9001   23.1980 C   0  0  0  0  0  0  0  0  0  0  0  0
   18.0418  -15.9396   24.4004 O   0  0  0  0  0  0  0  0  0  0  0  0
   13.3007  -17.2428   24.9446 C   0  0  0  0  0  0  0  0  0  0  0  0
   13.5872  -18.3225   25.7281 O   0  0  0  0  0  0  0  0  0  0  0  0
   18.5876  -15.5401   22.2432 O   0  0  0  0  0  0  0  0  0  0  0  0
   12.3362  -16.5026   25.3295 O   0  0  0  0  0  0  0  0  0  0  0  0
  1  2  1  0
  2  3  1  0
  3  4  1  1
  5  3  1  0
  6  5  2  0
  7  8  1  0
  8 10  1  0
  9  8  2  0
 11 10  1  6
 11 13  1  0
 11 12  1  0
 12  5  1  0
 13 15  1  0
 14 13  2  0
 15 16  1  0
 16 21  1  0
 16 17  1  1
 18 17  1  0
 19 18  1  0
 20 19  2  0
 21 24  2  0
 21 22  1  0
 23 19  1  0
M  END
$$$$
