SNE.pdb
     RDKit          3D

 24 23  0  0  1  0  0  0  0  0999 V2000
   10.7072  -14.1598   17.6370 O   0  0  0  0  0  0  0  0  0  0  0  0
    9.3402  -14.4058   17.4937 C   0  0  0  0  0  0  0  0  0  0  0  0
    8.5289  -13.5650   18.4386 C   0  0  2  0  0  0  0  0  0  0  0  0
    8.7906  -12.1730   18.2622 N   0  0  0  0  0  0  0  0  0  0  0  0
    8.8311  -14.0254   19.8305 C   0  0  0  0  0  0  0  0  0  0  0  0
    9.6575  -13.4255   20.5648 O   0  0  0  0  0  0  0  0  0  0  0  0
    5.8880  -14.7703   21.7685 N   0  0  0  0  0  0  0  0  0  0  0  0
    6.1273  -16.1451   21.9885 C   0  0  0  0  0  0  0  0  0  0  0  0
    5.1481  -16.9087   22.1393 O   0  0  0  0  0  0  0  0  0  0  0  0
    7.4832  -16.6675   22.0395 C   0  0  0  0  0  0  0  0  0  0  0  0
    8.5750  -15.6365   21.7161 C   0  0  2  0  0  0  0  0  0  0  0  0
    8.2019  -15.1605   20.3923 N   0  0  0  0  0  0  0  0  0  0  0  0
    9.9242  -16.2067   21.7361 C   0  0  0  0  0  0  0  0  0  0  0  0
   10.4092  -16.7250   20.7001 O   0  0  0  0  0  0  0  0  0  0  0  0
   10.7494  -16.2097   22.8876 N   0  0  0  0  0  0  0  0  0  0  0  0
   12.1119  -16.6075   22.7892 C   0  0  1  0  0  0  0  0  0  0  0  0
   12.8997  -15.6267   21.9120 C   0  0  0  0  0  0  0  0  0  0  0  0
   14.3252  -16.1010   21.7339 C   0  0  0  0  0  0  0  0  0  0  0  0
   15.0699  -15.1339   20.8887 C   0  0  0  0  0  0  0  0  0  0  0  0
   15.4246  -13.9894   21.3140 O   0  0  0  0  0  0  0  0  0  0  0  0
   12.8400  -16.7465   24.0453 C   0  0  0  0  0  0  0  0  0  0  0  0
   14.0260  -17.3893   24.2504 O   0  0  0  0  0  0  0  0  0  0  0  0
   15.4275  -15.4255   19.5680 O   0  0  0  0  0  0  0  0  0  0  0  0
   12.3046  -16.2040   25.0677 O   0  0  0  0  0  0  0  0  0  0  0  0
  1  2  1  0
  2  3  1  0
  3  4  1  1
  5  3  1  0
  6  5  2  0
  7  8  1  0
  8 10  1  0
  9  8  2  0
 11 10  1  6
 11 13  1  0
 11 12  1  0
 12  5  1  0
 13 15  1  0
 14 13  2  0
 15 16  1  0
 16 21  1  0
 16 17  1  6
 18 17  1  0
 19 18  1  0
 20 19  2  0
 21 24  2  0
 21 22  1  0
 23 19  1  0
M  END
$$$$
