SNE.pdb
     RDKit          3D

 24 23  0  0  1  0  0  0  0  0999 V2000
    8.8672  -15.2015   17.4520 O   0  0  0  0  0  0  0  0  0  0  0  0
    7.6187  -14.7933   17.9255 C   0  0  0  0  0  0  0  0  0  0  0  0
    7.7015  -13.4605   18.6144 C   0  0  2  0  0  0  0  0  0  0  0  0
    8.1646  -12.4392   17.7314 N   0  0  0  0  0  0  0  0  0  0  0  0
    8.5892  -13.6207   19.8089 C   0  0  0  0  0  0  0  0  0  0  0  0
    9.7631  -13.1695   19.8305 O   0  0  0  0  0  0  0  0  0  0  0  0
   10.1430  -15.0016   24.6555 N   0  0  0  0  0  0  0  0  0  0  0  0
    8.7372  -15.0710   24.5345 C   0  0  0  0  0  0  0  0  0  0  0  0
    8.0618  -15.3754   25.5423 O   0  0  0  0  0  0  0  0  0  0  0  0
    8.0832  -14.7947   23.2656 C   0  0  0  0  0  0  0  0  0  0  0  0
    9.0425  -14.4458   22.1178 C   0  0  2  0  0  0  0  0  0  0  0  0
    8.1529  -14.2888   20.9765 N   0  0  0  0  0  0  0  0  0  0  0  0
   10.0574  -15.4766   21.8870 C   0  0  0  0  0  0  0  0  0  0  0  0
    9.7164  -16.6420   21.5665 O   0  0  0  0  0  0  0  0  0  0  0  0
   11.4487  -15.2367   22.0027 N   0  0  0  0  0  0  0  0  0  0  0  0
   12.3758  -16.2968   21.8010 C   0  0  1  0  0  0  0  0  0  0  0  0
   13.2334  -16.0360   20.5566 C   0  0  0  0  0  0  0  0  0  0  0  0
   13.7015  -14.5978   20.5264 C   0  0  0  0  0  0  0  0  0  0  0  0
   14.6166  -14.3958   19.3748 C   0  0  0  0  0  0  0  0  0  0  0  0
   15.7795  -14.9079   19.3306 O   0  0  0  0  0  0  0  0  0  0  0  0
   13.2873  -16.5810   22.9036 C   0  0  0  0  0  0  0  0  0  0  0  0
   14.2179  -17.5763   22.9757 O   0  0  0  0  0  0  0  0  0  0  0  0
   14.2523  -13.6266   18.2645 O   0  0  0  0  0  0  0  0  0  0  0  0
   13.2026  -15.8092   23.9153 O   0  0  0  0  0  0  0  0  0  0  0  0
  1  2  1  0
  2  3  1  0
  3  4  1  6
  5  3  1  0
  6  5  2  0
  7  8  1  0
  8 10  1  0
  9  8  2  0
 11 10  1  1
 11 13  1  0
 11 12  1  0
 12  5  1  0
 13 15  1  0
 14 13  2  0
 15 16  1  0
 16 21  1  0
 16 17  1  6
 18 17  1  0
 19 18  1  0
 20 19  2  0
 21 24  2  0
 21 22  1  0
 23 19  1  0
M  END
$$$$
