SNE.pdb
     RDKit          3D

 24 23  0  0  1  0  0  0  0  0999 V2000
   10.4081  -18.5163   13.8777 O   0  0  0  0  0  0  0  0  0  0  0  0
   10.8500  -17.7165   14.9336 C   0  0  0  0  0  0  0  0  0  0  0  0
   10.7812  -16.2570   14.5832 C   0  0  2  0  0  0  0  0  0  0  0  0
   11.8388  -15.8763   13.7034 N   0  0  0  0  0  0  0  0  0  0  0  0
   10.8031  -15.4808   15.8629 C   0  0  0  0  0  0  0  0  0  0  0  0
   11.8743  -15.0474   16.3597 O   0  0  0  0  0  0  0  0  0  0  0  0
    8.1457  -12.2164   19.7344 N   0  0  0  0  0  0  0  0  0  0  0  0
    7.9379  -13.5802   19.4299 C   0  0  0  0  0  0  0  0  0  0  0  0
    7.5166  -14.3393   20.3304 O   0  0  0  0  0  0  0  0  0  0  0  0
    8.2068  -14.0964   18.0975 C   0  0  0  0  0  0  0  0  0  0  0  0
    9.6728  -14.4812   17.8479 C   0  0  2  0  0  0  0  0  0  0  0  0
    9.6185  -15.1945   16.5803 N   0  0  0  0  0  0  0  0  0  0  0  0
   10.2386  -15.3046   18.9192 C   0  0  0  0  0  0  0  0  0  0  0  0
    9.8451  -16.4854   19.0868 O   0  0  0  0  0  0  0  0  0  0  0  0
   11.2386  -14.8415   19.8093 N   0  0  0  0  0  0  0  0  0  0  0  0
   11.6582  -15.6550   20.8984 C   0  0  1  0  0  0  0  0  0  0  0  0
   13.1782  -15.5686   21.0840 C   0  0  0  0  0  0  0  0  0  0  0  0
   13.7144  -14.2880   20.4829 C   0  0  0  0  0  0  0  0  0  0  0  0
   15.1968  -14.2823   20.5639 C   0  0  0  0  0  0  0  0  0  0  0  0
   15.8226  -14.6113   21.6206 O   0  0  0  0  0  0  0  0  0  0  0  0
   11.0470  -15.3736   22.1924 C   0  0  0  0  0  0  0  0  0  0  0  0
   10.1244  -14.4111   22.4827 O   0  0  0  0  0  0  0  0  0  0  0  0
   15.9972  -13.9129   19.4776 O   0  0  0  0  0  0  0  0  0  0  0  0
   11.4193  -16.1134   23.1621 O   0  0  0  0  0  0  0  0  0  0  0  0
  1  2  1  0
  2  3  1  0
  3  4  1  6
  5  3  1  0
  6  5  2  0
  7  8  1  0
  8 10  1  0
  9  8  2  0
 11 10  1  1
 11 13  1  0
 11 12  1  0
 12  5  1  0
 13 15  1  0
 14 13  2  0
 15 16  1  0
 16 21  1  0
 16 17  1  1
 18 17  1  0
 19 18  1  0
 20 19  2  0
 21 24  2  0
 21 22  1  0
 23 19  1  0
M  END
$$$$
