QKP.pdb
     RDKit          3D

 26 26  0  0  1  0  0  0  0  0999 V2000
   10.3208  -24.1537   -2.1411 N   0  0  0  0  0  0  0  0  0  0  0  0
   11.2531  -24.5437   -1.1213 C   0  0  0  0  0  0  0  0  0  0  0  0
   10.7649  -24.7479    0.0128 O   0  0  0  0  0  0  0  0  0  0  0  0
   12.6803  -24.6748   -1.4489 C   0  0  0  0  0  0  0  0  0  0  0  0
   13.6434  -24.0687   -0.5029 C   0  0  0  0  0  0  0  0  0  0  0  0
   14.1511  -22.7170   -0.8785 C   0  0  2  0  0  0  0  0  0  0  0  0
   14.7516  -22.6386   -2.1673 N   0  0  0  0  0  0  0  0  0  0  0  0
   15.0148  -22.1615    0.2008 C   0  0  0  0  0  0  0  0  0  0  0  0
   16.2210  -22.4576    0.2041 O   0  0  0  0  0  0  0  0  0  0  0  0
   14.5248  -21.3106    1.2254 N   0  0  0  0  0  0  0  0  0  0  0  0
   15.4072  -20.7361    2.2215 C   0  0  1  0  0  0  0  0  0  0  0  0
   14.7893  -19.4554    2.7199 C   0  0  0  0  0  0  0  0  0  0  0  0
   15.5582  -18.6991    3.7338 C   0  0  0  0  0  0  0  0  0  0  0  0
   14.8804  -17.4392    4.2169 C   0  0  0  0  0  0  0  0  0  0  0  0
   15.7879  -16.7230    5.2121 C   0  0  0  0  0  0  0  0  0  0  0  0
   15.1958  -15.4687    5.6395 N   0  0  0  0  0  0  0  0  0  0  0  0
   15.7702  -21.6700    3.2772 C   0  0  0  0  0  0  0  0  0  0  0  0
   14.8814  -22.5483    3.5653 O   0  0  0  0  0  0  0  0  0  0  0  0
   16.9604  -21.7209    4.0050 N   0  0  0  0  0  0  0  0  0  0  0  0
   18.0952  -20.7965    3.6876 C   0  0  0  0  0  0  0  0  0  0  0  0
   19.2949  -21.6852    3.8232 C   0  0  0  0  0  0  0  0  0  0  0  0
   18.9198  -22.6894    4.8582 C   0  0  0  0  0  0  0  0  0  0  0  0
   17.4482  -22.5060    5.1104 C   0  0  1  0  0  0  0  0  0  0  0  0
   17.2366  -21.8343    6.4116 C   0  0  0  0  0  0  0  0  0  0  0  0
   17.2865  -22.5813    7.5646 O   0  0  0  0  0  0  0  0  0  0  0  0
   17.0179  -20.6118    6.4436 O   0  0  0  0  0  0  0  0  0  0  0  0
  2  1  1  0
  2  3  2  0
  4  5  1  0
  4  2  1  0
  6  7  1  6
  6  5  1  0
  8  6  1  0
  8  9  2  0
 10  8  1  0
 11 10  1  0
 12 13  1  0
 11 12  1  1
 13 14  1  0
 14 15  1  0
 16 15  1  0
 17 11  1  0
 18 17  2  0
 19 17  1  0
 19 23  1  0
 20 19  1  0
 20 21  1  0
 21 22  1  0
 23 22  1  0
 24 25  1  0
 23 24  1  1
 26 24  2  0
M  END
$$$$
