QKP.pdb
     RDKit          3D

 26 26  0  0  1  0  0  0  0  0999 V2000
   21.3411  -23.8345  -17.4114 N   0  0  0  0  0  0  0  0  0  0  0  0
   21.6704  -25.2309  -17.4660 C   0  0  0  0  0  0  0  0  0  0  0  0
   20.9119  -25.9419  -18.1625 O   0  0  0  0  0  0  0  0  0  0  0  0
   22.8362  -25.7352  -16.7255 C   0  0  0  0  0  0  0  0  0  0  0  0
   23.6369  -24.7402  -15.9779 C   0  0  0  0  0  0  0  0  0  0  0  0
   25.0146  -24.5005  -16.4978 C   0  0  2  0  0  0  0  0  0  0  0  0
   25.8122  -25.6709  -16.6449 N   0  0  0  0  0  0  0  0  0  0  0  0
   25.6922  -23.4288  -15.7157 C   0  0  0  0  0  0  0  0  0  0  0  0
   26.2515  -23.7377  -14.6507 O   0  0  0  0  0  0  0  0  0  0  0  0
   25.7288  -22.0719  -16.1296 N   0  0  0  0  0  0  0  0  0  0  0  0
   25.9229  -20.9938  -15.1804 C   0  0  1  0  0  0  0  0  0  0  0  0
   25.9153  -19.6901  -15.9358 C   0  0  0  0  0  0  0  0  0  0  0  0
   26.0269  -18.4550  -15.1275 C   0  0  0  0  0  0  0  0  0  0  0  0
   25.9870  -17.1783  -15.9329 C   0  0  0  0  0  0  0  0  0  0  0  0
   26.1970  -15.9853  -15.0057 C   0  0  0  0  0  0  0  0  0  0  0  0
   26.2149  -14.7444  -15.7584 N   0  0  0  0  0  0  0  0  0  0  0  0
   24.9930  -21.0367  -14.0615 C   0  0  0  0  0  0  0  0  0  0  0  0
   23.8039  -21.4219  -14.3479 O   0  0  0  0  0  0  0  0  0  0  0  0
   25.2418  -20.7111  -12.7270 N   0  0  0  0  0  0  0  0  0  0  0  0
   26.4957  -19.9938  -12.3320 C   0  0  0  0  0  0  0  0  0  0  0  0
   26.8850  -20.6827  -11.0587 C   0  0  0  0  0  0  0  0  0  0  0  0
   25.5996  -21.1194  -10.4443 C   0  0  0  0  0  0  0  0  0  0  0  0
   24.5363  -20.8915  -11.4836 C   0  0  1  0  0  0  0  0  0  0  0  0
   23.7215  -19.7098  -11.1248 C   0  0  0  0  0  0  0  0  0  0  0  0
   22.7371  -19.8410  -10.1741 O   0  0  0  0  0  0  0  0  0  0  0  0
   23.9371  -18.6219  -11.6846 O   0  0  0  0  0  0  0  0  0  0  0  0
  2  1  1  0
  2  3  2  0
  4  5  1  0
  4  2  1  0
  6  7  1  1
  6  5  1  0
  8  6  1  0
  8  9  2  0
 10  8  1  0
 11 10  1  0
 12 13  1  0
 11 12  1  6
 13 14  1  0
 14 15  1  0
 16 15  1  0
 17 11  1  0
 18 17  2  0
 19 17  1  0
 19 23  1  0
 20 19  1  0
 20 21  1  0
 21 22  1  0
 23 22  1  0
 24 25  1  0
 23 24  1  1
 26 24  2  0
M  END
$$$$
