QKP.pdb
     RDKit          3D

 26 26  0  0  1  0  0  0  0  0999 V2000
   26.5197  -18.7875  -16.7919 N   0  0  0  0  0  0  0  0  0  0  0  0
   27.7643  -19.4973  -16.6998 C   0  0  0  0  0  0  0  0  0  0  0  0
   28.7918  -18.7866  -16.6277 O   0  0  0  0  0  0  0  0  0  0  0  0
   27.7674  -20.9675  -16.6986 C   0  0  0  0  0  0  0  0  0  0  0  0
   26.4519  -21.6405  -16.7787 C   0  0  0  0  0  0  0  0  0  0  0  0
   25.6454  -21.6296  -15.5236 C   0  0  2  0  0  0  0  0  0  0  0  0
   25.6151  -22.8670  -14.8194 N   0  0  0  0  0  0  0  0  0  0  0  0
   24.2879  -21.0703  -15.7761 C   0  0  0  0  0  0  0  0  0  0  0  0
   23.6876  -21.4176  -16.8064 O   0  0  0  0  0  0  0  0  0  0  0  0
   23.6484  -20.1594  -14.8956 N   0  0  0  0  0  0  0  0  0  0  0  0
   22.3207  -19.6457  -15.1680 C   0  0  1  0  0  0  0  0  0  0  0  0
   21.5769  -19.5385  -13.8620 C   0  0  0  0  0  0  0  0  0  0  0  0
   21.2087  -20.8116  -13.2024 C   0  0  0  0  0  0  0  0  0  0  0  0
   20.1764  -21.6231  -13.9479 C   0  0  0  0  0  0  0  0  0  0  0  0
   19.8166  -22.8610  -13.1323 C   0  0  0  0  0  0  0  0  0  0  0  0
   18.8142  -23.6562  -13.8173 N   0  0  0  0  0  0  0  0  0  0  0  0
   22.3268  -18.4182  -15.9500 C   0  0  0  0  0  0  0  0  0  0  0  0
   23.2209  -17.5599  -15.6209 O   0  0  0  0  0  0  0  0  0  0  0  0
   21.4820  -18.0696  -17.0053 N   0  0  0  0  0  0  0  0  0  0  0  0
   20.3927  -18.9939  -17.4548 C   0  0  0  0  0  0  0  0  0  0  0  0
   20.4481  -18.8706  -18.9478 C   0  0  0  0  0  0  0  0  0  0  0  0
   20.9201  -17.4810  -19.2059 C   0  0  0  0  0  0  0  0  0  0  0  0
   21.3531  -16.9285  -17.8755 C   0  0  1  0  0  0  0  0  0  0  0  0
   20.3537  -15.9562  -17.3806 C   0  0  0  0  0  0  0  0  0  0  0  0
   20.2642  -14.7245  -17.9848 O   0  0  0  0  0  0  0  0  0  0  0  0
   19.6138  -16.2647  -16.4316 O   0  0  0  0  0  0  0  0  0  0  0  0
  2  1  1  0
  2  3  2  0
  4  5  1  0
  4  2  1  0
  6  7  1  6
  6  5  1  0
  8  6  1  0
  8  9  2  0
 10  8  1  0
 11 10  1  0
 12 13  1  0
 11 12  1  1
 13 14  1  0
 14 15  1  0
 16 15  1  0
 17 11  1  0
 18 17  2  0
 19 17  1  0
 19 23  1  0
 20 19  1  0
 20 21  1  0
 21 22  1  0
 23 22  1  0
 24 25  1  0
 23 24  1  1
 26 24  2  0
M  END
$$$$
