QKP.pdb
     RDKit          3D

 26 26  0  0  1  0  0  0  0  0999 V2000
   13.2370   -8.5721   -7.7678 N   0  0  0  0  0  0  0  0  0  0  0  0
   13.1683   -7.1915   -8.1557 C   0  0  0  0  0  0  0  0  0  0  0  0
   12.0795   -6.6169   -7.9316 O   0  0  0  0  0  0  0  0  0  0  0  0
   14.3362   -6.5491   -8.7763 C   0  0  0  0  0  0  0  0  0  0  0  0
   15.5544   -7.3756   -8.9271 C   0  0  0  0  0  0  0  0  0  0  0  0
   15.4819   -8.4463   -9.9635 C   0  0  2  0  0  0  0  0  0  0  0  0
   15.1576   -9.7409   -9.4668 N   0  0  0  0  0  0  0  0  0  0  0  0
   16.7054   -8.4387  -10.8133 C   0  0  0  0  0  0  0  0  0  0  0  0
   17.7728   -8.8342  -10.3167 O   0  0  0  0  0  0  0  0  0  0  0  0
   16.7093   -8.0007  -12.1632 N   0  0  0  0  0  0  0  0  0  0  0  0
   17.9013   -8.0814  -12.9839 C   0  0  1  0  0  0  0  0  0  0  0  0
   17.5690   -8.8663  -14.2264 C   0  0  0  0  0  0  0  0  0  0  0  0
   18.6450   -8.9984  -15.2345 C   0  0  0  0  0  0  0  0  0  0  0  0
   18.2339   -9.7265  -16.4918 C   0  0  0  0  0  0  0  0  0  0  0  0
   19.4358   -9.8527  -17.4226 C   0  0  0  0  0  0  0  0  0  0  0  0
   19.0511  -10.4642  -18.6814 N   0  0  0  0  0  0  0  0  0  0  0  0
   18.5096   -6.7853  -13.2457 C   0  0  0  0  0  0  0  0  0  0  0  0
   17.6900   -5.8067  -13.3678 O   0  0  0  0  0  0  0  0  0  0  0  0
   19.8667   -6.4861  -13.3779 N   0  0  0  0  0  0  0  0  0  0  0  0
   20.8996   -7.5700  -13.3413 C   0  0  0  0  0  0  0  0  0  0  0  0
   22.0003   -6.9522  -12.5326 C   0  0  0  0  0  0  0  0  0  0  0  0
   21.9148   -5.4910  -12.8117 C   0  0  0  0  0  0  0  0  0  0  0  0
   20.6324   -5.2806  -13.5693 C   0  0  1  0  0  0  0  0  0  0  0  0
   20.9232   -5.0218  -14.9966 C   0  0  0  0  0  0  0  0  0  0  0  0
   20.7448   -6.0348  -15.9088 O   0  0  0  0  0  0  0  0  0  0  0  0
   21.3222   -3.8992  -15.3487 O   0  0  0  0  0  0  0  0  0  0  0  0
  2  1  1  0
  2  3  2  0
  4  5  1  0
  4  2  1  0
  6  7  1  1
  6  5  1  0
  8  6  1  0
  8  9  2  0
 10  8  1  0
 11 10  1  0
 12 13  1  0
 11 12  1  6
 13 14  1  0
 14 15  1  0
 16 15  1  0
 17 11  1  0
 18 17  2  0
 19 17  1  0
 19 23  1  0
 20 19  1  0
 20 21  1  0
 21 22  1  0
 23 22  1  0
 24 25  1  0
 23 24  1  6
 26 24  2  0
M  END
$$$$
