QKP.pdb
     RDKit          3D

 26 26  0  0  1  0  0  0  0  0999 V2000
   29.5493  -20.5087  -17.8439 N   0  0  0  0  0  0  0  0  0  0  0  0
   29.6071  -21.3058  -19.0366 C   0  0  0  0  0  0  0  0  0  0  0  0
   30.6385  -21.1701  -19.7322 O   0  0  0  0  0  0  0  0  0  0  0  0
   28.4916  -22.2043  -19.3684 C   0  0  0  0  0  0  0  0  0  0  0  0
   27.4306  -22.3602  -18.3487 C   0  0  0  0  0  0  0  0  0  0  0  0
   27.8563  -22.9974  -17.0686 C   0  0  2  0  0  0  0  0  0  0  0  0
   28.3434  -24.3296  -17.1947 N   0  0  0  0  0  0  0  0  0  0  0  0
   26.7921  -22.8621  -16.0350 C   0  0  0  0  0  0  0  0  0  0  0  0
   25.7553  -23.5338  -16.1623 O   0  0  0  0  0  0  0  0  0  0  0  0
   26.9066  -22.0020  -14.9119 N   0  0  0  0  0  0  0  0  0  0  0  0
   25.7689  -21.7044  -14.0647 C   0  0  1  0  0  0  0  0  0  0  0  0
   26.2499  -20.8839  -12.8961 C   0  0  0  0  0  0  0  0  0  0  0  0
   25.2109  -20.3638  -11.9789 C   0  0  0  0  0  0  0  0  0  0  0  0
   25.2168  -20.9975  -10.6083 C   0  0  0  0  0  0  0  0  0  0  0  0
   24.0627  -20.4364   -9.7836 C   0  0  0  0  0  0  0  0  0  0  0  0
   24.0771  -20.9820   -8.4387 N   0  0  0  0  0  0  0  0  0  0  0  0
   24.6524  -21.1118  -14.7864 C   0  0  0  0  0  0  0  0  0  0  0  0
   24.9661  -20.2099  -15.6422 O   0  0  0  0  0  0  0  0  0  0  0  0
   23.2942  -21.4074  -14.6571 N   0  0  0  0  0  0  0  0  0  0  0  0
   22.8191  -22.4153  -13.6562 C   0  0  0  0  0  0  0  0  0  0  0  0
   21.7504  -23.1506  -14.4076 C   0  0  0  0  0  0  0  0  0  0  0  0
   21.1790  -22.1488  -15.3510 C   0  0  0  0  0  0  0  0  0  0  0  0
   22.0847  -20.9492  -15.2922 C   0  0  1  0  0  0  0  0  0  0  0  0
   21.4327  -19.8580  -14.5352 C   0  0  0  0  0  0  0  0  0  0  0  0
   21.8752  -19.5686  -13.2661 O   0  0  0  0  0  0  0  0  0  0  0  0
   20.5000  -19.2223  -15.0540 O   0  0  0  0  0  0  0  0  0  0  0  0
  2  1  1  0
  2  3  2  0
  4  5  1  0
  4  2  1  0
  6  7  1  6
  6  5  1  0
  8  6  1  0
  8  9  2  0
 10  8  1  0
 11 10  1  0
 12 13  1  0
 11 12  1  1
 13 14  1  0
 14 15  1  0
 16 15  1  0
 17 11  1  0
 18 17  2  0
 19 17  1  0
 19 23  1  0
 20 19  1  0
 20 21  1  0
 21 22  1  0
 23 22  1  0
 24 25  1  0
 23 24  1  1
 26 24  2  0
M  END
$$$$
