QKP.pdb
     RDKit          3D

 26 26  0  0  1  0  0  0  0  0999 V2000
   27.0388  -10.0067  -14.6972 N   0  0  0  0  0  0  0  0  0  0  0  0
   26.6391   -9.7741  -16.0563 C   0  0  0  0  0  0  0  0  0  0  0  0
   27.3965   -9.0381  -16.7278 O   0  0  0  0  0  0  0  0  0  0  0  0
   25.4050  -10.3870  -16.5691 C   0  0  0  0  0  0  0  0  0  0  0  0
   24.5976  -11.1720  -15.6089 C   0  0  0  0  0  0  0  0  0  0  0  0
   23.3649  -11.8006  -16.1668 C   0  0  2  0  0  0  0  0  0  0  0  0
   23.5911  -12.7368  -17.2157 N   0  0  0  0  0  0  0  0  0  0  0  0
   22.3593  -10.7604  -16.5220 C   0  0  0  0  0  0  0  0  0  0  0  0
   22.4589  -10.1929  -17.6221 O   0  0  0  0  0  0  0  0  0  0  0  0
   21.2932  -10.3871  -15.6628 N   0  0  0  0  0  0  0  0  0  0  0  0
   20.3273   -9.3769  -16.0466 C   0  0  1  0  0  0  0  0  0  0  0  0
   19.0076   -9.7140  -15.4023 C   0  0  0  0  0  0  0  0  0  0  0  0
   18.3433  -10.9545  -15.8618 C   0  0  0  0  0  0  0  0  0  0  0  0
   17.0589  -11.2781  -15.1368 C   0  0  0  0  0  0  0  0  0  0  0  0
   16.4649  -12.5637  -15.7035 C   0  0  0  0  0  0  0  0  0  0  0  0
   15.1852  -12.8569  -15.0847 N   0  0  0  0  0  0  0  0  0  0  0  0
   20.7822   -8.0181  -15.7916 C   0  0  0  0  0  0  0  0  0  0  0  0
   21.5973   -7.8850  -14.8107 O   0  0  0  0  0  0  0  0  0  0  0  0
   20.4387   -6.8550  -16.4830 N   0  0  0  0  0  0  0  0  0  0  0  0
   19.5805   -6.9150  -17.7089 C   0  0  0  0  0  0  0  0  0  0  0  0
   20.2273   -5.9118  -18.6160 C   0  0  0  0  0  0  0  0  0  0  0  0
   20.8175   -4.8893  -17.7069 C   0  0  0  0  0  0  0  0  0  0  0  0
   20.7101   -5.4498  -16.3151 C   0  0  1  0  0  0  0  0  0  0  0  0
   19.6358   -4.7565  -15.5707 C   0  0  0  0  0  0  0  0  0  0  0  0
   18.4150   -5.3731  -15.4308 O   0  0  0  0  0  0  0  0  0  0  0  0
   19.8509   -3.6333  -15.0853 O   0  0  0  0  0  0  0  0  0  0  0  0
  2  1  1  0
  2  3  2  0
  4  5  1  0
  4  2  1  0
  6  7  1  6
  6  5  1  0
  8  6  1  0
  8  9  2  0
 10  8  1  0
 11 10  1  0
 12 13  1  0
 11 12  1  1
 13 14  1  0
 14 15  1  0
 16 15  1  0
 17 11  1  0
 18 17  2  0
 19 17  1  0
 19 23  1  0
 20 19  1  0
 20 21  1  0
 21 22  1  0
 23 22  1  0
 24 25  1  0
 23 24  1  1
 26 24  2  0
M  END
$$$$
