QKP.pdb
     RDKit          3D

 26 26  0  0  1  0  0  0  0  0999 V2000
   24.3086  -21.3816   -9.6672 N   0  0  0  0  0  0  0  0  0  0  0  0
   24.6291  -20.1592   -8.9860 C   0  0  0  0  0  0  0  0  0  0  0  0
   23.7894  -19.7695   -8.1437 O   0  0  0  0  0  0  0  0  0  0  0  0
   25.8788  -19.4529   -9.3035 C   0  0  0  0  0  0  0  0  0  0  0  0
   26.7168  -20.0251  -10.3807 C   0  0  0  0  0  0  0  0  0  0  0  0
   26.1165  -21.1711  -11.1237 C   0  0  2  0  0  0  0  0  0  0  0  0
   26.6906  -22.4414  -10.8326 N   0  0  0  0  0  0  0  0  0  0  0  0
   26.0594  -20.8789  -12.5834 C   0  0  0  0  0  0  0  0  0  0  0  0
   27.1192  -20.8908  -13.2307 O   0  0  0  0  0  0  0  0  0  0  0  0
   24.8516  -20.5874  -13.2692 N   0  0  0  0  0  0  0  0  0  0  0  0
   24.8347  -20.3084  -14.6915 C   0  0  1  0  0  0  0  0  0  0  0  0
   23.4055  -20.3537  -15.1664 C   0  0  0  0  0  0  0  0  0  0  0  0
   23.1706  -20.0358  -16.5930 C   0  0  0  0  0  0  0  0  0  0  0  0
   21.7288  -20.1496  -17.0269 C   0  0  0  0  0  0  0  0  0  0  0  0
   21.6260  -19.8828  -18.5252 C   0  0  0  0  0  0  0  0  0  0  0  0
   20.2377  -19.8249  -18.9445 N   0  0  0  0  0  0  0  0  0  0  0  0
   25.5399  -19.0859  -15.0474 C   0  0  0  0  0  0  0  0  0  0  0  0
   25.3124  -18.0779  -14.2882 O   0  0  0  0  0  0  0  0  0  0  0  0
   26.4257  -18.8847  -16.1074 N   0  0  0  0  0  0  0  0  0  0  0  0
   26.7777  -20.0044  -17.0376 C   0  0  0  0  0  0  0  0  0  0  0  0
   28.2477  -19.8060  -17.2543 C   0  0  0  0  0  0  0  0  0  0  0  0
   28.4638  -18.3367  -17.1326 C   0  0  0  0  0  0  0  0  0  0  0  0
   27.1742  -17.7622  -16.6132 C   0  0  1  0  0  0  0  0  0  0  0  0
   26.4600  -17.0556  -17.6993 C   0  0  0  0  0  0  0  0  0  0  0  0
   26.8362  -15.7733  -18.0222 O   0  0  0  0  0  0  0  0  0  0  0  0
   25.5357  -17.6277  -18.3006 O   0  0  0  0  0  0  0  0  0  0  0  0
  2  1  1  0
  2  3  2  0
  4  5  1  0
  4  2  1  0
  6  7  1  6
  6  5  1  0
  8  6  1  0
  8  9  2  0
 10  8  1  0
 11 10  1  0
 12 13  1  0
 11 12  1  1
 13 14  1  0
 14 15  1  0
 16 15  1  0
 17 11  1  0
 18 17  2  0
 19 17  1  0
 19 23  1  0
 20 19  1  0
 20 21  1  0
 21 22  1  0
 23 22  1  0
 24 25  1  0
 23 24  1  6
 26 24  2  0
M  END
$$$$
