QKP.pdb
     RDKit          3D

 26 26  0  0  1  0  0  0  0  0999 V2000
   19.6005  -18.6938  -17.9224 N   0  0  0  0  0  0  0  0  0  0  0  0
   19.9235  -19.5253  -16.7975 C   0  0  0  0  0  0  0  0  0  0  0  0
   19.3809  -20.6529  -16.7808 O   0  0  0  0  0  0  0  0  0  0  0  0
   20.8383  -19.0265  -15.7602 C   0  0  0  0  0  0  0  0  0  0  0  0
   21.3704  -17.6572  -15.9382 C   0  0  0  0  0  0  0  0  0  0  0  0
   20.5238  -16.5603  -15.3848 C   0  0  2  0  0  0  0  0  0  0  0  0
   19.1344  -16.6694  -15.6774 N   0  0  0  0  0  0  0  0  0  0  0  0
   21.0906  -15.2291  -15.7397 C   0  0  0  0  0  0  0  0  0  0  0  0
   22.2679  -14.9856  -15.4283 O   0  0  0  0  0  0  0  0  0  0  0  0
   20.3490  -14.2260  -16.4164 N   0  0  0  0  0  0  0  0  0  0  0  0
   20.9270  -12.9330  -16.7249 C   0  0  1  0  0  0  0  0  0  0  0  0
   20.2606  -12.4002  -17.9668 C   0  0  0  0  0  0  0  0  0  0  0  0
   20.6082  -11.0172  -18.3641 C   0  0  0  0  0  0  0  0  0  0  0  0
   19.8828  -10.5214  -19.5921 C   0  0  0  0  0  0  0  0  0  0  0  0
   20.3098   -9.0877  -19.8909 C   0  0  0  0  0  0  0  0  0  0  0  0
   21.6642   -9.0512  -20.4115 N   0  0  0  0  0  0  0  0  0  0  0  0
   20.9090  -12.0104  -15.5993 C   0  0  0  0  0  0  0  0  0  0  0  0
   19.8484  -12.0404  -14.8793 O   0  0  0  0  0  0  0  0  0  0  0  0
   21.9011  -11.1061  -15.2160 N   0  0  0  0  0  0  0  0  0  0  0  0
   23.1342  -10.9212  -16.0457 C   0  0  0  0  0  0  0  0  0  0  0  0
   24.2147  -10.8063  -15.0129 C   0  0  0  0  0  0  0  0  0  0  0  0
   23.5555  -10.1896  -13.8274 C   0  0  0  0  0  0  0  0  0  0  0  0
   22.0793  -10.1916  -14.1169 C   0  0  1  0  0  0  0  0  0  0  0  0
   21.6255   -8.8228  -14.4473 C   0  0  0  0  0  0  0  0  0  0  0  0
   21.4053   -7.9277  -13.4272 O   0  0  0  0  0  0  0  0  0  0  0  0
   21.4508   -8.5033  -15.6350 O   0  0  0  0  0  0  0  0  0  0  0  0
  2  1  1  0
  2  3  2  0
  4  5  1  0
  4  2  1  0
  6  7  1  6
  6  5  1  0
  8  6  1  0
  8  9  2  0
 10  8  1  0
 11 10  1  0
 12 13  1  0
 11 12  1  6
 13 14  1  0
 14 15  1  0
 16 15  1  0
 17 11  1  0
 18 17  2  0
 19 17  1  0
 19 23  1  0
 20 19  1  0
 20 21  1  0
 21 22  1  0
 23 22  1  0
 24 25  1  0
 23 24  1  6
 26 24  2  0
M  END
$$$$
