QKP.pdb
     RDKit          3D

 26 26  0  0  1  0  0  0  0  0999 V2000
   37.6413   -3.4018  -10.3301 N   0  0  0  0  0  0  0  0  0  0  0  0
   37.7074   -3.4045  -11.7642 C   0  0  0  0  0  0  0  0  0  0  0  0
   37.3133   -2.3596  -12.3290 O   0  0  0  0  0  0  0  0  0  0  0  0
   38.2128   -4.5916  -12.4691 C   0  0  0  0  0  0  0  0  0  0  0  0
   38.7090   -5.7070  -11.6327 C   0  0  0  0  0  0  0  0  0  0  0  0
   39.1795   -6.9109  -12.3778 C   0  0  2  0  0  0  0  0  0  0  0  0
   38.4142   -7.2380  -13.5333 N   0  0  0  0  0  0  0  0  0  0  0  0
   39.3586   -8.0646  -11.4525 C   0  0  0  0  0  0  0  0  0  0  0  0
   38.3560   -8.7186  -11.1218 O   0  0  0  0  0  0  0  0  0  0  0  0
   40.6204   -8.4517  -10.9309 N   0  0  0  0  0  0  0  0  0  0  0  0
   40.7315   -9.3827   -9.8256 C   0  0  1  0  0  0  0  0  0  0  0  0
   42.1340   -9.9333   -9.8088 C   0  0  0  0  0  0  0  0  0  0  0  0
   42.4769  -10.8398   -8.6899 C   0  0  0  0  0  0  0  0  0  0  0  0
   43.9539  -11.1184   -8.5448 C   0  0  0  0  0  0  0  0  0  0  0  0
   44.1838  -12.0305   -7.3438 C   0  0  0  0  0  0  0  0  0  0  0  0
   45.5946  -12.3349   -7.1904 N   0  0  0  0  0  0  0  0  0  0  0  0
   40.2989   -8.8220   -8.5540 C   0  0  0  0  0  0  0  0  0  0  0  0
   40.6142   -7.5947   -8.3573 O   0  0  0  0  0  0  0  0  0  0  0  0
   39.5881   -9.4574   -7.5342 N   0  0  0  0  0  0  0  0  0  0  0  0
   39.2902  -10.9235   -7.6037 C   0  0  0  0  0  0  0  0  0  0  0  0
   37.8836  -11.0009   -7.0908 C   0  0  0  0  0  0  0  0  0  0  0  0
   37.7599   -9.8739   -6.1238 C   0  0  0  0  0  0  0  0  0  0  0  0
   39.0018   -9.0407   -6.2858 C   0  0  1  0  0  0  0  0  0  0  0  0
   39.9112   -9.2577   -5.1391 C   0  0  0  0  0  0  0  0  0  0  0  0
   41.0171  -10.0572   -5.3059 O   0  0  0  0  0  0  0  0  0  0  0  0
   39.6640   -8.7176   -4.0481 O   0  0  0  0  0  0  0  0  0  0  0  0
  2  1  1  0
  2  3  2  0
  4  5  1  0
  4  2  1  0
  6  7  1  6
  6  5  1  0
  8  6  1  0
  8  9  2  0
 10  8  1  0
 11 10  1  0
 12 13  1  0
 11 12  1  1
 13 14  1  0
 14 15  1  0
 16 15  1  0
 17 11  1  0
 18 17  2  0
 19 17  1  0
 19 23  1  0
 20 19  1  0
 20 21  1  0
 21 22  1  0
 23 22  1  0
 24 25  1  0
 23 24  1  1
 26 24  2  0
M  END
$$$$
