QKP.pdb
     RDKit          3D

 26 26  0  0  1  0  0  0  0  0999 V2000
   22.0879  -14.5360  -19.8536 N   0  0  0  0  0  0  0  0  0  0  0  0
   21.6547  -14.0210  -18.5855 C   0  0  0  0  0  0  0  0  0  0  0  0
   22.5138  -13.3855  -17.9342 O   0  0  0  0  0  0  0  0  0  0  0  0
   20.2766  -14.2608  -18.1328 C   0  0  0  0  0  0  0  0  0  0  0  0
   19.4125  -13.0723  -17.9574 C   0  0  0  0  0  0  0  0  0  0  0  0
   19.4904  -12.4108  -16.6223 C   0  0  2  0  0  0  0  0  0  0  0  0
   19.2523  -13.2705  -15.5123 N   0  0  0  0  0  0  0  0  0  0  0  0
   18.6513  -11.1802  -16.5959 C   0  0  0  0  0  0  0  0  0  0  0  0
   18.5862  -10.4867  -17.6241 O   0  0  0  0  0  0  0  0  0  0  0  0
   17.9231  -10.7626  -15.4516 N   0  0  0  0  0  0  0  0  0  0  0  0
   17.1133   -9.5605  -15.4644 C   0  0  1  0  0  0  0  0  0  0  0  0
   16.1447   -9.6294  -14.3123 C   0  0  0  0  0  0  0  0  0  0  0  0
   15.0664  -10.6387  -14.4123 C   0  0  0  0  0  0  0  0  0  0  0  0
   14.1559  -10.6981  -13.2091 C   0  0  0  0  0  0  0  0  0  0  0  0
   13.0319  -11.6956  -13.4707 C   0  0  0  0  0  0  0  0  0  0  0  0
   12.1529  -11.7953  -12.3200 N   0  0  0  0  0  0  0  0  0  0  0  0
   17.8995   -8.3363  -15.5063 C   0  0  0  0  0  0  0  0  0  0  0  0
   19.0485   -8.4000  -14.9406 O   0  0  0  0  0  0  0  0  0  0  0  0
   17.5526   -7.1139  -16.0844 N   0  0  0  0  0  0  0  0  0  0  0  0
   16.2244   -6.9289  -16.7513 C   0  0  0  0  0  0  0  0  0  0  0  0
   16.5719   -6.1175  -17.9631 C   0  0  0  0  0  0  0  0  0  0  0  0
   17.7495   -5.2990  -17.5584 C   0  0  0  0  0  0  0  0  0  0  0  0
   18.1952   -5.8319  -16.2241 C   0  0  1  0  0  0  0  0  0  0  0  0
   17.8104   -4.8918  -15.1484 C   0  0  0  0  0  0  0  0  0  0  0  0
   18.5079   -3.7154  -15.0085 O   0  0  0  0  0  0  0  0  0  0  0  0
   16.8678   -5.1771  -14.3911 O   0  0  0  0  0  0  0  0  0  0  0  0
  2  1  1  0
  2  3  2  0
  4  5  1  0
  4  2  1  0
  6  7  1  1
  6  5  1  0
  8  6  1  0
  8  9  2  0
 10  8  1  0
 11 10  1  0
 12 13  1  0
 11 12  1  1
 13 14  1  0
 14 15  1  0
 16 15  1  0
 17 11  1  0
 18 17  2  0
 19 17  1  0
 19 23  1  0
 20 19  1  0
 20 21  1  0
 21 22  1  0
 23 22  1  0
 24 25  1  0
 23 24  1  1
 26 24  2  0
M  END
$$$$
