QKP.pdb
     RDKit          3D

 26 26  0  0  1  0  0  0  0  0999 V2000
   23.1297  -25.8377  -14.8583 N   0  0  0  0  0  0  0  0  0  0  0  0
   23.2075  -24.8393  -15.8871 C   0  0  0  0  0  0  0  0  0  0  0  0
   23.4975  -25.2576  -17.0304 O   0  0  0  0  0  0  0  0  0  0  0  0
   22.9554  -23.4292  -15.5560 C   0  0  0  0  0  0  0  0  0  0  0  0
   22.5239  -23.1327  -14.1718 C   0  0  0  0  0  0  0  0  0  0  0  0
   22.1453  -21.7144  -13.9051 C   0  0  2  0  0  0  0  0  0  0  0  0
   21.0671  -21.2228  -14.6949 N   0  0  0  0  0  0  0  0  0  0  0  0
   23.3458  -20.8334  -13.9463 C   0  0  0  0  0  0  0  0  0  0  0  0
   23.2981  -19.8007  -14.6345 O   0  0  0  0  0  0  0  0  0  0  0  0
   24.5415  -21.1183  -13.2368 N   0  0  0  0  0  0  0  0  0  0  0  0
   25.7394  -20.3227  -13.4180 C   0  0  1  0  0  0  0  0  0  0  0  0
   26.7849  -20.8131  -12.4500 C   0  0  0  0  0  0  0  0  0  0  0  0
   26.8189  -20.1580  -11.1230 C   0  0  0  0  0  0  0  0  0  0  0  0
   26.0958  -20.9163  -10.0357 C   0  0  0  0  0  0  0  0  0  0  0  0
   26.0784  -20.0818   -8.7589 C   0  0  0  0  0  0  0  0  0  0  0  0
   25.3416  -20.7611   -7.7091 N   0  0  0  0  0  0  0  0  0  0  0  0
   26.1906  -20.2668  -14.8006 C   0  0  0  0  0  0  0  0  0  0  0  0
   25.8948  -21.2875  -15.5183 O   0  0  0  0  0  0  0  0  0  0  0  0
   26.9000  -19.2425  -15.4302 N   0  0  0  0  0  0  0  0  0  0  0  0
   27.5949  -18.1846  -14.6297 C   0  0  0  0  0  0  0  0  0  0  0  0
   27.3147  -16.9378  -15.4135 C   0  0  0  0  0  0  0  0  0  0  0  0
   27.2077  -17.3853  -16.8307 C   0  0  0  0  0  0  0  0  0  0  0  0
   27.1848  -18.8890  -16.7978 C   0  0  1  0  0  0  0  0  0  0  0  0
   28.4847  -19.4263  -17.2566 C   0  0  0  0  0  0  0  0  0  0  0  0
   28.8272  -19.3043  -18.5825 O   0  0  0  0  0  0  0  0  0  0  0  0
   29.2440  -19.9769  -16.4420 O   0  0  0  0  0  0  0  0  0  0  0  0
  2  1  1  0
  2  3  2  0
  4  5  1  0
  4  2  1  0
  6  7  1  6
  6  5  1  0
  8  6  1  0
  8  9  2  0
 10  8  1  0
 11 10  1  0
 12 13  1  0
 11 12  1  1
 13 14  1  0
 14 15  1  0
 16 15  1  0
 17 11  1  0
 18 17  2  0
 19 17  1  0
 19 23  1  0
 20 19  1  0
 20 21  1  0
 21 22  1  0
 23 22  1  0
 24 25  1  0
 23 24  1  1
 26 24  2  0
M  END
$$$$
