QKP.pdb
     RDKit          3D

 26 26  0  0  1  0  0  0  0  0999 V2000
   21.9682  -21.0794  -11.3141 N   0  0  0  0  0  0  0  0  0  0  0  0
   21.7536  -20.4906  -10.0224 C   0  0  0  0  0  0  0  0  0  0  0  0
   20.6425  -20.7239   -9.4959 O   0  0  0  0  0  0  0  0  0  0  0  0
   22.8096  -19.6717   -9.4093 C   0  0  0  0  0  0  0  0  0  0  0  0
   24.0469  -19.4746  -10.1968 C   0  0  0  0  0  0  0  0  0  0  0  0
   24.9565  -20.6547  -10.2733 C   0  0  2  0  0  0  0  0  0  0  0  0
   25.8003  -20.8361   -9.1407 N   0  0  0  0  0  0  0  0  0  0  0  0
   25.7033  -20.6598  -11.5623 C   0  0  0  0  0  0  0  0  0  0  0  0
   26.7202  -19.9534  -11.6593 O   0  0  0  0  0  0  0  0  0  0  0  0
   25.3078  -21.4330  -12.6847 N   0  0  0  0  0  0  0  0  0  0  0  0
   26.0440  -21.3912  -13.9326 C   0  0  1  0  0  0  0  0  0  0  0  0
   25.9365  -22.7419  -14.5917 C   0  0  0  0  0  0  0  0  0  0  0  0
   26.5479  -22.8754  -15.9333 C   0  0  0  0  0  0  0  0  0  0  0  0
   26.4047  -24.2467  -16.5489 C   0  0  0  0  0  0  0  0  0  0  0  0
   27.0785  -24.2627  -17.9174 C   0  0  0  0  0  0  0  0  0  0  0  0
   27.7699  -25.5198  -18.1369 N   0  0  0  0  0  0  0  0  0  0  0  0
   25.6608  -20.2799  -14.7908 C   0  0  0  0  0  0  0  0  0  0  0  0
   24.4351  -19.9136  -14.7034 O   0  0  0  0  0  0  0  0  0  0  0  0
   26.4634  -19.5736  -15.6885 N   0  0  0  0  0  0  0  0  0  0  0  0
   27.8993  -19.9467  -15.8931 C   0  0  0  0  0  0  0  0  0  0  0  0
   28.5782  -18.6134  -15.9880 C   0  0  0  0  0  0  0  0  0  0  0  0
   27.5598  -17.6998  -16.5784 C   0  0  0  0  0  0  0  0  0  0  0  0
   26.2616  -18.4596  -16.5799 C   0  0  1  0  0  0  0  0  0  0  0  0
   25.9301  -18.8946  -17.9546 C   0  0  0  0  0  0  0  0  0  0  0  0
   25.4060  -17.9794  -18.8365 O   0  0  0  0  0  0  0  0  0  0  0  0
   26.1291  -20.0739  -18.2907 O   0  0  0  0  0  0  0  0  0  0  0  0
  2  1  1  0
  2  3  2  0
  4  5  1  0
  4  2  1  0
  6  7  1  1
  6  5  1  0
  8  6  1  0
  8  9  2  0
 10  8  1  0
 11 10  1  0
 12 13  1  0
 11 12  1  6
 13 14  1  0
 14 15  1  0
 16 15  1  0
 17 11  1  0
 18 17  2  0
 19 17  1  0
 19 23  1  0
 20 19  1  0
 20 21  1  0
 21 22  1  0
 23 22  1  0
 24 25  1  0
 23 24  1  6
 26 24  2  0
M  END
$$$$
