QKP.pdb
     RDKit          3D

 26 26  0  0  1  0  0  0  0  0999 V2000
   25.8949  -34.5125  -13.5822 N   0  0  0  0  0  0  0  0  0  0  0  0
   25.3668  -34.7099  -14.9025 C   0  0  0  0  0  0  0  0  0  0  0  0
   24.6384  -35.7164  -15.0523 O   0  0  0  0  0  0  0  0  0  0  0  0
   25.6995  -33.7568  -15.9715 C   0  0  0  0  0  0  0  0  0  0  0  0
   26.5252  -32.5882  -15.5942 C   0  0  0  0  0  0  0  0  0  0  0  0
   27.9103  -32.5724  -16.1485 C   0  0  2  0  0  0  0  0  0  0  0  0
   28.8590  -33.3395  -15.4140 N   0  0  0  0  0  0  0  0  0  0  0  0
   28.3604  -31.1744  -16.3983 C   0  0  0  0  0  0  0  0  0  0  0  0
   28.5808  -30.4406  -15.4210 O   0  0  0  0  0  0  0  0  0  0  0  0
   28.5488  -30.6414  -17.7000 N   0  0  0  0  0  0  0  0  0  0  0  0
   29.0707  -29.3047  -17.9046 C   0  0  1  0  0  0  0  0  0  0  0  0
   30.2781  -29.3994  -18.8009 C   0  0  0  0  0  0  0  0  0  0  0  0
   31.4442  -30.1384  -18.2665 C   0  0  0  0  0  0  0  0  0  0  0  0
   32.6191  -30.2152  -19.2118 C   0  0  0  0  0  0  0  0  0  0  0  0
   33.7469  -31.0074  -18.5582 C   0  0  0  0  0  0  0  0  0  0  0  0
   34.8832  -31.1213  -19.4539 N   0  0  0  0  0  0  0  0  0  0  0  0
   28.0651  -28.3570  -18.3617 C   0  0  0  0  0  0  0  0  0  0  0  0
   27.0937  -28.8634  -19.0283 O   0  0  0  0  0  0  0  0  0  0  0  0
   28.0347  -26.9758  -18.1614 N   0  0  0  0  0  0  0  0  0  0  0  0
   29.1031  -26.2911  -17.3661 C   0  0  0  0  0  0  0  0  0  0  0  0
   28.3293  -25.2861  -16.5670 C   0  0  0  0  0  0  0  0  0  0  0  0
   27.1601  -24.9291  -17.4190 C   0  0  0  0  0  0  0  0  0  0  0  0
   27.1585  -25.9050  -18.5637 C   0  0  1  0  0  0  0  0  0  0  0  0
   27.6206  -25.2370  -19.8003 C   0  0  0  0  0  0  0  0  0  0  0  0
   26.7504  -24.4212  -20.4838 O   0  0  0  0  0  0  0  0  0  0  0  0
   28.7818  -25.4218  -20.2012 O   0  0  0  0  0  0  0  0  0  0  0  0
  2  1  1  0
  2  3  2  0
  4  5  1  0
  4  2  1  0
  6  7  1  1
  6  5  1  0
  8  6  1  0
  8  9  2  0
 10  8  1  0
 11 10  1  0
 12 13  1  0
 11 12  1  6
 13 14  1  0
 14 15  1  0
 16 15  1  0
 17 11  1  0
 18 17  2  0
 19 17  1  0
 19 23  1  0
 20 19  1  0
 20 21  1  0
 21 22  1  0
 23 22  1  0
 24 25  1  0
 23 24  1  6
 26 24  2  0
M  END
$$$$
