QKP.pdb
     RDKit          3D

 26 26  0  0  1  0  0  0  0  0999 V2000
   25.3246  -13.7911  -14.5619 N   0  0  0  0  0  0  0  0  0  0  0  0
   26.5988  -13.7335  -15.2209 C   0  0  0  0  0  0  0  0  0  0  0  0
   27.3416  -14.7273  -15.0569 O   0  0  0  0  0  0  0  0  0  0  0  0
   26.9534  -12.5525  -16.0216 C   0  0  0  0  0  0  0  0  0  0  0  0
   25.9682  -11.4490  -16.0607 C   0  0  0  0  0  0  0  0  0  0  0  0
   24.8956  -11.5794  -17.0894 C   0  0  2  0  0  0  0  0  0  0  0  0
   25.3612  -11.8068  -18.4159 N   0  0  0  0  0  0  0  0  0  0  0  0
   23.9369  -10.4430  -16.9960 C   0  0  0  0  0  0  0  0  0  0  0  0
   24.2651   -9.3505  -17.4870 O   0  0  0  0  0  0  0  0  0  0  0  0
   22.6666  -10.5494  -16.3722 N   0  0  0  0  0  0  0  0  0  0  0  0
   21.7588   -9.4216  -16.3016 C   0  0  1  0  0  0  0  0  0  0  0  0
   20.3941   -9.9347  -15.9214 C   0  0  0  0  0  0  0  0  0  0  0  0
   19.3224   -8.9238  -15.7769 C   0  0  0  0  0  0  0  0  0  0  0  0
   17.9734   -9.4948  -15.4107 C   0  0  0  0  0  0  0  0  0  0  0  0
   16.9604   -8.3620  -15.2786 C   0  0  0  0  0  0  0  0  0  0  0  0
   15.6190   -8.8877  -15.1033 N   0  0  0  0  0  0  0  0  0  0  0  0
   22.2446   -8.3429  -15.4538 C   0  0  0  0  0  0  0  0  0  0  0  0
   22.8542   -8.7120  -14.3878 O   0  0  0  0  0  0  0  0  0  0  0  0
   22.1259   -6.9678  -15.6634 N   0  0  0  0  0  0  0  0  0  0  0  0
   21.4117   -6.4328  -16.8662 C   0  0  0  0  0  0  0  0  0  0  0  0
   22.2745   -5.2780  -17.2779 C   0  0  0  0  0  0  0  0  0  0  0  0
   22.8775   -4.7727  -16.0124 C   0  0  0  0  0  0  0  0  0  0  0  0
   22.5452   -5.7868  -14.9523 C   0  0  1  0  0  0  0  0  0  0  0  0
   21.4856   -5.2622  -14.0629 C   0  0  0  0  0  0  0  0  0  0  0  0
   21.8289   -4.3894  -13.0577 O   0  0  0  0  0  0  0  0  0  0  0  0
   20.3073   -5.6157  -14.2361 O   0  0  0  0  0  0  0  0  0  0  0  0
  2  1  1  0
  2  3  2  0
  4  5  1  0
  4  2  1  0
  6  7  1  6
  6  5  1  0
  8  6  1  0
  8  9  2  0
 10  8  1  0
 11 10  1  0
 12 13  1  0
 11 12  1  1
 13 14  1  0
 14 15  1  0
 16 15  1  0
 17 11  1  0
 18 17  2  0
 19 17  1  0
 19 23  1  0
 20 19  1  0
 20 21  1  0
 21 22  1  0
 23 22  1  0
 24 25  1  0
 23 24  1  1
 26 24  2  0
M  END
$$$$
