RIR.pdb
     RDKit          3D

 31 30  0  0  1  0  0  0  0  0999 V2000
    9.1231  -12.3087   17.1304 N   0  0  0  0  0  0  0  0  0  0  0  0
    8.9906  -13.5924   16.5310 C   0  0  0  0  0  0  0  0  0  0  0  0
    9.4997  -13.7942   15.3649 N   0  0  0  0  0  0  0  0  0  0  0  0
    8.3216  -14.6710   17.1561 N   0  0  0  0  0  0  0  0  0  0  0  0
    7.0853  -14.4349   17.8306 C   0  0  0  0  0  0  0  0  0  0  0  0
    6.8969  -15.2297   19.0722 C   0  0  0  0  0  0  0  0  0  0  0  0
    7.7646  -14.9066   20.2248 C   0  0  0  0  0  0  0  0  0  0  0  0
    7.5790  -15.7431   21.4375 C   0  0  2  0  0  0  0  0  0  0  0  0
    6.2217  -16.1291   21.7134 N   0  0  0  0  0  0  0  0  0  0  0  0
    8.2351  -15.1903   22.6451 C   0  0  0  0  0  0  0  0  0  0  0  0
    9.4551  -14.8910   22.5776 O   0  0  0  0  0  0  0  0  0  0  0  0
    9.3355  -14.6846   14.8477 C   0  0  0  0  0  0  0  0  0  0  0  0
    6.1611  -11.6004   25.9175 C   0  0  0  0  0  0  0  0  0  0  0  0
    7.0601  -12.5007   25.0930 C   0  0  2  0  0  0  0  0  0  0  0  0
    7.5295  -13.6717   25.9320 C   0  0  0  0  0  0  0  0  0  0  0  0
    8.3481  -13.2004   27.1112 C   0  0  2  0  0  0  0  0  0  0  0  0
    8.2764  -14.6870   25.0995 N   0  0  0  0  0  0  0  0  0  0  0  0
    7.5759  -14.9782   23.8693 C   0  0  0  0  0  0  0  0  0  0  0  0
    8.3798  -15.9296   25.9507 O   0  0  0  0  0  0  0  0  0  0  0  0
    7.4886  -16.8192   25.9115 N   0  0  0  0  0  0  0  0  0  0  0  0
   15.5370  -18.4003   23.3040 C   0  0  0  0  0  0  0  0  0  0  0  0
   14.7107  -19.5644   23.1690 N   0  0  0  0  0  0  0  0  0  0  0  0
   15.2914  -20.6741   22.8989 N   0  0  0  0  0  0  0  0  0  0  0  0
   13.3126  -19.4342   23.3380 C   0  0  0  0  0  0  0  0  0  0  0  0
   12.7926  -18.1136   23.6471 C   0  0  0  0  0  0  0  0  0  0  0  0
   12.1763  -18.1592   25.0124 C   0  0  0  0  0  0  0  0  0  0  0  0
   11.0802  -17.1924   25.2585 C   0  0  1  0  0  0  0  0  0  0  0  0
   10.4617  -17.1899   26.6072 N   0  0  0  0  0  0  0  0  0  0  0  0
    9.4771  -16.1464   26.8242 C   0  0  0  0  0  0  0  0  0  0  0  0
   11.4159  -17.1696   27.7408 O   0  0  0  0  0  0  0  0  0  0  0  0
   12.1841  -18.1287   28.0100 O   0  0  0  0  0  0  0  0  0  0  0  0
  2  1  1  0
  3  2  2  0
  4  2  1  0
  5  4  1  0
  6  5  1  0
  7  6  1  0
  8  7  1  0
  8  9  1  1
 10  8  1  0
 10 11  2  0
 13 12  1  0
 14 16  1  0
 14 13  1  0
 14 15  1  1
 16 17  1  6
 17 10  1  0
 18 16  1  0
 19 18  2  0
 21 22  2  0
 21 20  1  0
 23 21  1  0
 24 23  1  0
 25 24  1  0
 26 25  1  0
 27 26  1  6
 27 28  1  0
 28 18  1  0
 29 31  1  0
 29 27  1  0
 30 29  2  0
M  END
$$$$
