RIR.pdb
     RDKit          3D

 31 30  0  0  1  0  0  0  0  0999 V2000
    8.9493  -18.8750   13.8849 N   0  0  0  0  0  0  0  0  0  0  0  0
    7.5265  -18.8615   13.8775 C   0  0  0  0  0  0  0  0  0  0  0  0
    6.9018  -19.3090   12.8435 N   0  0  0  0  0  0  0  0  0  0  0  0
    6.7533  -18.3771   14.9588 N   0  0  0  0  0  0  0  0  0  0  0  0
    7.4104  -17.8687   16.1202 C   0  0  0  0  0  0  0  0  0  0  0  0
    8.4573  -18.7631   16.6796 C   0  0  0  0  0  0  0  0  0  0  0  0
    9.2068  -18.2785   17.8584 C   0  0  0  0  0  0  0  0  0  0  0  0
    9.8824  -16.9648   17.7085 C   0  0  2  0  0  0  0  0  0  0  0  0
   11.1634  -17.0057   17.0566 N   0  0  0  0  0  0  0  0  0  0  0  0
    9.9455  -16.1838   18.9657 C   0  0  0  0  0  0  0  0  0  0  0  0
   11.0753  -15.8395   19.3985 O   0  0  0  0  0  0  0  0  0  0  0  0
    5.8639  -19.2450   12.7666 C   0  0  0  0  0  0  0  0  0  0  0  0
    6.4978  -12.0691   19.7733 C   0  0  0  0  0  0  0  0  0  0  0  0
    7.7581  -12.9116   19.7678 C   0  0  2  0  0  0  0  0  0  0  0  0
    7.6807  -13.9656   20.8535 C   0  0  0  0  0  0  0  0  0  0  0  0
    7.4913  -13.3320   22.2119 C   0  0  2  0  0  0  0  0  0  0  0  0
    8.8808  -14.8825   20.8237 N   0  0  0  0  0  0  0  0  0  0  0  0
    8.8150  -15.8012   19.7099 C   0  0  0  0  0  0  0  0  0  0  0  0
    8.8601  -15.6395   22.1297 O   0  0  0  0  0  0  0  0  0  0  0  0
    8.9766  -15.0378   23.2304 N   0  0  0  0  0  0  0  0  0  0  0  0
   15.2538  -21.1479   21.6465 C   0  0  0  0  0  0  0  0  0  0  0  0
   14.0385  -21.6707   21.0931 N   0  0  0  0  0  0  0  0  0  0  0  0
   14.0681  -22.8607   20.6192 N   0  0  0  0  0  0  0  0  0  0  0  0
   12.8806  -20.8587   21.0967 C   0  0  0  0  0  0  0  0  0  0  0  0
   13.0073  -19.5086   21.6175 C   0  0  0  0  0  0  0  0  0  0  0  0
   11.8297  -19.2344   22.5029 C   0  0  0  0  0  0  0  0  0  0  0  0
   10.7365  -18.4393   21.8951 C   0  0  1  0  0  0  0  0  0  0  0  0
    9.6795  -17.9265   22.8016 N   0  0  0  0  0  0  0  0  0  0  0  0
    8.7095  -17.0499   22.1722 C   0  0  0  0  0  0  0  0  0  0  0  0
   10.1690  -17.2666   24.0348 O   0  0  0  0  0  0  0  0  0  0  0  0
   10.2174  -17.8446   25.1510 O   0  0  0  0  0  0  0  0  0  0  0  0
  2  1  1  0
  3  2  2  0
  4  2  1  0
  5  4  1  0
  6  5  1  0
  7  6  1  0
  8  7  1  0
  8  9  1  1
 10  8  1  0
 10 11  2  0
 13 12  1  0
 14 16  1  0
 14 13  1  0
 14 15  1  6
 16 17  1  1
 17 10  1  0
 18 16  1  0
 19 18  2  0
 21 22  2  0
 21 20  1  0
 23 21  1  0
 24 23  1  0
 25 24  1  0
 26 25  1  0
 27 26  1  6
 27 28  1  0
 28 18  1  0
 29 31  1  0
 29 27  1  0
 30 29  2  0
M  END
$$$$
