RIR.pdb
     RDKit          3D

 31 30  0  0  1  0  0  0  0  0999 V2000
    6.7513  -19.9779   18.3647 N   0  0  0  0  0  0  0  0  0  0  0  0
    7.8031  -20.6820   19.0149 C   0  0  0  0  0  0  0  0  0  0  0  0
    8.3606  -21.6730   18.4095 N   0  0  0  0  0  0  0  0  0  0  0  0
    8.2739  -20.3464   20.3062 N   0  0  0  0  0  0  0  0  0  0  0  0
    7.5288  -19.4309   21.1098 C   0  0  0  0  0  0  0  0  0  0  0  0
    7.6628  -18.0060   20.7095 C   0  0  0  0  0  0  0  0  0  0  0  0
    8.7600  -17.2276   21.3229 C   0  0  0  0  0  0  0  0  0  0  0  0
    8.4738  -15.7959   21.5932 C   0  0  2  0  0  0  0  0  0  0  0  0
    8.8894  -14.8830   20.5630 N   0  0  0  0  0  0  0  0  0  0  0  0
    8.9299  -15.3419   22.9275 C   0  0  0  0  0  0  0  0  0  0  0  0
   10.1672  -15.2744   23.1444 O   0  0  0  0  0  0  0  0  0  0  0  0
    9.1105  -22.2356   18.8661 C   0  0  0  0  0  0  0  0  0  0  0  0
    6.0184  -11.8194   25.9873 C   0  0  0  0  0  0  0  0  0  0  0  0
    7.1261  -12.5616   25.2659 C   0  0  2  0  0  0  0  0  0  0  0  0
    7.5049  -13.8069   26.0414 C   0  0  0  0  0  0  0  0  0  0  0  0
    7.9727  -13.4570   27.4346 C   0  0  2  0  0  0  0  0  0  0  0  0
    8.5258  -14.6350   25.2974 N   0  0  0  0  0  0  0  0  0  0  0  0
    8.0614  -14.9798   23.9729 C   0  0  0  0  0  0  0  0  0  0  0  0
    8.7320  -15.8828   26.1219 O   0  0  0  0  0  0  0  0  0  0  0  0
    7.7564  -16.6019   26.4659 N   0  0  0  0  0  0  0  0  0  0  0  0
   10.8314  -21.1578   23.3873 C   0  0  0  0  0  0  0  0  0  0  0  0
   11.8663  -20.3501   22.8103 N   0  0  0  0  0  0  0  0  0  0  0  0
   11.9551  -20.3262   21.5324 N   0  0  0  0  0  0  0  0  0  0  0  0
   12.7283  -19.6278   23.6678 C   0  0  0  0  0  0  0  0  0  0  0  0
   12.4469  -19.6660   25.0923 C   0  0  0  0  0  0  0  0  0  0  0  0
   11.9786  -18.3066   25.5152 C   0  0  0  0  0  0  0  0  0  0  0  0
   11.5821  -18.1740   26.9371 C   0  0  2  0  0  0  0  0  0  0  0  0
   10.2656  -17.5524   27.2239 N   0  0  0  0  0  0  0  0  0  0  0  0
   10.0236  -16.2951   26.5410 C   0  0  0  0  0  0  0  0  0  0  0  0
    9.9529  -17.3671   28.6605 O   0  0  0  0  0  0  0  0  0  0  0  0
   10.0284  -16.2545   29.2426 O   0  0  0  0  0  0  0  0  0  0  0  0
  2  1  1  0
  3  2  2  0
  4  2  1  0
  5  4  1  0
  6  5  1  0
  7  6  1  0
  8  7  1  0
  8  9  1  6
 10  8  1  0
 10 11  2  0
 13 12  1  0
 14 16  1  0
 14 13  1  0
 14 15  1  6
 16 17  1  6
 17 10  1  0
 18 16  1  0
 19 18  2  0
 21 22  2  0
 21 20  1  0
 23 21  1  0
 24 23  1  0
 25 24  1  0
 26 25  1  0
 27 26  1  6
 27 28  1  0
 28 18  1  0
 29 31  1  0
 29 27  1  0
 30 29  2  0
M  END
$$$$
