RIR.pdb
     RDKit          3D

 31 30  0  0  1  0  0  0  0  0999 V2000
    9.6957  -14.0924   16.2577 N   0  0  0  0  0  0  0  0  0  0  0  0
    8.3483  -14.2240   16.6955 C   0  0  0  0  0  0  0  0  0  0  0  0
    7.5501  -13.2200   16.5748 N   0  0  0  0  0  0  0  0  0  0  0  0
    7.8335  -15.4135   17.2627 N   0  0  0  0  0  0  0  0  0  0  0  0
    7.5912  -15.4740   18.6687 C   0  0  0  0  0  0  0  0  0  0  0  0
    7.8336  -14.1993   19.3932 C   0  0  0  0  0  0  0  0  0  0  0  0
    8.7784  -14.2323   20.5301 C   0  0  0  0  0  0  0  0  0  0  0  0
    8.4736  -15.2104   21.6049 C   0  0  2  0  0  0  0  0  0  0  0  0
    7.1313  -15.7259   21.6013 N   0  0  0  0  0  0  0  0  0  0  0  0
    8.8665  -14.7477   22.9562 C   0  0  0  0  0  0  0  0  0  0  0  0
    9.9480  -14.1173   23.0803 O   0  0  0  0  0  0  0  0  0  0  0  0
    6.5570  -13.2754   16.8879 C   0  0  0  0  0  0  0  0  0  0  0  0
    5.6055  -12.1707   26.0516 C   0  0  0  0  0  0  0  0  0  0  0  0
    6.9027  -12.6534   25.4329 C   0  0  2  0  0  0  0  0  0  0  0  0
    7.4133  -13.8671   26.1824 C   0  0  0  0  0  0  0  0  0  0  0  0
    7.8237  -13.5024   27.5899 C   0  0  2  0  0  0  0  0  0  0  0  0
    8.5298  -14.5539   25.4317 N   0  0  0  0  0  0  0  0  0  0  0  0
    8.1021  -14.9706   24.1156 C   0  0  0  0  0  0  0  0  0  0  0  0
    8.9145  -15.7542   26.2625 O   0  0  0  0  0  0  0  0  0  0  0  0
    8.0372  -16.5289   26.7288 N   0  0  0  0  0  0  0  0  0  0  0  0
   14.9024  -21.9027   26.1513 C   0  0  0  0  0  0  0  0  0  0  0  0
   14.6197  -20.7336   25.3705 N   0  0  0  0  0  0  0  0  0  0  0  0
   15.3748  -20.4985   24.3625 N   0  0  0  0  0  0  0  0  0  0  0  0
   13.5355  -19.9065   25.7453 C   0  0  0  0  0  0  0  0  0  0  0  0
   13.2946  -18.7130   24.9531 C   0  0  0  0  0  0  0  0  0  0  0  0
   12.0091  -18.0954   25.4134 C   0  0  0  0  0  0  0  0  0  0  0  0
   11.8655  -17.9197   26.8780 C   0  0  2  0  0  0  0  0  0  0  0  0
   10.6668  -17.1928   27.3643 N   0  0  0  0  0  0  0  0  0  0  0  0
   10.2703  -16.0584   26.5509 C   0  0  0  0  0  0  0  0  0  0  0  0
   10.7245  -16.7518   28.7779 O   0  0  0  0  0  0  0  0  0  0  0  0
   10.7955  -15.5430   29.1186 O   0  0  0  0  0  0  0  0  0  0  0  0
  2  1  1  0
  3  2  2  0
  4  2  1  0
  5  4  1  0
  6  5  1  0
  7  6  1  0
  8  7  1  0
  8  9  1  1
 10  8  1  0
 10 11  2  0
 13 12  1  0
 14 16  1  0
 14 13  1  0
 14 15  1  6
 16 17  1  6
 17 10  1  0
 18 16  1  0
 19 18  2  0
 21 22  2  0
 21 20  1  0
 23 21  1  0
 24 23  1  0
 25 24  1  0
 26 25  1  0
 27 26  1  6
 27 28  1  0
 28 18  1  0
 29 31  1  0
 29 27  1  0
 30 29  2  0
M  END
$$$$
