RIR.pdb
     RDKit          3D

 31 30  0  0  1  0  0  0  0  0999 V2000
   10.2895  -17.1666   19.6458 N   0  0  0  0  0  0  0  0  0  0  0  0
   10.4485  -17.0126   18.2401 C   0  0  0  0  0  0  0  0  0  0  0  0
   11.6182  -17.1648   17.7223 N   0  0  0  0  0  0  0  0  0  0  0  0
    9.3767  -16.6978   17.3718 N   0  0  0  0  0  0  0  0  0  0  0  0
    8.0623  -16.5391   17.9068 C   0  0  0  0  0  0  0  0  0  0  0  0
    7.7704  -15.1817   18.4370 C   0  0  0  0  0  0  0  0  0  0  0  0
    8.4502  -14.7789   19.6866 C   0  0  0  0  0  0  0  0  0  0  0  0
    8.0544  -13.4639   20.2513 C   0  0  2  0  0  0  0  0  0  0  0  0
    8.3306  -12.3291   19.4127 N   0  0  0  0  0  0  0  0  0  0  0  0
    8.5416  -13.2411   21.6324 C   0  0  0  0  0  0  0  0  0  0  0  0
    9.6602  -12.6872   21.7887 O   0  0  0  0  0  0  0  0  0  0  0  0
   11.7597  -17.1560   16.6892 C   0  0  0  0  0  0  0  0  0  0  0  0
    6.4601  -12.1734   27.2920 C   0  0  0  0  0  0  0  0  0  0  0  0
    7.6200  -12.6509   26.4405 C   0  0  2  0  0  0  0  0  0  0  0  0
    7.1423  -12.9441   25.0329 C   0  0  0  0  0  0  0  0  0  0  0  0
    6.0599  -13.9981   25.0360 C   0  0  2  0  0  0  0  0  0  0  0  0
    8.2892  -13.3192   24.1243 N   0  0  0  0  0  0  0  0  0  0  0  0
    7.8280  -13.6122   22.7862 C   0  0  0  0  0  0  0  0  0  0  0  0
    8.9256  -14.5424   24.7390 O   0  0  0  0  0  0  0  0  0  0  0  0
    9.4950  -14.4831   25.8613 N   0  0  0  0  0  0  0  0  0  0  0  0
   12.6147  -15.4365   19.4372 C   0  0  0  0  0  0  0  0  0  0  0  0
   13.3657  -15.0122   20.5827 N   0  0  0  0  0  0  0  0  0  0  0  0
   14.1303  -13.9934   20.4448 N   0  0  0  0  0  0  0  0  0  0  0  0
   13.2286  -15.7290   21.7942 C   0  0  0  0  0  0  0  0  0  0  0  0
   12.4252  -16.9390   21.7726 C   0  0  0  0  0  0  0  0  0  0  0  0
   11.1204  -16.6485   22.4502 C   0  0  0  0  0  0  0  0  0  0  0  0
   11.0220  -17.0683   23.8682 C   0  0  2  0  0  0  0  0  0  0  0  0
    9.7014  -16.9317   24.5309 N   0  0  0  0  0  0  0  0  0  0  0  0
    8.9093  -15.8011   24.0837 C   0  0  0  0  0  0  0  0  0  0  0  0
    9.7354  -16.9168   26.0123 O   0  0  0  0  0  0  0  0  0  0  0  0
    9.4701  -15.8947   26.6958 O   0  0  0  0  0  0  0  0  0  0  0  0
  2  1  1  0
  3  2  2  0
  4  2  1  0
  5  4  1  0
  6  5  1  0
  7  6  1  0
  8  7  1  0
  8  9  1  6
 10  8  1  0
 10 11  2  0
 13 12  1  0
 14 16  1  0
 14 13  1  0
 14 15  1  6
 16 17  1  1
 17 10  1  0
 18 16  1  0
 19 18  2  0
 21 22  2  0
 21 20  1  0
 23 21  1  0
 24 23  1  0
 25 24  1  0
 26 25  1  0
 27 26  1  6
 27 28  1  0
 28 18  1  0
 29 31  1  0
 29 27  1  0
 30 29  2  0
M  END
$$$$
