RIR.pdb
     RDKit          3D

 31 30  0  0  1  0  0  0  0  0999 V2000
    9.5775  -14.6233   15.5696 N   0  0  0  0  0  0  0  0  0  0  0  0
    8.2327  -15.0423   15.3674 C   0  0  0  0  0  0  0  0  0  0  0  0
    7.8074  -15.2221   14.1648 N   0  0  0  0  0  0  0  0  0  0  0  0
    7.3284  -15.2745   16.4304 N   0  0  0  0  0  0  0  0  0  0  0  0
    7.7309  -14.9890   17.7704 C   0  0  0  0  0  0  0  0  0  0  0  0
    6.7295  -15.3512   18.8072 C   0  0  0  0  0  0  0  0  0  0  0  0
    7.1425  -15.2334   20.2219 C   0  0  0  0  0  0  0  0  0  0  0  0
    7.3115  -13.8524   20.7406 C   0  0  2  0  0  0  0  0  0  0  0  0
    8.0037  -12.9487   19.8623 N   0  0  0  0  0  0  0  0  0  0  0  0
    7.8682  -13.7984   22.1124 C   0  0  0  0  0  0  0  0  0  0  0  0
    9.0852  -13.5119   22.2518 O   0  0  0  0  0  0  0  0  0  0  0  0
    6.8149  -15.4779   13.9727 C   0  0  0  0  0  0  0  0  0  0  0  0
    4.9569  -11.7727   26.1356 C   0  0  0  0  0  0  0  0  0  0  0  0
    6.1544  -12.1131   25.2704 C   0  0  2  0  0  0  0  0  0  0  0  0
    6.6608  -13.5000   25.6103 C   0  0  0  0  0  0  0  0  0  0  0  0
    7.1971  -13.5508   27.0218 C   0  0  2  0  0  0  0  0  0  0  0  0
    7.6800  -13.9808   24.6044 N   0  0  0  0  0  0  0  0  0  0  0  0
    7.1174  -14.0490   23.2749 C   0  0  0  0  0  0  0  0  0  0  0  0
    8.1051  -15.3542   25.0650 O   0  0  0  0  0  0  0  0  0  0  0  0
    7.2615  -16.2774   25.2178 N   0  0  0  0  0  0  0  0  0  0  0  0
   13.9912  -17.7110   20.9959 C   0  0  0  0  0  0  0  0  0  0  0  0
   13.0055  -18.7375   20.8206 N   0  0  0  0  0  0  0  0  0  0  0  0
   12.8441  -19.2074   19.6396 N   0  0  0  0  0  0  0  0  0  0  0  0
   12.2680  -19.1767   21.9446 C   0  0  0  0  0  0  0  0  0  0  0  0
   12.4996  -18.4982   23.2080 C   0  0  0  0  0  0  0  0  0  0  0  0
   11.1696  -18.1554   23.8076 C   0  0  0  0  0  0  0  0  0  0  0  0
   11.2115  -17.3887   25.0753 C   0  0  2  0  0  0  0  0  0  0  0  0
    9.9142  -16.9980   25.6804 N   0  0  0  0  0  0  0  0  0  0  0  0
    9.4625  -15.6610   25.3430 C   0  0  0  0  0  0  0  0  0  0  0  0
    9.8280  -17.1590   27.1510 O   0  0  0  0  0  0  0  0  0  0  0  0
    9.7591  -16.1866   27.9461 O   0  0  0  0  0  0  0  0  0  0  0  0
  2  1  1  0
  3  2  2  0
  4  2  1  0
  5  4  1  0
  6  5  1  0
  7  6  1  0
  8  7  1  0
  8  9  1  6
 10  8  1  0
 10 11  2  0
 13 12  1  0
 14 16  1  0
 14 13  1  0
 14 15  1  6
 16 17  1  6
 17 10  1  0
 18 16  1  0
 19 18  2  0
 21 22  2  0
 21 20  1  0
 23 21  1  0
 24 23  1  0
 25 24  1  0
 26 25  1  0
 27 26  1  6
 27 28  1  0
 28 18  1  0
 29 31  1  0
 29 27  1  0
 30 29  2  0
M  END
$$$$
