RIR.pdb
     RDKit          3D

 31 30  0  0  1  0  0  0  0  0999 V2000
    9.6096  -13.1982   16.9888 N   0  0  0  0  0  0  0  0  0  0  0  0
    8.5656  -13.8553   16.2795 C   0  0  0  0  0  0  0  0  0  0  0  0
    8.1224  -13.3301   15.1899 N   0  0  0  0  0  0  0  0  0  0  0  0
    7.9826  -15.0692   16.7133 N   0  0  0  0  0  0  0  0  0  0  0  0
    8.2551  -15.5481   18.0307 C   0  0  0  0  0  0  0  0  0  0  0  0
    7.3542  -15.0096   19.0830 C   0  0  0  0  0  0  0  0  0  0  0  0
    7.9797  -14.5321   20.3346 C   0  0  0  0  0  0  0  0  0  0  0  0
    7.9423  -15.4716   21.4838 C   0  0  2  0  0  0  0  0  0  0  0  0
    6.6387  -15.9766   21.8199 N   0  0  0  0  0  0  0  0  0  0  0  0
    8.6479  -14.9675   22.6849 C   0  0  0  0  0  0  0  0  0  0  0  0
    9.8633  -14.6611   22.5784 O   0  0  0  0  0  0  0  0  0  0  0  0
    7.4613  -13.8448   14.5690 C   0  0  0  0  0  0  0  0  0  0  0  0
    5.8499  -12.0862   26.2273 C   0  0  0  0  0  0  0  0  0  0  0  0
    6.9823  -12.5500   25.3324 C   0  0  2  0  0  0  0  0  0  0  0  0
    7.8144  -13.5936   26.0494 C   0  0  0  0  0  0  0  0  0  0  0  0
    8.5567  -12.9869   27.2170 C   0  0  2  0  0  0  0  0  0  0  0  0
    8.7475  -14.3077   25.1002 N   0  0  0  0  0  0  0  0  0  0  0  0
    8.0408  -14.8095   23.9436 C   0  0  0  0  0  0  0  0  0  0  0  0
    9.3469  -15.4498   25.8847 O   0  0  0  0  0  0  0  0  0  0  0  0
    8.6346  -16.4120   26.2771 N   0  0  0  0  0  0  0  0  0  0  0  0
    9.7226  -20.7608   31.6583 C   0  0  0  0  0  0  0  0  0  0  0  0
   11.0388  -20.1958   31.5893 N   0  0  0  0  0  0  0  0  0  0  0  0
   11.7838  -20.3032   32.6261 N   0  0  0  0  0  0  0  0  0  0  0  0
   11.4465  -19.5554   30.3961 C   0  0  0  0  0  0  0  0  0  0  0  0
   10.4425  -19.3481   29.3670 C   0  0  0  0  0  0  0  0  0  0  0  0
   11.1143  -18.7470   28.1698 C   0  0  0  0  0  0  0  0  0  0  0  0
   10.5631  -17.4531   27.7023 C   0  0  1  0  0  0  0  0  0  0  0  0
   11.3791  -16.6704   26.7413 N   0  0  0  0  0  0  0  0  0  0  0  0
   10.7276  -15.4875   26.2105 C   0  0  0  0  0  0  0  0  0  0  0  0
   11.9331  -17.4437   25.6051 O   0  0  0  0  0  0  0  0  0  0  0  0
   13.0338  -18.0504   25.6580 O   0  0  0  0  0  0  0  0  0  0  0  0
  2  1  1  0
  3  2  2  0
  4  2  1  0
  5  4  1  0
  6  5  1  0
  7  6  1  0
  8  7  1  0
  8  9  1  1
 10  8  1  0
 10 11  2  0
 13 12  1  0
 14 16  1  0
 14 13  1  0
 14 15  1  1
 16 17  1  6
 17 10  1  0
 18 16  1  0
 19 18  2  0
 21 22  2  0
 21 20  1  0
 23 21  1  0
 24 23  1  0
 25 24  1  0
 26 25  1  0
 27 26  1  1
 27 28  1  0
 28 18  1  0
 29 31  1  0
 29 27  1  0
 30 29  2  0
M  END
$$$$
