RIR.pdb
     RDKit          3D

 31 30  0  0  1  0  0  0  0  0999 V2000
   11.1704  -18.6520   12.1775 N   0  0  0  0  0  0  0  0  0  0  0  0
   10.3535  -19.4758   13.0014 C   0  0  0  0  0  0  0  0  0  0  0  0
   10.6612  -20.7185   13.1446 N   0  0  0  0  0  0  0  0  0  0  0  0
    9.2084  -18.9956   13.6794 N   0  0  0  0  0  0  0  0  0  0  0  0
    9.3637  -18.0514   14.7393 C   0  0  0  0  0  0  0  0  0  0  0  0
   10.4010  -18.4114   15.7410 C   0  0  0  0  0  0  0  0  0  0  0  0
   10.5312  -17.5401   16.9283 C   0  0  0  0  0  0  0  0  0  0  0  0
    9.4812  -17.6903   17.9674 C   0  0  2  0  0  0  0  0  0  0  0  0
    8.1282  -17.6212   17.4855 N   0  0  0  0  0  0  0  0  0  0  0  0
    9.6779  -16.8077   19.1409 C   0  0  0  0  0  0  0  0  0  0  0  0
   10.8523  -16.5992   19.5407 O   0  0  0  0  0  0  0  0  0  0  0  0
   10.0738  -21.3603   13.7193 C   0  0  0  0  0  0  0  0  0  0  0  0
    7.3902  -12.0387   19.7761 C   0  0  0  0  0  0  0  0  0  0  0  0
    8.3919  -13.1711   19.8887 C   0  0  2  0  0  0  0  0  0  0  0  0
    7.9678  -14.1303   20.9823 C   0  0  0  0  0  0  0  0  0  0  0  0
    7.9300  -13.4391   22.3251 C   0  0  2  0  0  0  0  0  0  0  0  0
    8.8409  -15.3626   21.0090 N   0  0  0  0  0  0  0  0  0  0  0  0
    8.6282  -16.1853   19.8399 C   0  0  0  0  0  0  0  0  0  0  0  0
    8.4579  -16.1182   22.2586 O   0  0  0  0  0  0  0  0  0  0  0  0
    7.2743  -16.5080   22.4442 N   0  0  0  0  0  0  0  0  0  0  0  0
   13.0419  -20.4878   28.6031 C   0  0  0  0  0  0  0  0  0  0  0  0
   11.6574  -20.7350   28.8830 N   0  0  0  0  0  0  0  0  0  0  0  0
   11.3816  -21.5144   29.8617 N   0  0  0  0  0  0  0  0  0  0  0  0
   10.6752  -20.1150   28.0761 C   0  0  0  0  0  0  0  0  0  0  0  0
   11.1305  -19.3709   26.9146 C   0  0  0  0  0  0  0  0  0  0  0  0
    9.9520  -18.6620   26.3194 C   0  0  0  0  0  0  0  0  0  0  0  0
   10.2141  -17.9125   25.0679 C   0  0  1  0  0  0  0  0  0  0  0  0
    9.0763  -17.1796   24.4597 N   0  0  0  0  0  0  0  0  0  0  0  0
    9.4077  -16.4193   23.2691 C   0  0  0  0  0  0  0  0  0  0  0  0
    8.3289  -16.2931   25.3825 O   0  0  0  0  0  0  0  0  0  0  0  0
    8.6058  -15.0764   25.5419 O   0  0  0  0  0  0  0  0  0  0  0  0
  2  1  1  0
  3  2  2  0
  4  2  1  0
  5  4  1  0
  6  5  1  0
  7  6  1  0
  8  7  1  0
  8  9  1  6
 10  8  1  0
 10 11  2  0
 13 12  1  0
 14 16  1  0
 14 13  1  0
 14 15  1  6
 16 17  1  1
 17 10  1  0
 18 16  1  0
 19 18  2  0
 21 22  2  0
 21 20  1  0
 23 21  1  0
 24 23  1  0
 25 24  1  0
 26 25  1  0
 27 26  1  6
 27 28  1  0
 28 18  1  0
 29 31  1  0
 29 27  1  0
 30 29  2  0
M  END
$$$$
