RIR.pdb
     RDKit          3D

 31 30  0  0  1  0  0  0  0  0999 V2000
    5.8332  -20.4958   24.6664 N   0  0  0  0  0  0  0  0  0  0  0  0
    6.6450  -20.3904   23.5025 C   0  0  0  0  0  0  0  0  0  0  0  0
    7.8544  -19.9622   23.6197 N   0  0  0  0  0  0  0  0  0  0  0  0
    6.1881  -20.7354   22.2087 N   0  0  0  0  0  0  0  0  0  0  0  0
    7.1141  -20.7693   21.1223 C   0  0  0  0  0  0  0  0  0  0  0  0
    7.4316  -19.4398   20.5388 C   0  0  0  0  0  0  0  0  0  0  0  0
    8.2974  -19.4122   19.3407 C   0  0  0  0  0  0  0  0  0  0  0  0
    8.5672  -18.0725   18.7600 C   0  0  2  0  0  0  0  0  0  0  0  0
    9.3837  -18.0710   17.5765 N   0  0  0  0  0  0  0  0  0  0  0  0
    9.0565  -17.0850   19.7499 C   0  0  0  0  0  0  0  0  0  0  0  0
   10.2971  -16.9895   19.9348 O   0  0  0  0  0  0  0  0  0  0  0  0
    8.4873  -19.8910   22.7940 C   0  0  0  0  0  0  0  0  0  0  0  0
    6.6165  -12.1253   19.9433 C   0  0  0  0  0  0  0  0  0  0  0  0
    7.7474  -13.1348   19.9612 C   0  0  2  0  0  0  0  0  0  0  0  0
    7.6722  -13.9738   21.2206 C   0  0  0  0  0  0  0  0  0  0  0  0
    7.7871  -13.1106   22.4551 C   0  0  2  0  0  0  0  0  0  0  0  0
    8.6992  -15.0814   21.2118 N   0  0  0  0  0  0  0  0  0  0  0  0
    8.2162  -16.2430   20.5003 C   0  0  0  0  0  0  0  0  0  0  0  0
    8.9568  -15.4230   22.6597 O   0  0  0  0  0  0  0  0  0  0  0  0
    9.4524  -14.5746   23.4483 N   0  0  0  0  0  0  0  0  0  0  0  0
    6.4877  -19.8278   28.3617 C   0  0  0  0  0  0  0  0  0  0  0  0
    6.5538  -21.0991   27.7015 N   0  0  0  0  0  0  0  0  0  0  0  0
    6.4235  -22.1487   28.4246 N   0  0  0  0  0  0  0  0  0  0  0  0
    6.7571  -21.1334   26.3024 C   0  0  0  0  0  0  0  0  0  0  0  0
    8.0211  -20.6299   25.7938 C   0  0  0  0  0  0  0  0  0  0  0  0
    7.8095  -19.2247   25.3177 C   0  0  0  0  0  0  0  0  0  0  0  0
    9.0180  -18.5203   24.8279 C   0  0  2  0  0  0  0  0  0  0  0  0
    8.9029  -17.0630   24.5730 N   0  0  0  0  0  0  0  0  0  0  0  0
    8.6538  -16.7042   23.1893 C   0  0  0  0  0  0  0  0  0  0  0  0
   10.0334  -16.2429   25.0682 O   0  0  0  0  0  0  0  0  0  0  0  0
   11.1248  -16.1333   24.4523 O   0  0  0  0  0  0  0  0  0  0  0  0
  2  1  1  0
  3  2  2  0
  4  2  1  0
  5  4  1  0
  6  5  1  0
  7  6  1  0
  8  7  1  0
  8  9  1  6
 10  8  1  0
 10 11  2  0
 13 12  1  0
 14 16  1  0
 14 13  1  0
 14 15  1  1
 16 17  1  6
 17 10  1  0
 18 16  1  0
 19 18  2  0
 21 22  2  0
 21 20  1  0
 23 21  1  0
 24 23  1  0
 25 24  1  0
 26 25  1  0
 27 26  1  1
 27 28  1  0
 28 18  1  0
 29 31  1  0
 29 27  1  0
 30 29  2  0
M  END
$$$$
