RIR.pdb
     RDKit          3D

 31 30  0  0  1  0  0  0  0  0999 V2000
    7.4039  -19.9119   21.1549 N   0  0  0  0  0  0  0  0  0  0  0  0
    7.1913  -20.3717   19.8251 C   0  0  0  0  0  0  0  0  0  0  0  0
    7.3289  -21.6263   19.5673 N   0  0  0  0  0  0  0  0  0  0  0  0
    6.8323  -19.5131   18.7595 N   0  0  0  0  0  0  0  0  0  0  0  0
    6.6097  -18.1266   19.0187 C   0  0  0  0  0  0  0  0  0  0  0  0
    6.6214  -17.7571   20.4582 C   0  0  0  0  0  0  0  0  0  0  0  0
    7.6376  -16.7786   20.9009 C   0  0  0  0  0  0  0  0  0  0  0  0
    7.1204  -15.4763   21.3921 C   0  0  2  0  0  0  0  0  0  0  0  0
    6.8069  -14.5163   20.3686 N   0  0  0  0  0  0  0  0  0  0  0  0
    7.9536  -14.8713   22.4573 C   0  0  0  0  0  0  0  0  0  0  0  0
    9.0708  -14.3884   22.1393 O   0  0  0  0  0  0  0  0  0  0  0  0
    7.1444  -22.0080   18.6146 C   0  0  0  0  0  0  0  0  0  0  0  0
    5.7459  -12.0015   26.4066 C   0  0  0  0  0  0  0  0  0  0  0  0
    6.7189  -12.4831   25.3484 C   0  0  2  0  0  0  0  0  0  0  0  0
    7.6057  -13.5716   25.9179 C   0  0  0  0  0  0  0  0  0  0  0  0
    8.4791  -13.0346   27.0275 C   0  0  2  0  0  0  0  0  0  0  0  0
    8.4195  -14.2459   24.8386 N   0  0  0  0  0  0  0  0  0  0  0  0
    7.5717  -14.8030   23.8092 C   0  0  0  0  0  0  0  0  0  0  0  0
    9.1982  -15.3413   25.5262 O   0  0  0  0  0  0  0  0  0  0  0  0
    8.6217  -16.3762   25.9553 N   0  0  0  0  0  0  0  0  0  0  0  0
   10.6975  -21.7491   30.4991 C   0  0  0  0  0  0  0  0  0  0  0  0
   11.5582  -20.6033   30.5488 N   0  0  0  0  0  0  0  0  0  0  0  0
   12.0109  -20.2526   31.6950 N   0  0  0  0  0  0  0  0  0  0  0  0
   11.8625  -19.9238   29.3464 C   0  0  0  0  0  0  0  0  0  0  0  0
   10.7780  -19.2319   28.6718 C   0  0  0  0  0  0  0  0  0  0  0  0
   11.3282  -18.5893   27.4348 C   0  0  0  0  0  0  0  0  0  0  0  0
   10.5938  -17.3990   26.9445 C   0  0  1  0  0  0  0  0  0  0  0  0
   11.3873  -16.3266   26.2948 N   0  0  0  0  0  0  0  0  0  0  0  0
   10.6016  -15.2524   25.7167 C   0  0  0  0  0  0  0  0  0  0  0  0
   12.3610  -16.7880   25.2774 O   0  0  0  0  0  0  0  0  0  0  0  0
   13.5080  -17.2153   25.5676 O   0  0  0  0  0  0  0  0  0  0  0  0
  2  1  1  0
  3  2  2  0
  4  2  1  0
  5  4  1  0
  6  5  1  0
  7  6  1  0
  8  7  1  0
  8  9  1  6
 10  8  1  0
 10 11  2  0
 13 12  1  0
 14 16  1  0
 14 13  1  0
 14 15  1  1
 16 17  1  6
 17 10  1  0
 18 16  1  0
 19 18  2  0
 21 22  2  0
 21 20  1  0
 23 21  1  0
 24 23  1  0
 25 24  1  0
 26 25  1  0
 27 26  1  1
 27 28  1  0
 28 18  1  0
 29 31  1  0
 29 27  1  0
 30 29  2  0
M  END
$$$$
