RIR.pdb
     RDKit          3D

 31 30  0  0  1  0  0  0  0  0999 V2000
    5.8896  -21.9222   16.5470 N   0  0  0  0  0  0  0  0  0  0  0  0
    6.8758  -21.7828   15.5307 C   0  0  0  0  0  0  0  0  0  0  0  0
    7.2820  -22.8328   14.9047 N   0  0  0  0  0  0  0  0  0  0  0  0
    7.4394  -20.5369   15.1676 N   0  0  0  0  0  0  0  0  0  0  0  0
    8.1801  -19.7922   16.1350 C   0  0  0  0  0  0  0  0  0  0  0  0
    7.4813  -19.5965   17.4320 C   0  0  0  0  0  0  0  0  0  0  0  0
    8.2476  -18.9681   18.5292 C   0  0  0  0  0  0  0  0  0  0  0  0
    8.9779  -17.7216   18.1860 C   0  0  2  0  0  0  0  0  0  0  0  0
   10.1385  -17.9004   17.3563 N   0  0  0  0  0  0  0  0  0  0  0  0
    9.2840  -16.8715   19.3599 C   0  0  0  0  0  0  0  0  0  0  0  0
   10.3348  -17.1075   20.0100 O   0  0  0  0  0  0  0  0  0  0  0  0
    7.9890  -22.7697   14.1408 C   0  0  0  0  0  0  0  0  0  0  0  0
    7.2150  -11.7131   19.8686 C   0  0  0  0  0  0  0  0  0  0  0  0
    8.2171  -12.8504   19.8941 C   0  0  2  0  0  0  0  0  0  0  0  0
    7.9061  -13.7884   21.0426 C   0  0  0  0  0  0  0  0  0  0  0  0
    8.0396  -13.0819   22.3713 C   0  0  2  0  0  0  0  0  0  0  0  0
    8.7525  -15.0381   20.9833 N   0  0  0  0  0  0  0  0  0  0  0  0
    8.4689  -15.8114   19.7957 C   0  0  0  0  0  0  0  0  0  0  0  0
    8.4105  -15.8328   22.2205 O   0  0  0  0  0  0  0  0  0  0  0  0
    7.2548  -16.3051   22.3894 N   0  0  0  0  0  0  0  0  0  0  0  0
   10.0445  -23.4297   21.6332 C   0  0  0  0  0  0  0  0  0  0  0  0
   10.8100  -23.1174   22.8048 N   0  0  0  0  0  0  0  0  0  0  0  0
   11.6071  -24.0172   23.2480 N   0  0  0  0  0  0  0  0  0  0  0  0
   10.6508  -21.8479   23.4075 C   0  0  0  0  0  0  0  0  0  0  0  0
    9.4791  -21.0715   23.0411 C   0  0  0  0  0  0  0  0  0  0  0  0
    9.4399  -19.8456   23.9022 C   0  0  0  0  0  0  0  0  0  0  0  0
    9.4618  -18.5502   23.1824 C   0  0  2  0  0  0  0  0  0  0  0  0
    9.4075  -17.3133   24.0002 N   0  0  0  0  0  0  0  0  0  0  0  0
    9.3690  -16.0796   23.2374 C   0  0  0  0  0  0  0  0  0  0  0  0
   10.4660  -17.1887   25.0298 O   0  0  0  0  0  0  0  0  0  0  0  0
   11.4996  -16.4894   24.8721 O   0  0  0  0  0  0  0  0  0  0  0  0
  2  1  1  0
  3  2  2  0
  4  2  1  0
  5  4  1  0
  6  5  1  0
  7  6  1  0
  8  7  1  0
  8  9  1  1
 10  8  1  0
 10 11  2  0
 13 12  1  0
 14 16  1  0
 14 13  1  0
 14 15  1  6
 16 17  1  1
 17 10  1  0
 18 16  1  0
 19 18  2  0
 21 22  2  0
 21 20  1  0
 23 21  1  0
 24 23  1  0
 25 24  1  0
 26 25  1  0
 27 26  1  6
 27 28  1  0
 28 18  1  0
 29 31  1  0
 29 27  1  0
 30 29  2  0
M  END
$$$$
