RIR.pdb
     RDKit          3D

 31 30  0  0  1  0  0  0  0  0999 V2000
    7.2373  -12.3956   15.4589 N   0  0  0  0  0  0  0  0  0  0  0  0
    7.8006  -13.6510   15.8214 C   0  0  0  0  0  0  0  0  0  0  0  0
    8.0205  -14.5268   14.9027 N   0  0  0  0  0  0  0  0  0  0  0  0
    8.1358  -13.9911   17.1531 N   0  0  0  0  0  0  0  0  0  0  0  0
    7.2684  -14.8451   17.8998 C   0  0  0  0  0  0  0  0  0  0  0  0
    6.7190  -14.2370   19.1396 C   0  0  0  0  0  0  0  0  0  0  0  0
    7.6653  -13.9722   20.2442 C   0  0  0  0  0  0  0  0  0  0  0  0
    7.8050  -15.0487   21.2574 C   0  0  2  0  0  0  0  0  0  0  0  0
    6.6051  -15.7926   21.5301 N   0  0  0  0  0  0  0  0  0  0  0  0
    8.4552  -14.6019   22.5112 C   0  0  0  0  0  0  0  0  0  0  0  0
    9.5779  -14.0397   22.4339 O   0  0  0  0  0  0  0  0  0  0  0  0
    8.3335  -15.4933   15.1379 C   0  0  0  0  0  0  0  0  0  0  0  0
    6.0896  -12.0598   26.5590 C   0  0  0  0  0  0  0  0  0  0  0  0
    7.1385  -12.5478   25.5792 C   0  0  2  0  0  0  0  0  0  0  0  0
    7.7147  -13.8667   26.0524 C   0  0  0  0  0  0  0  0  0  0  0  0
    8.4194  -13.7060   27.3791 C   0  0  2  0  0  0  0  0  0  0  0  0
    8.6153  -14.4852   25.0092 N   0  0  0  0  0  0  0  0  0  0  0  0
    7.8930  -14.7681   23.7897 C   0  0  0  0  0  0  0  0  0  0  0  0
    9.1403  -15.7638   25.6163 O   0  0  0  0  0  0  0  0  0  0  0  0
    8.3540  -16.6391   26.0666 N   0  0  0  0  0  0  0  0  0  0  0  0
   12.8366  -16.5073   21.3008 C   0  0  0  0  0  0  0  0  0  0  0  0
   13.8232  -15.5191   21.6266 N   0  0  0  0  0  0  0  0  0  0  0  0
   13.9915  -14.5557   20.7988 N   0  0  0  0  0  0  0  0  0  0  0  0
   14.5540  -15.6530   22.8299 C   0  0  0  0  0  0  0  0  0  0  0  0
   14.2342  -16.7796   23.6894 C   0  0  0  0  0  0  0  0  0  0  0  0
   12.8569  -16.5722   24.2425 C   0  0  0  0  0  0  0  0  0  0  0  0
   12.3971  -17.5821   25.2249 C   0  0  2  0  0  0  0  0  0  0  0  0
   11.0669  -17.3726   25.8482 N   0  0  0  0  0  0  0  0  0  0  0  0
   10.5311  -16.0318   25.7045 C   0  0  0  0  0  0  0  0  0  0  0  0
   10.9685  -17.7606   27.2749 O   0  0  0  0  0  0  0  0  0  0  0  0
   10.7222  -16.9392   28.1953 O   0  0  0  0  0  0  0  0  0  0  0  0
  2  1  1  0
  3  2  2  0
  4  2  1  0
  5  4  1  0
  6  5  1  0
  7  6  1  0
  8  7  1  0
  8  9  1  1
 10  8  1  0
 10 11  2  0
 13 12  1  0
 14 16  1  0
 14 13  1  0
 14 15  1  6
 16 17  1  6
 17 10  1  0
 18 16  1  0
 19 18  2  0
 21 22  2  0
 21 20  1  0
 23 21  1  0
 24 23  1  0
 25 24  1  0
 26 25  1  0
 27 26  1  6
 27 28  1  0
 28 18  1  0
 29 31  1  0
 29 27  1  0
 30 29  2  0
M  END
$$$$
