GYL.pdb
     RDKit          3D

 25 25  0  0  1  0  0  0  0  0999 V2000
    3.3196  -18.1886   20.9581 N   0  0  0  0  0  0  0  0  0  0  0  0
    4.7442  -18.0946   21.0928 C   0  0  0  0  0  0  0  0  0  0  0  0
    5.0878  -17.9928   22.5326 C   0  0  0  0  0  0  0  0  0  0  0  0
    4.1933  -18.0071   23.4206 O   0  0  0  0  0  0  0  0  0  0  0  0
    9.0881  -19.6668   30.1012 O   0  0  0  0  0  0  0  0  0  0  0  0
    8.6803  -19.5410   28.7790 C   0  0  0  0  0  0  0  0  0  0  0  0
    9.5614  -19.3105   27.7458 C   0  0  0  0  0  0  0  0  0  0  0  0
    9.1925  -19.1808   26.4268 C   0  0  0  0  0  0  0  0  0  0  0  0
    7.8662  -19.2852   26.0976 C   0  0  0  0  0  0  0  0  0  0  0  0
    7.4447  -19.1704   24.6981 C   0  0  0  0  0  0  0  0  0  0  0  0
    6.7444  -17.9008   24.3835 C   0  0  2  0  0  0  0  0  0  0  0  0
    6.4247  -17.8779   22.9327 N   0  0  0  0  0  0  0  0  0  0  0  0
    7.5994  -16.7241   24.5871 C   0  0  0  0  0  0  0  0  0  0  0  0
    8.5503  -16.5258   23.7383 O   0  0  0  0  0  0  0  0  0  0  0  0
    6.9403  -19.5186   27.1167 C   0  0  0  0  0  0  0  0  0  0  0  0
    7.3408  -19.6417   28.4148 C   0  0  0  0  0  0  0  0  0  0  0  0
    5.8296  -12.0310   26.5482 C   0  0  0  0  0  0  0  0  0  0  0  0
    6.5734  -13.0479   25.6855 C   0  0  1  0  0  0  0  0  0  0  0  0
    7.0703  -12.3213   24.4269 C   0  0  0  0  0  0  0  0  0  0  0  0
    7.7948  -13.5376   26.3864 C   0  0  0  0  0  0  0  0  0  0  0  0
    8.4782  -14.7069   25.6883 C   0  0  2  0  0  0  0  0  0  0  0  0
    7.4840  -15.7602   25.6290 N   0  0  0  0  0  0  0  0  0  0  0  0
    9.6631  -15.1651   26.4105 C   0  0  0  0  0  0  0  0  0  0  0  0
   10.7790  -14.6185   26.3530 O   0  0  0  0  0  0  0  0  0  0  0  0
    9.5976  -16.2965   27.2435 O   0  0  0  0  0  0  0  0  0  0  0  0
  2  1  1  0
  3  2  1  0
  4  3  2  0
  6  5  1  0
  6 16  2  0
  7  6  1  0
  8  7  2  0
  8  9  1  0
  9 15  2  0
 10  9  1  0
 11 10  1  6
 11 12  1  0
 12  3  1  0
 13 22  1  0
 13 11  1  0
 14 13  2  0
 15 16  1  0
 18 17  1  1
 19 18  1  0
 20 18  1  0
 21 22  1  0
 21 20  1  1
 23 21  1  0
 23 25  1  0
 24 23  2  0
M  END
$$$$
