GYL.pdb
     RDKit          3D

 25 25  0  0  1  0  0  0  0  0999 V2000
    4.8292  -21.0719   23.6814 N   0  0  0  0  0  0  0  0  0  0  0  0
    6.2455  -21.0027   23.8955 C   0  0  0  0  0  0  0  0  0  0  0  0
    6.5410  -19.8758   24.8144 C   0  0  0  0  0  0  0  0  0  0  0  0
    5.6166  -19.2525   25.4025 O   0  0  0  0  0  0  0  0  0  0  0  0
   10.8419  -14.4058   30.2212 O   0  0  0  0  0  0  0  0  0  0  0  0
   10.4837  -15.4400   29.3655 C   0  0  0  0  0  0  0  0  0  0  0  0
    9.8326  -16.5740   29.7983 C   0  0  0  0  0  0  0  0  0  0  0  0
    9.4636  -17.6160   28.9795 C   0  0  0  0  0  0  0  0  0  0  0  0
    9.7527  -17.5407   27.6419 C   0  0  0  0  0  0  0  0  0  0  0  0
    9.3551  -18.6270   26.7412 C   0  0  0  0  0  0  0  0  0  0  0  0
    8.1248  -18.3422   25.9623 C   0  0  2  0  0  0  0  0  0  0  0  0
    7.8646  -19.4822   25.0456 N   0  0  0  0  0  0  0  0  0  0  0  0
    8.2816  -17.1857   25.0705 C   0  0  0  0  0  0  0  0  0  0  0  0
    8.5765  -17.4214   23.8371 O   0  0  0  0  0  0  0  0  0  0  0  0
   10.4127  -16.4070   27.1630 C   0  0  0  0  0  0  0  0  0  0  0  0
   10.7646  -15.3917   28.0033 C   0  0  0  0  0  0  0  0  0  0  0  0
    6.4145  -12.1412   26.4534 C   0  0  0  0  0  0  0  0  0  0  0  0
    6.5848  -13.4395   25.6681 C   0  0  1  0  0  0  0  0  0  0  0  0
    5.5622  -13.4324   24.5222 C   0  0  0  0  0  0  0  0  0  0  0  0
    7.9270  -13.4892   25.0207 C   0  0  0  0  0  0  0  0  0  0  0  0
    8.2462  -14.8281   24.3672 C   0  0  2  0  0  0  0  0  0  0  0  0
    8.1314  -15.8143   25.4235 N   0  0  0  0  0  0  0  0  0  0  0  0
    9.5882  -14.8546   23.7894 C   0  0  0  0  0  0  0  0  0  0  0  0
   10.5906  -15.3253   24.3559 O   0  0  0  0  0  0  0  0  0  0  0  0
    9.8233  -14.3263   22.5072 O   0  0  0  0  0  0  0  0  0  0  0  0
  2  1  1  0
  3  2  1  0
  4  3  2  0
  6  5  1  0
  6 16  2  0
  7  6  1  0
  8  7  2  0
  8  9  1  0
  9 15  2  0
 10  9  1  0
 11 10  1  6
 11 12  1  0
 12  3  1  0
 13 22  1  0
 13 11  1  0
 14 13  2  0
 15 16  1  0
 18 17  1  6
 19 18  1  0
 20 18  1  0
 21 22  1  0
 21 20  1  1
 23 21  1  0
 23 25  1  0
 24 23  2  0
M  END
$$$$
