GYL.pdb
     RDKit          3D

 25 25  0  0  1  0  0  0  0  0999 V2000
    9.9753  -20.0658   21.8575 N   0  0  0  0  0  0  0  0  0  0  0  0
    9.5503  -20.0430   23.2269 C   0  0  0  0  0  0  0  0  0  0  0  0
    8.3841  -19.1349   23.3560 C   0  0  0  0  0  0  0  0  0  0  0  0
    7.8361  -18.6265   22.3410 O   0  0  0  0  0  0  0  0  0  0  0  0
    6.8057  -23.6012   27.7723 O   0  0  0  0  0  0  0  0  0  0  0  0
    6.5918  -22.3044   27.3219 C   0  0  0  0  0  0  0  0  0  0  0  0
    5.8162  -22.0161   26.2208 C   0  0  0  0  0  0  0  0  0  0  0  0
    5.5836  -20.7454   25.7478 C   0  0  0  0  0  0  0  0  0  0  0  0
    6.1511  -19.6823   26.4007 C   0  0  0  0  0  0  0  0  0  0  0  0
    5.9060  -18.3152   25.9315 C   0  0  0  0  0  0  0  0  0  0  0  0
    6.6680  -17.9528   24.7111 C   0  0  2  0  0  0  0  0  0  0  0  0
    7.8677  -18.8245   24.6200 N   0  0  0  0  0  0  0  0  0  0  0  0
    7.2117  -16.5898   24.7744 C   0  0  0  0  0  0  0  0  0  0  0  0
    6.4678  -15.6318   24.3353 O   0  0  0  0  0  0  0  0  0  0  0  0
    6.9452  -19.9324   27.5219 C   0  0  0  0  0  0  0  0  0  0  0  0
    7.1554  -21.2057   27.9639 C   0  0  0  0  0  0  0  0  0  0  0  0
    5.9286  -12.7213   26.6674 C   0  0  0  0  0  0  0  0  0  0  0  0
    6.7073  -13.5206   25.6251 C   0  0  1  0  0  0  0  0  0  0  0  0
    7.1811  -12.5415   24.5408 C   0  0  0  0  0  0  0  0  0  0  0  0
    7.9436  -14.1001   26.2240 C   0  0  0  0  0  0  0  0  0  0  0  0
    8.8447  -14.8032   25.2164 C   0  0  2  0  0  0  0  0  0  0  0  0
    8.4847  -16.2058   25.2842 N   0  0  0  0  0  0  0  0  0  0  0  0
   10.2620  -14.6257   25.5250 C   0  0  0  0  0  0  0  0  0  0  0  0
   10.8699  -13.5431   25.4492 O   0  0  0  0  0  0  0  0  0  0  0  0
   11.0435  -15.7184   25.9418 O   0  0  0  0  0  0  0  0  0  0  0  0
  2  1  1  0
  3  2  1  0
  4  3  2  0
  6  5  1  0
  6 16  2  0
  7  6  1  0
  8  7  2  0
  8  9  1  0
  9 15  2  0
 10  9  1  0
 11 10  1  1
 11 12  1  0
 12  3  1  0
 13 22  1  0
 13 11  1  0
 14 13  2  0
 15 16  1  0
 18 17  1  1
 19 18  1  0
 20 18  1  0
 21 22  1  0
 21 20  1  1
 23 21  1  0
 23 25  1  0
 24 23  2  0
M  END
$$$$
