GYL.pdb
     RDKit          3D

 25 25  0  0  1  0  0  0  0  0999 V2000
    5.7552  -22.1433   25.5200 N   0  0  0  0  0  0  0  0  0  0  0  0
    6.7634  -21.4296   24.7916 C   0  0  0  0  0  0  0  0  0  0  0  0
    6.9839  -20.1117   25.4366 C   0  0  0  0  0  0  0  0  0  0  0  0
    6.0276  -19.4614   25.9381 O   0  0  0  0  0  0  0  0  0  0  0  0
   10.6162  -13.7193   30.1508 O   0  0  0  0  0  0  0  0  0  0  0  0
   10.4181  -14.8270   29.3358 C   0  0  0  0  0  0  0  0  0  0  0  0
   10.1267  -16.0772   29.8349 C   0  0  0  0  0  0  0  0  0  0  0  0
    9.9248  -17.1943   29.0579 C   0  0  0  0  0  0  0  0  0  0  0  0
   10.0144  -17.0772   27.6953 C   0  0  0  0  0  0  0  0  0  0  0  0
    9.7856  -18.2459   26.8402 C   0  0  0  0  0  0  0  0  0  0  0  0
    8.4602  -18.2527   26.1733 C   0  0  2  0  0  0  0  0  0  0  0  0
    8.2707  -19.5632   25.4995 N   0  0  0  0  0  0  0  0  0  0  0  0
    8.3749  -17.2682   25.0867 C   0  0  0  0  0  0  0  0  0  0  0  0
    8.4805  -17.7059   23.8779 O   0  0  0  0  0  0  0  0  0  0  0  0
   10.3087  -15.8260   27.1492 C   0  0  0  0  0  0  0  0  0  0  0  0
   10.5034  -14.7387   27.9495 C   0  0  0  0  0  0  0  0  0  0  0  0
    7.5389  -12.1016   26.4113 C   0  0  0  0  0  0  0  0  0  0  0  0
    7.3949  -13.5474   25.9419 C   0  0  1  0  0  0  0  0  0  0  0  0
    5.9176  -13.9423   26.0850 C   0  0  0  0  0  0  0  0  0  0  0  0
    7.7120  -13.6619   24.4896 C   0  0  0  0  0  0  0  0  0  0  0  0
    7.9426  -15.0932   24.0206 C   0  0  2  0  0  0  0  0  0  0  0  0
    8.1754  -15.8651   25.2255 N   0  0  0  0  0  0  0  0  0  0  0  0
    9.0866  -15.2009   23.1178 C   0  0  0  0  0  0  0  0  0  0  0  0
   10.1874  -15.6890   23.4296 O   0  0  0  0  0  0  0  0  0  0  0  0
    8.9955  -14.7380   21.7927 O   0  0  0  0  0  0  0  0  0  0  0  0
  2  1  1  0
  3  2  1  0
  4  3  2  0
  6  5  1  0
  6 16  2  0
  7  6  1  0
  8  7  2  0
  8  9  1  0
  9 15  2  0
 10  9  1  0
 11 10  1  6
 11 12  1  0
 12  3  1  0
 13 22  1  0
 13 11  1  0
 14 13  2  0
 15 16  1  0
 18 17  1  6
 19 18  1  0
 20 18  1  0
 21 22  1  0
 21 20  1  1
 23 21  1  0
 23 25  1  0
 24 23  2  0
M  END
$$$$
