GYL.pdb
     RDKit          3D

 25 25  0  0  1  0  0  0  0  0999 V2000
    6.6703  -20.7023   24.6110 N   0  0  0  0  0  0  0  0  0  0  0  0
    6.0667  -19.4019   24.5788 C   0  0  0  0  0  0  0  0  0  0  0  0
    6.8477  -18.5290   23.6680 C   0  0  0  0  0  0  0  0  0  0  0  0
    7.9155  -18.9318   23.1328 O   0  0  0  0  0  0  0  0  0  0  0  0
    8.9767  -12.1897   17.9508 O   0  0  0  0  0  0  0  0  0  0  0  0
    8.3461  -12.9645   18.9164 C   0  0  0  0  0  0  0  0  0  0  0  0
    8.0243  -12.4823   20.1658 C   0  0  0  0  0  0  0  0  0  0  0  0
    7.4007  -13.2207   21.1447 C   0  0  0  0  0  0  0  0  0  0  0  0
    7.0685  -14.5237   20.8797 C   0  0  0  0  0  0  0  0  0  0  0  0
    6.3862  -15.3301   21.8964 C   0  0  0  0  0  0  0  0  0  0  0  0
    7.2506  -16.3566   22.5292 C   0  0  2  0  0  0  0  0  0  0  0  0
    6.4071  -17.2304   23.3851 N   0  0  0  0  0  0  0  0  0  0  0  0
    8.2278  -15.7716   23.4566 C   0  0  0  0  0  0  0  0  0  0  0  0
    8.9235  -14.7708   23.0343 O   0  0  0  0  0  0  0  0  0  0  0  0
    7.3781  -15.0509   19.6241 C   0  0  0  0  0  0  0  0  0  0  0  0
    7.9975  -14.2903   18.6763 C   0  0  0  0  0  0  0  0  0  0  0  0
    8.5169  -12.1728   26.5512 C   0  0  0  0  0  0  0  0  0  0  0  0
    7.5110  -13.2673   26.9002 C   0  0  1  0  0  0  0  0  0  0  0  0
    6.1115  -12.6347   26.9032 C   0  0  0  0  0  0  0  0  0  0  0  0
    7.4862  -14.3150   25.8397 C   0  0  0  0  0  0  0  0  0  0  0  0
    8.7502  -15.1639   25.7830 C   0  0  2  0  0  0  0  0  0  0  0  0
    8.4864  -16.1897   24.7931 N   0  0  0  0  0  0  0  0  0  0  0  0
    9.0660  -15.7712   27.0741 C   0  0  0  0  0  0  0  0  0  0  0  0
    9.6769  -15.1969   27.9928 O   0  0  0  0  0  0  0  0  0  0  0  0
    8.6771  -17.0935   27.3544 O   0  0  0  0  0  0  0  0  0  0  0  0
  2  1  1  0
  3  2  1  0
  4  3  2  0
  6  5  1  0
  6 16  2  0
  7  6  1  0
  8  7  2  0
  8  9  1  0
  9 15  2  0
 10  9  1  0
 11 10  1  1
 11 12  1  0
 12  3  1  0
 13 22  1  0
 13 11  1  0
 14 13  2  0
 15 16  1  0
 18 17  1  6
 19 18  1  0
 20 18  1  0
 21 22  1  0
 21 20  1  1
 23 21  1  0
 23 25  1  0
 24 23  2  0
M  END
$$$$
