GYL.pdb
     RDKit          3D

 25 25  0  0  1  0  0  0  0  0999 V2000
    5.5026  -17.4425   21.7328 N   0  0  0  0  0  0  0  0  0  0  0  0
    6.7107  -18.1688   21.4692 C   0  0  0  0  0  0  0  0  0  0  0  0
    7.8735  -17.2925   21.7542 C   0  0  0  0  0  0  0  0  0  0  0  0
    9.0545  -17.6935   21.5715 O   0  0  0  0  0  0  0  0  0  0  0  0
    8.0290  -13.6644   16.2500 O   0  0  0  0  0  0  0  0  0  0  0  0
    8.1568  -13.6963   17.6331 C   0  0  0  0  0  0  0  0  0  0  0  0
    9.3681  -13.8664   18.2662 C   0  0  0  0  0  0  0  0  0  0  0  0
    9.5307  -13.9028   19.6317 C   0  0  0  0  0  0  0  0  0  0  0  0
    8.4279  -13.7618   20.4332 C   0  0  0  0  0  0  0  0  0  0  0  0
    8.5723  -13.7774   21.8920 C   0  0  0  0  0  0  0  0  0  0  0  0
    8.8593  -15.1205   22.4534 C   0  0  2  0  0  0  0  0  0  0  0  0
    7.6763  -15.9926   22.2358 N   0  0  0  0  0  0  0  0  0  0  0  0
    9.0289  -15.0933   23.9121 C   0  0  0  0  0  0  0  0  0  0  0  0
   10.1042  -14.5525   24.3760 O   0  0  0  0  0  0  0  0  0  0  0  0
    7.1805  -13.5875   19.8301 C   0  0  0  0  0  0  0  0  0  0  0  0
    7.0552  -13.5565   18.4721 C   0  0  0  0  0  0  0  0  0  0  0  0
    5.5929  -12.7603   26.6859 C   0  0  0  0  0  0  0  0  0  0  0  0
    6.9618  -13.2944   26.2705 C   0  0  1  0  0  0  0  0  0  0  0  0
    8.0297  -12.3817   26.8913 C   0  0  0  0  0  0  0  0  0  0  0  0
    7.1937  -14.6496   26.8472 C   0  0  0  0  0  0  0  0  0  0  0  0
    8.4176  -15.3586   26.2807 C   0  0  2  0  0  0  0  0  0  0  0  0
    8.1171  -15.5976   24.8828 N   0  0  0  0  0  0  0  0  0  0  0  0
    8.6914  -16.6200   26.9657 C   0  0  0  0  0  0  0  0  0  0  0  0
    8.5021  -17.7459   26.4721 O   0  0  0  0  0  0  0  0  0  0  0  0
    9.2058  -16.6238   28.2748 O   0  0  0  0  0  0  0  0  0  0  0  0
  2  1  1  0
  3  2  1  0
  4  3  2  0
  6  5  1  0
  6 16  2  0
  7  6  1  0
  8  7  2  0
  8  9  1  0
  9 15  2  0
 10  9  1  0
 11 10  1  1
 11 12  1  0
 12  3  1  0
 13 22  1  0
 13 11  1  0
 14 13  2  0
 15 16  1  0
 18 17  1  1
 19 18  1  0
 20 18  1  0
 21 22  1  0
 21 20  1  1
 23 21  1  0
 23 25  1  0
 24 23  2  0
M  END
$$$$
