GYL.pdb
     RDKit          3D

 25 25  0  0  1  0  0  0  0  0999 V2000
    6.3148  -20.7789   24.9590 N   0  0  0  0  0  0  0  0  0  0  0  0
    5.7959  -19.4421   24.9683 C   0  0  0  0  0  0  0  0  0  0  0  0
    6.6624  -18.5815   24.1256 C   0  0  0  0  0  0  0  0  0  0  0  0
    7.7329  -19.0215   23.6263 O   0  0  0  0  0  0  0  0  0  0  0  0
    8.9668  -12.5068   18.2402 O   0  0  0  0  0  0  0  0  0  0  0  0
    8.3090  -13.2108   19.2411 C   0  0  0  0  0  0  0  0  0  0  0  0
    7.8991  -14.5168   19.0880 C   0  0  0  0  0  0  0  0  0  0  0  0
    7.2462  -15.2430   20.0570 C   0  0  0  0  0  0  0  0  0  0  0  0
    6.9766  -14.6468   21.2613 C   0  0  0  0  0  0  0  0  0  0  0  0
    6.2990  -15.4013   22.3200 C   0  0  0  0  0  0  0  0  0  0  0  0
    7.1444  -16.4455   22.9494 C   0  0  2  0  0  0  0  0  0  0  0  0
    6.3017  -17.2532   23.8686 N   0  0  0  0  0  0  0  0  0  0  0  0
    8.1859  -15.8766   23.8148 C   0  0  0  0  0  0  0  0  0  0  0  0
    9.2878  -15.5069   23.2553 O   0  0  0  0  0  0  0  0  0  0  0  0
    7.3756  -13.3228   21.4564 C   0  0  0  0  0  0  0  0  0  0  0  0
    8.0212  -12.6316   20.4735 C   0  0  0  0  0  0  0  0  0  0  0  0
    6.7005  -12.7828   27.7695 C   0  0  0  0  0  0  0  0  0  0  0  0
    7.3052  -13.5372   26.5877 C   0  0  1  0  0  0  0  0  0  0  0  0
    7.6353  -12.5101   25.4946 C   0  0  0  0  0  0  0  0  0  0  0  0
    8.6041  -14.1603   26.9718 C   0  0  0  0  0  0  0  0  0  0  0  0
    9.2207  -15.0228   25.8775 C   0  0  2  0  0  0  0  0  0  0  0  0
    8.1053  -15.6774   25.2226 N   0  0  0  0  0  0  0  0  0  0  0  0
   10.1499  -16.0149   26.4140 C   0  0  0  0  0  0  0  0  0  0  0  0
    9.9195  -17.2356   26.4761 O   0  0  0  0  0  0  0  0  0  0  0  0
   11.4065  -15.6212   26.9082 O   0  0  0  0  0  0  0  0  0  0  0  0
  2  1  1  0
  3  2  1  0
  4  3  2  0
  6  5  1  0
  6 16  2  0
  7  6  1  0
  8  7  2  0
  8  9  1  0
  9 15  2  0
 10  9  1  0
 11 10  1  1
 11 12  1  0
 12  3  1  0
 13 22  1  0
 13 11  1  0
 14 13  2  0
 15 16  1  0
 18 17  1  1
 19 18  1  0
 20 18  1  0
 21 22  1  0
 21 20  1  1
 23 21  1  0
 23 25  1  0
 24 23  2  0
M  END
$$$$
