GYL.pdb
     RDKit          3D

 25 25  0  0  1  0  0  0  0  0999 V2000
    7.5615  -19.7575   21.4432 N   0  0  0  0  0  0  0  0  0  0  0  0
    7.2020  -18.6036   22.2151 C   0  0  0  0  0  0  0  0  0  0  0  0
    8.3851  -17.7168   22.3382 C   0  0  0  0  0  0  0  0  0  0  0  0
    9.5135  -18.0677   21.8994 O   0  0  0  0  0  0  0  0  0  0  0  0
    7.2117  -13.2723   17.3261 O   0  0  0  0  0  0  0  0  0  0  0  0
    7.6288  -13.4950   18.6325 C   0  0  0  0  0  0  0  0  0  0  0  0
    8.9556  -13.6196   18.9805 C   0  0  0  0  0  0  0  0  0  0  0  0
    9.4033  -13.8402   20.2625 C   0  0  0  0  0  0  0  0  0  0  0  0
    8.4854  -13.9455   21.2748 C   0  0  0  0  0  0  0  0  0  0  0  0
    8.9332  -14.1616   22.6539 C   0  0  0  0  0  0  0  0  0  0  0  0
    9.4271  -15.5356   22.9173 C   0  0  2  0  0  0  0  0  0  0  0  0
    8.2666  -16.4629   22.9500 N   0  0  0  0  0  0  0  0  0  0  0  0
   10.0360  -15.6666   24.2475 C   0  0  0  0  0  0  0  0  0  0  0  0
   11.1417  -15.0372   24.4600 O   0  0  0  0  0  0  0  0  0  0  0  0
    7.1294  -13.8253   20.9634 C   0  0  0  0  0  0  0  0  0  0  0  0
    6.7200  -13.6070   19.6806 C   0  0  0  0  0  0  0  0  0  0  0  0
   11.3069  -13.9765   28.5233 C   0  0  0  0  0  0  0  0  0  0  0  0
    9.9575  -14.6837   28.6258 C   0  0  1  0  0  0  0  0  0  0  0  0
    8.9477  -13.6854   29.2111 C   0  0  0  0  0  0  0  0  0  0  0  0
    9.4464  -15.0385   27.2709 C   0  0  0  0  0  0  0  0  0  0  0  0
   10.1527  -16.2318   26.6394 C   0  0  2  0  0  0  0  0  0  0  0  0
    9.5252  -16.4158   25.3455 N   0  0  0  0  0  0  0  0  0  0  0  0
   10.0199  -17.4427   27.4466 C   0  0  0  0  0  0  0  0  0  0  0  0
   10.5674  -17.6183   28.5496 O   0  0  0  0  0  0  0  0  0  0  0  0
    9.2313  -18.5169   26.9966 O   0  0  0  0  0  0  0  0  0  0  0  0
  2  1  1  0
  3  2  1  0
  4  3  2  0
  6  5  1  0
  6 16  2  0
  7  6  1  0
  8  7  2  0
  8  9  1  0
  9 15  2  0
 10  9  1  0
 11 10  1  1
 11 12  1  0
 12  3  1  0
 13 22  1  0
 13 11  1  0
 14 13  2  0
 15 16  1  0
 18 17  1  6
 19 18  1  0
 20 18  1  0
 21 22  1  0
 21 20  1  1
 23 21  1  0
 23 25  1  0
 24 23  2  0
M  END
$$$$
