GYL.pdb
     RDKit          3D

 25 25  0  0  1  0  0  0  0  0999 V2000
    6.6229  -19.2593   20.7657 N   0  0  0  0  0  0  0  0  0  0  0  0
    6.3728  -18.0050   21.4144 C   0  0  0  0  0  0  0  0  0  0  0  0
    7.6588  -17.2855   21.5876 C   0  0  0  0  0  0  0  0  0  0  0  0
    8.7572  -17.8304   21.2947 O   0  0  0  0  0  0  0  0  0  0  0  0
    7.4157  -13.8157   16.2568 O   0  0  0  0  0  0  0  0  0  0  0  0
    7.7792  -13.8470   17.5974 C   0  0  0  0  0  0  0  0  0  0  0  0
    8.7189  -14.7225   18.0947 C   0  0  0  0  0  0  0  0  0  0  0  0
    9.1023  -14.7806   19.4147 C   0  0  0  0  0  0  0  0  0  0  0  0
    8.5238  -13.9192   20.3100 C   0  0  0  0  0  0  0  0  0  0  0  0
    8.9255  -13.9446   21.7197 C   0  0  0  0  0  0  0  0  0  0  0  0
    8.9819  -15.3071   22.3043 C   0  0  2  0  0  0  0  0  0  0  0  0
    7.6738  -15.9764   22.0841 N   0  0  0  0  0  0  0  0  0  0  0  0
    9.1384  -15.2840   23.7645 C   0  0  0  0  0  0  0  0  0  0  0  0
   10.3119  -15.0245   24.2329 O   0  0  0  0  0  0  0  0  0  0  0  0
    7.5655  -13.0156   19.8456 C   0  0  0  0  0  0  0  0  0  0  0  0
    7.2086  -12.9852   18.5294 C   0  0  0  0  0  0  0  0  0  0  0  0
    6.0506  -12.5705   26.8270 C   0  0  0  0  0  0  0  0  0  0  0  0
    7.2934  -13.2578   26.2662 C   0  0  1  0  0  0  0  0  0  0  0  0
    8.5226  -12.4808   26.7604 C   0  0  0  0  0  0  0  0  0  0  0  0
    7.4273  -14.6350   26.8214 C   0  0  0  0  0  0  0  0  0  0  0  0
    8.4943  -15.4759   26.1315 C   0  0  2  0  0  0  0  0  0  0  0  0
    8.1182  -15.5107   24.7319 N   0  0  0  0  0  0  0  0  0  0  0  0
    8.5654  -16.8311   26.6736 C   0  0  0  0  0  0  0  0  0  0  0  0
    8.2121  -17.8547   26.0615 O   0  0  0  0  0  0  0  0  0  0  0  0
    9.0590  -17.0552   27.9715 O   0  0  0  0  0  0  0  0  0  0  0  0
  2  1  1  0
  3  2  1  0
  4  3  2  0
  6  5  1  0
  6 16  2  0
  7  6  1  0
  8  7  2  0
  8  9  1  0
  9 15  2  0
 10  9  1  0
 11 10  1  1
 11 12  1  0
 12  3  1  0
 13 22  1  0
 13 11  1  0
 14 13  2  0
 15 16  1  0
 18 17  1  1
 19 18  1  0
 20 18  1  0
 21 22  1  0
 21 20  1  1
 23 21  1  0
 23 25  1  0
 24 23  2  0
M  END
$$$$
