GYL.pdb
     RDKit          3D

 25 25  0  0  1  0  0  0  0  0999 V2000
    6.0355  -16.0858   18.7472 N   0  0  0  0  0  0  0  0  0  0  0  0
    7.1413  -15.4341   19.3868 C   0  0  0  0  0  0  0  0  0  0  0  0
    7.4280  -16.1183   20.6717 C   0  0  0  0  0  0  0  0  0  0  0  0
    6.7045  -17.0646   21.0840 O   0  0  0  0  0  0  0  0  0  0  0  0
   11.3634  -20.8291   26.6882 O   0  0  0  0  0  0  0  0  0  0  0  0
   11.0349  -19.9634   25.6524 C   0  0  0  0  0  0  0  0  0  0  0  0
   11.9832  -19.2893   24.9151 C   0  0  0  0  0  0  0  0  0  0  0  0
   11.6936  -18.4258   23.8842 C   0  0  0  0  0  0  0  0  0  0  0  0
   10.3818  -18.2082   23.5523 C   0  0  0  0  0  0  0  0  0  0  0  0
   10.0427  -17.3080   22.4459 C   0  0  0  0  0  0  0  0  0  0  0  0
    8.8323  -16.4853   22.6896 C   0  0  2  0  0  0  0  0  0  0  0  0
    8.5178  -15.7200   21.4555 N   0  0  0  0  0  0  0  0  0  0  0  0
    9.0524  -15.4541   23.7120 C   0  0  0  0  0  0  0  0  0  0  0  0
   10.1215  -14.7389   23.6149 O   0  0  0  0  0  0  0  0  0  0  0  0
    9.3895  -18.8726   24.2762 C   0  0  0  0  0  0  0  0  0  0  0  0
    9.7121  -19.7223   25.2934 C   0  0  0  0  0  0  0  0  0  0  0  0
    5.5240  -12.1908   25.9981 C   0  0  0  0  0  0  0  0  0  0  0  0
    6.7512  -12.8588   25.3824 C   0  0  1  0  0  0  0  0  0  0  0  0
    7.6526  -11.7523   24.8148 C   0  0  0  0  0  0  0  0  0  0  0  0
    7.5564  -13.5468   26.4318 C   0  0  0  0  0  0  0  0  0  0  0  0
    8.7367  -14.3383   25.8822 C   0  0  2  0  0  0  0  0  0  0  0  0
    8.1962  -15.1481   24.8080 N   0  0  0  0  0  0  0  0  0  0  0  0
    9.3539  -15.1872   26.8989 C   0  0  0  0  0  0  0  0  0  0  0  0
    9.0874  -16.3901   27.0697 O   0  0  0  0  0  0  0  0  0  0  0  0
   10.3231  -14.6631   27.7733 O   0  0  0  0  0  0  0  0  0  0  0  0
  2  1  1  0
  3  2  1  0
  4  3  2  0
  6  5  1  0
  6 16  2  0
  7  6  1  0
  8  7  2  0
  8  9  1  0
  9 15  2  0
 10  9  1  0
 11 10  1  6
 11 12  1  0
 12  3  1  0
 13 22  1  0
 13 11  1  0
 14 13  2  0
 15 16  1  0
 18 17  1  1
 19 18  1  0
 20 18  1  0
 21 22  1  0
 21 20  1  1
 23 21  1  0
 23 25  1  0
 24 23  2  0
M  END
$$$$
