GYL.pdb
     RDKit          3D

 25 25  0  0  1  0  0  0  0  0999 V2000
    5.8765  -17.8825   18.7932 N   0  0  0  0  0  0  0  0  0  0  0  0
    7.1060  -17.6639   19.4981 C   0  0  0  0  0  0  0  0  0  0  0  0
    6.8418  -17.7127   20.9573 C   0  0  0  0  0  0  0  0  0  0  0  0
    5.6676  -17.6479   21.4114 O   0  0  0  0  0  0  0  0  0  0  0  0
    7.9208  -19.7361   29.4800 O   0  0  0  0  0  0  0  0  0  0  0  0
    8.0329  -19.5713   28.1050 C   0  0  0  0  0  0  0  0  0  0  0  0
    9.2238  -19.2626   27.4858 C   0  0  0  0  0  0  0  0  0  0  0  0
    9.3705  -19.0925   26.1285 C   0  0  0  0  0  0  0  0  0  0  0  0
    8.2721  -19.2358   25.3214 C   0  0  0  0  0  0  0  0  0  0  0  0
    8.4010  -19.0793   23.8695 C   0  0  0  0  0  0  0  0  0  0  0  0
    7.5988  -17.9628   23.3116 C   0  0  2  0  0  0  0  0  0  0  0  0
    7.9028  -17.8327   21.8631 N   0  0  0  0  0  0  0  0  0  0  0  0
    7.9760  -16.6627   23.8815 C   0  0  0  0  0  0  0  0  0  0  0  0
    9.0145  -16.0765   23.3898 O   0  0  0  0  0  0  0  0  0  0  0  0
    7.0452  -19.5484   25.9106 C   0  0  0  0  0  0  0  0  0  0  0  0
    6.9352  -19.7099   27.2606 C   0  0  0  0  0  0  0  0  0  0  0  0
    6.9955  -11.6631   25.2745 C   0  0  0  0  0  0  0  0  0  0  0  0
    6.9945  -12.5893   26.4884 C   0  0  1  0  0  0  0  0  0  0  0  0
    5.8426  -12.1568   27.4077 C   0  0  0  0  0  0  0  0  0  0  0  0
    6.6901  -13.9904   26.0796 C   0  0  0  0  0  0  0  0  0  0  0  0
    7.8192  -14.6671   25.3123 C   0  0  2  0  0  0  0  0  0  0  0  0
    7.3037  -15.9657   24.9257 N   0  0  0  0  0  0  0  0  0  0  0  0
    9.0249  -14.8188   26.1238 C   0  0  0  0  0  0  0  0  0  0  0  0
    9.1442  -15.6219   27.0662 O   0  0  0  0  0  0  0  0  0  0  0  0
   10.1608  -14.0296   25.8680 O   0  0  0  0  0  0  0  0  0  0  0  0
  2  1  1  0
  3  2  1  0
  4  3  2  0
  6  5  1  0
  6 16  2  0
  7  6  1  0
  8  7  2  0
  8  9  1  0
  9 15  2  0
 10  9  1  0
 11 10  1  1
 11 12  1  0
 12  3  1  0
 13 22  1  0
 13 11  1  0
 14 13  2  0
 15 16  1  0
 18 17  1  6
 19 18  1  0
 20 18  1  0
 21 22  1  0
 21 20  1  1
 23 21  1  0
 23 25  1  0
 24 23  2  0
M  END
$$$$
