GYL.pdb
     RDKit          3D

 25 25  0  0  1  0  0  0  0  0999 V2000
    6.6093  -16.5560   19.1999 N   0  0  0  0  0  0  0  0  0  0  0  0
    7.6983  -16.8515   20.0850 C   0  0  0  0  0  0  0  0  0  0  0  0
    7.2219  -16.7541   21.4867 C   0  0  0  0  0  0  0  0  0  0  0  0
    6.0577  -16.3522   21.7550 O   0  0  0  0  0  0  0  0  0  0  0  0
    4.5213  -22.5534   22.0818 O   0  0  0  0  0  0  0  0  0  0  0  0
    5.3085  -21.5656   22.6604 C   0  0  0  0  0  0  0  0  0  0  0  0
    4.8463  -20.7303   23.6532 C   0  0  0  0  0  0  0  0  0  0  0  0
    5.5975  -19.7428   24.2474 C   0  0  0  0  0  0  0  0  0  0  0  0
    6.8935  -19.5620   23.8399 C   0  0  0  0  0  0  0  0  0  0  0  0
    7.7247  -18.5304   24.4678 C   0  0  0  0  0  0  0  0  0  0  0  0
    7.5075  -17.1683   23.9209 C   0  0  2  0  0  0  0  0  0  0  0  0
    8.0661  -17.1106   22.5454 N   0  0  0  0  0  0  0  0  0  0  0  0
    8.2536  -16.1422   24.6608 C   0  0  0  0  0  0  0  0  0  0  0  0
    9.5180  -16.0411   24.4264 O   0  0  0  0  0  0  0  0  0  0  0  0
    7.4003  -20.3887   22.8349 C   0  0  0  0  0  0  0  0  0  0  0  0
    6.6272  -21.3583   22.2667 C   0  0  0  0  0  0  0  0  0  0  0  0
    5.8785  -11.6309   26.4524 C   0  0  0  0  0  0  0  0  0  0  0  0
    6.7858  -12.6776   25.8099 C   0  0  1  0  0  0  0  0  0  0  0  0
    7.5859  -11.9854   24.6966 C   0  0  0  0  0  0  0  0  0  0  0  0
    7.7923  -13.1737   26.7917 C   0  0  0  0  0  0  0  0  0  0  0  0
    8.6459  -14.3233   26.2709 C   0  0  2  0  0  0  0  0  0  0  0  0
    7.7224  -15.2280   25.6148 N   0  0  0  0  0  0  0  0  0  0  0  0
    9.3581  -15.0128   27.3445 C   0  0  0  0  0  0  0  0  0  0  0  0
   10.2904  -14.5186   28.0030 O   0  0  0  0  0  0  0  0  0  0  0  0
    9.0090  -16.3274   27.7026 O   0  0  0  0  0  0  0  0  0  0  0  0
  2  1  1  0
  3  2  1  0
  4  3  2  0
  6  5  1  0
  6 16  2  0
  7  6  1  0
  8  7  2  0
  8  9  1  0
  9 15  2  0
 10  9  1  0
 11 10  1  1
 11 12  1  0
 12  3  1  0
 13 22  1  0
 13 11  1  0
 14 13  2  0
 15 16  1  0
 18 17  1  1
 19 18  1  0
 20 18  1  0
 21 22  1  0
 21 20  1  1
 23 21  1  0
 23 25  1  0
 24 23  2  0
M  END
$$$$
