VQE.pdb
     RDKit          3D

 26 25  0  0  1  0  0  0  0  0999 V2000
    7.6242  -13.9450   18.0363 C   0  0  0  0  0  0  0  0  0  0  0  0
    8.2100  -13.6291   19.3954 C   0  0  1  0  0  0  0  0  0  0  0  0
    7.3310  -12.6136   20.0547 C   0  0  0  0  0  0  0  0  0  0  0  0
    8.3897  -14.8918   20.1990 C   0  0  2  0  0  0  0  0  0  0  0  0
    7.2456  -15.7430   20.1257 N   0  0  0  0  0  0  0  0  0  0  0  0
    8.8376  -14.6221   21.5811 C   0  0  0  0  0  0  0  0  0  0  0  0
   10.0620  -14.2792   21.7185 O   0  0  0  0  0  0  0  0  0  0  0  0
    5.3946  -12.8445   26.4077 N   0  0  0  0  0  0  0  0  0  0  0  0
    6.7171  -12.8191   26.9660 C   0  0  0  0  0  0  0  0  0  0  0  0
    6.8553  -12.2515   28.0745 O   0  0  0  0  0  0  0  0  0  0  0  0
    7.8548  -13.4447   26.2425 C   0  0  0  0  0  0  0  0  0  0  0  0
    7.3577  -13.8860   24.8947 C   0  0  0  0  0  0  0  0  0  0  0  0
    8.4519  -14.5028   24.0504 C   0  0  2  0  0  0  0  0  0  0  0  0
    7.9893  -14.7275   22.7048 N   0  0  0  0  0  0  0  0  0  0  0  0
    8.9850  -15.7338   24.6793 C   0  0  0  0  0  0  0  0  0  0  0  0
    8.2206  -16.7117   24.8154 O   0  0  0  0  0  0  0  0  0  0  0  0
   10.3058  -15.8095   25.1120 N   0  0  0  0  0  0  0  0  0  0  0  0
   10.9326  -17.0384   25.6126 C   0  0  1  0  0  0  0  0  0  0  0  0
   12.3858  -17.0538   25.3484 C   0  0  0  0  0  0  0  0  0  0  0  0
   12.6892  -17.0969   23.8826 C   0  0  0  0  0  0  0  0  0  0  0  0
   14.0513  -16.6408   23.5215 C   0  0  0  0  0  0  0  0  0  0  0  0
   14.7921  -16.2719   24.4681 O   0  0  0  0  0  0  0  0  0  0  0  0
   10.6587  -17.0709   27.0598 C   0  0  0  0  0  0  0  0  0  0  0  0
    9.9685  -16.0448   27.7303 O   0  0  0  0  0  0  0  0  0  0  0  0
   14.5649  -16.5873   22.2432 O   0  0  0  0  0  0  0  0  0  0  0  0
   11.0620  -18.0671   27.7496 O   0  0  0  0  0  0  0  0  0  0  0  0
  2  1  1  6
  2  3  1  0
  4  2  1  0
  4  5  1  1
  6  4  1  0
  6  7  2  0
  9 10  2  0
  9  8  1  0
 11  9  1  0
 13 12  1  1
 12 11  1  0
 13 14  1  0
 14  6  1  0
 15 13  1  0
 16 15  2  0
 17 15  1  0
 18 19  1  1
 18 17  1  0
 19 20  1  0
 21 20  1  0
 21 25  1  0
 22 21  2  0
 23 24  1  0
 23 18  1  0
 26 23  2  0
M  END
$$$$
