VQE.pdb
     RDKit          3D

 26 25  0  0  1  0  0  0  0  0999 V2000
    7.5526  -14.0174   18.4751 C   0  0  0  0  0  0  0  0  0  0  0  0
    8.1161  -14.2598   19.8585 C   0  0  1  0  0  0  0  0  0  0  0  0
    8.6855  -12.9702   20.3598 C   0  0  0  0  0  0  0  0  0  0  0  0
    7.0636  -14.8518   20.7608 C   0  0  2  0  0  0  0  0  0  0  0  0
    5.8785  -14.0562   20.7984 N   0  0  0  0  0  0  0  0  0  0  0  0
    7.5921  -15.1879   22.0993 C   0  0  0  0  0  0  0  0  0  0  0  0
    7.4955  -14.2732   22.9879 O   0  0  0  0  0  0  0  0  0  0  0  0
    5.9462  -19.1262   25.8435 N   0  0  0  0  0  0  0  0  0  0  0  0
    7.1324  -18.7299   26.5486 C   0  0  0  0  0  0  0  0  0  0  0  0
    7.2097  -19.0524   27.7570 O   0  0  0  0  0  0  0  0  0  0  0  0
    8.2062  -17.9719   25.8548 C   0  0  0  0  0  0  0  0  0  0  0  0
    7.7027  -17.6063   24.4868 C   0  0  0  0  0  0  0  0  0  0  0  0
    8.6861  -16.7477   23.7211 C   0  0  2  0  0  0  0  0  0  0  0  0
    8.1749  -16.4355   22.4110 N   0  0  0  0  0  0  0  0  0  0  0  0
   10.0249  -17.3804   23.6709 C   0  0  0  0  0  0  0  0  0  0  0  0
   10.3861  -17.9257   22.6073 O   0  0  0  0  0  0  0  0  0  0  0  0
   10.8687  -17.3731   24.7780 N   0  0  0  0  0  0  0  0  0  0  0  0
   12.1804  -18.0305   24.8101 C   0  0  1  0  0  0  0  0  0  0  0  0
   13.1044  -17.4485   23.8154 C   0  0  0  0  0  0  0  0  0  0  0  0
   13.2623  -15.9700   23.9940 C   0  0  0  0  0  0  0  0  0  0  0  0
   14.2099  -15.3331   23.0505 C   0  0  0  0  0  0  0  0  0  0  0  0
   15.3687  -15.1057   23.4823 O   0  0  0  0  0  0  0  0  0  0  0  0
   12.6922  -17.8438   26.1788 C   0  0  0  0  0  0  0  0  0  0  0  0
   11.9575  -17.1949   27.1878 O   0  0  0  0  0  0  0  0  0  0  0  0
   13.9243  -14.9719   21.7510 O   0  0  0  0  0  0  0  0  0  0  0  0
   13.8539  -18.2829   26.4765 O   0  0  0  0  0  0  0  0  0  0  0  0
  2  1  1  6
  2  3  1  0
  4  2  1  0
  4  5  1  1
  6  4  1  0
  6  7  2  0
  9 10  2  0
  9  8  1  0
 11  9  1  0
 13 12  1  6
 12 11  1  0
 13 14  1  0
 14  6  1  0
 15 13  1  0
 16 15  2  0
 17 15  1  0
 18 19  1  6
 18 17  1  0
 19 20  1  0
 21 20  1  0
 21 25  1  0
 22 21  2  0
 23 24  1  0
 23 18  1  0
 26 23  2  0
M  END
$$$$
