VQE.pdb
     RDKit          3D

 26 25  0  0  1  0  0  0  0  0999 V2000
    9.4673  -14.7993   19.7751 C   0  0  0  0  0  0  0  0  0  0  0  0
    8.2401  -13.9363   19.9734 C   0  0  1  0  0  0  0  0  0  0  0  0
    7.8889  -13.3198   18.6561 C   0  0  0  0  0  0  0  0  0  0  0  0
    7.1223  -14.7413   20.5858 C   0  0  2  0  0  0  0  0  0  0  0  0
    5.8731  -14.0515   20.5355 N   0  0  0  0  0  0  0  0  0  0  0  0
    7.4635  -15.2478   21.9314 C   0  0  0  0  0  0  0  0  0  0  0  0
    7.4700  -14.3825   22.8731 O   0  0  0  0  0  0  0  0  0  0  0  0
    5.6741  -20.3874   24.4779 N   0  0  0  0  0  0  0  0  0  0  0  0
    6.5524  -19.9170   25.5117 C   0  0  0  0  0  0  0  0  0  0  0  0
    6.5000  -20.5090   26.6148 O   0  0  0  0  0  0  0  0  0  0  0  0
    7.4730  -18.7775   25.2606 C   0  0  0  0  0  0  0  0  0  0  0  0
    7.1797  -18.2415   23.8875 C   0  0  0  0  0  0  0  0  0  0  0  0
    8.0801  -17.0829   23.5166 C   0  0  2  0  0  0  0  0  0  0  0  0
    7.7690  -16.6008   22.1953 N   0  0  0  0  0  0  0  0  0  0  0  0
    9.5090  -17.4450   23.6658 C   0  0  0  0  0  0  0  0  0  0  0  0
    9.9981  -18.2770   22.8735 O   0  0  0  0  0  0  0  0  0  0  0  0
   10.2973  -16.8770   24.6625 N   0  0  0  0  0  0  0  0  0  0  0  0
   11.6540  -17.3312   24.9895 C   0  0  1  0  0  0  0  0  0  0  0  0
   12.6624  -16.2968   24.6810 C   0  0  0  0  0  0  0  0  0  0  0  0
   13.0959  -16.3454   23.2484 C   0  0  0  0  0  0  0  0  0  0  0  0
   14.1752  -15.3933   22.8985 C   0  0  0  0  0  0  0  0  0  0  0  0
   15.2635  -15.5230   23.5147 O   0  0  0  0  0  0  0  0  0  0  0  0
   11.6398  -17.6418   26.4295 C   0  0  0  0  0  0  0  0  0  0  0  0
   12.6906  -18.3175   27.0762 O   0  0  0  0  0  0  0  0  0  0  0  0
   14.0812  -14.3858   21.9622 O   0  0  0  0  0  0  0  0  0  0  0  0
   10.6344  -17.2905   27.1343 O   0  0  0  0  0  0  0  0  0  0  0  0
  2  1  1  6
  2  3  1  0
  4  2  1  0
  4  5  1  1
  6  4  1  0
  6  7  2  0
  9 10  2  0
  9  8  1  0
 11  9  1  0
 13 12  1  6
 12 11  1  0
 13 14  1  0
 14  6  1  0
 15 13  1  0
 16 15  2  0
 17 15  1  0
 18 19  1  1
 18 17  1  0
 19 20  1  0
 21 20  1  0
 21 25  1  0
 22 21  2  0
 23 24  1  0
 23 18  1  0
 26 23  2  0
M  END
$$$$
