VQE.pdb
     RDKit          3D

 26 25  0  0  1  0  0  0  0  0999 V2000
    7.4252  -14.1278   17.3001 C   0  0  0  0  0  0  0  0  0  0  0  0
    8.1243  -14.4838   18.5942 C   0  0  1  0  0  0  0  0  0  0  0  0
    9.5096  -14.9413   18.2624 C   0  0  0  0  0  0  0  0  0  0  0  0
    8.0806  -13.3225   19.5544 C   0  0  2  0  0  0  0  0  0  0  0  0
    8.6751  -12.1470   19.0036 N   0  0  0  0  0  0  0  0  0  0  0  0
    8.6005  -13.6763   20.8917 C   0  0  0  0  0  0  0  0  0  0  0  0
    9.8030  -13.3189   21.1400 O   0  0  0  0  0  0  0  0  0  0  0  0
    5.9999  -17.5802   24.8251 N   0  0  0  0  0  0  0  0  0  0  0  0
    7.0427  -17.1003   25.6874 C   0  0  0  0  0  0  0  0  0  0  0  0
    7.2058  -17.7048   26.7729 O   0  0  0  0  0  0  0  0  0  0  0  0
    7.8776  -15.9371   25.2887 C   0  0  0  0  0  0  0  0  0  0  0  0
    7.3247  -15.3919   24.0020 C   0  0  0  0  0  0  0  0  0  0  0  0
    8.4060  -14.8409   23.0976 C   0  0  2  0  0  0  0  0  0  0  0  0
    7.8404  -14.3673   21.8603 N   0  0  0  0  0  0  0  0  0  0  0  0
    9.4843  -15.8343   22.8842 C   0  0  0  0  0  0  0  0  0  0  0  0
    9.4227  -16.5731   21.8794 O   0  0  0  0  0  0  0  0  0  0  0  0
   10.5461  -15.9500   23.7767 N   0  0  0  0  0  0  0  0  0  0  0  0
   11.7908  -16.6676   23.4773 C   0  0  1  0  0  0  0  0  0  0  0  0
   12.7483  -15.8131   22.7459 C   0  0  0  0  0  0  0  0  0  0  0  0
   14.0226  -16.5361   22.4362 C   0  0  0  0  0  0  0  0  0  0  0  0
   15.0447  -15.7157   21.7463 C   0  0  0  0  0  0  0  0  0  0  0  0
   15.9812  -15.2676   22.4556 O   0  0  0  0  0  0  0  0  0  0  0  0
   12.3411  -17.0823   24.7794 C   0  0  0  0  0  0  0  0  0  0  0  0
   13.2073  -18.1807   24.9284 O   0  0  0  0  0  0  0  0  0  0  0  0
   15.0493  -15.4061   20.4029 O   0  0  0  0  0  0  0  0  0  0  0  0
   12.0243  -16.4267   25.8287 O   0  0  0  0  0  0  0  0  0  0  0  0
  2  1  1  6
  2  3  1  0
  4  2  1  0
  4  5  1  6
  6  4  1  0
  6  7  2  0
  9 10  2  0
  9  8  1  0
 11  9  1  0
 13 12  1  1
 12 11  1  0
 13 14  1  0
 14  6  1  0
 15 13  1  0
 16 15  2  0
 17 15  1  0
 18 19  1  1
 18 17  1  0
 19 20  1  0
 21 20  1  0
 21 25  1  0
 22 21  2  0
 23 24  1  0
 23 18  1  0
 26 23  2  0
M  END
$$$$
