VQE.pdb
     RDKit          3D

 26 25  0  0  1  0  0  0  0  0999 V2000
    9.2928  -12.3277   19.7749 C   0  0  0  0  0  0  0  0  0  0  0  0
    8.3568  -13.4323   19.3349 C   0  0  1  0  0  0  0  0  0  0  0  0
    7.0608  -12.8066   18.9256 C   0  0  0  0  0  0  0  0  0  0  0  0
    8.9969  -14.2677   18.2555 C   0  0  2  0  0  0  0  0  0  0  0  0
    8.0877  -15.2197   17.7024 N   0  0  0  0  0  0  0  0  0  0  0  0
   10.2811  -14.8584   18.6862 C   0  0  0  0  0  0  0  0  0  0  0  0
   10.2062  -15.9700   19.3141 O   0  0  0  0  0  0  0  0  0  0  0  0
   15.9582  -13.3520   16.5455 N   0  0  0  0  0  0  0  0  0  0  0  0
   16.3131  -14.2048   17.6446 C   0  0  0  0  0  0  0  0  0  0  0  0
   17.5355  -14.3908   17.8479 O   0  0  0  0  0  0  0  0  0  0  0  0
   15.2600  -14.8275   18.4886 C   0  0  0  0  0  0  0  0  0  0  0  0
   13.9319  -14.2790   18.0484 C   0  0  0  0  0  0  0  0  0  0  0  0
   12.7785  -14.8581   18.8389 C   0  0  2  0  0  0  0  0  0  0  0  0
   11.5334  -14.2567   18.4350 N   0  0  0  0  0  0  0  0  0  0  0  0
   13.0165  -14.7437   20.2968 C   0  0  0  0  0  0  0  0  0  0  0  0
   12.8718  -13.6276   20.8377 O   0  0  0  0  0  0  0  0  0  0  0  0
   13.3929  -15.8481   21.0556 N   0  0  0  0  0  0  0  0  0  0  0  0
   13.4914  -15.8384   22.5199 C   0  0  1  0  0  0  0  0  0  0  0  0
   12.7003  -16.9292   23.1250 C   0  0  0  0  0  0  0  0  0  0  0  0
   12.9611  -17.0634   24.5935 C   0  0  0  0  0  0  0  0  0  0  0  0
   12.2526  -18.1893   25.2449 C   0  0  0  0  0  0  0  0  0  0  0  0
   11.3528  -18.7541   24.5724 O   0  0  0  0  0  0  0  0  0  0  0  0
   14.9237  -15.9906   22.8293 C   0  0  0  0  0  0  0  0  0  0  0  0
   15.8738  -16.3925   21.8728 O   0  0  0  0  0  0  0  0  0  0  0  0
   12.4977  -18.6605   26.5170 O   0  0  0  0  0  0  0  0  0  0  0  0
   15.3353  -15.7532   24.0147 O   0  0  0  0  0  0  0  0  0  0  0  0
  2  1  1  6
  2  3  1  0
  4  2  1  0
  4  5  1  1
  6  4  1  0
  6  7  2  0
  9 10  2  0
  9  8  1  0
 11  9  1  0
 13 12  1  6
 12 11  1  0
 13 14  1  0
 14  6  1  0
 15 13  1  0
 16 15  2  0
 17 15  1  0
 18 19  1  1
 18 17  1  0
 19 20  1  0
 21 20  1  0
 21 25  1  0
 22 21  2  0
 23 24  1  0
 23 18  1  0
 26 23  2  0
M  END
$$$$
