VQE.pdb
     RDKit          3D

 26 25  0  0  1  0  0  0  0  0999 V2000
    9.0534  -12.7043   20.5649 C   0  0  0  0  0  0  0  0  0  0  0  0
    8.0054  -13.3225   19.6651 C   0  0  1  0  0  0  0  0  0  0  0  0
    7.1687  -12.2180   19.1007 C   0  0  0  0  0  0  0  0  0  0  0  0
    8.6548  -14.1902   18.6174 C   0  0  2  0  0  0  0  0  0  0  0  0
    7.7197  -14.6391   17.6361 N   0  0  0  0  0  0  0  0  0  0  0  0
    9.4606  -15.2795   19.2072 C   0  0  0  0  0  0  0  0  0  0  0  0
    8.8415  -16.3740   19.4404 O   0  0  0  0  0  0  0  0  0  0  0  0
   14.1014  -18.0192   17.0606 N   0  0  0  0  0  0  0  0  0  0  0  0
   12.6945  -18.2887   16.9637 C   0  0  0  0  0  0  0  0  0  0  0  0
   12.3081  -18.9402   15.9655 O   0  0  0  0  0  0  0  0  0  0  0  0
   11.7587  -17.8062   18.0128 C   0  0  0  0  0  0  0  0  0  0  0  0
   12.4925  -16.8055   18.8606 C   0  0  0  0  0  0  0  0  0  0  0  0
   11.6320  -16.2552   19.9775 C   0  0  2  0  0  0  0  0  0  0  0  0
   10.8343  -15.1518   19.5072 N   0  0  0  0  0  0  0  0  0  0  0  0
   12.4510  -15.8990   21.1597 C   0  0  0  0  0  0  0  0  0  0  0  0
   12.9849  -14.7709   21.1960 O   0  0  0  0  0  0  0  0  0  0  0  0
   12.6278  -16.7936   22.2113 N   0  0  0  0  0  0  0  0  0  0  0  0
   13.3989  -16.4891   23.4223 C   0  0  1  0  0  0  0  0  0  0  0  0
   13.0848  -17.4295   24.5173 C   0  0  0  0  0  0  0  0  0  0  0  0
   11.8912  -16.9911   25.3083 C   0  0  0  0  0  0  0  0  0  0  0  0
   11.5628  -17.8608   26.4614 C   0  0  0  0  0  0  0  0  0  0  0  0
   11.9170  -17.4507   27.5960 O   0  0  0  0  0  0  0  0  0  0  0  0
   14.8166  -16.5862   23.0334 C   0  0  0  0  0  0  0  0  0  0  0  0
   15.8316  -15.8316   23.6493 O   0  0  0  0  0  0  0  0  0  0  0  0
   10.9084  -19.0720   26.3896 O   0  0  0  0  0  0  0  0  0  0  0  0
   15.1536  -17.3847   22.0953 O   0  0  0  0  0  0  0  0  0  0  0  0
  2  1  1  6
  2  3  1  0
  4  2  1  0
  4  5  1  6
  6  4  1  0
  6  7  2  0
  9 10  2  0
  9  8  1  0
 11  9  1  0
 13 12  1  6
 12 11  1  0
 13 14  1  0
 14  6  1  0
 15 13  1  0
 16 15  2  0
 17 15  1  0
 18 19  1  1
 18 17  1  0
 19 20  1  0
 21 20  1  0
 21 25  1  0
 22 21  2  0
 23 24  1  0
 23 18  1  0
 26 23  2  0
M  END
$$$$
