VQE.pdb
     RDKit          3D

 26 25  0  0  1  0  0  0  0  0999 V2000
    7.2677  -14.2312   16.8763 C   0  0  0  0  0  0  0  0  0  0  0  0
    8.1288  -14.5760   18.0720 C   0  0  1  0  0  0  0  0  0  0  0  0
    9.5450  -14.6959   17.6045 C   0  0  0  0  0  0  0  0  0  0  0  0
    7.9347  -13.5633   19.1717 C   0  0  2  0  0  0  0  0  0  0  0  0
    8.2701  -12.2409   18.7500 N   0  0  0  0  0  0  0  0  0  0  0  0
    8.5926  -13.9660   20.4321 C   0  0  0  0  0  0  0  0  0  0  0  0
    9.7650  -13.4949   20.6299 O   0  0  0  0  0  0  0  0  0  0  0  0
    6.2732  -17.9616   24.7259 N   0  0  0  0  0  0  0  0  0  0  0  0
    7.5464  -17.6323   25.3019 C   0  0  0  0  0  0  0  0  0  0  0  0
    7.7949  -18.1010   26.4372 O   0  0  0  0  0  0  0  0  0  0  0  0
    8.5094  -16.7725   24.5654 C   0  0  0  0  0  0  0  0  0  0  0  0
    7.8092  -16.2315   23.3507 C   0  0  0  0  0  0  0  0  0  0  0  0
    8.6782  -15.2753   22.5626 C   0  0  2  0  0  0  0  0  0  0  0  0
    7.9899  -14.8188   21.3824 N   0  0  0  0  0  0  0  0  0  0  0  0
    9.9953  -15.8789   22.2525 C   0  0  0  0  0  0  0  0  0  0  0  0
   10.2330  -16.2161   21.0740 O   0  0  0  0  0  0  0  0  0  0  0  0
   10.9530  -16.0703   23.2443 N   0  0  0  0  0  0  0  0  0  0  0  0
   12.3293  -16.5050   22.9783 C   0  0  1  0  0  0  0  0  0  0  0  0
   13.0689  -15.5081   22.1778 C   0  0  0  0  0  0  0  0  0  0  0  0
   12.9581  -15.7745   20.7083 C   0  0  0  0  0  0  0  0  0  0  0  0
   13.8645  -14.9619   19.8646 C   0  0  0  0  0  0  0  0  0  0  0  0
   15.0692  -15.3199   19.8238 O   0  0  0  0  0  0  0  0  0  0  0  0
   12.9559  -16.6921   24.2984 C   0  0  0  0  0  0  0  0  0  0  0  0
   12.3123  -16.3592   25.5042 O   0  0  0  0  0  0  0  0  0  0  0  0
   13.4962  -13.8550   19.1300 O   0  0  0  0  0  0  0  0  0  0  0  0
   14.1365  -17.1745   24.3667 O   0  0  0  0  0  0  0  0  0  0  0  0
  2  1  1  6
  2  3  1  0
  4  2  1  0
  4  5  1  6
  6  4  1  0
  6  7  2  0
  9 10  2  0
  9  8  1  0
 11  9  1  0
 13 12  1  6
 12 11  1  0
 13 14  1  0
 14  6  1  0
 15 13  1  0
 16 15  2  0
 17 15  1  0
 18 19  1  6
 18 17  1  0
 19 20  1  0
 21 20  1  0
 21 25  1  0
 22 21  2  0
 23 24  1  0
 23 18  1  0
 26 23  2  0
M  END
$$$$
