VQE.pdb
     RDKit          3D

 26 25  0  0  1  0  0  0  0  0999 V2000
    9.6276  -12.1550   20.0225 C   0  0  0  0  0  0  0  0  0  0  0  0
    8.6194  -13.2409   19.7154 C   0  0  1  0  0  0  0  0  0  0  0  0
    7.2949  -12.5889   19.4721 C   0  0  0  0  0  0  0  0  0  0  0  0
    9.0968  -14.0953   18.5688 C   0  0  2  0  0  0  0  0  0  0  0  0
    8.0583  -14.9258   18.0485 N   0  0  0  0  0  0  0  0  0  0  0  0
   10.3362  -14.8321   18.8920 C   0  0  0  0  0  0  0  0  0  0  0  0
   10.1848  -15.9511   19.4924 O   0  0  0  0  0  0  0  0  0  0  0  0
   15.7003  -14.7616   15.8754 N   0  0  0  0  0  0  0  0  0  0  0  0
   14.4662  -15.4042   15.5215 C   0  0  0  0  0  0  0  0  0  0  0  0
   14.3592  -15.8204   14.3444 O   0  0  0  0  0  0  0  0  0  0  0  0
   13.3792  -15.5569   16.5236 C   0  0  0  0  0  0  0  0  0  0  0  0
   13.8562  -14.9572   17.8164 C   0  0  0  0  0  0  0  0  0  0  0  0
   12.8266  -15.0723   18.9198 C   0  0  2  0  0  0  0  0  0  0  0  0
   11.6262  -14.3565   18.5709 N   0  0  0  0  0  0  0  0  0  0  0  0
   13.3856  -14.6405   20.2222 C   0  0  0  0  0  0  0  0  0  0  0  0
   13.7587  -13.4554   20.3462 O   0  0  0  0  0  0  0  0  0  0  0  0
   13.4969  -15.5270   21.2895 N   0  0  0  0  0  0  0  0  0  0  0  0
   13.9336  -15.1356   22.6348 C   0  0  1  0  0  0  0  0  0  0  0  0
   13.0814  -15.7388   23.6797 C   0  0  0  0  0  0  0  0  0  0  0  0
   13.0460  -17.2327   23.5816 C   0  0  0  0  0  0  0  0  0  0  0  0
   12.2166  -17.8984   24.6125 C   0  0  0  0  0  0  0  0  0  0  0  0
   11.7326  -17.1618   25.5092 O   0  0  0  0  0  0  0  0  0  0  0  0
   15.3268  -15.5983   22.7576 C   0  0  0  0  0  0  0  0  0  0  0  0
   16.1765  -15.1959   23.8041 O   0  0  0  0  0  0  0  0  0  0  0  0
   11.9380  -19.2475   24.6671 O   0  0  0  0  0  0  0  0  0  0  0  0
   15.7988  -16.3984   21.8812 O   0  0  0  0  0  0  0  0  0  0  0  0
  2  1  1  6
  2  3  1  0
  4  2  1  0
  4  5  1  1
  6  4  1  0
  6  7  2  0
  9 10  2  0
  9  8  1  0
 11  9  1  0
 13 12  1  6
 12 11  1  0
 13 14  1  0
 14  6  1  0
 15 13  1  0
 16 15  2  0
 17 15  1  0
 18 19  1  1
 18 17  1  0
 19 20  1  0
 21 20  1  0
 21 25  1  0
 22 21  2  0
 23 24  1  0
 23 18  1  0
 26 23  2  0
M  END
$$$$
