VQE.pdb
     RDKit          3D

 26 25  0  0  1  0  0  0  0  0999 V2000
    6.6664  -15.2146   19.9802 C   0  0  0  0  0  0  0  0  0  0  0  0
    7.7697  -14.4392   19.2934 C   0  0  1  0  0  0  0  0  0  0  0  0
    7.3309  -14.1505   17.8924 C   0  0  0  0  0  0  0  0  0  0  0  0
    8.1214  -13.2068   20.0871 C   0  0  2  0  0  0  0  0  0  0  0  0
    9.0601  -12.3765   19.4028 N   0  0  0  0  0  0  0  0  0  0  0  0
    8.5152  -13.5233   21.4757 C   0  0  0  0  0  0  0  0  0  0  0  0
    9.6868  -14.0119   21.6305 O   0  0  0  0  0  0  0  0  0  0  0  0
    5.4007  -11.9263   26.7066 N   0  0  0  0  0  0  0  0  0  0  0  0
    6.5709  -12.5595   27.2461 C   0  0  0  0  0  0  0  0  0  0  0  0
    6.7431  -12.4749   28.4844 O   0  0  0  0  0  0  0  0  0  0  0  0
    7.5204  -13.2768   26.3556 C   0  0  0  0  0  0  0  0  0  0  0  0
    7.1479  -12.9613   24.9343 C   0  0  0  0  0  0  0  0  0  0  0  0
    8.0688  -13.6283   23.9354 C   0  0  2  0  0  0  0  0  0  0  0  0
    7.6715  -13.3107   22.5877 N   0  0  0  0  0  0  0  0  0  0  0  0
    8.1503  -15.0885   24.1730 C   0  0  0  0  0  0  0  0  0  0  0  0
    7.4206  -15.8432   23.4970 O   0  0  0  0  0  0  0  0  0  0  0  0
    9.0168  -15.6175   25.1253 N   0  0  0  0  0  0  0  0  0  0  0  0
    9.7665  -16.8661   24.9439 C   0  0  1  0  0  0  0  0  0  0  0  0
   10.6764  -16.7897   23.7827 C   0  0  0  0  0  0  0  0  0  0  0  0
   11.4575  -18.0539   23.5979 C   0  0  0  0  0  0  0  0  0  0  0  0
   12.0100  -18.2435   22.2368 C   0  0  0  0  0  0  0  0  0  0  0  0
   13.0951  -17.6614   21.9824 O   0  0  0  0  0  0  0  0  0  0  0  0
   10.5206  -17.0694   26.1930 C   0  0  0  0  0  0  0  0  0  0  0  0
   10.9997  -18.3277   26.6005 O   0  0  0  0  0  0  0  0  0  0  0  0
   11.4339  -18.9979   21.2370 O   0  0  0  0  0  0  0  0  0  0  0  0
   10.7551  -16.0686   26.9510 O   0  0  0  0  0  0  0  0  0  0  0  0
  2  1  1  1
  2  3  1  0
  4  2  1  0
  4  5  1  6
  6  4  1  0
  6  7  2  0
  9 10  2  0
  9  8  1  0
 11  9  1  0
 13 12  1  1
 12 11  1  0
 13 14  1  0
 14  6  1  0
 15 13  1  0
 16 15  2  0
 17 15  1  0
 18 19  1  6
 18 17  1  0
 19 20  1  0
 21 20  1  0
 21 25  1  0
 22 21  2  0
 23 24  1  0
 23 18  1  0
 26 23  2  0
M  END
$$$$
