VQE.pdb
     RDKit          3D

 26 25  0  0  1  0  0  0  0  0999 V2000
    6.2580  -18.5200   24.0949 C   0  0  0  0  0  0  0  0  0  0  0  0
    6.2286  -19.4787   22.9244 C   0  0  1  0  0  0  0  0  0  0  0  0
    5.3293  -20.6197   23.2819 C   0  0  0  0  0  0  0  0  0  0  0  0
    5.8260  -18.7587   21.6626 C   0  0  2  0  0  0  0  0  0  0  0  0
    5.5224  -19.6639   20.6008 N   0  0  0  0  0  0  0  0  0  0  0  0
    6.7892  -17.7045   21.2827 C   0  0  0  0  0  0  0  0  0  0  0  0
    7.9130  -18.1081   20.8249 O   0  0  0  0  0  0  0  0  0  0  0  0
    7.5045  -13.7383   17.9889 N   0  0  0  0  0  0  0  0  0  0  0  0
    8.3389  -13.2491   19.0500 C   0  0  0  0  0  0  0  0  0  0  0  0
    9.5601  -13.1217   18.8000 O   0  0  0  0  0  0  0  0  0  0  0  0
    7.7569  -12.9156   20.3764 C   0  0  0  0  0  0  0  0  0  0  0  0
    6.7863  -14.0036   20.7408 C   0  0  0  0  0  0  0  0  0  0  0  0
    7.4794  -15.3093   21.0657 C   0  0  2  0  0  0  0  0  0  0  0  0
    6.5158  -16.3247   21.4055 N   0  0  0  0  0  0  0  0  0  0  0  0
    8.5039  -15.1248   22.1200 C   0  0  0  0  0  0  0  0  0  0  0  0
    8.1688  -14.5636   23.1839 O   0  0  0  0  0  0  0  0  0  0  0  0
    9.8126  -15.5630   21.9392 N   0  0  0  0  0  0  0  0  0  0  0  0
   10.8689  -15.4202   22.9480 C   0  0  1  0  0  0  0  0  0  0  0  0
   10.5331  -16.1421   24.1923 C   0  0  0  0  0  0  0  0  0  0  0  0
   10.5161  -17.6261   23.9927 C   0  0  0  0  0  0  0  0  0  0  0  0
   10.3090  -18.4121   25.2310 C   0  0  0  0  0  0  0  0  0  0  0  0
   10.1810  -17.7598   26.2983 O   0  0  0  0  0  0  0  0  0  0  0  0
   12.0908  -15.9674   22.3335 C   0  0  0  0  0  0  0  0  0  0  0  0
   13.3706  -15.7936   22.8911 O   0  0  0  0  0  0  0  0  0  0  0  0
   10.2482  -19.7873   25.3053 O   0  0  0  0  0  0  0  0  0  0  0  0
   12.0001  -16.6289   21.2448 O   0  0  0  0  0  0  0  0  0  0  0  0
  2  1  1  1
  2  3  1  0
  4  2  1  0
  4  5  1  6
  6  4  1  0
  6  7  2  0
  9 10  2  0
  9  8  1  0
 11  9  1  0
 13 12  1  1
 12 11  1  0
 13 14  1  0
 14  6  1  0
 15 13  1  0
 16 15  2  0
 17 15  1  0
 18 19  1  1
 18 17  1  0
 19 20  1  0
 21 20  1  0
 21 25  1  0
 22 21  2  0
 23 24  1  0
 23 18  1  0
 26 23  2  0
M  END
$$$$
