TLL.pdb
     RDKit          3D

 24 23  0  0  1  0  0  0  0  0999 V2000
    8.4578  -20.2430   21.6774 C   0  0  0  0  0  0  0  0  0  0  0  0
    8.7852  -18.9558   22.4327 C   0  0  1  0  0  0  0  0  0  0  0  0
   10.1069  -18.9959   22.8472 O   0  0  0  0  0  0  0  0  0  0  0  0
    8.5709  -17.8114   21.4747 C   0  0  2  0  0  0  0  0  0  0  0  0
    9.3693  -17.9151   20.2888 N   0  0  0  0  0  0  0  0  0  0  0  0
    8.8714  -16.5244   22.1738 C   0  0  0  0  0  0  0  0  0  0  0  0
    9.9165  -15.8740   21.9319 O   0  0  0  0  0  0  0  0  0  0  0  0
    5.8749  -12.9586   26.4289 C   0  0  0  0  0  0  0  0  0  0  0  0
    7.0556  -13.2579   25.5982 C   0  0  2  0  0  0  0  0  0  0  0  0
    7.5151  -11.9686   24.9063 C   0  0  0  0  0  0  0  0  0  0  0  0
    7.0587  -14.4008   24.6829 C   0  0  0  0  0  0  0  0  0  0  0  0
    8.3009  -14.8585   24.0094 C   0  0  2  0  0  0  0  0  0  0  0  0
    7.9641  -16.0137   23.1352 N   0  0  0  0  0  0  0  0  0  0  0  0
    9.3908  -15.2412   24.9119 C   0  0  0  0  0  0  0  0  0  0  0  0
   10.5427  -14.7480   24.8924 O   0  0  0  0  0  0  0  0  0  0  0  0
   11.0271  -13.9146   28.0919 C   0  0  0  0  0  0  0  0  0  0  0  0
    9.7457  -14.7241   28.3263 C   0  0  2  0  0  0  0  0  0  0  0  0
    9.1413  -14.3765   29.6675 C   0  0  0  0  0  0  0  0  0  0  0  0
   10.0762  -16.1786   28.2110 C   0  0  0  0  0  0  0  0  0  0  0  0
   10.3014  -16.6684   26.8087 C   0  0  2  0  0  0  0  0  0  0  0  0
    9.2200  -16.2489   25.9280 N   0  0  0  0  0  0  0  0  0  0  0  0
   10.3572  -18.1415   26.7720 C   0  0  0  0  0  0  0  0  0  0  0  0
   11.2459  -18.7374   27.4231 O   0  0  0  0  0  0  0  0  0  0  0  0
    9.4776  -18.9304   26.0544 O   0  0  0  0  0  0  0  0  0  0  0  0
  2  4  1  0
  2  1  1  6
  3  2  1  0
  4  5  1  6
  6  4  1  0
  6 13  1  0
  7  6  2  0
  9  8  1  6
  9 11  1  0
  9 10  1  0
 12 11  1  1
 12 13  1  0
 14 12  1  0
 15 14  2  0
 17 16  1  1
 17 19  1  0
 18 17  1  0
 20 19  1  1
 20 21  1  0
 20 22  1  0
 21 14  1  0
 22 24  1  0
 23 22  2  0
M  END
$$$$
