TLL.pdb
     RDKit          3D

 24 23  0  0  1  0  0  0  0  0999 V2000
    8.5514  -18.9637   23.0738 C   0  0  0  0  0  0  0  0  0  0  0  0
    8.9490  -18.4515   21.6903 C   0  0  1  0  0  0  0  0  0  0  0  0
    8.5669  -19.3800   20.7351 O   0  0  0  0  0  0  0  0  0  0  0  0
    8.2236  -17.1477   21.4734 C   0  0  2  0  0  0  0  0  0  0  0  0
    8.2640  -16.7026   20.1115 N   0  0  0  0  0  0  0  0  0  0  0  0
    8.8173  -16.1029   22.3630 C   0  0  0  0  0  0  0  0  0  0  0  0
    9.9588  -15.6290   22.1484 O   0  0  0  0  0  0  0  0  0  0  0  0
    7.6809  -11.6559   24.8754 C   0  0  0  0  0  0  0  0  0  0  0  0
    6.9001  -12.8890   25.0839 C   0  0  2  0  0  0  0  0  0  0  0  0
    5.7996  -12.6108   26.1154 C   0  0  0  0  0  0  0  0  0  0  0  0
    7.5692  -14.1681   25.3295 C   0  0  0  0  0  0  0  0  0  0  0  0
    8.6618  -14.6590   24.4514 C   0  0  2  0  0  0  0  0  0  0  0  0
    8.0859  -15.6262   23.4792 N   0  0  0  0  0  0  0  0  0  0  0  0
    9.7831  -15.2925   25.1516 C   0  0  0  0  0  0  0  0  0  0  0  0
   10.9866  -14.9717   25.0128 O   0  0  0  0  0  0  0  0  0  0  0  0
   10.3938  -14.6422   30.2291 C   0  0  0  0  0  0  0  0  0  0  0  0
   10.7546  -14.9385   28.7683 C   0  0  2  0  0  0  0  0  0  0  0  0
   10.1748  -13.8805   27.8576 C   0  0  0  0  0  0  0  0  0  0  0  0
   10.2664  -16.3113   28.4286 C   0  0  0  0  0  0  0  0  0  0  0  0
   10.6059  -16.7800   27.0422 C   0  0  2  0  0  0  0  0  0  0  0  0
    9.5854  -16.3709   26.0871 N   0  0  0  0  0  0  0  0  0  0  0  0
   10.6939  -18.2511   26.9944 C   0  0  0  0  0  0  0  0  0  0  0  0
   11.5696  -18.8349   27.6736 O   0  0  0  0  0  0  0  0  0  0  0  0
    9.8587  -19.0509   26.2369 O   0  0  0  0  0  0  0  0  0  0  0  0
  2  4  1  0
  2  1  1  1
  3  2  1  0
  4  5  1  6
  6  4  1  0
  6 13  1  0
  7  6  2  0
  9  8  1  1
  9 11  1  0
  9 10  1  0
 12 11  1  1
 12 13  1  0
 14 12  1  0
 15 14  2  0
 17 16  1  1
 17 19  1  0
 18 17  1  0
 20 19  1  1
 20 21  1  0
 20 22  1  0
 21 14  1  0
 22 24  1  0
 23 22  2  0
M  END
$$$$
