TLL.pdb
     RDKit          3D

 24 23  0  0  1  0  0  0  0  0999 V2000
   11.2848  -19.5534   20.0514 C   0  0  0  0  0  0  0  0  0  0  0  0
    9.8864  -19.1314   19.6030 C   0  0  1  0  0  0  0  0  0  0  0  0
    9.2629  -20.2056   18.9883 O   0  0  0  0  0  0  0  0  0  0  0  0
    9.1273  -18.7226   20.8399 C   0  0  2  0  0  0  0  0  0  0  0  0
    7.7120  -18.6405   20.6284 N   0  0  0  0  0  0  0  0  0  0  0  0
    9.6430  -17.4029   21.3173 C   0  0  0  0  0  0  0  0  0  0  0  0
   10.8685  -17.2019   21.4947 O   0  0  0  0  0  0  0  0  0  0  0  0
    9.0262  -13.5316   19.0238 C   0  0  0  0  0  0  0  0  0  0  0  0
    7.9503  -13.8790   19.9700 C   0  0  2  0  0  0  0  0  0  0  0  0
    6.7341  -12.9885   19.6868 C   0  0  0  0  0  0  0  0  0  0  0  0
    8.2212  -13.9949   21.4044 C   0  0  0  0  0  0  0  0  0  0  0  0
    9.2007  -14.9759   21.9373 C   0  0  2  0  0  0  0  0  0  0  0  0
    8.7388  -16.3438   21.5801 N   0  0  0  0  0  0  0  0  0  0  0  0
    9.4229  -14.9069   23.3846 C   0  0  0  0  0  0  0  0  0  0  0  0
   10.4030  -14.3503   23.9324 O   0  0  0  0  0  0  0  0  0  0  0  0
    8.4071  -12.3102   26.5483 C   0  0  0  0  0  0  0  0  0  0  0  0
    7.3048  -13.1135   25.8471 C   0  0  2  0  0  0  0  0  0  0  0  0
    5.9483  -12.5162   26.1437 C   0  0  0  0  0  0  0  0  0  0  0  0
    7.4063  -14.5403   26.2855 C   0  0  0  0  0  0  0  0  0  0  0  0
    8.6044  -15.2806   25.7625 C   0  0  2  0  0  0  0  0  0  0  0  0
    8.5017  -15.4931   24.3254 N   0  0  0  0  0  0  0  0  0  0  0  0
    8.7197  -16.6053   26.3997 C   0  0  0  0  0  0  0  0  0  0  0  0
    8.5350  -17.6349   25.7106 O   0  0  0  0  0  0  0  0  0  0  0  0
    9.0253  -16.7969   27.7342 O   0  0  0  0  0  0  0  0  0  0  0  0
  2  4  1  0
  2  1  1  1
  3  2  1  0
  4  5  1  6
  6  4  1  0
  6 13  1  0
  7  6  2  0
  9  8  1  6
  9 11  1  0
  9 10  1  0
 12 11  1  1
 12 13  1  0
 14 12  1  0
 15 14  2  0
 17 16  1  1
 17 19  1  0
 18 17  1  0
 20 19  1  1
 20 21  1  0
 20 22  1  0
 21 14  1  0
 22 24  1  0
 23 22  2  0
M  END
$$$$
