TLL.pdb
     RDKit          3D

 24 23  0  0  1  0  0  0  0  0999 V2000
    8.6884  -19.2472   23.2036 C   0  0  0  0  0  0  0  0  0  0  0  0
    9.4268  -18.9472   21.9000 C   0  0  1  0  0  0  0  0  0  0  0  0
    9.3590  -20.0576   21.0736 O   0  0  0  0  0  0  0  0  0  0  0  0
    8.7345  -17.7723   21.2570 C   0  0  2  0  0  0  0  0  0  0  0  0
    9.1492  -17.5485   19.9033 N   0  0  0  0  0  0  0  0  0  0  0  0
    8.9919  -16.5457   22.0723 C   0  0  0  0  0  0  0  0  0  0  0  0
   10.0393  -15.8703   21.9300 O   0  0  0  0  0  0  0  0  0  0  0  0
    7.8067  -12.2664   25.2381 C   0  0  0  0  0  0  0  0  0  0  0  0
    6.7174  -13.2556   25.1454 C   0  0  2  0  0  0  0  0  0  0  0  0
    6.0959  -13.4408   26.5352 C   0  0  0  0  0  0  0  0  0  0  0  0
    6.9217  -14.5348   24.4627 C   0  0  0  0  0  0  0  0  0  0  0  0
    8.2248  -14.8909   23.8453 C   0  0  2  0  0  0  0  0  0  0  0  0
    8.0396  -16.1230   23.0330 N   0  0  0  0  0  0  0  0  0  0  0  0
    9.3233  -15.1013   24.7929 C   0  0  0  0  0  0  0  0  0  0  0  0
   10.4189  -14.4936   24.7648 O   0  0  0  0  0  0  0  0  0  0  0  0
   11.6662  -13.8803   27.5669 C   0  0  0  0  0  0  0  0  0  0  0  0
   10.3070  -14.3226   28.1228 C   0  0  2  0  0  0  0  0  0  0  0  0
   10.1084  -13.7817   29.5203 C   0  0  0  0  0  0  0  0  0  0  0  0
   10.2392  -15.8164   28.0760 C   0  0  0  0  0  0  0  0  0  0  0  0
   10.3670  -16.4142   26.7037 C   0  0  2  0  0  0  0  0  0  0  0  0
    9.2288  -16.0556   25.8688 N   0  0  0  0  0  0  0  0  0  0  0  0
   10.4171  -17.8860   26.7770 C   0  0  0  0  0  0  0  0  0  0  0  0
   11.3502  -18.4368   27.4055 O   0  0  0  0  0  0  0  0  0  0  0  0
    9.4854  -18.7211   26.1891 O   0  0  0  0  0  0  0  0  0  0  0  0
  2  4  1  0
  2  1  1  1
  3  2  1  0
  4  5  1  6
  6  4  1  0
  6 13  1  0
  7  6  2  0
  9  8  1  1
  9 11  1  0
  9 10  1  0
 12 11  1  1
 12 13  1  0
 14 12  1  0
 15 14  2  0
 17 16  1  1
 17 19  1  0
 18 17  1  0
 20 19  1  1
 20 21  1  0
 20 22  1  0
 21 14  1  0
 22 24  1  0
 23 22  2  0
M  END
$$$$
