TLL.pdb
     RDKit          3D

 24 23  0  0  1  0  0  0  0  0999 V2000
    6.3378  -18.0838   23.9236 C   0  0  0  0  0  0  0  0  0  0  0  0
    6.7534  -19.1350   22.8955 C   0  0  1  0  0  0  0  0  0  0  0  0
    5.8424  -20.1789   22.9193 O   0  0  0  0  0  0  0  0  0  0  0  0
    6.7463  -18.4638   21.5454 C   0  0  2  0  0  0  0  0  0  0  0  0
    6.9016  -19.3860   20.4592 N   0  0  0  0  0  0  0  0  0  0  0  0
    7.8378  -17.4430   21.5001 C   0  0  0  0  0  0  0  0  0  0  0  0
    9.0139  -17.7523   21.1925 O   0  0  0  0  0  0  0  0  0  0  0  0
    8.8931  -13.7113   19.0142 C   0  0  0  0  0  0  0  0  0  0  0  0
    7.8287  -13.5584   20.0228 C   0  0  2  0  0  0  0  0  0  0  0  0
    7.0957  -12.2344   19.7737 C   0  0  0  0  0  0  0  0  0  0  0  0
    8.1065  -13.7706   21.4447 C   0  0  0  0  0  0  0  0  0  0  0  0
    8.6229  -15.0666   21.9545 C   0  0  2  0  0  0  0  0  0  0  0  0
    7.5531  -16.0896   21.8092 N   0  0  0  0  0  0  0  0  0  0  0  0
    9.0821  -15.0468   23.3465 C   0  0  0  0  0  0  0  0  0  0  0  0
   10.2103  -14.6512   23.7223 O   0  0  0  0  0  0  0  0  0  0  0  0
    8.1890  -12.2305   26.4347 C   0  0  0  0  0  0  0  0  0  0  0  0
    7.1253  -13.2502   26.0093 C   0  0  2  0  0  0  0  0  0  0  0  0
    5.7547  -12.8013   26.4619 C   0  0  0  0  0  0  0  0  0  0  0  0
    7.4996  -14.5866   26.5679 C   0  0  0  0  0  0  0  0  0  0  0  0
    8.5984  -15.2972   25.8299 C   0  0  2  0  0  0  0  0  0  0  0  0
    8.2457  -15.4958   24.4309 N   0  0  0  0  0  0  0  0  0  0  0  0
    8.8484  -16.6263   26.4174 C   0  0  0  0  0  0  0  0  0  0  0  0
    9.1843  -16.7109   27.6211 O   0  0  0  0  0  0  0  0  0  0  0  0
    8.7347  -17.8137   25.7186 O   0  0  0  0  0  0  0  0  0  0  0  0
  2  4  1  0
  2  1  1  1
  3  2  1  0
  4  5  1  6
  6  4  1  0
  6 13  1  0
  7  6  2  0
  9  8  1  6
  9 11  1  0
  9 10  1  0
 12 11  1  1
 12 13  1  0
 14 12  1  0
 15 14  2  0
 17 16  1  1
 17 19  1  0
 18 17  1  0
 20 19  1  1
 20 21  1  0
 20 22  1  0
 21 14  1  0
 22 24  1  0
 23 22  2  0
M  END
$$$$
