TLL.pdb
     RDKit          3D

 24 23  0  0  1  0  0  0  0  0999 V2000
    7.7154  -20.3068   22.0359 C   0  0  0  0  0  0  0  0  0  0  0  0
    8.3002  -19.0383   22.6550 C   0  0  1  0  0  0  0  0  0  0  0  0
    9.6700  -19.1923   22.7977 O   0  0  0  0  0  0  0  0  0  0  0  0
    7.9960  -17.9021   21.7117 C   0  0  2  0  0  0  0  0  0  0  0  0
    8.6239  -18.0517   20.4319 N   0  0  0  0  0  0  0  0  0  0  0  0
    8.4292  -16.6156   22.3385 C   0  0  0  0  0  0  0  0  0  0  0  0
    9.4891  -16.0407   21.9925 O   0  0  0  0  0  0  0  0  0  0  0  0
    5.9275  -12.7527   26.6624 C   0  0  0  0  0  0  0  0  0  0  0  0
    7.0078  -13.1135   25.7263 C   0  0  2  0  0  0  0  0  0  0  0  0
    7.3744  -11.8795   24.8926 C   0  0  0  0  0  0  0  0  0  0  0  0
    6.9156  -14.3215   24.9039 C   0  0  0  0  0  0  0  0  0  0  0  0
    8.0394  -14.7660   24.0405 C   0  0  2  0  0  0  0  0  0  0  0  0
    7.6345  -16.0188   23.3487 N   0  0  0  0  0  0  0  0  0  0  0  0
    9.3074  -14.9925   24.7405 C   0  0  0  0  0  0  0  0  0  0  0  0
   10.3372  -14.2924   24.6003 O   0  0  0  0  0  0  0  0  0  0  0  0
   10.0355  -13.2516   28.3556 C   0  0  0  0  0  0  0  0  0  0  0  0
   10.0284  -14.7804   28.2344 C   0  0  2  0  0  0  0  0  0  0  0  0
   10.2106  -15.4172   29.5932 C   0  0  0  0  0  0  0  0  0  0  0  0
   11.0975  -15.1844   27.2690 C   0  0  0  0  0  0  0  0  0  0  0  0
   10.7360  -16.3284   26.3648 C   0  0  2  0  0  0  0  0  0  0  0  0
    9.4774  -16.0744   25.6774 N   0  0  0  0  0  0  0  0  0  0  0  0
   10.5762  -17.5746   27.1367 C   0  0  0  0  0  0  0  0  0  0  0  0
   11.5464  -18.0171   27.7936 O   0  0  0  0  0  0  0  0  0  0  0  0
    9.4042  -18.3060   27.1893 O   0  0  0  0  0  0  0  0  0  0  0  0
  2  4  1  0
  2  1  1  6
  3  2  1  0
  4  5  1  6
  6  4  1  0
  6 13  1  0
  7  6  2  0
  9  8  1  6
  9 11  1  0
  9 10  1  0
 12 11  1  1
 12 13  1  0
 14 12  1  0
 15 14  2  0
 17 16  1  1
 17 19  1  0
 18 17  1  0
 20 19  1  1
 20 21  1  0
 20 22  1  0
 21 14  1  0
 22 24  1  0
 23 22  2  0
M  END
$$$$
