TLL.pdb
     RDKit          3D

 24 23  0  0  1  0  0  0  0  0999 V2000
    7.7470  -19.1482   23.4428 C   0  0  0  0  0  0  0  0  0  0  0  0
    8.5383  -19.7489   22.2819 C   0  0  1  0  0  0  0  0  0  0  0  0
    8.0520  -21.0174   22.0088 O   0  0  0  0  0  0  0  0  0  0  0  0
    8.3389  -18.8439   21.0925 C   0  0  2  0  0  0  0  0  0  0  0  0
    8.7778  -19.4309   19.8607 N   0  0  0  0  0  0  0  0  0  0  0  0
    9.0675  -17.5594   21.3267 C   0  0  0  0  0  0  0  0  0  0  0  0
   10.3202  -17.5143   21.3752 O   0  0  0  0  0  0  0  0  0  0  0  0
    9.0009  -13.2912   19.1340 C   0  0  0  0  0  0  0  0  0  0  0  0
    7.8816  -13.6448   20.0261 C   0  0  2  0  0  0  0  0  0  0  0  0
    6.7588  -12.6159   19.8449 C   0  0  0  0  0  0  0  0  0  0  0  0
    8.1166  -13.9550   21.4377 C   0  0  0  0  0  0  0  0  0  0  0  0
    9.0023  -15.0720   21.8548 C   0  0  2  0  0  0  0  0  0  0  0  0
    8.3400  -16.3556   21.4998 N   0  0  0  0  0  0  0  0  0  0  0  0
    9.3503  -15.0892   23.2787 C   0  0  0  0  0  0  0  0  0  0  0  0
   10.5023  -14.9047   23.7361 O   0  0  0  0  0  0  0  0  0  0  0  0
    8.7706  -12.2499   26.4478 C   0  0  0  0  0  0  0  0  0  0  0  0
    7.5217  -13.0160   25.9944 C   0  0  2  0  0  0  0  0  0  0  0  0
    6.2731  -12.3461   26.5208 C   0  0  0  0  0  0  0  0  0  0  0  0
    7.6430  -14.4345   26.4539 C   0  0  0  0  0  0  0  0  0  0  0  0
    8.6697  -15.2522   25.7229 C   0  0  2  0  0  0  0  0  0  0  0  0
    8.3630  -15.3276   24.3012 N   0  0  0  0  0  0  0  0  0  0  0  0
    8.7063  -16.6316   26.2426 C   0  0  0  0  0  0  0  0  0  0  0  0
    8.3720  -17.5778   25.4930 O   0  0  0  0  0  0  0  0  0  0  0  0
    9.0934  -16.9632   27.5276 O   0  0  0  0  0  0  0  0  0  0  0  0
  2  4  1  0
  2  1  1  1
  3  2  1  0
  4  5  1  6
  6  4  1  0
  6 13  1  0
  7  6  2  0
  9  8  1  1
  9 11  1  0
  9 10  1  0
 12 11  1  1
 12 13  1  0
 14 12  1  0
 15 14  2  0
 17 16  1  1
 17 19  1  0
 18 17  1  0
 20 19  1  1
 20 21  1  0
 20 22  1  0
 21 14  1  0
 22 24  1  0
 23 22  2  0
M  END
$$$$
