TLL.pdb
     RDKit          3D

 24 23  0  0  1  0  0  0  0  0999 V2000
    6.5490  -20.1358   21.7089 C   0  0  0  0  0  0  0  0  0  0  0  0
    7.4465  -18.9663   22.1107 C   0  0  1  0  0  0  0  0  0  0  0  0
    8.4005  -19.4141   23.0106 O   0  0  0  0  0  0  0  0  0  0  0  0
    8.1082  -18.4613   20.8535 C   0  0  2  0  0  0  0  0  0  0  0  0
    8.9442  -19.4423   20.2263 N   0  0  0  0  0  0  0  0  0  0  0  0
    8.9150  -17.2453   21.1790 C   0  0  0  0  0  0  0  0  0  0  0  0
   10.1690  -17.2736   21.1933 O   0  0  0  0  0  0  0  0  0  0  0  0
    9.1556  -13.3003   18.9282 C   0  0  0  0  0  0  0  0  0  0  0  0
    8.0350  -13.4573   19.8731 C   0  0  2  0  0  0  0  0  0  0  0  0
    6.9907  -12.3705   19.5892 C   0  0  0  0  0  0  0  0  0  0  0  0
    8.2802  -13.6187   21.3076 C   0  0  0  0  0  0  0  0  0  0  0  0
    9.0121  -14.7930   21.8474 C   0  0  2  0  0  0  0  0  0  0  0  0
    8.2624  -16.0241   21.4808 N   0  0  0  0  0  0  0  0  0  0  0  0
    9.2281  -14.7764   23.2973 C   0  0  0  0  0  0  0  0  0  0  0  0
   10.0856  -14.0766   23.8851 O   0  0  0  0  0  0  0  0  0  0  0  0
    8.1999  -12.5680   26.6344 C   0  0  0  0  0  0  0  0  0  0  0  0
    7.1463  -13.3704   25.8611 C   0  0  2  0  0  0  0  0  0  0  0  0
    5.7596  -12.8547   26.1711 C   0  0  0  0  0  0  0  0  0  0  0  0
    7.3053  -14.8175   26.2060 C   0  0  0  0  0  0  0  0  0  0  0  0
    8.5343  -15.4723   25.6421 C   0  0  2  0  0  0  0  0  0  0  0  0
    8.4460  -15.5905   24.1932 N   0  0  0  0  0  0  0  0  0  0  0  0
    8.7000  -16.8317   26.1887 C   0  0  0  0  0  0  0  0  0  0  0  0
    8.4847  -17.8198   25.4497 O   0  0  0  0  0  0  0  0  0  0  0  0
    9.0862  -17.0999   27.4887 O   0  0  0  0  0  0  0  0  0  0  0  0
  2  4  1  0
  2  1  1  6
  3  2  1  0
  4  5  1  1
  6  4  1  0
  6 13  1  0
  7  6  2  0
  9  8  1  6
  9 11  1  0
  9 10  1  0
 12 11  1  1
 12 13  1  0
 14 12  1  0
 15 14  2  0
 17 16  1  1
 17 19  1  0
 18 17  1  0
 20 19  1  1
 20 21  1  0
 20 22  1  0
 21 14  1  0
 22 24  1  0
 23 22  2  0
M  END
$$$$
