TLL.pdb
     RDKit          3D

 24 23  0  0  1  0  0  0  0  0999 V2000
    7.7288  -21.1230   22.7895 C   0  0  0  0  0  0  0  0  0  0  0  0
    8.2822  -19.6989   22.8131 C   0  0  1  0  0  0  0  0  0  0  0  0
    9.3867  -19.6545   23.6488 O   0  0  0  0  0  0  0  0  0  0  0  0
    8.6796  -19.3530   21.4004 C   0  0  2  0  0  0  0  0  0  0  0  0
    9.6480  -20.2566   20.8524 N   0  0  0  0  0  0  0  0  0  0  0  0
    9.2179  -17.9584   21.3705 C   0  0  0  0  0  0  0  0  0  0  0  0
   10.4514  -17.7308   21.3478 O   0  0  0  0  0  0  0  0  0  0  0  0
    6.6798  -12.2691   20.4657 C   0  0  0  0  0  0  0  0  0  0  0  0
    7.8469  -13.1517   20.6456 C   0  0  2  0  0  0  0  0  0  0  0  0
    8.8551  -12.8760   19.5233 C   0  0  0  0  0  0  0  0  0  0  0  0
    7.6732  -14.5859   20.8846 C   0  0  0  0  0  0  0  0  0  0  0  0
    8.8044  -15.4493   21.3099 C   0  0  2  0  0  0  0  0  0  0  0  0
    8.3266  -16.8566   21.3674 N   0  0  0  0  0  0  0  0  0  0  0  0
    9.4058  -15.0935   22.5985 C   0  0  0  0  0  0  0  0  0  0  0  0
   10.2702  -14.2012   22.7628 O   0  0  0  0  0  0  0  0  0  0  0  0
    5.9612  -12.8537   26.2564 C   0  0  0  0  0  0  0  0  0  0  0  0
    7.3785  -13.4361   26.3223 C   0  0  2  0  0  0  0  0  0  0  0  0
    8.3913  -12.3343   26.5345 C   0  0  0  0  0  0  0  0  0  0  0  0
    7.6325  -14.2080   25.0661 C   0  0  0  0  0  0  0  0  0  0  0  0
    8.8711  -15.0582   25.0838 C   0  0  2  0  0  0  0  0  0  0  0  0
    9.0395  -15.7636   23.8209 N   0  0  0  0  0  0  0  0  0  0  0  0
    8.7939  -16.0723   26.1515 C   0  0  0  0  0  0  0  0  0  0  0  0
    8.7608  -15.7016   27.3474 O   0  0  0  0  0  0  0  0  0  0  0  0
    8.7534  -17.4348   25.9214 O   0  0  0  0  0  0  0  0  0  0  0  0
  2  4  1  0
  2  1  1  6
  3  2  1  0
  4  5  1  1
  6  4  1  0
  6 13  1  0
  7  6  2  0
  9  8  1  6
  9 11  1  0
  9 10  1  0
 12 11  1  1
 12 13  1  0
 14 12  1  0
 15 14  2  0
 17 16  1  6
 17 19  1  0
 18 17  1  0
 20 19  1  6
 20 21  1  0
 20 22  1  0
 21 14  1  0
 22 24  1  0
 23 22  2  0
M  END
$$$$
