TLL.pdb
     RDKit          3D

 24 23  0  0  1  0  0  0  0  0999 V2000
    6.7230  -18.8154   26.0264 C   0  0  0  0  0  0  0  0  0  0  0  0
    6.7646  -19.5766   24.7021 C   0  0  1  0  0  0  0  0  0  0  0  0
    5.8662  -20.6304   24.7555 O   0  0  0  0  0  0  0  0  0  0  0  0
    6.3697  -18.6055   23.6185 C   0  0  2  0  0  0  0  0  0  0  0  0
    6.1201  -19.2416   22.3585 N   0  0  0  0  0  0  0  0  0  0  0  0
    7.4479  -17.5816   23.4615 C   0  0  0  0  0  0  0  0  0  0  0  0
    8.4197  -17.7643   22.6896 O   0  0  0  0  0  0  0  0  0  0  0  0
    6.3345  -14.0804   26.3568 C   0  0  0  0  0  0  0  0  0  0  0  0
    7.3373  -13.4361   25.4892 C   0  0  2  0  0  0  0  0  0  0  0  0
    7.0640  -11.9274   25.4508 C   0  0  0  0  0  0  0  0  0  0  0  0
    7.6340  -13.9722   24.1593 C   0  0  0  0  0  0  0  0  0  0  0  0
    8.3507  -15.2606   23.9788 C   0  0  2  0  0  0  0  0  0  0  0  0
    7.3849  -16.3708   24.1951 N   0  0  0  0  0  0  0  0  0  0  0  0
    9.5090  -15.4542   24.8562 C   0  0  0  0  0  0  0  0  0  0  0  0
   10.6179  -14.8882   24.7129 O   0  0  0  0  0  0  0  0  0  0  0  0
   10.6819  -13.7067   27.9677 C   0  0  0  0  0  0  0  0  0  0  0  0
    9.6122  -14.6979   28.4424 C   0  0  2  0  0  0  0  0  0  0  0  0
    9.1861  -14.3756   29.8564 C   0  0  0  0  0  0  0  0  0  0  0  0
   10.1608  -16.0840   28.3156 C   0  0  0  0  0  0  0  0  0  0  0  0
   10.5736  -16.4778   26.9257 C   0  0  2  0  0  0  0  0  0  0  0  0
    9.4645  -16.3405   25.9919 N   0  0  0  0  0  0  0  0  0  0  0  0
   11.0123  -17.8850   26.8895 C   0  0  0  0  0  0  0  0  0  0  0  0
   10.3373  -18.7209   26.2457 O   0  0  0  0  0  0  0  0  0  0  0  0
   12.1425  -18.3587   27.5293 O   0  0  0  0  0  0  0  0  0  0  0  0
  2  4  1  0
  2  1  1  1
  3  2  1  0
  4  5  1  6
  6  4  1  0
  6 13  1  0
  7  6  2  0
  9  8  1  6
  9 11  1  0
  9 10  1  0
 12 11  1  1
 12 13  1  0
 14 12  1  0
 15 14  2  0
 17 16  1  1
 17 19  1  0
 18 17  1  0
 20 19  1  1
 20 21  1  0
 20 22  1  0
 21 14  1  0
 22 24  1  0
 23 22  2  0
M  END
$$$$
