TLL.pdb
     RDKit          3D

 24 23  0  0  1  0  0  0  0  0999 V2000
    6.9608  -17.7215   21.7803 C   0  0  0  0  0  0  0  0  0  0  0  0
    8.0719  -17.3684   20.7926 C   0  0  1  0  0  0  0  0  0  0  0  0
    7.7335  -17.8486   19.5376 O   0  0  0  0  0  0  0  0  0  0  0  0
    8.1821  -15.8649   20.7663 C   0  0  2  0  0  0  0  0  0  0  0  0
    9.0350  -15.3828   19.7201 N   0  0  0  0  0  0  0  0  0  0  0  0
    8.6884  -15.3876   22.0897 C   0  0  0  0  0  0  0  0  0  0  0  0
    9.9154  -15.3481   22.3480 O   0  0  0  0  0  0  0  0  0  0  0  0
    6.0675  -12.5256   27.0243 C   0  0  0  0  0  0  0  0  0  0  0  0
    7.2621  -13.0245   26.3188 C   0  0  2  0  0  0  0  0  0  0  0  0
    8.3630  -11.9592   26.3931 C   0  0  0  0  0  0  0  0  0  0  0  0
    7.1540  -13.6068   24.9797 C   0  0  0  0  0  0  0  0  0  0  0  0
    8.2200  -14.4746   24.4172 C   0  0  2  0  0  0  0  0  0  0  0  0
    7.7734  -14.9663   23.0865 N   0  0  0  0  0  0  0  0  0  0  0  0
    8.5919  -15.6206   25.2523 C   0  0  0  0  0  0  0  0  0  0  0  0
    7.8008  -16.5141   25.6347 O   0  0  0  0  0  0  0  0  0  0  0  0
   10.8872  -19.1717   24.3815 C   0  0  0  0  0  0  0  0  0  0  0  0
   11.7234  -17.9002   24.5712 C   0  0  2  0  0  0  0  0  0  0  0  0
   13.1372  -18.1222   24.0846 C   0  0  0  0  0  0  0  0  0  0  0  0
   11.6732  -17.5109   26.0149 C   0  0  0  0  0  0  0  0  0  0  0  0
   10.3455  -16.9881   26.4848 C   0  0  2  0  0  0  0  0  0  0  0  0
    9.9420  -15.8186   25.7163 N   0  0  0  0  0  0  0  0  0  0  0  0
   10.4137  -16.5858   27.9017 C   0  0  0  0  0  0  0  0  0  0  0  0
   10.3336  -15.3715   28.1985 O   0  0  0  0  0  0  0  0  0  0  0  0
   10.5619  -17.4738   28.9508 O   0  0  0  0  0  0  0  0  0  0  0  0
  2  4  1  0
  2  1  1  1
  3  2  1  0
  4  5  1  6
  6  4  1  0
  6 13  1  0
  7  6  2  0
  9  8  1  6
  9 11  1  0
  9 10  1  0
 12 11  1  1
 12 13  1  0
 14 12  1  0
 15 14  2  0
 17 16  1  1
 17 19  1  0
 18 17  1  0
 20 19  1  6
 20 21  1  0
 20 22  1  0
 21 14  1  0
 22 24  1  0
 23 22  2  0
M  END
$$$$
