EKR.pdb
     RDKit          3D

 30 29  0  0  1  0  0  0  0  0999 V2000
   22.1894  -19.5343  -20.8375 N   0  0  0  0  0  0  0  0  0  0  0  0
   21.6629  -18.5070  -19.9456 C   0  0  1  0  0  0  0  0  0  0  0  0
   21.5099  -19.1186  -18.5898 C   0  0  0  0  0  0  0  0  0  0  0  0
   21.0586  -20.5600  -18.6220 C   0  0  0  0  0  0  0  0  0  0  0  0
   21.9749  -21.4259  -17.8295 C   0  0  0  0  0  0  0  0  0  0  0  0
   22.9956  -21.9074  -18.3775 O   0  0  0  0  0  0  0  0  0  0  0  0
   22.5443  -17.3163  -19.9908 C   0  0  0  0  0  0  0  0  0  0  0  0
   22.2713  -16.3216  -19.2807 O   0  0  0  0  0  0  0  0  0  0  0  0
   21.7602  -21.7370  -16.4928 O   0  0  0  0  0  0  0  0  0  0  0  0
   23.7097  -17.2682  -20.8254 N   0  0  0  0  0  0  0  0  0  0  0  0
   24.6612  -16.2138  -20.8726 C   0  0  1  0  0  0  0  0  0  0  0  0
   26.0374  -16.5546  -21.3346 C   0  0  0  0  0  0  0  0  0  0  0  0
   27.0460  -15.4737  -21.2717 C   0  0  0  0  0  0  0  0  0  0  0  0
   28.4078  -15.8508  -21.7748 C   0  0  0  0  0  0  0  0  0  0  0  0
   29.4633  -14.8078  -21.6763 C   0  0  0  0  0  0  0  0  0  0  0  0
   30.7775  -15.1926  -22.1011 N   0  0  0  0  0  0  0  0  0  0  0  0
   24.1473  -14.9293  -21.4198 C   0  0  0  0  0  0  0  0  0  0  0  0
   23.7781  -14.8962  -22.6086 O   0  0  0  0  0  0  0  0  0  0  0  0
   17.5231  -10.0714  -19.3614 N   0  0  0  0  0  0  0  0  0  0  0  0
   18.3600   -9.1220  -20.0284 C   0  0  0  0  0  0  0  0  0  0  0  0
   17.8720   -7.9748  -20.3572 N   0  0  0  0  0  0  0  0  0  0  0  0
   19.7145   -9.4252  -20.3311 N   0  0  0  0  0  0  0  0  0  0  0  0
   20.2866  -10.7295  -20.0945 C   0  0  0  0  0  0  0  0  0  0  0  0
   21.6197  -10.9171  -20.6982 C   0  0  0  0  0  0  0  0  0  0  0  0
   22.3677  -12.1595  -20.5034 C   0  0  0  0  0  0  0  0  0  0  0  0
   23.6319  -12.4547  -21.2053 C   0  0  2  0  0  0  0  0  0  0  0  0
   24.0797  -13.7795  -20.6281 N   0  0  0  0  0  0  0  0  0  0  0  0
   24.7123  -11.4953  -21.0477 C   0  0  0  0  0  0  0  0  0  0  0  0
   25.7463  -11.5534  -20.3786 O   0  0  0  0  0  0  0  0  0  0  0  0
   24.5775  -10.2654  -21.7840 O   0  0  0  0  0  0  0  0  0  0  0  0
  2  1  1  6
  2  7  1  0
  3  2  1  0
  3  4  1  0
  4  5  1  0
  5  6  2  0
  7  8  2  0
  9  5  1  0
 10  7  1  0
 10 11  1  0
 11 17  1  0
 12 13  1  0
 11 12  1  6
 14 13  1  0
 15 14  1  0
 16 15  1  0
 17 18  2  0
 19 20  1  0
 20 21  2  0
 22 23  1  0
 22 20  1  0
 23 24  1  0
 24 25  1  0
 26 25  1  1
 26 28  1  0
 27 26  1  0
 27 17  1  0
 28 29  2  0
 28 30  1  0
M  END
$$$$
