EKR.pdb
     RDKit          3D

 30 29  0  0  1  0  0  0  0  0999 V2000
   14.3996  -11.9955  -14.0600 N   0  0  0  0  0  0  0  0  0  0  0  0
   14.5225  -12.0707  -12.6084 C   0  0  1  0  0  0  0  0  0  0  0  0
   15.6939  -12.9461  -12.2971 C   0  0  0  0  0  0  0  0  0  0  0  0
   15.4654  -14.4036  -12.6223 C   0  0  0  0  0  0  0  0  0  0  0  0
   16.6901  -15.2092  -12.3609 C   0  0  0  0  0  0  0  0  0  0  0  0
   17.8121  -14.7454  -12.6768 O   0  0  0  0  0  0  0  0  0  0  0  0
   14.6086  -10.7007  -12.0495 C   0  0  0  0  0  0  0  0  0  0  0  0
   14.8595   -9.7398  -12.8124 O   0  0  0  0  0  0  0  0  0  0  0  0
   16.6609  -16.4688  -11.7758 O   0  0  0  0  0  0  0  0  0  0  0  0
   14.4092  -10.4384  -10.6536 N   0  0  0  0  0  0  0  0  0  0  0  0
   14.3774   -9.1571  -10.0398 C   0  0  1  0  0  0  0  0  0  0  0  0
   13.4126   -8.9587   -8.9204 C   0  0  0  0  0  0  0  0  0  0  0  0
   13.3215   -7.5938   -8.3560 C   0  0  0  0  0  0  0  0  0  0  0  0
   12.2323   -7.4009   -7.3429 C   0  0  0  0  0  0  0  0  0  0  0  0
   12.0148   -6.0115   -6.8596 C   0  0  0  0  0  0  0  0  0  0  0  0
   10.8808   -5.8063   -6.0066 N   0  0  0  0  0  0  0  0  0  0  0  0
   15.7115   -8.5456   -9.7955 C   0  0  0  0  0  0  0  0  0  0  0  0
   16.4720   -9.0897   -8.9731 O   0  0  0  0  0  0  0  0  0  0  0  0
   22.2506   -7.2957  -14.9520 N   0  0  0  0  0  0  0  0  0  0  0  0
   22.3366   -6.0764  -14.2087 C   0  0  0  0  0  0  0  0  0  0  0  0
   23.2933   -5.2505  -14.4632 N   0  0  0  0  0  0  0  0  0  0  0  0
   21.3863   -5.7655  -13.1993 N   0  0  0  0  0  0  0  0  0  0  0  0
   20.2528   -6.6137  -12.9167 C   0  0  0  0  0  0  0  0  0  0  0  0
   19.2668   -6.0099  -12.0000 C   0  0  0  0  0  0  0  0  0  0  0  0
   18.0188   -6.7004  -11.6737 C   0  0  0  0  0  0  0  0  0  0  0  0
   17.5046   -6.8222  -10.2957 C   0  0  2  0  0  0  0  0  0  0  0  0
   16.1108   -7.3856  -10.4650 N   0  0  0  0  0  0  0  0  0  0  0  0
   17.4151   -5.5992   -9.5155 C   0  0  0  0  0  0  0  0  0  0  0  0
   18.2589   -5.0242   -8.8245 O   0  0  0  0  0  0  0  0  0  0  0  0
   16.1412   -4.9285   -9.5362 O   0  0  0  0  0  0  0  0  0  0  0  0
  2  1  1  6
  2  7  1  0
  3  2  1  0
  3  4  1  0
  4  5  1  0
  5  6  2  0
  7  8  2  0
  9  5  1  0
 10  7  1  0
 10 11  1  0
 11 17  1  0
 12 13  1  0
 11 12  1  1
 14 13  1  0
 15 14  1  0
 16 15  1  0
 17 18  2  0
 19 20  1  0
 20 21  2  0
 22 23  1  0
 22 20  1  0
 23 24  1  0
 24 25  1  0
 26 25  1  6
 26 28  1  0
 27 26  1  0
 27 17  1  0
 28 29  2  0
 28 30  1  0
M  END
$$$$
