EKR.pdb
     RDKit          3D

 30 29  0  0  1  0  0  0  0  0999 V2000
   19.5704  -21.1439  -17.8643 N   0  0  0  0  0  0  0  0  0  0  0  0
   20.3591  -19.9187  -17.7962 C   0  0  1  0  0  0  0  0  0  0  0  0
   19.8350  -19.1046  -16.6568 C   0  0  0  0  0  0  0  0  0  0  0  0
   18.7936  -19.8202  -15.8287 C   0  0  0  0  0  0  0  0  0  0  0  0
   17.7378  -18.8780  -15.3650 C   0  0  0  0  0  0  0  0  0  0  0  0
   17.9854  -18.0918  -14.4192 O   0  0  0  0  0  0  0  0  0  0  0  0
   21.7974  -20.2633  -17.6996 C   0  0  0  0  0  0  0  0  0  0  0  0
   22.1312  -21.4101  -17.3233 O   0  0  0  0  0  0  0  0  0  0  0  0
   16.4704  -18.8184  -15.9306 O   0  0  0  0  0  0  0  0  0  0  0  0
   22.8259  -19.3195  -18.0289 N   0  0  0  0  0  0  0  0  0  0  0  0
   24.2242  -19.5726  -18.0280 C   0  0  1  0  0  0  0  0  0  0  0  0
   24.9298  -19.5186  -19.3405 C   0  0  0  0  0  0  0  0  0  0  0  0
   24.8315  -18.2500  -20.0959 C   0  0  0  0  0  0  0  0  0  0  0  0
   25.6215  -18.2112  -21.3704 C   0  0  0  0  0  0  0  0  0  0  0  0
   25.5928  -16.9328  -22.1296 C   0  0  0  0  0  0  0  0  0  0  0  0
   26.4612  -16.8507  -23.2674 N   0  0  0  0  0  0  0  0  0  0  0  0
   24.9771  -18.9304  -16.9171 C   0  0  0  0  0  0  0  0  0  0  0  0
   25.1385  -17.6959  -16.9453 O   0  0  0  0  0  0  0  0  0  0  0  0
   26.4294  -19.9910   -9.1261 N   0  0  0  0  0  0  0  0  0  0  0  0
   25.6872  -20.9071   -9.9363 C   0  0  0  0  0  0  0  0  0  0  0  0
   24.4688  -21.1839   -9.6181 N   0  0  0  0  0  0  0  0  0  0  0  0
   26.2720  -21.5123  -11.0809 N   0  0  0  0  0  0  0  0  0  0  0  0
   27.4977  -21.0282  -11.6704 C   0  0  0  0  0  0  0  0  0  0  0  0
   27.3030  -19.9424  -12.6503 C   0  0  0  0  0  0  0  0  0  0  0  0
   26.8645  -20.2291  -14.0164 C   0  0  0  0  0  0  0  0  0  0  0  0
   26.6548  -19.1774  -15.0303 C   0  0  2  0  0  0  0  0  0  0  0  0
   25.4987  -19.6858  -15.8632 N   0  0  0  0  0  0  0  0  0  0  0  0
   27.7686  -18.8867  -15.9179 C   0  0  0  0  0  0  0  0  0  0  0  0
   28.1517  -19.4605  -16.9397 O   0  0  0  0  0  0  0  0  0  0  0  0
   28.5733  -17.7450  -15.5688 O   0  0  0  0  0  0  0  0  0  0  0  0
  2  1  1  1
  2  7  1  0
  3  2  1  0
  3  4  1  0
  4  5  1  0
  5  6  2  0
  7  8  2  0
  9  5  1  0
 10  7  1  0
 10 11  1  0
 11 17  1  0
 12 13  1  0
 11 12  1  6
 14 13  1  0
 15 14  1  0
 16 15  1  0
 17 18  2  0
 19 20  1  0
 20 21  2  0
 22 23  1  0
 22 20  1  0
 23 24  1  0
 24 25  1  0
 26 25  1  1
 26 28  1  0
 27 26  1  0
 27 17  1  0
 28 29  2  0
 28 30  1  0
M  END
$$$$
