EKR.pdb
     RDKit          3D

 30 29  0  0  1  0  0  0  0  0999 V2000
   23.1515  -15.3680  -17.4851 N   0  0  0  0  0  0  0  0  0  0  0  0
   23.6565  -14.2866  -18.3239 C   0  0  1  0  0  0  0  0  0  0  0  0
   22.7649  -14.1860  -19.5198 C   0  0  0  0  0  0  0  0  0  0  0  0
   21.2954  -14.1143  -19.1766 C   0  0  0  0  0  0  0  0  0  0  0  0
   20.6369  -12.9763  -19.8757 C   0  0  0  0  0  0  0  0  0  0  0  0
   20.5976  -12.9626  -21.1295 O   0  0  0  0  0  0  0  0  0  0  0  0
   23.7556  -13.0451  -17.5204 C   0  0  0  0  0  0  0  0  0  0  0  0
   22.9646  -12.8650  -16.5665 O   0  0  0  0  0  0  0  0  0  0  0  0
   20.0523  -11.9087  -19.2062 O   0  0  0  0  0  0  0  0  0  0  0  0
   24.7377  -12.0381  -17.8008 N   0  0  0  0  0  0  0  0  0  0  0  0
   24.8644  -10.7868  -17.1394 C   0  0  1  0  0  0  0  0  0  0  0  0
   26.0858   -9.9815  -17.4275 C   0  0  0  0  0  0  0  0  0  0  0  0
   27.3530  -10.7295  -17.5841 C   0  0  0  0  0  0  0  0  0  0  0  0
   28.5636   -9.8774  -17.8254 C   0  0  0  0  0  0  0  0  0  0  0  0
   29.8340  -10.5958  -18.1104 C   0  0  0  0  0  0  0  0  0  0  0  0
   30.9973   -9.7787  -18.2965 N   0  0  0  0  0  0  0  0  0  0  0  0
   23.6159   -9.9798  -17.0797 C   0  0  0  0  0  0  0  0  0  0  0  0
   23.0459   -9.6887  -18.1479 O   0  0  0  0  0  0  0  0  0  0  0  0
   15.9673  -12.1337  -14.9075 N   0  0  0  0  0  0  0  0  0  0  0  0
   15.8166  -10.7269  -15.1200 C   0  0  0  0  0  0  0  0  0  0  0  0
   14.6337  -10.2143  -15.1235 N   0  0  0  0  0  0  0  0  0  0  0  0
   16.9476   -9.8922  -15.3259 N   0  0  0  0  0  0  0  0  0  0  0  0
   18.2925  -10.4135  -15.3885 C   0  0  0  0  0  0  0  0  0  0  0  0
   19.3318   -9.3746  -15.5211 C   0  0  0  0  0  0  0  0  0  0  0  0
   20.7445   -9.7334  -15.6497 C   0  0  0  0  0  0  0  0  0  0  0  0
   21.8176   -8.7312  -15.7981 C   0  0  2  0  0  0  0  0  0  0  0  0
   23.0884   -9.5499  -15.8590 N   0  0  0  0  0  0  0  0  0  0  0  0
   21.9534   -7.7491  -14.7353 C   0  0  0  0  0  0  0  0  0  0  0  0
   22.7704   -7.6695  -13.8154 O   0  0  0  0  0  0  0  0  0  0  0  0
   20.9865   -6.6822  -14.7336 O   0  0  0  0  0  0  0  0  0  0  0  0
  2  1  1  1
  2  7  1  0
  3  2  1  0
  3  4  1  0
  4  5  1  0
  5  6  2  0
  7  8  2  0
  9  5  1  0
 10  7  1  0
 10 11  1  0
 11 17  1  0
 12 13  1  0
 11 12  1  6
 14 13  1  0
 15 14  1  0
 16 15  1  0
 17 18  2  0
 19 20  1  0
 20 21  2  0
 22 23  1  0
 22 20  1  0
 23 24  1  0
 24 25  1  0
 26 25  1  1
 26 28  1  0
 27 26  1  0
 27 17  1  0
 28 29  2  0
 28 30  1  0
M  END
$$$$
