EKR.pdb
     RDKit          3D

 30 29  0  0  1  0  0  0  0  0999 V2000
   21.0654  -19.2060  -18.4688 N   0  0  0  0  0  0  0  0  0  0  0  0
   22.0462  -18.4256  -17.7225 C   0  0  1  0  0  0  0  0  0  0  0  0
   21.5179  -18.2398  -16.3362 C   0  0  0  0  0  0  0  0  0  0  0  0
   20.1746  -17.5503  -16.2863 C   0  0  0  0  0  0  0  0  0  0  0  0
   19.6671  -17.4662  -14.8889 C   0  0  0  0  0  0  0  0  0  0  0  0
   19.2689  -18.5077  -14.3139 O   0  0  0  0  0  0  0  0  0  0  0  0
   23.3670  -19.0940  -17.7963 C   0  0  0  0  0  0  0  0  0  0  0  0
   23.4780  -20.2808  -17.4128 O   0  0  0  0  0  0  0  0  0  0  0  0
   19.6085  -16.2780  -14.1717 O   0  0  0  0  0  0  0  0  0  0  0  0
   24.5292  -18.4207  -18.2995 N   0  0  0  0  0  0  0  0  0  0  0  0
   25.8499  -18.9442  -18.3326 C   0  0  1  0  0  0  0  0  0  0  0  0
   26.7968  -18.3495  -19.3190 C   0  0  0  0  0  0  0  0  0  0  0  0
   26.3611  -18.3357  -20.7331 C   0  0  0  0  0  0  0  0  0  0  0  0
   26.5418  -17.0234  -21.4367 C   0  0  0  0  0  0  0  0  0  0  0  0
   26.0564  -16.9514  -22.8405 C   0  0  0  0  0  0  0  0  0  0  0  0
   26.2003  -15.6853  -23.4978 N   0  0  0  0  0  0  0  0  0  0  0  0
   26.4572  -19.1987  -16.9984 C   0  0  0  0  0  0  0  0  0  0  0  0
   26.9883  -18.2464  -16.3969 O   0  0  0  0  0  0  0  0  0  0  0  0
   24.9842  -20.9113   -9.3623 N   0  0  0  0  0  0  0  0  0  0  0  0
   24.2200  -20.7406  -10.5596 C   0  0  0  0  0  0  0  0  0  0  0  0
   23.1232  -20.0644  -10.5150 N   0  0  0  0  0  0  0  0  0  0  0  0
   24.6520  -21.3035  -11.7905 N   0  0  0  0  0  0  0  0  0  0  0  0
   25.8004  -22.1736  -11.8823 C   0  0  0  0  0  0  0  0  0  0  0  0
   26.7897  -21.7547  -12.8936 C   0  0  0  0  0  0  0  0  0  0  0  0
   26.3651  -21.2238  -14.1893 C   0  0  0  0  0  0  0  0  0  0  0  0
   27.3166  -20.8121  -15.2396 C   0  0  2  0  0  0  0  0  0  0  0  0
   26.4409  -20.4735  -16.4258 N   0  0  0  0  0  0  0  0  0  0  0  0
   28.3003  -21.7962  -15.6598 C   0  0  0  0  0  0  0  0  0  0  0  0
   28.3032  -22.5687  -16.6207 O   0  0  0  0  0  0  0  0  0  0  0  0
   29.4752  -21.9071  -14.8348 O   0  0  0  0  0  0  0  0  0  0  0  0
  2  1  1  6
  2  7  1  0
  3  2  1  0
  3  4  1  0
  4  5  1  0
  5  6  2  0
  7  8  2  0
  9  5  1  0
 10  7  1  0
 10 11  1  0
 11 17  1  0
 12 13  1  0
 11 12  1  1
 14 13  1  0
 15 14  1  0
 16 15  1  0
 17 18  2  0
 19 20  1  0
 20 21  2  0
 22 23  1  0
 22 20  1  0
 23 24  1  0
 24 25  1  0
 26 25  1  1
 26 28  1  0
 27 26  1  0
 27 17  1  0
 28 29  2  0
 28 30  1  0
M  END
$$$$
