EKR.pdb
     RDKit          3D

 30 29  0  0  1  0  0  0  0  0999 V2000
   28.3859  -21.7072  -17.3734 N   0  0  0  0  0  0  0  0  0  0  0  0
   28.7173  -20.6300  -16.4471 C   0  0  1  0  0  0  0  0  0  0  0  0
   28.2181  -19.3518  -17.0407 C   0  0  0  0  0  0  0  0  0  0  0  0
   26.7144  -19.2116  -17.0021 C   0  0  0  0  0  0  0  0  0  0  0  0
   26.2879  -17.8751  -17.5012 C   0  0  0  0  0  0  0  0  0  0  0  0
   27.1563  -17.0524  -17.8793 O   0  0  0  0  0  0  0  0  0  0  0  0
   28.1677  -20.9457  -15.1074 C   0  0  0  0  0  0  0  0  0  0  0  0
   27.1266  -21.6354  -15.0166 O   0  0  0  0  0  0  0  0  0  0  0  0
   24.9583  -17.4795  -17.5738 O   0  0  0  0  0  0  0  0  0  0  0  0
   28.7968  -20.4857  -13.9033 N   0  0  0  0  0  0  0  0  0  0  0  0
   28.4113  -20.8219  -12.5775 C   0  0  1  0  0  0  0  0  0  0  0  0
   29.4851  -20.8687  -11.5440 C   0  0  0  0  0  0  0  0  0  0  0  0
   30.5796  -21.8394  -11.7667 C   0  0  0  0  0  0  0  0  0  0  0  0
   31.5955  -21.9090  -10.6654 C   0  0  0  0  0  0  0  0  0  0  0  0
   32.7337  -22.8436  -10.8714 C   0  0  0  0  0  0  0  0  0  0  0  0
   33.7148  -22.8891   -9.8268 N   0  0  0  0  0  0  0  0  0  0  0  0
   27.1555  -20.1775  -12.1070 C   0  0  0  0  0  0  0  0  0  0  0  0
   27.0196  -18.9510  -12.2736 O   0  0  0  0  0  0  0  0  0  0  0  0
   19.1422  -21.4678  -14.2764 N   0  0  0  0  0  0  0  0  0  0  0  0
   20.2488  -20.6479  -14.6633 C   0  0  0  0  0  0  0  0  0  0  0  0
   20.2850  -20.1623  -15.8571 N   0  0  0  0  0  0  0  0  0  0  0  0
   21.3026  -20.3633  -13.7539 N   0  0  0  0  0  0  0  0  0  0  0  0
   21.3414  -20.9119  -12.4191 C   0  0  0  0  0  0  0  0  0  0  0  0
   22.4150  -20.3550  -11.5738 C   0  0  0  0  0  0  0  0  0  0  0  0
   23.8122  -20.7374  -11.7801 C   0  0  0  0  0  0  0  0  0  0  0  0
   24.9125  -20.2525  -10.9244 C   0  0  2  0  0  0  0  0  0  0  0  0
   26.1471  -20.9212  -11.4879 N   0  0  0  0  0  0  0  0  0  0  0  0
   24.8290  -20.5605   -9.5064 C   0  0  0  0  0  0  0  0  0  0  0  0
   25.3131  -21.4900   -8.8569 O   0  0  0  0  0  0  0  0  0  0  0  0
   24.0597  -19.6443   -8.7052 O   0  0  0  0  0  0  0  0  0  0  0  0
  2  1  1  6
  2  7  1  0
  3  2  1  0
  3  4  1  0
  4  5  1  0
  5  6  2  0
  7  8  2  0
  9  5  1  0
 10  7  1  0
 10 11  1  0
 11 17  1  0
 12 13  1  0
 11 12  1  1
 14 13  1  0
 15 14  1  0
 16 15  1  0
 17 18  2  0
 19 20  1  0
 20 21  2  0
 22 23  1  0
 22 20  1  0
 23 24  1  0
 24 25  1  0
 26 25  1  6
 26 28  1  0
 27 26  1  0
 27 17  1  0
 28 29  2  0
 28 30  1  0
M  END
$$$$
