EKR.pdb
     RDKit          3D

 30 29  0  0  1  0  0  0  0  0999 V2000
   22.2617  -20.0872  -17.5944 N   0  0  0  0  0  0  0  0  0  0  0  0
   21.6639  -18.8206  -17.1867 C   0  0  1  0  0  0  0  0  0  0  0  0
   21.3056  -18.9331  -15.7395 C   0  0  0  0  0  0  0  0  0  0  0  0
   20.9374  -20.3349  -15.3131 C   0  0  0  0  0  0  0  0  0  0  0  0
   20.7159  -20.4066  -13.8423 C   0  0  0  0  0  0  0  0  0  0  0  0
   20.9857  -19.4105  -13.1290 O   0  0  0  0  0  0  0  0  0  0  0  0
   22.5923  -17.7112  -17.5093 C   0  0  0  0  0  0  0  0  0  0  0  0
   22.2684  -16.5356  -17.2246 O   0  0  0  0  0  0  0  0  0  0  0  0
   20.2180  -21.5347  -13.2026 O   0  0  0  0  0  0  0  0  0  0  0  0
   23.8601  -17.9435  -18.1385 N   0  0  0  0  0  0  0  0  0  0  0  0
   24.8196  -16.9515  -18.4773 C   0  0  1  0  0  0  0  0  0  0  0  0
   26.1705  -17.4221  -18.8979 C   0  0  0  0  0  0  0  0  0  0  0  0
   27.1845  -16.3778  -19.1645 C   0  0  0  0  0  0  0  0  0  0  0  0
   28.5141  -16.8930  -19.6298 C   0  0  0  0  0  0  0  0  0  0  0  0
   29.5555  -15.8721  -19.9216 C   0  0  0  0  0  0  0  0  0  0  0  0
   30.7390  -16.3429  -20.5799 N   0  0  0  0  0  0  0  0  0  0  0  0
   24.2955  -15.8265  -19.2977 C   0  0  0  0  0  0  0  0  0  0  0  0
   23.8457  -16.0780  -20.4313 O   0  0  0  0  0  0  0  0  0  0  0  0
   18.3570  -10.0462  -17.0825 N   0  0  0  0  0  0  0  0  0  0  0  0
   18.7215   -9.6813  -18.4169 C   0  0  0  0  0  0  0  0  0  0  0  0
   17.9696   -8.8657  -19.0739 N   0  0  0  0  0  0  0  0  0  0  0  0
   19.8951  -10.2032  -19.0241 N   0  0  0  0  0  0  0  0  0  0  0  0
   20.6859  -11.2438  -18.4107 C   0  0  0  0  0  0  0  0  0  0  0  0
   21.8014  -11.7217  -19.2500 C   0  0  0  0  0  0  0  0  0  0  0  0
   22.6199  -12.8625  -18.8383 C   0  0  0  0  0  0  0  0  0  0  0  0
   23.7478  -13.3734  -19.6413 C   0  0  2  0  0  0  0  0  0  0  0  0
   24.3065  -14.5136  -18.8186 N   0  0  0  0  0  0  0  0  0  0  0  0
   24.8260  -12.4425  -19.9298 C   0  0  0  0  0  0  0  0  0  0  0  0
   25.9053  -12.2631  -19.3614 O   0  0  0  0  0  0  0  0  0  0  0  0
   24.6259  -11.5750  -21.0614 O   0  0  0  0  0  0  0  0  0  0  0  0
  2  1  1  1
  2  7  1  0
  3  2  1  0
  3  4  1  0
  4  5  1  0
  5  6  2  0
  7  8  2  0
  9  5  1  0
 10  7  1  0
 10 11  1  0
 11 17  1  0
 12 13  1  0
 11 12  1  6
 14 13  1  0
 15 14  1  0
 16 15  1  0
 17 18  2  0
 19 20  1  0
 20 21  2  0
 22 23  1  0
 22 20  1  0
 23 24  1  0
 24 25  1  0
 26 25  1  1
 26 28  1  0
 27 26  1  0
 27 17  1  0
 28 29  2  0
 28 30  1  0
M  END
$$$$
