EKR.pdb
     RDKit          3D

 30 29  0  0  1  0  0  0  0  0999 V2000
   26.6227  -16.3336  -17.7121 N   0  0  0  0  0  0  0  0  0  0  0  0
   25.7323  -17.4287  -18.0808 C   0  0  1  0  0  0  0  0  0  0  0  0
   26.5641  -18.6638  -18.2152 C   0  0  0  0  0  0  0  0  0  0  0  0
   27.5999  -18.5812  -19.3118 C   0  0  0  0  0  0  0  0  0  0  0  0
   28.3569  -19.8580  -19.4309 C   0  0  0  0  0  0  0  0  0  0  0  0
   29.5535  -19.9024  -19.0569 O   0  0  0  0  0  0  0  0  0  0  0  0
   24.6353  -17.5270  -17.0890 C   0  0  0  0  0  0  0  0  0  0  0  0
   24.9096  -17.5355  -15.8672 O   0  0  0  0  0  0  0  0  0  0  0  0
   27.8033  -21.0250  -19.9421 O   0  0  0  0  0  0  0  0  0  0  0  0
   23.2598  -17.6099  -17.4871 N   0  0  0  0  0  0  0  0  0  0  0  0
   22.1510  -17.8215  -16.6239 C   0  0  1  0  0  0  0  0  0  0  0  0
   20.8041  -17.4351  -17.1336 C   0  0  0  0  0  0  0  0  0  0  0  0
   19.6577  -17.6747  -16.2291 C   0  0  0  0  0  0  0  0  0  0  0  0
   18.3137  -17.3599  -16.8160 C   0  0  0  0  0  0  0  0  0  0  0  0
   17.1488  -17.4601  -15.8970 C   0  0  0  0  0  0  0  0  0  0  0  0
   15.8592  -17.2294  -16.4794 N   0  0  0  0  0  0  0  0  0  0  0  0
   22.1647  -19.1163  -15.8912 C   0  0  0  0  0  0  0  0  0  0  0  0
   22.1955  -20.1715  -16.5516 O   0  0  0  0  0  0  0  0  0  0  0  0
   27.6986  -21.0664  -10.0358 N   0  0  0  0  0  0  0  0  0  0  0  0
   27.5427  -21.1095  -11.4572 C   0  0  0  0  0  0  0  0  0  0  0  0
   28.5806  -20.9663  -12.2086 N   0  0  0  0  0  0  0  0  0  0  0  0
   26.2660  -21.3072  -12.0482 N   0  0  0  0  0  0  0  0  0  0  0  0
   25.0568  -21.3983  -11.2648 C   0  0  0  0  0  0  0  0  0  0  0  0
   23.8273  -21.5131  -12.0723 C   0  0  0  0  0  0  0  0  0  0  0  0
   23.4200  -20.4421  -12.9823 C   0  0  0  0  0  0  0  0  0  0  0  0
   22.1595  -20.4755  -13.7492 C   0  0  2  0  0  0  0  0  0  0  0  0
   22.1401  -19.1590  -14.4944 N   0  0  0  0  0  0  0  0  0  0  0  0
   20.9275  -20.5910  -12.9868 C   0  0  0  0  0  0  0  0  0  0  0  0
   20.0854  -19.7412  -12.6884 O   0  0  0  0  0  0  0  0  0  0  0  0
   20.6152  -21.9043  -12.4860 O   0  0  0  0  0  0  0  0  0  0  0  0
  2  1  1  1
  2  7  1  0
  3  2  1  0
  3  4  1  0
  4  5  1  0
  5  6  2  0
  7  8  2  0
  9  5  1  0
 10  7  1  0
 10 11  1  0
 11 17  1  0
 12 13  1  0
 11 12  1  6
 14 13  1  0
 15 14  1  0
 16 15  1  0
 17 18  2  0
 19 20  1  0
 20 21  2  0
 22 23  1  0
 22 20  1  0
 23 24  1  0
 24 25  1  0
 26 25  1  1
 26 28  1  0
 27 26  1  0
 27 17  1  0
 28 29  2  0
 28 30  1  0
M  END
$$$$
