EKR.pdb
     RDKit          3D

 30 29  0  0  1  0  0  0  0  0999 V2000
   21.6263  -25.1043  -13.3769 N   0  0  0  0  0  0  0  0  0  0  0  0
   20.6974  -24.0088  -13.1219 C   0  0  1  0  0  0  0  0  0  0  0  0
   20.1894  -23.5280  -14.4433 C   0  0  0  0  0  0  0  0  0  0  0  0
   19.1808  -22.4085  -14.3345 C   0  0  0  0  0  0  0  0  0  0  0  0
   17.8273  -22.8639  -14.7565 C   0  0  0  0  0  0  0  0  0  0  0  0
   16.8185  -22.2046  -14.4080 O   0  0  0  0  0  0  0  0  0  0  0  0
   19.6447  -24.4638  -12.1831 C   0  0  0  0  0  0  0  0  0  0  0  0
   18.7308  -23.6736  -11.8537 O   0  0  0  0  0  0  0  0  0  0  0  0
   17.6137  -23.9986  -15.5289 O   0  0  0  0  0  0  0  0  0  0  0  0
   19.6376  -25.7908  -11.6388 N   0  0  0  0  0  0  0  0  0  0  0  0
   18.6993  -26.3061  -10.7042 C   0  0  1  0  0  0  0  0  0  0  0  0
   18.4175  -27.7695  -10.7541 C   0  0  0  0  0  0  0  0  0  0  0  0
   17.3741  -28.2768   -9.8356 C   0  0  0  0  0  0  0  0  0  0  0  0
   17.1234  -29.7533   -9.9187 C   0  0  0  0  0  0  0  0  0  0  0  0
   15.9993  -30.2820   -9.1010 C   0  0  0  0  0  0  0  0  0  0  0  0
   15.8283  -31.7055   -9.1022 N   0  0  0  0  0  0  0  0  0  0  0  0
   18.8299  -25.7686   -9.3231 C   0  0  0  0  0  0  0  0  0  0  0  0
   19.9703  -25.5229   -8.8874 O   0  0  0  0  0  0  0  0  0  0  0  0
   12.1128  -22.7032   -4.2524 N   0  0  0  0  0  0  0  0  0  0  0  0
   13.3095  -22.7173   -3.4686 C   0  0  0  0  0  0  0  0  0  0  0  0
   13.2211  -22.8295   -2.1873 N   0  0  0  0  0  0  0  0  0  0  0  0
   14.5871  -22.6101   -4.0807 N   0  0  0  0  0  0  0  0  0  0  0  0
   14.8368  -23.0528   -5.4320 C   0  0  0  0  0  0  0  0  0  0  0  0
   16.0969  -23.8033   -5.5930 C   0  0  0  0  0  0  0  0  0  0  0  0
   16.4940  -24.3397   -6.8952 C   0  0  0  0  0  0  0  0  0  0  0  0
   17.8302  -24.9097   -7.1556 C   0  0  2  0  0  0  0  0  0  0  0  0
   17.7060  -25.5445   -8.5232 N   0  0  0  0  0  0  0  0  0  0  0  0
   18.3103  -25.9159   -6.2231 C   0  0  0  0  0  0  0  0  0  0  0  0
   18.1129  -27.1322   -6.1827 O   0  0  0  0  0  0  0  0  0  0  0  0
   19.1586  -25.4399   -5.1615 O   0  0  0  0  0  0  0  0  0  0  0  0
  2  1  1  6
  2  7  1  0
  3  2  1  0
  3  4  1  0
  4  5  1  0
  5  6  2  0
  7  8  2  0
  9  5  1  0
 10  7  1  0
 10 11  1  0
 11 17  1  0
 12 13  1  0
 11 12  1  1
 14 13  1  0
 15 14  1  0
 16 15  1  0
 17 18  2  0
 19 20  1  0
 20 21  2  0
 22 23  1  0
 22 20  1  0
 23 24  1  0
 24 25  1  0
 26 25  1  1
 26 28  1  0
 27 26  1  0
 27 17  1  0
 28 29  2  0
 28 30  1  0
M  END
$$$$
