EKR.pdb
     RDKit          3D

 30 29  0  0  1  0  0  0  0  0999 V2000
   22.7642  -19.1316  -19.2667 N   0  0  0  0  0  0  0  0  0  0  0  0
   22.9746  -20.5249  -18.8893 C   0  0  1  0  0  0  0  0  0  0  0  0
   23.4929  -21.2471  -20.0915 C   0  0  0  0  0  0  0  0  0  0  0  0
   24.2074  -20.3513  -21.0760 C   0  0  0  0  0  0  0  0  0  0  0  0
   25.5755  -20.8612  -21.3691 C   0  0  0  0  0  0  0  0  0  0  0  0
   25.7175  -22.0270  -21.8101 O   0  0  0  0  0  0  0  0  0  0  0  0
   23.8599  -20.5855  -17.7022 C   0  0  0  0  0  0  0  0  0  0  0  0
   24.1072  -21.6942  -17.1753 O   0  0  0  0  0  0  0  0  0  0  0  0
   26.7253  -20.1054  -21.1786 O   0  0  0  0  0  0  0  0  0  0  0  0
   24.4490  -19.4067  -17.1360 N   0  0  0  0  0  0  0  0  0  0  0  0
   25.3279  -19.3647  -16.0202 C   0  0  1  0  0  0  0  0  0  0  0  0
   26.4448  -18.3779  -16.0661 C   0  0  0  0  0  0  0  0  0  0  0  0
   27.4032  -18.5110  -17.1857 C   0  0  0  0  0  0  0  0  0  0  0  0
   28.5199  -17.5095  -17.1835 C   0  0  0  0  0  0  0  0  0  0  0  0
   29.4443  -17.5445  -18.3479 C   0  0  0  0  0  0  0  0  0  0  0  0
   30.5651  -16.6519  -18.2956 N   0  0  0  0  0  0  0  0  0  0  0  0
   24.6612  -19.4524  -14.6931 C   0  0  0  0  0  0  0  0  0  0  0  0
   23.9972  -18.4763  -14.2969 O   0  0  0  0  0  0  0  0  0  0  0  0
   18.0122  -21.8351  -12.7814 N   0  0  0  0  0  0  0  0  0  0  0  0
   18.3504  -22.1369  -11.4245 C   0  0  0  0  0  0  0  0  0  0  0  0
   17.4389  -22.0572  -10.5162 N   0  0  0  0  0  0  0  0  0  0  0  0
   19.6706  -22.5214  -11.0671 N   0  0  0  0  0  0  0  0  0  0  0  0
   20.7361  -22.6216  -12.0361 C   0  0  0  0  0  0  0  0  0  0  0  0
   21.8428  -21.6725  -11.8095 C   0  0  0  0  0  0  0  0  0  0  0  0
   22.9576  -21.5750  -12.7522 C   0  0  0  0  0  0  0  0  0  0  0  0
   24.1117  -20.6795  -12.5418 C   0  0  2  0  0  0  0  0  0  0  0  0
   24.7738  -20.5975  -13.8996 N   0  0  0  0  0  0  0  0  0  0  0  0
   25.1057  -21.1032  -11.5698 C   0  0  0  0  0  0  0  0  0  0  0  0
   26.1573  -21.7297  -11.7179 O   0  0  0  0  0  0  0  0  0  0  0  0
   24.8431  -20.7447  -10.2003 O   0  0  0  0  0  0  0  0  0  0  0  0
  2  1  1  6
  2  7  1  0
  3  2  1  0
  3  4  1  0
  4  5  1  0
  5  6  2  0
  7  8  2  0
  9  5  1  0
 10  7  1  0
 10 11  1  0
 11 17  1  0
 12 13  1  0
 11 12  1  1
 14 13  1  0
 15 14  1  0
 16 15  1  0
 17 18  2  0
 19 20  1  0
 20 21  2  0
 22 23  1  0
 22 20  1  0
 23 24  1  0
 24 25  1  0
 26 25  1  6
 26 28  1  0
 27 26  1  0
 27 17  1  0
 28 29  2  0
 28 30  1  0
M  END
$$$$
