EKR.pdb
     RDKit          3D

 30 29  0  0  1  0  0  0  0  0999 V2000
   29.1874  -26.7843  -15.9718 N   0  0  0  0  0  0  0  0  0  0  0  0
   29.4981  -25.8316  -17.0319 C   0  0  1  0  0  0  0  0  0  0  0  0
   29.2532  -26.5129  -18.3401 C   0  0  0  0  0  0  0  0  0  0  0  0
   27.8867  -27.1482  -18.4467 C   0  0  0  0  0  0  0  0  0  0  0  0
   27.9919  -28.5853  -18.8222 C   0  0  0  0  0  0  0  0  0  0  0  0
   29.1194  -29.0773  -19.0681 O   0  0  0  0  0  0  0  0  0  0  0  0
   28.7143  -24.5909  -16.8247 C   0  0  0  0  0  0  0  0  0  0  0  0
   27.8398  -24.5582  -15.9290 O   0  0  0  0  0  0  0  0  0  0  0  0
   26.8921  -29.4286  -18.9174 O   0  0  0  0  0  0  0  0  0  0  0  0
   28.9294  -23.4175  -17.6209 N   0  0  0  0  0  0  0  0  0  0  0  0
   28.2455  -22.1791  -17.4867 C   0  0  1  0  0  0  0  0  0  0  0  0
   28.9465  -20.9549  -17.9694 C   0  0  0  0  0  0  0  0  0  0  0  0
   28.2455  -19.6666  -17.7722 C   0  0  0  0  0  0  0  0  0  0  0  0
   29.0369  -18.4519  -18.1568 C   0  0  0  0  0  0  0  0  0  0  0  0
   28.4245  -17.1341  -17.8405 C   0  0  0  0  0  0  0  0  0  0  0  0
   29.2222  -15.9780  -18.1283 N   0  0  0  0  0  0  0  0  0  0  0  0
   26.8005  -22.2193  -17.8387 C   0  0  0  0  0  0  0  0  0  0  0  0
   26.4812  -22.5386  -18.9992 O   0  0  0  0  0  0  0  0  0  0  0  0
   19.6302  -21.7684  -12.9474 N   0  0  0  0  0  0  0  0  0  0  0  0
   19.1989  -22.6270  -14.0073 C   0  0  0  0  0  0  0  0  0  0  0  0
   17.9386  -22.8498  -14.1632 N   0  0  0  0  0  0  0  0  0  0  0  0
   20.1363  -23.2338  -14.8856 N   0  0  0  0  0  0  0  0  0  0  0  0
   21.5599  -23.0310  -14.7573 C   0  0  0  0  0  0  0  0  0  0  0  0
   22.2055  -22.5236  -15.9831 C   0  0  0  0  0  0  0  0  0  0  0  0
   23.6602  -22.3914  -16.0700 C   0  0  0  0  0  0  0  0  0  0  0  0
   24.3505  -21.8851  -17.2721 C   0  0  2  0  0  0  0  0  0  0  0  0
   25.8162  -21.9044  -16.8978 N   0  0  0  0  0  0  0  0  0  0  0  0
   24.0059  -20.5439  -17.7138 C   0  0  0  0  0  0  0  0  0  0  0  0
   24.5302  -19.4566  -17.4629 O   0  0  0  0  0  0  0  0  0  0  0  0
   22.8682  -20.4401  -18.5901 O   0  0  0  0  0  0  0  0  0  0  0  0
  2  1  1  1
  2  7  1  0
  3  2  1  0
  3  4  1  0
  4  5  1  0
  5  6  2  0
  7  8  2  0
  9  5  1  0
 10  7  1  0
 10 11  1  0
 11 17  1  0
 12 13  1  0
 11 12  1  6
 14 13  1  0
 15 14  1  0
 16 15  1  0
 17 18  2  0
 19 20  1  0
 20 21  2  0
 22 23  1  0
 22 20  1  0
 23 24  1  0
 24 25  1  0
 26 25  1  1
 26 28  1  0
 27 26  1  0
 27 17  1  0
 28 29  2  0
 28 30  1  0
M  END
$$$$
