EKR.pdb
     RDKit          3D

 30 29  0  0  1  0  0  0  0  0999 V2000
   24.8249  -22.4329  -12.5482 N   0  0  0  0  0  0  0  0  0  0  0  0
   24.6843  -20.9877  -12.4079 C   0  0  1  0  0  0  0  0  0  0  0  0
   25.2733  -20.6006  -11.0893 C   0  0  0  0  0  0  0  0  0  0  0  0
   25.1895  -21.6887  -10.0446 C   0  0  0  0  0  0  0  0  0  0  0  0
   25.7652  -21.2329   -8.7491 C   0  0  0  0  0  0  0  0  0  0  0  0
   25.7291  -21.9979   -7.7554 O   0  0  0  0  0  0  0  0  0  0  0  0
   25.2965  -20.3171  -13.5793 C   0  0  0  0  0  0  0  0  0  0  0  0
   25.3066  -19.0662  -13.6362 O   0  0  0  0  0  0  0  0  0  0  0  0
   26.3512  -19.9856   -8.5746 O   0  0  0  0  0  0  0  0  0  0  0  0
   25.8846  -21.0607  -14.6557 N   0  0  0  0  0  0  0  0  0  0  0  0
   26.4318  -20.5145  -15.8480 C   0  0  1  0  0  0  0  0  0  0  0  0
   27.1737  -21.4434  -16.7480 C   0  0  0  0  0  0  0  0  0  0  0  0
   28.1431  -22.3583  -16.1053 C   0  0  0  0  0  0  0  0  0  0  0  0
   28.8630  -23.2780  -17.0465 C   0  0  0  0  0  0  0  0  0  0  0  0
   29.8477  -24.2115  -16.4378 C   0  0  0  0  0  0  0  0  0  0  0  0
   30.4919  -25.1271  -17.3335 N   0  0  0  0  0  0  0  0  0  0  0  0
   25.5413  -19.5660  -16.5696 C   0  0  0  0  0  0  0  0  0  0  0  0
   24.4591  -19.9908  -17.0159 O   0  0  0  0  0  0  0  0  0  0  0  0
   23.1167  -11.3854  -14.8148 N   0  0  0  0  0  0  0  0  0  0  0  0
   22.3308  -12.1221  -15.7562 C   0  0  0  0  0  0  0  0  0  0  0  0
   21.0836  -11.8288  -15.9007 N   0  0  0  0  0  0  0  0  0  0  0  0
   22.9038  -13.1669  -16.5299 N   0  0  0  0  0  0  0  0  0  0  0  0
   24.2456  -13.6495  -16.3044 C   0  0  0  0  0  0  0  0  0  0  0  0
   24.6709  -14.6999  -17.2494 C   0  0  0  0  0  0  0  0  0  0  0  0
   25.2168  -15.9698  -16.7695 C   0  0  0  0  0  0  0  0  0  0  0  0
   24.9821  -17.2555  -17.4551 C   0  0  2  0  0  0  0  0  0  0  0  0
   25.9026  -18.2282  -16.7514 N   0  0  0  0  0  0  0  0  0  0  0  0
   25.2644  -17.3033  -18.8801 C   0  0  0  0  0  0  0  0  0  0  0  0
   24.5027  -17.3141  -19.8495 O   0  0  0  0  0  0  0  0  0  0  0  0
   26.6560  -17.3454  -19.2473 O   0  0  0  0  0  0  0  0  0  0  0  0
  2  1  1  6
  2  7  1  0
  3  2  1  0
  3  4  1  0
  4  5  1  0
  5  6  2  0
  7  8  2  0
  9  5  1  0
 10  7  1  0
 10 11  1  0
 11 17  1  0
 12 13  1  0
 11 12  1  6
 14 13  1  0
 15 14  1  0
 16 15  1  0
 17 18  2  0
 19 20  1  0
 20 21  2  0
 22 23  1  0
 22 20  1  0
 23 24  1  0
 24 25  1  0
 26 25  1  1
 26 28  1  0
 27 26  1  0
 27 17  1  0
 28 29  2  0
 28 30  1  0
M  END
$$$$
