EKR.pdb
     RDKit          3D

 30 29  0  0  1  0  0  0  0  0999 V2000
   23.5604  -21.0856  -16.2811 N   0  0  0  0  0  0  0  0  0  0  0  0
   23.9412  -20.3160  -15.1018 C   0  0  1  0  0  0  0  0  0  0  0  0
   24.5120  -19.0169  -15.5728 C   0  0  0  0  0  0  0  0  0  0  0  0
   25.6714  -19.1747  -16.5284 C   0  0  0  0  0  0  0  0  0  0  0  0
   26.3018  -17.8592  -16.8276 C   0  0  0  0  0  0  0  0  0  0  0  0
   25.9386  -16.8421  -16.1894 O   0  0  0  0  0  0  0  0  0  0  0  0
   22.7726  -20.1869  -14.1992 C   0  0  0  0  0  0  0  0  0  0  0  0
   22.9056  -19.6003  -13.1009 O   0  0  0  0  0  0  0  0  0  0  0  0
   27.2880  -17.6906  -17.7913 O   0  0  0  0  0  0  0  0  0  0  0  0
   21.4848  -20.7133  -14.5479 N   0  0  0  0  0  0  0  0  0  0  0  0
   20.3286  -20.7097  -13.7218 C   0  0  1  0  0  0  0  0  0  0  0  0
   19.2593  -19.7224  -14.0461 C   0  0  0  0  0  0  0  0  0  0  0  0
   19.6789  -18.3100  -14.1840 C   0  0  0  0  0  0  0  0  0  0  0  0
   18.5891  -17.3648  -14.5947 C   0  0  0  0  0  0  0  0  0  0  0  0
   18.9576  -15.9269  -14.6848 C   0  0  0  0  0  0  0  0  0  0  0  0
   17.9040  -15.0229  -15.0433 N   0  0  0  0  0  0  0  0  0  0  0  0
   19.8100  -22.0572  -13.3630 C   0  0  0  0  0  0  0  0  0  0  0  0
   19.6805  -22.9033  -14.2675 O   0  0  0  0  0  0  0  0  0  0  0  0
   18.4373  -25.2839   -5.0603 N   0  0  0  0  0  0  0  0  0  0  0  0
   17.7958  -26.2110   -5.9409 C   0  0  0  0  0  0  0  0  0  0  0  0
   17.2202  -27.2533   -5.4465 N   0  0  0  0  0  0  0  0  0  0  0  0
   17.7847  -25.9989   -7.3457 N   0  0  0  0  0  0  0  0  0  0  0  0
   18.4656  -24.8869   -7.9654 C   0  0  0  0  0  0  0  0  0  0  0  0
   18.3902  -24.8844   -9.4389 C   0  0  0  0  0  0  0  0  0  0  0  0
   18.9293  -23.7706  -10.2197 C   0  0  0  0  0  0  0  0  0  0  0  0
   18.8673  -23.7181  -11.6933 C   0  0  2  0  0  0  0  0  0  0  0  0
   19.4694  -22.3757  -12.0455 N   0  0  0  0  0  0  0  0  0  0  0  0
   17.5496  -23.8052  -12.3005 C   0  0  0  0  0  0  0  0  0  0  0  0
   16.6985  -22.9357  -12.4999 O   0  0  0  0  0  0  0  0  0  0  0  0
   17.1475  -25.1116  -12.7528 O   0  0  0  0  0  0  0  0  0  0  0  0
  2  1  1  6
  2  7  1  0
  3  2  1  0
  3  4  1  0
  4  5  1  0
  5  6  2  0
  7  8  2  0
  9  5  1  0
 10  7  1  0
 10 11  1  0
 11 17  1  0
 12 13  1  0
 11 12  1  6
 14 13  1  0
 15 14  1  0
 16 15  1  0
 17 18  2  0
 19 20  1  0
 20 21  2  0
 22 23  1  0
 22 20  1  0
 23 24  1  0
 24 25  1  0
 26 25  1  1
 26 28  1  0
 27 26  1  0
 27 17  1  0
 28 29  2  0
 28 30  1  0
M  END
$$$$
