EKR.pdb
     RDKit          3D

 30 29  0  0  1  0  0  0  0  0999 V2000
   18.5508  -15.2699  -18.9398 N   0  0  0  0  0  0  0  0  0  0  0  0
   18.5019  -15.1020  -17.4915 C   0  0  1  0  0  0  0  0  0  0  0  0
   19.4201  -16.1150  -16.8863 C   0  0  0  0  0  0  0  0  0  0  0  0
   19.0270  -17.5434  -17.1820 C   0  0  0  0  0  0  0  0  0  0  0  0
   18.2271  -18.1207  -16.0665 C   0  0  0  0  0  0  0  0  0  0  0  0
   17.3430  -18.9741  -16.3192 O   0  0  0  0  0  0  0  0  0  0  0  0
   18.8197  -13.6958  -17.1475 C   0  0  0  0  0  0  0  0  0  0  0  0
   18.8753  -13.3546  -15.9439 O   0  0  0  0  0  0  0  0  0  0  0  0
   18.4074  -17.7616  -14.7367 O   0  0  0  0  0  0  0  0  0  0  0  0
   19.0704  -12.7076  -18.1563 N   0  0  0  0  0  0  0  0  0  0  0  0
   19.2977  -11.3229  -17.9320 C   0  0  1  0  0  0  0  0  0  0  0  0
   20.0153  -10.5662  -18.9977 C   0  0  0  0  0  0  0  0  0  0  0  0
   20.4221   -9.1816  -18.6702 C   0  0  0  0  0  0  0  0  0  0  0  0
   21.1826   -8.4742  -19.7524 C   0  0  0  0  0  0  0  0  0  0  0  0
   21.6377   -7.0916  -19.4478 C   0  0  0  0  0  0  0  0  0  0  0  0
   22.4677   -6.4647  -20.4346 N   0  0  0  0  0  0  0  0  0  0  0  0
   18.1461  -10.5852  -17.3463 C   0  0  0  0  0  0  0  0  0  0  0  0
   17.0693  -10.5730  -17.9716 O   0  0  0  0  0  0  0  0  0  0  0  0
   15.0487  -10.6487  -10.3098 N   0  0  0  0  0  0  0  0  0  0  0  0
   13.7363  -10.4384  -10.8389 C   0  0  0  0  0  0  0  0  0  0  0  0
   12.7410  -10.3270  -10.0269 N   0  0  0  0  0  0  0  0  0  0  0  0
   13.5168  -10.3509  -12.2398 N   0  0  0  0  0  0  0  0  0  0  0  0
   14.4647  -10.8566  -13.2042 C   0  0  0  0  0  0  0  0  0  0  0  0
   15.3012   -9.8122  -13.8260 C   0  0  0  0  0  0  0  0  0  0  0  0
   16.2821  -10.1474  -14.8588 C   0  0  0  0  0  0  0  0  0  0  0  0
   17.1011   -9.1319  -15.5487 C   0  0  2  0  0  0  0  0  0  0  0  0
   18.2602   -9.9148  -16.1252 N   0  0  0  0  0  0  0  0  0  0  0  0
   17.6345   -8.0521  -14.7350 C   0  0  0  0  0  0  0  0  0  0  0  0
   18.7717   -7.8626  -14.2980 O   0  0  0  0  0  0  0  0  0  0  0  0
   16.7014   -7.0200  -14.3645 O   0  0  0  0  0  0  0  0  0  0  0  0
  2  1  1  6
  2  7  1  0
  3  2  1  0
  3  4  1  0
  4  5  1  0
  5  6  2  0
  7  8  2  0
  9  5  1  0
 10  7  1  0
 10 11  1  0
 11 17  1  0
 12 13  1  0
 11 12  1  6
 14 13  1  0
 15 14  1  0
 16 15  1  0
 17 18  2  0
 19 20  1  0
 20 21  2  0
 22 23  1  0
 22 20  1  0
 23 24  1  0
 24 25  1  0
 26 25  1  1
 26 28  1  0
 27 26  1  0
 27 17  1  0
 28 29  2  0
 28 30  1  0
M  END
$$$$
