EKR.pdb
     RDKit          3D

 30 29  0  0  1  0  0  0  0  0999 V2000
   28.2838  -17.7870  -19.4679 N   0  0  0  0  0  0  0  0  0  0  0  0
   27.4003  -18.9452  -19.3911 C   0  0  1  0  0  0  0  0  0  0  0  0
   28.2439  -20.1701  -19.5444 C   0  0  0  0  0  0  0  0  0  0  0  0
   29.6712  -19.9849  -19.0853 C   0  0  0  0  0  0  0  0  0  0  0  0
   30.4550  -21.2398  -19.2531 C   0  0  0  0  0  0  0  0  0  0  0  0
   31.5973  -21.1889  -19.7692 O   0  0  0  0  0  0  0  0  0  0  0  0
   26.6187  -18.8862  -18.1332 C   0  0  0  0  0  0  0  0  0  0  0  0
   27.2111  -18.6746  -17.0504 O   0  0  0  0  0  0  0  0  0  0  0  0
   29.9849  -22.4875  -18.8632 O   0  0  0  0  0  0  0  0  0  0  0  0
   25.1953  -19.0616  -18.1172 N   0  0  0  0  0  0  0  0  0  0  0  0
   24.3684  -19.0820  -16.9617 C   0  0  1  0  0  0  0  0  0  0  0  0
   22.9045  -18.8843  -17.1648 C   0  0  0  0  0  0  0  0  0  0  0  0
   22.0435  -19.0214  -15.9691 C   0  0  0  0  0  0  0  0  0  0  0  0
   20.5753  -18.8526  -16.2256 C   0  0  0  0  0  0  0  0  0  0  0  0
   19.6809  -18.9391  -15.0406 C   0  0  0  0  0  0  0  0  0  0  0  0
   18.2730  -18.8657  -15.3013 N   0  0  0  0  0  0  0  0  0  0  0  0
   24.6974  -20.1446  -15.9737 C   0  0  0  0  0  0  0  0  0  0  0  0
   24.5180  -21.3332  -16.2989 O   0  0  0  0  0  0  0  0  0  0  0  0
   27.0797  -18.9139   -7.3565 N   0  0  0  0  0  0  0  0  0  0  0  0
   26.3648  -20.1520   -7.4081 C   0  0  0  0  0  0  0  0  0  0  0  0
   26.1160  -20.7811   -6.3106 N   0  0  0  0  0  0  0  0  0  0  0  0
   25.9279  -20.6941   -8.6465 N   0  0  0  0  0  0  0  0  0  0  0  0
   25.9640  -19.9397   -9.8768 C   0  0  0  0  0  0  0  0  0  0  0  0
   25.6403  -20.7350  -11.0767 C   0  0  0  0  0  0  0  0  0  0  0  0
   25.6349  -20.1251  -12.4067 C   0  0  0  0  0  0  0  0  0  0  0  0
   25.3548  -20.8875  -13.6389 C   0  0  2  0  0  0  0  0  0  0  0  0
   25.1931  -19.8274  -14.7061 N   0  0  0  0  0  0  0  0  0  0  0  0
   24.1673  -21.7257  -13.6393 C   0  0  0  0  0  0  0  0  0  0  0  0
   22.9735  -21.4266  -13.7129 O   0  0  0  0  0  0  0  0  0  0  0  0
   24.3950  -23.1438  -13.5382 O   0  0  0  0  0  0  0  0  0  0  0  0
  2  1  1  1
  2  7  1  0
  3  2  1  0
  3  4  1  0
  4  5  1  0
  5  6  2  0
  7  8  2  0
  9  5  1  0
 10  7  1  0
 10 11  1  0
 11 17  1  0
 12 13  1  0
 11 12  1  6
 14 13  1  0
 15 14  1  0
 16 15  1  0
 17 18  2  0
 19 20  1  0
 20 21  2  0
 22 23  1  0
 22 20  1  0
 23 24  1  0
 24 25  1  0
 26 25  1  1
 26 28  1  0
 27 26  1  0
 27 17  1  0
 28 29  2  0
 28 30  1  0
M  END
$$$$
