WSI.pdb
     RDKit          3D

 29 30  0  0  1  0  0  0  0  0999 V2000
   27.0296  -22.0027  -14.8220 N   0  0  0  0  0  0  0  0  0  0  0  0
   26.5738  -21.5882  -13.4701 C   0  0  1  0  0  0  0  0  0  0  0  0
   27.2930  -20.3170  -13.2001 C   0  0  0  0  0  0  0  0  0  0  0  0
   28.1507  -20.3440  -12.0172 C   0  0  0  0  0  0  0  0  0  0  0  0
   29.5369  -20.2540  -12.0999 C   0  0  0  0  0  0  0  0  0  0  0  0
   30.0355  -20.3335  -10.8766 N   0  0  0  0  0  0  0  0  0  0  0  0
   29.0525  -20.4724   -9.9708 C   0  0  0  0  0  0  0  0  0  0  0  0
   29.0488  -20.5837   -8.5885 C   0  0  0  0  0  0  0  0  0  0  0  0
   27.8482  -20.7003   -7.9298 C   0  0  0  0  0  0  0  0  0  0  0  0
   26.6810  -20.7044   -8.6510 C   0  0  0  0  0  0  0  0  0  0  0  0
   26.6517  -20.5973  -10.0098 C   0  0  0  0  0  0  0  0  0  0  0  0
   27.8618  -20.4794  -10.6840 C   0  0  0  0  0  0  0  0  0  0  0  0
   25.1103  -21.5292  -13.5574 C   0  0  0  0  0  0  0  0  0  0  0  0
   24.5775  -21.4088  -14.6863 O   0  0  0  0  0  0  0  0  0  0  0  0
   22.4605  -20.7196  -10.4104 O   0  0  0  0  0  0  0  0  0  0  0  0
   22.1537  -21.7555  -11.2621 C   0  0  0  0  0  0  0  0  0  0  0  0
   22.7770  -21.6263  -12.6348 C   0  0  2  0  0  0  0  0  0  0  0  0
   24.2272  -21.5985  -12.4437 N   0  0  0  0  0  0  0  0  0  0  0  0
   22.3008  -20.3411  -13.2172 C   0  0  0  0  0  0  0  0  0  0  0  0
   23.1390  -19.4157  -13.3553 O   0  0  0  0  0  0  0  0  0  0  0  0
   21.1609  -17.6800  -17.9050 C   0  0  0  0  0  0  0  0  0  0  0  0
   20.5298  -17.7483  -16.5322 C   0  0  0  0  0  0  0  0  0  0  0  0
   21.1713  -18.8899  -15.7477 C   0  0  2  0  0  0  0  0  0  0  0  0
   20.7934  -20.1733  -16.4553 C   0  0  0  0  0  0  0  0  0  0  0  0
   20.5449  -18.9384  -14.3673 C   0  0  2  0  0  0  0  0  0  0  0  0
   20.9686  -20.1007  -13.6230 N   0  0  0  0  0  0  0  0  0  0  0  0
   19.0804  -19.0006  -14.5448 C   0  0  0  0  0  0  0  0  0  0  0  0
   18.5106  -20.0911  -14.7611 O   0  0  0  0  0  0  0  0  0  0  0  0
   18.3519  -17.8266  -14.4667 O   0  0  0  0  0  0  0  0  0  0  0  0
  2  1  1  6
  2 13  1  0
  3  2  1  0
  4  3  1  0
  4 12  1  0
  5  6  1  0
  5  4  2  0
  6  7  1  0
  7  8  1  0
  7 12  2  0
  8  9  2  0
  9 10  1  0
 11 10  2  0
 12 11  1  0
 13 14  2  0
 15 16  1  0
 17 16  1  1
 18 13  1  0
 18 17  1  0
 19 17  1  0
 19 20  2  0
 21 22  1  0
 23 22  1  0
 23 25  1  0
 23 24  1  6
 25 26  1  6
 26 19  1  0
 27 25  1  0
 28 27  2  0
 29 27  1  0
M  END
$$$$
