WSI.pdb
     RDKit          3D

 29 30  0  0  1  0  0  0  0  0999 V2000
   22.7753  -21.8244   -5.1311 N   0  0  0  0  0  0  0  0  0  0  0  0
   23.1705  -20.9625   -3.9875 C   0  0  1  0  0  0  0  0  0  0  0  0
   23.8929  -19.8207   -4.6044 C   0  0  0  0  0  0  0  0  0  0  0  0
   25.2101  -20.1545   -5.1420 C   0  0  0  0  0  0  0  0  0  0  0  0
   25.3741  -20.9593   -6.2653 C   0  0  0  0  0  0  0  0  0  0  0  0
   26.6700  -21.1035   -6.4917 N   0  0  0  0  0  0  0  0  0  0  0  0
   27.3898  -20.4341   -5.5753 C   0  0  0  0  0  0  0  0  0  0  0  0
   28.7526  -20.2622   -5.3842 C   0  0  0  0  0  0  0  0  0  0  0  0
   29.1889  -19.4866   -4.3369 C   0  0  0  0  0  0  0  0  0  0  0  0
   28.2700  -18.8999   -3.5039 C   0  0  0  0  0  0  0  0  0  0  0  0
   26.9246  -19.0501   -3.6650 C   0  0  0  0  0  0  0  0  0  0  0  0
   26.4749  -19.8336   -4.7218 C   0  0  0  0  0  0  0  0  0  0  0  0
   21.9209  -20.6655   -3.2781 C   0  0  0  0  0  0  0  0  0  0  0  0
   20.8787  -20.4698   -3.9477 O   0  0  0  0  0  0  0  0  0  0  0  0
   18.6701  -21.0112   -0.0285 O   0  0  0  0  0  0  0  0  0  0  0  0
   19.8540  -21.3060   -0.6643 C   0  0  0  0  0  0  0  0  0  0  0  0
   20.5530  -20.0987   -1.2501 C   0  0  2  0  0  0  0  0  0  0  0  0
   21.7913  -20.5790   -1.8636 N   0  0  0  0  0  0  0  0  0  0  0  0
   20.8519  -19.1713   -0.1239 C   0  0  0  0  0  0  0  0  0  0  0  0
   21.8834  -19.3931    0.5579 O   0  0  0  0  0  0  0  0  0  0  0  0
   22.3175  -14.3719   -0.2064 C   0  0  0  0  0  0  0  0  0  0  0  0
   21.9820  -15.7834    0.2208 C   0  0  0  0  0  0  0  0  0  0  0  0
   20.6256  -15.7805    0.9211 C   0  0  2  0  0  0  0  0  0  0  0  0
   20.7854  -14.9563    2.1803 C   0  0  0  0  0  0  0  0  0  0  0  0
   20.3022  -17.1983    1.3520 C   0  0  2  0  0  0  0  0  0  0  0  0
   20.0491  -18.0610    0.2224 N   0  0  0  0  0  0  0  0  0  0  0  0
   19.0846  -17.1436    2.1854 C   0  0  0  0  0  0  0  0  0  0  0  0
   17.9814  -17.5078    1.7262 O   0  0  0  0  0  0  0  0  0  0  0  0
   19.1902  -16.6808    3.4853 O   0  0  0  0  0  0  0  0  0  0  0  0
  2  1  1  6
  2 13  1  0
  3  2  1  0
  4  3  1  0
  4 12  1  0
  5  6  1  0
  5  4  2  0
  6  7  1  0
  7  8  1  0
  7 12  2  0
  8  9  2  0
  9 10  1  0
 11 10  2  0
 12 11  1  0
 13 14  2  0
 15 16  1  0
 17 16  1  1
 18 13  1  0
 18 17  1  0
 19 17  1  0
 19 20  2  0
 21 22  1  0
 23 22  1  0
 23 25  1  0
 23 24  1  1
 25 26  1  6
 26 19  1  0
 27 25  1  0
 28 27  2  0
 29 27  1  0
M  END
$$$$
