WSI.pdb
     RDKit          3D

 29 30  0  0  1  0  0  0  0  0999 V2000
   26.7074  -19.2387  -10.6416 N   0  0  0  0  0  0  0  0  0  0  0  0
   26.5091  -20.6929  -10.8723 C   0  0  1  0  0  0  0  0  0  0  0  0
   26.0562  -21.2268   -9.5623 C   0  0  0  0  0  0  0  0  0  0  0  0
   26.6112  -20.5360   -8.4003 C   0  0  0  0  0  0  0  0  0  0  0  0
   25.9199  -19.5309   -7.7307 C   0  0  0  0  0  0  0  0  0  0  0  0
   26.6827  -19.0814   -6.7472 N   0  0  0  0  0  0  0  0  0  0  0  0
   27.8565  -19.7352   -6.7194 C   0  0  0  0  0  0  0  0  0  0  0  0
   28.9680  -19.6488   -5.8946 C   0  0  0  0  0  0  0  0  0  0  0  0
   30.0340  -20.4870   -6.1183 C   0  0  0  0  0  0  0  0  0  0  0  0
   29.9772  -21.3895   -7.1502 C   0  0  0  0  0  0  0  0  0  0  0  0
   28.8996  -21.4982   -7.9783 C   0  0  0  0  0  0  0  0  0  0  0  0
   27.8172  -20.6537   -7.7592 C   0  0  0  0  0  0  0  0  0  0  0  0
   25.5708  -20.7810  -11.9968 C   0  0  0  0  0  0  0  0  0  0  0  0
   24.5290  -20.0833  -11.9696 O   0  0  0  0  0  0  0  0  0  0  0  0
   25.8433  -23.6410  -15.0754 O   0  0  0  0  0  0  0  0  0  0  0  0
   25.3463  -22.3910  -15.3640 C   0  0  0  0  0  0  0  0  0  0  0  0
   24.7210  -21.6905  -14.1776 C   0  0  2  0  0  0  0  0  0  0  0  0
   25.7488  -21.6102  -13.1395 N   0  0  0  0  0  0  0  0  0  0  0  0
   23.5792  -22.5299  -13.7200 C   0  0  0  0  0  0  0  0  0  0  0  0
   23.8045  -23.3895  -12.8321 O   0  0  0  0  0  0  0  0  0  0  0  0
   18.3494  -22.7587  -11.2511 C   0  0  0  0  0  0  0  0  0  0  0  0
   19.1114  -23.3868  -12.3966 C   0  0  0  0  0  0  0  0  0  0  0  0
   20.3443  -22.5382  -12.6965 C   0  0  2  0  0  0  0  0  0  0  0  0
   19.8458  -21.2325  -13.2771 C   0  0  0  0  0  0  0  0  0  0  0  0
   21.1539  -23.2288  -13.7772 C   0  0  2  0  0  0  0  0  0  0  0  0
   22.2627  -22.4181  -14.2218 N   0  0  0  0  0  0  0  0  0  0  0  0
   20.2547  -23.4669  -14.9238 C   0  0  0  0  0  0  0  0  0  0  0  0
   20.2295  -22.6742  -15.8890 O   0  0  0  0  0  0  0  0  0  0  0  0
   19.4405  -24.5857  -14.9076 O   0  0  0  0  0  0  0  0  0  0  0  0
  2  1  1  1
  2 13  1  0
  3  2  1  0
  4  3  1  0
  4 12  1  0
  5  6  1  0
  5  4  2  0
  6  7  1  0
  7  8  1  0
  7 12  2  0
  8  9  2  0
  9 10  1  0
 11 10  2  0
 12 11  1  0
 13 14  2  0
 15 16  1  0
 17 16  1  6
 18 13  1  0
 18 17  1  0
 19 17  1  0
 19 20  2  0
 21 22  1  0
 23 22  1  0
 23 25  1  0
 23 24  1  6
 25 26  1  6
 26 19  1  0
 27 25  1  0
 28 27  2  0
 29 27  1  0
M  END
$$$$
