WSI.pdb
     RDKit          3D

 29 30  0  0  1  0  0  0  0  0999 V2000
   25.0457  -19.5603  -11.4888 N   0  0  0  0  0  0  0  0  0  0  0  0
   25.4457  -20.9751  -11.7014 C   0  0  1  0  0  0  0  0  0  0  0  0
   25.4937  -21.5650  -10.3391 C   0  0  0  0  0  0  0  0  0  0  0  0
   26.4976  -20.9742   -9.4566 C   0  0  0  0  0  0  0  0  0  0  0  0
   26.1567  -20.1661   -8.3762 C   0  0  0  0  0  0  0  0  0  0  0  0
   27.2709  -19.7616   -7.7877 N   0  0  0  0  0  0  0  0  0  0  0  0
   28.3487  -20.2583   -8.4183 C   0  0  0  0  0  0  0  0  0  0  0  0
   29.7124  -20.1446   -8.1930 C   0  0  0  0  0  0  0  0  0  0  0  0
   30.5855  -20.8019   -9.0264 C   0  0  0  0  0  0  0  0  0  0  0  0
   30.0917  -21.5549  -10.0616 C   0  0  0  0  0  0  0  0  0  0  0  0
   28.7575  -21.6859  -10.3093 C   0  0  0  0  0  0  0  0  0  0  0  0
   27.8675  -21.0238   -9.4712 C   0  0  0  0  0  0  0  0  0  0  0  0
   24.4553  -21.5198  -12.6372 C   0  0  0  0  0  0  0  0  0  0  0  0
   23.3479  -20.9418  -12.7478 O   0  0  0  0  0  0  0  0  0  0  0  0
   24.7366  -21.4983  -15.8132 O   0  0  0  0  0  0  0  0  0  0  0  0
   23.5262  -22.0501  -15.4621 C   0  0  0  0  0  0  0  0  0  0  0  0
   23.6246  -23.1137  -14.3905 C   0  0  2  0  0  0  0  0  0  0  0  0
   24.6518  -22.6738  -13.4462 N   0  0  0  0  0  0  0  0  0  0  0  0
   24.0358  -24.3789  -15.0598 C   0  0  0  0  0  0  0  0  0  0  0  0
   24.4978  -24.3002  -16.2253 O   0  0  0  0  0  0  0  0  0  0  0  0
   19.5721  -25.0669  -13.7672 C   0  0  0  0  0  0  0  0  0  0  0  0
   20.8873  -25.2035  -14.5015 C   0  0  0  0  0  0  0  0  0  0  0  0
   21.6596  -26.3848  -13.9199 C   0  0  2  0  0  0  0  0  0  0  0  0
   22.1276  -25.9661  -12.5429 C   0  0  0  0  0  0  0  0  0  0  0  0
   22.8989  -26.6134  -14.7638 C   0  0  2  0  0  0  0  0  0  0  0  0
   23.9387  -25.6574  -14.4654 N   0  0  0  0  0  0  0  0  0  0  0  0
   22.5085  -26.4587  -16.1793 C   0  0  0  0  0  0  0  0  0  0  0  0
   21.7444  -27.2838  -16.7233 O   0  0  0  0  0  0  0  0  0  0  0  0
   23.0064  -25.3814  -16.8912 O   0  0  0  0  0  0  0  0  0  0  0  0
  2  1  1  1
  2 13  1  0
  3  2  1  0
  4  3  1  0
  4 12  1  0
  5  6  1  0
  5  4  2  0
  6  7  1  0
  7  8  1  0
  7 12  2  0
  8  9  2  0
  9 10  1  0
 11 10  2  0
 12 11  1  0
 13 14  2  0
 15 16  1  0
 17 16  1  6
 18 13  1  0
 18 17  1  0
 19 17  1  0
 19 20  2  0
 21 22  1  0
 23 22  1  0
 23 25  1  0
 23 24  1  1
 25 26  1  1
 26 19  1  0
 27 25  1  0
 28 27  2  0
 29 27  1  0
M  END
$$$$
