WSI.pdb
     RDKit          3D

 29 30  0  0  1  0  0  0  0  0999 V2000
   20.8104  -19.9773  -15.8788 N   0  0  0  0  0  0  0  0  0  0  0  0
   22.1921  -20.4782  -15.6622 C   0  0  1  0  0  0  0  0  0  0  0  0
   22.9086  -20.1752  -16.9276 C   0  0  0  0  0  0  0  0  0  0  0  0
   22.4728  -20.9661  -18.0766 C   0  0  0  0  0  0  0  0  0  0  0  0
   22.1779  -20.3902  -19.3086 C   0  0  0  0  0  0  0  0  0  0  0  0
   21.7880  -21.3469  -20.1356 N   0  0  0  0  0  0  0  0  0  0  0  0
   21.8059  -22.5423  -19.5216 C   0  0  0  0  0  0  0  0  0  0  0  0
   21.5054  -23.8280  -19.9456 C   0  0  0  0  0  0  0  0  0  0  0  0
   21.6408  -24.8726  -19.0628 C   0  0  0  0  0  0  0  0  0  0  0  0
   22.0692  -24.6228  -17.7835 C   0  0  0  0  0  0  0  0  0  0  0  0
   22.3718  -23.3709  -17.3367 C   0  0  0  0  0  0  0  0  0  0  0  0
   22.2370  -22.3085  -18.2232 C   0  0  0  0  0  0  0  0  0  0  0  0
   22.6602  -19.8057  -14.4450 C   0  0  0  0  0  0  0  0  0  0  0  0
   22.7282  -18.5535  -14.4355 O   0  0  0  0  0  0  0  0  0  0  0  0
   21.2884  -20.2715  -11.1441 O   0  0  0  0  0  0  0  0  0  0  0  0
   22.1905  -19.2590  -11.3763 C   0  0  0  0  0  0  0  0  0  0  0  0
   23.4583  -19.7130  -12.0660 C   0  0  2  0  0  0  0  0  0  0  0  0
   23.0518  -20.4710  -13.2495 N   0  0  0  0  0  0  0  0  0  0  0  0
   24.1924  -20.5880  -11.1104 C   0  0  0  0  0  0  0  0  0  0  0  0
   23.9533  -21.8208  -11.1447 O   0  0  0  0  0  0  0  0  0  0  0  0
   28.9357  -19.1787   -8.4206 C   0  0  0  0  0  0  0  0  0  0  0  0
   27.8914  -20.0003   -9.1429 C   0  0  0  0  0  0  0  0  0  0  0  0
   26.6620  -20.1369   -8.2484 C   0  0  2  0  0  0  0  0  0  0  0  0
   27.0611  -21.0241   -7.0891 C   0  0  0  0  0  0  0  0  0  0  0  0
   25.5819  -20.8689   -9.0215 C   0  0  2  0  0  0  0  0  0  0  0  0
   25.1382  -20.1176  -10.1717 N   0  0  0  0  0  0  0  0  0  0  0  0
   24.4346  -21.0595   -8.1119 C   0  0  0  0  0  0  0  0  0  0  0  0
   23.5738  -20.1643   -7.9759 O   0  0  0  0  0  0  0  0  0  0  0  0
   24.3320  -22.2495   -7.4130 O   0  0  0  0  0  0  0  0  0  0  0  0
  2  1  1  6
  2 13  1  0
  3  2  1  0
  4  3  1  0
  4 12  1  0
  5  6  1  0
  5  4  2  0
  6  7  1  0
  7  8  1  0
  7 12  2  0
  8  9  2  0
  9 10  1  0
 11 10  2  0
 12 11  1  0
 13 14  2  0
 15 16  1  0
 17 16  1  1
 18 13  1  0
 18 17  1  0
 19 17  1  0
 19 20  2  0
 21 22  1  0
 23 22  1  0
 23 25  1  0
 23 24  1  1
 25 26  1  6
 26 19  1  0
 27 25  1  0
 28 27  2  0
 29 27  1  0
M  END
$$$$
