WSI.pdb
     RDKit          3D

 29 30  0  0  1  0  0  0  0  0999 V2000
   27.7646  -21.9635  -14.5800 N   0  0  0  0  0  0  0  0  0  0  0  0
   26.7182  -21.9606  -13.5255 C   0  0  1  0  0  0  0  0  0  0  0  0
   26.8546  -20.6403  -12.8589 C   0  0  0  0  0  0  0  0  0  0  0  0
   27.7961  -20.6187  -11.7414 C   0  0  0  0  0  0  0  0  0  0  0  0
   29.1492  -20.3428  -11.9126 C   0  0  0  0  0  0  0  0  0  0  0  0
   29.7453  -20.4226  -10.7338 N   0  0  0  0  0  0  0  0  0  0  0  0
   28.8596  -20.7385   -9.7737 C   0  0  0  0  0  0  0  0  0  0  0  0
   28.9751  -20.9244   -8.4043 C   0  0  0  0  0  0  0  0  0  0  0  0
   27.8526  -21.2334   -7.6739 C   0  0  0  0  0  0  0  0  0  0  0  0
   26.6441  -21.3517   -8.3127 C   0  0  0  0  0  0  0  0  0  0  0  0
   26.4982  -21.1757   -9.6566 C   0  0  0  0  0  0  0  0  0  0  0  0
   27.6288  -20.8632  -10.4029 C   0  0  0  0  0  0  0  0  0  0  0  0
   25.4600  -22.2334  -14.2295 C   0  0  0  0  0  0  0  0  0  0  0  0
   25.1576  -21.5271  -15.2207 O   0  0  0  0  0  0  0  0  0  0  0  0
   21.2779  -24.7787  -14.4743 O   0  0  0  0  0  0  0  0  0  0  0  0
   22.5584  -24.5941  -14.0066 C   0  0  0  0  0  0  0  0  0  0  0  0
   23.2083  -23.3147  -14.4862 C   0  0  2  0  0  0  0  0  0  0  0  0
   24.5352  -23.2544  -13.8728 N   0  0  0  0  0  0  0  0  0  0  0  0
   22.3613  -22.1846  -14.0139 C   0  0  0  0  0  0  0  0  0  0  0  0
   22.4683  -21.8365  -12.8116 O   0  0  0  0  0  0  0  0  0  0  0  0
   22.4940  -17.6022  -16.0582 C   0  0  0  0  0  0  0  0  0  0  0  0
   22.2029  -18.6487  -15.0057 C   0  0  0  0  0  0  0  0  0  0  0  0
   20.7727  -19.1503  -15.1873 C   0  0  2  0  0  0  0  0  0  0  0  0
   19.8617  -18.0996  -14.5902 C   0  0  0  0  0  0  0  0  0  0  0  0
   20.5968  -20.4139  -14.3671 C   0  0  2  0  0  0  0  0  0  0  0  0
   21.4485  -21.4825  -14.8331 N   0  0  0  0  0  0  0  0  0  0  0  0
   19.1896  -20.8400  -14.5017 C   0  0  0  0  0  0  0  0  0  0  0  0
   18.8129  -21.4876  -15.5014 O   0  0  0  0  0  0  0  0  0  0  0  0
   18.2965  -20.5075  -13.4983 O   0  0  0  0  0  0  0  0  0  0  0  0
  2  1  1  6
  2 13  1  0
  3  2  1  0
  4  3  1  0
  4 12  1  0
  5  6  1  0
  5  4  2  0
  6  7  1  0
  7  8  1  0
  7 12  2  0
  8  9  2  0
  9 10  1  0
 11 10  2  0
 12 11  1  0
 13 14  2  0
 15 16  1  0
 17 16  1  1
 18 13  1  0
 18 17  1  0
 19 17  1  0
 19 20  2  0
 21 22  1  0
 23 22  1  0
 23 25  1  0
 23 24  1  1
 25 26  1  6
 26 19  1  0
 27 25  1  0
 28 27  2  0
 29 27  1  0
M  END
$$$$
