WSI.pdb
     RDKit          3D

 29 30  0  0  1  0  0  0  0  0999 V2000
   16.4863  -28.6247   -9.7046 N   0  0  0  0  0  0  0  0  0  0  0  0
   15.9539  -27.4569   -8.9566 C   0  0  1  0  0  0  0  0  0  0  0  0
   14.4810  -27.6484   -8.9518 C   0  0  0  0  0  0  0  0  0  0  0  0
   13.8190  -27.2984  -10.2068 C   0  0  0  0  0  0  0  0  0  0  0  0
   14.2185  -26.2146  -10.9828 C   0  0  0  0  0  0  0  0  0  0  0  0
   13.4197  -26.1356  -12.0349 N   0  0  0  0  0  0  0  0  0  0  0  0
   12.4996  -27.1148  -12.0076 C   0  0  0  0  0  0  0  0  0  0  0  0
   11.4676  -27.4671  -12.8642 C   0  0  0  0  0  0  0  0  0  0  0  0
   10.6896  -28.5588  -12.5612 C   0  0  0  0  0  0  0  0  0  0  0  0
   10.9488  -29.2757  -11.4204 C   0  0  0  0  0  0  0  0  0  0  0  0
   11.9550  -28.9545  -10.5585 C   0  0  0  0  0  0  0  0  0  0  0  0
   12.7465  -27.8513  -10.8574 C   0  0  0  0  0  0  0  0  0  0  0  0
   16.6411  -27.4827   -7.6604 C   0  0  0  0  0  0  0  0  0  0  0  0
   16.9658  -28.5911   -7.1715 O   0  0  0  0  0  0  0  0  0  0  0  0
   17.1675  -24.1025   -5.5153 O   0  0  0  0  0  0  0  0  0  0  0  0
   18.1418  -25.0383   -5.2552 C   0  0  0  0  0  0  0  0  0  0  0  0
   17.7690  -26.4442   -5.6718 C   0  0  2  0  0  0  0  0  0  0  0  0
   16.9763  -26.3301   -6.8962 N   0  0  0  0  0  0  0  0  0  0  0  0
   16.9527  -27.0293   -4.5722 C   0  0  0  0  0  0  0  0  0  0  0  0
   15.7040  -27.0323   -4.7091 O   0  0  0  0  0  0  0  0  0  0  0  0
   18.3193  -31.4400   -1.6713 C   0  0  0  0  0  0  0  0  0  0  0  0
   17.5643  -30.3605   -2.4142 C   0  0  0  0  0  0  0  0  0  0  0  0
   17.4101  -29.1460   -1.5023 C   0  0  2  0  0  0  0  0  0  0  0  0
   16.4895  -29.5601   -0.3746 C   0  0  0  0  0  0  0  0  0  0  0  0
   16.7051  -28.0484   -2.2758 C   0  0  2  0  0  0  0  0  0  0  0  0
   17.4957  -27.5797   -3.3892 N   0  0  0  0  0  0  0  0  0  0  0  0
   16.4834  -26.9215   -1.3479 C   0  0  0  0  0  0  0  0  0  0  0  0
   15.3985  -26.8005   -0.7404 O   0  0  0  0  0  0  0  0  0  0  0  0
   17.5015  -26.0022   -1.1648 O   0  0  0  0  0  0  0  0  0  0  0  0
  2  1  1  6
  2 13  1  0
  3  2  1  0
  4  3  1  0
  4 12  1  0
  5  6  1  0
  5  4  2  0
  6  7  1  0
  7  8  1  0
  7 12  2  0
  8  9  2  0
  9 10  1  0
 11 10  2  0
 12 11  1  0
 13 14  2  0
 15 16  1  0
 17 16  1  1
 18 13  1  0
 18 17  1  0
 19 17  1  0
 19 20  2  0
 21 22  1  0
 23 22  1  0
 23 25  1  0
 23 24  1  1
 25 26  1  6
 26 19  1  0
 27 25  1  0
 28 27  2  0
 29 27  1  0
M  END
$$$$
