WSI.pdb
     RDKit          3D

 29 30  0  0  1  0  0  0  0  0999 V2000
   26.3706  -22.3465  -12.9333 N   0  0  0  0  0  0  0  0  0  0  0  0
   25.6058  -21.5174  -11.9665 C   0  0  1  0  0  0  0  0  0  0  0  0
   26.4013  -20.2714  -11.8221 C   0  0  0  0  0  0  0  0  0  0  0  0
   27.4883  -20.3543  -10.8490 C   0  0  0  0  0  0  0  0  0  0  0  0
   28.8175  -20.5150  -11.2286 C   0  0  0  0  0  0  0  0  0  0  0  0
   29.5600  -20.5835  -10.1354 N   0  0  0  0  0  0  0  0  0  0  0  0
   28.7963  -20.4761   -9.0347 C   0  0  0  0  0  0  0  0  0  0  0  0
   29.0864  -20.4752   -7.6786 C   0  0  0  0  0  0  0  0  0  0  0  0
   28.0613  -20.3275   -6.7751 C   0  0  0  0  0  0  0  0  0  0  0  0
   26.7754  -20.1845   -7.2319 C   0  0  0  0  0  0  0  0  0  0  0  0
   26.4582  -20.1818   -8.5577 C   0  0  0  0  0  0  0  0  0  0  0  0
   27.4893  -20.3311   -9.4783 C   0  0  0  0  0  0  0  0  0  0  0  0
   24.2612  -21.3958  -12.5414 C   0  0  0  0  0  0  0  0  0  0  0  0
   24.1212  -21.5230  -13.7811 O   0  0  0  0  0  0  0  0  0  0  0  0
   20.9100  -19.9893  -10.5062 O   0  0  0  0  0  0  0  0  0  0  0  0
   20.7348  -21.0852  -11.3192 C   0  0  0  0  0  0  0  0  0  0  0  0
   21.7607  -21.1987  -12.4255 C   0  0  2  0  0  0  0  0  0  0  0  0
   23.0785  -21.1399  -11.7927 N   0  0  0  0  0  0  0  0  0  0  0  0
   21.5631  -20.0344  -13.3327 C   0  0  0  0  0  0  0  0  0  0  0  0
   22.1785  -18.9727  -13.0639 O   0  0  0  0  0  0  0  0  0  0  0  0
   22.3156  -20.2931  -18.4235 C   0  0  0  0  0  0  0  0  0  0  0  0
   22.1703  -19.7261  -17.0289 C   0  0  0  0  0  0  0  0  0  0  0  0
   20.7181  -19.3088  -16.8121 C   0  0  2  0  0  0  0  0  0  0  0  0
   20.4950  -18.0581  -17.6347 C   0  0  0  0  0  0  0  0  0  0  0  0
   20.5387  -18.9249  -15.3559 C   0  0  2  0  0  0  0  0  0  0  0  0
   20.7290  -20.0516  -14.4735 N   0  0  0  0  0  0  0  0  0  0  0  0
   19.1583  -18.4268  -15.1933 C   0  0  0  0  0  0  0  0  0  0  0  0
   18.1920  -19.2185  -15.1867 O   0  0  0  0  0  0  0  0  0  0  0  0
   18.9566  -17.0654  -15.0485 O   0  0  0  0  0  0  0  0  0  0  0  0
  2  1  1  6
  2 13  1  0
  3  2  1  0
  4  3  1  0
  4 12  1  0
  5  6  1  0
  5  4  2  0
  6  7  1  0
  7  8  1  0
  7 12  2  0
  8  9  2  0
  9 10  1  0
 11 10  2  0
 12 11  1  0
 13 14  2  0
 15 16  1  0
 17 16  1  1
 18 13  1  0
 18 17  1  0
 19 17  1  0
 19 20  2  0
 21 22  1  0
 23 22  1  0
 23 25  1  0
 23 24  1  6
 25 26  1  1
 26 19  1  0
 27 25  1  0
 28 27  2  0
 29 27  1  0
M  END
$$$$
