WSI.pdb
     RDKit          3D

 29 30  0  0  1  0  0  0  0  0999 V2000
   26.7006  -20.0426  -12.0239 N   0  0  0  0  0  0  0  0  0  0  0  0
   26.1565  -21.3952  -11.7384 C   0  0  1  0  0  0  0  0  0  0  0  0
   25.5815  -21.2928  -10.3728 C   0  0  0  0  0  0  0  0  0  0  0  0
   26.5414  -20.9192   -9.3361 C   0  0  0  0  0  0  0  0  0  0  0  0
   26.1681  -20.2204   -8.1921 C   0  0  0  0  0  0  0  0  0  0  0  0
   27.2499  -20.0056   -7.4608 N   0  0  0  0  0  0  0  0  0  0  0  0
   28.3367  -20.5266   -8.0555 C   0  0  0  0  0  0  0  0  0  0  0  0
   29.6760  -20.5791   -7.6995 C   0  0  0  0  0  0  0  0  0  0  0  0
   30.5656  -21.2131   -8.5335 C   0  0  0  0  0  0  0  0  0  0  0  0
   30.1121  -21.7792   -9.6980 C   0  0  0  0  0  0  0  0  0  0  0  0
   28.8027  -21.7439  -10.0759 C   0  0  0  0  0  0  0  0  0  0  0  0
   27.8962  -21.1041   -9.2381 C   0  0  0  0  0  0  0  0  0  0  0  0
   25.2301  -21.6791  -12.8403 C   0  0  0  0  0  0  0  0  0  0  0  0
   24.7246  -20.7174  -13.4667 O   0  0  0  0  0  0  0  0  0  0  0  0
   25.2356  -25.1067  -15.1540 O   0  0  0  0  0  0  0  0  0  0  0  0
   24.0007  -24.6454  -14.7605 C   0  0  0  0  0  0  0  0  0  0  0  0
   23.9755  -23.1705  -14.4236 C   0  0  2  0  0  0  0  0  0  0  0  0
   24.8497  -22.9827  -13.2655 N   0  0  0  0  0  0  0  0  0  0  0  0
   22.5695  -22.8194  -14.0807 C   0  0  0  0  0  0  0  0  0  0  0  0
   22.1844  -23.0311  -12.9039 O   0  0  0  0  0  0  0  0  0  0  0  0
   20.2879  -18.2509  -15.6591 C   0  0  0  0  0  0  0  0  0  0  0  0
   20.6756  -19.4938  -14.8895 C   0  0  0  0  0  0  0  0  0  0  0  0
   19.8252  -20.6642  -15.3767 C   0  0  2  0  0  0  0  0  0  0  0  0
   18.4056  -20.3891  -14.9298 C   0  0  0  0  0  0  0  0  0  0  0  0
   20.2830  -21.9225  -14.6645 C   0  0  2  0  0  0  0  0  0  0  0  0
   21.6462  -22.2640  -14.9952 N   0  0  0  0  0  0  0  0  0  0  0  0
   19.4023  -23.0253  -15.0984 C   0  0  0  0  0  0  0  0  0  0  0  0
   19.5982  -23.6064  -16.1867 O   0  0  0  0  0  0  0  0  0  0  0  0
   18.3556  -23.4020  -14.2752 O   0  0  0  0  0  0  0  0  0  0  0  0
  2  1  1  6
  2 13  1  0
  3  2  1  0
  4  3  1  0
  4 12  1  0
  5  6  1  0
  5  4  2  0
  6  7  1  0
  7  8  1  0
  7 12  2  0
  8  9  2  0
  9 10  1  0
 11 10  2  0
 12 11  1  0
 13 14  2  0
 15 16  1  0
 17 16  1  1
 18 13  1  0
 18 17  1  0
 19 17  1  0
 19 20  2  0
 21 22  1  0
 23 22  1  0
 23 25  1  0
 23 24  1  1
 25 26  1  6
 26 19  1  0
 27 25  1  0
 28 27  2  0
 29 27  1  0
M  END
$$$$
