WSI.pdb
     RDKit          3D

 29 30  0  0  1  0  0  0  0  0999 V2000
   24.9865  -21.3772  -14.6358 N   0  0  0  0  0  0  0  0  0  0  0  0
   24.4893  -21.2341  -13.2432 C   0  0  1  0  0  0  0  0  0  0  0  0
   23.3009  -22.1223  -13.1712 C   0  0  0  0  0  0  0  0  0  0  0  0
   22.0473  -21.4358  -12.8666 C   0  0  0  0  0  0  0  0  0  0  0  0
   20.9725  -21.4206  -13.7504 C   0  0  0  0  0  0  0  0  0  0  0  0
   19.9987  -20.7035  -13.2132 N   0  0  0  0  0  0  0  0  0  0  0  0
   20.3635  -20.2337  -12.0081 C   0  0  0  0  0  0  0  0  0  0  0  0
   19.7140  -19.4595  -11.0585 C   0  0  0  0  0  0  0  0  0  0  0  0
   20.3645  -19.1511   -9.8877 C   0  0  0  0  0  0  0  0  0  0  0  0
   21.6398  -19.6140   -9.6830 C   0  0  0  0  0  0  0  0  0  0  0  0
   22.3049  -20.3762  -10.5969 C   0  0  0  0  0  0  0  0  0  0  0  0
   21.6542  -20.6923  -11.7841 C   0  0  0  0  0  0  0  0  0  0  0  0
   25.6339  -21.5690  -12.3883 C   0  0  0  0  0  0  0  0  0  0  0  0
   26.2032  -22.6749  -12.5481 O   0  0  0  0  0  0  0  0  0  0  0  0
   28.3319  -19.1405  -11.3323 O   0  0  0  0  0  0  0  0  0  0  0  0
   28.5172  -20.4722  -11.0409 C   0  0  0  0  0  0  0  0  0  0  0  0
   27.2741  -21.1672  -10.5301 C   0  0  2  0  0  0  0  0  0  0  0  0
   26.1621  -20.7250  -11.3716 N   0  0  0  0  0  0  0  0  0  0  0  0
   27.0706  -20.7299   -9.1211 C   0  0  0  0  0  0  0  0  0  0  0  0
   26.1332  -19.9269   -8.8878 O   0  0  0  0  0  0  0  0  0  0  0  0
   29.6149  -21.2807   -3.4348 C   0  0  0  0  0  0  0  0  0  0  0  0
   28.5623  -20.7102   -4.3590 C   0  0  0  0  0  0  0  0  0  0  0  0
   28.8273  -21.2059   -5.7782 C   0  0  2  0  0  0  0  0  0  0  0  0
   30.1534  -20.6161   -6.2070 C   0  0  0  0  0  0  0  0  0  0  0  0
   27.7645  -20.6325   -6.6957 C   0  0  2  0  0  0  0  0  0  0  0  0
   27.8647  -21.1624   -8.0349 N   0  0  0  0  0  0  0  0  0  0  0  0
   27.9654  -19.1707   -6.7511 C   0  0  0  0  0  0  0  0  0  0  0  0
   27.4379  -18.4225   -5.9011 O   0  0  0  0  0  0  0  0  0  0  0  0
   28.7498  -18.6465   -7.7635 O   0  0  0  0  0  0  0  0  0  0  0  0
  2  1  1  6
  2 13  1  0
  3  2  1  0
  4  3  1  0
  4 12  1  0
  5  6  1  0
  5  4  2  0
  6  7  1  0
  7  8  1  0
  7 12  2  0
  8  9  2  0
  9 10  1  0
 11 10  2  0
 12 11  1  0
 13 14  2  0
 15 16  1  0
 17 16  1  6
 18 13  1  0
 18 17  1  0
 19 17  1  0
 19 20  2  0
 21 22  1  0
 23 22  1  0
 23 25  1  0
 23 24  1  6
 25 26  1  6
 26 19  1  0
 27 25  1  0
 28 27  2  0
 29 27  1  0
M  END
$$$$
