WSI.pdb
     RDKit          3D

 29 30  0  0  1  0  0  0  0  0999 V2000
   26.0557  -22.9276  -12.0775 N   0  0  0  0  0  0  0  0  0  0  0  0
   25.4629  -21.6715  -11.5505 C   0  0  1  0  0  0  0  0  0  0  0  0
   26.4373  -20.6106  -11.9125 C   0  0  0  0  0  0  0  0  0  0  0  0
   27.5449  -20.4566  -10.9717 C   0  0  0  0  0  0  0  0  0  0  0  0
   28.8392  -20.8714  -11.2704 C   0  0  0  0  0  0  0  0  0  0  0  0
   29.6095  -20.6277  -10.2223 N   0  0  0  0  0  0  0  0  0  0  0  0
   28.8979  -20.0674   -9.2295 C   0  0  0  0  0  0  0  0  0  0  0  0
   29.2336  -19.6223   -7.9597 C   0  0  0  0  0  0  0  0  0  0  0  0
   28.2587  -19.0671   -7.1658 C   0  0  0  0  0  0  0  0  0  0  0  0
   26.9768  -18.9650   -7.6442 C   0  0  0  0  0  0  0  0  0  0  0  0
   26.6155  -19.3935   -8.8869 C   0  0  0  0  0  0  0  0  0  0  0  0
   27.5955  -19.9568   -9.6963 C   0  0  0  0  0  0  0  0  0  0  0  0
   24.1268  -21.5932  -12.1519 C   0  0  0  0  0  0  0  0  0  0  0  0
   23.9818  -21.9423  -13.3477 O   0  0  0  0  0  0  0  0  0  0  0  0
   20.7552  -19.5812  -10.4690 O   0  0  0  0  0  0  0  0  0  0  0  0
   20.6192  -20.7787  -11.1325 C   0  0  0  0  0  0  0  0  0  0  0  0
   21.6817  -21.0228  -12.1818 C   0  0  2  0  0  0  0  0  0  0  0  0
   22.9576  -21.1442  -11.4763 N   0  0  0  0  0  0  0  0  0  0  0  0
   21.6926  -19.8378  -13.0837 C   0  0  0  0  0  0  0  0  0  0  0  0
   22.5005  -18.9119  -12.8226 O   0  0  0  0  0  0  0  0  0  0  0  0
   23.3273  -17.7012  -17.9756 C   0  0  0  0  0  0  0  0  0  0  0  0
   22.0811  -17.6362  -17.1211 C   0  0  0  0  0  0  0  0  0  0  0  0
   22.1429  -18.7406  -16.0691 C   0  0  2  0  0  0  0  0  0  0  0  0
   21.9947  -20.0546  -16.8053 C   0  0  0  0  0  0  0  0  0  0  0  0
   20.9419  -18.6023  -15.1533 C   0  0  2  0  0  0  0  0  0  0  0  0
   20.8532  -19.6928  -14.2114 N   0  0  0  0  0  0  0  0  0  0  0  0
   19.7326  -18.6118  -16.0004 C   0  0  0  0  0  0  0  0  0  0  0  0
   19.3990  -17.5956  -16.6459 O   0  0  0  0  0  0  0  0  0  0  0  0
   18.9762  -19.7689  -16.0646 O   0  0  0  0  0  0  0  0  0  0  0  0
  2  1  1  6
  2 13  1  0
  3  2  1  0
  4  3  1  0
  4 12  1  0
  5  6  1  0
  5  4  2  0
  6  7  1  0
  7  8  1  0
  7 12  2  0
  8  9  2  0
  9 10  1  0
 11 10  2  0
 12 11  1  0
 13 14  2  0
 15 16  1  0
 17 16  1  1
 18 13  1  0
 18 17  1  0
 19 17  1  0
 19 20  2  0
 21 22  1  0
 23 22  1  0
 23 25  1  0
 23 24  1  6
 25 26  1  1
 26 19  1  0
 27 25  1  0
 28 27  2  0
 29 27  1  0
M  END
$$$$
