WSI.pdb
     RDKit          3D

 29 30  0  0  1  0  0  0  0  0999 V2000
   27.9480  -19.9055  -11.3980 N   0  0  0  0  0  0  0  0  0  0  0  0
   27.0970  -21.1119  -11.2325 C   0  0  1  0  0  0  0  0  0  0  0  0
   26.6513  -21.0709   -9.8162 C   0  0  0  0  0  0  0  0  0  0  0  0
   27.7358  -20.9838   -8.8406 C   0  0  0  0  0  0  0  0  0  0  0  0
   27.6230  -20.2477   -7.6651 C   0  0  0  0  0  0  0  0  0  0  0  0
   28.7662  -20.3359   -7.0043 N   0  0  0  0  0  0  0  0  0  0  0  0
   29.6462  -21.0972   -7.6767 C   0  0  0  0  0  0  0  0  0  0  0  0
   30.9470  -21.4980   -7.4110 C   0  0  0  0  0  0  0  0  0  0  0  0
   31.5935  -22.3114   -8.3105 C   0  0  0  0  0  0  0  0  0  0  0  0
   30.9409  -22.7092   -9.4500 C   0  0  0  0  0  0  0  0  0  0  0  0
   29.6632  -22.3320   -9.7396 C   0  0  0  0  0  0  0  0  0  0  0  0
   29.0022  -21.5088   -8.8351 C   0  0  0  0  0  0  0  0  0  0  0  0
   26.0634  -21.0003  -12.2679 C   0  0  0  0  0  0  0  0  0  0  0  0
   25.7826  -19.8648  -12.7203 O   0  0  0  0  0  0  0  0  0  0  0  0
   23.7956  -24.2473  -13.7506 O   0  0  0  0  0  0  0  0  0  0  0  0
   24.1894  -23.2240  -14.5816 C   0  0  0  0  0  0  0  0  0  0  0  0
   24.3581  -21.8943  -13.8797 C   0  0  2  0  0  0  0  0  0  0  0  0
   25.3380  -22.0968  -12.8123 N   0  0  0  0  0  0  0  0  0  0  0  0
   23.0329  -21.5235  -13.3105 C   0  0  0  0  0  0  0  0  0  0  0  0
   22.8485  -21.7186  -12.0833 O   0  0  0  0  0  0  0  0  0  0  0  0
   20.8127  -16.8583  -13.8640 C   0  0  0  0  0  0  0  0  0  0  0  0
   21.1736  -18.2298  -13.3384 C   0  0  0  0  0  0  0  0  0  0  0  0
   20.2184  -19.2581  -13.9386 C   0  0  2  0  0  0  0  0  0  0  0  0
   18.8663  -19.0239  -13.3003 C   0  0  0  0  0  0  0  0  0  0  0  0
   20.6764  -20.6427  -13.5222 C   0  0  2  0  0  0  0  0  0  0  0  0
   21.9746  -20.9673  -14.0642 N   0  0  0  0  0  0  0  0  0  0  0  0
   19.6925  -21.6126  -14.0428 C   0  0  0  0  0  0  0  0  0  0  0  0
   19.7607  -22.0186  -15.2223 O   0  0  0  0  0  0  0  0  0  0  0  0
   18.6932  -22.0628  -13.1979 O   0  0  0  0  0  0  0  0  0  0  0  0
  2  1  1  1
  2 13  1  0
  3  2  1  0
  4  3  1  0
  4 12  1  0
  5  6  1  0
  5  4  2  0
  6  7  1  0
  7  8  1  0
  7 12  2  0
  8  9  2  0
  9 10  1  0
 11 10  2  0
 12 11  1  0
 13 14  2  0
 15 16  1  0
 17 16  1  1
 18 13  1  0
 18 17  1  0
 19 17  1  0
 19 20  2  0
 21 22  1  0
 23 22  1  0
 23 25  1  0
 23 24  1  1
 25 26  1  6
 26 19  1  0
 27 25  1  0
 28 27  2  0
 29 27  1  0
M  END
$$$$
