WSI.pdb
     RDKit          3D

 29 30  0  0  1  0  0  0  0  0999 V2000
   27.7871  -22.2364  -13.7965 N   0  0  0  0  0  0  0  0  0  0  0  0
   26.6486  -21.7863  -12.9549 C   0  0  1  0  0  0  0  0  0  0  0  0
   27.0727  -20.4689  -12.4155 C   0  0  0  0  0  0  0  0  0  0  0  0
   27.9010  -20.5428  -11.2139 C   0  0  0  0  0  0  0  0  0  0  0  0
   29.2886  -20.6309  -11.2698 C   0  0  0  0  0  0  0  0  0  0  0  0
   29.7535  -20.7099  -10.0333 N   0  0  0  0  0  0  0  0  0  0  0  0
   28.7463  -20.6788   -9.1440 C   0  0  0  0  0  0  0  0  0  0  0  0
   28.7064  -20.7184   -7.7584 C   0  0  0  0  0  0  0  0  0  0  0  0
   27.4902  -20.6506   -7.1218 C   0  0  0  0  0  0  0  0  0  0  0  0
   26.3436  -20.5455   -7.8679 C   0  0  0  0  0  0  0  0  0  0  0  0
   26.3498  -20.5046   -9.2306 C   0  0  0  0  0  0  0  0  0  0  0  0
   27.5759  -20.5732   -9.8825 C   0  0  0  0  0  0  0  0  0  0  0  0
   25.4805  -21.8068  -13.8426 C   0  0  0  0  0  0  0  0  0  0  0  0
   25.4513  -21.0212  -14.8198 O   0  0  0  0  0  0  0  0  0  0  0  0
   22.7344  -24.5811  -13.3136 O   0  0  0  0  0  0  0  0  0  0  0  0
   22.4531  -23.8837  -14.4656 C   0  0  0  0  0  0  0  0  0  0  0  0
   23.2145  -22.5827  -14.5965 C   0  0  2  0  0  0  0  0  0  0  0  0
   24.3544  -22.6620  -13.6828 N   0  0  0  0  0  0  0  0  0  0  0  0
   22.2916  -21.4875  -14.1885 C   0  0  0  0  0  0  0  0  0  0  0  0
   22.2974  -21.1371  -12.9821 O   0  0  0  0  0  0  0  0  0  0  0  0
   22.2578  -16.8589  -16.3887 C   0  0  0  0  0  0  0  0  0  0  0  0
   22.0391  -17.9520  -15.3666 C   0  0  0  0  0  0  0  0  0  0  0  0
   20.6451  -18.5424  -15.5626 C   0  0  2  0  0  0  0  0  0  0  0  0
   19.6588  -17.5128  -15.0550 C   0  0  0  0  0  0  0  0  0  0  0  0
   20.5106  -19.7662  -14.6768 C   0  0  2  0  0  0  0  0  0  0  0  0
   21.4137  -20.8207  -15.0727 N   0  0  0  0  0  0  0  0  0  0  0  0
   19.1249  -20.2593  -14.8060 C   0  0  0  0  0  0  0  0  0  0  0  0
   18.8030  -21.0160  -15.7464 O   0  0  0  0  0  0  0  0  0  0  0  0
   18.1901  -19.8664  -13.8643 O   0  0  0  0  0  0  0  0  0  0  0  0
  2  1  1  6
  2 13  1  0
  3  2  1  0
  4  3  1  0
  4 12  1  0
  5  6  1  0
  5  4  2  0
  6  7  1  0
  7  8  1  0
  7 12  2  0
  8  9  2  0
  9 10  1  0
 11 10  2  0
 12 11  1  0
 13 14  2  0
 15 16  1  0
 17 16  1  1
 18 13  1  0
 18 17  1  0
 19 17  1  0
 19 20  2  0
 21 22  1  0
 23 22  1  0
 23 25  1  0
 23 24  1  1
 25 26  1  6
 26 19  1  0
 27 25  1  0
 28 27  2  0
 29 27  1  0
M  END
$$$$
