AII.pdb
     RDKit          3D

 22 21  0  0  1  0  0  0  0  0999 V2000
   18.6366  -12.6867  -19.4689 C   0  0  0  0  0  0  0  0  0  0  0  0
   19.4728  -13.5147  -18.5226 C   0  0  2  0  0  0  0  0  0  0  0  0
   18.6954  -14.6507  -18.1223 N   0  0  0  0  0  0  0  0  0  0  0  0
   19.9691  -12.7096  -17.3757 C   0  0  0  0  0  0  0  0  0  0  0  0
   19.1795  -12.5958  -16.4034 O   0  0  0  0  0  0  0  0  0  0  0  0
   24.7516  -13.5280  -15.4929 C   0  0  0  0  0  0  0  0  0  0  0  0
   23.2556  -13.2519  -15.6132 C   0  0  0  0  0  0  0  0  0  0  0  0
   23.0352  -11.7805  -15.7982 C   0  0  2  0  0  0  0  0  0  0  0  0
   23.6453  -10.9613  -14.6823 C   0  0  0  0  0  0  0  0  0  0  0  0
   21.6272  -11.3846  -16.1031 C   0  0  2  0  0  0  0  0  0  0  0  0
   21.2264  -12.0978  -17.3332 N   0  0  0  0  0  0  0  0  0  0  0  0
   21.4109   -9.9402  -16.3616 C   0  0  0  0  0  0  0  0  0  0  0  0
   22.0395   -9.3724  -17.3244 O   0  0  0  0  0  0  0  0  0  0  0  0
   16.8126   -7.2810  -17.1736 C   0  0  0  0  0  0  0  0  0  0  0  0
   18.2721   -7.7013  -17.1188 C   0  0  0  0  0  0  0  0  0  0  0  0
   18.9407   -7.2314  -15.8789 C   0  0  2  0  0  0  0  0  0  0  0  0
   19.0365   -5.6974  -16.0087 C   0  0  0  0  0  0  0  0  0  0  0  0
   20.3826   -7.6877  -15.7314 C   0  0  2  0  0  0  0  0  0  0  0  0
   20.5406   -9.1115  -15.6155 N   0  0  0  0  0  0  0  0  0  0  0  0
   21.0282   -6.9887  -14.6340 C   0  0  0  0  0  0  0  0  0  0  0  0
   21.5707   -5.8518  -14.8504 O   0  0  0  0  0  0  0  0  0  0  0  0
   21.0991   -7.4745  -13.3478 O   0  0  0  0  0  0  0  0  0  0  0  0
  2  1  1  6
  3  2  1  0
  4  2  1  0
  4  5  2  0
  7  6  1  0
  7  8  1  0
  8 10  1  0
  8  9  1  1
 10 11  1  6
 10 12  1  0
 11  4  1  0
 12 19  1  0
 13 12  2  0
 14 15  1  0
 16 17  1  6
 16 18  1  0
 16 15  1  0
 18 20  1  0
 18 19  1  1
 20 21  2  0
 20 22  1  0
M  END
$$$$
