AII.pdb
     RDKit          3D

 22 21  0  0  1  0  0  0  0  0999 V2000
   21.6737  -20.1214  -11.2877 C   0  0  0  0  0  0  0  0  0  0  0  0
   22.8030  -20.6100  -12.1630 C   0  0  2  0  0  0  0  0  0  0  0  0
   22.2862  -21.6336  -13.0233 N   0  0  0  0  0  0  0  0  0  0  0  0
   23.9721  -21.0540  -11.3591 C   0  0  0  0  0  0  0  0  0  0  0  0
   23.8899  -22.2066  -10.8624 O   0  0  0  0  0  0  0  0  0  0  0  0
   28.6100  -21.2570  -13.4071 C   0  0  0  0  0  0  0  0  0  0  0  0
   27.3235  -21.4563  -12.6109 C   0  0  0  0  0  0  0  0  0  0  0  0
   27.4508  -20.7738  -11.2820 C   0  0  2  0  0  0  0  0  0  0  0  0
   28.7312  -21.1416  -10.5652 C   0  0  0  0  0  0  0  0  0  0  0  0
   26.2471  -20.8710  -10.4024 C   0  0  2  0  0  0  0  0  0  0  0  0
   25.1140  -20.2760  -11.1403 N   0  0  0  0  0  0  0  0  0  0  0  0
   26.3385  -20.1467   -9.1113 C   0  0  0  0  0  0  0  0  0  0  0  0
   25.9180  -18.9374   -9.0372 O   0  0  0  0  0  0  0  0  0  0  0  0
   28.4389  -21.1102   -3.2230 C   0  0  0  0  0  0  0  0  0  0  0  0
   27.6856  -20.2520   -4.2258 C   0  0  0  0  0  0  0  0  0  0  0  0
   27.5477  -20.9254   -5.5422 C   0  0  2  0  0  0  0  0  0  0  0  0
   28.9803  -21.2976   -5.9759 C   0  0  0  0  0  0  0  0  0  0  0  0
   27.0381  -20.0271   -6.6568 C   0  0  2  0  0  0  0  0  0  0  0  0
   26.8628  -20.6948   -7.9174 N   0  0  0  0  0  0  0  0  0  0  0  0
   27.8811  -18.8516   -6.7890 C   0  0  0  0  0  0  0  0  0  0  0  0
   28.8820  -18.8868   -7.5833 O   0  0  0  0  0  0  0  0  0  0  0  0
   27.6743  -17.6754   -6.1043 O   0  0  0  0  0  0  0  0  0  0  0  0
  2  1  1  1
  3  2  1  0
  4  2  1  0
  4  5  2  0
  7  6  1  0
  7  8  1  0
  8 10  1  0
  8  9  1  1
 10 11  1  6
 10 12  1  0
 11  4  1  0
 12 19  1  0
 13 12  2  0
 14 15  1  0
 16 17  1  6
 16 18  1  0
 16 15  1  0
 18 20  1  0
 18 19  1  6
 20 21  2  0
 20 22  1  0
M  END
$$$$
