AII.pdb
     RDKit          3D

 22 21  0  0  1  0  0  0  0  0999 V2000
   25.9592  -25.0917  -17.1068 C   0  0  0  0  0  0  0  0  0  0  0  0
   27.1083  -24.1846  -17.4769 C   0  0  2  0  0  0  0  0  0  0  0  0
   28.2645  -25.0023  -17.6999 N   0  0  0  0  0  0  0  0  0  0  0  0
   27.3264  -23.1255  -16.4567 C   0  0  0  0  0  0  0  0  0  0  0  0
   28.2236  -23.3595  -15.6069 O   0  0  0  0  0  0  0  0  0  0  0  0
   27.8761  -18.0373  -17.6913 C   0  0  0  0  0  0  0  0  0  0  0  0
   28.0605  -19.3908  -17.0109 C   0  0  0  0  0  0  0  0  0  0  0  0
   26.9660  -19.5953  -16.0068 C   0  0  2  0  0  0  0  0  0  0  0  0
   26.8809  -18.4623  -15.0079 C   0  0  0  0  0  0  0  0  0  0  0  0
   26.9452  -20.9410  -15.3581 C   0  0  2  0  0  0  0  0  0  0  0  0
   26.6054  -21.9279  -16.4036 N   0  0  0  0  0  0  0  0  0  0  0  0
   25.9481  -21.1127  -14.2737 C   0  0  0  0  0  0  0  0  0  0  0  0
   24.7292  -21.3738  -14.5753 O   0  0  0  0  0  0  0  0  0  0  0  0
   25.6628  -20.7650   -7.9625 C   0  0  0  0  0  0  0  0  0  0  0  0
   24.9850  -21.0324   -9.2963 C   0  0  0  0  0  0  0  0  0  0  0  0
   25.9469  -20.9948  -10.4270 C   0  0  2  0  0  0  0  0  0  0  0  0
   26.5851  -19.5910  -10.3892 C   0  0  0  0  0  0  0  0  0  0  0  0
   25.3041  -21.0794  -11.8013 C   0  0  2  0  0  0  0  0  0  0  0  0
   26.2370  -21.0134  -12.8926 N   0  0  0  0  0  0  0  0  0  0  0  0
   24.2558  -20.0830  -11.9353 C   0  0  0  0  0  0  0  0  0  0  0  0
   24.5473  -18.9278  -12.3983 O   0  0  0  0  0  0  0  0  0  0  0  0
   22.9404  -20.2990  -11.5916 O   0  0  0  0  0  0  0  0  0  0  0  0
  2  1  1  1
  3  2  1  0
  4  2  1  0
  4  5  2  0
  7  6  1  0
  7  8  1  0
  8 10  1  0
  8  9  1  1
 10 11  1  6
 10 12  1  0
 11  4  1  0
 12 19  1  0
 13 12  2  0
 14 15  1  0
 16 17  1  6
 16 18  1  0
 16 15  1  0
 18 20  1  0
 18 19  1  6
 20 21  2  0
 20 22  1  0
M  END
$$$$
