AII.pdb
     RDKit          3D

 22 21  0  0  1  0  0  0  0  0999 V2000
   21.1782  -12.2074  -20.1104 C   0  0  0  0  0  0  0  0  0  0  0  0
   22.1887  -12.9582  -19.2764 C   0  0  2  0  0  0  0  0  0  0  0  0
   21.6800  -14.2785  -19.0459 N   0  0  0  0  0  0  0  0  0  0  0  0
   22.5205  -12.2301  -18.0234 C   0  0  0  0  0  0  0  0  0  0  0  0
   21.7961  -12.4919  -17.0291 O   0  0  0  0  0  0  0  0  0  0  0  0
   27.1927  -12.1373  -15.8258 C   0  0  0  0  0  0  0  0  0  0  0  0
   25.6844  -12.1481  -16.0573 C   0  0  0  0  0  0  0  0  0  0  0  0
   25.2023  -10.7426  -16.2572 C   0  0  2  0  0  0  0  0  0  0  0  0
   25.6080   -9.8271  -15.1232 C   0  0  0  0  0  0  0  0  0  0  0  0
   23.7577  -10.6137  -16.6160 C   0  0  2  0  0  0  0  0  0  0  0  0
   23.5621  -11.3035  -17.9076 N   0  0  0  0  0  0  0  0  0  0  0  0
   23.2654   -9.2265  -16.7980 C   0  0  0  0  0  0  0  0  0  0  0  0
   23.7933   -8.4851  -17.7016 O   0  0  0  0  0  0  0  0  0  0  0  0
   17.9732   -7.8215  -17.0639 C   0  0  0  0  0  0  0  0  0  0  0  0
   19.2779   -7.9899  -16.3027 C   0  0  0  0  0  0  0  0  0  0  0  0
   20.3880   -7.2242  -16.9243 C   0  0  2  0  0  0  0  0  0  0  0  0
   20.6760   -7.9197  -18.2706 C   0  0  0  0  0  0  0  0  0  0  0  0
   21.7049   -7.3033  -16.1702 C   0  0  2  0  0  0  0  0  0  0  0  0
   22.2288   -8.6351  -16.0388 N   0  0  0  0  0  0  0  0  0  0  0  0
   21.5934   -6.6447  -14.8804 C   0  0  0  0  0  0  0  0  0  0  0  0
   21.4043   -5.3812  -14.8384 O   0  0  0  0  0  0  0  0  0  0  0  0
   21.6788   -7.2991  -13.6723 O   0  0  0  0  0  0  0  0  0  0  0  0
  2  1  1  1
  3  2  1  0
  4  2  1  0
  4  5  2  0
  7  6  1  0
  7  8  1  0
  8 10  1  0
  8  9  1  1
 10 11  1  6
 10 12  1  0
 11  4  1  0
 12 19  1  0
 13 12  2  0
 14 15  1  0
 16 17  1  6
 16 18  1  0
 16 15  1  0
 18 20  1  0
 18 19  1  1
 20 21  2  0
 20 22  1  0
M  END
$$$$
