AII.pdb
     RDKit          3D

 22 21  0  0  1  0  0  0  0  0999 V2000
   21.7208  -19.9595  -11.3522 C   0  0  0  0  0  0  0  0  0  0  0  0
   22.8650  -20.4057  -12.2307 C   0  0  2  0  0  0  0  0  0  0  0  0
   22.3662  -21.3958  -13.1396 N   0  0  0  0  0  0  0  0  0  0  0  0
   24.0254  -20.8763  -11.4293 C   0  0  0  0  0  0  0  0  0  0  0  0
   23.9761  -22.0724  -11.0435 O   0  0  0  0  0  0  0  0  0  0  0  0
   28.6053  -21.2171  -13.3956 C   0  0  0  0  0  0  0  0  0  0  0  0
   27.3127  -21.3531  -12.5959 C   0  0  0  0  0  0  0  0  0  0  0  0
   27.4499  -20.6121  -11.2998 C   0  0  2  0  0  0  0  0  0  0  0  0
   28.7516  -20.9215  -10.5937 C   0  0  0  0  0  0  0  0  0  0  0  0
   26.2656  -20.6975  -10.3931 C   0  0  2  0  0  0  0  0  0  0  0  0
   25.1255  -20.0778  -11.0992 N   0  0  0  0  0  0  0  0  0  0  0  0
   26.3989  -19.9864   -9.0984 C   0  0  0  0  0  0  0  0  0  0  0  0
   26.1391  -18.7318   -9.0400 O   0  0  0  0  0  0  0  0  0  0  0  0
   28.4966  -21.1281   -3.2428 C   0  0  0  0  0  0  0  0  0  0  0  0
   27.7956  -20.2095   -4.2300 C   0  0  0  0  0  0  0  0  0  0  0  0
   27.5765  -20.8669   -5.5434 C   0  0  2  0  0  0  0  0  0  0  0  0
   28.9763  -21.2721   -6.0491 C   0  0  0  0  0  0  0  0  0  0  0  0
   27.0375  -19.9455   -6.6247 C   0  0  2  0  0  0  0  0  0  0  0  0
   26.7971  -20.5939   -7.8846 N   0  0  0  0  0  0  0  0  0  0  0  0
   27.8960  -18.7839   -6.7784 C   0  0  0  0  0  0  0  0  0  0  0  0
   27.6899  -17.7541   -6.0498 O   0  0  0  0  0  0  0  0  0  0  0  0
   28.9397  -18.7114   -7.6731 O   0  0  0  0  0  0  0  0  0  0  0  0
  2  1  1  1
  3  2  1  0
  4  2  1  0
  4  5  2  0
  7  6  1  0
  7  8  1  0
  8 10  1  0
  8  9  1  1
 10 11  1  6
 10 12  1  0
 11  4  1  0
 12 19  1  0
 13 12  2  0
 14 15  1  0
 16 17  1  6
 16 18  1  0
 16 15  1  0
 18 20  1  0
 18 19  1  6
 20 21  2  0
 20 22  1  0
M  END
$$$$
