AII.pdb
     RDKit          3D

 22 21  0  0  1  0  0  0  0  0999 V2000
   15.8101  -24.2981  -12.1256 C   0  0  0  0  0  0  0  0  0  0  0  0
   17.2703  -23.9415  -12.2699 C   0  0  2  0  0  0  0  0  0  0  0  0
   17.8000  -24.6812  -13.3777 N   0  0  0  0  0  0  0  0  0  0  0  0
   18.0200  -24.1616  -11.0051 C   0  0  0  0  0  0  0  0  0  0  0  0
   18.4326  -25.3335  -10.8094 O   0  0  0  0  0  0  0  0  0  0  0  0
   21.5571  -20.5861   -9.1186 C   0  0  0  0  0  0  0  0  0  0  0  0
   20.8420  -21.8523   -9.5813 C   0  0  0  0  0  0  0  0  0  0  0  0
   19.8884  -22.3021   -8.5153 C   0  0  2  0  0  0  0  0  0  0  0  0
   20.5512  -22.4178   -7.1603 C   0  0  0  0  0  0  0  0  0  0  0  0
   19.0701  -23.5027   -8.8633 C   0  0  2  0  0  0  0  0  0  0  0  0
   18.2758  -23.1613  -10.0612 N   0  0  0  0  0  0  0  0  0  0  0  0
   18.1049  -23.9411   -7.8261 C   0  0  0  0  0  0  0  0  0  0  0  0
   17.0234  -23.2742   -7.6510 O   0  0  0  0  0  0  0  0  0  0  0  0
   16.4130  -29.0882   -7.4157 C   0  0  0  0  0  0  0  0  0  0  0  0
   16.5925  -27.5791   -7.3990 C   0  0  0  0  0  0  0  0  0  0  0  0
   17.1541  -27.0994   -6.1107 C   0  0  2  0  0  0  0  0  0  0  0  0
   16.0811  -27.4040   -5.0453 C   0  0  0  0  0  0  0  0  0  0  0  0
   17.3470  -25.5942   -6.0313 C   0  0  2  0  0  0  0  0  0  0  0  0
   18.2795  -25.0689   -6.9905 N   0  0  0  0  0  0  0  0  0  0  0  0
   17.6930  -25.1958   -4.6781 C   0  0  0  0  0  0  0  0  0  0  0  0
   18.9225  -25.1695   -4.3297 O   0  0  0  0  0  0  0  0  0  0  0  0
   16.7701  -24.8361   -3.7221 O   0  0  0  0  0  0  0  0  0  0  0  0
  2  1  1  1
  3  2  1  0
  4  2  1  0
  4  5  2  0
  7  6  1  0
  7  8  1  0
  8 10  1  0
  8  9  1  1
 10 11  1  6
 10 12  1  0
 11  4  1  0
 12 19  1  0
 13 12  2  0
 14 15  1  0
 16 17  1  1
 16 18  1  0
 16 15  1  0
 18 20  1  0
 18 19  1  6
 20 21  2  0
 20 22  1  0
M  END
$$$$
