AII.pdb
     RDKit          3D

 22 21  0  0  1  0  0  0  0  0999 V2000
   27.8662  -19.1457  -14.8318 C   0  0  0  0  0  0  0  0  0  0  0  0
   28.2976  -20.2795  -13.9325 C   0  0  2  0  0  0  0  0  0  0  0  0
   28.9763  -21.2513  -14.7387 N   0  0  0  0  0  0  0  0  0  0  0  0
   27.1537  -20.8453  -13.1700 C   0  0  0  0  0  0  0  0  0  0  0  0
   26.5875  -21.8409  -13.6896 O   0  0  0  0  0  0  0  0  0  0  0  0
   26.9531  -20.4141   -7.7822 C   0  0  0  0  0  0  0  0  0  0  0  0
   26.8857  -21.0686   -9.1591 C   0  0  0  0  0  0  0  0  0  0  0  0
   25.6130  -20.6632   -9.8401 C   0  0  2  0  0  0  0  0  0  0  0  0
   24.3842  -21.1120   -9.0802 C   0  0  0  0  0  0  0  0  0  0  0  0
   25.5429  -20.9882  -11.2967 C   0  0  2  0  0  0  0  0  0  0  0  0
   26.6983  -20.3380  -11.9484 N   0  0  0  0  0  0  0  0  0  0  0  0
   24.3313  -20.5043  -12.0022 C   0  0  0  0  0  0  0  0  0  0  0  0
   24.1380  -19.2427  -12.1275 O   0  0  0  0  0  0  0  0  0  0  0  0
   22.8888  -22.0936  -16.8783 C   0  0  0  0  0  0  0  0  0  0  0  0
   23.0914  -21.3591  -15.5633 C   0  0  0  0  0  0  0  0  0  0  0  0
   21.9660  -21.5838  -14.6209 C   0  0  2  0  0  0  0  0  0  0  0  0
   20.7534  -20.8524  -15.2325 C   0  0  0  0  0  0  0  0  0  0  0  0
   22.1488  -20.9359  -13.2586 C   0  0  2  0  0  0  0  0  0  0  0  0
   23.3426  -21.3421  -12.5691 N   0  0  0  0  0  0  0  0  0  0  0  0
   20.9664  -21.1328  -12.4383 C   0  0  0  0  0  0  0  0  0  0  0  0
   20.1749  -20.1495  -12.2371 O   0  0  0  0  0  0  0  0  0  0  0  0
   20.6296  -22.3302  -11.8486 O   0  0  0  0  0  0  0  0  0  0  0  0
  2  1  1  6
  3  2  1  0
  4  2  1  0
  4  5  2  0
  7  6  1  0
  7  8  1  0
  8 10  1  0
  8  9  1  1
 10 11  1  6
 10 12  1  0
 11  4  1  0
 12 19  1  0
 13 12  2  0
 14 15  1  0
 16 17  1  6
 16 18  1  0
 16 15  1  0
 18 20  1  0
 18 19  1  1
 20 21  2  0
 20 22  1  0
M  END
$$$$
