AII.pdb
     RDKit          3D

 22 21  0  0  1  0  0  0  0  0999 V2000
   21.9378  -21.7250  -12.1233 C   0  0  0  0  0  0  0  0  0  0  0  0
   22.6260  -20.5525  -11.4663 C   0  0  2  0  0  0  0  0  0  0  0  0
   22.8269  -19.5413  -12.4624 N   0  0  0  0  0  0  0  0  0  0  0  0
   23.8818  -20.9611  -10.7835 C   0  0  0  0  0  0  0  0  0  0  0  0
   23.7742  -21.9012   -9.9549 O   0  0  0  0  0  0  0  0  0  0  0  0
   28.5860  -21.3574  -13.3663 C   0  0  0  0  0  0  0  0  0  0  0  0
   27.3209  -21.5344  -12.5314 C   0  0  0  0  0  0  0  0  0  0  0  0
   27.4726  -20.7945  -11.2363 C   0  0  2  0  0  0  0  0  0  0  0  0
   28.7938  -21.0834  -10.5585 C   0  0  0  0  0  0  0  0  0  0  0  0
   26.3091  -20.9026  -10.3053 C   0  0  2  0  0  0  0  0  0  0  0  0
   25.1279  -20.3686  -11.0138 N   0  0  0  0  0  0  0  0  0  0  0  0
   26.4278  -20.1349   -9.0418 C   0  0  0  0  0  0  0  0  0  0  0  0
   25.9863  -18.9318   -8.9928 O   0  0  0  0  0  0  0  0  0  0  0  0
   28.5488  -20.9039   -3.1440 C   0  0  0  0  0  0  0  0  0  0  0  0
   27.6972  -20.1325   -4.1388 C   0  0  0  0  0  0  0  0  0  0  0  0
   27.6044  -20.8267   -5.4483 C   0  0  2  0  0  0  0  0  0  0  0  0
   29.0507  -21.2086   -5.8248 C   0  0  0  0  0  0  0  0  0  0  0  0
   27.1371  -19.9453   -6.5945 C   0  0  2  0  0  0  0  0  0  0  0  0
   27.0010  -20.6337   -7.8488 N   0  0  0  0  0  0  0  0  0  0  0  0
   27.9897  -18.7760   -6.7181 C   0  0  0  0  0  0  0  0  0  0  0  0
   28.9288  -18.7764   -7.5853 O   0  0  0  0  0  0  0  0  0  0  0  0
   27.8556  -17.6412   -5.9504 O   0  0  0  0  0  0  0  0  0  0  0  0
  2  1  1  6
  3  2  1  0
  4  2  1  0
  4  5  2  0
  7  6  1  0
  7  8  1  0
  8 10  1  0
  8  9  1  1
 10 11  1  6
 10 12  1  0
 11  4  1  0
 12 19  1  0
 13 12  2  0
 14 15  1  0
 16 17  1  6
 16 18  1  0
 16 15  1  0
 18 20  1  0
 18 19  1  6
 20 21  2  0
 20 22  1  0
M  END
$$$$
