AII.pdb
     RDKit          3D

 22 21  0  0  1  0  0  0  0  0999 V2000
   20.7494  -19.3846  -13.2182 C   0  0  0  0  0  0  0  0  0  0  0  0
   22.1562  -19.7690  -12.8263 C   0  0  2  0  0  0  0  0  0  0  0  0
   22.8037  -20.3182  -13.9813 N   0  0  0  0  0  0  0  0  0  0  0  0
   22.1725  -20.6832  -11.6541 C   0  0  0  0  0  0  0  0  0  0  0  0
   22.0952  -21.9110  -11.9155 O   0  0  0  0  0  0  0  0  0  0  0  0
   25.8412  -20.0663   -8.0433 C   0  0  0  0  0  0  0  0  0  0  0  0
   24.8409  -20.6448   -9.0401 C   0  0  0  0  0  0  0  0  0  0  0  0
   23.5142  -20.8243   -8.3652 C   0  0  2  0  0  0  0  0  0  0  0  0
   23.6163  -21.6537   -7.1041 C   0  0  0  0  0  0  0  0  0  0  0  0
   22.4032  -21.2674   -9.2604 C   0  0  2  0  0  0  0  0  0  0  0  0
   22.2662  -20.2535  -10.3261 N   0  0  0  0  0  0  0  0  0  0  0  0
   21.0724  -21.3873   -8.6166 C   0  0  0  0  0  0  0  0  0  0  0  0
   20.4100  -20.3249   -8.3386 O   0  0  0  0  0  0  0  0  0  0  0  0
   17.5622  -25.5464   -9.9195 C   0  0  0  0  0  0  0  0  0  0  0  0
   18.5443  -24.9065   -8.9522 C   0  0  0  0  0  0  0  0  0  0  0  0
   18.1623  -23.5123   -8.6119 C   0  0  2  0  0  0  0  0  0  0  0  0
   18.2229  -22.7248   -9.9368 C   0  0  0  0  0  0  0  0  0  0  0  0
   19.1465  -22.7957   -7.7025 C   0  0  2  0  0  0  0  0  0  0  0  0
   20.4514  -22.6117   -8.2761 N   0  0  0  0  0  0  0  0  0  0  0  0
   19.2203  -23.4563   -6.4110 C   0  0  0  0  0  0  0  0  0  0  0  0
   20.3391  -23.9314   -6.0154 O   0  0  0  0  0  0  0  0  0  0  0  0
   18.1468  -23.6108   -5.5632 O   0  0  0  0  0  0  0  0  0  0  0  0
  2  1  1  6
  3  2  1  0
  4  2  1  0
  4  5  2  0
  7  6  1  0
  7  8  1  0
  8 10  1  0
  8  9  1  1
 10 11  1  6
 10 12  1  0
 11  4  1  0
 12 19  1  0
 13 12  2  0
 14 15  1  0
 16 17  1  6
 16 18  1  0
 16 15  1  0
 18 20  1  0
 18 19  1  6
 20 21  2  0
 20 22  1  0
M  END
$$$$
