AII.pdb
     RDKit          3D

 22 21  0  0  1  0  0  0  0  0999 V2000
   25.9091  -13.5028  -15.4168 C   0  0  0  0  0  0  0  0  0  0  0  0
   25.3728  -14.2036  -16.6422 C   0  0  2  0  0  0  0  0  0  0  0  0
   25.0713  -15.5580  -16.2820 N   0  0  0  0  0  0  0  0  0  0  0  0
   26.3079  -14.0966  -17.7929 C   0  0  0  0  0  0  0  0  0  0  0  0
   27.1038  -15.0587  -17.9436 O   0  0  0  0  0  0  0  0  0  0  0  0
   24.8146  -13.8656  -22.6038 C   0  0  0  0  0  0  0  0  0  0  0  0
   25.6381  -14.1377  -21.3481 C   0  0  0  0  0  0  0  0  0  0  0  0
   26.5182  -12.9572  -21.0657 C   0  0  2  0  0  0  0  0  0  0  0  0
   27.3680  -12.5734  -22.2570 C   0  0  0  0  0  0  0  0  0  0  0  0
   27.3041  -13.0423  -19.7979 C   0  0  2  0  0  0  0  0  0  0  0  0
   26.3392  -13.0151  -18.6797 N   0  0  0  0  0  0  0  0  0  0  0  0
   28.2580  -11.9315  -19.5613 C   0  0  0  0  0  0  0  0  0  0  0  0
   27.8070  -10.7518  -19.3381 O   0  0  0  0  0  0  0  0  0  0  0  0
   32.9173  -12.4278  -16.6196 C   0  0  0  0  0  0  0  0  0  0  0  0
   31.6345  -11.9972  -17.3117 C   0  0  0  0  0  0  0  0  0  0  0  0
   31.8923  -11.4325  -18.6608 C   0  0  2  0  0  0  0  0  0  0  0  0
   32.6488  -10.1092  -18.4248 C   0  0  0  0  0  0  0  0  0  0  0  0
   30.6412  -11.0212  -19.4189 C   0  0  2  0  0  0  0  0  0  0  0  0
   29.6659  -12.0678  -19.5571 N   0  0  0  0  0  0  0  0  0  0  0  0
   30.9916  -10.4459  -20.7057 C   0  0  0  0  0  0  0  0  0  0  0  0
   31.3351   -9.2163  -20.7675 O   0  0  0  0  0  0  0  0  0  0  0  0
   30.9799  -11.1465  -21.8907 O   0  0  0  0  0  0  0  0  0  0  0  0
  2  1  1  1
  3  2  1  0
  4  2  1  0
  4  5  2  0
  7  6  1  0
  7  8  1  0
  8 10  1  0
  8  9  1  6
 10 11  1  1
 10 12  1  0
 11  4  1  0
 12 19  1  0
 13 12  2  0
 14 15  1  0
 16 17  1  1
 16 18  1  0
 16 15  1  0
 18 20  1  0
 18 19  1  6
 20 21  2  0
 20 22  1  0
M  END
$$$$
