AII.pdb
     RDKit          3D

 22 21  0  0  1  0  0  0  0  0999 V2000
   19.7481  -17.9723  -11.5695 C   0  0  0  0  0  0  0  0  0  0  0  0
   19.3372  -18.9433  -12.6504 C   0  0  2  0  0  0  0  0  0  0  0  0
   18.1496  -19.6168  -12.2134 N   0  0  0  0  0  0  0  0  0  0  0  0
   20.4415  -19.8728  -13.0065 C   0  0  0  0  0  0  0  0  0  0  0  0
   20.5362  -20.9082  -12.2988 O   0  0  0  0  0  0  0  0  0  0  0  0
   21.1499  -21.5890  -17.9016 C   0  0  0  0  0  0  0  0  0  0  0  0
   21.0598  -21.5080  -16.3804 C   0  0  0  0  0  0  0  0  0  0  0  0
   22.3236  -20.9102  -15.8389 C   0  0  2  0  0  0  0  0  0  0  0  0
   23.5601  -21.6206  -16.3440 C   0  0  0  0  0  0  0  0  0  0  0  0
   22.3414  -20.6991  -14.3600 C   0  0  2  0  0  0  0  0  0  0  0  0
   21.3438  -19.6538  -14.0529 N   0  0  0  0  0  0  0  0  0  0  0  0
   23.6313  -20.2321  -13.7962 C   0  0  0  0  0  0  0  0  0  0  0  0
   23.9899  -19.0133  -13.9713 O   0  0  0  0  0  0  0  0  0  0  0  0
   25.2775  -20.9002   -8.6751 C   0  0  0  0  0  0  0  0  0  0  0  0
   25.0653  -20.4125  -10.0988 C   0  0  0  0  0  0  0  0  0  0  0  0
   25.9949  -21.0653  -11.0554 C   0  0  2  0  0  0  0  0  0  0  0  0
   27.4009  -20.5401  -10.6997 C   0  0  0  0  0  0  0  0  0  0  0  0
   25.7950  -20.6548  -12.5047 C   0  0  2  0  0  0  0  0  0  0  0  0
   24.5251  -21.0408  -13.0560 N   0  0  0  0  0  0  0  0  0  0  0  0
   26.8974  -21.1267  -13.3243 C   0  0  0  0  0  0  0  0  0  0  0  0
   26.8161  -22.2752  -13.8795 O   0  0  0  0  0  0  0  0  0  0  0  0
   28.0499  -20.4088  -13.5512 O   0  0  0  0  0  0  0  0  0  0  0  0
  2  1  1  1
  3  2  1  0
  4  2  1  0
  4  5  2  0
  7  6  1  0
  7  8  1  0
  8 10  1  0
  8  9  1  1
 10 11  1  6
 10 12  1  0
 11  4  1  0
 12 19  1  0
 13 12  2  0
 14 15  1  0
 16 17  1  1
 16 18  1  0
 16 15  1  0
 18 20  1  0
 18 19  1  6
 20 21  2  0
 20 22  1  0
M  END
$$$$
