AII.pdb
     RDKit          3D

 22 21  0  0  1  0  0  0  0  0999 V2000
   20.1626  -11.4654  -19.0013 C   0  0  0  0  0  0  0  0  0  0  0  0
   21.3991  -12.1429  -18.4607 C   0  0  2  0  0  0  0  0  0  0  0  0
   21.1239  -13.5454  -18.3505 N   0  0  0  0  0  0  0  0  0  0  0  0
   21.8499  -11.5311  -17.1830 C   0  0  0  0  0  0  0  0  0  0  0  0
   21.1170  -11.7461  -16.1837 O   0  0  0  0  0  0  0  0  0  0  0  0
   27.1293  -10.5646  -15.7031 C   0  0  0  0  0  0  0  0  0  0  0  0
   25.7794  -10.1316  -16.2680 C   0  0  0  0  0  0  0  0  0  0  0  0
   24.6862  -10.5926  -15.3514 C   0  0  2  0  0  0  0  0  0  0  0  0
   24.7676  -12.0742  -15.0565 C   0  0  0  0  0  0  0  0  0  0  0  0
   23.3106  -10.1542  -15.7358 C   0  0  2  0  0  0  0  0  0  0  0  0
   23.0078  -10.7575  -17.0498 N   0  0  0  0  0  0  0  0  0  0  0  0
   23.1256   -8.6906  -15.8892 C   0  0  0  0  0  0  0  0  0  0  0  0
   23.5201   -8.1160  -16.9658 O   0  0  0  0  0  0  0  0  0  0  0  0
   19.3630   -4.4339  -16.6663 C   0  0  0  0  0  0  0  0  0  0  0  0
   20.6383   -4.6863  -15.8790 C   0  0  0  0  0  0  0  0  0  0  0  0
   20.9517   -6.1342  -15.7760 C   0  0  2  0  0  0  0  0  0  0  0  0
   19.8503   -6.7400  -14.8821 C   0  0  0  0  0  0  0  0  0  0  0  0
   22.2457   -6.4460  -15.0430 C   0  0  2  0  0  0  0  0  0  0  0  0
   22.5294   -7.8496  -14.9206 N   0  0  0  0  0  0  0  0  0  0  0  0
   22.2717   -5.7824  -13.7512 C   0  0  0  0  0  0  0  0  0  0  0  0
   22.0706   -6.4691  -12.6920 O   0  0  0  0  0  0  0  0  0  0  0  0
   22.5029   -4.4359  -13.5823 O   0  0  0  0  0  0  0  0  0  0  0  0
  2  1  1  1
  3  2  1  0
  4  2  1  0
  4  5  2  0
  7  6  1  0
  7  8  1  0
  8 10  1  0
  8  9  1  6
 10 11  1  6
 10 12  1  0
 11  4  1  0
 12 19  1  0
 13 12  2  0
 14 15  1  0
 16 17  1  1
 16 18  1  0
 16 15  1  0
 18 20  1  0
 18 19  1  1
 20 21  2  0
 20 22  1  0
M  END
$$$$
