AII.pdb
     RDKit          3D

 22 21  0  0  1  0  0  0  0  0999 V2000
   19.2884  -21.0881  -10.9919 C   0  0  0  0  0  0  0  0  0  0  0  0
   20.5563  -20.2690  -11.0350 C   0  0  2  0  0  0  0  0  0  0  0  0
   20.1991  -18.8903  -10.8716 N   0  0  0  0  0  0  0  0  0  0  0  0
   21.3402  -20.5297  -12.2710 C   0  0  0  0  0  0  0  0  0  0  0  0
   21.6853  -21.7243  -12.4594 O   0  0  0  0  0  0  0  0  0  0  0  0
   20.0882  -18.8283  -17.1225 C   0  0  0  0  0  0  0  0  0  0  0  0
   20.5807  -19.6846  -15.9593 C   0  0  0  0  0  0  0  0  0  0  0  0
   21.9522  -19.2330  -15.5557 C   0  0  2  0  0  0  0  0  0  0  0  0
   22.9137  -19.1950  -16.7231 C   0  0  0  0  0  0  0  0  0  0  0  0
   22.5208  -19.9259  -14.3604 C   0  0  2  0  0  0  0  0  0  0  0  0
   21.6962  -19.5426  -13.1962 N   0  0  0  0  0  0  0  0  0  0  0  0
   23.9210  -19.5723  -14.0223 C   0  0  0  0  0  0  0  0  0  0  0  0
   24.2189  -18.3496  -13.7750 O   0  0  0  0  0  0  0  0  0  0  0  0
   28.6185  -20.7267  -10.5524 C   0  0  0  0  0  0  0  0  0  0  0  0
   28.2389  -20.3274  -11.9689 C   0  0  0  0  0  0  0  0  0  0  0  0
   26.8012  -20.5712  -12.2497 C   0  0  2  0  0  0  0  0  0  0  0  0
   26.6100  -22.0995  -12.1665 C   0  0  0  0  0  0  0  0  0  0  0  0
   26.3678  -20.2137  -13.6616 C   0  0  2  0  0  0  0  0  0  0  0  0
   24.9875  -20.4981  -13.9435 N   0  0  0  0  0  0  0  0  0  0  0  0
   27.2492  -20.8318  -14.6367 C   0  0  0  0  0  0  0  0  0  0  0  0
   26.8945  -21.9259  -15.1943 O   0  0  0  0  0  0  0  0  0  0  0  0
   28.4672  -20.3114  -15.0118 O   0  0  0  0  0  0  0  0  0  0  0  0
  2  1  1  6
  3  2  1  0
  4  2  1  0
  4  5  2  0
  7  6  1  0
  7  8  1  0
  8 10  1  0
  8  9  1  6
 10 11  1  1
 10 12  1  0
 11  4  1  0
 12 19  1  0
 13 12  2  0
 14 15  1  0
 16 17  1  6
 16 18  1  0
 16 15  1  0
 18 20  1  0
 18 19  1  6
 20 21  2  0
 20 22  1  0
M  END
$$$$
