AII.pdb
     RDKit          3D

 22 21  0  0  1  0  0  0  0  0999 V2000
   20.5468  -22.9011   -9.8465 C   0  0  0  0  0  0  0  0  0  0  0  0
   21.2340  -22.0979   -8.7681 C   0  0  2  0  0  0  0  0  0  0  0  0
   20.2322  -21.3517   -8.0647 N   0  0  0  0  0  0  0  0  0  0  0  0
   22.3198  -21.2464   -9.3212 C   0  0  0  0  0  0  0  0  0  0  0  0
   21.9623  -20.1306   -9.7784 O   0  0  0  0  0  0  0  0  0  0  0  0
   26.9943  -20.2637   -6.9991 C   0  0  0  0  0  0  0  0  0  0  0  0
   25.6878  -20.1319   -7.7767 C   0  0  0  0  0  0  0  0  0  0  0  0
   25.8691  -20.6996   -9.1525 C   0  0  2  0  0  0  0  0  0  0  0  0
   27.0661  -20.1109   -9.8661 C   0  0  0  0  0  0  0  0  0  0  0  0
   24.6387  -20.7111   -9.9999 C   0  0  2  0  0  0  0  0  0  0  0  0
   23.6681  -21.6181   -9.3536 N   0  0  0  0  0  0  0  0  0  0  0  0
   24.8217  -21.2053  -11.3862 C   0  0  0  0  0  0  0  0  0  0  0  0
   25.1459  -22.4311  -11.5795 O   0  0  0  0  0  0  0  0  0  0  0  0
   20.9888  -21.6487  -14.7343 C   0  0  0  0  0  0  0  0  0  0  0  0
   22.3370  -21.7702  -14.0433 C   0  0  0  0  0  0  0  0  0  0  0  0
   23.3394  -20.8320  -14.6094 C   0  0  2  0  0  0  0  0  0  0  0  0
   23.6313  -21.3399  -16.0363 C   0  0  0  0  0  0  0  0  0  0  0  0
   24.6905  -20.8626  -13.9148 C   0  0  2  0  0  0  0  0  0  0  0  0
   24.6606  -20.4162  -12.5490 N   0  0  0  0  0  0  0  0  0  0  0  0
   25.6790  -20.1353  -14.6917 C   0  0  0  0  0  0  0  0  0  0  0  0
   25.7341  -18.8617  -14.5973 O   0  0  0  0  0  0  0  0  0  0  0  0
   26.5816  -20.7333  -15.5420 O   0  0  0  0  0  0  0  0  0  0  0  0
  2  1  1  6
  3  2  1  0
  4  2  1  0
  4  5  2  0
  7  6  1  0
  7  8  1  0
  8 10  1  0
  8  9  1  6
 10 11  1  1
 10 12  1  0
 11  4  1  0
 12 19  1  0
 13 12  2  0
 14 15  1  0
 16 17  1  6
 16 18  1  0
 16 15  1  0
 18 20  1  0
 18 19  1  1
 20 21  2  0
 20 22  1  0
M  END
$$$$
