PMI.pdb
     RDKit          3D

 24 24  0  0  1  0  0  0  0  0999 V2000
    8.4427  -15.1703   18.9309 N   0  0  0  0  0  0  0  0  0  0  0  0
    8.7778  -14.3961   17.7495 C   0  0  0  0  0  0  0  0  0  0  0  0
    8.0041  -13.1027   17.8904 C   0  0  0  0  0  0  0  0  0  0  0  0
    7.4028  -13.1648   19.3006 C   0  0  0  0  0  0  0  0  0  0  0  0
    8.3496  -14.1613   19.9416 C   0  0  1  0  0  0  0  0  0  0  0  0
    7.8735  -14.6499   21.2353 C   0  0  0  0  0  0  0  0  0  0  0  0
    7.7067  -13.8330   22.1748 O   0  0  0  0  0  0  0  0  0  0  0  0
    4.4667  -20.6563   23.1168 C   0  0  0  0  0  0  0  0  0  0  0  0
    6.1956  -20.4340   23.5670 S   0  0  0  0  0  0  0  0  0  0  0  0
    6.5970  -18.7167   23.8297 C   0  0  0  0  0  0  0  0  0  0  0  0
    6.9148  -18.0126   22.5584 C   0  0  0  0  0  0  0  0  0  0  0  0
    7.2309  -16.5307   22.7856 C   0  0  2  0  0  0  0  0  0  0  0  0
    7.5890  -16.0150   21.4801 N   0  0  0  0  0  0  0  0  0  0  0  0
    8.2051  -16.2670   23.8277 C   0  0  0  0  0  0  0  0  0  0  0  0
    9.4396  -16.3537   23.5964 O   0  0  0  0  0  0  0  0  0  0  0  0
    8.0285  -12.4912   28.6501 C   0  0  0  0  0  0  0  0  0  0  0  0
    8.6968  -13.6260   27.9336 C   0  0  0  0  0  0  0  0  0  0  0  0
    7.9081  -14.2090   26.8039 C   0  0  2  0  0  0  0  0  0  0  0  0
    6.5412  -14.6879   27.2430 C   0  0  0  0  0  0  0  0  0  0  0  0
    8.6181  -15.4142   26.1466 C   0  0  2  0  0  0  0  0  0  0  0  0
    7.7485  -15.8990   25.1200 N   0  0  0  0  0  0  0  0  0  0  0  0
    8.8505  -16.4426   27.2061 C   0  0  0  0  0  0  0  0  0  0  0  0
    9.9589  -16.3242   28.0120 O   0  0  0  0  0  0  0  0  0  0  0  0
    8.0699  -17.3960   27.3706 O   0  0  0  0  0  0  0  0  0  0  0  0
  1  5  1  0
  1  2  1  0
  2  3  1  0
  4  3  1  0
  5  4  1  0
  6 13  1  0
  5  6  1  1
  7  6  2  0
  8  9  1  0
  9 10  1  0
 10 11  1  0
 12 11  1  6
 12 13  1  0
 14 15  2  0
 14 12  1  0
 16 17  1  0
 17 18  1  0
 18 20  1  0
 18 19  1  1
 20 22  1  0
 20 21  1  6
 21 14  1  0
 22 23  1  0
 24 22  2  0
M  END
$$$$
