PMI.pdb
     RDKit          3D

 24 24  0  0  1  0  0  0  0  0999 V2000
    8.3201  -15.4142   18.6449 N   0  0  0  0  0  0  0  0  0  0  0  0
    8.5250  -14.7700   17.3603 C   0  0  0  0  0  0  0  0  0  0  0  0
    7.7771  -13.4571   17.4513 C   0  0  0  0  0  0  0  0  0  0  0  0
    7.3360  -13.3655   18.9179 C   0  0  0  0  0  0  0  0  0  0  0  0
    8.3440  -14.3059   19.5502 C   0  0  1  0  0  0  0  0  0  0  0  0
    8.0126  -14.6524   20.9319 C   0  0  0  0  0  0  0  0  0  0  0  0
    8.0688  -13.7626   21.8167 O   0  0  0  0  0  0  0  0  0  0  0  0
    7.7121  -20.8856   23.1673 C   0  0  0  0  0  0  0  0  0  0  0  0
    6.3299  -20.0808   23.9938 S   0  0  0  0  0  0  0  0  0  0  0  0
    6.4838  -18.3047   23.9667 C   0  0  0  0  0  0  0  0  0  0  0  0
    6.9694  -17.8023   22.6533 C   0  0  0  0  0  0  0  0  0  0  0  0
    7.1398  -16.2797   22.6477 C   0  0  2  0  0  0  0  0  0  0  0  0
    7.6274  -15.9576   21.3222 N   0  0  0  0  0  0  0  0  0  0  0  0
    7.9448  -15.7514   23.7328 C   0  0  0  0  0  0  0  0  0  0  0  0
    9.1967  -15.8834   23.7334 O   0  0  0  0  0  0  0  0  0  0  0  0
    6.9821  -10.6628   26.9498 C   0  0  0  0  0  0  0  0  0  0  0  0
    7.7414  -11.9479   26.8085 C   0  0  0  0  0  0  0  0  0  0  0  0
    7.1278  -12.9422   25.8742 C   0  0  2  0  0  0  0  0  0  0  0  0
    5.7610  -13.3993   26.3362 C   0  0  0  0  0  0  0  0  0  0  0  0
    7.9947  -14.2109   25.7076 C   0  0  2  0  0  0  0  0  0  0  0  0
    7.3016  -15.0709   24.7993 N   0  0  0  0  0  0  0  0  0  0  0  0
    8.1507  -14.8392   27.0548 C   0  0  0  0  0  0  0  0  0  0  0  0
    7.4641  -15.9994   27.3276 O   0  0  0  0  0  0  0  0  0  0  0  0
    8.8804  -14.3371   27.9270 O   0  0  0  0  0  0  0  0  0  0  0  0
  1  5  1  0
  1  2  1  0
  2  3  1  0
  4  3  1  0
  5  4  1  0
  6 13  1  0
  5  6  1  1
  7  6  2  0
  8  9  1  0
  9 10  1  0
 10 11  1  0
 12 11  1  6
 12 13  1  0
 14 15  2  0
 14 12  1  0
 16 17  1  0
 17 18  1  0
 18 20  1  0
 18 19  1  1
 20 22  1  0
 20 21  1  6
 21 14  1  0
 22 23  1  0
 24 22  2  0
M  END
$$$$
