PMI.pdb
     RDKit          3D

 24 24  0  0  1  0  0  0  0  0999 V2000
    7.6393  -16.8770   20.3900 N   0  0  0  0  0  0  0  0  0  0  0  0
    7.4134  -17.1051   18.9743 C   0  0  0  0  0  0  0  0  0  0  0  0
    7.8318  -15.8194   18.2939 C   0  0  0  0  0  0  0  0  0  0  0  0
    8.4696  -14.9822   19.4103 C   0  0  0  0  0  0  0  0  0  0  0  0
    8.8316  -16.0854   20.3860 C   0  0  1  0  0  0  0  0  0  0  0  0
    9.2200  -15.5787   21.7018 C   0  0  0  0  0  0  0  0  0  0  0  0
   10.4072  -15.2153   21.8922 O   0  0  0  0  0  0  0  0  0  0  0  0
    4.7529  -12.8703   25.3429 C   0  0  0  0  0  0  0  0  0  0  0  0
    6.2467  -12.3398   26.1963 S   0  0  0  0  0  0  0  0  0  0  0  0
    7.6587  -13.3274   25.7378 C   0  0  0  0  0  0  0  0  0  0  0  0
    7.4150  -14.1169   24.5008 C   0  0  0  0  0  0  0  0  0  0  0  0
    8.6584  -14.8976   24.0629 C   0  0  2  0  0  0  0  0  0  0  0  0
    8.3103  -15.4777   22.7820 N   0  0  0  0  0  0  0  0  0  0  0  0
    9.1593  -15.8461   25.0398 C   0  0  0  0  0  0  0  0  0  0  0  0
    8.7537  -17.0378   25.0517 O   0  0  0  0  0  0  0  0  0  0  0  0
   10.8069  -13.3516   29.5156 C   0  0  0  0  0  0  0  0  0  0  0  0
   10.9643  -14.1183   28.2368 C   0  0  0  0  0  0  0  0  0  0  0  0
   10.6033  -15.5676   28.3232 C   0  0  2  0  0  0  0  0  0  0  0  0
   11.4881  -16.3248   29.2897 C   0  0  0  0  0  0  0  0  0  0  0  0
   10.7084  -16.2858   26.9587 C   0  0  2  0  0  0  0  0  0  0  0  0
   10.1259  -15.4150   25.9853 N   0  0  0  0  0  0  0  0  0  0  0  0
    9.9632  -17.5773   27.0622 C   0  0  0  0  0  0  0  0  0  0  0  0
    8.5932  -17.5435   27.1805 O   0  0  0  0  0  0  0  0  0  0  0  0
   10.5520  -18.6720   27.0462 O   0  0  0  0  0  0  0  0  0  0  0  0
  1  5  1  0
  1  2  1  0
  2  3  1  0
  4  3  1  0
  5  4  1  0
  6 13  1  0
  5  6  1  1
  7  6  2  0
  8  9  1  0
  9 10  1  0
 10 11  1  0
 12 11  1  1
 12 13  1  0
 14 15  2  0
 14 12  1  0
 16 17  1  0
 17 18  1  0
 18 20  1  0
 18 19  1  1
 20 22  1  0
 20 21  1  6
 21 14  1  0
 22 23  1  0
 24 22  2  0
M  END
$$$$
