PMI.pdb
     RDKit          3D

 24 24  0  0  1  0  0  0  0  0999 V2000
    7.6164  -15.3615   19.8752 N   0  0  0  0  0  0  0  0  0  0  0  0
    7.4759  -15.1409   18.4474 C   0  0  0  0  0  0  0  0  0  0  0  0
    7.7402  -13.6641   18.2464 C   0  0  0  0  0  0  0  0  0  0  0  0
    8.2167  -13.1676   19.6177 C   0  0  0  0  0  0  0  0  0  0  0  0
    8.6893  -14.4781   20.2171 C   0  0  1  0  0  0  0  0  0  0  0  0
    8.9565  -14.3857   21.6521 C   0  0  0  0  0  0  0  0  0  0  0  0
   10.0723  -13.9598   22.0411 O   0  0  0  0  0  0  0  0  0  0  0  0
    6.7708  -11.1882   26.8142 C   0  0  0  0  0  0  0  0  0  0  0  0
    5.7554  -12.6479   26.5324 S   0  0  0  0  0  0  0  0  0  0  0  0
    6.7376  -14.0568   26.0535 C   0  0  0  0  0  0  0  0  0  0  0  0
    6.7539  -14.2560   24.5793 C   0  0  0  0  0  0  0  0  0  0  0  0
    8.1719  -14.4832   24.0456 C   0  0  2  0  0  0  0  0  0  0  0  0
    8.0059  -14.7579   22.6330 N   0  0  0  0  0  0  0  0  0  0  0  0
    8.9444  -15.4764   24.7678 C   0  0  0  0  0  0  0  0  0  0  0  0
    8.8739  -16.6964   24.4652 O   0  0  0  0  0  0  0  0  0  0  0  0
   10.4620  -13.2832   29.4938 C   0  0  0  0  0  0  0  0  0  0  0  0
   10.5995  -13.9061   28.1370 C   0  0  0  0  0  0  0  0  0  0  0  0
   10.4228  -15.3913   28.1052 C   0  0  2  0  0  0  0  0  0  0  0  0
   11.4705  -16.1135   28.9244 C   0  0  0  0  0  0  0  0  0  0  0  0
   10.4967  -15.9654   26.6721 C   0  0  2  0  0  0  0  0  0  0  0  0
    9.7940  -15.0540   25.8231 N   0  0  0  0  0  0  0  0  0  0  0  0
    9.8553  -17.3154   26.6858 C   0  0  0  0  0  0  0  0  0  0  0  0
   10.6412  -18.4240   26.4724 O   0  0  0  0  0  0  0  0  0  0  0  0
    8.6357  -17.4549   26.8822 O   0  0  0  0  0  0  0  0  0  0  0  0
  1  5  1  0
  1  2  1  0
  2  3  1  0
  4  3  1  0
  5  4  1  0
  6 13  1  0
  5  6  1  1
  7  6  2  0
  8  9  1  0
  9 10  1  0
 10 11  1  0
 12 11  1  1
 12 13  1  0
 14 15  2  0
 14 12  1  0
 16 17  1  0
 17 18  1  0
 18 20  1  0
 18 19  1  1
 20 22  1  0
 20 21  1  6
 21 14  1  0
 22 23  1  0
 24 22  2  0
M  END
$$$$
