PMI.pdb
     RDKit          3D

 24 24  0  0  1  0  0  0  0  0999 V2000
    7.3618  -15.3720   19.8825 N   0  0  0  0  0  0  0  0  0  0  0  0
    7.2530  -15.1489   18.4523 C   0  0  0  0  0  0  0  0  0  0  0  0
    7.6191  -13.6943   18.2490 C   0  0  0  0  0  0  0  0  0  0  0  0
    8.1123  -13.2250   19.6239 C   0  0  0  0  0  0  0  0  0  0  0  0
    8.4880  -14.5618   20.2338 C   0  0  1  0  0  0  0  0  0  0  0  0
    8.7442  -14.4812   21.6715 C   0  0  0  0  0  0  0  0  0  0  0  0
    9.8432  -14.0245   22.0731 O   0  0  0  0  0  0  0  0  0  0  0  0
    6.5911  -11.3363   26.8503 C   0  0  0  0  0  0  0  0  0  0  0  0
    5.5273  -12.7289   26.4375 S   0  0  0  0  0  0  0  0  0  0  0  0
    6.4704  -14.1883   26.0376 C   0  0  0  0  0  0  0  0  0  0  0  0
    6.5075  -14.4502   24.5737 C   0  0  0  0  0  0  0  0  0  0  0  0
    7.9396  -14.6202   24.0563 C   0  0  2  0  0  0  0  0  0  0  0  0
    7.8011  -14.8985   22.6414 N   0  0  0  0  0  0  0  0  0  0  0  0
    8.7421  -15.5836   24.7860 C   0  0  0  0  0  0  0  0  0  0  0  0
    8.8168  -16.7821   24.4080 O   0  0  0  0  0  0  0  0  0  0  0  0
   10.9028  -13.1553   29.2595 C   0  0  0  0  0  0  0  0  0  0  0  0
   10.7923  -13.8787   27.9510 C   0  0  0  0  0  0  0  0  0  0  0  0
   10.5292  -15.3471   28.0636 C   0  0  2  0  0  0  0  0  0  0  0  0
   11.6636  -16.0850   28.7413 C   0  0  0  0  0  0  0  0  0  0  0  0
   10.3145  -16.0170   26.6874 C   0  0  2  0  0  0  0  0  0  0  0  0
    9.4550  -15.1556   25.9361 N   0  0  0  0  0  0  0  0  0  0  0  0
    9.6899  -17.3546   26.9215 C   0  0  0  0  0  0  0  0  0  0  0  0
   10.4592  -18.4827   26.7551 O   0  0  0  0  0  0  0  0  0  0  0  0
    8.4986  -17.4670   27.2584 O   0  0  0  0  0  0  0  0  0  0  0  0
  1  5  1  0
  1  2  1  0
  2  3  1  0
  4  3  1  0
  5  4  1  0
  6 13  1  0
  5  6  1  1
  7  6  2  0
  8  9  1  0
  9 10  1  0
 10 11  1  0
 12 11  1  1
 12 13  1  0
 14 15  2  0
 14 12  1  0
 16 17  1  0
 17 18  1  0
 18 20  1  0
 18 19  1  6
 20 22  1  0
 20 21  1  6
 21 14  1  0
 22 23  1  0
 24 22  2  0
M  END
$$$$
