PMI.pdb
     RDKit          3D

 24 24  0  0  1  0  0  0  0  0999 V2000
    5.3537  -18.6772   23.0783 N   0  0  0  0  0  0  0  0  0  0  0  0
    4.0613  -19.3252   22.9481 C   0  0  0  0  0  0  0  0  0  0  0  0
    3.4582  -18.7560   21.6818 C   0  0  0  0  0  0  0  0  0  0  0  0
    4.5863  -17.9247   21.0573 C   0  0  0  0  0  0  0  0  0  0  0  0
    5.7850  -18.5786   21.7173 C   0  0  1  0  0  0  0  0  0  0  0  0
    7.0220  -17.8203   21.5332 C   0  0  0  0  0  0  0  0  0  0  0  0
    7.6553  -17.9340   20.4544 O   0  0  0  0  0  0  0  0  0  0  0  0
    8.2744  -11.9049   19.6929 C   0  0  0  0  0  0  0  0  0  0  0  0
    6.9834  -13.1256   19.9835 S   0  0  0  0  0  0  0  0  0  0  0  0
    7.3466  -14.1519   21.3955 C   0  0  0  0  0  0  0  0  0  0  0  0
    8.2949  -15.2492   21.0642 C   0  0  0  0  0  0  0  0  0  0  0  0
    8.6721  -16.0751   22.2983 C   0  0  2  0  0  0  0  0  0  0  0  0
    7.5439  -16.9551   22.5249 N   0  0  0  0  0  0  0  0  0  0  0  0
    9.0731  -15.2965   23.4548 C   0  0  0  0  0  0  0  0  0  0  0  0
   10.0801  -14.5423   23.4097 O   0  0  0  0  0  0  0  0  0  0  0  0
    5.8594  -12.3579   26.0449 C   0  0  0  0  0  0  0  0  0  0  0  0
    7.0040  -13.1722   25.5210 C   0  0  0  0  0  0  0  0  0  0  0  0
    7.6529  -14.0675   26.5287 C   0  0  2  0  0  0  0  0  0  0  0  0
    8.2645  -13.2941   27.6768 C   0  0  0  0  0  0  0  0  0  0  0  0
    8.7795  -14.9298   25.9155 C   0  0  2  0  0  0  0  0  0  0  0  0
    8.3070  -15.3883   24.6459 N   0  0  0  0  0  0  0  0  0  0  0  0
    9.0470  -16.0656   26.8495 C   0  0  0  0  0  0  0  0  0  0  0  0
    8.5279  -17.3040   26.5516 O   0  0  0  0  0  0  0  0  0  0  0  0
    9.7216  -15.9141   27.8826 O   0  0  0  0  0  0  0  0  0  0  0  0
  1  5  1  0
  1  2  1  0
  2  3  1  0
  4  3  1  0
  5  4  1  0
  6 13  1  0
  5  6  1  1
  7  6  2  0
  8  9  1  0
  9 10  1  0
 10 11  1  0
 12 11  1  6
 12 13  1  0
 14 15  2  0
 14 12  1  0
 16 17  1  0
 17 18  1  0
 18 20  1  0
 18 19  1  1
 20 22  1  0
 20 21  1  6
 21 14  1  0
 22 23  1  0
 24 22  2  0
M  END
$$$$
