PMI.pdb
     RDKit          3D

 24 24  0  0  1  0  0  0  0  0999 V2000
    9.9990  -16.1553   19.6012 N   0  0  0  0  0  0  0  0  0  0  0  0
    9.7873  -17.0868   18.5082 C   0  0  0  0  0  0  0  0  0  0  0  0
    9.5823  -18.4332   19.1688 C   0  0  0  0  0  0  0  0  0  0  0  0
    9.5046  -18.1191   20.6685 C   0  0  0  0  0  0  0  0  0  0  0  0
    9.1111  -16.6557   20.6059 C   0  0  1  0  0  0  0  0  0  0  0  0
    9.2238  -15.9788   21.8975 C   0  0  0  0  0  0  0  0  0  0  0  0
   10.3481  -15.5665   22.2768 O   0  0  0  0  0  0  0  0  0  0  0  0
    6.5253  -11.2156   25.2986 C   0  0  0  0  0  0  0  0  0  0  0  0
    5.6683  -12.7128   25.8136 S   0  0  0  0  0  0  0  0  0  0  0  0
    6.7455  -14.1335   25.7947 C   0  0  0  0  0  0  0  0  0  0  0  0
    6.8003  -14.7800   24.4560 C   0  0  0  0  0  0  0  0  0  0  0  0
    8.2260  -15.1909   24.0741 C   0  0  2  0  0  0  0  0  0  0  0  0
    8.1130  -15.7646   22.7487 N   0  0  0  0  0  0  0  0  0  0  0  0
    8.8983  -16.0357   25.0430 C   0  0  0  0  0  0  0  0  0  0  0  0
    8.8969  -17.2886   24.9205 O   0  0  0  0  0  0  0  0  0  0  0  0
   10.4317  -13.0899   29.4426 C   0  0  0  0  0  0  0  0  0  0  0  0
   10.5691  -13.9130   28.1970 C   0  0  0  0  0  0  0  0  0  0  0  0
   10.3704  -15.3833   28.3889 C   0  0  2  0  0  0  0  0  0  0  0  0
   11.4352  -15.9979   29.2714 C   0  0  0  0  0  0  0  0  0  0  0  0
   10.3871  -16.1618   27.0538 C   0  0  2  0  0  0  0  0  0  0  0  0
    9.5705  -15.4295   26.1361 N   0  0  0  0  0  0  0  0  0  0  0  0
    9.8393  -17.5280   27.3133 C   0  0  0  0  0  0  0  0  0  0  0  0
   10.7129  -18.5876   27.3915 O   0  0  0  0  0  0  0  0  0  0  0  0
    8.6202  -17.7244   27.4561 O   0  0  0  0  0  0  0  0  0  0  0  0
  1  5  1  0
  1  2  1  0
  2  3  1  0
  4  3  1  0
  5  4  1  0
  6 13  1  0
  5  6  1  1
  7  6  2  0
  8  9  1  0
  9 10  1  0
 10 11  1  0
 12 11  1  1
 12 13  1  0
 14 15  2  0
 14 12  1  0
 16 17  1  0
 17 18  1  0
 18 20  1  0
 18 19  1  1
 20 22  1  0
 20 21  1  6
 21 14  1  0
 22 23  1  0
 24 22  2  0
M  END
$$$$
