PMI.pdb
     RDKit          3D

 24 24  0  0  1  0  0  0  0  0999 V2000
    7.7931  -17.1673   20.2423 N   0  0  0  0  0  0  0  0  0  0  0  0
    7.6894  -17.4297   18.8183 C   0  0  0  0  0  0  0  0  0  0  0  0
    8.1448  -16.1525   18.1456 C   0  0  0  0  0  0  0  0  0  0  0  0
    8.6752  -15.2811   19.2915 C   0  0  0  0  0  0  0  0  0  0  0  0
    8.9702  -16.3569   20.3191 C   0  0  1  0  0  0  0  0  0  0  0  0
    9.2402  -15.8154   21.6506 C   0  0  0  0  0  0  0  0  0  0  0  0
   10.3716  -15.3279   21.8957 O   0  0  0  0  0  0  0  0  0  0  0  0
    5.8613  -11.3195   26.6783 C   0  0  0  0  0  0  0  0  0  0  0  0
    5.6344  -12.9491   25.9475 S   0  0  0  0  0  0  0  0  0  0  0  0
    7.1924  -13.7260   25.5623 C   0  0  0  0  0  0  0  0  0  0  0  0
    7.1377  -14.4958   24.2905 C   0  0  0  0  0  0  0  0  0  0  0  0
    8.4789  -15.1599   23.9625 C   0  0  2  0  0  0  0  0  0  0  0  0
    8.2754  -15.8153   22.6867 N   0  0  0  0  0  0  0  0  0  0  0  0
    9.0064  -16.0187   25.0059 C   0  0  0  0  0  0  0  0  0  0  0  0
    8.7000  -17.2387   25.0563 O   0  0  0  0  0  0  0  0  0  0  0  0
   10.5058  -13.8615   29.9432 C   0  0  0  0  0  0  0  0  0  0  0  0
   10.0712  -14.8335   28.8876 C   0  0  0  0  0  0  0  0  0  0  0  0
   11.1646  -15.3165   27.9880 C   0  0  2  0  0  0  0  0  0  0  0  0
   11.8820  -14.1799   27.2923 C   0  0  0  0  0  0  0  0  0  0  0  0
   10.6462  -16.2653   26.8835 C   0  0  2  0  0  0  0  0  0  0  0  0
    9.8856  -15.4664   25.9733 N   0  0  0  0  0  0  0  0  0  0  0  0
    9.8039  -17.3125   27.5376 C   0  0  0  0  0  0  0  0  0  0  0  0
   10.4264  -18.3690   28.1607 O   0  0  0  0  0  0  0  0  0  0  0  0
    8.5624  -17.2496   27.5276 O   0  0  0  0  0  0  0  0  0  0  0  0
  1  5  1  0
  1  2  1  0
  2  3  1  0
  4  3  1  0
  5  4  1  0
  6 13  1  0
  5  6  1  1
  7  6  2  0
  8  9  1  0
  9 10  1  0
 10 11  1  0
 12 11  1  1
 12 13  1  0
 14 15  2  0
 14 12  1  0
 16 17  1  0
 17 18  1  0
 18 20  1  0
 18 19  1  6
 20 22  1  0
 20 21  1  6
 21 14  1  0
 22 23  1  0
 24 22  2  0
M  END
$$$$
