PMI.pdb
     RDKit          3D

 24 24  0  0  1  0  0  0  0  0999 V2000
    7.9226  -15.6644   19.2897 N   0  0  0  0  0  0  0  0  0  0  0  0
    8.0564  -15.0584   17.9774 C   0  0  0  0  0  0  0  0  0  0  0  0
    7.4320  -13.6858   18.1091 C   0  0  0  0  0  0  0  0  0  0  0  0
    7.1423  -13.5362   19.6083 C   0  0  0  0  0  0  0  0  0  0  0  0
    8.1248  -14.5493   20.1637 C   0  0  1  0  0  0  0  0  0  0  0  0
    7.8995  -14.8466   21.5779 C   0  0  0  0  0  0  0  0  0  0  0  0
    8.0282  -13.9281   22.4249 O   0  0  0  0  0  0  0  0  0  0  0  0
    6.2445  -20.8701   23.2324 C   0  0  0  0  0  0  0  0  0  0  0  0
    6.0663  -20.1041   24.8519 S   0  0  0  0  0  0  0  0  0  0  0  0
    6.4471  -18.3628   24.8076 C   0  0  0  0  0  0  0  0  0  0  0  0
    6.8307  -17.9056   23.4449 C   0  0  0  0  0  0  0  0  0  0  0  0
    7.1741  -16.4127   23.4151 C   0  0  2  0  0  0  0  0  0  0  0  0
    7.5395  -16.1351   22.0410 N   0  0  0  0  0  0  0  0  0  0  0  0
    8.1546  -15.9919   24.3980 C   0  0  0  0  0  0  0  0  0  0  0  0
    9.3767  -16.2529   24.2457 O   0  0  0  0  0  0  0  0  0  0  0  0
    6.2391  -11.5417   26.6536 C   0  0  0  0  0  0  0  0  0  0  0  0
    7.1287  -12.6015   26.0764 C   0  0  0  0  0  0  0  0  0  0  0  0
    7.8341  -13.4502   27.0865 C   0  0  2  0  0  0  0  0  0  0  0  0
    8.8238  -12.6583   27.9135 C   0  0  0  0  0  0  0  0  0  0  0  0
    8.6179  -14.6137   26.4379 C   0  0  2  0  0  0  0  0  0  0  0  0
    7.7192  -15.2695   25.5393 N   0  0  0  0  0  0  0  0  0  0  0  0
    9.0711  -15.5264   27.5313 C   0  0  0  0  0  0  0  0  0  0  0  0
    8.3187  -16.6418   27.8172 O   0  0  0  0  0  0  0  0  0  0  0  0
   10.1045  -15.2981   28.1836 O   0  0  0  0  0  0  0  0  0  0  0  0
  1  5  1  0
  1  2  1  0
  2  3  1  0
  4  3  1  0
  5  4  1  0
  6 13  1  0
  5  6  1  1
  7  6  2  0
  8  9  1  0
  9 10  1  0
 10 11  1  0
 12 11  1  6
 12 13  1  0
 14 15  2  0
 14 12  1  0
 16 17  1  0
 17 18  1  0
 18 20  1  0
 18 19  1  6
 20 22  1  0
 20 21  1  6
 21 14  1  0
 22 23  1  0
 24 22  2  0
M  END
$$$$
