PMI.pdb
     RDKit          3D

 24 24  0  0  1  0  0  0  0  0999 V2000
    8.4133  -15.8780   19.5759 N   0  0  0  0  0  0  0  0  0  0  0  0
    8.8289  -16.5175   18.3408 C   0  0  0  0  0  0  0  0  0  0  0  0
   10.3371  -16.6101   18.4303 C   0  0  0  0  0  0  0  0  0  0  0  0
   10.6666  -16.1628   19.8604 C   0  0  0  0  0  0  0  0  0  0  0  0
    9.3306  -16.4262   20.5280 C   0  0  1  0  0  0  0  0  0  0  0  0
    9.2336  -15.8367   21.8629 C   0  0  0  0  0  0  0  0  0  0  0  0
    9.8136  -14.7470   22.0948 O   0  0  0  0  0  0  0  0  0  0  0  0
    6.8050  -12.0905   25.0857 C   0  0  0  0  0  0  0  0  0  0  0  0
    6.1880  -13.6757   25.6756 S   0  0  0  0  0  0  0  0  0  0  0  0
    6.1409  -14.8946   24.3751 C   0  0  0  0  0  0  0  0  0  0  0  0
    6.9789  -16.0833   24.6879 C   0  0  0  0  0  0  0  0  0  0  0  0
    8.4354  -15.8901   24.2533 C   0  0  2  0  0  0  0  0  0  0  0  0
    8.5089  -16.4439   22.9168 N   0  0  0  0  0  0  0  0  0  0  0  0
    9.4231  -16.4118   25.1790 C   0  0  0  0  0  0  0  0  0  0  0  0
   10.0576  -17.4680   24.9207 O   0  0  0  0  0  0  0  0  0  0  0  0
   10.2013  -12.8045   29.2968 C   0  0  0  0  0  0  0  0  0  0  0  0
   10.5657  -13.7651   28.2049 C   0  0  0  0  0  0  0  0  0  0  0  0
   10.4774  -15.2101   28.5822 C   0  0  2  0  0  0  0  0  0  0  0  0
   11.5448  -15.6117   29.5771 C   0  0  0  0  0  0  0  0  0  0  0  0
   10.6209  -16.1497   27.3634 C   0  0  2  0  0  0  0  0  0  0  0  0
    9.6749  -15.7088   26.3858 N   0  0  0  0  0  0  0  0  0  0  0  0
   10.3335  -17.5427   27.8227 C   0  0  0  0  0  0  0  0  0  0  0  0
    9.0230  -17.9427   27.9442 O   0  0  0  0  0  0  0  0  0  0  0  0
   11.2474  -18.3395   28.0970 O   0  0  0  0  0  0  0  0  0  0  0  0
  1  5  1  0
  1  2  1  0
  2  3  1  0
  4  3  1  0
  5  4  1  0
  6 13  1  0
  5  6  1  1
  7  6  2  0
  8  9  1  0
  9 10  1  0
 10 11  1  0
 12 11  1  1
 12 13  1  0
 14 15  2  0
 14 12  1  0
 16 17  1  0
 17 18  1  0
 18 20  1  0
 18 19  1  1
 20 22  1  0
 20 21  1  6
 21 14  1  0
 22 23  1  0
 24 22  2  0
M  END
$$$$
