PMI.pdb
     RDKit          3D

 24 24  0  0  1  0  0  0  0  0999 V2000
    8.4062  -16.9189   20.4352 N   0  0  0  0  0  0  0  0  0  0  0  0
    7.9926  -17.1743   19.0674 C   0  0  0  0  0  0  0  0  0  0  0  0
    7.3205  -15.8970   18.6114 C   0  0  0  0  0  0  0  0  0  0  0  0
    7.5796  -14.8984   19.7469 C   0  0  0  0  0  0  0  0  0  0  0  0
    8.7952  -15.5425   20.3852 C   0  0  1  0  0  0  0  0  0  0  0  0
    9.1292  -14.9656   21.6870 C   0  0  0  0  0  0  0  0  0  0  0  0
    9.4478  -13.7526   21.7558 O   0  0  0  0  0  0  0  0  0  0  0  0
    6.1744  -11.8340   26.8314 C   0  0  0  0  0  0  0  0  0  0  0  0
    6.9192  -12.4573   25.3154 S   0  0  0  0  0  0  0  0  0  0  0  0
    6.4965  -14.1645   25.0221 C   0  0  0  0  0  0  0  0  0  0  0  0
    7.1798  -14.7145   23.8205 C   0  0  0  0  0  0  0  0  0  0  0  0
    8.5957  -15.2057   24.1389 C   0  0  2  0  0  0  0  0  0  0  0  0
    9.1097  -15.7190   22.8856 N   0  0  0  0  0  0  0  0  0  0  0  0
    8.6850  -16.1308   25.2529 C   0  0  0  0  0  0  0  0  0  0  0  0
    8.3866  -17.3456   25.1107 O   0  0  0  0  0  0  0  0  0  0  0  0
   10.0866  -13.0937   29.4955 C   0  0  0  0  0  0  0  0  0  0  0  0
   10.4155  -13.9328   28.2974 C   0  0  0  0  0  0  0  0  0  0  0  0
   10.3799  -15.4096   28.5341 C   0  0  2  0  0  0  0  0  0  0  0  0
   11.6316  -15.9131   29.2199 C   0  0  0  0  0  0  0  0  0  0  0  0
   10.2288  -16.2154   27.2239 C   0  0  2  0  0  0  0  0  0  0  0  0
    9.1236  -15.6498   26.5139 N   0  0  0  0  0  0  0  0  0  0  0  0
    9.9790  -17.6427   27.5902 C   0  0  0  0  0  0  0  0  0  0  0  0
    8.6846  -18.1081   27.5956 O   0  0  0  0  0  0  0  0  0  0  0  0
   10.9096  -18.4105   27.8899 O   0  0  0  0  0  0  0  0  0  0  0  0
  1  5  1  0
  1  2  1  0
  2  3  1  0
  4  3  1  0
  5  4  1  0
  6 13  1  0
  5  6  1  1
  7  6  2  0
  8  9  1  0
  9 10  1  0
 10 11  1  0
 12 11  1  6
 12 13  1  0
 14 15  2  0
 14 12  1  0
 16 17  1  0
 17 18  1  0
 18 20  1  0
 18 19  1  6
 20 22  1  0
 20 21  1  1
 21 14  1  0
 22 23  1  0
 24 22  2  0
M  END
$$$$
