PMI.pdb
     RDKit          3D

 24 24  0  0  1  0  0  0  0  0999 V2000
    7.3785  -15.4342   19.8893 N   0  0  0  0  0  0  0  0  0  0  0  0
    7.2054  -15.2530   18.4595 C   0  0  0  0  0  0  0  0  0  0  0  0
    7.6730  -13.8408   18.1794 C   0  0  0  0  0  0  0  0  0  0  0  0
    8.2802  -13.3655   19.5058 C   0  0  0  0  0  0  0  0  0  0  0  0
    8.5836  -14.7063   20.1463 C   0  0  1  0  0  0  0  0  0  0  0  0
    8.9279  -14.5968   21.5635 C   0  0  0  0  0  0  0  0  0  0  0  0
   10.0985  -14.2752   21.8863 O   0  0  0  0  0  0  0  0  0  0  0  0
    5.6618  -10.8452   26.4829 C   0  0  0  0  0  0  0  0  0  0  0  0
    5.4707  -12.6340   26.4130 S   0  0  0  0  0  0  0  0  0  0  0  0
    6.9708  -13.4412   25.8864 C   0  0  0  0  0  0  0  0  0  0  0  0
    6.8861  -13.9248   24.4821 C   0  0  0  0  0  0  0  0  0  0  0  0
    8.2260  -14.4737   23.9814 C   0  0  2  0  0  0  0  0  0  0  0  0
    7.9933  -14.8389   22.5990 N   0  0  0  0  0  0  0  0  0  0  0  0
    8.7970  -15.5286   24.7974 C   0  0  0  0  0  0  0  0  0  0  0  0
    8.4659  -16.7309   24.6251 O   0  0  0  0  0  0  0  0  0  0  0  0
   10.2384  -13.5458   29.5390 C   0  0  0  0  0  0  0  0  0  0  0  0
   10.3991  -14.1323   28.1686 C   0  0  0  0  0  0  0  0  0  0  0  0
   10.2358  -15.6177   28.0965 C   0  0  2  0  0  0  0  0  0  0  0  0
   11.2642  -16.3512   28.9300 C   0  0  0  0  0  0  0  0  0  0  0  0
   10.3579  -16.1570   26.6532 C   0  0  2  0  0  0  0  0  0  0  0  0
    9.7471  -15.1893   25.7954 N   0  0  0  0  0  0  0  0  0  0  0  0
    9.6513  -17.4727   26.5945 C   0  0  0  0  0  0  0  0  0  0  0  0
   10.3917  -18.6132   26.3869 O   0  0  0  0  0  0  0  0  0  0  0  0
    8.4179  -17.5560   26.7260 O   0  0  0  0  0  0  0  0  0  0  0  0
  1  5  1  0
  1  2  1  0
  2  3  1  0
  4  3  1  0
  5  4  1  0
  6 13  1  0
  5  6  1  1
  7  6  2  0
  8  9  1  0
  9 10  1  0
 10 11  1  0
 12 11  1  1
 12 13  1  0
 14 15  2  0
 14 12  1  0
 16 17  1  0
 17 18  1  0
 18 20  1  0
 18 19  1  1
 20 22  1  0
 20 21  1  6
 21 14  1  0
 22 23  1  0
 24 22  2  0
M  END
$$$$
