PMI.pdb
     RDKit          3D

 24 24  0  0  1  0  0  0  0  0999 V2000
    7.8605  -15.0006   18.6705 N   0  0  0  0  0  0  0  0  0  0  0  0
    8.1441  -14.2680   17.4498 C   0  0  0  0  0  0  0  0  0  0  0  0
    7.7336  -12.8402   17.7399 C   0  0  0  0  0  0  0  0  0  0  0  0
    7.4044  -12.8305   19.2384 C   0  0  0  0  0  0  0  0  0  0  0  0
    8.1934  -14.0466   19.6841 C   0  0  1  0  0  0  0  0  0  0  0  0
    7.8626  -14.4747   21.0430 C   0  0  0  0  0  0  0  0  0  0  0  0
    8.0386  -13.6763   21.9965 O   0  0  0  0  0  0  0  0  0  0  0  0
    4.6267  -20.1196   22.4625 C   0  0  0  0  0  0  0  0  0  0  0  0
    4.1302  -18.9138   21.2212 S   0  0  0  0  0  0  0  0  0  0  0  0
    5.0235  -17.3801   21.3917 C   0  0  0  0  0  0  0  0  0  0  0  0
    6.1075  -17.4705   22.4065 C   0  0  0  0  0  0  0  0  0  0  0  0
    6.8013  -16.1225   22.6280 C   0  0  2  0  0  0  0  0  0  0  0  0
    7.3479  -15.7606   21.3362 N   0  0  0  0  0  0  0  0  0  0  0  0
    7.7591  -16.1005   23.7173 C   0  0  0  0  0  0  0  0  0  0  0  0
    8.9539  -16.4532   23.5356 O   0  0  0  0  0  0  0  0  0  0  0  0
    6.4655  -11.9809   26.7481 C   0  0  0  0  0  0  0  0  0  0  0  0
    7.1804  -13.0811   26.0227 C   0  0  0  0  0  0  0  0  0  0  0  0
    7.6185  -14.2227   26.8847 C   0  0  2  0  0  0  0  0  0  0  0  0
    8.6475  -13.8058   27.9132 C   0  0  0  0  0  0  0  0  0  0  0  0
    8.2410  -15.3769   26.0667 C   0  0  2  0  0  0  0  0  0  0  0  0
    7.3338  -15.6657   24.9995 N   0  0  0  0  0  0  0  0  0  0  0  0
    8.4102  -16.5471   26.9810 C   0  0  0  0  0  0  0  0  0  0  0  0
    9.5920  -16.6820   27.6718 O   0  0  0  0  0  0  0  0  0  0  0  0
    7.5128  -17.3949   27.1265 O   0  0  0  0  0  0  0  0  0  0  0  0
  1  5  1  0
  1  2  1  0
  2  3  1  0
  4  3  1  0
  5  4  1  0
  6 13  1  0
  5  6  1  1
  7  6  2  0
  8  9  1  0
  9 10  1  0
 10 11  1  0
 12 11  1  6
 12 13  1  0
 14 15  2  0
 14 12  1  0
 16 17  1  0
 17 18  1  0
 18 20  1  0
 18 19  1  1
 20 22  1  0
 20 21  1  6
 21 14  1  0
 22 23  1  0
 24 22  2  0
M  END
$$$$
