PMI.pdb
     RDKit          3D

 24 24  0  0  1  0  0  0  0  0999 V2000
    7.3281  -15.3334   20.1010 N   0  0  0  0  0  0  0  0  0  0  0  0
    7.0846  -15.2200   18.6744 C   0  0  0  0  0  0  0  0  0  0  0  0
    7.6135  -13.8551   18.2892 C   0  0  0  0  0  0  0  0  0  0  0  0
    8.3204  -13.3451   19.5518 C   0  0  0  0  0  0  0  0  0  0  0  0
    8.5845  -14.6647   20.2510 C   0  0  1  0  0  0  0  0  0  0  0  0
    9.0141  -14.4989   21.6392 C   0  0  0  0  0  0  0  0  0  0  0  0
   10.2173  -14.2304   21.8800 O   0  0  0  0  0  0  0  0  0  0  0  0
    4.9143  -11.8210   25.4549 C   0  0  0  0  0  0  0  0  0  0  0  0
    6.2374  -12.0166   26.6601 S   0  0  0  0  0  0  0  0  0  0  0  0
    7.5099  -13.1199   26.0748 C   0  0  0  0  0  0  0  0  0  0  0  0
    7.3029  -13.5146   24.6555 C   0  0  0  0  0  0  0  0  0  0  0  0
    8.4943  -14.3000   24.0977 C   0  0  2  0  0  0  0  0  0  0  0  0
    8.1275  -14.6285   22.7353 N   0  0  0  0  0  0  0  0  0  0  0  0
    8.9086  -15.4339   24.9021 C   0  0  0  0  0  0  0  0  0  0  0  0
    8.5357  -16.6016   24.6153 O   0  0  0  0  0  0  0  0  0  0  0  0
   10.9666  -13.6375   29.6012 C   0  0  0  0  0  0  0  0  0  0  0  0
   10.9655  -14.3054   28.2590 C   0  0  0  0  0  0  0  0  0  0  0  0
   10.4474  -15.7089   28.2546 C   0  0  2  0  0  0  0  0  0  0  0  0
   11.3582  -16.6612   28.9989 C   0  0  0  0  0  0  0  0  0  0  0  0
   10.2772  -16.2724   26.8255 C   0  0  2  0  0  0  0  0  0  0  0  0
    9.7529  -15.2125   26.0211 N   0  0  0  0  0  0  0  0  0  0  0  0
    9.3345  -17.4298   26.8987 C   0  0  0  0  0  0  0  0  0  0  0  0
    9.8309  -18.7003   26.7213 O   0  0  0  0  0  0  0  0  0  0  0  0
    8.1205  -17.2684   27.1125 O   0  0  0  0  0  0  0  0  0  0  0  0
  1  5  1  0
  1  2  1  0
  2  3  1  0
  4  3  1  0
  5  4  1  0
  6 13  1  0
  5  6  1  1
  7  6  2  0
  8  9  1  0
  9 10  1  0
 10 11  1  0
 12 11  1  1
 12 13  1  0
 14 15  2  0
 14 12  1  0
 16 17  1  0
 17 18  1  0
 18 20  1  0
 18 19  1  1
 20 22  1  0
 20 21  1  6
 21 14  1  0
 22 23  1  0
 24 22  2  0
M  END
$$$$
