PMI.pdb
     RDKit          3D

 24 24  0  0  1  0  0  0  0  0999 V2000
    7.7611  -16.4765   20.3029 N   0  0  0  0  0  0  0  0  0  0  0  0
    7.6927  -16.6039   18.8586 C   0  0  0  0  0  0  0  0  0  0  0  0
    8.1254  -15.2567   18.3208 C   0  0  0  0  0  0  0  0  0  0  0  0
    8.6089  -14.4857   19.5560 C   0  0  0  0  0  0  0  0  0  0  0  0
    8.9135  -15.6471   20.4826 C   0  0  1  0  0  0  0  0  0  0  0  0
    9.1423  -15.2289   21.8654 C   0  0  0  0  0  0  0  0  0  0  0  0
   10.2717  -14.7874   22.1928 O   0  0  0  0  0  0  0  0  0  0  0  0
    5.6701  -11.1217   25.6652 C   0  0  0  0  0  0  0  0  0  0  0  0
    5.5925  -12.7452   26.4395 S   0  0  0  0  0  0  0  0  0  0  0  0
    7.0187  -13.7386   26.0418 C   0  0  0  0  0  0  0  0  0  0  0  0
    7.0112  -14.1914   24.6247 C   0  0  0  0  0  0  0  0  0  0  0  0
    8.3375  -14.8447   24.2231 C   0  0  2  0  0  0  0  0  0  0  0  0
    8.1393  -15.2996   22.8621 N   0  0  0  0  0  0  0  0  0  0  0  0
    8.8176  -15.8639   25.1371 C   0  0  0  0  0  0  0  0  0  0  0  0
    8.7546  -17.0847   24.8360 O   0  0  0  0  0  0  0  0  0  0  0  0
   10.6056  -13.3438   29.6446 C   0  0  0  0  0  0  0  0  0  0  0  0
   10.7351  -14.1087   28.3616 C   0  0  0  0  0  0  0  0  0  0  0  0
   10.5089  -15.5826   28.4819 C   0  0  2  0  0  0  0  0  0  0  0  0
   11.6620  -16.2886   29.1618 C   0  0  0  0  0  0  0  0  0  0  0  0
   10.3094  -16.2645   27.1092 C   0  0  2  0  0  0  0  0  0  0  0  0
    9.3713  -15.4668   26.3819 N   0  0  0  0  0  0  0  0  0  0  0  0
    9.7896  -17.6443   27.3544 C   0  0  0  0  0  0  0  0  0  0  0  0
   10.6573  -18.7066   27.2514 O   0  0  0  0  0  0  0  0  0  0  0  0
    8.5984  -17.8493   27.6447 O   0  0  0  0  0  0  0  0  0  0  0  0
  1  5  1  0
  1  2  1  0
  2  3  1  0
  4  3  1  0
  5  4  1  0
  6 13  1  0
  5  6  1  1
  7  6  2  0
  8  9  1  0
  9 10  1  0
 10 11  1  0
 12 11  1  1
 12 13  1  0
 14 15  2  0
 14 12  1  0
 16 17  1  0
 17 18  1  0
 18 20  1  0
 18 19  1  6
 20 22  1  0
 20 21  1  6
 21 14  1  0
 22 23  1  0
 24 22  2  0
M  END
$$$$
