CFT.pdb
     RDKit          3D

 25 25  0  0  1  0  0  0  0  0999 V2000
   21.3311  -20.6074  -10.9752 N   0  0  0  0  0  0  0  0  0  0  0  0
   22.1541  -21.4147  -11.8211 C   0  0  1  0  0  0  0  0  0  0  0  0
   21.4849  -21.7575  -13.1300 C   0  0  0  0  0  0  0  0  0  0  0  0
   20.2268  -23.0366  -12.8633 S   0  0  0  0  0  0  0  0  0  0  0  0
   23.4151  -20.6588  -12.1541 C   0  0  0  0  0  0  0  0  0  0  0  0
   23.3563  -19.4272  -12.3796 O   0  0  0  0  0  0  0  0  0  0  0  0
   24.6686  -21.2984  -12.2206 N   0  0  0  0  0  0  0  0  0  0  0  0
   25.8886  -20.5790  -12.4344 C   0  0  1  0  0  0  0  0  0  0  0  0
   27.0369  -20.9958  -11.5782 C   0  0  0  0  0  0  0  0  0  0  0  0
   26.8429  -20.6197  -10.1548 C   0  0  0  0  0  0  0  0  0  0  0  0
   27.1126  -21.5684   -9.1921 C   0  0  0  0  0  0  0  0  0  0  0  0
   26.9254  -21.1967   -7.8775 C   0  0  0  0  0  0  0  0  0  0  0  0
   26.4878  -19.9336   -7.5304 C   0  0  0  0  0  0  0  0  0  0  0  0
   26.2238  -19.0024   -8.4914 C   0  0  0  0  0  0  0  0  0  0  0  0
   26.4066  -19.3597   -9.8121 C   0  0  0  0  0  0  0  0  0  0  0  0
   26.2566  -20.5756  -13.8980 C   0  0  0  0  0  0  0  0  0  0  0  0
   26.6332  -21.6414  -14.4367 O   0  0  0  0  0  0  0  0  0  0  0  0
   24.1633  -19.6945  -16.8198 C   0  0  0  0  0  0  0  0  0  0  0  0
   25.3890  -18.8125  -16.8882 C   0  0  1  0  0  0  0  0  0  0  0  0
   25.0759  -17.5636  -16.3541 O   0  0  0  0  0  0  0  0  0  0  0  0
   26.4787  -19.4825  -16.0787 C   0  0  2  0  0  0  0  0  0  0  0  0
   26.1890  -19.4063  -14.6791 N   0  0  0  0  0  0  0  0  0  0  0  0
   27.7622  -18.8152  -16.3522 C   0  0  0  0  0  0  0  0  0  0  0  0
   28.3059  -18.8319  -17.6265 O   0  0  0  0  0  0  0  0  0  0  0  0
   28.3622  -18.2307  -15.4252 O   0  0  0  0  0  0  0  0  0  0  0  0
  2  5  1  0
  2  1  1  1
  3  2  1  0
  4  3  1  0
  5  6  2  0
  7  8  1  0
  7  5  1  0
  8  9  1  1
  9 10  1  0
 10 15  2  0
 11 10  1  0
 11 12  2  0
 12 13  1  0
 13 14  2  0
 15 14  1  0
 16 17  2  0
 16  8  1  0
 19 18  1  1
 19 21  1  0
 20 19  1  0
 21 23  1  0
 21 22  1  1
 22 16  1  0
 23 24  1  0
 25 23  2  0
M  END
$$$$
