CFT.pdb
     RDKit          3D

 25 25  0  0  1  0  0  0  0  0999 V2000
   18.5768  -13.2519  -17.8113 N   0  0  0  0  0  0  0  0  0  0  0  0
   19.0616  -12.0588  -18.4326 C   0  0  1  0  0  0  0  0  0  0  0  0
   18.1111  -11.5154  -19.4719 C   0  0  0  0  0  0  0  0  0  0  0  0
   18.0812  -12.6140  -20.9149 S   0  0  0  0  0  0  0  0  0  0  0  0
   19.2306  -10.9877  -17.3854 C   0  0  0  0  0  0  0  0  0  0  0  0
   18.3459  -10.8326  -16.5113 O   0  0  0  0  0  0  0  0  0  0  0  0
   20.3617  -10.1481  -17.3580 N   0  0  0  0  0  0  0  0  0  0  0  0
   20.5037   -9.0801  -16.4141 C   0  0  1  0  0  0  0  0  0  0  0  0
   21.8538   -8.9489  -15.7933 C   0  0  0  0  0  0  0  0  0  0  0  0
   21.9206   -7.8255  -14.8244 C   0  0  0  0  0  0  0  0  0  0  0  0
   21.5105   -8.0620  -13.5300 C   0  0  0  0  0  0  0  0  0  0  0  0
   21.5815   -7.0044  -12.6481 C   0  0  0  0  0  0  0  0  0  0  0  0
   22.0411   -5.7605  -13.0340 C   0  0  0  0  0  0  0  0  0  0  0  0
   22.4445   -5.5376  -14.3177 C   0  0  0  0  0  0  0  0  0  0  0  0
   22.3793   -6.5868  -15.2123 C   0  0  0  0  0  0  0  0  0  0  0  0
   20.0347   -7.7753  -17.0101 C   0  0  0  0  0  0  0  0  0  0  0  0
   20.5371   -7.3786  -18.0863 O   0  0  0  0  0  0  0  0  0  0  0  0
   16.8124   -6.6137  -18.3021 C   0  0  0  0  0  0  0  0  0  0  0  0
   17.1721   -5.6683  -17.1788 C   0  0  1  0  0  0  0  0  0  0  0  0
   16.5057   -6.0690  -16.0218 O   0  0  0  0  0  0  0  0  0  0  0  0
   18.6716   -5.7404  -16.9846 C   0  0  2  0  0  0  0  0  0  0  0  0
   19.0458   -6.9878  -16.3907 N   0  0  0  0  0  0  0  0  0  0  0  0
   19.0989   -4.6333  -16.1134 C   0  0  0  0  0  0  0  0  0  0  0  0
   19.5317   -4.8823  -14.8209 O   0  0  0  0  0  0  0  0  0  0  0  0
   19.0695   -3.4619  -16.5470 O   0  0  0  0  0  0  0  0  0  0  0  0
  2  5  1  0
  2  1  1  1
  3  2  1  0
  4  3  1  0
  5  6  2  0
  7  8  1  0
  7  5  1  0
  8  9  1  6
  9 10  1  0
 10 15  2  0
 11 10  1  0
 11 12  2  0
 12 13  1  0
 13 14  2  0
 15 14  1  0
 16 17  2  0
 16  8  1  0
 19 18  1  6
 19 21  1  0
 20 19  1  0
 21 23  1  0
 21 22  1  1
 22 16  1  0
 23 24  1  0
 25 23  2  0
M  END
$$$$
