CFT.pdb
     RDKit          3D

 25 25  0  0  1  0  0  0  0  0999 V2000
   32.6588  -25.4390  -18.5081 N   0  0  0  0  0  0  0  0  0  0  0  0
   31.5862  -26.0229  -19.2519 C   0  0  1  0  0  0  0  0  0  0  0  0
   31.9544  -27.3561  -19.8566 C   0  0  0  0  0  0  0  0  0  0  0  0
   32.6750  -27.1089  -21.5028 S   0  0  0  0  0  0  0  0  0  0  0  0
   30.4171  -26.2632  -18.3310 C   0  0  0  0  0  0  0  0  0  0  0  0
   30.6260  -26.5913  -17.1395 O   0  0  0  0  0  0  0  0  0  0  0  0
   29.0854  -26.1294  -18.7711 N   0  0  0  0  0  0  0  0  0  0  0  0
   27.9649  -26.3174  -17.8991 C   0  0  1  0  0  0  0  0  0  0  0  0
   26.9087  -25.2668  -17.9771 C   0  0  0  0  0  0  0  0  0  0  0  0
   25.7600  -25.5563  -17.0815 C   0  0  0  0  0  0  0  0  0  0  0  0
   25.8680  -25.1996  -15.7547 C   0  0  0  0  0  0  0  0  0  0  0  0
   24.7892  -25.4781  -14.9422 C   0  0  0  0  0  0  0  0  0  0  0  0
   23.6477  -26.0865  -15.4259 C   0  0  0  0  0  0  0  0  0  0  0  0
   23.5516  -26.4352  -16.7410 C   0  0  0  0  0  0  0  0  0  0  0  0
   24.6235  -26.1629  -17.5670 C   0  0  0  0  0  0  0  0  0  0  0  0
   27.3874  -27.7021  -18.0632 C   0  0  0  0  0  0  0  0  0  0  0  0
   27.1153  -28.1193  -19.2121 O   0  0  0  0  0  0  0  0  0  0  0  0
   26.6424  -32.1484  -16.2320 C   0  0  0  0  0  0  0  0  0  0  0  0
   27.2892  -30.7917  -16.0705 C   0  0  1  0  0  0  0  0  0  0  0  0
   28.6728  -30.9395  -16.1532 O   0  0  0  0  0  0  0  0  0  0  0  0
   26.7780  -29.9069  -17.1874 C   0  0  2  0  0  0  0  0  0  0  0  0
   27.1445  -28.5422  -16.9600 N   0  0  0  0  0  0  0  0  0  0  0  0
   25.3117  -30.0172  -17.2574 C   0  0  0  0  0  0  0  0  0  0  0  0
   24.7145  -31.1921  -17.6851 O   0  0  0  0  0  0  0  0  0  0  0  0
   24.6043  -29.0415  -16.9278 O   0  0  0  0  0  0  0  0  0  0  0  0
  2  5  1  0
  2  1  1  1
  3  2  1  0
  4  3  1  0
  5  6  2  0
  7  8  1  0
  7  5  1  0
  8  9  1  6
  9 10  1  0
 10 15  2  0
 11 10  1  0
 11 12  2  0
 12 13  1  0
 13 14  2  0
 15 14  1  0
 16 17  2  0
 16  8  1  0
 19 18  1  6
 19 21  1  0
 20 19  1  0
 21 23  1  0
 21 22  1  1
 22 16  1  0
 23 24  1  0
 25 23  2  0
M  END
$$$$
