CFT.pdb
     RDKit          3D

 25 25  0  0  1  0  0  0  0  0999 V2000
   28.7503  -20.6096  -14.8476 N   0  0  0  0  0  0  0  0  0  0  0  0
   28.3842  -19.9271  -13.6455 C   0  0  1  0  0  0  0  0  0  0  0  0
   28.0139  -18.4834  -13.8848 C   0  0  0  0  0  0  0  0  0  0  0  0
   26.8428  -18.3675  -15.2650 S   0  0  0  0  0  0  0  0  0  0  0  0
   27.1772  -20.5987  -13.0417 C   0  0  0  0  0  0  0  0  0  0  0  0
   26.6452  -21.5652  -13.6366 O   0  0  0  0  0  0  0  0  0  0  0  0
   26.6232  -20.1706  -11.8191 N   0  0  0  0  0  0  0  0  0  0  0  0
   25.4942  -20.8158  -11.2187 C   0  0  1  0  0  0  0  0  0  0  0  0
   25.3229  -20.5776   -9.7561 C   0  0  0  0  0  0  0  0  0  0  0  0
   26.6233  -20.4917   -9.0440 C   0  0  0  0  0  0  0  0  0  0  0  0
   27.6739  -21.2446   -9.5221 C   0  0  0  0  0  0  0  0  0  0  0  0
   28.8714  -21.1489   -8.8451 C   0  0  0  0  0  0  0  0  0  0  0  0
   29.0218  -20.3383   -7.7371 C   0  0  0  0  0  0  0  0  0  0  0  0
   27.9751  -19.5973   -7.2725 C   0  0  0  0  0  0  0  0  0  0  0  0
   26.7698  -19.6826   -7.9398 C   0  0  0  0  0  0  0  0  0  0  0  0
   24.2320  -20.5058  -11.9858 C   0  0  0  0  0  0  0  0  0  0  0  0
   23.8786  -19.3126  -12.1258 O   0  0  0  0  0  0  0  0  0  0  0  0
   23.4781  -22.0100  -15.4029 C   0  0  0  0  0  0  0  0  0  0  0  0
   22.2307  -22.1411  -14.5591 C   0  0  1  0  0  0  0  0  0  0  0  0
   22.1437  -23.4484  -14.0834 O   0  0  0  0  0  0  0  0  0  0  0  0
   22.3513  -21.1612  -13.4116 C   0  0  2  0  0  0  0  0  0  0  0  0
   23.4370  -21.5208  -12.5510 N   0  0  0  0  0  0  0  0  0  0  0  0
   21.0950  -21.1601  -12.6441 C   0  0  0  0  0  0  0  0  0  0  0  0
   19.9061  -20.7744  -13.2421 O   0  0  0  0  0  0  0  0  0  0  0  0
   21.1056  -21.5104  -11.4449 O   0  0  0  0  0  0  0  0  0  0  0  0
  2  5  1  0
  2  1  1  6
  3  2  1  0
  4  3  1  0
  5  6  2  0
  7  8  1  0
  7  5  1  0
  8  9  1  1
  9 10  1  0
 10 15  2  0
 11 10  1  0
 11 12  2  0
 12 13  1  0
 13 14  2  0
 15 14  1  0
 16 17  2  0
 16  8  1  0
 19 18  1  6
 19 21  1  0
 20 19  1  0
 21 23  1  0
 21 22  1  1
 22 16  1  0
 23 24  1  0
 25 23  2  0
M  END
$$$$
