CFT.pdb
     RDKit          3D

 25 25  0  0  1  0  0  0  0  0999 V2000
   19.5928  -13.3592  -18.1537 N   0  0  0  0  0  0  0  0  0  0  0  0
   19.8168  -12.0720  -18.7348 C   0  0  1  0  0  0  0  0  0  0  0  0
   18.7380  -11.6795  -19.7150 C   0  0  0  0  0  0  0  0  0  0  0  0
   18.7944  -12.7697  -21.1636 S   0  0  0  0  0  0  0  0  0  0  0  0
   19.8240  -11.0303  -17.6451 C   0  0  0  0  0  0  0  0  0  0  0  0
   18.8537  -10.9552  -16.8552 O   0  0  0  0  0  0  0  0  0  0  0  0
   20.8963  -10.1306  -17.4851 N   0  0  0  0  0  0  0  0  0  0  0  0
   20.9178   -9.1354  -16.4552 C   0  0  1  0  0  0  0  0  0  0  0  0
   22.1914   -9.0382  -15.6846 C   0  0  0  0  0  0  0  0  0  0  0  0
   22.1292   -8.0010  -14.6236 C   0  0  0  0  0  0  0  0  0  0  0  0
   22.5526   -6.7277  -14.9377 C   0  0  0  0  0  0  0  0  0  0  0  0
   22.4857   -5.7814  -13.9370 C   0  0  0  0  0  0  0  0  0  0  0  0
   22.0173   -6.0853  -12.6738 C   0  0  0  0  0  0  0  0  0  0  0  0
   21.6007   -7.3490  -12.3739 C   0  0  0  0  0  0  0  0  0  0  0  0
   21.6616   -8.3073  -13.3655 C   0  0  0  0  0  0  0  0  0  0  0  0
   20.4919   -7.7941  -17.0003 C   0  0  0  0  0  0  0  0  0  0  0  0
   21.0967   -7.3143  -17.9862 O   0  0  0  0  0  0  0  0  0  0  0  0
   17.3338   -6.6802  -18.4926 C   0  0  0  0  0  0  0  0  0  0  0  0
   17.5785   -5.7713  -17.3097 C   0  0  1  0  0  0  0  0  0  0  0  0
   16.8428   -6.2392  -16.2221 O   0  0  0  0  0  0  0  0  0  0  0  0
   19.0614   -5.8059  -17.0071 C   0  0  2  0  0  0  0  0  0  0  0  0
   19.4314   -7.0632  -16.4320 N   0  0  0  0  0  0  0  0  0  0  0  0
   19.3874   -4.7204  -16.0677 C   0  0  0  0  0  0  0  0  0  0  0  0
   19.2986   -3.3960  -16.4652 O   0  0  0  0  0  0  0  0  0  0  0  0
   19.7463   -5.0000  -14.9041 O   0  0  0  0  0  0  0  0  0  0  0  0
  2  5  1  0
  2  1  1  1
  3  2  1  0
  4  3  1  0
  5  6  2  0
  7  8  1  0
  7  5  1  0
  8  9  1  6
  9 10  1  0
 10 15  2  0
 11 10  1  0
 11 12  2  0
 12 13  1  0
 13 14  2  0
 15 14  1  0
 16 17  2  0
 16  8  1  0
 19 18  1  6
 19 21  1  0
 20 19  1  0
 21 23  1  0
 21 22  1  1
 22 16  1  0
 23 24  1  0
 25 23  2  0
M  END
$$$$
