CFT.pdb
     RDKit          3D

 25 25  0  0  1  0  0  0  0  0999 V2000
   24.2702  -12.2315  -19.4507 N   0  0  0  0  0  0  0  0  0  0  0  0
   24.3376  -10.8064  -19.3535 C   0  0  1  0  0  0  0  0  0  0  0  0
   23.6230  -10.1106  -20.4865 C   0  0  0  0  0  0  0  0  0  0  0  0
   23.7364   -8.3126  -20.2757 S   0  0  0  0  0  0  0  0  0  0  0  0
   23.6734  -10.3645  -18.0744 C   0  0  0  0  0  0  0  0  0  0  0  0
   22.5074  -10.7470  -17.8192 O   0  0  0  0  0  0  0  0  0  0  0  0
   24.3275   -9.5278  -17.1487 N   0  0  0  0  0  0  0  0  0  0  0  0
   23.7028   -9.0833  -15.9389 C   0  0  1  0  0  0  0  0  0  0  0  0
   24.2440   -9.6776  -14.6822 C   0  0  0  0  0  0  0  0  0  0  0  0
   24.0243  -11.1446  -14.6136 C   0  0  0  0  0  0  0  0  0  0  0  0
   25.0767  -11.9726  -14.9397 C   0  0  0  0  0  0  0  0  0  0  0  0
   24.8496  -13.3308  -14.8688 C   0  0  0  0  0  0  0  0  0  0  0  0
   23.6267  -13.8485  -14.4894 C   0  0  0  0  0  0  0  0  0  0  0  0
   22.5919  -13.0197  -14.1689 C   0  0  0  0  0  0  0  0  0  0  0  0
   22.8040  -11.6574  -14.2351 C   0  0  0  0  0  0  0  0  0  0  0  0
   23.6745   -7.5756  -15.8758 C   0  0  0  0  0  0  0  0  0  0  0  0
   24.6975   -6.9304  -16.2001 O   0  0  0  0  0  0  0  0  0  0  0  0
   21.5582   -5.3186  -17.7314 C   0  0  0  0  0  0  0  0  0  0  0  0
   21.3553   -4.9174  -16.2882 C   0  0  1  0  0  0  0  0  0  0  0  0
   20.1671   -5.4814  -15.8265 O   0  0  0  0  0  0  0  0  0  0  0  0
   22.5371   -5.4392  -15.4992 C   0  0  2  0  0  0  0  0  0  0  0  0
   22.5288   -6.8700  -15.4619 N   0  0  0  0  0  0  0  0  0  0  0  0
   22.4718   -4.9111  -14.1266 C   0  0  0  0  0  0  0  0  0  0  0  0
   22.5258   -3.5461  -13.8950 O   0  0  0  0  0  0  0  0  0  0  0  0
   22.3669   -5.7034  -13.1662 O   0  0  0  0  0  0  0  0  0  0  0  0
  2  5  1  0
  2  1  1  6
  3  2  1  0
  4  3  1  0
  5  6  2  0
  7  8  1  0
  7  5  1  0
  8  9  1  1
  9 10  1  0
 10 15  2  0
 11 10  1  0
 11 12  2  0
 12 13  1  0
 13 14  2  0
 15 14  1  0
 16 17  2  0
 16  8  1  0
 19 18  1  6
 19 21  1  0
 20 19  1  0
 21 23  1  0
 21 22  1  1
 22 16  1  0
 23 24  1  0
 25 23  2  0
M  END
$$$$
