CFT.pdb
     RDKit          3D

 25 25  0  0  1  0  0  0  0  0999 V2000
   28.5732  -19.8850  -18.7603 N   0  0  0  0  0  0  0  0  0  0  0  0
   27.5983  -19.0685  -18.1063 C   0  0  1  0  0  0  0  0  0  0  0  0
   26.3799  -18.8177  -18.9615 C   0  0  0  0  0  0  0  0  0  0  0  0
   26.7355  -17.5183  -20.1760 S   0  0  0  0  0  0  0  0  0  0  0  0
   27.1251  -19.7658  -16.8565 C   0  0  0  0  0  0  0  0  0  0  0  0
   26.8305  -20.9833  -16.9016 O   0  0  0  0  0  0  0  0  0  0  0  0
   27.0023  -19.0864  -15.6283 N   0  0  0  0  0  0  0  0  0  0  0  0
   26.5160  -19.7246  -14.4418 C   0  0  1  0  0  0  0  0  0  0  0  0
   27.0394  -19.1745  -13.1578 C   0  0  0  0  0  0  0  0  0  0  0  0
   26.5121  -19.9041  -11.9767 C   0  0  0  0  0  0  0  0  0  0  0  0
   25.4909  -19.3206  -11.2585 C   0  0  0  0  0  0  0  0  0  0  0  0
   25.0173  -20.0162  -10.1661 C   0  0  0  0  0  0  0  0  0  0  0  0
   25.5359  -21.2426   -9.7997 C   0  0  0  0  0  0  0  0  0  0  0  0
   26.5467  -21.8109  -10.5178 C   0  0  0  0  0  0  0  0  0  0  0  0
   27.0313  -21.1265  -11.6142 C   0  0  0  0  0  0  0  0  0  0  0  0
   25.0080  -19.7860  -14.4488 C   0  0  0  0  0  0  0  0  0  0  0  0
   24.3537  -18.7344  -14.6331 O   0  0  0  0  0  0  0  0  0  0  0  0
   20.8708  -22.3156  -14.7046 C   0  0  0  0  0  0  0  0  0  0  0  0
   22.3657  -22.2724  -14.9247 C   0  0  1  0  0  0  0  0  0  0  0  0
   22.6201  -22.2906  -16.2951 O   0  0  0  0  0  0  0  0  0  0  0  0
   22.8816  -20.9927  -14.3018 C   0  0  2  0  0  0  0  0  0  0  0  0
   24.3121  -20.9941  -14.2538 N   0  0  0  0  0  0  0  0  0  0  0  0
   22.3439  -20.8697  -12.9370 C   0  0  0  0  0  0  0  0  0  0  0  0
   21.2141  -20.1057  -12.6924 O   0  0  0  0  0  0  0  0  0  0  0  0
   22.9138  -21.4604  -11.9950 O   0  0  0  0  0  0  0  0  0  0  0  0
  2  5  1  0
  2  1  1  6
  3  2  1  0
  4  3  1  0
  5  6  2  0
  7  8  1  0
  7  5  1  0
  8  9  1  1
  9 10  1  0
 10 15  2  0
 11 10  1  0
 11 12  2  0
 12 13  1  0
 13 14  2  0
 15 14  1  0
 16 17  2  0
 16  8  1  0
 19 18  1  6
 19 21  1  0
 20 19  1  0
 21 23  1  0
 21 22  1  1
 22 16  1  0
 23 24  1  0
 25 23  2  0
M  END
$$$$
