CFT.pdb
     RDKit          3D

 25 25  0  0  1  0  0  0  0  0999 V2000
   21.6640   -9.3386  -18.7425 N   0  0  0  0  0  0  0  0  0  0  0  0
   21.5165   -7.9272  -18.9182 C   0  0  1  0  0  0  0  0  0  0  0  0
   20.4023   -7.5720  -19.8727 C   0  0  0  0  0  0  0  0  0  0  0  0
   21.0095   -7.6355  -21.5807 S   0  0  0  0  0  0  0  0  0  0  0  0
   21.1805   -7.2947  -17.5917 C   0  0  0  0  0  0  0  0  0  0  0  0
   20.3033   -7.8151  -16.8632 O   0  0  0  0  0  0  0  0  0  0  0  0
   21.8270   -6.1269  -17.1409 N   0  0  0  0  0  0  0  0  0  0  0  0
   21.5329   -5.5251  -15.8749 C   0  0  1  0  0  0  0  0  0  0  0  0
   22.6298   -5.5867  -14.8658 C   0  0  0  0  0  0  0  0  0  0  0  0
   22.9285   -6.9788  -14.4438 C   0  0  0  0  0  0  0  0  0  0  0  0
   22.2186   -7.5002  -13.3838 C   0  0  0  0  0  0  0  0  0  0  0  0
   22.5129   -8.7943  -13.0097 C   0  0  0  0  0  0  0  0  0  0  0  0
   23.4736   -9.5428  -13.6609 C   0  0  0  0  0  0  0  0  0  0  0  0
   24.1702   -9.0168  -14.7089 C   0  0  0  0  0  0  0  0  0  0  0  0
   23.8868   -7.7223  -15.0951 C   0  0  0  0  0  0  0  0  0  0  0  0
   21.0229   -4.1166  -16.0591 C   0  0  0  0  0  0  0  0  0  0  0  0
   21.8031   -3.2342  -16.4842 O   0  0  0  0  0  0  0  0  0  0  0  0
   16.9305   -3.2351  -15.7604 C   0  0  0  0  0  0  0  0  0  0  0  0
   17.8395   -2.5575  -16.7602 C   0  0  1  0  0  0  0  0  0  0  0  0
   17.3378   -1.2868  -17.0365 O   0  0  0  0  0  0  0  0  0  0  0  0
   19.2156   -2.4653  -16.1360 C   0  0  2  0  0  0  0  0  0  0  0  0
   19.6919   -3.7634  -15.7667 N   0  0  0  0  0  0  0  0  0  0  0  0
   19.1466   -1.6084  -14.9409 C   0  0  0  0  0  0  0  0  0  0  0  0
   18.9837   -0.2381  -15.0665 O   0  0  0  0  0  0  0  0  0  0  0  0
   19.2362   -2.1249  -13.8068 O   0  0  0  0  0  0  0  0  0  0  0  0
  2  5  1  0
  2  1  1  1
  3  2  1  0
  4  3  1  0
  5  6  2  0
  7  8  1  0
  7  5  1  0
  8  9  1  1
  9 10  1  0
 10 15  2  0
 11 10  1  0
 11 12  2  0
 12 13  1  0
 13 14  2  0
 15 14  1  0
 16 17  2  0
 16  8  1  0
 19 18  1  1
 19 21  1  0
 20 19  1  0
 21 23  1  0
 21 22  1  1
 22 16  1  0
 23 24  1  0
 25 23  2  0
M  END
$$$$
