CFT.pdb
     RDKit          3D

 25 25  0  0  1  0  0  0  0  0999 V2000
   17.1069  -11.0193  -14.0764 N   0  0  0  0  0  0  0  0  0  0  0  0
   17.7870   -9.9077  -13.4879 C   0  0  1  0  0  0  0  0  0  0  0  0
   18.3727   -8.9715  -14.5171 C   0  0  0  0  0  0  0  0  0  0  0  0
   19.7776   -9.7658  -15.3449 S   0  0  0  0  0  0  0  0  0  0  0  0
   16.8093   -9.1061  -12.6669 C   0  0  0  0  0  0  0  0  0  0  0  0
   15.7008   -8.7908  -13.1598 O   0  0  0  0  0  0  0  0  0  0  0  0
   17.1046   -8.6965  -11.3517 N   0  0  0  0  0  0  0  0  0  0  0  0
   16.1601   -7.9957  -10.5342 C   0  0  1  0  0  0  0  0  0  0  0  0
   16.0760   -8.4529   -9.1167 C   0  0  0  0  0  0  0  0  0  0  0  0
   14.9384   -7.8318   -8.3919 C   0  0  0  0  0  0  0  0  0  0  0  0
   15.2005   -6.7452   -7.5856 C   0  0  0  0  0  0  0  0  0  0  0  0
   14.1291   -6.1851   -6.9226 C   0  0  0  0  0  0  0  0  0  0  0  0
   12.8474   -6.6825   -7.0535 C   0  0  0  0  0  0  0  0  0  0  0  0
   12.5993   -7.7585   -7.8542 C   0  0  0  0  0  0  0  0  0  0  0  0
   13.6619   -8.3302   -8.5246 C   0  0  0  0  0  0  0  0  0  0  0  0
   16.3760   -6.5050  -10.6276 C   0  0  0  0  0  0  0  0  0  0  0  0
   17.4965   -6.0295  -10.3336 O   0  0  0  0  0  0  0  0  0  0  0  0
   13.9782   -4.1093  -13.0067 C   0  0  0  0  0  0  0  0  0  0  0  0
   15.4329   -3.8544  -12.6845 C   0  0  1  0  0  0  0  0  0  0  0  0
   15.7066   -2.5012  -12.8765 O   0  0  0  0  0  0  0  0  0  0  0  0
   15.6552   -4.2453  -11.2391 C   0  0  2  0  0  0  0  0  0  0  0  0
   15.3524   -5.6295  -11.0367 N   0  0  0  0  0  0  0  0  0  0  0  0
   14.7905   -3.4218  -10.3782 C   0  0  0  0  0  0  0  0  0  0  0  0
   15.0591   -2.0749  -10.1942 O   0  0  0  0  0  0  0  0  0  0  0  0
   13.8079   -3.9453   -9.8112 O   0  0  0  0  0  0  0  0  0  0  0  0
  2  5  1  0
  2  1  1  6
  3  2  1  0
  4  3  1  0
  5  6  2  0
  7  8  1  0
  7  5  1  0
  8  9  1  1
  9 10  1  0
 10 15  2  0
 11 10  1  0
 11 12  2  0
 12 13  1  0
 13 14  2  0
 15 14  1  0
 16 17  2  0
 16  8  1  0
 19 18  1  1
 19 21  1  0
 20 19  1  0
 21 23  1  0
 21 22  1  6
 22 16  1  0
 23 24  1  0
 25 23  2  0
M  END
$$$$
