CFT.pdb
     RDKit          3D

 25 25  0  0  1  0  0  0  0  0999 V2000
   28.4400  -22.9871  -17.3445 N   0  0  0  0  0  0  0  0  0  0  0  0
   27.9527  -21.6858  -17.0070 C   0  0  1  0  0  0  0  0  0  0  0  0
   27.1180  -21.0732  -18.1054 C   0  0  0  0  0  0  0  0  0  0  0  0
   28.1785  -20.6167  -19.5044 S   0  0  0  0  0  0  0  0  0  0  0  0
   27.0726  -21.7867  -15.7872 C   0  0  0  0  0  0  0  0  0  0  0  0
   26.3771  -22.8142  -15.6100 O   0  0  0  0  0  0  0  0  0  0  0  0
   27.0066  -20.7534  -14.8318 N   0  0  0  0  0  0  0  0  0  0  0  0
   26.1467  -20.8175  -13.6881 C   0  0  1  0  0  0  0  0  0  0  0  0
   26.5928  -20.0249  -12.5057 C   0  0  0  0  0  0  0  0  0  0  0  0
   25.7484  -20.2747  -11.3099 C   0  0  0  0  0  0  0  0  0  0  0  0
   26.2700  -21.0553  -10.3010 C   0  0  0  0  0  0  0  0  0  0  0  0
   25.4681  -21.2737   -9.2007 C   0  0  0  0  0  0  0  0  0  0  0  0
   24.1984  -20.7391   -9.1040 C   0  0  0  0  0  0  0  0  0  0  0  0
   23.6921  -19.9678  -10.1086 C   0  0  0  0  0  0  0  0  0  0  0  0
   24.4831  -19.7402  -11.2167 C   0  0  0  0  0  0  0  0  0  0  0  0
   24.7234  -20.4938  -14.0718 C   0  0  0  0  0  0  0  0  0  0  0  0
   24.4666  -19.3822  -14.5879 O   0  0  0  0  0  0  0  0  0  0  0  0
   22.6140  -21.7836  -16.5034 C   0  0  0  0  0  0  0  0  0  0  0  0
   21.7638  -21.9374  -15.2630 C   0  0  1  0  0  0  0  0  0  0  0  0
   21.8131  -23.2662  -14.8448 O   0  0  0  0  0  0  0  0  0  0  0  0
   22.3350  -21.0211  -14.2020 C   0  0  2  0  0  0  0  0  0  0  0  0
   23.6718  -21.4069  -13.8664 N   0  0  0  0  0  0  0  0  0  0  0  0
   21.4876  -21.0877  -13.0001 C   0  0  0  0  0  0  0  0  0  0  0  0
   21.9588  -21.6798  -11.8393 O   0  0  0  0  0  0  0  0  0  0  0  0
   20.3354  -20.6055  -13.0314 O   0  0  0  0  0  0  0  0  0  0  0  0
  2  5  1  0
  2  1  1  6
  3  2  1  0
  4  3  1  0
  5  6  2  0
  7  8  1  0
  7  5  1  0
  8  9  1  1
  9 10  1  0
 10 15  2  0
 11 10  1  0
 11 12  2  0
 12 13  1  0
 13 14  2  0
 15 14  1  0
 16 17  2  0
 16  8  1  0
 19 18  1  6
 19 21  1  0
 20 19  1  0
 21 23  1  0
 21 22  1  1
 22 16  1  0
 23 24  1  0
 25 23  2  0
M  END
$$$$
