QIS.pdb
     RDKit          3D

 24 23  0  0  1  0  0  0  0  0999 V2000
    5.0417  -20.9511   22.0609 N   0  0  0  0  0  0  0  0  0  0  0  0
    5.4683  -19.8905   22.9396 C   0  0  0  0  0  0  0  0  0  0  0  0
    5.4416  -20.0503   24.1870 O   0  0  0  0  0  0  0  0  0  0  0  0
    5.9241  -18.6514   22.3018 C   0  0  0  0  0  0  0  0  0  0  0  0
    6.3011  -17.6304   23.3186 C   0  0  0  0  0  0  0  0  0  0  0  0
    6.6496  -16.3281   22.6665 C   0  0  2  0  0  0  0  0  0  0  0  0
    7.1778  -16.4949   21.3401 N   0  0  0  0  0  0  0  0  0  0  0  0
    7.5911  -15.6229   23.5727 C   0  0  0  0  0  0  0  0  0  0  0  0
    8.8116  -15.6803   23.2811 O   0  0  0  0  0  0  0  0  0  0  0  0
    5.8383  -11.3477   26.2432 C   0  0  0  0  0  0  0  0  0  0  0  0
    6.8227  -12.2204   25.4306 C   0  0  0  0  0  0  0  0  0  0  0  0
    7.4277  -13.2255   26.3455 C   0  0  2  0  0  0  0  0  0  0  0  0
    8.2291  -12.5681   27.4512 C   0  0  0  0  0  0  0  0  0  0  0  0
    8.1770  -14.3166   25.6610 C   0  0  2  0  0  0  0  0  0  0  0  0
    7.1857  -14.9101   24.7168 N   0  0  0  0  0  0  0  0  0  0  0  0
    8.7345  -15.3717   26.4928 C   0  0  0  0  0  0  0  0  0  0  0  0
    7.9729  -16.2011   27.0500 O   0  0  0  0  0  0  0  0  0  0  0  0
   10.3951  -19.0805   27.1231 O   0  0  0  0  0  0  0  0  0  0  0  0
    9.7237  -17.8636   27.2913 C   0  0  0  0  0  0  0  0  0  0  0  0
   10.7391  -16.7708   27.0733 C   0  0  2  0  0  0  0  0  0  0  0  0
   10.1225  -15.5145   26.7038 N   0  0  0  0  0  0  0  0  0  0  0  0
   11.7697  -17.1971   26.1138 C   0  0  0  0  0  0  0  0  0  0  0  0
   11.9350  -16.5965   25.0271 O   0  0  0  0  0  0  0  0  0  0  0  0
   12.5799  -18.2771   26.3987 O   0  0  0  0  0  0  0  0  0  0  0  0
  1  2  1  0
  2  3  2  0
  4  5  1  0
  4  2  1  0
  5  6  1  0
  6  7  1  6
  8  9  2  0
  8  6  1  0
 11 10  1  0
 11 12  1  0
 12 14  1  0
 12 13  1  1
 14 15  1  6
 15  8  1  0
 16 14  1  0
 17 16  2  0
 18 19  1  0
 20 19  1  6
 20 21  1  0
 21 16  1  0
 22 20  1  0
 22 24  1  0
 23 22  2  0
M  END
$$$$
