QIS.pdb
     RDKit          3D

 24 23  0  0  1  0  0  0  0  0999 V2000
    7.0643  -22.1951   27.9805 N   0  0  0  0  0  0  0  0  0  0  0  0
    7.6807  -20.9066   27.7836 C   0  0  0  0  0  0  0  0  0  0  0  0
    8.4557  -20.4340   28.6543 O   0  0  0  0  0  0  0  0  0  0  0  0
    7.3562  -20.2060   26.5371 C   0  0  0  0  0  0  0  0  0  0  0  0
    6.5766  -18.9654   26.8048 C   0  0  0  0  0  0  0  0  0  0  0  0
    5.8157  -18.5378   25.5879 C   0  0  2  0  0  0  0  0  0  0  0  0
    5.5698  -19.6221   24.6770 N   0  0  0  0  0  0  0  0  0  0  0  0
    6.5779  -17.4272   24.9630 C   0  0  0  0  0  0  0  0  0  0  0  0
    7.0261  -17.6254   23.8064 O   0  0  0  0  0  0  0  0  0  0  0  0
    5.9007  -12.4725   27.0364 C   0  0  0  0  0  0  0  0  0  0  0  0
    6.0435  -13.4696   25.8633 C   0  0  0  0  0  0  0  0  0  0  0  0
    7.4554  -13.9350   25.8092 C   0  0  2  0  0  0  0  0  0  0  0  0
    8.4068  -12.8049   25.4704 C   0  0  0  0  0  0  0  0  0  0  0  0
    7.6781  -15.1468   24.9709 C   0  0  2  0  0  0  0  0  0  0  0  0
    6.8146  -16.1916   25.5946 N   0  0  0  0  0  0  0  0  0  0  0  0
    9.0387  -15.6509   24.8687 C   0  0  0  0  0  0  0  0  0  0  0  0
    9.6297  -16.0765   25.8924 O   0  0  0  0  0  0  0  0  0  0  0  0
   11.0904  -15.8596   21.2025 O   0  0  0  0  0  0  0  0  0  0  0  0
   11.0984  -16.9722   22.0522 C   0  0  0  0  0  0  0  0  0  0  0  0
   10.9598  -16.4482   23.4591 C   0  0  2  0  0  0  0  0  0  0  0  0
    9.7404  -15.6909   23.6449 N   0  0  0  0  0  0  0  0  0  0  0  0
   12.1585  -15.6942   23.8577 C   0  0  0  0  0  0  0  0  0  0  0  0
   12.0774  -14.5140   24.2698 O   0  0  0  0  0  0  0  0  0  0  0  0
   13.4051  -16.2811   23.7836 O   0  0  0  0  0  0  0  0  0  0  0  0
  1  2  1  0
  2  3  2  0
  4  5  1  0
  4  2  1  0
  5  6  1  0
  6  7  1  6
  8  9  2  0
  8  6  1  0
 11 10  1  0
 11 12  1  0
 12 14  1  0
 12 13  1  6
 14 15  1  1
 15  8  1  0
 16 14  1  0
 17 16  2  0
 18 19  1  0
 20 19  1  6
 20 21  1  0
 21 16  1  0
 22 20  1  0
 22 24  1  0
 23 22  2  0
M  END
$$$$
