QIS.pdb
     RDKit          3D

 24 23  0  0  1  0  0  0  0  0999 V2000
    5.4971  -19.2277   23.9481 N   0  0  0  0  0  0  0  0  0  0  0  0
    5.9412  -19.0441   22.5887 C   0  0  0  0  0  0  0  0  0  0  0  0
    5.6577  -19.8960   21.7078 O   0  0  0  0  0  0  0  0  0  0  0  0
    6.7197  -17.8334   22.3092 C   0  0  0  0  0  0  0  0  0  0  0  0
    5.8293  -16.6868   21.9757 C   0  0  0  0  0  0  0  0  0  0  0  0
    6.6275  -15.4463   21.7169 C   0  0  2  0  0  0  0  0  0  0  0  0
    7.3851  -15.5176   20.4974 N   0  0  0  0  0  0  0  0  0  0  0  0
    7.4827  -15.2194   22.9094 C   0  0  0  0  0  0  0  0  0  0  0  0
    8.6774  -15.6001   22.8331 O   0  0  0  0  0  0  0  0  0  0  0  0
    6.0087  -11.2153   26.1104 C   0  0  0  0  0  0  0  0  0  0  0  0
    6.9577  -12.1030   25.2723 C   0  0  0  0  0  0  0  0  0  0  0  0
    7.2696  -13.3295   26.0544 C   0  0  2  0  0  0  0  0  0  0  0  0
    8.0119  -13.0053   27.3354 C   0  0  0  0  0  0  0  0  0  0  0  0
    7.9202  -14.4171   25.2706 C   0  0  2  0  0  0  0  0  0  0  0  0
    7.0245  -14.6109   24.0931 N   0  0  0  0  0  0  0  0  0  0  0  0
    8.1187  -15.6959   25.9347 C   0  0  0  0  0  0  0  0  0  0  0  0
    7.2195  -16.5723   25.8922 O   0  0  0  0  0  0  0  0  0  0  0  0
   10.8130  -19.0611   25.3555 O   0  0  0  0  0  0  0  0  0  0  0  0
   10.2840  -17.7703   25.2372 C   0  0  0  0  0  0  0  0  0  0  0  0
    9.9012  -17.3263   26.6262 C   0  0  2  0  0  0  0  0  0  0  0  0
    9.3032  -16.0082   26.6356 N   0  0  0  0  0  0  0  0  0  0  0  0
   11.0456  -17.4331   27.5445 C   0  0  0  0  0  0  0  0  0  0  0  0
   11.6537  -16.4147   27.9473 O   0  0  0  0  0  0  0  0  0  0  0  0
   11.4724  -18.6703   27.9818 O   0  0  0  0  0  0  0  0  0  0  0  0
  1  2  1  0
  2  3  2  0
  4  5  1  0
  4  2  1  0
  5  6  1  0
  6  7  1  6
  8  9  2  0
  8  6  1  0
 11 10  1  0
 11 12  1  0
 12 14  1  0
 12 13  1  1
 14 15  1  6
 15  8  1  0
 16 14  1  0
 17 16  2  0
 18 19  1  0
 20 19  1  6
 20 21  1  0
 21 16  1  0
 22 20  1  0
 22 24  1  0
 23 22  2  0
M  END
$$$$
