QIS.pdb
     RDKit          3D

 24 23  0  0  1  0  0  0  0  0999 V2000
    9.4068  -19.8221   22.7682 N   0  0  0  0  0  0  0  0  0  0  0  0
    8.5037  -19.6868   21.6525 C   0  0  0  0  0  0  0  0  0  0  0  0
    7.9315  -20.6990   21.1726 O   0  0  0  0  0  0  0  0  0  0  0  0
    8.3005  -18.3313   21.1316 C   0  0  0  0  0  0  0  0  0  0  0  0
    9.1073  -17.3365   21.8920 C   0  0  0  0  0  0  0  0  0  0  0  0
    8.4765  -15.9795   21.8353 C   0  0  2  0  0  0  0  0  0  0  0  0
    8.8519  -15.2411   20.6606 N   0  0  0  0  0  0  0  0  0  0  0  0
    8.8369  -15.2764   23.0926 C   0  0  0  0  0  0  0  0  0  0  0  0
   10.0601  -15.0889   23.3086 O   0  0  0  0  0  0  0  0  0  0  0  0
    6.1165  -11.3396   26.8240 C   0  0  0  0  0  0  0  0  0  0  0  0
    7.4152  -12.1470   26.5950 C   0  0  0  0  0  0  0  0  0  0  0  0
    7.1791  -13.1171   25.4922 C   0  0  2  0  0  0  0  0  0  0  0  0
    5.8392  -13.8114   25.6320 C   0  0  0  0  0  0  0  0  0  0  0  0
    8.2997  -14.0697   25.2526 C   0  0  2  0  0  0  0  0  0  0  0  0
    7.8909  -14.8216   24.0304 N   0  0  0  0  0  0  0  0  0  0  0  0
    8.6141  -15.0156   26.3119 C   0  0  0  0  0  0  0  0  0  0  0  0
    9.0526  -14.6017   27.4141 O   0  0  0  0  0  0  0  0  0  0  0  0
    7.8878  -19.1100   25.8986 O   0  0  0  0  0  0  0  0  0  0  0  0
    7.6986  -18.5238   27.1559 C   0  0  0  0  0  0  0  0  0  0  0  0
    8.6427  -17.3513   27.2376 C   0  0  2  0  0  0  0  0  0  0  0  0
    8.4404  -16.4077   26.1588 N   0  0  0  0  0  0  0  0  0  0  0  0
   10.0380  -17.8079   27.3335 C   0  0  0  0  0  0  0  0  0  0  0  0
   10.4254  -18.5195   28.2889 O   0  0  0  0  0  0  0  0  0  0  0  0
   10.9525  -17.4560   26.3620 O   0  0  0  0  0  0  0  0  0  0  0  0
  1  2  1  0
  2  3  2  0
  4  5  1  0
  4  2  1  0
  5  6  1  0
  6  7  1  6
  8  9  2  0
  8  6  1  0
 11 10  1  0
 11 12  1  0
 12 14  1  0
 12 13  1  1
 14 15  1  6
 15  8  1  0
 16 14  1  0
 17 16  2  0
 18 19  1  0
 20 19  1  6
 20 21  1  0
 21 16  1  0
 22 20  1  0
 22 24  1  0
 23 22  2  0
M  END
$$$$
