QIS.pdb
     RDKit          3D

 24 23  0  0  1  0  0  0  0  0999 V2000
    8.6401  -16.8383   17.8674 N   0  0  0  0  0  0  0  0  0  0  0  0
    7.4702  -16.8010   18.7093 C   0  0  0  0  0  0  0  0  0  0  0  0
    6.8205  -17.8530   18.9402 O   0  0  0  0  0  0  0  0  0  0  0  0
    7.1008  -15.4950   19.2641 C   0  0  0  0  0  0  0  0  0  0  0  0
    7.9225  -15.1679   20.4626 C   0  0  0  0  0  0  0  0  0  0  0  0
    7.4256  -15.9023   21.6695 C   0  0  2  0  0  0  0  0  0  0  0  0
    6.0002  -15.8084   21.8290 N   0  0  0  0  0  0  0  0  0  0  0  0
    8.1685  -15.3724   22.8409 C   0  0  0  0  0  0  0  0  0  0  0  0
    9.4096  -15.2293   22.7098 O   0  0  0  0  0  0  0  0  0  0  0  0
    6.1241  -11.6403   25.9559 C   0  0  0  0  0  0  0  0  0  0  0  0
    7.1116  -12.5051   25.1387 C   0  0  0  0  0  0  0  0  0  0  0  0
    7.5329  -13.6595   25.9771 C   0  0  2  0  0  0  0  0  0  0  0  0
    8.1515  -13.2079   27.2849 C   0  0  0  0  0  0  0  0  0  0  0  0
    8.3627  -14.6729   25.2665 C   0  0  2  0  0  0  0  0  0  0  0  0
    7.5577  -15.0317   24.0625 N   0  0  0  0  0  0  0  0  0  0  0  0
    8.7048  -15.8870   25.9909 C   0  0  0  0  0  0  0  0  0  0  0  0
    7.7967  -16.6600   26.3860 O   0  0  0  0  0  0  0  0  0  0  0  0
   12.4251  -17.4580   25.7974 O   0  0  0  0  0  0  0  0  0  0  0  0
   11.3735  -18.3060   26.1648 C   0  0  0  0  0  0  0  0  0  0  0  0
   10.3973  -17.4734   26.9564 C   0  0  2  0  0  0  0  0  0  0  0  0
   10.0395  -16.2490   26.2724 N   0  0  0  0  0  0  0  0  0  0  0  0
   10.8980  -17.2329   28.3187 C   0  0  0  0  0  0  0  0  0  0  0  0
   11.0416  -16.0706   28.7632 O   0  0  0  0  0  0  0  0  0  0  0  0
   11.2208  -18.2953   29.1380 O   0  0  0  0  0  0  0  0  0  0  0  0
  1  2  1  0
  2  3  2  0
  4  5  1  0
  4  2  1  0
  5  6  1  0
  6  7  1  1
  8  9  2  0
  8  6  1  0
 11 10  1  0
 11 12  1  0
 12 14  1  0
 12 13  1  1
 14 15  1  6
 15  8  1  0
 16 14  1  0
 17 16  2  0
 18 19  1  0
 20 19  1  6
 20 21  1  0
 21 16  1  0
 22 20  1  0
 22 24  1  0
 23 22  2  0
M  END
$$$$
