QIS.pdb
     RDKit          3D

 24 23  0  0  1  0  0  0  0  0999 V2000
    4.9937  -18.2651   20.5632 N   0  0  0  0  0  0  0  0  0  0  0  0
    6.0053  -18.0117   19.5676 C   0  0  0  0  0  0  0  0  0  0  0  0
    5.9840  -18.6265   18.4704 O   0  0  0  0  0  0  0  0  0  0  0  0
    7.0281  -17.0177   19.9075 C   0  0  0  0  0  0  0  0  0  0  0  0
    6.7277  -16.3610   21.2102 C   0  0  0  0  0  0  0  0  0  0  0  0
    7.2123  -14.9440   21.2201 C   0  0  2  0  0  0  0  0  0  0  0  0
    8.0201  -14.6251   20.0747 N   0  0  0  0  0  0  0  0  0  0  0  0
    7.9308  -14.7361   22.5028 C   0  0  0  0  0  0  0  0  0  0  0  0
    9.1836  -14.8229   22.4733 O   0  0  0  0  0  0  0  0  0  0  0  0
    6.0214  -11.2785   26.0639 C   0  0  0  0  0  0  0  0  0  0  0  0
    6.9709  -12.0974   25.1590 C   0  0  0  0  0  0  0  0  0  0  0  0
    7.2548  -13.3962   25.8264 C   0  0  2  0  0  0  0  0  0  0  0  0
    7.8337  -13.2004   27.2133 C   0  0  0  0  0  0  0  0  0  0  0  0
    8.0414  -14.3581   25.0039 C   0  0  2  0  0  0  0  0  0  0  0  0
    7.2852  -14.4527   23.7211 N   0  0  0  0  0  0  0  0  0  0  0  0
    8.2386  -15.6954   25.5412 C   0  0  0  0  0  0  0  0  0  0  0  0
    7.2512  -16.4493   25.7282 O   0  0  0  0  0  0  0  0  0  0  0  0
   11.6196  -17.7057   24.9733 O   0  0  0  0  0  0  0  0  0  0  0  0
   10.4605  -18.4023   25.3354 C   0  0  0  0  0  0  0  0  0  0  0  0
    9.7344  -17.5481   26.3434 C   0  0  2  0  0  0  0  0  0  0  0  0
    9.5165  -16.1997   25.8643 N   0  0  0  0  0  0  0  0  0  0  0  0
   10.4172  -17.5804   27.6462 C   0  0  0  0  0  0  0  0  0  0  0  0
   10.7819  -16.5261   28.2159 O   0  0  0  0  0  0  0  0  0  0  0  0
   10.6694  -18.7858   28.2686 O   0  0  0  0  0  0  0  0  0  0  0  0
  1  2  1  0
  2  3  2  0
  4  5  1  0
  4  2  1  0
  5  6  1  0
  6  7  1  6
  8  9  2  0
  8  6  1  0
 11 10  1  0
 11 12  1  0
 12 14  1  0
 12 13  1  1
 14 15  1  6
 15  8  1  0
 16 14  1  0
 17 16  2  0
 18 19  1  0
 20 19  1  6
 20 21  1  0
 21 16  1  0
 22 20  1  0
 22 24  1  0
 23 22  2  0
M  END
$$$$
