QIS.pdb
     RDKit          3D

 24 23  0  0  1  0  0  0  0  0999 V2000
    4.1539  -18.7087   22.0837 N   0  0  0  0  0  0  0  0  0  0  0  0
    4.9746  -18.7914   20.9011 C   0  0  0  0  0  0  0  0  0  0  0  0
    4.7112  -19.6320   20.0032 O   0  0  0  0  0  0  0  0  0  0  0  0
    6.1011  -17.8567   20.8158 C   0  0  0  0  0  0  0  0  0  0  0  0
    6.0864  -16.8919   21.9504 C   0  0  0  0  0  0  0  0  0  0  0  0
    6.8344  -15.6425   21.6009 C   0  0  2  0  0  0  0  0  0  0  0  0
    7.6249  -15.7834   20.4087 N   0  0  0  0  0  0  0  0  0  0  0  0
    7.6483  -15.2734   22.7868 C   0  0  0  0  0  0  0  0  0  0  0  0
    8.8840  -15.4884   22.7176 O   0  0  0  0  0  0  0  0  0  0  0  0
    5.8568  -11.4098   26.0649 C   0  0  0  0  0  0  0  0  0  0  0  0
    6.7847  -12.2767   25.1826 C   0  0  0  0  0  0  0  0  0  0  0  0
    7.1930  -13.4754   25.9634 C   0  0  2  0  0  0  0  0  0  0  0  0
    7.8973  -13.0945   27.2502 C   0  0  0  0  0  0  0  0  0  0  0  0
    7.9374  -14.5022   25.1810 C   0  0  2  0  0  0  0  0  0  0  0  0
    7.1089  -14.7068   23.9571 N   0  0  0  0  0  0  0  0  0  0  0  0
    8.1746  -15.7885   25.8172 C   0  0  0  0  0  0  0  0  0  0  0  0
    7.2057  -16.4733   26.2303 O   0  0  0  0  0  0  0  0  0  0  0  0
   11.7026  -17.8333   25.3703 O   0  0  0  0  0  0  0  0  0  0  0  0
   10.5194  -18.5152   25.6787 C   0  0  0  0  0  0  0  0  0  0  0  0
    9.7200  -17.6145   26.5857 C   0  0  2  0  0  0  0  0  0  0  0  0
    9.4709  -16.3185   25.9913 N   0  0  0  0  0  0  0  0  0  0  0  0
   10.3488  -17.5153   27.9121 C   0  0  0  0  0  0  0  0  0  0  0  0
   10.5761  -18.5357   28.6023 O   0  0  0  0  0  0  0  0  0  0  0  0
   10.7024  -16.2832   28.4230 O   0  0  0  0  0  0  0  0  0  0  0  0
  1  2  1  0
  2  3  2  0
  4  5  1  0
  4  2  1  0
  5  6  1  0
  6  7  1  6
  8  9  2  0
  8  6  1  0
 11 10  1  0
 11 12  1  0
 12 14  1  0
 12 13  1  1
 14 15  1  6
 15  8  1  0
 16 14  1  0
 17 16  2  0
 18 19  1  0
 20 19  1  6
 20 21  1  0
 21 16  1  0
 22 20  1  0
 22 24  1  0
 23 22  2  0
M  END
$$$$
