QIS.pdb
     RDKit          3D

 24 23  0  0  1  0  0  0  0  0999 V2000
    8.9604  -18.3991   20.1661 N   0  0  0  0  0  0  0  0  0  0  0  0
    7.6896  -18.3924   19.4851 C   0  0  0  0  0  0  0  0  0  0  0  0
    7.5254  -19.0744   18.4410 O   0  0  0  0  0  0  0  0  0  0  0  0
    6.6321  -17.5650   20.0743 C   0  0  0  0  0  0  0  0  0  0  0  0
    7.0602  -16.9970   21.3830 C   0  0  0  0  0  0  0  0  0  0  0  0
    7.2804  -15.5194   21.2794 C   0  0  2  0  0  0  0  0  0  0  0  0
    7.9409  -15.1403   20.0604 N   0  0  0  0  0  0  0  0  0  0  0  0
    8.0318  -15.1029   22.4906 C   0  0  0  0  0  0  0  0  0  0  0  0
    9.2856  -15.1258   22.4178 O   0  0  0  0  0  0  0  0  0  0  0  0
    7.2216  -11.4590   27.2305 C   0  0  0  0  0  0  0  0  0  0  0  0
    8.1192  -12.6026   26.7038 C   0  0  0  0  0  0  0  0  0  0  0  0
    7.4517  -13.2225   25.5278 C   0  0  2  0  0  0  0  0  0  0  0  0
    6.0133  -13.5933   25.8290 C   0  0  0  0  0  0  0  0  0  0  0  0
    8.2141  -14.3367   24.8969 C   0  0  2  0  0  0  0  0  0  0  0  0
    7.4155  -14.6932   23.6880 N   0  0  0  0  0  0  0  0  0  0  0  0
    8.4347  -15.5338   25.6932 C   0  0  0  0  0  0  0  0  0  0  0  0
    7.4833  -16.3226   25.9187 O   0  0  0  0  0  0  0  0  0  0  0  0
   10.5920  -17.9703   24.9748 O   0  0  0  0  0  0  0  0  0  0  0  0
   10.8865  -18.0053   26.3431 C   0  0  0  0  0  0  0  0  0  0  0  0
    9.9336  -17.0528   27.0195 C   0  0  2  0  0  0  0  0  0  0  0  0
    9.6972  -15.8616   26.2320 N   0  0  0  0  0  0  0  0  0  0  0  0
   10.3823  -16.7455   28.3865 C   0  0  0  0  0  0  0  0  0  0  0  0
   10.6245  -17.6562   29.2118 O   0  0  0  0  0  0  0  0  0  0  0  0
   10.5456  -15.4349   28.7860 O   0  0  0  0  0  0  0  0  0  0  0  0
  1  2  1  0
  2  3  2  0
  4  5  1  0
  4  2  1  0
  5  6  1  0
  6  7  1  6
  8  9  2  0
  8  6  1  0
 11 10  1  0
 11 12  1  0
 12 14  1  0
 12 13  1  1
 14 15  1  6
 15  8  1  0
 16 14  1  0
 17 16  2  0
 18 19  1  0
 20 19  1  6
 20 21  1  0
 21 16  1  0
 22 20  1  0
 22 24  1  0
 23 22  2  0
M  END
$$$$
