QIS.pdb
     RDKit          3D

 24 23  0  0  1  0  0  0  0  0999 V2000
    7.0490  -21.1231   18.7823 N   0  0  0  0  0  0  0  0  0  0  0  0
    8.4703  -21.1546   18.5419 C   0  0  0  0  0  0  0  0  0  0  0  0
    9.1382  -22.1839   18.8189 O   0  0  0  0  0  0  0  0  0  0  0  0
    9.0671  -19.9446   17.9678 C   0  0  0  0  0  0  0  0  0  0  0  0
    8.0396  -18.8877   17.7538 C   0  0  0  0  0  0  0  0  0  0  0  0
    8.6521  -17.6580   17.1578 C   0  0  2  0  0  0  0  0  0  0  0  0
    9.6271  -17.9579   16.1451 N   0  0  0  0  0  0  0  0  0  0  0  0
    9.2165  -16.8632   18.2779 C   0  0  0  0  0  0  0  0  0  0  0  0
   10.4611  -16.9136   18.4403 O   0  0  0  0  0  0  0  0  0  0  0  0
    6.7142  -12.3340   19.8197 C   0  0  0  0  0  0  0  0  0  0  0  0
    7.8715  -13.2899   19.4485 C   0  0  0  0  0  0  0  0  0  0  0  0
    8.0804  -14.2377   20.5759 C   0  0  2  0  0  0  0  0  0  0  0  0
    8.3849  -13.5117   21.8710 C   0  0  0  0  0  0  0  0  0  0  0  0
    9.0442  -15.3381   20.2916 C   0  0  2  0  0  0  0  0  0  0  0  0
    8.4367  -16.0746   19.1449 N   0  0  0  0  0  0  0  0  0  0  0  0
    9.3262  -16.2771   21.3662 C   0  0  0  0  0  0  0  0  0  0  0  0
    8.6041  -17.2939   21.5177 O   0  0  0  0  0  0  0  0  0  0  0  0
   12.0976  -19.2683   22.8241 O   0  0  0  0  0  0  0  0  0  0  0  0
   11.5511  -18.2539   22.0288 C   0  0  0  0  0  0  0  0  0  0  0  0
   11.0305  -17.1955   22.9678 C   0  0  2  0  0  0  0  0  0  0  0  0
   10.4007  -16.0989   22.2636 N   0  0  0  0  0  0  0  0  0  0  0  0
   12.0877  -16.7434   23.8856 C   0  0  0  0  0  0  0  0  0  0  0  0
   12.6185  -15.6156   23.7615 O   0  0  0  0  0  0  0  0  0  0  0  0
   12.5163  -17.5633   24.9094 O   0  0  0  0  0  0  0  0  0  0  0  0
  1  2  1  0
  2  3  2  0
  4  5  1  0
  4  2  1  0
  5  6  1  0
  6  7  1  6
  8  9  2  0
  8  6  1  0
 11 10  1  0
 11 12  1  0
 12 14  1  0
 12 13  1  1
 14 15  1  6
 15  8  1  0
 16 14  1  0
 17 16  2  0
 18 19  1  0
 20 19  1  6
 20 21  1  0
 21 16  1  0
 22 20  1  0
 22 24  1  0
 23 22  2  0
M  END
$$$$
