QIS.pdb
     RDKit          3D

 24 23  0  0  1  0  0  0  0  0999 V2000
    7.1167  -18.7107   20.4263 N   0  0  0  0  0  0  0  0  0  0  0  0
    6.4650  -17.8402   19.4796 C   0  0  0  0  0  0  0  0  0  0  0  0
    5.8683  -18.3206   18.4819 O   0  0  0  0  0  0  0  0  0  0  0  0
    6.5392  -16.4010   19.7503 C   0  0  0  0  0  0  0  0  0  0  0  0
    7.2512  -16.1307   21.0304 C   0  0  0  0  0  0  0  0  0  0  0  0
    7.3544  -14.6587   21.2855 C   0  0  2  0  0  0  0  0  0  0  0  0
    8.0051  -13.9537   20.2151 N   0  0  0  0  0  0  0  0  0  0  0  0
    8.0473  -14.4876   22.5877 C   0  0  0  0  0  0  0  0  0  0  0  0
    9.2983  -14.3789   22.5561 O   0  0  0  0  0  0  0  0  0  0  0  0
    6.0893  -11.4112   26.3802 C   0  0  0  0  0  0  0  0  0  0  0  0
    7.0867  -12.1457   25.4548 C   0  0  0  0  0  0  0  0  0  0  0  0
    7.3055  -13.5162   25.9905 C   0  0  2  0  0  0  0  0  0  0  0  0
    7.7975  -13.4872   27.4237 C   0  0  0  0  0  0  0  0  0  0  0  0
    8.1271  -14.4006   25.1168 C   0  0  2  0  0  0  0  0  0  0  0  0
    7.3797  -14.4430   23.8261 N   0  0  0  0  0  0  0  0  0  0  0  0
    8.3667  -15.7604   25.5744 C   0  0  0  0  0  0  0  0  0  0  0  0
    7.3971  -16.5151   25.8362 O   0  0  0  0  0  0  0  0  0  0  0  0
   12.0457  -17.5353   25.1732 O   0  0  0  0  0  0  0  0  0  0  0  0
   10.9025  -18.3422   25.2206 C   0  0  0  0  0  0  0  0  0  0  0  0
    9.9200  -17.6543   26.1340 C   0  0  2  0  0  0  0  0  0  0  0  0
    9.6664  -16.2859   25.7363 N   0  0  0  0  0  0  0  0  0  0  0  0
   10.3449  -17.7641   27.5383 C   0  0  0  0  0  0  0  0  0  0  0  0
   10.5531  -16.7451   28.2365 O   0  0  0  0  0  0  0  0  0  0  0  0
   10.5226  -19.0048   28.1155 O   0  0  0  0  0  0  0  0  0  0  0  0
  1  2  1  0
  2  3  2  0
  4  5  1  0
  4  2  1  0
  5  6  1  0
  6  7  1  6
  8  9  2  0
  8  6  1  0
 11 10  1  0
 11 12  1  0
 12 14  1  0
 12 13  1  1
 14 15  1  6
 15  8  1  0
 16 14  1  0
 17 16  2  0
 18 19  1  0
 20 19  1  6
 20 21  1  0
 21 16  1  0
 22 20  1  0
 22 24  1  0
 23 22  2  0
M  END
$$$$
