QIS.pdb
     RDKit          3D

 24 23  0  0  1  0  0  0  0  0999 V2000
    6.5790  -18.8158   20.6111 N   0  0  0  0  0  0  0  0  0  0  0  0
    6.5722  -18.0124   19.4139 C   0  0  0  0  0  0  0  0  0  0  0  0
    6.2852  -18.5298   18.3039 O   0  0  0  0  0  0  0  0  0  0  0  0
    6.9092  -16.5941   19.5718 C   0  0  0  0  0  0  0  0  0  0  0  0
    7.1457  -16.2537   21.0024 C   0  0  0  0  0  0  0  0  0  0  0  0
    7.2781  -14.7734   21.1860 C   0  0  2  0  0  0  0  0  0  0  0  0
    7.9237  -14.1312   20.0739 N   0  0  0  0  0  0  0  0  0  0  0  0
    7.9942  -14.5536   22.4682 C   0  0  0  0  0  0  0  0  0  0  0  0
    9.2350  -14.3690   22.4020 O   0  0  0  0  0  0  0  0  0  0  0  0
    5.8640  -11.5073   26.1484 C   0  0  0  0  0  0  0  0  0  0  0  0
    6.8814  -12.2124   25.2218 C   0  0  0  0  0  0  0  0  0  0  0  0
    7.2605  -13.5115   25.8396 C   0  0  2  0  0  0  0  0  0  0  0  0
    7.8066  -13.3286   27.2416 C   0  0  0  0  0  0  0  0  0  0  0  0
    8.1306  -14.3727   24.9899 C   0  0  2  0  0  0  0  0  0  0  0  0
    7.3589  -14.5434   23.7243 N   0  0  0  0  0  0  0  0  0  0  0  0
    8.4903  -15.6827   25.5098 C   0  0  0  0  0  0  0  0  0  0  0  0
    7.5919  -16.4886   25.8588 O   0  0  0  0  0  0  0  0  0  0  0  0
   12.3817  -17.0532   25.3141 O   0  0  0  0  0  0  0  0  0  0  0  0
   11.3474  -17.9951   25.2576 C   0  0  0  0  0  0  0  0  0  0  0  0
   10.2029  -17.4358   26.0639 C   0  0  2  0  0  0  0  0  0  0  0  0
    9.8313  -16.1032   25.6380 N   0  0  0  0  0  0  0  0  0  0  0  0
   10.4927  -17.5073   27.5045 C   0  0  0  0  0  0  0  0  0  0  0  0
   10.4395  -16.4877   28.2302 O   0  0  0  0  0  0  0  0  0  0  0  0
   10.8313  -18.7120   28.0861 O   0  0  0  0  0  0  0  0  0  0  0  0
  1  2  1  0
  2  3  2  0
  4  5  1  0
  4  2  1  0
  5  6  1  0
  6  7  1  6
  8  9  2  0
  8  6  1  0
 11 10  1  0
 11 12  1  0
 12 14  1  0
 12 13  1  1
 14 15  1  6
 15  8  1  0
 16 14  1  0
 17 16  2  0
 18 19  1  0
 20 19  1  6
 20 21  1  0
 21 16  1  0
 22 20  1  0
 22 24  1  0
 23 22  2  0
M  END
$$$$
