QIS.pdb
     RDKit          3D

 24 23  0  0  1  0  0  0  0  0999 V2000
    9.9381  -15.4068   17.9593 N   0  0  0  0  0  0  0  0  0  0  0  0
    8.5040  -15.3921   17.8108 C   0  0  0  0  0  0  0  0  0  0  0  0
    7.9828  -15.4975   16.6708 O   0  0  0  0  0  0  0  0  0  0  0  0
    7.7170  -15.2530   19.0401 C   0  0  0  0  0  0  0  0  0  0  0  0
    8.6004  -15.1219   20.2322 C   0  0  0  0  0  0  0  0  0  0  0  0
    8.1090  -15.9762   21.3597 C   0  0  2  0  0  0  0  0  0  0  0  0
    6.6758  -16.0801   21.3941 N   0  0  0  0  0  0  0  0  0  0  0  0
    8.6721  -15.4132   22.6131 C   0  0  0  0  0  0  0  0  0  0  0  0
    9.9173  -15.2530   22.6553 O   0  0  0  0  0  0  0  0  0  0  0  0
    7.0373  -11.6887   27.0294 C   0  0  0  0  0  0  0  0  0  0  0  0
    8.0745  -12.7809   26.6800 C   0  0  0  0  0  0  0  0  0  0  0  0
    7.5732  -13.5502   25.5096 C   0  0  2  0  0  0  0  0  0  0  0  0
    6.1756  -14.0866   25.7467 C   0  0  0  0  0  0  0  0  0  0  0  0
    8.5115  -14.5907   25.0022 C   0  0  2  0  0  0  0  0  0  0  0  0
    7.8905  -15.0596   23.7291 N   0  0  0  0  0  0  0  0  0  0  0  0
    8.7678  -15.7380   25.8590 C   0  0  0  0  0  0  0  0  0  0  0  0
    7.8587  -16.5784   26.0723 O   0  0  0  0  0  0  0  0  0  0  0  0
   12.3875  -17.3927   26.2965 O   0  0  0  0  0  0  0  0  0  0  0  0
   11.2217  -18.0937   26.6275 C   0  0  0  0  0  0  0  0  0  0  0  0
   10.2983  -17.1116   27.3025 C   0  0  2  0  0  0  0  0  0  0  0  0
   10.0198  -15.9598   26.4713 N   0  0  0  0  0  0  0  0  0  0  0  0
   10.8106  -16.7384   28.6303 C   0  0  0  0  0  0  0  0  0  0  0  0
   11.1129  -17.6087   29.4791 O   0  0  0  0  0  0  0  0  0  0  0  0
   10.9682  -15.4093   28.9658 O   0  0  0  0  0  0  0  0  0  0  0  0
  1  2  1  0
  2  3  2  0
  4  5  1  0
  4  2  1  0
  5  6  1  0
  6  7  1  1
  8  9  2  0
  8  6  1  0
 11 10  1  0
 11 12  1  0
 12 14  1  0
 12 13  1  1
 14 15  1  6
 15  8  1  0
 16 14  1  0
 17 16  2  0
 18 19  1  0
 20 19  1  6
 20 21  1  0
 21 16  1  0
 22 20  1  0
 22 24  1  0
 23 22  2  0
M  END
$$$$
