QIS.pdb
     RDKit          3D

 24 23  0  0  1  0  0  0  0  0999 V2000
    8.8067  -17.7500   19.2303 N   0  0  0  0  0  0  0  0  0  0  0  0
    7.3751  -17.7664   19.0596 C   0  0  0  0  0  0  0  0  0  0  0  0
    6.8669  -18.2285   18.0058 O   0  0  0  0  0  0  0  0  0  0  0  0
    6.5749  -17.2276   20.1638 C   0  0  0  0  0  0  0  0  0  0  0  0
    7.4411  -16.8070   21.3002 C   0  0  0  0  0  0  0  0  0  0  0  0
    7.3288  -15.3335   21.5426 C   0  0  2  0  0  0  0  0  0  0  0  0
    7.7367  -14.5512   20.4078 N   0  0  0  0  0  0  0  0  0  0  0  0
    8.1199  -15.0288   22.7617 C   0  0  0  0  0  0  0  0  0  0  0  0
    9.3658  -14.9455   22.6249 O   0  0  0  0  0  0  0  0  0  0  0  0
    6.0724  -11.6733   26.2163 C   0  0  0  0  0  0  0  0  0  0  0  0
    7.1132  -12.4026   25.3356 C   0  0  0  0  0  0  0  0  0  0  0  0
    7.5663  -13.6238   26.0543 C   0  0  2  0  0  0  0  0  0  0  0  0
    8.2113  -13.2864   27.3837 C   0  0  0  0  0  0  0  0  0  0  0  0
    8.3893  -14.5573   25.2347 C   0  0  2  0  0  0  0  0  0  0  0  0
    7.5487  -14.8341   24.0334 N   0  0  0  0  0  0  0  0  0  0  0  0
    8.7802  -15.8187   25.8444 C   0  0  0  0  0  0  0  0  0  0  0  0
    7.9012  -16.6257   26.2373 O   0  0  0  0  0  0  0  0  0  0  0  0
   12.6889  -17.1782   25.7422 O   0  0  0  0  0  0  0  0  0  0  0  0
   11.6484  -18.1104   25.8334 C   0  0  0  0  0  0  0  0  0  0  0  0
   10.5352  -17.4482   26.6048 C   0  0  2  0  0  0  0  0  0  0  0  0
   10.1311  -16.1901   26.0141 N   0  0  0  0  0  0  0  0  0  0  0  0
   10.8896  -17.3159   28.0266 C   0  0  0  0  0  0  0  0  0  0  0  0
   10.8236  -16.2111   28.6133 O   0  0  0  0  0  0  0  0  0  0  0  0
   11.3047  -18.4186   28.7447 O   0  0  0  0  0  0  0  0  0  0  0  0
  1  2  1  0
  2  3  2  0
  4  5  1  0
  4  2  1  0
  5  6  1  0
  6  7  1  6
  8  9  2  0
  8  6  1  0
 11 10  1  0
 11 12  1  0
 12 14  1  0
 12 13  1  1
 14 15  1  6
 15  8  1  0
 16 14  1  0
 17 16  2  0
 18 19  1  0
 20 19  1  6
 20 21  1  0
 21 16  1  0
 22 20  1  0
 22 24  1  0
 23 22  2  0
M  END
$$$$
