QIS.pdb
     RDKit          3D

 24 23  0  0  1  0  0  0  0  0999 V2000
    7.1148  -18.4882   20.3643 N   0  0  0  0  0  0  0  0  0  0  0  0
    7.2002  -17.6570   19.1893 C   0  0  0  0  0  0  0  0  0  0  0  0
    7.1833  -18.1747   18.0431 O   0  0  0  0  0  0  0  0  0  0  0  0
    7.3023  -16.2114   19.4124 C   0  0  0  0  0  0  0  0  0  0  0  0
    7.1417  -15.8774   20.8550 C   0  0  0  0  0  0  0  0  0  0  0  0
    7.1915  -14.3963   21.0707 C   0  0  2  0  0  0  0  0  0  0  0  0
    7.8163  -13.6970   19.9813 N   0  0  0  0  0  0  0  0  0  0  0  0
    7.8777  -14.1656   22.3672 C   0  0  0  0  0  0  0  0  0  0  0  0
    9.1060  -13.9063   22.3222 O   0  0  0  0  0  0  0  0  0  0  0  0
    5.7918  -11.1954   26.0526 C   0  0  0  0  0  0  0  0  0  0  0  0
    6.8007  -11.9212   25.1328 C   0  0  0  0  0  0  0  0  0  0  0  0
    7.1432  -13.2310   25.7493 C   0  0  2  0  0  0  0  0  0  0  0  0
    7.6996  -13.0647   27.1492 C   0  0  0  0  0  0  0  0  0  0  0  0
    7.9839  -14.1179   24.8964 C   0  0  2  0  0  0  0  0  0  0  0  0
    7.2277  -14.2233   23.6145 N   0  0  0  0  0  0  0  0  0  0  0  0
    8.2676  -15.4548   25.3944 C   0  0  0  0  0  0  0  0  0  0  0  0
    7.3268  -16.2618   25.5991 O   0  0  0  0  0  0  0  0  0  0  0  0
   11.9902  -17.0763   25.0768 O   0  0  0  0  0  0  0  0  0  0  0  0
   10.8776  -17.9223   25.1572 C   0  0  0  0  0  0  0  0  0  0  0  0
    9.8855  -17.2531   26.0741 C   0  0  2  0  0  0  0  0  0  0  0  0
    9.5803  -15.9005   25.6589 N   0  0  0  0  0  0  0  0  0  0  0  0
   10.3335  -17.3260   27.4735 C   0  0  0  0  0  0  0  0  0  0  0  0
   10.4391  -16.2952   28.1774 O   0  0  0  0  0  0  0  0  0  0  0  0
   10.6478  -18.5445   28.0398 O   0  0  0  0  0  0  0  0  0  0  0  0
  1  2  1  0
  2  3  2  0
  4  5  1  0
  4  2  1  0
  5  6  1  0
  6  7  1  6
  8  9  2  0
  8  6  1  0
 11 10  1  0
 11 12  1  0
 12 14  1  0
 12 13  1  1
 14 15  1  6
 15  8  1  0
 16 14  1  0
 17 16  2  0
 18 19  1  0
 20 19  1  6
 20 21  1  0
 21 16  1  0
 22 20  1  0
 22 24  1  0
 23 22  2  0
M  END
$$$$
