WAC.pdb
     RDKit          3D

 26 27  0  0  1  0  0  0  0  0999 V2000
   15.6889  -16.2395    3.2548 N   0  0  0  0  0  0  0  0  0  0  0  0
   16.6719  -16.8819    4.1147 C   0  0  1  0  0  0  0  0  0  0  0  0
   18.0706  -16.3807    3.7947 C   0  0  0  0  0  0  0  0  0  0  0  0
   18.5842  -16.9841    2.5399 C   0  0  0  0  0  0  0  0  0  0  0  0
   17.9871  -17.9967    1.7879 C   0  0  0  0  0  0  0  0  0  0  0  0
   18.7903  -18.2368    0.7369 N   0  0  0  0  0  0  0  0  0  0  0  0
   19.8699  -17.4256    0.7837 C   0  0  0  0  0  0  0  0  0  0  0  0
   20.9697  -17.2742   -0.0372 C   0  0  0  0  0  0  0  0  0  0  0  0
   21.9355  -16.3291    0.2874 C   0  0  0  0  0  0  0  0  0  0  0  0
   21.8334  -15.5346    1.4045 C   0  0  0  0  0  0  0  0  0  0  0  0
   20.7359  -15.6849    2.2248 C   0  0  0  0  0  0  0  0  0  0  0  0
   19.7687  -16.6343    1.8959 C   0  0  0  0  0  0  0  0  0  0  0  0
   16.3916  -16.6092    5.5470 C   0  0  0  0  0  0  0  0  0  0  0  0
   16.3569  -15.4268    5.9291 O   0  0  0  0  0  0  0  0  0  0  0  0
   15.4772  -18.5289    8.6124 C   0  0  0  0  0  0  0  0  0  0  0  0
   15.9585  -17.2758    7.9027 C   0  0  2  0  0  0  0  0  0  0  0  0
   16.1597  -17.6232    6.5115 N   0  0  0  0  0  0  0  0  0  0  0  0
   17.2503  -16.8024    8.4975 C   0  0  0  0  0  0  0  0  0  0  0  0
   18.3400  -17.1088    7.9724 O   0  0  0  0  0  0  0  0  0  0  0  0
   17.2759  -15.9992    9.6642 N   0  0  0  0  0  0  0  0  0  0  0  0
   18.4481  -15.4837   10.2827 C   0  0  1  0  0  0  0  0  0  0  0  0
   18.1957  -14.2709   11.1455 C   0  0  0  0  0  0  0  0  0  0  0  0
   18.0077  -12.7700   10.1666 S   0  0  0  0  0  0  0  0  0  0  0  0
   19.0440  -16.5297   11.1475 C   0  0  0  0  0  0  0  0  0  0  0  0
   18.4700  -17.6425   11.3352 O   0  0  0  0  0  0  0  0  0  0  0  0
   20.2502  -16.2999   11.7682 O   0  0  0  0  0  0  0  0  0  0  0  0
  2  1  1  6
  2 13  1  0
  3  4  1  0
  3  2  1  0
  4 12  1  0
  5  4  2  0
  5  6  1  0
  6  7  1  0
  7  8  1  0
  8  9  2  0
 10  9  1  0
 11 10  2  0
 12  7  2  0
 12 11  1  0
 13 14  2  0
 16 15  1  1
 16 18  1  0
 17 13  1  0
 17 16  1  0
 18 20  1  0
 18 19  2  0
 20 21  1  0
 21 24  1  0
 21 22  1  1
 22 23  1  0
 24 25  2  0
 24 26  1  0
M  END
$$$$
