WAC.pdb
     RDKit          3D

 26 27  0  0  1  0  0  0  0  0999 V2000
   28.0817  -21.4683  -11.8320 N   0  0  0  0  0  0  0  0  0  0  0  0
   26.8193  -21.4244  -11.1091 C   0  0  1  0  0  0  0  0  0  0  0  0
   26.8802  -20.3991   -9.9889 C   0  0  0  0  0  0  0  0  0  0  0  0
   28.0097  -20.6762   -9.0669 C   0  0  0  0  0  0  0  0  0  0  0  0
   29.2300  -21.2725   -9.3875 C   0  0  0  0  0  0  0  0  0  0  0  0
   29.9531  -21.3301   -8.2556 N   0  0  0  0  0  0  0  0  0  0  0  0
   29.2517  -20.7991   -7.2300 C   0  0  0  0  0  0  0  0  0  0  0  0
   29.5331  -20.6204   -5.8901 C   0  0  0  0  0  0  0  0  0  0  0  0
   28.5817  -20.0276   -5.0686 C   0  0  0  0  0  0  0  0  0  0  0  0
   27.3623  -19.6104   -5.5466 C   0  0  0  0  0  0  0  0  0  0  0  0
   27.0802  -19.7883   -6.8841 C   0  0  0  0  0  0  0  0  0  0  0  0
   28.0374  -20.3835   -7.7054 C   0  0  0  0  0  0  0  0  0  0  0  0
   25.6961  -21.0672  -12.0120 C   0  0  0  0  0  0  0  0  0  0  0  0
   25.8194  -20.0710  -12.7453 O   0  0  0  0  0  0  0  0  0  0  0  0
   23.0812  -22.7922  -13.7460 C   0  0  0  0  0  0  0  0  0  0  0  0
   23.5017  -21.4817  -13.1046 C   0  0  2  0  0  0  0  0  0  0  0  0
   24.4832  -21.7988  -12.0885 N   0  0  0  0  0  0  0  0  0  0  0  0
   22.3213  -20.8066  -12.4742 C   0  0  0  0  0  0  0  0  0  0  0  0
   22.0547  -20.9904  -11.2691 O   0  0  0  0  0  0  0  0  0  0  0  0
   21.4778  -19.9458  -13.2188 N   0  0  0  0  0  0  0  0  0  0  0  0
   20.3079  -19.3081  -12.7219 C   0  0  1  0  0  0  0  0  0  0  0  0
   20.1143  -17.9043  -13.2425 C   0  0  0  0  0  0  0  0  0  0  0  0
   20.6057  -16.6600  -12.0355 S   0  0  0  0  0  0  0  0  0  0  0  0
   19.1169  -20.0976  -13.1158 C   0  0  0  0  0  0  0  0  0  0  0  0
   19.1172  -20.8291  -14.1492 O   0  0  0  0  0  0  0  0  0  0  0  0
   17.9756  -20.0443  -12.3492 O   0  0  0  0  0  0  0  0  0  0  0  0
  2  1  1  6
  2 13  1  0
  3  4  1  0
  3  2  1  0
  4 12  1  0
  5  4  2  0
  5  6  1  0
  6  7  1  0
  7  8  1  0
  8  9  2  0
 10  9  1  0
 11 10  2  0
 12  7  2  0
 12 11  1  0
 13 14  2  0
 16 15  1  1
 16 18  1  0
 17 13  1  0
 17 16  1  0
 18 20  1  0
 18 19  2  0
 20 21  1  0
 21 24  1  0
 21 22  1  6
 22 23  1  0
 24 25  2  0
 24 26  1  0
M  END
$$$$
