WAC.pdb
     RDKit          3D

 26 27  0  0  1  0  0  0  0  0999 V2000
   24.5891  -16.2250  -17.5450 N   0  0  0  0  0  0  0  0  0  0  0  0
   24.6858  -17.0444  -16.3461 C   0  0  1  0  0  0  0  0  0  0  0  0
   25.6266  -16.4063  -15.3372 C   0  0  0  0  0  0  0  0  0  0  0  0
   26.9513  -16.1214  -15.9425 C   0  0  0  0  0  0  0  0  0  0  0  0
   27.7649  -17.0128  -16.6433 C   0  0  0  0  0  0  0  0  0  0  0  0
   28.8685  -16.3384  -17.0102 N   0  0  0  0  0  0  0  0  0  0  0  0
   28.7966  -15.0606  -16.5766 C   0  0  0  0  0  0  0  0  0  0  0  0
   29.6490  -13.9801  -16.6864 C   0  0  0  0  0  0  0  0  0  0  0  0
   29.2835  -12.7652  -16.1190 C   0  0  0  0  0  0  0  0  0  0  0  0
   28.0951  -12.6008  -15.4479 C   0  0  0  0  0  0  0  0  0  0  0  0
   27.2433  -13.6789  -15.3376 C   0  0  0  0  0  0  0  0  0  0  0  0
   27.6135  -14.8964  -15.9082 C   0  0  0  0  0  0  0  0  0  0  0  0
   23.3575  -17.2171  -15.7056 C   0  0  0  0  0  0  0  0  0  0  0  0
   22.5115  -16.3168  -15.8442 O   0  0  0  0  0  0  0  0  0  0  0  0
   20.9448  -18.8156  -16.0757 C   0  0  0  0  0  0  0  0  0  0  0  0
   21.5980  -18.6664  -14.7132 C   0  0  2  0  0  0  0  0  0  0  0  0
   22.9937  -18.3545  -14.9401 N   0  0  0  0  0  0  0  0  0  0  0  0
   21.4851  -19.9438  -13.9373 C   0  0  0  0  0  0  0  0  0  0  0  0
   21.8453  -21.0265  -14.4426 O   0  0  0  0  0  0  0  0  0  0  0  0
   20.9706  -19.9636  -12.6175 N   0  0  0  0  0  0  0  0  0  0  0  0
   20.9693  -21.0917  -11.7517 C   0  0  1  0  0  0  0  0  0  0  0  0
   21.3605  -20.7664  -10.3304 C   0  0  0  0  0  0  0  0  0  0  0  0
   20.3123  -19.4874   -9.6148 S   0  0  0  0  0  0  0  0  0  0  0  0
   19.6084  -21.6782  -11.7162 C   0  0  0  0  0  0  0  0  0  0  0  0
   18.6115  -21.0728  -12.2088 O   0  0  0  0  0  0  0  0  0  0  0  0
   19.4083  -22.9100  -11.1370 O   0  0  0  0  0  0  0  0  0  0  0  0
  2  1  1  6
  2 13  1  0
  3  4  1  0
  3  2  1  0
  4 12  1  0
  5  4  2  0
  5  6  1  0
  6  7  1  0
  7  8  1  0
  8  9  2  0
 10  9  1  0
 11 10  2  0
 12  7  2  0
 12 11  1  0
 13 14  2  0
 16 15  1  6
 16 18  1  0
 17 13  1  0
 17 16  1  0
 18 20  1  0
 18 19  2  0
 20 21  1  0
 21 24  1  0
 21 22  1  1
 22 23  1  0
 24 25  2  0
 24 26  1  0
M  END
$$$$
