WAC.pdb
     RDKit          3D

 26 27  0  0  1  0  0  0  0  0999 V2000
   24.3100  -19.8764  -11.4132 N   0  0  0  0  0  0  0  0  0  0  0  0
   25.7414  -20.0771  -11.5831 C   0  0  1  0  0  0  0  0  0  0  0  0
   26.2294  -21.2165  -10.7036 C   0  0  0  0  0  0  0  0  0  0  0  0
   26.2803  -20.8108   -9.2769 C   0  0  0  0  0  0  0  0  0  0  0  0
   25.1996  -20.6547   -8.4080 C   0  0  0  0  0  0  0  0  0  0  0  0
   25.6984  -20.2769   -7.2181 N   0  0  0  0  0  0  0  0  0  0  0  0
   27.0446  -20.1850   -7.2878 C   0  0  0  0  0  0  0  0  0  0  0  0
   28.0137  -19.8438   -6.3655 C   0  0  0  0  0  0  0  0  0  0  0  0
   29.3489  -19.8421   -6.7511 C   0  0  0  0  0  0  0  0  0  0  0  0
   29.7409  -20.1704   -8.0271 C   0  0  0  0  0  0  0  0  0  0  0  0
   28.7743  -20.5113   -8.9488 C   0  0  0  0  0  0  0  0  0  0  0  0
   27.4354  -20.5118   -8.5582 C   0  0  0  0  0  0  0  0  0  0  0  0
   26.0745  -20.3973  -12.9941 C   0  0  0  0  0  0  0  0  0  0  0  0
   25.3153  -21.1528  -13.6252 O   0  0  0  0  0  0  0  0  0  0  0  0
   28.5486  -19.2748  -15.5511 C   0  0  0  0  0  0  0  0  0  0  0  0
   27.4077  -20.1585  -15.0790 C   0  0  2  0  0  0  0  0  0  0  0  0
   27.2140  -19.8899  -13.6695 N   0  0  0  0  0  0  0  0  0  0  0  0
   27.7512  -21.6041  -15.2757 C   0  0  0  0  0  0  0  0  0  0  0  0
   28.7214  -22.1123  -14.6777 O   0  0  0  0  0  0  0  0  0  0  0  0
   26.9928  -22.4329  -16.1388 N   0  0  0  0  0  0  0  0  0  0  0  0
   27.2896  -23.7888  -16.4481 C   0  0  1  0  0  0  0  0  0  0  0  0
   26.1651  -24.7443  -16.1292 C   0  0  0  0  0  0  0  0  0  0  0  0
   24.5464  -23.9914  -16.3733 S   0  0  0  0  0  0  0  0  0  0  0  0
   27.5774  -23.9071  -17.8974 C   0  0  0  0  0  0  0  0  0  0  0  0
   27.3060  -22.9720  -18.7067 O   0  0  0  0  0  0  0  0  0  0  0  0
   28.1534  -25.0554  -18.3898 O   0  0  0  0  0  0  0  0  0  0  0  0
  2  1  1  6
  2 13  1  0
  3  4  1  0
  3  2  1  0
  4 12  1  0
  5  4  2  0
  5  6  1  0
  6  7  1  0
  7  8  1  0
  8  9  2  0
 10  9  1  0
 11 10  2  0
 12  7  2  0
 12 11  1  0
 13 14  2  0
 16 15  1  1
 16 18  1  0
 17 13  1  0
 17 16  1  0
 18 20  1  0
 18 19  2  0
 20 21  1  0
 21 24  1  0
 21 22  1  6
 22 23  1  0
 24 25  2  0
 24 26  1  0
M  END
$$$$
