WAC.pdb
     RDKit          3D

 26 27  0  0  1  0  0  0  0  0999 V2000
   27.9013  -20.0687  -10.2008 N   0  0  0  0  0  0  0  0  0  0  0  0
   26.7924  -20.9834   -9.9729 C   0  0  1  0  0  0  0  0  0  0  0  0
   26.0656  -20.6318   -8.6852 C   0  0  0  0  0  0  0  0  0  0  0  0
   26.9211  -19.8121   -7.7914 C   0  0  0  0  0  0  0  0  0  0  0  0
   27.4560  -18.5520   -8.0627 C   0  0  0  0  0  0  0  0  0  0  0  0
   28.1658  -18.1814   -6.9828 N   0  0  0  0  0  0  0  0  0  0  0  0
   28.1084  -19.1449   -6.0372 C   0  0  0  0  0  0  0  0  0  0  0  0
   28.6519  -19.2564   -4.7729 C   0  0  0  0  0  0  0  0  0  0  0  0
   28.4047  -20.4014   -4.0250 C   0  0  0  0  0  0  0  0  0  0  0  0
   27.6330  -21.4335   -4.5032 C   0  0  0  0  0  0  0  0  0  0  0  0
   27.0898  -21.3232   -5.7653 C   0  0  0  0  0  0  0  0  0  0  0  0
   27.3400  -20.1728   -6.5129 C   0  0  0  0  0  0  0  0  0  0  0  0
   25.8171  -20.9335  -11.0912 C   0  0  0  0  0  0  0  0  0  0  0  0
   25.5106  -19.8239  -11.5608 O   0  0  0  0  0  0  0  0  0  0  0  0
   24.3535  -23.3479  -13.4940 C   0  0  0  0  0  0  0  0  0  0  0  0
   24.4125  -21.9683  -12.8624 C   0  0  2  0  0  0  0  0  0  0  0  0
   25.2103  -22.0827  -11.6595 N   0  0  0  0  0  0  0  0  0  0  0  0
   23.0341  -21.4953  -12.5119 C   0  0  0  0  0  0  0  0  0  0  0  0
   22.5130  -21.8117  -11.4231 O   0  0  0  0  0  0  0  0  0  0  0  0
   22.2851  -20.6812  -13.3968 N   0  0  0  0  0  0  0  0  0  0  0  0
   20.9295  -20.2939  -13.2104 C   0  0  1  0  0  0  0  0  0  0  0  0
   20.5666  -19.0025  -13.9031 C   0  0  0  0  0  0  0  0  0  0  0  0
   21.3961  -17.5824  -13.1673 S   0  0  0  0  0  0  0  0  0  0  0  0
   20.0412  -21.3523  -13.7468 C   0  0  0  0  0  0  0  0  0  0  0  0
   20.4813  -22.2691  -14.5011 O   0  0  0  0  0  0  0  0  0  0  0  0
   18.7034  -21.3514  -13.4259 O   0  0  0  0  0  0  0  0  0  0  0  0
  2  1  1  6
  2 13  1  0
  3  4  1  0
  3  2  1  0
  4 12  1  0
  5  4  2  0
  5  6  1  0
  6  7  1  0
  7  8  1  0
  8  9  2  0
 10  9  1  0
 11 10  2  0
 12  7  2  0
 12 11  1  0
 13 14  2  0
 16 15  1  1
 16 18  1  0
 17 13  1  0
 17 16  1  0
 18 20  1  0
 18 19  2  0
 20 21  1  0
 21 24  1  0
 21 22  1  6
 22 23  1  0
 24 25  2  0
 24 26  1  0
M  END
$$$$
