WAC.pdb
     RDKit          3D

 26 27  0  0  1  0  0  0  0  0999 V2000
   23.7692  -19.4052  -10.9949 N   0  0  0  0  0  0  0  0  0  0  0  0
   24.6736  -19.9118  -12.0165 C   0  0  1  0  0  0  0  0  0  0  0  0
   25.3083  -21.2180  -11.5683 C   0  0  0  0  0  0  0  0  0  0  0  0
   26.2523  -20.9994  -10.4442 C   0  0  0  0  0  0  0  0  0  0  0  0
   25.9278  -20.7484   -9.1103 C   0  0  0  0  0  0  0  0  0  0  0  0
   27.0848  -20.6124   -8.4393 N   0  0  0  0  0  0  0  0  0  0  0  0
   28.1301  -20.7647   -9.2819 C   0  0  0  0  0  0  0  0  0  0  0  0
   29.4982  -20.7204   -9.1019 C   0  0  0  0  0  0  0  0  0  0  0  0
   30.3346  -20.9215  -10.1934 C   0  0  0  0  0  0  0  0  0  0  0  0
   29.8440  -21.1646  -11.4543 C   0  0  0  0  0  0  0  0  0  0  0  0
   28.4782  -21.2092  -11.6352 C   0  0  0  0  0  0  0  0  0  0  0  0
   27.6420  -21.0069  -10.5375 C   0  0  0  0  0  0  0  0  0  0  0  0
   23.9582  -20.1518  -13.2951 C   0  0  0  0  0  0  0  0  0  0  0  0
   22.8277  -20.6674  -13.2537 O   0  0  0  0  0  0  0  0  0  0  0  0
   24.4888  -19.4277  -16.9230 C   0  0  0  0  0  0  0  0  0  0  0  0
   23.6749  -19.9620  -15.7578 C   0  0  2  0  0  0  0  0  0  0  0  0
   24.4903  -19.8263  -14.5690 N   0  0  0  0  0  0  0  0  0  0  0  0
   23.3357  -21.4055  -15.9763 C   0  0  0  0  0  0  0  0  0  0  0  0
   24.2387  -22.2612  -16.0737 O   0  0  0  0  0  0  0  0  0  0  0  0
   21.9916  -21.8414  -16.0783 N   0  0  0  0  0  0  0  0  0  0  0  0
   21.5763  -23.1835  -16.2981 C   0  0  1  0  0  0  0  0  0  0  0  0
   20.7610  -23.7597  -15.1657 C   0  0  0  0  0  0  0  0  0  0  0  0
   20.1531  -22.4822  -14.0499 S   0  0  0  0  0  0  0  0  0  0  0  0
   20.7425  -23.2422  -17.5223 C   0  0  0  0  0  0  0  0  0  0  0  0
   20.3176  -24.3419  -17.9841 O   0  0  0  0  0  0  0  0  0  0  0  0
   20.4143  -22.0813  -18.1838 O   0  0  0  0  0  0  0  0  0  0  0  0
  2  1  1  1
  2 13  1  0
  3  4  1  0
  3  2  1  0
  4 12  1  0
  5  4  2  0
  5  6  1  0
  6  7  1  0
  7  8  1  0
  8  9  2  0
 10  9  1  0
 11 10  2  0
 12  7  2  0
 12 11  1  0
 13 14  2  0
 16 15  1  6
 16 18  1  0
 17 13  1  0
 17 16  1  0
 18 20  1  0
 18 19  2  0
 20 21  1  0
 21 24  1  0
 21 22  1  1
 22 23  1  0
 24 25  2  0
 24 26  1  0
M  END
$$$$
