WAC.pdb
     RDKit          3D

 26 27  0  0  1  0  0  0  0  0999 V2000
   27.8536  -21.7255  -11.1986 N   0  0  0  0  0  0  0  0  0  0  0  0
   26.6536  -21.3832  -10.4496 C   0  0  1  0  0  0  0  0  0  0  0  0
   26.8748  -20.1199   -9.6341 C   0  0  0  0  0  0  0  0  0  0  0  0
   27.9910  -20.2901   -8.6709 C   0  0  0  0  0  0  0  0  0  0  0  0
   29.2958  -20.6928   -8.9584 C   0  0  0  0  0  0  0  0  0  0  0  0
   29.9700  -20.7140   -7.7955 N   0  0  0  0  0  0  0  0  0  0  0  0
   29.1571  -20.3441   -6.7815 C   0  0  0  0  0  0  0  0  0  0  0  0
   29.3521  -20.2045   -5.4219 C   0  0  0  0  0  0  0  0  0  0  0  0
   28.2920  -19.7965   -4.6212 C   0  0  0  0  0  0  0  0  0  0  0  0
   27.0479  -19.5254   -5.1391 C   0  0  0  0  0  0  0  0  0  0  0  0
   26.8520  -19.6645   -6.4964 C   0  0  0  0  0  0  0  0  0  0  0  0
   27.9181  -20.0741   -7.2967 C   0  0  0  0  0  0  0  0  0  0  0  0
   25.5000  -21.1601  -11.3572 C   0  0  0  0  0  0  0  0  0  0  0  0
   25.7019  -20.5880  -12.4423 O   0  0  0  0  0  0  0  0  0  0  0  0
   21.9958  -22.3756  -11.6057 C   0  0  0  0  0  0  0  0  0  0  0  0
   23.1444  -21.5008  -12.0758 C   0  0  2  0  0  0  0  0  0  0  0  0
   24.1731  -21.5631  -11.0587 N   0  0  0  0  0  0  0  0  0  0  0  0
   22.6861  -20.0839  -12.2454 C   0  0  0  0  0  0  0  0  0  0  0  0
   22.6508  -19.3078  -11.2689 O   0  0  0  0  0  0  0  0  0  0  0  0
   22.2819  -19.5842  -13.5078 N   0  0  0  0  0  0  0  0  0  0  0  0
   21.8522  -18.2536  -13.7670 C   0  0  1  0  0  0  0  0  0  0  0  0
   22.2352  -17.7481  -15.1370 C   0  0  0  0  0  0  0  0  0  0  0  0
   24.0200  -17.7443  -15.3834 S   0  0  0  0  0  0  0  0  0  0  0  0
   20.3748  -18.1893  -13.6652 C   0  0  0  0  0  0  0  0  0  0  0  0
   19.6464  -19.1887  -13.9365 O   0  0  0  0  0  0  0  0  0  0  0  0
   19.7658  -17.0214  -13.2674 O   0  0  0  0  0  0  0  0  0  0  0  0
  2  1  1  6
  2 13  1  0
  3  4  1  0
  3  2  1  0
  4 12  1  0
  5  4  2  0
  5  6  1  0
  6  7  1  0
  7  8  1  0
  8  9  2  0
 10  9  1  0
 11 10  2  0
 12  7  2  0
 12 11  1  0
 13 14  2  0
 16 15  1  1
 16 18  1  0
 17 13  1  0
 17 16  1  0
 18 20  1  0
 18 19  2  0
 20 21  1  0
 21 24  1  0
 21 22  1  6
 22 23  1  0
 24 25  2  0
 24 26  1  0
M  END
$$$$
