WAC.pdb
     RDKit          3D

 26 27  0  0  1  0  0  0  0  0999 V2000
   24.8520  -20.1158   -9.8857 N   0  0  0  0  0  0  0  0  0  0  0  0
   24.8211  -20.3958  -11.3136 C   0  0  1  0  0  0  0  0  0  0  0  0
   25.4729  -21.7365  -11.6096 C   0  0  0  0  0  0  0  0  0  0  0  0
   26.2454  -21.6910  -12.8759 C   0  0  0  0  0  0  0  0  0  0  0  0
   27.0629  -20.6532  -13.3254 C   0  0  0  0  0  0  0  0  0  0  0  0
   27.5635  -21.0291  -14.5151 N   0  0  0  0  0  0  0  0  0  0  0  0
   27.1039  -22.2564  -14.8446 C   0  0  0  0  0  0  0  0  0  0  0  0
   27.3097  -23.0767  -15.9359 C   0  0  0  0  0  0  0  0  0  0  0  0
   26.6793  -24.3143  -15.9847 C   0  0  0  0  0  0  0  0  0  0  0  0
   25.8525  -24.7530  -14.9778 C   0  0  0  0  0  0  0  0  0  0  0  0
   25.6464  -23.9347  -13.8878 C   0  0  0  0  0  0  0  0  0  0  0  0
   26.2807  -22.6935  -13.8423 C   0  0  0  0  0  0  0  0  0  0  0  0
   23.4272  -20.4285  -11.8238 C   0  0  0  0  0  0  0  0  0  0  0  0
   22.5301  -20.8440  -11.0702 O   0  0  0  0  0  0  0  0  0  0  0  0
   21.5689  -19.2886  -14.8504 C   0  0  0  0  0  0  0  0  0  0  0  0
   21.6667  -20.0437  -13.5367 C   0  0  2  0  0  0  0  0  0  0  0  0
   23.0553  -20.0117  -13.1277 N   0  0  0  0  0  0  0  0  0  0  0  0
   21.2254  -21.4647  -13.7171 C   0  0  0  0  0  0  0  0  0  0  0  0
   21.9961  -22.3094  -14.2168 O   0  0  0  0  0  0  0  0  0  0  0  0
   19.9312  -21.8912  -13.3298 N   0  0  0  0  0  0  0  0  0  0  0  0
   19.4296  -23.2160  -13.4550 C   0  0  1  0  0  0  0  0  0  0  0  0
   18.5728  -23.6530  -12.2914 C   0  0  0  0  0  0  0  0  0  0  0  0
   19.4944  -23.6794  -10.7434 S   0  0  0  0  0  0  0  0  0  0  0  0
   18.5997  -23.3101  -14.6796 C   0  0  0  0  0  0  0  0  0  0  0  0
   17.7171  -22.4440  -14.9517 O   0  0  0  0  0  0  0  0  0  0  0  0
   18.7817  -24.3588  -15.5514 O   0  0  0  0  0  0  0  0  0  0  0  0
  2  1  1  1
  2 13  1  0
  3  4  1  0
  3  2  1  0
  4 12  1  0
  5  4  2  0
  5  6  1  0
  6  7  1  0
  7  8  1  0
  8  9  2  0
 10  9  1  0
 11 10  2  0
 12  7  2  0
 12 11  1  0
 13 14  2  0
 16 15  1  6
 16 18  1  0
 17 13  1  0
 17 16  1  0
 18 20  1  0
 18 19  2  0
 20 21  1  0
 21 24  1  0
 21 22  1  1
 22 23  1  0
 24 25  2  0
 24 26  1  0
M  END
$$$$
