WAC.pdb
     RDKit          3D

 26 27  0  0  1  0  0  0  0  0999 V2000
   27.8391  -22.0451  -13.8984 N   0  0  0  0  0  0  0  0  0  0  0  0
   26.6939  -21.9846  -13.0022 C   0  0  1  0  0  0  0  0  0  0  0  0
   26.7247  -20.7060  -12.1813 C   0  0  0  0  0  0  0  0  0  0  0  0
   27.7962  -20.7512  -11.1554 C   0  0  0  0  0  0  0  0  0  0  0  0
   29.1605  -20.9487  -11.3725 C   0  0  0  0  0  0  0  0  0  0  0  0
   29.7621  -20.9186  -10.1706 N   0  0  0  0  0  0  0  0  0  0  0  0
   28.8463  -20.7115   -9.1989 C   0  0  0  0  0  0  0  0  0  0  0  0
   28.9397  -20.5998   -7.8259 C   0  0  0  0  0  0  0  0  0  0  0  0
   27.7867  -20.3822   -7.0813 C   0  0  0  0  0  0  0  0  0  0  0  0
   26.5482  -20.2736   -7.6679 C   0  0  0  0  0  0  0  0  0  0  0  0
   26.4537  -20.3850   -9.0386 C   0  0  0  0  0  0  0  0  0  0  0  0
   27.6130  -20.6033   -9.7825 C   0  0  0  0  0  0  0  0  0  0  0  0
   25.4174  -22.0259  -13.7592 C   0  0  0  0  0  0  0  0  0  0  0  0
   25.1827  -21.1175  -14.5748 O   0  0  0  0  0  0  0  0  0  0  0  0
   22.7986  -24.5068  -14.5344 C   0  0  0  0  0  0  0  0  0  0  0  0
   23.2673  -23.0649  -14.4511 C   0  0  2  0  0  0  0  0  0  0  0  0
   24.4435  -23.0459  -13.6069 N   0  0  0  0  0  0  0  0  0  0  0  0
   22.1991  -22.2026  -13.8494 C   0  0  0  0  0  0  0  0  0  0  0  0
   22.1920  -21.9639  -12.6246 O   0  0  0  0  0  0  0  0  0  0  0  0
   21.1723  -21.6358  -14.6440 N   0  0  0  0  0  0  0  0  0  0  0  0
   20.0655  -20.8920  -14.1503 C   0  0  1  0  0  0  0  0  0  0  0  0
   19.8861  -19.5523  -14.8228 C   0  0  0  0  0  0  0  0  0  0  0  0
   18.4160  -18.6912  -14.2366 S   0  0  0  0  0  0  0  0  0  0  0  0
   18.8210  -21.6683  -14.3644 C   0  0  0  0  0  0  0  0  0  0  0  0
   18.6019  -22.2860  -15.4477 O   0  0  0  0  0  0  0  0  0  0  0  0
   17.8715  -21.7282  -13.3705 O   0  0  0  0  0  0  0  0  0  0  0  0
  2  1  1  6
  2 13  1  0
  3  4  1  0
  3  2  1  0
  4 12  1  0
  5  4  2  0
  5  6  1  0
  6  7  1  0
  7  8  1  0
  8  9  2  0
 10  9  1  0
 11 10  2  0
 12  7  2  0
 12 11  1  0
 13 14  2  0
 16 15  1  1
 16 18  1  0
 17 13  1  0
 17 16  1  0
 18 20  1  0
 18 19  2  0
 20 21  1  0
 21 24  1  0
 21 22  1  6
 22 23  1  0
 24 25  2  0
 24 26  1  0
M  END
$$$$
