WAC.pdb
     RDKit          3D

 26 27  0  0  1  0  0  0  0  0999 V2000
   24.1579  -20.4244  -11.7397 N   0  0  0  0  0  0  0  0  0  0  0  0
   25.5348  -19.9621  -11.8322 C   0  0  1  0  0  0  0  0  0  0  0  0
   26.4739  -20.9393  -11.1445 C   0  0  0  0  0  0  0  0  0  0  0  0
   26.4070  -20.8013   -9.6683 C   0  0  0  0  0  0  0  0  0  0  0  0
   25.2620  -20.8379   -8.8714 C   0  0  0  0  0  0  0  0  0  0  0  0
   25.6593  -20.6712   -7.5980 N   0  0  0  0  0  0  0  0  0  0  0  0
   27.0021  -20.5301   -7.5460 C   0  0  0  0  0  0  0  0  0  0  0  0
   27.8886  -20.3369   -6.5052 C   0  0  0  0  0  0  0  0  0  0  0  0
   29.2464  -20.2268   -6.7801 C   0  0  0  0  0  0  0  0  0  0  0  0
   29.7409  -20.3040   -8.0604 C   0  0  0  0  0  0  0  0  0  0  0  0
   28.8568  -20.4969   -9.1002 C   0  0  0  0  0  0  0  0  0  0  0  0
   27.4950  -20.6069   -8.8206 C   0  0  0  0  0  0  0  0  0  0  0  0
   25.9592  -19.8204  -13.2479 C   0  0  0  0  0  0  0  0  0  0  0  0
   25.7224  -20.7542  -14.0337 O   0  0  0  0  0  0  0  0  0  0  0  0
   27.3333  -17.1233  -15.4290 C   0  0  0  0  0  0  0  0  0  0  0  0
   26.8551  -18.5434  -15.1838 C   0  0  2  0  0  0  0  0  0  0  0  0
   26.6228  -18.6764  -13.7609 N   0  0  0  0  0  0  0  0  0  0  0  0
   27.8974  -19.5280  -15.6203 C   0  0  0  0  0  0  0  0  0  0  0  0
   28.9887  -19.6040  -15.0199 O   0  0  0  0  0  0  0  0  0  0  0  0
   27.6798  -20.3963  -16.7183 N   0  0  0  0  0  0  0  0  0  0  0  0
   28.6263  -21.3240  -17.2339 C   0  0  1  0  0  0  0  0  0  0  0  0
   28.0662  -22.7106  -17.4410 C   0  0  0  0  0  0  0  0  0  0  0  0
   27.3876  -23.4014  -15.9216 S   0  0  0  0  0  0  0  0  0  0  0  0
   29.1179  -20.8413  -18.5463 C   0  0  0  0  0  0  0  0  0  0  0  0
   28.3587  -20.2337  -19.3571 O   0  0  0  0  0  0  0  0  0  0  0  0
   30.4291  -21.0515  -18.9060 O   0  0  0  0  0  0  0  0  0  0  0  0
  2  1  1  6
  2 13  1  0
  3  4  1  0
  3  2  1  0
  4 12  1  0
  5  4  2  0
  5  6  1  0
  6  7  1  0
  7  8  1  0
  8  9  2  0
 10  9  1  0
 11 10  2  0
 12  7  2  0
 12 11  1  0
 13 14  2  0
 16 15  1  1
 16 18  1  0
 17 13  1  0
 17 16  1  0
 18 20  1  0
 18 19  2  0
 20 21  1  0
 21 24  1  0
 21 22  1  6
 22 23  1  0
 24 25  2  0
 24 26  1  0
M  END
$$$$
