WAC.pdb
     RDKit          3D

 26 27  0  0  1  0  0  0  0  0999 V2000
   25.8101  -22.5880  -13.2172 N   0  0  0  0  0  0  0  0  0  0  0  0
   25.3297  -21.4753  -12.4114 C   0  0  1  0  0  0  0  0  0  0  0  0
   25.8986  -20.1614  -12.9213 C   0  0  0  0  0  0  0  0  0  0  0  0
   27.3746  -20.1205  -12.7722 C   0  0  0  0  0  0  0  0  0  0  0  0
   28.3128  -19.8415  -13.7669 C   0  0  0  0  0  0  0  0  0  0  0  0
   29.5284  -19.9137  -13.1973 N   0  0  0  0  0  0  0  0  0  0  0  0
   29.4091  -20.2252  -11.8879 C   0  0  0  0  0  0  0  0  0  0  0  0
   30.3310  -20.4150  -10.8778 C   0  0  0  0  0  0  0  0  0  0  0  0
   29.8848  -20.7352   -9.6012 C   0  0  0  0  0  0  0  0  0  0  0  0
   28.5488  -20.8705   -9.3072 C   0  0  0  0  0  0  0  0  0  0  0  0
   27.6275  -20.6813  -10.3149 C   0  0  0  0  0  0  0  0  0  0  0  0
   28.0790  -20.3601  -11.5947 C   0  0  0  0  0  0  0  0  0  0  0  0
   23.8478  -21.3895  -12.4443 C   0  0  0  0  0  0  0  0  0  0  0  0
   23.2412  -21.9669  -13.3631 O   0  0  0  0  0  0  0  0  0  0  0  0
   21.1314  -20.1315  -10.2170 C   0  0  0  0  0  0  0  0  0  0  0  0
   21.6327  -20.7726  -11.4989 C   0  0  2  0  0  0  0  0  0  0  0  0
   23.0778  -20.6840  -11.4844 N   0  0  0  0  0  0  0  0  0  0  0  0
   21.0933  -20.0441  -12.6926 C   0  0  0  0  0  0  0  0  0  0  0  0
   21.5250  -18.9125  -12.9931 O   0  0  0  0  0  0  0  0  0  0  0  0
   20.0855  -20.6110  -13.5110 N   0  0  0  0  0  0  0  0  0  0  0  0
   19.5467  -20.0155  -14.6845 C   0  0  1  0  0  0  0  0  0  0  0  0
   19.2447  -21.0054  -15.7837 C   0  0  0  0  0  0  0  0  0  0  0  0
   20.6948  -21.9709  -16.2433 S   0  0  0  0  0  0  0  0  0  0  0  0
   18.2791  -19.3266  -14.3445 C   0  0  0  0  0  0  0  0  0  0  0  0
   17.7818  -19.3869  -13.1817 O   0  0  0  0  0  0  0  0  0  0  0  0
   17.6151  -18.6000  -15.3059 O   0  0  0  0  0  0  0  0  0  0  0  0
  2  1  1  6
  2 13  1  0
  3  4  1  0
  3  2  1  0
  4 12  1  0
  5  4  2  0
  5  6  1  0
  6  7  1  0
  7  8  1  0
  8  9  2  0
 10  9  1  0
 11 10  2  0
 12  7  2  0
 12 11  1  0
 13 14  2  0
 16 15  1  1
 16 18  1  0
 17 13  1  0
 17 16  1  0
 18 20  1  0
 18 19  2  0
 20 21  1  0
 21 24  1  0
 21 22  1  6
 22 23  1  0
 24 25  2  0
 24 26  1  0
M  END
$$$$
