WAC.pdb
     RDKit          3D

 26 27  0  0  1  0  0  0  0  0999 V2000
   25.2643  -19.4937  -11.8528 N   0  0  0  0  0  0  0  0  0  0  0  0
   26.1259  -20.6240  -12.1664 C   0  0  1  0  0  0  0  0  0  0  0  0
   26.0155  -21.6941  -11.0928 C   0  0  0  0  0  0  0  0  0  0  0  0
   26.4563  -21.1790   -9.7726 C   0  0  0  0  0  0  0  0  0  0  0  0
   25.6486  -20.8773   -8.6753 C   0  0  0  0  0  0  0  0  0  0  0  0
   26.4580  -20.4406   -7.6948 N   0  0  0  0  0  0  0  0  0  0  0  0
   27.7422  -20.4499   -8.1152 C   0  0  0  0  0  0  0  0  0  0  0  0
   28.9335  -20.1044   -7.5088 C   0  0  0  0  0  0  0  0  0  0  0  0
   30.1202  -20.2281   -8.2215 C   0  0  0  0  0  0  0  0  0  0  0  0
   30.1494  -20.6854   -9.5175 C   0  0  0  0  0  0  0  0  0  0  0  0
   28.9606  -21.0306  -10.1239 C   0  0  0  0  0  0  0  0  0  0  0  0
   27.7718  -20.9051   -9.4056 C   0  0  0  0  0  0  0  0  0  0  0  0
   25.7623  -21.2297  -13.4722 C   0  0  0  0  0  0  0  0  0  0  0  0
   24.5576  -21.3606  -13.7496 O   0  0  0  0  0  0  0  0  0  0  0  0
   27.5349  -22.4285  -16.5378 C   0  0  0  0  0  0  0  0  0  0  0  0
   26.2854  -22.0722  -15.7521 C   0  0  2  0  0  0  0  0  0  0  0  0
   26.7129  -21.6708  -14.4282 N   0  0  0  0  0  0  0  0  0  0  0  0
   25.3757  -23.2591  -15.6515 C   0  0  0  0  0  0  0  0  0  0  0  0
   25.7921  -24.3395  -15.1863 O   0  0  0  0  0  0  0  0  0  0  0  0
   24.0261  -23.1938  -16.0772 N   0  0  0  0  0  0  0  0  0  0  0  0
   23.0763  -24.2464  -15.9662 C   0  0  1  0  0  0  0  0  0  0  0  0
   21.6556  -23.7661  -15.7926 C   0  0  0  0  0  0  0  0  0  0  0  0
   21.4003  -22.9674  -14.1979 S   0  0  0  0  0  0  0  0  0  0  0  0
   23.1198  -25.0746  -17.1947 C   0  0  0  0  0  0  0  0  0  0  0  0
   23.1053  -24.5527  -18.3482 O   0  0  0  0  0  0  0  0  0  0  0  0
   23.1776  -26.4456  -17.0948 O   0  0  0  0  0  0  0  0  0  0  0  0
  2  1  1  1
  2 13  1  0
  3  4  1  0
  3  2  1  0
  4 12  1  0
  5  4  2  0
  5  6  1  0
  6  7  1  0
  7  8  1  0
  8  9  2  0
 10  9  1  0
 11 10  2  0
 12  7  2  0
 12 11  1  0
 13 14  2  0
 16 15  1  6
 16 18  1  0
 17 13  1  0
 17 16  1  0
 18 20  1  0
 18 19  2  0
 20 21  1  0
 21 24  1  0
 21 22  1  6
 22 23  1  0
 24 25  2  0
 24 26  1  0
M  END
$$$$
