WAC.pdb
     RDKit          3D

 26 27  0  0  1  0  0  0  0  0999 V2000
   25.8500  -18.5076   -9.0323 N   0  0  0  0  0  0  0  0  0  0  0  0
   26.7499  -19.5977   -9.3785 C   0  0  1  0  0  0  0  0  0  0  0  0
   26.6125  -20.7400   -8.3854 C   0  0  0  0  0  0  0  0  0  0  0  0
   27.0455  -20.3271   -7.0273 C   0  0  0  0  0  0  0  0  0  0  0  0
   26.2668  -19.7084   -6.0483 C   0  0  0  0  0  0  0  0  0  0  0  0
   27.0566  -19.5127   -4.9781 N   0  0  0  0  0  0  0  0  0  0  0  0
   28.3005  -19.9770   -5.2288 C   0  0  0  0  0  0  0  0  0  0  0  0
   29.4591  -20.0170   -4.4789 C   0  0  0  0  0  0  0  0  0  0  0  0
   30.6071  -20.5732   -5.0303 C   0  0  0  0  0  0  0  0  0  0  0  0
   30.6296  -21.0882   -6.3046 C   0  0  0  0  0  0  0  0  0  0  0  0
   29.4735  -21.0488   -7.0542 C   0  0  0  0  0  0  0  0  0  0  0  0
   28.3234  -20.4899   -6.4976 C   0  0  0  0  0  0  0  0  0  0  0  0
   26.4617  -20.1203  -10.7380 C   0  0  0  0  0  0  0  0  0  0  0  0
   25.2770  -20.1840  -11.1093 O   0  0  0  0  0  0  0  0  0  0  0  0
   28.4135  -21.2374  -13.7250 C   0  0  0  0  0  0  0  0  0  0  0  0
   27.1362  -20.7936  -13.0343 C   0  0  2  0  0  0  0  0  0  0  0  0
   27.4631  -20.5539  -11.6442 N   0  0  0  0  0  0  0  0  0  0  0  0
   26.0915  -21.8641  -13.1306 C   0  0  0  0  0  0  0  0  0  0  0  0
   26.2020  -22.9189  -12.4730 O   0  0  0  0  0  0  0  0  0  0  0  0
   24.9553  -21.7148  -13.9635 N   0  0  0  0  0  0  0  0  0  0  0  0
   23.8698  -22.6297  -14.0463 C   0  0  1  0  0  0  0  0  0  0  0  0
   22.5222  -21.9622  -14.1789 C   0  0  0  0  0  0  0  0  0  0  0  0
   21.6336  -22.5147  -15.6457 S   0  0  0  0  0  0  0  0  0  0  0  0
   24.0545  -23.5002  -15.2318 C   0  0  0  0  0  0  0  0  0  0  0  0
   24.8287  -23.1758  -16.1796 O   0  0  0  0  0  0  0  0  0  0  0  0
   23.3745  -24.6931  -15.3182 O   0  0  0  0  0  0  0  0  0  0  0  0
  2  1  1  1
  2 13  1  0
  3  4  1  0
  3  2  1  0
  4 12  1  0
  5  4  2  0
  5  6  1  0
  6  7  1  0
  7  8  1  0
  8  9  2  0
 10  9  1  0
 11 10  2  0
 12  7  2  0
 12 11  1  0
 13 14  2  0
 16 15  1  6
 16 18  1  0
 17 13  1  0
 17 16  1  0
 18 20  1  0
 18 19  2  0
 20 21  1  0
 21 24  1  0
 21 22  1  6
 22 23  1  0
 24 25  2  0
 24 26  1  0
M  END
$$$$
