WAC.pdb
     RDKit          3D

 26 27  0  0  1  0  0  0  0  0999 V2000
   19.2466   -9.0299  -16.6894 N   0  0  0  0  0  0  0  0  0  0  0  0
   20.2643   -8.0392  -17.0074 C   0  0  1  0  0  0  0  0  0  0  0  0
   20.1676   -7.6229  -18.4659 C   0  0  0  0  0  0  0  0  0  0  0  0
   20.4755   -8.7583  -19.3708 C   0  0  0  0  0  0  0  0  0  0  0  0
   19.6749   -9.8729  -19.6239 C   0  0  0  0  0  0  0  0  0  0  0  0
   20.3385  -10.6475  -20.4997 N   0  0  0  0  0  0  0  0  0  0  0  0
   21.5229  -10.0796  -20.8162 C   0  0  0  0  0  0  0  0  0  0  0  0
   22.5554  -10.4587  -21.6508 C   0  0  0  0  0  0  0  0  0  0  0  0
   23.6716   -9.6391  -21.7673 C   0  0  0  0  0  0  0  0  0  0  0  0
   23.7844   -8.4563  -21.0760 C   0  0  0  0  0  0  0  0  0  0  0  0
   22.7542   -8.0767  -20.2425 C   0  0  0  0  0  0  0  0  0  0  0  0
   21.6357   -8.9018  -20.1282 C   0  0  0  0  0  0  0  0  0  0  0  0
   20.1159   -6.8273  -16.1625 C   0  0  0  0  0  0  0  0  0  0  0  0
   18.9831   -6.3327  -16.0299 O   0  0  0  0  0  0  0  0  0  0  0  0
   22.1883   -4.8262  -13.8089 C   0  0  0  0  0  0  0  0  0  0  0  0
   20.9664   -5.0131  -14.6906 C   0  0  2  0  0  0  0  0  0  0  0  0
   21.1957   -6.1960  -15.4935 N   0  0  0  0  0  0  0  0  0  0  0  0
   20.7802   -3.8240  -15.5838 C   0  0  0  0  0  0  0  0  0  0  0  0
   21.3993   -3.7393  -16.6640 O   0  0  0  0  0  0  0  0  0  0  0  0
   19.9037   -2.7674  -15.2343 N   0  0  0  0  0  0  0  0  0  0  0  0
   19.7059   -1.5785  -15.9891 C   0  0  1  0  0  0  0  0  0  0  0  0
   18.2700   -1.1139  -16.0244 C   0  0  0  0  0  0  0  0  0  0  0  0
   18.0867    0.4558  -16.8898 S   0  0  0  0  0  0  0  0  0  0  0  0
   20.5136   -0.4852  -15.3980 C   0  0  0  0  0  0  0  0  0  0  0  0
   20.5487   -0.2866  -14.1481 O   0  0  0  0  0  0  0  0  0  0  0  0
   21.2485    0.3424  -16.2154 O   0  0  0  0  0  0  0  0  0  0  0  0
  2  1  1  1
  2 13  1  0
  3  4  1  0
  3  2  1  0
  4 12  1  0
  5  4  2  0
  5  6  1  0
  6  7  1  0
  7  8  1  0
  8  9  2  0
 10  9  1  0
 11 10  2  0
 12  7  2  0
 12 11  1  0
 13 14  2  0
 16 15  1  1
 16 18  1  0
 17 13  1  0
 17 16  1  0
 18 20  1  0
 18 19  2  0
 20 21  1  0
 21 24  1  0
 21 22  1  1
 22 23  1  0
 24 25  2  0
 24 26  1  0
M  END
$$$$
