WAC.pdb
     RDKit          3D

 26 27  0  0  1  0  0  0  0  0999 V2000
   28.3748  -20.5131  -10.0698 N   0  0  0  0  0  0  0  0  0  0  0  0
   27.0005  -20.8703   -9.7507 C   0  0  1  0  0  0  0  0  0  0  0  0
   26.4110  -19.8878   -8.7522 C   0  0  0  0  0  0  0  0  0  0  0  0
   27.3843  -19.5610   -7.6806 C   0  0  0  0  0  0  0  0  0  0  0  0
   28.3498  -18.5536   -7.7002 C   0  0  0  0  0  0  0  0  0  0  0  0
   29.0103  -18.6140   -6.5308 N   0  0  0  0  0  0  0  0  0  0  0  0
   28.5116  -19.6115   -5.7677 C   0  0  0  0  0  0  0  0  0  0  0  0
   28.8288  -20.0823   -4.5092 C   0  0  0  0  0  0  0  0  0  0  0  0
   28.1143  -21.1520   -3.9833 C   0  0  0  0  0  0  0  0  0  0  0  0
   27.0961  -21.7616   -4.6769 C   0  0  0  0  0  0  0  0  0  0  0  0
   26.7785  -21.2924   -5.9336 C   0  0  0  0  0  0  0  0  0  0  0  0
   27.4977  -20.2188   -6.4580 C   0  0  0  0  0  0  0  0  0  0  0  0
   26.1498  -20.8703  -10.9676 C   0  0  0  0  0  0  0  0  0  0  0  0
   26.0050  -19.8035  -11.5892 O   0  0  0  0  0  0  0  0  0  0  0  0
   24.4238  -23.3699  -13.1246 C   0  0  0  0  0  0  0  0  0  0  0  0
   24.7052  -21.9449  -12.6821 C   0  0  2  0  0  0  0  0  0  0  0  0
   25.4882  -22.0216  -11.4665 N   0  0  0  0  0  0  0  0  0  0  0  0
   23.4220  -21.2190  -12.4120 C   0  0  0  0  0  0  0  0  0  0  0  0
   22.8614  -21.3140  -11.3012 O   0  0  0  0  0  0  0  0  0  0  0  0
   22.8094  -20.4089  -13.3996 N   0  0  0  0  0  0  0  0  0  0  0  0
   21.5615  -19.7417  -13.2587 C   0  0  1  0  0  0  0  0  0  0  0  0
   21.3792  -18.5873  -14.2144 C   0  0  0  0  0  0  0  0  0  0  0  0
   22.0206  -18.9592  -15.8565 S   0  0  0  0  0  0  0  0  0  0  0  0
   20.4624  -20.7045  -13.5079 C   0  0  0  0  0  0  0  0  0  0  0  0
   20.6557  -21.7835  -14.1414 O   0  0  0  0  0  0  0  0  0  0  0  0
   19.1955  -20.4324  -13.0454 O   0  0  0  0  0  0  0  0  0  0  0  0
  2  1  1  6
  2 13  1  0
  3  4  1  0
  3  2  1  0
  4 12  1  0
  5  4  2  0
  5  6  1  0
  6  7  1  0
  7  8  1  0
  8  9  2  0
 10  9  1  0
 11 10  2  0
 12  7  2  0
 12 11  1  0
 13 14  2  0
 16 15  1  1
 16 18  1  0
 17 13  1  0
 17 16  1  0
 18 20  1  0
 18 19  2  0
 20 21  1  0
 21 24  1  0
 21 22  1  6
 22 23  1  0
 24 25  2  0
 24 26  1  0
M  END
$$$$
