IRG.pdb
     RDKit          3D

 24 23  0  0  1  0  0  0  0  0999 V2000
    2.0342   -5.9710   42.5552 C   0  0  0  0  0  0  0  0  0  0  0  0
    2.6213   -7.2961   42.9158 C   0  0  0  0  0  0  0  0  0  0  0  0
    3.9284   -7.1503   43.7138 C   0  0  2  0  0  0  0  0  0  0  0  0
    4.8544   -6.3462   42.8825 C   0  0  0  0  0  0  0  0  0  0  0  0
    4.3488   -8.5423   44.0435 C   0  0  2  0  0  0  0  0  0  0  0  0
    3.2729   -9.1036   44.8815 N   0  0  0  0  0  0  0  0  0  0  0  0
    5.6424   -8.7200   44.6786 C   0  0  0  0  0  0  0  0  0  0  0  0
    5.8787   -8.4370   45.8697 O   0  0  0  0  0  0  0  0  0  0  0  0
    6.6921  -15.0108   43.1403 N   0  0  0  0  0  0  0  0  0  0  0  0
    7.6613  -15.2528   44.1462 C   0  0  0  0  0  0  0  0  0  0  0  0
    7.6361  -16.3297   44.8978 N   0  0  0  0  0  0  0  0  0  0  0  0
    8.7241  -14.3544   44.4182 N   0  0  0  0  0  0  0  0  0  0  0  0
    8.8770  -13.0926   43.7941 C   0  0  0  0  0  0  0  0  0  0  0  0
    8.3574  -11.8962   44.5607 C   0  0  0  0  0  0  0  0  0  0  0  0
    8.5716  -10.6605   43.7952 C   0  0  0  0  0  0  0  0  0  0  0  0
    8.0873   -9.3711   44.4579 C   0  0  2  0  0  0  0  0  0  0  0  0
    6.7147   -9.2442   43.9193 N   0  0  0  0  0  0  0  0  0  0  0  0
    8.8291   -8.1751   44.0521 C   0  0  0  0  0  0  0  0  0  0  0  0
    9.9232   -7.9120   44.6297 O   0  0  0  0  0  0  0  0  0  0  0  0
    8.4285  -16.4262   45.5670 N   0  0  0  0  0  0  0  0  0  0  0  0
    8.4385   -7.2548   43.0454 C   0  0  0  0  0  0  0  0  0  0  0  0
    9.2341   -6.0608   42.7468 C   0  0  0  0  0  0  0  0  0  0  0  0
   10.4747   -6.4748   42.0307 O   0  0  0  0  0  0  0  0  0  0  0  0
   10.7152   -7.6680   41.7929 O   0  0  0  0  0  0  0  0  0  0  0  0
  1  2  1  0
  3  4  1  6
  3  2  1  0
  5  3  1  0
  5  6  1  1
  7  8  2  0
  7  5  1  0
 10  9  1  0
 11 10  2  0
 12 10  1  0
 13 12  1  0
 14 15  1  0
 14 13  1  0
 16 15  1  6
 16 17  1  0
 17  7  1  0
 18 16  1  0
 19 18  2  0
 20 18  1  0
 21 20  1  0
 22 21  1  0
 22 24  1  0
 23 22  2  0
M  END
$$$$
