IRG.pdb
     RDKit          3D

 24 23  0  0  1  0  0  0  0  0999 V2000
    6.1500  -11.6989   27.9337 C   0  0  0  0  0  0  0  0  0  0  0  0
    5.7878  -12.9555   27.2123 C   0  0  0  0  0  0  0  0  0  0  0  0
    6.9683  -13.5153   26.4000 C   0  0  2  0  0  0  0  0  0  0  0  0
    7.5337  -12.3857   25.6257 C   0  0  0  0  0  0  0  0  0  0  0  0
    6.4077  -14.6570   25.6219 C   0  0  2  0  0  0  0  0  0  0  0  0
    6.0232  -15.6760   26.6161 N   0  0  0  0  0  0  0  0  0  0  0  0
    7.2433  -15.2375   24.5859 C   0  0  0  0  0  0  0  0  0  0  0  0
    7.9161  -16.2768   24.7342 O   0  0  0  0  0  0  0  0  0  0  0  0
    9.3787  -15.7161   16.1549 N   0  0  0  0  0  0  0  0  0  0  0  0
    8.4735  -14.6575   16.4192 C   0  0  0  0  0  0  0  0  0  0  0  0
    8.4873  -13.5372   15.7338 N   0  0  0  0  0  0  0  0  0  0  0  0
    7.4916  -14.7258   17.4399 N   0  0  0  0  0  0  0  0  0  0  0  0
    7.7118  -15.2963   18.7170 C   0  0  0  0  0  0  0  0  0  0  0  0
    8.2661  -14.3725   19.7793 C   0  0  0  0  0  0  0  0  0  0  0  0
    7.4429  -14.4318   20.9949 C   0  0  0  0  0  0  0  0  0  0  0  0
    8.0526  -15.1814   22.1793 C   0  0  2  0  0  0  0  0  0  0  0  0
    7.3141  -14.6027   23.3237 N   0  0  0  0  0  0  0  0  0  0  0  0
    9.4754  -14.9065   22.3924 C   0  0  0  0  0  0  0  0  0  0  0  0
    9.8096  -13.8174   22.9419 O   0  0  0  0  0  0  0  0  0  0  0  0
    7.7662  -12.8370   16.0071 N   0  0  0  0  0  0  0  0  0  0  0  0
   10.5507  -15.7621   22.0393 C   0  0  0  0  0  0  0  0  0  0  0  0
   11.9451  -15.3833   22.2841 C   0  0  0  0  0  0  0  0  0  0  0  0
   12.8308  -16.5069   21.8645 O   0  0  0  0  0  0  0  0  0  0  0  0
   12.3730  -17.6335   21.6208 O   0  0  0  0  0  0  0  0  0  0  0  0
  1  2  1  0
  3  4  1  6
  3  2  1  0
  5  3  1  0
  5  6  1  1
  7  8  2  0
  7  5  1  0
 10  9  1  0
 11 10  2  0
 12 10  1  0
 13 12  1  0
 14 15  1  0
 14 13  1  0
 16 15  1  6
 16 17  1  0
 17  7  1  0
 18 16  1  0
 19 18  2  0
 20 18  1  0
 21 20  1  0
 22 21  1  0
 22 24  1  0
 23 22  2  0
M  END
$$$$
