IRG.pdb
     RDKit          3D

 24 23  0  0  1  0  0  0  0  0999 V2000
    7.4975  -12.1714   18.5339 C   0  0  0  0  0  0  0  0  0  0  0  0
    6.9123  -13.3180   19.2912 C   0  0  0  0  0  0  0  0  0  0  0  0
    7.6472  -13.5675   20.6194 C   0  0  2  0  0  0  0  0  0  0  0  0
    9.0748  -13.7855   20.2886 C   0  0  0  0  0  0  0  0  0  0  0  0
    6.9215  -14.6974   21.2675 C   0  0  2  0  0  0  0  0  0  0  0  0
    5.4905  -14.3451   21.2134 N   0  0  0  0  0  0  0  0  0  0  0  0
    7.3123  -15.0591   22.6184 C   0  0  0  0  0  0  0  0  0  0  0  0
    7.0499  -14.3741   23.6267 O   0  0  0  0  0  0  0  0  0  0  0  0
    7.1009  -21.2847   26.3372 N   0  0  0  0  0  0  0  0  0  0  0  0
    7.3018  -20.6706   27.5991 C   0  0  0  0  0  0  0  0  0  0  0  0
    6.6723  -21.0706   28.6803 N   0  0  0  0  0  0  0  0  0  0  0  0
    8.1904  -19.5821   27.7888 N   0  0  0  0  0  0  0  0  0  0  0  0
    8.2094  -18.4217   26.9775 C   0  0  0  0  0  0  0  0  0  0  0  0
    8.7628  -18.5882   25.5793 C   0  0  0  0  0  0  0  0  0  0  0  0
    8.0214  -17.7492   24.6279 C   0  0  0  0  0  0  0  0  0  0  0  0
    8.7727  -16.5359   24.0799 C   0  0  2  0  0  0  0  0  0  0  0  0
    8.0356  -16.2567   22.8274 N   0  0  0  0  0  0  0  0  0  0  0  0
   10.1651  -16.8089   23.7168 C   0  0  0  0  0  0  0  0  0  0  0  0
   10.4169  -17.2521   22.5593 O   0  0  0  0  0  0  0  0  0  0  0  0
    6.8332  -20.4917   29.5312 N   0  0  0  0  0  0  0  0  0  0  0  0
   11.2960  -16.6188   24.5523 C   0  0  0  0  0  0  0  0  0  0  0  0
   12.6563  -16.8800   24.0736 C   0  0  0  0  0  0  0  0  0  0  0  0
   13.6280  -16.4085   25.1015 O   0  0  0  0  0  0  0  0  0  0  0  0
   13.2457  -15.9339   26.1817 O   0  0  0  0  0  0  0  0  0  0  0  0
  1  2  1  0
  3  4  1  6
  3  2  1  0
  5  3  1  0
  5  6  1  1
  7  8  2  0
  7  5  1  0
 10  9  1  0
 11 10  2  0
 12 10  1  0
 13 12  1  0
 14 15  1  0
 14 13  1  0
 16 15  1  6
 16 17  1  0
 17  7  1  0
 18 16  1  0
 19 18  2  0
 20 18  1  0
 21 20  1  0
 22 21  1  0
 22 24  1  0
 23 22  2  0
M  END
$$$$
