IRG.pdb
     RDKit          3D

 24 23  0  0  1  0  0  0  0  0999 V2000
    6.6388  -11.9559   28.1504 C   0  0  0  0  0  0  0  0  0  0  0  0
    6.1458  -13.1408   27.3866 C   0  0  0  0  0  0  0  0  0  0  0  0
    7.2271  -13.7191   26.4575 C   0  0  2  0  0  0  0  0  0  0  0  0
    7.8348  -12.5754   25.7379 C   0  0  0  0  0  0  0  0  0  0  0  0
    6.5312  -14.7470   25.6314 C   0  0  2  0  0  0  0  0  0  0  0  0
    6.1375  -15.8192   26.5644 N   0  0  0  0  0  0  0  0  0  0  0  0
    7.2496  -15.2924   24.4935 C   0  0  0  0  0  0  0  0  0  0  0  0
    7.7953  -16.4135   24.4862 O   0  0  0  0  0  0  0  0  0  0  0  0
   10.2675  -14.7344   18.0268 N   0  0  0  0  0  0  0  0  0  0  0  0
    9.3408  -14.2453   17.0719 C   0  0  0  0  0  0  0  0  0  0  0  0
    9.4236  -14.5493   15.7967 N   0  0  0  0  0  0  0  0  0  0  0  0
    8.2616  -13.3931   17.4179 N   0  0  0  0  0  0  0  0  0  0  0  0
    7.7329  -13.2723   18.7260 C   0  0  0  0  0  0  0  0  0  0  0  0
    8.5070  -13.9588   19.8299 C   0  0  0  0  0  0  0  0  0  0  0  0
    7.7652  -13.8951   21.0965 C   0  0  0  0  0  0  0  0  0  0  0  0
    8.0845  -14.9901   22.1141 C   0  0  2  0  0  0  0  0  0  0  0  0
    7.3499  -14.5228   23.3108 N   0  0  0  0  0  0  0  0  0  0  0  0
    9.5013  -15.0755   22.4758 C   0  0  0  0  0  0  0  0  0  0  0  0
   10.0112  -14.1449   23.1641 O   0  0  0  0  0  0  0  0  0  0  0  0
    8.6697  -14.1577   15.1940 N   0  0  0  0  0  0  0  0  0  0  0  0
   10.3877  -16.1270   22.1271 C   0  0  0  0  0  0  0  0  0  0  0  0
   11.7563  -16.1816   22.6484 C   0  0  0  0  0  0  0  0  0  0  0  0
   12.6848  -15.6214   21.6251 O   0  0  0  0  0  0  0  0  0  0  0  0
   12.2788  -15.2751   20.5056 O   0  0  0  0  0  0  0  0  0  0  0  0
  1  2  1  0
  3  4  1  6
  3  2  1  0
  5  3  1  0
  5  6  1  1
  7  8  2  0
  7  5  1  0
 10  9  1  0
 11 10  2  0
 12 10  1  0
 13 12  1  0
 14 15  1  0
 14 13  1  0
 16 15  1  6
 16 17  1  0
 17  7  1  0
 18 16  1  0
 19 18  2  0
 20 18  1  0
 21 20  1  0
 22 21  1  0
 22 24  1  0
 23 22  2  0
M  END
$$$$
