IRG.pdb
     RDKit          3D

 24 23  0  0  1  0  0  0  0  0999 V2000
    6.2730  -12.1321   28.0444 C   0  0  0  0  0  0  0  0  0  0  0  0
    5.8774  -13.2887   27.1861 C   0  0  0  0  0  0  0  0  0  0  0  0
    7.0052  -13.7082   26.2275 C   0  0  2  0  0  0  0  0  0  0  0  0
    7.4680  -12.4794   25.5412 C   0  0  0  0  0  0  0  0  0  0  0  0
    6.4206  -14.7819   25.3739 C   0  0  2  0  0  0  0  0  0  0  0  0
    6.0823  -15.8884   26.2882 N   0  0  0  0  0  0  0  0  0  0  0  0
    7.2173  -15.2606   24.2583 C   0  0  0  0  0  0  0  0  0  0  0  0
    7.7765  -16.3747   24.2288 O   0  0  0  0  0  0  0  0  0  0  0  0
    8.5769  -15.9084   17.3749 N   0  0  0  0  0  0  0  0  0  0  0  0
    8.4682  -14.7103   16.6248 C   0  0  0  0  0  0  0  0  0  0  0  0
    8.8427  -14.6350   15.3681 N   0  0  0  0  0  0  0  0  0  0  0  0
    7.9527  -13.5080   17.1717 N   0  0  0  0  0  0  0  0  0  0  0  0
    7.4653  -13.3823   18.4953 C   0  0  0  0  0  0  0  0  0  0  0  0
    8.3888  -13.8497   19.5988 C   0  0  0  0  0  0  0  0  0  0  0  0
    7.7094  -13.7890   20.9001 C   0  0  0  0  0  0  0  0  0  0  0  0
    8.0904  -14.8764   21.9046 C   0  0  2  0  0  0  0  0  0  0  0  0
    7.3834  -14.4298   23.1256 N   0  0  0  0  0  0  0  0  0  0  0  0
    9.5200  -14.9250   22.2196 C   0  0  0  0  0  0  0  0  0  0  0  0
    9.9884  -14.0967   23.0529 O   0  0  0  0  0  0  0  0  0  0  0  0
    8.7828  -13.6873   14.9400 N   0  0  0  0  0  0  0  0  0  0  0  0
   10.4624  -15.8343   21.6738 C   0  0  0  0  0  0  0  0  0  0  0  0
   11.8653  -15.8321   22.0976 C   0  0  0  0  0  0  0  0  0  0  0  0
   12.5901  -16.9138   21.3712 O   0  0  0  0  0  0  0  0  0  0  0  0
   12.0808  -18.0320   21.2030 O   0  0  0  0  0  0  0  0  0  0  0  0
  1  2  1  0
  3  4  1  6
  3  2  1  0
  5  3  1  0
  5  6  1  1
  7  8  2  0
  7  5  1  0
 10  9  1  0
 11 10  2  0
 12 10  1  0
 13 12  1  0
 14 15  1  0
 14 13  1  0
 16 15  1  6
 16 17  1  0
 17  7  1  0
 18 16  1  0
 19 18  2  0
 20 18  1  0
 21 20  1  0
 22 21  1  0
 22 24  1  0
 23 22  2  0
M  END
$$$$
