IRG.pdb
     RDKit          3D

 24 23  0  0  1  0  0  0  0  0999 V2000
    8.5263  -12.6654   27.8432 C   0  0  0  0  0  0  0  0  0  0  0  0
    7.8341  -13.7886   27.1433 C   0  0  0  0  0  0  0  0  0  0  0  0
    7.1664  -13.3297   25.8355 C   0  0  2  0  0  0  0  0  0  0  0  0
    6.1352  -12.3318   26.2043 C   0  0  0  0  0  0  0  0  0  0  0  0
    6.6942  -14.5787   25.1722 C   0  0  2  0  0  0  0  0  0  0  0  0
    5.8461  -15.2685   26.1622 N   0  0  0  0  0  0  0  0  0  0  0  0
    7.7022  -15.4789   24.6412 C   0  0  0  0  0  0  0  0  0  0  0  0
    8.0799  -16.5190   25.2158 O   0  0  0  0  0  0  0  0  0  0  0  0
    6.4435  -14.7197   17.4008 N   0  0  0  0  0  0  0  0  0  0  0  0
    7.6647  -14.0189   17.5661 C   0  0  0  0  0  0  0  0  0  0  0  0
    8.0145  -13.0271   16.7792 N   0  0  0  0  0  0  0  0  0  0  0  0
    8.5978  -14.3353   18.5858 N   0  0  0  0  0  0  0  0  0  0  0  0
    8.8740  -15.6514   19.0291 C   0  0  0  0  0  0  0  0  0  0  0  0
    8.4825  -15.9768   20.4538 C   0  0  0  0  0  0  0  0  0  0  0  0
    9.4822  -15.4545   21.3955 C   0  0  0  0  0  0  0  0  0  0  0  0
    9.4003  -15.9925   22.8239 C   0  0  2  0  0  0  0  0  0  0  0  0
    8.3067  -15.1776   23.3982 N   0  0  0  0  0  0  0  0  0  0  0  0
   10.6000  -15.7430   23.6264 C   0  0  0  0  0  0  0  0  0  0  0  0
   10.6221  -14.7362   24.3917 O   0  0  0  0  0  0  0  0  0  0  0  0
    8.9676  -12.6406   16.9440 N   0  0  0  0  0  0  0  0  0  0  0  0
   11.7743  -16.5391   23.6380 C   0  0  0  0  0  0  0  0  0  0  0  0
   12.9468  -16.1656   24.4340 C   0  0  0  0  0  0  0  0  0  0  0  0
   14.0398  -17.1450   24.1714 O   0  0  0  0  0  0  0  0  0  0  0  0
   13.8932  -18.0750   23.3640 O   0  0  0  0  0  0  0  0  0  0  0  0
  1  2  1  0
  3  4  1  1
  3  2  1  0
  5  3  1  0
  5  6  1  1
  7  8  2  0
  7  5  1  0
 10  9  1  0
 11 10  2  0
 12 10  1  0
 13 12  1  0
 14 15  1  0
 14 13  1  0
 16 15  1  6
 16 17  1  0
 17  7  1  0
 18 16  1  0
 19 18  2  0
 20 18  1  0
 21 20  1  0
 22 21  1  0
 22 24  1  0
 23 22  2  0
M  END
$$$$
