IRG.pdb
     RDKit          3D

 24 23  0  0  1  0  0  0  0  0999 V2000
    6.0136  -11.6257   27.4526 C   0  0  0  0  0  0  0  0  0  0  0  0
    5.8368  -12.7344   26.4676 C   0  0  0  0  0  0  0  0  0  0  0  0
    7.1815  -13.3510   26.0452 C   0  0  2  0  0  0  0  0  0  0  0  0
    8.0247  -12.2429   25.5392 C   0  0  0  0  0  0  0  0  0  0  0  0
    6.8351  -14.4340   25.0807 C   0  0  2  0  0  0  0  0  0  0  0  0
    5.8774  -15.3102   25.7808 N   0  0  0  0  0  0  0  0  0  0  0  0
    7.9281  -15.2089   24.5209 C   0  0  0  0  0  0  0  0  0  0  0  0
    8.2864  -16.3220   24.9537 O   0  0  0  0  0  0  0  0  0  0  0  0
    7.1215  -15.3477   18.3055 N   0  0  0  0  0  0  0  0  0  0  0  0
    7.0409  -13.9445   18.1198 C   0  0  0  0  0  0  0  0  0  0  0  0
    6.1017  -13.3880   17.3894 N   0  0  0  0  0  0  0  0  0  0  0  0
    7.9645  -13.0401   18.7025 N   0  0  0  0  0  0  0  0  0  0  0  0
    9.0536  -13.4325   19.5179 C   0  0  0  0  0  0  0  0  0  0  0  0
    8.7242  -14.3204   20.6979 C   0  0  0  0  0  0  0  0  0  0  0  0
    9.9372  -14.6238   21.4695 C   0  0  0  0  0  0  0  0  0  0  0  0
    9.7308  -15.4378   22.7468 C   0  0  2  0  0  0  0  0  0  0  0  0
    8.6446  -14.6893   23.4174 N   0  0  0  0  0  0  0  0  0  0  0  0
   10.8847  -15.4371   23.6490 C   0  0  0  0  0  0  0  0  0  0  0  0
   10.7918  -14.8320   24.7558 O   0  0  0  0  0  0  0  0  0  0  0  0
    6.1234  -12.3473   17.3507 N   0  0  0  0  0  0  0  0  0  0  0  0
   12.1325  -16.0666   23.4053 C   0  0  0  0  0  0  0  0  0  0  0  0
   13.0701  -16.3587   24.4931 C   0  0  0  0  0  0  0  0  0  0  0  0
   14.2484  -17.0808   23.9332 O   0  0  0  0  0  0  0  0  0  0  0  0
   14.2250  -17.5680   22.7930 O   0  0  0  0  0  0  0  0  0  0  0  0
  1  2  1  0
  3  4  1  6
  3  2  1  0
  5  3  1  0
  5  6  1  1
  7  8  2  0
  7  5  1  0
 10  9  1  0
 11 10  2  0
 12 10  1  0
 13 12  1  0
 14 15  1  0
 14 13  1  0
 16 15  1  6
 16 17  1  0
 17  7  1  0
 18 16  1  0
 19 18  2  0
 20 18  1  0
 21 20  1  0
 22 21  1  0
 22 24  1  0
 23 22  2  0
M  END
$$$$
