IRG.pdb
     RDKit          3D

 24 23  0  0  1  0  0  0  0  0999 V2000
   10.5201  -14.4541   29.7638 C   0  0  0  0  0  0  0  0  0  0  0  0
    9.5397  -15.3200   29.0429 C   0  0  0  0  0  0  0  0  0  0  0  0
    9.5681  -15.0822   27.5232 C   0  0  2  0  0  0  0  0  0  0  0  0
    9.4412  -13.6212   27.3123 C   0  0  0  0  0  0  0  0  0  0  0  0
    8.4857  -15.9438   26.9672 C   0  0  2  0  0  0  0  0  0  0  0  0
    8.4221  -17.1303   27.8407 N   0  0  0  0  0  0  0  0  0  0  0  0
    8.5893  -16.3355   25.5729 C   0  0  0  0  0  0  0  0  0  0  0  0
    8.6146  -17.5192   25.1816 O   0  0  0  0  0  0  0  0  0  0  0  0
    7.9636  -12.5650   18.1852 N   0  0  0  0  0  0  0  0  0  0  0  0
    7.7432  -13.9474   17.9607 C   0  0  0  0  0  0  0  0  0  0  0  0
    7.7648  -14.4732   16.7572 N   0  0  0  0  0  0  0  0  0  0  0  0
    7.4813  -14.8622   19.0119 N   0  0  0  0  0  0  0  0  0  0  0  0
    8.2485  -14.9489   20.1989 C   0  0  0  0  0  0  0  0  0  0  0  0
    7.7719  -14.1172   21.3695 C   0  0  0  0  0  0  0  0  0  0  0  0
    8.6934  -14.2508   22.5061 C   0  0  0  0  0  0  0  0  0  0  0  0
    8.7790  -15.6402   23.1376 C   0  0  2  0  0  0  0  0  0  0  0  0
    8.6682  -15.3305   24.5804 N   0  0  0  0  0  0  0  0  0  0  0  0
   10.0639  -16.3124   22.9315 C   0  0  0  0  0  0  0  0  0  0  0  0
   10.1215  -17.2801   22.1190 O   0  0  0  0  0  0  0  0  0  0  0  0
    7.6584  -15.5087   16.7199 N   0  0  0  0  0  0  0  0  0  0  0  0
   11.2890  -15.9790   23.5647 C   0  0  0  0  0  0  0  0  0  0  0  0
   12.5468  -16.6345   23.1959 C   0  0  0  0  0  0  0  0  0  0  0  0
   13.0673  -16.0103   21.9459 O   0  0  0  0  0  0  0  0  0  0  0  0
   12.4423  -15.1104   21.3649 O   0  0  0  0  0  0  0  0  0  0  0  0
  1  2  1  0
  3  4  1  1
  3  2  1  0
  5  3  1  0
  5  6  1  1
  7  8  2  0
  7  5  1  0
 10  9  1  0
 11 10  2  0
 12 10  1  0
 13 12  1  0
 14 15  1  0
 14 13  1  0
 16 15  1  6
 16 17  1  0
 17  7  1  0
 18 16  1  0
 19 18  2  0
 20 18  1  0
 21 20  1  0
 22 21  1  0
 22 24  1  0
 23 22  2  0
M  END
$$$$
