IRG.pdb
     RDKit          3D

 24 23  0  0  1  0  0  0  0  0999 V2000
    7.1524  -10.9834   27.4811 C   0  0  0  0  0  0  0  0  0  0  0  0
    7.1970  -12.4757   27.4414 C   0  0  0  0  0  0  0  0  0  0  0  0
    6.9579  -13.0227   26.0235 C   0  0  2  0  0  0  0  0  0  0  0  0
    5.5631  -12.6814   25.6586 C   0  0  0  0  0  0  0  0  0  0  0  0
    7.3050  -14.4710   26.0938 C   0  0  2  0  0  0  0  0  0  0  0  0
    8.4852  -14.5634   26.9733 N   0  0  0  0  0  0  0  0  0  0  0  0
    7.5405  -15.1662   24.8409 C   0  0  0  0  0  0  0  0  0  0  0  0
    6.6446  -15.4456   24.0199 O   0  0  0  0  0  0  0  0  0  0  0  0
    8.1855  -13.9778   17.1497 N   0  0  0  0  0  0  0  0  0  0  0  0
    8.3265  -13.1781   18.3118 C   0  0  0  0  0  0  0  0  0  0  0  0
    8.7332  -11.9303   18.2577 N   0  0  0  0  0  0  0  0  0  0  0  0
    8.0439  -13.6624   19.6142 N   0  0  0  0  0  0  0  0  0  0  0  0
    7.8974  -15.0332   19.9374 C   0  0  0  0  0  0  0  0  0  0  0  0
    7.5906  -15.3537   21.3839 C   0  0  0  0  0  0  0  0  0  0  0  0
    8.7314  -15.0064   22.2422 C   0  0  0  0  0  0  0  0  0  0  0  0
    9.2191  -16.1074   23.1838 C   0  0  2  0  0  0  0  0  0  0  0  0
    8.8582  -15.5607   24.5107 N   0  0  0  0  0  0  0  0  0  0  0  0
   10.6704  -16.3049   23.1717 C   0  0  0  0  0  0  0  0  0  0  0  0
   11.4234  -15.2892   23.2041 O   0  0  0  0  0  0  0  0  0  0  0  0
    8.8901  -11.4710   19.1793 N   0  0  0  0  0  0  0  0  0  0  0  0
   11.3402  -17.5549   23.1297 C   0  0  0  0  0  0  0  0  0  0  0  0
   11.2639  -18.5042   24.2436 C   0  0  0  0  0  0  0  0  0  0  0  0
   12.1215  -19.6833   23.9318 O   0  0  0  0  0  0  0  0  0  0  0  0
   11.6623  -20.6818   23.3571 O   0  0  0  0  0  0  0  0  0  0  0  0
  1  2  1  0
  3  4  1  1
  3  2  1  0
  5  3  1  0
  5  6  1  1
  7  8  2  0
  7  5  1  0
 10  9  1  0
 11 10  2  0
 12 10  1  0
 13 12  1  0
 14 15  1  0
 14 13  1  0
 16 15  1  6
 16 17  1  0
 17  7  1  0
 18 16  1  0
 19 18  2  0
 20 18  1  0
 21 20  1  0
 22 21  1  0
 22 24  1  0
 23 22  2  0
M  END
$$$$
