IRG.pdb
     RDKit          3D

 24 23  0  0  1  0  0  0  0  0999 V2000
    6.6229  -11.3140   27.7450 C   0  0  0  0  0  0  0  0  0  0  0  0
    6.1565  -12.1321   26.5857 C   0  0  0  0  0  0  0  0  0  0  0  0
    7.0700  -13.3430   26.3292 C   0  0  2  0  0  0  0  0  0  0  0  0
    8.4550  -12.8260   26.2315 C   0  0  0  0  0  0  0  0  0  0  0  0
    6.5098  -14.0130   25.1208 C   0  0  2  0  0  0  0  0  0  0  0  0
    5.1046  -14.3234   25.4433 N   0  0  0  0  0  0  0  0  0  0  0  0
    7.1980  -15.1928   24.6278 C   0  0  0  0  0  0  0  0  0  0  0  0
    7.0048  -16.3450   25.0633 O   0  0  0  0  0  0  0  0  0  0  0  0
    6.3886  -13.0845   18.4299 N   0  0  0  0  0  0  0  0  0  0  0  0
    7.5868  -13.7470   18.0621 C   0  0  0  0  0  0  0  0  0  0  0  0
    8.5180  -13.1619   17.3439 N   0  0  0  0  0  0  0  0  0  0  0  0
    7.8685  -15.0852   18.4367 N   0  0  0  0  0  0  0  0  0  0  0  0
    7.6120  -15.6209   19.7222 C   0  0  0  0  0  0  0  0  0  0  0  0
    8.1719  -14.8481   20.8963 C   0  0  0  0  0  0  0  0  0  0  0  0
    9.2034  -15.6344   21.5865 C   0  0  0  0  0  0  0  0  0  0  0  0
    8.8076  -16.2089   22.9466 C   0  0  2  0  0  0  0  0  0  0  0  0
    8.1500  -15.0505   23.5912 N   0  0  0  0  0  0  0  0  0  0  0  0
    9.9441  -16.5911   23.7879 C   0  0  0  0  0  0  0  0  0  0  0  0
   10.3796  -17.7767   23.7210 O   0  0  0  0  0  0  0  0  0  0  0  0
    9.3099  -13.7737   17.0548 N   0  0  0  0  0  0  0  0  0  0  0  0
   10.6308  -15.7434   24.6950 C   0  0  0  0  0  0  0  0  0  0  0  0
   11.8070  -16.2057   25.4368 C   0  0  0  0  0  0  0  0  0  0  0  0
   12.9926  -16.1673   24.5335 O   0  0  0  0  0  0  0  0  0  0  0  0
   12.8885  -15.8256   23.3458 O   0  0  0  0  0  0  0  0  0  0  0  0
  1  2  1  0
  3  4  1  6
  3  2  1  0
  5  3  1  0
  5  6  1  1
  7  8  2  0
  7  5  1  0
 10  9  1  0
 11 10  2  0
 12 10  1  0
 13 12  1  0
 14 15  1  0
 14 13  1  0
 16 15  1  6
 16 17  1  0
 17  7  1  0
 18 16  1  0
 19 18  2  0
 20 18  1  0
 21 20  1  0
 22 21  1  0
 22 24  1  0
 23 22  2  0
M  END
$$$$
