IRG.pdb
     RDKit          3D

 24 23  0  0  1  0  0  0  0  0999 V2000
    8.2252  -11.9468   19.7110 C   0  0  0  0  0  0  0  0  0  0  0  0
    7.4254  -13.0180   20.3769 C   0  0  0  0  0  0  0  0  0  0  0  0
    7.9073  -14.4256   19.9858 C   0  0  2  0  0  0  0  0  0  0  0  0
    7.8454  -14.5079   18.5078 C   0  0  0  0  0  0  0  0  0  0  0  0
    7.0438  -15.3677   20.7538 C   0  0  2  0  0  0  0  0  0  0  0  0
    5.6631  -15.1124   20.3026 N   0  0  0  0  0  0  0  0  0  0  0  0
    7.1282  -15.3260   22.2028 C   0  0  0  0  0  0  0  0  0  0  0  0
    6.5131  -14.5066   22.9134 O   0  0  0  0  0  0  0  0  0  0  0  0
    8.7718  -20.5884   26.7747 N   0  0  0  0  0  0  0  0  0  0  0  0
    7.7675  -20.5125   27.7725 C   0  0  0  0  0  0  0  0  0  0  0  0
    7.7687  -21.2949   28.8276 N   0  0  0  0  0  0  0  0  0  0  0  0
    6.6897  -19.5936   27.7066 N   0  0  0  0  0  0  0  0  0  0  0  0
    6.3626  -18.8342   26.5570 C   0  0  0  0  0  0  0  0  0  0  0  0
    7.2728  -17.6678   26.2405 C   0  0  0  0  0  0  0  0  0  0  0  0
    7.2144  -17.3418   24.8091 C   0  0  0  0  0  0  0  0  0  0  0  0
    8.1614  -16.2393   24.3354 C   0  0  2  0  0  0  0  0  0  0  0  0
    7.9526  -16.2617   22.8705 N   0  0  0  0  0  0  0  0  0  0  0  0
    9.5777  -16.5219   24.5800 C   0  0  0  0  0  0  0  0  0  0  0  0
   10.0164  -16.4539   25.7644 O   0  0  0  0  0  0  0  0  0  0  0  0
    7.0212  -21.1029   29.5271 N   0  0  0  0  0  0  0  0  0  0  0  0
   10.5374  -16.8782   23.5977 C   0  0  0  0  0  0  0  0  0  0  0  0
   11.8935  -17.2948   23.9654 C   0  0  0  0  0  0  0  0  0  0  0  0
   12.7878  -16.1020   23.9399 O   0  0  0  0  0  0  0  0  0  0  0  0
   12.3467  -14.9695   23.6932 O   0  0  0  0  0  0  0  0  0  0  0  0
  1  2  1  0
  3  4  1  6
  3  2  1  0
  5  3  1  0
  5  6  1  1
  7  8  2  0
  7  5  1  0
 10  9  1  0
 11 10  2  0
 12 10  1  0
 13 12  1  0
 14 15  1  0
 14 13  1  0
 16 15  1  1
 16 17  1  0
 17  7  1  0
 18 16  1  0
 19 18  2  0
 20 18  1  0
 21 20  1  0
 22 21  1  0
 22 24  1  0
 23 22  2  0
M  END
$$$$
