IRG.pdb
     RDKit          3D

 24 23  0  0  1  0  0  0  0  0999 V2000
   25.5745   87.2010   38.9515 C   0  0  0  0  0  0  0  0  0  0  0  0
   24.4409   86.3011   39.3199 C   0  0  0  0  0  0  0  0  0  0  0  0
   23.2104   87.0899   39.8001 C   0  0  2  0  0  0  0  0  0  0  0  0
   23.1090   88.2949   38.9441 C   0  0  0  0  0  0  0  0  0  0  0  0
   23.4260   87.3109   41.2588 C   0  0  2  0  0  0  0  0  0  0  0  0
   22.3327   86.5963   41.9436 N   0  0  0  0  0  0  0  0  0  0  0  0
   23.5148   88.6836   41.7236 C   0  0  0  0  0  0  0  0  0  0  0  0
   24.2722   89.5402   41.2262 O   0  0  0  0  0  0  0  0  0  0  0  0
   16.4102   87.6516   44.8502 N   0  0  0  0  0  0  0  0  0  0  0  0
   17.6542   86.9791   44.9503 C   0  0  0  0  0  0  0  0  0  0  0  0
   17.8881   85.8440   44.3321 N   0  0  0  0  0  0  0  0  0  0  0  0
   18.7339   87.4762   45.7235 N   0  0  0  0  0  0  0  0  0  0  0  0
   20.0866   87.4536   45.3055 C   0  0  0  0  0  0  0  0  0  0  0  0
   20.8530   88.7513   45.4389 C   0  0  0  0  0  0  0  0  0  0  0  0
   20.8430   89.4891   44.1684 C   0  0  0  0  0  0  0  0  0  0  0  0
   21.2824   88.7014   42.9343 C   0  0  2  0  0  0  0  0  0  0  0  0
   22.7026   89.0970   42.8055 N   0  0  0  0  0  0  0  0  0  0  0  0
   20.6036   89.0985   41.6986 C   0  0  0  0  0  0  0  0  0  0  0  0
   19.9069   90.1543   41.6988 O   0  0  0  0  0  0  0  0  0  0  0  0
   18.6537   85.8690   43.6262 N   0  0  0  0  0  0  0  0  0  0  0  0
   20.6502   88.4034   40.4627 C   0  0  0  0  0  0  0  0  0  0  0  0
   19.8307   88.8149   39.3195 C   0  0  0  0  0  0  0  0  0  0  0  0
   19.0870   87.6283   38.8076 O   0  0  0  0  0  0  0  0  0  0  0  0
   18.4484   86.8881   39.5707 O   0  0  0  0  0  0  0  0  0  0  0  0
  1  2  1  0
  3  4  1  6
  3  2  1  0
  5  3  1  0
  5  6  1  1
  7  8  2  0
  7  5  1  0
 10  9  1  0
 11 10  2  0
 12 10  1  0
 13 12  1  0
 14 15  1  0
 14 13  1  0
 16 15  1  1
 16 17  1  0
 17  7  1  0
 18 16  1  0
 19 18  2  0
 20 18  1  0
 21 20  1  0
 22 21  1  0
 22 24  1  0
 23 22  2  0
M  END
$$$$
