IRG.pdb
     RDKit          3D

 24 23  0  0  1  0  0  0  0  0999 V2000
    6.9465  -10.5935   27.0824 C   0  0  0  0  0  0  0  0  0  0  0  0
    7.1477  -12.0697   27.1869 C   0  0  0  0  0  0  0  0  0  0  0  0
    6.4503  -12.8295   26.0454 C   0  0  2  0  0  0  0  0  0  0  0  0
    4.9948  -12.5991   26.1995 C   0  0  0  0  0  0  0  0  0  0  0  0
    6.9290  -14.2372   26.1559 C   0  0  2  0  0  0  0  0  0  0  0  0
    8.2186  -14.1727   26.8685 N   0  0  0  0  0  0  0  0  0  0  0  0
    7.0568  -15.0009   24.9275 C   0  0  0  0  0  0  0  0  0  0  0  0
    6.0887  -15.3895   24.2447 O   0  0  0  0  0  0  0  0  0  0  0  0
    9.3487  -15.1296   17.9381 N   0  0  0  0  0  0  0  0  0  0  0  0
    8.5078  -14.0006   17.7707 C   0  0  0  0  0  0  0  0  0  0  0  0
    8.4332  -13.3458   16.6345 N   0  0  0  0  0  0  0  0  0  0  0  0
    7.6899  -13.4931   18.8119 N   0  0  0  0  0  0  0  0  0  0  0  0
    7.2920  -14.2420   19.9459 C   0  0  0  0  0  0  0  0  0  0  0  0
    8.4036  -14.8321   20.7856 C   0  0  0  0  0  0  0  0  0  0  0  0
    8.0795  -14.7309   22.2150 C   0  0  0  0  0  0  0  0  0  0  0  0
    8.5901  -15.8690   23.0986 C   0  0  2  0  0  0  0  0  0  0  0  0
    8.3483  -15.3365   24.4579 N   0  0  0  0  0  0  0  0  0  0  0  0
   10.0277  -16.1216   22.9766 C   0  0  0  0  0  0  0  0  0  0  0  0
   10.8365  -15.3004   23.4974 O   0  0  0  0  0  0  0  0  0  0  0  0
    7.7662  -12.5459   16.6226 N   0  0  0  0  0  0  0  0  0  0  0  0
   10.6260  -17.2269   22.3185 C   0  0  0  0  0  0  0  0  0  0  0  0
   12.0817  -17.3703   22.2283 C   0  0  0  0  0  0  0  0  0  0  0  0
   12.6072  -17.7982   23.5564 O   0  0  0  0  0  0  0  0  0  0  0  0
   11.8571  -17.9319   24.5350 O   0  0  0  0  0  0  0  0  0  0  0  0
  1  2  1  0
  3  4  1  1
  3  2  1  0
  5  3  1  0
  5  6  1  6
  7  8  2  0
  7  5  1  0
 10  9  1  0
 11 10  2  0
 12 10  1  0
 13 12  1  0
 14 15  1  0
 14 13  1  0
 16 15  1  6
 16 17  1  0
 17  7  1  0
 18 16  1  0
 19 18  2  0
 20 18  1  0
 21 20  1  0
 22 21  1  0
 22 24  1  0
 23 22  2  0
M  END
$$$$
