IRG.pdb
     RDKit          3D

 24 23  0  0  1  0  0  0  0  0999 V2000
   10.5741  -13.9767   29.9300 C   0  0  0  0  0  0  0  0  0  0  0  0
    9.8406  -15.0765   29.2348 C   0  0  0  0  0  0  0  0  0  0  0  0
   10.2108  -15.1648   27.7442 C   0  0  2  0  0  0  0  0  0  0  0  0
   10.1377  -13.7892   27.1989 C   0  0  0  0  0  0  0  0  0  0  0  0
    9.2795  -16.1743   27.1639 C   0  0  2  0  0  0  0  0  0  0  0  0
    9.3945  -17.3711   28.0180 N   0  0  0  0  0  0  0  0  0  0  0  0
    9.4531  -16.5213   25.7647 C   0  0  0  0  0  0  0  0  0  0  0  0
   10.1000  -17.5103   25.3671 O   0  0  0  0  0  0  0  0  0  0  0  0
    8.4038  -13.9881   17.3434 N   0  0  0  0  0  0  0  0  0  0  0  0
    8.1187  -13.3298   18.5662 C   0  0  0  0  0  0  0  0  0  0  0  0
    8.8850  -12.3751   19.0423 N   0  0  0  0  0  0  0  0  0  0  0  0
    6.9927  -13.6519   19.3656 N   0  0  0  0  0  0  0  0  0  0  0  0
    7.0476  -13.8711   20.7634 C   0  0  0  0  0  0  0  0  0  0  0  0
    8.1906  -14.7260   21.2653 C   0  0  0  0  0  0  0  0  0  0  0  0
    8.0410  -14.9953   22.7019 C   0  0  0  0  0  0  0  0  0  0  0  0
    9.1066  -15.8948   23.3280 C   0  0  2  0  0  0  0  0  0  0  0  0
    8.8618  -15.7019   24.7747 N   0  0  0  0  0  0  0  0  0  0  0  0
   10.4819  -15.4706   23.0564 C   0  0  0  0  0  0  0  0  0  0  0  0
   10.9206  -14.4280   23.6224 O   0  0  0  0  0  0  0  0  0  0  0  0
    8.6443  -12.0448   20.0004 N   0  0  0  0  0  0  0  0  0  0  0  0
   11.4029  -16.1291   22.2014 C   0  0  0  0  0  0  0  0  0  0  0  0
   12.7030  -15.5380   21.8731 C   0  0  0  0  0  0  0  0  0  0  0  0
   13.4579  -16.4855   21.0039 O   0  0  0  0  0  0  0  0  0  0  0  0
   12.9708  -17.5725   20.6584 O   0  0  0  0  0  0  0  0  0  0  0  0
  1  2  1  0
  3  4  1  6
  3  2  1  0
  5  3  1  0
  5  6  1  1
  7  8  2  0
  7  5  1  0
 10  9  1  0
 11 10  2  0
 12 10  1  0
 13 12  1  0
 14 15  1  0
 14 13  1  0
 16 15  1  6
 16 17  1  0
 17  7  1  0
 18 16  1  0
 19 18  2  0
 20 18  1  0
 21 20  1  0
 22 21  1  0
 22 24  1  0
 23 22  2  0
M  END
$$$$
