YIL.pdb
     RDKit          3D

 29 29  0  0  1  0  0  0  0  0999 V2000
   18.5135  -13.0429  -25.1955 O   0  0  0  0  0  0  0  0  0  0  0  0
   18.4792  -12.5717  -23.8825 C   0  0  0  0  0  0  0  0  0  0  0  0
   19.5903  -11.9079  -23.4087 C   0  0  0  0  0  0  0  0  0  0  0  0
   19.5812  -11.4308  -22.1104 C   0  0  0  0  0  0  0  0  0  0  0  0
   18.5026  -11.5953  -21.2756 C   0  0  0  0  0  0  0  0  0  0  0  0
   18.5662  -11.0834  -19.9015 C   0  0  0  0  0  0  0  0  0  0  0  0
   19.4058  -11.9826  -19.0264 C   0  0  2  0  0  0  0  0  0  0  0  0
   18.7357  -13.2804  -18.8906 N   0  0  0  0  0  0  0  0  0  0  0  0
   19.6556  -11.3712  -17.6689 C   0  0  0  0  0  0  0  0  0  0  0  0
   18.8193  -11.6210  -16.7938 O   0  0  0  0  0  0  0  0  0  0  0  0
   17.4015  -12.2594  -21.7620 C   0  0  0  0  0  0  0  0  0  0  0  0
   17.3871  -12.7524  -23.0752 C   0  0  0  0  0  0  0  0  0  0  0  0
   24.0425  -12.2175  -15.0259 C   0  0  0  0  0  0  0  0  0  0  0  0
   22.6616  -11.8198  -15.5113 C   0  0  0  0  0  0  0  0  0  0  0  0
   22.5702  -10.3384  -15.8292 C   0  0  2  0  0  0  0  0  0  0  0  0
   23.0665   -9.6071  -14.5907 C   0  0  0  0  0  0  0  0  0  0  0  0
   21.2293   -9.9031  -16.2817 C   0  0  2  0  0  0  0  0  0  0  0  0
   20.7980  -10.5818  -17.5155 N   0  0  0  0  0  0  0  0  0  0  0  0
   21.0046   -8.4642  -16.4642 C   0  0  0  0  0  0  0  0  0  0  0  0
   21.6500   -7.8282  -17.4017 O   0  0  0  0  0  0  0  0  0  0  0  0
   18.4049   -5.7248  -18.5258 C   0  0  0  0  0  0  0  0  0  0  0  0
   17.8370   -6.3662  -17.2495 C   0  0  2  0  0  0  0  0  0  0  0  0
   16.3679   -6.0283  -17.2507 C   0  0  0  0  0  0  0  0  0  0  0  0
   18.5893   -5.7742  -16.1156 C   0  0  0  0  0  0  0  0  0  0  0  0
   20.0403   -6.1850  -16.0237 C   0  0  2  0  0  0  0  0  0  0  0  0
   20.1305   -7.6302  -15.7240 N   0  0  0  0  0  0  0  0  0  0  0  0
   20.7943   -5.4707  -14.9912 C   0  0  0  0  0  0  0  0  0  0  0  0
   21.0348   -6.0344  -13.9022 O   0  0  0  0  0  0  0  0  0  0  0  0
   21.2441   -4.1899  -15.1970 O   0  0  0  0  0  0  0  0  0  0  0  0
  2  1  1  0
  3  2  2  0
  4  3  1  0
  5 11  1  0
  5  4  2  0
  6  5  1  0
  7  9  1  0
  7  6  1  0
  7  8  1  1
  9 10  2  0
 11 12  2  0
 12  2  1  0
 13 14  1  0
 15 14  1  0
 15 16  1  1
 15 17  1  0
 17 18  1  6
 18  9  1  0
 19 20  2  0
 19 17  1  0
 22 21  1  6
 22 24  1  0
 23 22  1  0
 25 24  1  1
 25 26  1  0
 25 27  1  0
 26 19  1  0
 27 29  1  0
 28 27  2  0
M  END
$$$$
