YIL.pdb
     RDKit          3D

 29 29  0  0  1  0  0  0  0  0999 V2000
   17.7113  -17.6234  -12.8594 O   0  0  0  0  0  0  0  0  0  0  0  0
   18.8627  -18.2266  -12.3519 C   0  0  0  0  0  0  0  0  0  0  0  0
   18.7333  -19.4673  -11.7658 C   0  0  0  0  0  0  0  0  0  0  0  0
   19.8598  -20.0865  -11.2553 C   0  0  0  0  0  0  0  0  0  0  0  0
   21.1046  -19.5079  -11.3118 C   0  0  0  0  0  0  0  0  0  0  0  0
   22.2558  -20.2095  -10.7315 C   0  0  0  0  0  0  0  0  0  0  0  0
   23.3061  -20.4873  -11.7799 C   0  0  2  0  0  0  0  0  0  0  0  0
   22.7142  -21.3017  -12.8467 N   0  0  0  0  0  0  0  0  0  0  0  0
   24.5144  -21.1779  -11.1952 C   0  0  0  0  0  0  0  0  0  0  0  0
   24.3662  -22.3624  -10.8747 O   0  0  0  0  0  0  0  0  0  0  0  0
   21.2183  -18.2702  -11.8991 C   0  0  0  0  0  0  0  0  0  0  0  0
   20.0902  -17.6223  -12.4241 C   0  0  0  0  0  0  0  0  0  0  0  0
   28.8872  -21.2794  -13.9539 C   0  0  0  0  0  0  0  0  0  0  0  0
   27.8302  -21.5591  -12.9028 C   0  0  0  0  0  0  0  0  0  0  0  0
   28.0563  -20.7565  -11.6345 C   0  0  2  0  0  0  0  0  0  0  0  0
   29.4477  -21.1250  -11.1414 C   0  0  0  0  0  0  0  0  0  0  0  0
   26.9964  -20.9324  -10.6158 C   0  0  2  0  0  0  0  0  0  0  0  0
   25.6871  -20.4298  -11.0655 N   0  0  0  0  0  0  0  0  0  0  0  0
   27.2432  -20.3912   -9.2739 C   0  0  0  0  0  0  0  0  0  0  0  0
   26.5290  -19.3879   -8.8458 O   0  0  0  0  0  0  0  0  0  0  0  0
   26.1252  -20.0123   -4.0509 C   0  0  0  0  0  0  0  0  0  0  0  0
   27.2941  -19.4819   -4.8966 C   0  0  2  0  0  0  0  0  0  0  0  0
   27.1174  -17.9852   -4.9304 C   0  0  0  0  0  0  0  0  0  0  0  0
   27.1752  -20.1316   -6.2255 C   0  0  0  0  0  0  0  0  0  0  0  0
   28.4235  -20.0877   -7.0754 C   0  0  2  0  0  0  0  0  0  0  0  0
   28.1990  -20.8393   -8.3289 N   0  0  0  0  0  0  0  0  0  0  0  0
   29.6048  -20.6570   -6.4233 C   0  0  0  0  0  0  0  0  0  0  0  0
   30.0048  -21.7934   -6.7549 O   0  0  0  0  0  0  0  0  0  0  0  0
   30.2842  -19.9641   -5.4519 O   0  0  0  0  0  0  0  0  0  0  0  0
  2  1  1  0
  3  2  2  0
  4  3  1  0
  5 11  1  0
  5  4  2  0
  6  5  1  0
  7  9  1  0
  7  6  1  0
  7  8  1  6
  9 10  2  0
 11 12  2  0
 12  2  1  0
 13 14  1  0
 15 14  1  0
 15 16  1  1
 15 17  1  0
 17 18  1  6
 18  9  1  0
 19 20  2  0
 19 17  1  0
 22 21  1  1
 22 24  1  0
 23 22  1  0
 25 24  1  1
 25 26  1  0
 25 27  1  0
 26 19  1  0
 27 29  1  0
 28 27  2  0
M  END
$$$$
