YIL.pdb
     RDKit          3D

 29 29  0  0  1  0  0  0  0  0999 V2000
   20.2029  -13.6232  -19.0730 O   0  0  0  0  0  0  0  0  0  0  0  0
   20.7345  -14.7194  -18.3926 C   0  0  0  0  0  0  0  0  0  0  0  0
   20.6058  -15.9616  -18.9755 C   0  0  0  0  0  0  0  0  0  0  0  0
   21.1246  -17.0643  -18.3212 C   0  0  0  0  0  0  0  0  0  0  0  0
   21.7644  -16.9650  -17.1095 C   0  0  0  0  0  0  0  0  0  0  0  0
   22.2730  -18.1779  -16.4580 C   0  0  0  0  0  0  0  0  0  0  0  0
   23.6970  -18.4596  -16.8732 C   0  0  2  0  0  0  0  0  0  0  0  0
   23.7180  -18.8276  -18.2930 N   0  0  0  0  0  0  0  0  0  0  0  0
   24.3214  -19.5487  -16.0348 C   0  0  0  0  0  0  0  0  0  0  0  0
   24.2454  -20.6974  -16.4848 O   0  0  0  0  0  0  0  0  0  0  0  0
   21.8852  -15.7195  -16.5402 C   0  0  0  0  0  0  0  0  0  0  0  0
   21.3672  -14.5862  -17.1847 C   0  0  0  0  0  0  0  0  0  0  0  0
   29.2227  -19.9169  -15.2080 C   0  0  0  0  0  0  0  0  0  0  0  0
   27.7152  -20.0780  -15.2529 C   0  0  0  0  0  0  0  0  0  0  0  0
   27.0780  -19.8940  -13.8875 C   0  0  2  0  0  0  0  0  0  0  0  0
   27.8105  -20.8389  -12.9464 C   0  0  0  0  0  0  0  0  0  0  0  0
   25.6077  -20.0686  -13.8827 C   0  0  2  0  0  0  0  0  0  0  0  0
   24.9262  -19.1730  -14.8328 N   0  0  0  0  0  0  0  0  0  0  0  0
   24.9122  -19.9622  -12.5946 C   0  0  0  0  0  0  0  0  0  0  0  0
   24.8881  -18.8172  -11.9715 O   0  0  0  0  0  0  0  0  0  0  0  0
   19.6790  -20.1003  -13.1217 C   0  0  0  0  0  0  0  0  0  0  0  0
   20.5734  -19.9258  -11.8838 C   0  0  2  0  0  0  0  0  0  0  0  0
   20.3131  -18.5235  -11.3958 C   0  0  0  0  0  0  0  0  0  0  0  0
   21.9666  -20.1546  -12.3408 C   0  0  0  0  0  0  0  0  0  0  0  0
   22.8986  -20.7257  -11.2980 C   0  0  2  0  0  0  0  0  0  0  0  0
   24.2219  -20.9884  -11.9033 N   0  0  0  0  0  0  0  0  0  0  0  0
   22.4270  -21.9785  -10.7038 C   0  0  0  0  0  0  0  0  0  0  0  0
   22.5239  -23.0429  -11.3511 O   0  0  0  0  0  0  0  0  0  0  0  0
   21.8789  -22.0067   -9.4452 O   0  0  0  0  0  0  0  0  0  0  0  0
  2  1  1  0
  3  2  2  0
  4  3  1  0
  5 11  1  0
  5  4  2  0
  6  5  1  0
  7  9  1  0
  7  6  1  0
  7  8  1  6
  9 10  2  0
 11 12  2  0
 12  2  1  0
 13 14  1  0
 15 14  1  0
 15 16  1  1
 15 17  1  0
 17 18  1  6
 18  9  1  0
 19 20  2  0
 19 17  1  0
 22 21  1  6
 22 24  1  0
 23 22  1  0
 25 24  1  6
 25 26  1  0
 25 27  1  0
 26 19  1  0
 27 29  1  0
 28 27  2  0
M  END
$$$$
