YIL.pdb
     RDKit          3D

 29 29  0  0  1  0  0  0  0  0999 V2000
   16.5975  -26.1041  -10.6030 O   0  0  0  0  0  0  0  0  0  0  0  0
   17.5296  -25.1718  -11.0602 C   0  0  0  0  0  0  0  0  0  0  0  0
   17.1867  -23.8381  -11.0014 C   0  0  0  0  0  0  0  0  0  0  0  0
   18.0935  -22.8941  -11.4483 C   0  0  0  0  0  0  0  0  0  0  0  0
   19.3253  -23.2392  -11.9493 C   0  0  0  0  0  0  0  0  0  0  0  0
   20.2324  -22.1889  -12.4271 C   0  0  0  0  0  0  0  0  0  0  0  0
   21.3016  -21.8894  -11.4041 C   0  0  2  0  0  0  0  0  0  0  0  0
   20.6705  -21.3453  -10.1969 N   0  0  0  0  0  0  0  0  0  0  0  0
   22.3371  -20.9297  -11.9385 C   0  0  0  0  0  0  0  0  0  0  0  0
   22.1211  -19.7281  -11.7455 O   0  0  0  0  0  0  0  0  0  0  0  0
   19.6535  -24.5732  -12.0019 C   0  0  0  0  0  0  0  0  0  0  0  0
   18.7505  -25.5491  -11.5545 C   0  0  0  0  0  0  0  0  0  0  0  0
   27.2230  -21.2959  -10.4493 C   0  0  0  0  0  0  0  0  0  0  0  0
   25.8918  -20.8874  -11.0506 C   0  0  0  0  0  0  0  0  0  0  0  0
   25.8653  -21.0643  -12.5580 C   0  0  2  0  0  0  0  0  0  0  0  0
   27.0374  -20.2601  -13.1005 C   0  0  0  0  0  0  0  0  0  0  0  0
   24.5666  -20.7197  -13.1800 C   0  0  2  0  0  0  0  0  0  0  0  0
   23.4414  -21.4724  -12.6002 N   0  0  0  0  0  0  0  0  0  0  0  0
   24.4620  -20.8191  -14.6407 C   0  0  0  0  0  0  0  0  0  0  0  0
   23.9521  -21.8933  -15.1755 O   0  0  0  0  0  0  0  0  0  0  0  0
   21.6382  -20.8405  -17.5228 C   0  0  0  0  0  0  0  0  0  0  0  0
   21.5753  -20.0591  -16.2006 C   0  0  2  0  0  0  0  0  0  0  0  0
   20.1851  -19.4790  -16.1438 C   0  0  0  0  0  0  0  0  0  0  0  0
   22.6504  -19.0385  -16.2683 C   0  0  0  0  0  0  0  0  0  0  0  0
   23.9874  -19.5460  -16.7556 C   0  0  2  0  0  0  0  0  0  0  0  0
   24.8556  -19.8518  -15.5983 N   0  0  0  0  0  0  0  0  0  0  0  0
   24.7058  -18.5978  -17.6097 C   0  0  0  0  0  0  0  0  0  0  0  0
   24.7617  -18.7976  -18.8419 O   0  0  0  0  0  0  0  0  0  0  0  0
   25.3209  -17.4896  -17.0816 O   0  0  0  0  0  0  0  0  0  0  0  0
  2  1  1  0
  3  2  2  0
  4  3  1  0
  5 11  1  0
  5  4  2  0
  6  5  1  0
  7  9  1  0
  7  6  1  0
  7  8  1  1
  9 10  2  0
 11 12  2  0
 12  2  1  0
 13 14  1  0
 15 14  1  0
 15 16  1  6
 15 17  1  0
 17 18  1  1
 18  9  1  0
 19 20  2  0
 19 17  1  0
 22 21  1  6
 22 24  1  0
 23 22  1  0
 25 24  1  1
 25 26  1  0
 25 27  1  0
 26 19  1  0
 27 29  1  0
 28 27  2  0
M  END
$$$$
