YIL.pdb
     RDKit          3D

 29 29  0  0  1  0  0  0  0  0999 V2000
   17.3154  -19.2657  -14.6087 O   0  0  0  0  0  0  0  0  0  0  0  0
   18.5223  -19.7294  -14.0838 C   0  0  0  0  0  0  0  0  0  0  0  0
   18.6610  -21.0874  -13.8938 C   0  0  0  0  0  0  0  0  0  0  0  0
   19.8480  -21.5723  -13.3749 C   0  0  0  0  0  0  0  0  0  0  0  0
   20.8947  -20.7472  -13.0419 C   0  0  0  0  0  0  0  0  0  0  0  0
   22.1194  -21.3245  -12.4752 C   0  0  0  0  0  0  0  0  0  0  0  0
   23.2332  -21.3403  -13.4944 C   0  0  2  0  0  0  0  0  0  0  0  0
   22.8919  -22.2864  -14.5621 N   0  0  0  0  0  0  0  0  0  0  0  0
   24.5597  -21.7015  -12.8710 C   0  0  0  0  0  0  0  0  0  0  0  0
   24.7998  -22.9086  -12.7556 O   0  0  0  0  0  0  0  0  0  0  0  0
   20.7419  -19.3950  -13.2369 C   0  0  0  0  0  0  0  0  0  0  0  0
   19.5475  -18.8794  -13.7618 C   0  0  0  0  0  0  0  0  0  0  0  0
   28.3547  -18.9704  -14.7060 C   0  0  0  0  0  0  0  0  0  0  0  0
   27.9818  -20.2176  -13.9274 C   0  0  0  0  0  0  0  0  0  0  0  0
   27.7451  -19.9259  -12.4568 C   0  0  2  0  0  0  0  0  0  0  0  0
   29.1061  -20.0135  -11.7822 C   0  0  0  0  0  0  0  0  0  0  0  0
   26.7136  -20.7854  -11.8327 C   0  0  2  0  0  0  0  0  0  0  0  0
   25.3971  -20.6539  -12.4797 N   0  0  0  0  0  0  0  0  0  0  0  0
   26.5107  -20.6655  -10.3840 C   0  0  0  0  0  0  0  0  0  0  0  0
   25.5449  -19.9155   -9.9316 O   0  0  0  0  0  0  0  0  0  0  0  0
   30.0065  -20.9517   -5.3896 C   0  0  0  0  0  0  0  0  0  0  0  0
   28.5954  -20.5826   -5.8748 C   0  0  2  0  0  0  0  0  0  0  0  0
   27.6548  -21.1604   -4.8483 C   0  0  0  0  0  0  0  0  0  0  0  0
   28.4505  -21.1785   -7.2261 C   0  0  0  0  0  0  0  0  0  0  0  0
   27.1933  -20.7891   -7.9679 C   0  0  2  0  0  0  0  0  0  0  0  0
   27.2584  -21.2925   -9.3567 N   0  0  0  0  0  0  0  0  0  0  0  0
   26.9661  -19.3436   -8.0312 C   0  0  0  0  0  0  0  0  0  0  0  0
   25.9915  -18.8456   -7.4283 O   0  0  0  0  0  0  0  0  0  0  0  0
   27.8059  -18.5222   -8.7420 O   0  0  0  0  0  0  0  0  0  0  0  0
  2  1  1  0
  3  2  2  0
  4  3  1  0
  5 11  1  0
  5  4  2  0
  6  5  1  0
  7  9  1  0
  7  6  1  0
  7  8  1  6
  9 10  2  0
 11 12  2  0
 12  2  1  0
 13 14  1  0
 15 14  1  0
 15 16  1  1
 15 17  1  0
 17 18  1  6
 18  9  1  0
 19 20  2  0
 19 17  1  0
 22 21  1  1
 22 24  1  0
 23 22  1  0
 25 24  1  6
 25 26  1  0
 25 27  1  0
 26 19  1  0
 27 29  1  0
 28 27  2  0
M  END
$$$$
