YIL.pdb
     RDKit          3D

 29 29  0  0  1  0  0  0  0  0999 V2000
   28.8072  -13.9453  -19.1692 O   0  0  0  0  0  0  0  0  0  0  0  0
   27.9292  -14.7708  -18.4658 C   0  0  0  0  0  0  0  0  0  0  0  0
   28.4207  -15.9608  -17.9740 C   0  0  0  0  0  0  0  0  0  0  0  0
   27.5705  -16.7968  -17.2729 C   0  0  0  0  0  0  0  0  0  0  0  0
   26.2519  -16.4825  -17.0492 C   0  0  0  0  0  0  0  0  0  0  0  0
   25.3978  -17.4244  -16.3159 C   0  0  0  0  0  0  0  0  0  0  0  0
   25.3144  -18.7510  -17.0318 C   0  0  2  0  0  0  0  0  0  0  0  0
   24.7745  -18.5353  -18.3786 N   0  0  0  0  0  0  0  0  0  0  0  0
   24.4676  -19.7453  -16.2750 C   0  0  0  0  0  0  0  0  0  0  0  0
   23.2435  -19.6302  -16.4016 O   0  0  0  0  0  0  0  0  0  0  0  0
   25.7757  -15.2924  -17.5457 C   0  0  0  0  0  0  0  0  0  0  0  0
   26.6188  -14.4279  -18.2599 C   0  0  0  0  0  0  0  0  0  0  0  0
   25.3968  -24.7589  -17.0975 C   0  0  0  0  0  0  0  0  0  0  0  0
   24.7237  -23.4733  -16.6563 C   0  0  0  0  0  0  0  0  0  0  0  0
   25.0189  -23.1404  -15.2051 C   0  0  2  0  0  0  0  0  0  0  0  0
   24.4824  -24.3043  -14.3850 C   0  0  0  0  0  0  0  0  0  0  0  0
   24.5040  -21.8204  -14.7753 C   0  0  2  0  0  0  0  0  0  0  0  0
   25.1295  -20.7026  -15.5021 N   0  0  0  0  0  0  0  0  0  0  0  0
   24.5530  -21.5023  -13.3432 C   0  0  0  0  0  0  0  0  0  0  0  0
   25.5423  -20.7921  -12.8776 O   0  0  0  0  0  0  0  0  0  0  0  0
   24.8552  -19.2296   -9.2949 C   0  0  0  0  0  0  0  0  0  0  0  0
   25.6191  -20.5591   -9.4031 C   0  0  2  0  0  0  0  0  0  0  0  0
   27.0729  -20.2014   -9.2276 C   0  0  0  0  0  0  0  0  0  0  0  0
   25.2944  -21.1186  -10.7387 C   0  0  0  0  0  0  0  0  0  0  0  0
   23.8534  -21.5306  -10.9290 C   0  0  2  0  0  0  0  0  0  0  0  0
   23.6179  -21.8774  -12.3470 N   0  0  0  0  0  0  0  0  0  0  0  0
   22.8869  -20.4939  -10.5604 C   0  0  0  0  0  0  0  0  0  0  0  0
   22.4361  -19.7301  -11.4405 O   0  0  0  0  0  0  0  0  0  0  0  0
   22.4645  -20.3444   -9.2625 O   0  0  0  0  0  0  0  0  0  0  0  0
  2  1  1  0
  3  2  2  0
  4  3  1  0
  5 11  1  0
  5  4  2  0
  6  5  1  0
  7  9  1  0
  7  6  1  0
  7  8  1  6
  9 10  2  0
 11 12  2  0
 12  2  1  0
 13 14  1  0
 15 14  1  0
 15 16  1  1
 15 17  1  0
 17 18  1  6
 18  9  1  0
 19 20  2  0
 19 17  1  0
 22 21  1  6
 22 24  1  0
 23 22  1  0
 25 24  1  6
 25 26  1  0
 25 27  1  0
 26 19  1  0
 27 29  1  0
 28 27  2  0
M  END
$$$$
