YIL.pdb
     RDKit          3D

 29 29  0  0  1  0  0  0  0  0999 V2000
   24.9170  -29.2557  -18.2461 O   0  0  0  0  0  0  0  0  0  0  0  0
   25.5728  -28.1910  -17.6270 C   0  0  0  0  0  0  0  0  0  0  0  0
   24.8012  -27.2486  -16.9819 C   0  0  0  0  0  0  0  0  0  0  0  0
   25.4275  -26.1834  -16.3602 C   0  0  0  0  0  0  0  0  0  0  0  0
   26.7929  -26.0315  -16.3629 C   0  0  0  0  0  0  0  0  0  0  0  0
   27.3928  -24.8661  -15.7024 C   0  0  0  0  0  0  0  0  0  0  0  0
   27.2906  -23.6371  -16.5734 C   0  0  2  0  0  0  0  0  0  0  0  0
   28.2026  -23.7808  -17.7133 N   0  0  0  0  0  0  0  0  0  0  0  0
   27.5999  -22.3760  -15.8036 C   0  0  0  0  0  0  0  0  0  0  0  0
   28.7395  -21.9170  -15.9401 O   0  0  0  0  0  0  0  0  0  0  0  0
   27.5495  -26.9792  -17.0104 C   0  0  0  0  0  0  0  0  0  0  0  0
   26.9373  -28.0684  -17.6481 C   0  0  0  0  0  0  0  0  0  0  0  0
   26.2612  -17.6929  -16.4185 C   0  0  0  0  0  0  0  0  0  0  0  0
   26.8772  -18.9656  -15.8695 C   0  0  0  0  0  0  0  0  0  0  0  0
   26.1751  -19.4464  -14.6126 C   0  0  2  0  0  0  0  0  0  0  0  0
   26.2231  -18.2863  -13.6293 C   0  0  0  0  0  0  0  0  0  0  0  0
   26.7178  -20.7121  -14.0688 C   0  0  2  0  0  0  0  0  0  0  0  0
   26.5847  -21.8378  -15.0091 N   0  0  0  0  0  0  0  0  0  0  0  0
   26.2207  -21.1625  -12.7632 C   0  0  0  0  0  0  0  0  0  0  0  0
   25.0452  -21.7207  -12.6824 O   0  0  0  0  0  0  0  0  0  0  0  0
   25.1794  -19.9690   -7.7584 C   0  0  0  0  0  0  0  0  0  0  0  0
   26.3154  -21.0046   -7.7578 C   0  0  2  0  0  0  0  0  0  0  0  0
   27.1978  -20.6309   -6.5941 C   0  0  0  0  0  0  0  0  0  0  0  0
   26.9824  -20.8919   -9.0787 C   0  0  0  0  0  0  0  0  0  0  0  0
   26.1536  -21.3465  -10.2571 C   0  0  2  0  0  0  0  0  0  0  0  0
   26.8832  -21.0732  -11.5139 N   0  0  0  0  0  0  0  0  0  0  0  0
   24.8477  -20.6903  -10.3517 C   0  0  0  0  0  0  0  0  0  0  0  0
   23.8126  -21.3344  -10.0778 O   0  0  0  0  0  0  0  0  0  0  0  0
   24.7380  -19.3768  -10.7362 O   0  0  0  0  0  0  0  0  0  0  0  0
  2  1  1  0
  3  2  2  0
  4  3  1  0
  5 11  1  0
  5  4  2  0
  6  5  1  0
  7  9  1  0
  7  6  1  0
  7  8  1  6
  9 10  2  0
 11 12  2  0
 12  2  1  0
 13 14  1  0
 15 14  1  0
 15 16  1  1
 15 17  1  0
 17 18  1  6
 18  9  1  0
 19 20  2  0
 19 17  1  0
 22 21  1  6
 22 24  1  0
 23 22  1  0
 25 24  1  1
 25 26  1  0
 25 27  1  0
 26 19  1  0
 27 29  1  0
 28 27  2  0
M  END
$$$$
