YIL.pdb
     RDKit          3D

 29 29  0  0  1  0  0  0  0  0999 V2000
   17.7669  -15.1705  -23.2453 O   0  0  0  0  0  0  0  0  0  0  0  0
   18.0260  -14.3933  -22.1158 C   0  0  0  0  0  0  0  0  0  0  0  0
   17.2008  -14.5521  -21.0233 C   0  0  0  0  0  0  0  0  0  0  0  0
   17.4368  -13.7933  -19.8911 C   0  0  0  0  0  0  0  0  0  0  0  0
   18.4657  -12.8860  -19.8169 C   0  0  0  0  0  0  0  0  0  0  0  0
   18.6480  -12.0968  -18.5929 C   0  0  0  0  0  0  0  0  0  0  0  0
   19.6226  -12.7679  -17.6553 C   0  0  2  0  0  0  0  0  0  0  0  0
   19.0804  -14.0701  -17.2526 N   0  0  0  0  0  0  0  0  0  0  0  0
   19.9117  -11.9169  -16.4424 C   0  0  0  0  0  0  0  0  0  0  0  0
   19.2504  -12.1664  -15.4284 O   0  0  0  0  0  0  0  0  0  0  0  0
   19.2805  -12.7384  -20.9143 C   0  0  0  0  0  0  0  0  0  0  0  0
   19.0611  -13.4967  -22.0740 C   0  0  0  0  0  0  0  0  0  0  0  0
   24.8218  -11.4474  -14.6397 C   0  0  0  0  0  0  0  0  0  0  0  0
   23.3198  -11.4360  -14.8509 C   0  0  0  0  0  0  0  0  0  0  0  0
   22.8132  -10.0747  -15.2915 C   0  0  2  0  0  0  0  0  0  0  0  0
   23.3241   -9.0779  -14.2618 C   0  0  0  0  0  0  0  0  0  0  0  0
   21.3486  -10.0182  -15.5009 C   0  0  2  0  0  0  0  0  0  0  0  0
   20.8912  -10.9283  -16.5646 N   0  0  0  0  0  0  0  0  0  0  0  0
   20.7452   -8.7037  -15.7509 C   0  0  0  0  0  0  0  0  0  0  0  0
   20.8985   -7.7507  -14.8745 O   0  0  0  0  0  0  0  0  0  0  0  0
   15.7709   -6.2257  -15.6900 C   0  0  0  0  0  0  0  0  0  0  0  0
   17.0703   -5.9054  -16.4461 C   0  0  2  0  0  0  0  0  0  0  0  0
   16.6364   -5.4747  -17.8240 C   0  0  0  0  0  0  0  0  0  0  0  0
   17.8783   -7.1500  -16.4317 C   0  0  0  0  0  0  0  0  0  0  0  0
   19.3057   -6.9942  -16.9015 C   0  0  2  0  0  0  0  0  0  0  0  0
   19.9837   -8.3081  -16.8784 N   0  0  0  0  0  0  0  0  0  0  0  0
   20.1002   -6.0716  -16.0877 C   0  0  0  0  0  0  0  0  0  0  0  0
   20.0636   -4.8465  -16.3310 O   0  0  0  0  0  0  0  0  0  0  0  0
   20.8869   -6.5277  -15.0589 O   0  0  0  0  0  0  0  0  0  0  0  0
  2  1  1  0
  3  2  2  0
  4  3  1  0
  5 11  1  0
  5  4  2  0
  6  5  1  0
  7  9  1  0
  7  6  1  0
  7  8  1  1
  9 10  2  0
 11 12  2  0
 12  2  1  0
 13 14  1  0
 15 14  1  0
 15 16  1  1
 15 17  1  0
 17 18  1  6
 18  9  1  0
 19 20  2  0
 19 17  1  0
 22 21  1  1
 22 24  1  0
 23 22  1  0
 25 24  1  1
 25 26  1  0
 25 27  1  0
 26 19  1  0
 27 29  1  0
 28 27  2  0
M  END
$$$$
