YIL.pdb
     RDKit          3D

 29 29  0  0  1  0  0  0  0  0999 V2000
   18.3966  -13.7477  -16.9345 O   0  0  0  0  0  0  0  0  0  0  0  0
   19.1183  -14.8982  -16.6144 C   0  0  0  0  0  0  0  0  0  0  0  0
   20.2294  -14.7572  -15.8112 C   0  0  0  0  0  0  0  0  0  0  0  0
   20.9618  -15.8826  -15.4793 C   0  0  0  0  0  0  0  0  0  0  0  0
   20.6205  -17.1375  -15.9224 C   0  0  0  0  0  0  0  0  0  0  0  0
   21.4534  -18.2876  -15.5510 C   0  0  0  0  0  0  0  0  0  0  0  0
   22.6087  -18.4521  -16.5088 C   0  0  2  0  0  0  0  0  0  0  0  0
   22.0898  -18.8551  -17.8203 N   0  0  0  0  0  0  0  0  0  0  0  0
   23.6160  -19.4579  -16.0062 C   0  0  0  0  0  0  0  0  0  0  0  0
   23.3960  -20.6409  -16.2887 O   0  0  0  0  0  0  0  0  0  0  0  0
   19.5099  -17.2627  -16.7228 C   0  0  0  0  0  0  0  0  0  0  0  0
   18.7511  -16.1359  -17.0731 C   0  0  0  0  0  0  0  0  0  0  0  0
   28.8428  -18.9968  -16.6794 C   0  0  0  0  0  0  0  0  0  0  0  0
   27.4340  -19.4726  -16.3805 C   0  0  0  0  0  0  0  0  0  0  0  0
   27.0982  -19.3776  -14.9032 C   0  0  2  0  0  0  0  0  0  0  0  0
   28.1641  -20.1812  -14.1731 C   0  0  0  0  0  0  0  0  0  0  0  0
   25.7136  -19.7865  -14.5749 C   0  0  2  0  0  0  0  0  0  0  0  0
   24.7012  -18.9744  -15.2711 N   0  0  0  0  0  0  0  0  0  0  0  0
   25.3376  -19.8457  -13.1573 C   0  0  0  0  0  0  0  0  0  0  0  0
   25.5001  -18.7925  -12.4062 O   0  0  0  0  0  0  0  0  0  0  0  0
   22.0401  -18.9900  -10.7982 C   0  0  0  0  0  0  0  0  0  0  0  0
   22.0532  -20.3532  -11.5084 C   0  0  2  0  0  0  0  0  0  0  0  0
   20.6352  -20.8588  -11.4315 C   0  0  0  0  0  0  0  0  0  0  0  0
   23.0322  -21.1948  -10.7765 C   0  0  0  0  0  0  0  0  0  0  0  0
   24.4828  -20.8475  -11.0161 C   0  0  2  0  0  0  0  0  0  0  0  0
   24.7872  -20.9493  -12.4596 N   0  0  0  0  0  0  0  0  0  0  0  0
   25.4250  -21.7126  -10.3029 C   0  0  0  0  0  0  0  0  0  0  0  0
   25.9992  -22.6373  -10.9166 O   0  0  0  0  0  0  0  0  0  0  0  0
   25.6912  -21.5267   -8.9688 O   0  0  0  0  0  0  0  0  0  0  0  0
  2  1  1  0
  3  2  2  0
  4  3  1  0
  5 11  1  0
  5  4  2  0
  6  5  1  0
  7  9  1  0
  7  6  1  0
  7  8  1  6
  9 10  2  0
 11 12  2  0
 12  2  1  0
 13 14  1  0
 15 14  1  0
 15 16  1  1
 15 17  1  0
 17 18  1  6
 18  9  1  0
 19 20  2  0
 19 17  1  0
 22 21  1  1
 22 24  1  0
 23 22  1  0
 25 24  1  6
 25 26  1  0
 25 27  1  0
 26 19  1  0
 27 29  1  0
 28 27  2  0
M  END
$$$$
