YIL.pdb
     RDKit          3D

 29 29  0  0  1  0  0  0  0  0999 V2000
   18.5881  -18.2600  -13.9393 O   0  0  0  0  0  0  0  0  0  0  0  0
   19.5641  -18.9193  -13.1910 C   0  0  0  0  0  0  0  0  0  0  0  0
   20.6726  -18.1980  -12.8030 C   0  0  0  0  0  0  0  0  0  0  0  0
   21.6544  -18.8286  -12.0602 C   0  0  0  0  0  0  0  0  0  0  0  0
   21.5635  -20.1500  -11.6952 C   0  0  0  0  0  0  0  0  0  0  0  0
   22.6513  -20.7644  -10.9248 C   0  0  0  0  0  0  0  0  0  0  0  0
   23.8909  -20.9263  -11.7712 C   0  0  2  0  0  0  0  0  0  0  0  0
   23.5959  -21.8362  -12.8833 N   0  0  0  0  0  0  0  0  0  0  0  0
   25.0593  -21.4382  -10.9640 C   0  0  0  0  0  0  0  0  0  0  0  0
   25.0240  -22.6322  -10.6465 O   0  0  0  0  0  0  0  0  0  0  0  0
   20.4523  -20.8567  -12.0895 C   0  0  0  0  0  0  0  0  0  0  0  0
   19.4432  -20.2390  -12.8432 C   0  0  0  0  0  0  0  0  0  0  0  0
   29.7445  -21.3816  -12.9273 C   0  0  0  0  0  0  0  0  0  0  0  0
   28.4930  -21.5446  -12.0860 C   0  0  0  0  0  0  0  0  0  0  0  0
   28.5186  -20.6706  -10.8452 C   0  0  2  0  0  0  0  0  0  0  0  0
   29.8454  -20.9511  -10.1555 C   0  0  0  0  0  0  0  0  0  0  0  0
   27.3406  -20.8432   -9.9650 C   0  0  2  0  0  0  0  0  0  0  0  0
   26.0723  -20.5305  -10.6454 N   0  0  0  0  0  0  0  0  0  0  0  0
   27.3407  -20.1366   -8.6785 C   0  0  0  0  0  0  0  0  0  0  0  0
   26.8572  -18.9277   -8.6108 O   0  0  0  0  0  0  0  0  0  0  0  0
   26.1506  -20.3184   -3.9455 C   0  0  0  0  0  0  0  0  0  0  0  0
   27.1984  -21.3159   -4.4651 C   0  0  2  0  0  0  0  0  0  0  0  0
   27.6053  -22.1315   -3.2645 C   0  0  0  0  0  0  0  0  0  0  0  0
   28.2984  -20.5026   -5.0404 C   0  0  0  0  0  0  0  0  0  0  0  0
   27.9331  -19.7094   -6.2732 C   0  0  2  0  0  0  0  0  0  0  0  0
   27.8149  -20.6186   -7.4333 N   0  0  0  0  0  0  0  0  0  0  0  0
   28.9070  -18.6723   -6.6209 C   0  0  0  0  0  0  0  0  0  0  0  0
   29.8645  -18.9528   -7.3730 O   0  0  0  0  0  0  0  0  0  0  0  0
   28.7879  -17.3935   -6.1355 O   0  0  0  0  0  0  0  0  0  0  0  0
  2  1  1  0
  3  2  2  0
  4  3  1  0
  5 11  1  0
  5  4  2  0
  6  5  1  0
  7  9  1  0
  7  6  1  0
  7  8  1  6
  9 10  2  0
 11 12  2  0
 12  2  1  0
 13 14  1  0
 15 14  1  0
 15 16  1  1
 15 17  1  0
 17 18  1  6
 18  9  1  0
 19 20  2  0
 19 17  1  0
 22 21  1  1
 22 24  1  0
 23 22  1  0
 25 24  1  1
 25 26  1  0
 25 27  1  0
 26 19  1  0
 27 29  1  0
 28 27  2  0
M  END
$$$$
