YIL.pdb
     RDKit          3D

 29 29  0  0  1  0  0  0  0  0999 V2000
   25.1636  -40.3628  -13.8725 O   0  0  0  0  0  0  0  0  0  0  0  0
   25.7749  -39.2718  -13.2536 C   0  0  0  0  0  0  0  0  0  0  0  0
   25.7809  -39.2348  -11.8759 C   0  0  0  0  0  0  0  0  0  0  0  0
   26.3809  -38.1639  -11.2383 C   0  0  0  0  0  0  0  0  0  0  0  0
   26.9717  -37.1347  -11.9305 C   0  0  0  0  0  0  0  0  0  0  0  0
   27.5721  -36.0169  -11.1927 C   0  0  0  0  0  0  0  0  0  0  0  0
   26.5237  -35.0079  -10.7900 C   0  0  2  0  0  0  0  0  0  0  0  0
   26.1494  -34.2118  -11.9639 N   0  0  0  0  0  0  0  0  0  0  0  0
   27.0056  -34.1120   -9.6747 C   0  0  0  0  0  0  0  0  0  0  0  0
   27.4480  -33.0081  -10.0116 O   0  0  0  0  0  0  0  0  0  0  0  0
   26.9580  -37.1852  -13.3042 C   0  0  0  0  0  0  0  0  0  0  0  0
   26.3556  -38.2610  -13.9735 C   0  0  0  0  0  0  0  0  0  0  0  0
   25.4881  -31.1290   -7.8224 C   0  0  0  0  0  0  0  0  0  0  0  0
   24.9426  -32.5312   -7.6307 C   0  0  0  0  0  0  0  0  0  0  0  0
   25.7472  -33.3260   -6.6183 C   0  0  2  0  0  0  0  0  0  0  0  0
   25.8651  -32.4446   -5.3837 C   0  0  0  0  0  0  0  0  0  0  0  0
   27.0487  -33.8097   -7.1324 C   0  0  2  0  0  0  0  0  0  0  0  0
   26.9134  -34.5989   -8.3685 N   0  0  0  0  0  0  0  0  0  0  0  0
   27.9065  -34.5670   -6.2132 C   0  0  0  0  0  0  0  0  0  0  0  0
   27.5516  -35.7668   -5.8465 O   0  0  0  0  0  0  0  0  0  0  0  0
   31.9779  -36.1229   -6.6188 C   0  0  0  0  0  0  0  0  0  0  0  0
   31.9196  -34.6710   -6.1175 C   0  0  2  0  0  0  0  0  0  0  0  0
   33.3430  -34.1763   -6.1557 C   0  0  0  0  0  0  0  0  0  0  0  0
   31.3380  -34.7243   -4.7533 C   0  0  0  0  0  0  0  0  0  0  0  0
   29.8587  -35.0259   -4.6975 C   0  0  2  0  0  0  0  0  0  0  0  0
   29.1361  -34.1507   -5.6454 N   0  0  0  0  0  0  0  0  0  0  0  0
   29.2635  -34.8313   -3.3736 C   0  0  0  0  0  0  0  0  0  0  0  0
   28.4441  -33.9049   -3.1959 O   0  0  0  0  0  0  0  0  0  0  0  0
   29.5890  -35.6498   -2.3203 O   0  0  0  0  0  0  0  0  0  0  0  0
  2  1  1  0
  3  2  2  0
  4  3  1  0
  5 11  1  0
  5  4  2  0
  6  5  1  0
  7  9  1  0
  7  6  1  0
  7  8  1  6
  9 10  2  0
 11 12  2  0
 12  2  1  0
 13 14  1  0
 15 14  1  0
 15 16  1  1
 15 17  1  0
 17 18  1  6
 18  9  1  0
 19 20  2  0
 19 17  1  0
 22 21  1  1
 22 24  1  0
 23 22  1  0
 25 24  1  1
 25 26  1  0
 25 27  1  0
 26 19  1  0
 27 29  1  0
 28 27  2  0
M  END
$$$$
