YIL.pdb
     RDKit          3D

 29 29  0  0  1  0  0  0  0  0999 V2000
   18.8836  -15.6086  -18.0210 O   0  0  0  0  0  0  0  0  0  0  0  0
   19.6336  -16.4719  -17.2214 C   0  0  0  0  0  0  0  0  0  0  0  0
   18.9961  -17.5723  -16.6900 C   0  0  0  0  0  0  0  0  0  0  0  0
   19.7176  -18.4435  -15.8940 C   0  0  0  0  0  0  0  0  0  0  0  0
   21.0488  -18.2506  -15.6142 C   0  0  0  0  0  0  0  0  0  0  0  0
   21.7507  -19.2019  -14.7444 C   0  0  0  0  0  0  0  0  0  0  0  0
   22.6722  -20.0904  -15.5450 C   0  0  2  0  0  0  0  0  0  0  0  0
   21.8662  -21.0041  -16.3618 N   0  0  0  0  0  0  0  0  0  0  0  0
   23.6155  -20.8660  -14.6576 C   0  0  0  0  0  0  0  0  0  0  0  0
   23.2110  -21.9623  -14.2547 O   0  0  0  0  0  0  0  0  0  0  0  0
   21.6712  -17.1488  -16.1511 C   0  0  0  0  0  0  0  0  0  0  0  0
   20.9605  -16.2509  -16.9614 C   0  0  0  0  0  0  0  0  0  0  0  0
   28.9230  -21.1145  -15.7497 C   0  0  0  0  0  0  0  0  0  0  0  0
   27.5038  -21.3309  -15.2601 C   0  0  0  0  0  0  0  0  0  0  0  0
   27.2457  -20.6469  -13.9299 C   0  0  2  0  0  0  0  0  0  0  0  0
   28.3084  -21.1656  -12.9726 C   0  0  0  0  0  0  0  0  0  0  0  0
   25.8617  -20.8097  -13.4297 C   0  0  2  0  0  0  0  0  0  0  0  0
   24.8535  -20.2873  -14.3677 N   0  0  0  0  0  0  0  0  0  0  0  0
   25.5498  -20.2750  -12.0989 C   0  0  0  0  0  0  0  0  0  0  0  0
   25.5222  -18.9843  -11.9166 O   0  0  0  0  0  0  0  0  0  0  0  0
   22.1692  -19.3452  -10.2545 C   0  0  0  0  0  0  0  0  0  0  0  0
   22.4769  -20.8307  -10.0063 C   0  0  2  0  0  0  0  0  0  0  0  0
   21.2169  -21.4071   -9.4126 C   0  0  0  0  0  0  0  0  0  0  0  0
   23.6443  -20.8670   -9.0908 C   0  0  0  0  0  0  0  0  0  0  0  0
   24.9269  -20.3111   -9.6638 C   0  0  2  0  0  0  0  0  0  0  0  0
   25.2532  -21.0109  -10.9249 N   0  0  0  0  0  0  0  0  0  0  0  0
   26.0811  -20.4441   -8.7722 C   0  0  0  0  0  0  0  0  0  0  0  0
   27.0080  -21.2252   -9.0757 O   0  0  0  0  0  0  0  0  0  0  0  0
   26.1652  -19.7248   -7.6057 O   0  0  0  0  0  0  0  0  0  0  0  0
  2  1  1  0
  3  2  2  0
  4  3  1  0
  5 11  1  0
  5  4  2  0
  6  5  1  0
  7  9  1  0
  7  6  1  0
  7  8  1  1
  9 10  2  0
 11 12  2  0
 12  2  1  0
 13 14  1  0
 15 14  1  0
 15 16  1  1
 15 17  1  0
 17 18  1  6
 18  9  1  0
 19 20  2  0
 19 17  1  0
 22 21  1  1
 22 24  1  0
 23 22  1  0
 25 24  1  1
 25 26  1  0
 25 27  1  0
 26 19  1  0
 27 29  1  0
 28 27  2  0
M  END
$$$$
