YIL.pdb
     RDKit          3D

 29 29  0  0  1  0  0  0  0  0999 V2000
   16.0401  -15.5597  -12.6498 O   0  0  0  0  0  0  0  0  0  0  0  0
   16.9640  -16.5919  -12.4824 C   0  0  0  0  0  0  0  0  0  0  0  0
   18.1794  -16.4766  -13.1220 C   0  0  0  0  0  0  0  0  0  0  0  0
   19.1126  -17.4865  -12.9719 C   0  0  0  0  0  0  0  0  0  0  0  0
   18.8706  -18.6017  -12.2069 C   0  0  0  0  0  0  0  0  0  0  0  0
   19.8959  -19.6471  -12.1067 C   0  0  0  0  0  0  0  0  0  0  0  0
   19.9048  -20.5176  -13.3403 C   0  0  2  0  0  0  0  0  0  0  0  0
   18.7096  -21.3681  -13.3349 N   0  0  0  0  0  0  0  0  0  0  0  0
   21.1541  -21.3609  -13.4236 C   0  0  0  0  0  0  0  0  0  0  0  0
   21.2055  -22.3392  -12.6699 O   0  0  0  0  0  0  0  0  0  0  0  0
   17.6539  -18.7030  -11.5749 C   0  0  0  0  0  0  0  0  0  0  0  0
   16.6914  -17.6917  -11.7121 C   0  0  0  0  0  0  0  0  0  0  0  0
   22.2581  -24.0218  -17.4887 C   0  0  0  0  0  0  0  0  0  0  0  0
   22.2865  -23.4146  -16.0991 C   0  0  0  0  0  0  0  0  0  0  0  0
   23.3610  -22.3517  -15.9597 C   0  0  2  0  0  0  0  0  0  0  0  0
   24.6736  -23.0230  -16.3357 C   0  0  0  0  0  0  0  0  0  0  0  0
   23.3860  -21.6936  -14.6337 C   0  0  2  0  0  0  0  0  0  0  0  0
   22.1384  -20.9702  -14.3348 N   0  0  0  0  0  0  0  0  0  0  0  0
   24.5048  -20.7895  -14.3416 C   0  0  0  0  0  0  0  0  0  0  0  0
   24.5551  -19.6231  -14.9221 O   0  0  0  0  0  0  0  0  0  0  0  0
   27.5188  -21.5061   -9.9462 C   0  0  0  0  0  0  0  0  0  0  0  0
   27.7616  -21.3464  -11.4556 C   0  0  2  0  0  0  0  0  0  0  0  0
   29.2589  -21.3828  -11.6268 C   0  0  0  0  0  0  0  0  0  0  0  0
   27.1435  -20.0539  -11.8425 C   0  0  0  0  0  0  0  0  0  0  0  0
   26.6283  -19.9880  -13.2613 C   0  0  2  0  0  0  0  0  0  0  0  0
   25.5917  -21.0230  -13.4631 N   0  0  0  0  0  0  0  0  0  0  0  0
   27.6626  -20.1933  -14.2776 C   0  0  0  0  0  0  0  0  0  0  0  0
   27.7855  -21.3147  -14.8148 O   0  0  0  0  0  0  0  0  0  0  0  0
   28.5026  -19.1742  -14.6533 O   0  0  0  0  0  0  0  0  0  0  0  0
  2  1  1  0
  3  2  2  0
  4  3  1  0
  5 11  1  0
  5  4  2  0
  6  5  1  0
  7  9  1  0
  7  6  1  0
  7  8  1  1
  9 10  2  0
 11 12  2  0
 12  2  1  0
 13 14  1  0
 15 14  1  0
 15 16  1  1
 15 17  1  0
 17 18  1  6
 18  9  1  0
 19 20  2  0
 19 17  1  0
 22 21  1  1
 22 24  1  0
 23 22  1  0
 25 24  1  1
 25 26  1  0
 25 27  1  0
 26 19  1  0
 27 29  1  0
 28 27  2  0
M  END
$$$$
