VAF.pdb
     RDKit          3D

 24 24  0  0  1  0  0  0  0  0999 V2000
    8.9824  -12.8130   19.7217 C   0  0  0  0  0  0  0  0  0  0  0  0
    8.1069  -13.5926   18.7644 C   0  0  1  0  0  0  0  0  0  0  0  0
    8.0088  -12.8351   17.4923 C   0  0  0  0  0  0  0  0  0  0  0  0
    8.5951  -15.0064   18.6044 C   0  0  2  0  0  0  0  0  0  0  0  0
    7.7151  -15.6570   17.6517 N   0  0  0  0  0  0  0  0  0  0  0  0
    8.6625  -15.7614   19.8513 C   0  0  0  0  0  0  0  0  0  0  0  0
    7.6010  -16.0295   20.4667 O   0  0  0  0  0  0  0  0  0  0  0  0
   11.0210  -17.9251   21.7625 C   0  0  0  0  0  0  0  0  0  0  0  0
    9.8484  -16.9693   21.6447 C   0  0  2  0  0  0  0  0  0  0  0  0
    9.8735  -16.2207   20.4235 N   0  0  0  0  0  0  0  0  0  0  0  0
    9.8127  -16.1344   22.8525 C   0  0  0  0  0  0  0  0  0  0  0  0
   10.5801  -15.1420   22.9225 O   0  0  0  0  0  0  0  0  0  0  0  0
    8.9388  -16.4242   23.9277 N   0  0  0  0  0  0  0  0  0  0  0  0
    8.7277  -15.5385   25.0546 C   0  0  1  0  0  0  0  0  0  0  0  0
    7.6092  -14.5961   24.7075 C   0  0  0  0  0  0  0  0  0  0  0  0
    7.3010  -13.6204   25.7760 C   0  0  0  0  0  0  0  0  0  0  0  0
    8.2582  -12.7233   26.1743 C   0  0  0  0  0  0  0  0  0  0  0  0
    8.0267  -11.7795   27.1725 C   0  0  0  0  0  0  0  0  0  0  0  0
    6.7751  -11.7620   27.7745 C   0  0  0  0  0  0  0  0  0  0  0  0
    5.8259  -12.6685   27.3639 C   0  0  0  0  0  0  0  0  0  0  0  0
    6.0693  -13.5942   26.3770 C   0  0  0  0  0  0  0  0  0  0  0  0
    8.4949  -16.3335   26.2715 C   0  0  0  0  0  0  0  0  0  0  0  0
    9.1004  -16.0575   27.4839 O   0  0  0  0  0  0  0  0  0  0  0  0
    7.7087  -17.3306   26.2565 O   0  0  0  0  0  0  0  0  0  0  0  0
  2  1  1  1
  2  4  1  0
  2  3  1  0
  4  6  1  0
  4  5  1  6
  6  7  2  0
  9  8  1  1
  9 11  1  0
 10  6  1  0
 10  9  1  0
 11 12  2  0
 13 14  1  0
 13 11  1  0
 14 22  1  0
 14 15  1  6
 16 21  2  0
 16 15  1  0
 17 16  1  0
 18 19  1  0
 18 17  2  0
 19 20  2  0
 20 21  1  0
 22 24  2  0
 22 23  1  0
M  END
$$$$
