VAF.pdb
     RDKit          3D

 24 24  0  0  1  0  0  0  0  0999 V2000
    7.2025  -13.1123   19.4623 C   0  0  0  0  0  0  0  0  0  0  0  0
    8.6138  -13.3506   18.9701 C   0  0  1  0  0  0  0  0  0  0  0  0
    9.5613  -12.8243   19.9833 C   0  0  0  0  0  0  0  0  0  0  0  0
    8.8320  -14.7956   18.6132 C   0  0  2  0  0  0  0  0  0  0  0  0
    7.9163  -15.1118   17.5331 N   0  0  0  0  0  0  0  0  0  0  0  0
    8.6610  -15.7203   19.7290 C   0  0  0  0  0  0  0  0  0  0  0  0
    7.5190  -15.8799   20.2267 O   0  0  0  0  0  0  0  0  0  0  0  0
   10.5802  -18.2373   21.7601 C   0  0  0  0  0  0  0  0  0  0  0  0
    9.5182  -17.1796   21.5227 C   0  0  2  0  0  0  0  0  0  0  0  0
    9.7225  -16.4649   20.2981 N   0  0  0  0  0  0  0  0  0  0  0  0
    9.4543  -16.3176   22.7100 C   0  0  0  0  0  0  0  0  0  0  0  0
   10.3044  -15.4010   22.8362 O   0  0  0  0  0  0  0  0  0  0  0  0
    8.4631  -16.4984   23.7042 N   0  0  0  0  0  0  0  0  0  0  0  0
    8.3236  -15.6449   24.8665 C   0  0  1  0  0  0  0  0  0  0  0  0
    7.4238  -14.4977   24.5007 C   0  0  0  0  0  0  0  0  0  0  0  0
    7.2616  -13.5014   25.5821 C   0  0  0  0  0  0  0  0  0  0  0  0
    6.0076  -13.2030   26.0493 C   0  0  0  0  0  0  0  0  0  0  0  0
    5.7916  -12.2762   27.0668 C   0  0  0  0  0  0  0  0  0  0  0  0
    6.8986  -11.6417   27.6155 C   0  0  0  0  0  0  0  0  0  0  0  0
    8.1496  -11.9519   27.1359 C   0  0  0  0  0  0  0  0  0  0  0  0
    8.3470  -12.8690   26.1309 C   0  0  0  0  0  0  0  0  0  0  0  0
    7.8545  -16.4419   26.0118 C   0  0  0  0  0  0  0  0  0  0  0  0
    6.7361  -17.2540   25.9623 O   0  0  0  0  0  0  0  0  0  0  0  0
    8.4737  -16.4148   27.1202 O   0  0  0  0  0  0  0  0  0  0  0  0
  2  1  1  1
  2  4  1  0
  2  3  1  0
  4  6  1  0
  4  5  1  6
  6  7  2  0
  9  8  1  1
  9 11  1  0
 10  6  1  0
 10  9  1  0
 11 12  2  0
 13 14  1  0
 13 11  1  0
 14 22  1  0
 14 15  1  6
 16 21  2  0
 16 15  1  0
 17 16  1  0
 18 19  1  0
 18 17  2  0
 19 20  2  0
 20 21  1  0
 22 24  2  0
 22 23  1  0
M  END
$$$$
