VAF.pdb
     RDKit          3D

 24 24  0  0  1  0  0  0  0  0999 V2000
    8.6139  -12.9129   17.9531 C   0  0  0  0  0  0  0  0  0  0  0  0
    8.6731  -13.5436   19.3277 C   0  0  1  0  0  0  0  0  0  0  0  0
    7.9801  -12.6485   20.2869 C   0  0  0  0  0  0  0  0  0  0  0  0
    8.1453  -14.9521   19.3065 C   0  0  2  0  0  0  0  0  0  0  0  0
    6.8614  -14.9170   18.6314 N   0  0  0  0  0  0  0  0  0  0  0  0
    8.0244  -15.5662   20.6246 C   0  0  0  0  0  0  0  0  0  0  0  0
    7.2953  -15.0240   21.4917 O   0  0  0  0  0  0  0  0  0  0  0  0
    8.7889  -18.7734   22.3919 C   0  0  0  0  0  0  0  0  0  0  0  0
    8.5406  -17.2780   22.3231 C   0  0  2  0  0  0  0  0  0  0  0  0
    8.6903  -16.7593   20.9961 N   0  0  0  0  0  0  0  0  0  0  0  0
    9.4006  -16.6230   23.3173 C   0  0  0  0  0  0  0  0  0  0  0  0
   10.5401  -16.2296   22.9633 O   0  0  0  0  0  0  0  0  0  0  0  0
    8.9737  -16.4288   24.6528 N   0  0  0  0  0  0  0  0  0  0  0  0
    9.8045  -15.8463   25.6869 C   0  0  1  0  0  0  0  0  0  0  0  0
    9.7426  -14.3505   25.5513 C   0  0  0  0  0  0  0  0  0  0  0  0
    8.4767  -13.7613   26.0401 C   0  0  0  0  0  0  0  0  0  0  0  0
    7.3550  -13.8111   25.2533 C   0  0  0  0  0  0  0  0  0  0  0  0
    6.1344  -13.2765   25.6596 C   0  0  0  0  0  0  0  0  0  0  0  0
    6.0708  -12.6751   26.9100 C   0  0  0  0  0  0  0  0  0  0  0  0
    7.2047  -12.6332   27.6872 C   0  0  0  0  0  0  0  0  0  0  0  0
    8.4024  -13.1654   27.2724 C   0  0  0  0  0  0  0  0  0  0  0  0
    9.3838  -16.3534   27.0034 C   0  0  0  0  0  0  0  0  0  0  0  0
    8.2775  -17.1631   27.1850 O   0  0  0  0  0  0  0  0  0  0  0  0
   10.0367  -16.0599   28.0523 O   0  0  0  0  0  0  0  0  0  0  0  0
  2  1  1  6
  2  4  1  0
  2  3  1  0
  4  6  1  0
  4  5  1  1
  6  7  2  0
  9  8  1  6
  9 11  1  0
 10  6  1  0
 10  9  1  0
 11 12  2  0
 13 14  1  0
 13 11  1  0
 14 22  1  0
 14 15  1  1
 16 21  2  0
 16 15  1  0
 17 16  1  0
 18 19  1  0
 18 17  2  0
 19 20  2  0
 20 21  1  0
 22 24  2  0
 22 23  1  0
M  END
$$$$
