VAF.pdb
     RDKit          3D

 24 24  0  0  1  0  0  0  0  0999 V2000
    8.3644  -12.2268   19.1330 C   0  0  0  0  0  0  0  0  0  0  0  0
    8.4957  -13.1439   20.3298 C   0  0  1  0  0  0  0  0  0  0  0  0
    7.7369  -12.5546   21.4605 C   0  0  0  0  0  0  0  0  0  0  0  0
    8.0956  -14.5526   19.9859 C   0  0  2  0  0  0  0  0  0  0  0  0
    6.7590  -14.4920   19.4243 N   0  0  0  0  0  0  0  0  0  0  0  0
    8.1467  -15.4811   21.1104 C   0  0  0  0  0  0  0  0  0  0  0  0
    7.1133  -15.6724   21.7982 O   0  0  0  0  0  0  0  0  0  0  0  0
   10.1483  -18.3276   22.3588 C   0  0  0  0  0  0  0  0  0  0  0  0
    9.2652  -17.1138   22.5817 C   0  0  2  0  0  0  0  0  0  0  0  0
    9.3111  -16.1952   21.4834 N   0  0  0  0  0  0  0  0  0  0  0  0
    9.6254  -16.5142   23.8731 C   0  0  0  0  0  0  0  0  0  0  0  0
   10.5817  -15.7003   23.9143 O   0  0  0  0  0  0  0  0  0  0  0  0
    8.9223  -16.8329   25.0595 N   0  0  0  0  0  0  0  0  0  0  0  0
    9.2056  -16.2350   26.3484 C   0  0  1  0  0  0  0  0  0  0  0  0
    7.9116  -15.7373   26.9292 C   0  0  0  0  0  0  0  0  0  0  0  0
    7.5137  -14.4007   26.4355 C   0  0  0  0  0  0  0  0  0  0  0  0
    8.3942  -13.3535   26.5235 C   0  0  0  0  0  0  0  0  0  0  0  0
    8.0783  -12.0734   26.0736 C   0  0  0  0  0  0  0  0  0  0  0  0
    6.8212  -11.8699   25.5190 C   0  0  0  0  0  0  0  0  0  0  0  0
    5.9494  -12.9304   25.4381 C   0  0  0  0  0  0  0  0  0  0  0  0
    6.2757  -14.1884   25.8864 C   0  0  0  0  0  0  0  0  0  0  0  0
    9.9179  -17.2042   27.1972 C   0  0  0  0  0  0  0  0  0  0  0  0
   10.0353  -18.5454   26.8811 O   0  0  0  0  0  0  0  0  0  0  0  0
   10.4673  -16.8381   28.2821 O   0  0  0  0  0  0  0  0  0  0  0  0
  2  1  1  6
  2  4  1  0
  2  3  1  0
  4  6  1  0
  4  5  1  1
  6  7  2  0
  9  8  1  6
  9 11  1  0
 10  6  1  0
 10  9  1  0
 11 12  2  0
 13 14  1  0
 13 11  1  0
 14 22  1  0
 14 15  1  1
 16 21  2  0
 16 15  1  0
 17 16  1  0
 18 19  1  0
 18 17  2  0
 19 20  2  0
 20 21  1  0
 22 24  2  0
 22 23  1  0
M  END
$$$$
