VAF.pdb
     RDKit          3D

 24 24  0  0  1  0  0  0  0  0999 V2000
    3.0775  -19.6354   21.0301 C   0  0  0  0  0  0  0  0  0  0  0  0
    4.1860  -18.6593   20.6998 C   0  0  1  0  0  0  0  0  0  0  0  0
    3.5735  -17.3669   20.3047 C   0  0  0  0  0  0  0  0  0  0  0  0
    5.1758  -18.5536   21.8277 C   0  0  2  0  0  0  0  0  0  0  0  0
    4.4327  -18.1708   23.0137 N   0  0  0  0  0  0  0  0  0  0  0  0
    6.2722  -17.6239   21.5770 C   0  0  0  0  0  0  0  0  0  0  0  0
    7.2582  -18.0036   20.8979 O   0  0  0  0  0  0  0  0  0  0  0  0
    7.1674  -14.0659   21.5185 C   0  0  0  0  0  0  0  0  0  0  0  0
    7.4784  -15.4987   21.9094 C   0  0  2  0  0  0  0  0  0  0  0  0
    6.2960  -16.2933   22.0606 N   0  0  0  0  0  0  0  0  0  0  0  0
    8.3341  -15.4743   23.1027 C   0  0  0  0  0  0  0  0  0  0  0  0
    9.4435  -14.8880   23.0374 O   0  0  0  0  0  0  0  0  0  0  0  0
    7.9362  -16.0925   24.3123 N   0  0  0  0  0  0  0  0  0  0  0  0
    8.7201  -16.0574   25.5302 C   0  0  1  0  0  0  0  0  0  0  0  0
    7.8150  -15.6497   26.6590 C   0  0  0  0  0  0  0  0  0  0  0  0
    7.4144  -14.2263   26.6152 C   0  0  0  0  0  0  0  0  0  0  0  0
    6.1320  -13.8914   26.2646 C   0  0  0  0  0  0  0  0  0  0  0  0
    5.6950  -12.5697   26.2081 C   0  0  0  0  0  0  0  0  0  0  0  0
    6.6057  -11.5689   26.5215 C   0  0  0  0  0  0  0  0  0  0  0  0
    7.8882  -11.9212   26.8711 C   0  0  0  0  0  0  0  0  0  0  0  0
    8.3047  -13.2304   26.9225 C   0  0  0  0  0  0  0  0  0  0  0  0
    9.3872  -17.3549   25.7265 C   0  0  0  0  0  0  0  0  0  0  0  0
   10.3515  -17.5722   26.6937 O   0  0  0  0  0  0  0  0  0  0  0  0
    9.0967  -18.3526   24.9965 O   0  0  0  0  0  0  0  0  0  0  0  0
  2  1  1  1
  2  4  1  0
  2  3  1  0
  4  6  1  0
  4  5  1  1
  6  7  2  0
  9  8  1  1
  9 11  1  0
 10  6  1  0
 10  9  1  0
 11 12  2  0
 13 14  1  0
 13 11  1  0
 14 22  1  0
 14 15  1  1
 16 21  2  0
 16 15  1  0
 17 16  1  0
 18 19  1  0
 18 17  2  0
 19 20  2  0
 20 21  1  0
 22 24  2  0
 22 23  1  0
M  END
$$$$
