VAF.pdb
     RDKit          3D

 24 24  0  0  1  0  0  0  0  0999 V2000
    8.5644  -12.6541   18.3862 C   0  0  0  0  0  0  0  0  0  0  0  0
    8.6298  -13.4463   19.6741 C   0  0  1  0  0  0  0  0  0  0  0  0
    7.9964  -12.6467   20.7517 C   0  0  0  0  0  0  0  0  0  0  0  0
    8.0445  -14.8212   19.5009 C   0  0  2  0  0  0  0  0  0  0  0  0
    6.7233  -14.6537   18.9251 N   0  0  0  0  0  0  0  0  0  0  0  0
    7.9816  -15.6045   20.7305 C   0  0  0  0  0  0  0  0  0  0  0  0
    7.0412  -15.4064   21.5391 O   0  0  0  0  0  0  0  0  0  0  0  0
    9.3709  -18.6450   22.3490 C   0  0  0  0  0  0  0  0  0  0  0  0
    8.8876  -17.2068   22.3716 C   0  0  2  0  0  0  0  0  0  0  0  0
    8.9328  -16.5943   21.0774 N   0  0  0  0  0  0  0  0  0  0  0  0
    9.6479  -16.4824   23.3984 C   0  0  0  0  0  0  0  0  0  0  0  0
   10.5996  -15.7461   23.0369 O   0  0  0  0  0  0  0  0  0  0  0  0
    9.3313  -16.5972   24.7733 N   0  0  0  0  0  0  0  0  0  0  0  0
   10.0157  -15.8668   25.8206 C   0  0  1  0  0  0  0  0  0  0  0  0
    9.8888  -14.3979   25.5280 C   0  0  0  0  0  0  0  0  0  0  0  0
    8.5448  -13.8491   25.8127 C   0  0  0  0  0  0  0  0  0  0  0  0
    8.3209  -13.1719   26.9836 C   0  0  0  0  0  0  0  0  0  0  0  0
    7.0785  -12.6304   27.3063 C   0  0  0  0  0  0  0  0  0  0  0  0
    6.0414  -12.7926   26.3968 C   0  0  0  0  0  0  0  0  0  0  0  0
    6.2820  -13.4745   25.2270 C   0  0  0  0  0  0  0  0  0  0  0  0
    7.5139  -14.0033   24.9224 C   0  0  0  0  0  0  0  0  0  0  0  0
    9.4858  -16.2714   27.1331 C   0  0  0  0  0  0  0  0  0  0  0  0
   10.0941  -15.9408   28.3303 O   0  0  0  0  0  0  0  0  0  0  0  0
    8.4213  -16.9584   27.2211 O   0  0  0  0  0  0  0  0  0  0  0  0
  2  1  1  6
  2  4  1  0
  2  3  1  0
  4  6  1  0
  4  5  1  1
  6  7  2  0
  9  8  1  6
  9 11  1  0
 10  6  1  0
 10  9  1  0
 11 12  2  0
 13 14  1  0
 13 11  1  0
 14 22  1  0
 14 15  1  6
 16 21  2  0
 16 15  1  0
 17 16  1  0
 18 19  1  0
 18 17  2  0
 19 20  2  0
 20 21  1  0
 22 24  2  0
 22 23  1  0
M  END
$$$$
