VAF.pdb
     RDKit          3D

 24 24  0  0  1  0  0  0  0  0999 V2000
    8.4404  -12.2237   18.7979 C   0  0  0  0  0  0  0  0  0  0  0  0
    8.3159  -13.1110   20.0176 C   0  0  1  0  0  0  0  0  0  0  0  0
    7.1653  -12.6400   20.8274 C   0  0  0  0  0  0  0  0  0  0  0  0
    8.2459  -14.5635   19.6325 C   0  0  2  0  0  0  0  0  0  0  0  0
    7.1353  -14.7077   18.7099 N   0  0  0  0  0  0  0  0  0  0  0  0
    8.1067  -15.4765   20.7623 C   0  0  0  0  0  0  0  0  0  0  0  0
    6.9583  -15.7840   21.1673 O   0  0  0  0  0  0  0  0  0  0  0  0
    9.7346  -18.2679   22.3488 C   0  0  0  0  0  0  0  0  0  0  0  0
    8.9801  -16.9632   22.5254 C   0  0  2  0  0  0  0  0  0  0  0  0
    9.2066  -16.0500   21.4451 N   0  0  0  0  0  0  0  0  0  0  0  0
    9.3131  -16.4147   23.8465 C   0  0  0  0  0  0  0  0  0  0  0  0
   10.2767  -15.6141   23.9417 O   0  0  0  0  0  0  0  0  0  0  0  0
    8.5760  -16.7677   25.0022 N   0  0  0  0  0  0  0  0  0  0  0  0
    8.9608  -16.3935   26.3479 C   0  0  1  0  0  0  0  0  0  0  0  0
    7.7417  -15.8729   27.0567 C   0  0  0  0  0  0  0  0  0  0  0  0
    7.4300  -14.4609   26.7441 C   0  0  0  0  0  0  0  0  0  0  0  0
    6.2850  -14.1537   26.0553 C   0  0  0  0  0  0  0  0  0  0  0  0
    5.9364  -12.8437   25.7340 C   0  0  0  0  0  0  0  0  0  0  0  0
    6.7920  -11.8254   26.1343 C   0  0  0  0  0  0  0  0  0  0  0  0
    7.9365  -12.1500   26.8243 C   0  0  0  0  0  0  0  0  0  0  0  0
    8.2671  -13.4479   27.1341 C   0  0  0  0  0  0  0  0  0  0  0  0
    9.6070  -17.5365   27.0134 C   0  0  0  0  0  0  0  0  0  0  0  0
   10.5096  -17.3971   28.0519 O   0  0  0  0  0  0  0  0  0  0  0  0
    9.3554  -18.7273   26.6511 O   0  0  0  0  0  0  0  0  0  0  0  0
  2  1  1  6
  2  4  1  0
  2  3  1  0
  4  6  1  0
  4  5  1  6
  6  7  2  0
  9  8  1  6
  9 11  1  0
 10  6  1  0
 10  9  1  0
 11 12  2  0
 13 14  1  0
 13 11  1  0
 14 22  1  0
 14 15  1  1
 16 21  2  0
 16 15  1  0
 17 16  1  0
 18 19  1  0
 18 17  2  0
 19 20  2  0
 20 21  1  0
 22 24  2  0
 22 23  1  0
M  END
$$$$
