VAF.pdb
     RDKit          3D

 24 24  0  0  1  0  0  0  0  0999 V2000
    6.7430  -13.7433   18.6832 C   0  0  0  0  0  0  0  0  0  0  0  0
    8.1679  -13.2615   18.8504 C   0  0  1  0  0  0  0  0  0  0  0  0
    8.1564  -12.0390   19.6911 C   0  0  0  0  0  0  0  0  0  0  0  0
    9.0588  -14.3576   19.3680 C   0  0  2  0  0  0  0  0  0  0  0  0
    9.1101  -15.3852   18.3448 N   0  0  0  0  0  0  0  0  0  0  0  0
    8.6376  -14.9174   20.6480 C   0  0  0  0  0  0  0  0  0  0  0  0
    8.6381  -14.1865   21.6694 O   0  0  0  0  0  0  0  0  0  0  0  0
    7.3482  -18.1707   22.0819 C   0  0  0  0  0  0  0  0  0  0  0  0
    7.7996  -16.7221   22.1048 C   0  0  2  0  0  0  0  0  0  0  0  0
    8.2196  -16.2598   20.8156 N   0  0  0  0  0  0  0  0  0  0  0  0
    8.8207  -16.5752   23.1501 C   0  0  0  0  0  0  0  0  0  0  0  0
   10.0165  -16.8365   22.8661 O   0  0  0  0  0  0  0  0  0  0  0  0
    8.4861  -16.1491   24.4578 N   0  0  0  0  0  0  0  0  0  0  0  0
    9.4609  -15.9270   25.5063 C   0  0  1  0  0  0  0  0  0  0  0  0
    9.7097  -14.4482   25.6098 C   0  0  0  0  0  0  0  0  0  0  0  0
    8.4929  -13.6599   25.9040 C   0  0  0  0  0  0  0  0  0  0  0  0
    7.5829  -13.4169   24.9078 C   0  0  0  0  0  0  0  0  0  0  0  0
    6.4180  -12.6840   25.1241 C   0  0  0  0  0  0  0  0  0  0  0  0
    6.1874  -12.1897   26.4014 C   0  0  0  0  0  0  0  0  0  0  0  0
    7.1098  -12.4421   27.3897 C   0  0  0  0  0  0  0  0  0  0  0  0
    8.2551  -13.1672   27.1609 C   0  0  0  0  0  0  0  0  0  0  0  0
    8.9952  -16.5522   26.7551 C   0  0  0  0  0  0  0  0  0  0  0  0
    9.7766  -16.6464   27.8922 O   0  0  0  0  0  0  0  0  0  0  0  0
    7.8272  -17.0431   26.8404 O   0  0  0  0  0  0  0  0  0  0  0  0
  2  1  1  1
  2  4  1  0
  2  3  1  0
  4  6  1  0
  4  5  1  6
  6  7  2  0
  9  8  1  6
  9 11  1  0
 10  6  1  0
 10  9  1  0
 11 12  2  0
 13 14  1  0
 13 11  1  0
 14 22  1  0
 14 15  1  1
 16 21  2  0
 16 15  1  0
 17 16  1  0
 18 19  1  0
 18 17  2  0
 19 20  2  0
 20 21  1  0
 22 24  2  0
 22 23  1  0
M  END
$$$$
