VAF.pdb
     RDKit          3D

 24 24  0  0  1  0  0  0  0  0999 V2000
    3.0845  -19.5776   21.9578 C   0  0  0  0  0  0  0  0  0  0  0  0
    4.0963  -18.5987   21.4023 C   0  0  1  0  0  0  0  0  0  0  0  0
    3.4243  -17.2917   21.1979 C   0  0  0  0  0  0  0  0  0  0  0  0
    5.3250  -18.5319   22.2677 C   0  0  2  0  0  0  0  0  0  0  0  0
    4.8857  -18.1888   23.6074 N   0  0  0  0  0  0  0  0  0  0  0  0
    6.3395  -17.5952   21.7960 C   0  0  0  0  0  0  0  0  0  0  0  0
    7.3888  -18.0390   21.2674 O   0  0  0  0  0  0  0  0  0  0  0  0
    6.8604  -13.9174   21.2364 C   0  0  0  0  0  0  0  0  0  0  0  0
    7.3026  -15.3433   21.5079 C   0  0  2  0  0  0  0  0  0  0  0  0
    6.2138  -16.1886   21.8983 N   0  0  0  0  0  0  0  0  0  0  0  0
    8.4036  -15.3062   22.4792 C   0  0  0  0  0  0  0  0  0  0  0  0
    9.4972  -14.7943   22.1320 O   0  0  0  0  0  0  0  0  0  0  0  0
    8.2567  -15.8310   23.7856 N   0  0  0  0  0  0  0  0  0  0  0  0
    9.2989  -15.7908   24.7911 C   0  0  1  0  0  0  0  0  0  0  0  0
    9.6236  -14.3503   25.0728 C   0  0  0  0  0  0  0  0  0  0  0  0
    8.5138  -13.6035   25.7046 C   0  0  0  0  0  0  0  0  0  0  0  0
    8.4070  -13.5712   27.0711 C   0  0  0  0  0  0  0  0  0  0  0  0
    7.3864  -12.8833   27.7236 C   0  0  0  0  0  0  0  0  0  0  0  0
    6.4524  -12.2119   26.9450 C   0  0  0  0  0  0  0  0  0  0  0  0
    6.5732  -12.2539   25.5758 C   0  0  0  0  0  0  0  0  0  0  0  0
    7.5864  -12.9373   24.9461 C   0  0  0  0  0  0  0  0  0  0  0  0
    8.8754  -16.5590   25.9733 C   0  0  0  0  0  0  0  0  0  0  0  0
    7.6304  -17.1504   26.0863 O   0  0  0  0  0  0  0  0  0  0  0  0
    9.6564  -16.7132   26.9627 O   0  0  0  0  0  0  0  0  0  0  0  0
  2  1  1  1
  2  4  1  0
  2  3  1  0
  4  6  1  0
  4  5  1  1
  6  7  2  0
  9  8  1  1
  9 11  1  0
 10  6  1  0
 10  9  1  0
 11 12  2  0
 13 14  1  0
 13 11  1  0
 14 22  1  0
 14 15  1  1
 16 21  2  0
 16 15  1  0
 17 16  1  0
 18 19  1  0
 18 17  2  0
 19 20  2  0
 20 21  1  0
 22 24  2  0
 22 23  1  0
M  END
$$$$
