VAF.pdb
     RDKit          3D

 24 24  0  0  1  0  0  0  0  0999 V2000
    6.9055  -12.6575   19.8987 C   0  0  0  0  0  0  0  0  0  0  0  0
    8.3300  -12.8652   19.4315 C   0  0  1  0  0  0  0  0  0  0  0  0
    9.2473  -12.2945   20.4486 C   0  0  0  0  0  0  0  0  0  0  0  0
    8.5933  -14.3098   19.1047 C   0  0  2  0  0  0  0  0  0  0  0  0
    7.7058  -14.6697   18.0147 N   0  0  0  0  0  0  0  0  0  0  0  0
    8.4274  -15.2191   20.2338 C   0  0  0  0  0  0  0  0  0  0  0  0
    7.2784  -15.6324   20.5275 O   0  0  0  0  0  0  0  0  0  0  0  0
    9.9570  -17.9477   21.8365 C   0  0  0  0  0  0  0  0  0  0  0  0
    9.2600  -16.6225   22.0828 C   0  0  2  0  0  0  0  0  0  0  0  0
    9.5015  -15.6748   21.0360 N   0  0  0  0  0  0  0  0  0  0  0  0
    9.6417  -16.1433   23.4175 C   0  0  0  0  0  0  0  0  0  0  0  0
   10.6698  -15.4299   23.5310 O   0  0  0  0  0  0  0  0  0  0  0  0
    8.8808  -16.4669   24.5664 N   0  0  0  0  0  0  0  0  0  0  0  0
    9.2697  -16.1115   25.9159 C   0  0  1  0  0  0  0  0  0  0  0  0
    8.0348  -15.6973   26.6663 C   0  0  0  0  0  0  0  0  0  0  0  0
    7.6398  -14.2912   26.4306 C   0  0  0  0  0  0  0  0  0  0  0  0
    6.3709  -14.0049   25.9976 C   0  0  0  0  0  0  0  0  0  0  0  0
    5.9397  -12.7014   25.7608 C   0  0  0  0  0  0  0  0  0  0  0  0
    6.8421  -11.6678   25.9767 C   0  0  0  0  0  0  0  0  0  0  0  0
    8.1111  -11.9715   26.4109 C   0  0  0  0  0  0  0  0  0  0  0  0
    8.5220  -13.2632   26.6403 C   0  0  0  0  0  0  0  0  0  0  0  0
   10.0051  -17.2296   26.5293 C   0  0  0  0  0  0  0  0  0  0  0  0
   10.8930  -17.0681   27.5772 O   0  0  0  0  0  0  0  0  0  0  0  0
    9.8499  -18.4182   26.1097 O   0  0  0  0  0  0  0  0  0  0  0  0
  2  1  1  1
  2  4  1  0
  2  3  1  0
  4  6  1  0
  4  5  1  6
  6  7  2  0
  9  8  1  6
  9 11  1  0
 10  6  1  0
 10  9  1  0
 11 12  2  0
 13 14  1  0
 13 11  1  0
 14 22  1  0
 14 15  1  1
 16 21  2  0
 16 15  1  0
 17 16  1  0
 18 19  1  0
 18 17  2  0
 19 20  2  0
 20 21  1  0
 22 24  2  0
 22 23  1  0
M  END
$$$$
