VAF.pdb
     RDKit          3D

 24 24  0  0  1  0  0  0  0  0999 V2000
    7.2389  -13.0181   20.9934 C   0  0  0  0  0  0  0  0  0  0  0  0
    7.9655  -13.5820   19.7914 C   0  0  1  0  0  0  0  0  0  0  0  0
    9.3603  -13.0761   19.8040 C   0  0  0  0  0  0  0  0  0  0  0  0
    7.8535  -15.0812   19.7382 C   0  0  2  0  0  0  0  0  0  0  0  0
    6.4596  -15.3968   19.4878 N   0  0  0  0  0  0  0  0  0  0  0  0
    8.3344  -15.7605   20.9367 C   0  0  0  0  0  0  0  0  0  0  0  0
    7.5238  -16.0348   21.8560 O   0  0  0  0  0  0  0  0  0  0  0  0
   11.4406  -17.4548   22.2283 C   0  0  0  0  0  0  0  0  0  0  0  0
   10.0705  -16.8116   22.3377 C   0  0  2  0  0  0  0  0  0  0  0  0
    9.6848  -16.1382   21.1335 N   0  0  0  0  0  0  0  0  0  0  0  0
   10.0600  -15.9520   23.5284 C   0  0  0  0  0  0  0  0  0  0  0  0
   10.0429  -14.7054   23.3722 O   0  0  0  0  0  0  0  0  0  0  0  0
   10.0685  -16.4962   24.8351 N   0  0  0  0  0  0  0  0  0  0  0  0
    9.4042  -15.8828   25.9670 C   0  0  1  0  0  0  0  0  0  0  0  0
    7.9632  -15.6606   25.6013 C   0  0  0  0  0  0  0  0  0  0  0  0
    7.4913  -14.2818   25.8557 C   0  0  0  0  0  0  0  0  0  0  0  0
    8.2655  -13.4233   26.5928 C   0  0  0  0  0  0  0  0  0  0  0  0
    7.8762  -12.1133   26.8634 C   0  0  0  0  0  0  0  0  0  0  0  0
    6.6566  -11.6792   26.3601 C   0  0  0  0  0  0  0  0  0  0  0  0
    5.8917  -12.5525   25.6227 C   0  0  0  0  0  0  0  0  0  0  0  0
    6.2894  -13.8428   25.3639 C   0  0  0  0  0  0  0  0  0  0  0  0
    9.6041  -16.7122   27.1667 C   0  0  0  0  0  0  0  0  0  0  0  0
   10.0365  -18.0249   27.1167 O   0  0  0  0  0  0  0  0  0  0  0  0
    9.3815  -16.2436   28.3258 O   0  0  0  0  0  0  0  0  0  0  0  0
  2  1  1  1
  2  4  1  0
  2  3  1  0
  4  6  1  0
  4  5  1  1
  6  7  2  0
  9  8  1  6
  9 11  1  0
 10  6  1  0
 10  9  1  0
 11 12  2  0
 13 14  1  0
 13 11  1  0
 14 22  1  0
 14 15  1  6
 16 21  2  0
 16 15  1  0
 17 16  1  0
 18 19  1  0
 18 17  2  0
 19 20  2  0
 20 21  1  0
 22 24  2  0
 22 23  1  0
M  END
$$$$
