VAF.pdb
     RDKit          3D

 24 24  0  0  1  0  0  0  0  0999 V2000
    7.5509  -12.4405   19.5247 C   0  0  0  0  0  0  0  0  0  0  0  0
    7.9956  -13.2527   20.7219 C   0  0  1  0  0  0  0  0  0  0  0  0
    7.1920  -12.8372   21.8979 C   0  0  0  0  0  0  0  0  0  0  0  0
    7.9461  -14.7278   20.4310 C   0  0  2  0  0  0  0  0  0  0  0  0
    6.6009  -15.0291   19.9784 N   0  0  0  0  0  0  0  0  0  0  0  0
    8.3176  -15.5737   21.5606 C   0  0  0  0  0  0  0  0  0  0  0  0
    7.4204  -16.0128   22.3219 O   0  0  0  0  0  0  0  0  0  0  0  0
   11.2696  -17.4860   22.8620 C   0  0  0  0  0  0  0  0  0  0  0  0
    9.9282  -16.7865   22.9806 C   0  0  2  0  0  0  0  0  0  0  0  0
    9.6527  -15.9386   21.8592 N   0  0  0  0  0  0  0  0  0  0  0  0
    9.8842  -16.0930   24.2745 C   0  0  0  0  0  0  0  0  0  0  0  0
    9.7102  -14.8487   24.2862 O   0  0  0  0  0  0  0  0  0  0  0  0
   10.0325  -16.7933   25.4956 N   0  0  0  0  0  0  0  0  0  0  0  0
    9.6438  -16.2564   26.7838 C   0  0  1  0  0  0  0  0  0  0  0  0
    8.1596  -16.0193   26.7647 C   0  0  0  0  0  0  0  0  0  0  0  0
    7.7871  -14.5940   26.6289 C   0  0  0  0  0  0  0  0  0  0  0  0
    8.5430  -13.6318   27.2473 C   0  0  0  0  0  0  0  0  0  0  0  0
    8.2442  -12.2742   27.1541 C   0  0  0  0  0  0  0  0  0  0  0  0
    7.1367  -11.9013   26.4034 C   0  0  0  0  0  0  0  0  0  0  0  0
    6.3887  -12.8785   25.7894 C   0  0  0  0  0  0  0  0  0  0  0  0
    6.6962  -14.2146   25.8906 C   0  0  0  0  0  0  0  0  0  0  0  0
   10.0997  -17.1590   27.8537 C   0  0  0  0  0  0  0  0  0  0  0  0
   10.3813  -18.4971   27.6471 O   0  0  0  0  0  0  0  0  0  0  0  0
   10.2564  -16.7342   29.0402 O   0  0  0  0  0  0  0  0  0  0  0  0
  2  1  1  6
  2  4  1  0
  2  3  1  0
  4  6  1  0
  4  5  1  1
  6  7  2  0
  9  8  1  6
  9 11  1  0
 10  6  1  0
 10  9  1  0
 11 12  2  0
 13 14  1  0
 13 11  1  0
 14 22  1  0
 14 15  1  6
 16 21  2  0
 16 15  1  0
 17 16  1  0
 18 19  1  0
 18 17  2  0
 19 20  2  0
 20 21  1  0
 22 24  2  0
 22 23  1  0
M  END
$$$$
