YHV.pdb
     RDKit          3D

 30 31  0  0  1  0  0  0  0  0999 V2000
    9.1418  -12.6495   16.8595 O   0  0  0  0  0  0  0  0  0  0  0  0
    8.4369  -13.2361   17.9121 C   0  0  0  0  0  0  0  0  0  0  0  0
    7.4266  -14.1183   17.6293 C   0  0  0  0  0  0  0  0  0  0  0  0
    6.6926  -14.7309   18.6522 C   0  0  0  0  0  0  0  0  0  0  0  0
    6.9671  -14.4621   19.9762 C   0  0  0  0  0  0  0  0  0  0  0  0
    6.1980  -15.0974   21.0729 C   0  0  0  0  0  0  0  0  0  0  0  0
    6.6834  -16.4607   21.4399 C   0  0  2  0  0  0  0  0  0  0  0  0
    5.8177  -17.4279   20.7870 N   0  0  0  0  0  0  0  0  0  0  0  0
    6.8298  -16.7148   22.8726 C   0  0  0  0  0  0  0  0  0  0  0  0
    5.8301  -16.8003   23.6271 O   0  0  0  0  0  0  0  0  0  0  0  0
    7.9921  -13.5675   20.2463 C   0  0  0  0  0  0  0  0  0  0  0  0
    8.7142  -12.9651   19.2367 C   0  0  0  0  0  0  0  0  0  0  0  0
    8.1084  -16.8831   23.5149 N   0  0  0  0  0  0  0  0  0  0  0  0
    8.1965  -17.1320   24.9345 C   0  0  1  0  0  0  0  0  0  0  0  0
    8.6608  -18.5332   25.2430 C   0  0  0  0  0  0  0  0  0  0  0  0
    7.7058  -19.5588   24.8183 C   0  0  0  0  0  0  0  0  0  0  0  0
    6.5417  -19.8954   25.4638 C   0  0  0  0  0  0  0  0  0  0  0  0
    5.9636  -20.8856   24.7364 N   0  0  0  0  0  0  0  0  0  0  0  0
    6.7222  -21.1687   23.6757 C   0  0  0  0  0  0  0  0  0  0  0  0
    7.7920  -20.3457   23.7364 N   0  0  0  0  0  0  0  0  0  0  0  0
    9.0317  -16.1004   25.5502 C   0  0  0  0  0  0  0  0  0  0  0  0
   10.1600  -15.8064   25.0808 O   0  0  0  0  0  0  0  0  0  0  0  0
    7.4726  -13.1651   28.1476 C   0  0  0  0  0  0  0  0  0  0  0  0
    8.7012  -13.0799   27.2760 C   0  0  2  0  0  0  0  0  0  0  0  0
    8.4113  -12.6439   25.8766 C   0  0  0  0  0  0  0  0  0  0  0  0
    9.4436  -14.4007   27.2979 C   0  0  2  0  0  0  0  0  0  0  0  0
    8.5979  -15.3888   26.7064 N   0  0  0  0  0  0  0  0  0  0  0  0
    9.8233  -14.8028   28.6581 C   0  0  0  0  0  0  0  0  0  0  0  0
    9.3000  -15.8043   29.1931 O   0  0  0  0  0  0  0  0  0  0  0  0
   10.7618  -14.0767   29.3563 O   0  0  0  0  0  0  0  0  0  0  0  0
  2  1  1  0
  2  3  2  0
  4  3  1  0
  5  4  2  0
  6  5  1  0
  7  9  1  0
  7  6  1  0
  7  8  1  1
  9 10  2  0
 11 12  2  0
 11  5  1  0
 12  2  1  0
 13 14  1  0
 13  9  1  0
 14 15  1  6
 15 16  1  0
 16 17  2  0
 18 17  1  0
 19 18  1  0
 20 19  2  0
 20 16  1  0
 21 14  1  0
 22 21  2  0
 24 23  1  1
 24 25  1  0
 24 26  1  0
 26 27  1  1
 27 21  1  0
 28 26  1  0
 28 30  1  0
 29 28  2  0
M  END
$$$$
