YHV.pdb
     RDKit          3D

 30 31  0  0  1  0  0  0  0  0999 V2000
    8.8274  -14.0260   15.6711 O   0  0  0  0  0  0  0  0  0  0  0  0
    8.4223  -14.2422   16.9894 C   0  0  0  0  0  0  0  0  0  0  0  0
    7.9132  -13.1944   17.7118 C   0  0  0  0  0  0  0  0  0  0  0  0
    7.4943  -13.3641   19.0370 C   0  0  0  0  0  0  0  0  0  0  0  0
    7.5830  -14.5941   19.6532 C   0  0  0  0  0  0  0  0  0  0  0  0
    7.1487  -14.7923   21.0568 C   0  0  0  0  0  0  0  0  0  0  0  0
    7.1449  -16.2205   21.4918 C   0  0  2  0  0  0  0  0  0  0  0  0
    6.2558  -16.9499   20.6037 N   0  0  0  0  0  0  0  0  0  0  0  0
    6.8411  -16.4501   22.9037 C   0  0  0  0  0  0  0  0  0  0  0  0
    5.8027  -17.0599   23.2585 O   0  0  0  0  0  0  0  0  0  0  0  0
    8.1001  -15.6445   18.9093 C   0  0  0  0  0  0  0  0  0  0  0  0
    8.5123  -15.4750   17.6036 C   0  0  0  0  0  0  0  0  0  0  0  0
    7.6945  -16.0024   23.9746 N   0  0  0  0  0  0  0  0  0  0  0  0
    7.7953  -16.7532   25.2039 C   0  0  1  0  0  0  0  0  0  0  0  0
    7.9869  -18.2290   24.9602 C   0  0  0  0  0  0  0  0  0  0  0  0
    8.0623  -19.0080   26.1978 C   0  0  0  0  0  0  0  0  0  0  0  0
    7.2799  -18.8317   27.3122 C   0  0  0  0  0  0  0  0  0  0  0  0
    7.6791  -19.7585   28.2207 N   0  0  0  0  0  0  0  0  0  0  0  0
    8.6700  -20.4929   27.7114 C   0  0  0  0  0  0  0  0  0  0  0  0
    8.8974  -20.0219   26.4655 N   0  0  0  0  0  0  0  0  0  0  0  0
    8.8447  -16.1668   26.0381 C   0  0  0  0  0  0  0  0  0  0  0  0
    9.4717  -16.8568   26.8812 O   0  0  0  0  0  0  0  0  0  0  0  0
    7.3389  -13.4811   28.3812 C   0  0  0  0  0  0  0  0  0  0  0  0
    8.2208  -13.0559   27.2331 C   0  0  2  0  0  0  0  0  0  0  0  0
    7.4893  -12.9186   25.9376 C   0  0  0  0  0  0  0  0  0  0  0  0
    9.3951  -14.0048   27.1039 C   0  0  2  0  0  0  0  0  0  0  0  0
    9.1965  -14.7902   25.9269 N   0  0  0  0  0  0  0  0  0  0  0  0
    9.5397  -14.8740   28.2784 C   0  0  0  0  0  0  0  0  0  0  0  0
   10.0172  -14.4269   29.3438 O   0  0  0  0  0  0  0  0  0  0  0  0
    9.1488  -16.1925   28.2140 O   0  0  0  0  0  0  0  0  0  0  0  0
  2  1  1  0
  2  3  2  0
  4  3  1  0
  5  4  2  0
  6  5  1  0
  7  9  1  0
  7  6  1  0
  7  8  1  6
  9 10  2  0
 11 12  2  0
 11  5  1  0
 12  2  1  0
 13 14  1  0
 13  9  1  0
 14 15  1  6
 15 16  1  0
 16 17  2  0
 18 17  1  0
 19 18  1  0
 20 19  2  0
 20 16  1  0
 21 14  1  0
 22 21  2  0
 24 23  1  1
 24 25  1  0
 24 26  1  0
 26 27  1  6
 27 21  1  0
 28 26  1  0
 28 30  1  0
 29 28  2  0
M  END
$$$$
