YHV.pdb
     RDKit          3D

 30 31  0  0  1  0  0  0  0  0999 V2000
    8.2299  -12.8029   15.8470 O   0  0  0  0  0  0  0  0  0  0  0  0
    7.9374  -13.2206   17.1466 C   0  0  0  0  0  0  0  0  0  0  0  0
    8.4959  -12.5515   18.2045 C   0  0  0  0  0  0  0  0  0  0  0  0
    8.2312  -12.9346   19.5249 C   0  0  0  0  0  0  0  0  0  0  0  0
    7.3988  -13.9992   19.7975 C   0  0  0  0  0  0  0  0  0  0  0  0
    7.1101  -14.4226   21.1887 C   0  0  0  0  0  0  0  0  0  0  0  0
    8.2600  -15.0902   21.8676 C   0  0  2  0  0  0  0  0  0  0  0  0
    8.8149  -16.0629   20.9418 N   0  0  0  0  0  0  0  0  0  0  0  0
    7.9710  -15.6654   23.1807 C   0  0  0  0  0  0  0  0  0  0  0  0
    7.3808  -15.0034   24.0692 O   0  0  0  0  0  0  0  0  0  0  0  0
    6.8412  -14.6661   18.7166 C   0  0  0  0  0  0  0  0  0  0  0  0
    7.1034  -14.2867   17.4162 C   0  0  0  0  0  0  0  0  0  0  0  0
    8.3349  -17.0103   23.5475 N   0  0  0  0  0  0  0  0  0  0  0  0
    8.1061  -17.4999   24.8866 C   0  0  1  0  0  0  0  0  0  0  0  0
    8.0020  -19.0034   24.9373 C   0  0  0  0  0  0  0  0  0  0  0  0
    7.8367  -19.5197   26.2976 C   0  0  0  0  0  0  0  0  0  0  0  0
    8.8162  -20.0976   27.0668 C   0  0  0  0  0  0  0  0  0  0  0  0
    8.2386  -20.4309   28.2496 N   0  0  0  0  0  0  0  0  0  0  0  0
    6.9505  -20.0826   28.2374 C   0  0  0  0  0  0  0  0  0  0  0  0
    6.7143  -19.5226   27.0306 N   0  0  0  0  0  0  0  0  0  0  0  0
    9.1384  -16.9643   25.7747 C   0  0  0  0  0  0  0  0  0  0  0  0
   10.3497  -16.9566   25.4392 O   0  0  0  0  0  0  0  0  0  0  0  0
    9.1181  -13.6041   27.2680 C   0  0  0  0  0  0  0  0  0  0  0  0
    9.3531  -14.5548   28.4158 C   0  0  2  0  0  0  0  0  0  0  0  0
   10.2781  -14.0155   29.4579 C   0  0  0  0  0  0  0  0  0  0  0  0
    9.8362  -15.8913   27.8900 C   0  0  2  0  0  0  0  0  0  0  0  0
    8.8101  -16.4307   27.0547 N   0  0  0  0  0  0  0  0  0  0  0  0
   10.1594  -16.8305   28.9715 C   0  0  0  0  0  0  0  0  0  0  0  0
   11.1077  -16.5973   29.7521 O   0  0  0  0  0  0  0  0  0  0  0  0
    9.4173  -17.9787   29.1337 O   0  0  0  0  0  0  0  0  0  0  0  0
  2  1  1  0
  2  3  2  0
  4  3  1  0
  5  4  2  0
  6  5  1  0
  7  9  1  0
  7  6  1  0
  7  8  1  6
  9 10  2  0
 11 12  2  0
 11  5  1  0
 12  2  1  0
 13 14  1  0
 13  9  1  0
 14 15  1  6
 15 16  1  0
 16 17  2  0
 18 17  1  0
 19 18  1  0
 20 19  2  0
 20 16  1  0
 21 14  1  0
 22 21  2  0
 24 23  1  6
 24 25  1  0
 24 26  1  0
 26 27  1  6
 27 21  1  0
 28 26  1  0
 28 30  1  0
 29 28  2  0
M  END
$$$$
