YHV.pdb
     RDKit          3D

 30 31  0  0  1  0  0  0  0  0999 V2000
    8.8656  -12.0780   17.1096 O   0  0  0  0  0  0  0  0  0  0  0  0
    8.3285  -12.7322   18.2197 C   0  0  0  0  0  0  0  0  0  0  0  0
    9.0350  -12.7437   19.3943 C   0  0  0  0  0  0  0  0  0  0  0  0
    8.5361  -13.3872   20.5333 C   0  0  0  0  0  0  0  0  0  0  0  0
    7.3163  -14.0290   20.5039 C   0  0  0  0  0  0  0  0  0  0  0  0
    6.7735  -14.7196   21.6983 C   0  0  0  0  0  0  0  0  0  0  0  0
    7.1699  -16.1555   21.7978 C   0  0  2  0  0  0  0  0  0  0  0  0
    6.1511  -16.9423   21.1240 N   0  0  0  0  0  0  0  0  0  0  0  0
    7.4529  -16.6407   23.1480 C   0  0  0  0  0  0  0  0  0  0  0  0
    6.5401  -16.7759   23.9991 O   0  0  0  0  0  0  0  0  0  0  0  0
    6.6134  -14.0087   19.3084 C   0  0  0  0  0  0  0  0  0  0  0  0
    7.1070  -13.3738   18.1872 C   0  0  0  0  0  0  0  0  0  0  0  0
    8.7761  -16.9937   23.5956 N   0  0  0  0  0  0  0  0  0  0  0  0
    9.0061  -17.4324   24.9520 C   0  0  1  0  0  0  0  0  0  0  0  0
    9.6484  -18.7954   25.0126 C   0  0  0  0  0  0  0  0  0  0  0  0
    8.7926  -19.8553   24.4754 C   0  0  0  0  0  0  0  0  0  0  0  0
    7.5399  -19.6879   23.9390 C   0  0  0  0  0  0  0  0  0  0  0  0
    7.1067  -20.9196   23.5659 N   0  0  0  0  0  0  0  0  0  0  0  0
    8.0384  -21.8315   23.8502 C   0  0  0  0  0  0  0  0  0  0  0  0
    9.0719  -21.1648   24.4098 N   0  0  0  0  0  0  0  0  0  0  0  0
    9.7671  -16.4055   25.6644 C   0  0  0  0  0  0  0  0  0  0  0  0
   10.7521  -15.8345   25.1319 O   0  0  0  0  0  0  0  0  0  0  0  0
    8.3065  -14.2251   29.0261 C   0  0  0  0  0  0  0  0  0  0  0  0
    9.3373  -13.8539   27.9887 C   0  0  2  0  0  0  0  0  0  0  0  0
    8.7488  -13.2795   26.7412 C   0  0  0  0  0  0  0  0  0  0  0  0
   10.2166  -15.0493   27.6822 C   0  0  2  0  0  0  0  0  0  0  0  0
    9.4207  -16.0130   26.9899 N   0  0  0  0  0  0  0  0  0  0  0  0
   10.7930  -15.6415   28.8960 C   0  0  0  0  0  0  0  0  0  0  0  0
   11.5955  -14.9908   29.6000 O   0  0  0  0  0  0  0  0  0  0  0  0
   10.4521  -16.9223   29.2684 O   0  0  0  0  0  0  0  0  0  0  0  0
  2  1  1  0
  2  3  2  0
  4  3  1  0
  5  4  2  0
  6  5  1  0
  7  9  1  0
  7  6  1  0
  7  8  1  1
  9 10  2  0
 11 12  2  0
 11  5  1  0
 12  2  1  0
 13 14  1  0
 13  9  1  0
 14 15  1  6
 15 16  1  0
 16 17  2  0
 18 17  1  0
 19 18  1  0
 20 19  2  0
 20 16  1  0
 21 14  1  0
 22 21  2  0
 24 23  1  1
 24 25  1  0
 24 26  1  0
 26 27  1  1
 27 21  1  0
 28 26  1  0
 28 30  1  0
 29 28  2  0
M  END
$$$$
