YHV.pdb
     RDKit          3D

 30 31  0  0  1  0  0  0  0  0999 V2000
    8.6941  -12.5657   16.4715 O   0  0  0  0  0  0  0  0  0  0  0  0
    8.3528  -13.0366   17.7407 C   0  0  0  0  0  0  0  0  0  0  0  0
    7.1258  -12.7192   18.2628 C   0  0  0  0  0  0  0  0  0  0  0  0
    6.7403  -13.1690   19.5314 C   0  0  0  0  0  0  0  0  0  0  0  0
    7.5875  -13.9459   20.2924 C   0  0  0  0  0  0  0  0  0  0  0  0
    7.1989  -14.4278   21.6395 C   0  0  0  0  0  0  0  0  0  0  0  0
    7.0541  -15.9109   21.7318 C   0  0  2  0  0  0  0  0  0  0  0  0
    5.8575  -16.2840   20.9969 N   0  0  0  0  0  0  0  0  0  0  0  0
    7.0782  -16.4650   23.0849 C   0  0  0  0  0  0  0  0  0  0  0  0
    6.1108  -16.3145   23.8706 O   0  0  0  0  0  0  0  0  0  0  0  0
    8.8255  -14.2587   19.7505 C   0  0  0  0  0  0  0  0  0  0  0  0
    9.2033  -13.8144   18.5000 C   0  0  0  0  0  0  0  0  0  0  0  0
    8.1931  -17.2119   23.6091 N   0  0  0  0  0  0  0  0  0  0  0  0
    8.2658  -17.5466   25.0119 C   0  0  1  0  0  0  0  0  0  0  0  0
    8.8077  -18.9348   25.2427 C   0  0  0  0  0  0  0  0  0  0  0  0
    8.8315  -19.3115   26.6575 C   0  0  0  0  0  0  0  0  0  0  0  0
    8.1112  -18.7170   27.6639 C   0  0  0  0  0  0  0  0  0  0  0  0
    8.4286  -19.3711   28.8108 N   0  0  0  0  0  0  0  0  0  0  0  0
    9.3102  -20.3382   28.5501 C   0  0  0  0  0  0  0  0  0  0  0  0
    9.5509  -20.2922   27.2213 N   0  0  0  0  0  0  0  0  0  0  0  0
    9.0234  -16.5093   25.7126 C   0  0  0  0  0  0  0  0  0  0  0  0
    9.5933  -15.5803   25.0864 O   0  0  0  0  0  0  0  0  0  0  0  0
    7.9534  -14.0640   28.3593 C   0  0  0  0  0  0  0  0  0  0  0  0
    9.2081  -14.1656   27.5274 C   0  0  2  0  0  0  0  0  0  0  0  0
    8.9744  -13.9552   26.0667 C   0  0  0  0  0  0  0  0  0  0  0  0
    9.8965  -15.4899   27.7891 C   0  0  2  0  0  0  0  0  0  0  0  0
    9.1445  -16.5122   27.1326 N   0  0  0  0  0  0  0  0  0  0  0  0
   10.0115  -15.7830   29.2233 C   0  0  0  0  0  0  0  0  0  0  0  0
    9.2719  -16.6378   29.7575 O   0  0  0  0  0  0  0  0  0  0  0  0
   10.9384  -15.1159   29.9923 O   0  0  0  0  0  0  0  0  0  0  0  0
  2  1  1  0
  2  3  2  0
  4  3  1  0
  5  4  2  0
  6  5  1  0
  7  9  1  0
  7  6  1  0
  7  8  1  1
  9 10  2  0
 11 12  2  0
 11  5  1  0
 12  2  1  0
 13 14  1  0
 13  9  1  0
 14 15  1  6
 15 16  1  0
 16 17  2  0
 18 17  1  0
 19 18  1  0
 20 19  2  0
 20 16  1  0
 21 14  1  0
 22 21  2  0
 24 23  1  1
 24 25  1  0
 24 26  1  0
 26 27  1  6
 27 21  1  0
 28 26  1  0
 28 30  1  0
 29 28  2  0
M  END
$$$$
