YHV.pdb
     RDKit          3D

 30 31  0  0  1  0  0  0  0  0999 V2000
    8.7781  -13.3264   15.5673 O   0  0  0  0  0  0  0  0  0  0  0  0
    8.3420  -13.6519   16.8529 C   0  0  0  0  0  0  0  0  0  0  0  0
    8.4971  -14.9365   17.3052 C   0  0  0  0  0  0  0  0  0  0  0  0
    8.0749  -15.3089   18.5871 C   0  0  0  0  0  0  0  0  0  0  0  0
    7.4896  -14.3902   19.4320 C   0  0  0  0  0  0  0  0  0  0  0  0
    7.0321  -14.7666   20.7911 C   0  0  0  0  0  0  0  0  0  0  0  0
    7.0112  -16.2394   21.0349 C   0  0  2  0  0  0  0  0  0  0  0  0
    5.9512  -16.8067   20.2189 N   0  0  0  0  0  0  0  0  0  0  0  0
    6.9204  -16.6465   22.4365 C   0  0  0  0  0  0  0  0  0  0  0  0
    5.8614  -16.4965   23.0938 O   0  0  0  0  0  0  0  0  0  0  0  0
    7.3397  -13.0945   18.9602 C   0  0  0  0  0  0  0  0  0  0  0  0
    7.7565  -12.7297   17.6965 C   0  0  0  0  0  0  0  0  0  0  0  0
    8.0187  -17.2397   23.1559 N   0  0  0  0  0  0  0  0  0  0  0  0
    8.0000  -17.3237   24.5973 C   0  0  1  0  0  0  0  0  0  0  0  0
    8.7827  -18.5051   25.1129 C   0  0  0  0  0  0  0  0  0  0  0  0
    8.7276  -18.6356   26.5703 C   0  0  0  0  0  0  0  0  0  0  0  0
    7.9759  -17.8649   27.4225 C   0  0  0  0  0  0  0  0  0  0  0  0
    8.2194  -18.3199   28.6785 N   0  0  0  0  0  0  0  0  0  0  0  0
    9.0859  -19.3336   28.6318 C   0  0  0  0  0  0  0  0  0  0  0  0
    9.3919  -19.5191   27.3288 N   0  0  0  0  0  0  0  0  0  0  0  0
    8.4482  -16.0481   25.1568 C   0  0  0  0  0  0  0  0  0  0  0  0
    9.5381  -15.5281   24.8080 O   0  0  0  0  0  0  0  0  0  0  0  0
    7.2532  -12.2304   25.4085 C   0  0  0  0  0  0  0  0  0  0  0  0
    7.0598  -13.1004   26.6260 C   0  0  2  0  0  0  0  0  0  0  0  0
    6.9551  -12.3282   27.9009 C   0  0  0  0  0  0  0  0  0  0  0  0
    8.1614  -14.1382   26.7005 C   0  0  2  0  0  0  0  0  0  0  0  0
    7.6661  -15.3458   26.1191 N   0  0  0  0  0  0  0  0  0  0  0  0
    8.6047  -14.3807   28.0792 C   0  0  0  0  0  0  0  0  0  0  0  0
    8.3340  -15.4582   28.6525 O   0  0  0  0  0  0  0  0  0  0  0  0
    9.3243  -13.4192   28.7524 O   0  0  0  0  0  0  0  0  0  0  0  0
  2  1  1  0
  2  3  2  0
  4  3  1  0
  5  4  2  0
  6  5  1  0
  7  9  1  0
  7  6  1  0
  7  8  1  6
  9 10  2  0
 11 12  2  0
 11  5  1  0
 12  2  1  0
 13 14  1  0
 13  9  1  0
 14 15  1  6
 15 16  1  0
 16 17  2  0
 18 17  1  0
 19 18  1  0
 20 19  2  0
 20 16  1  0
 21 14  1  0
 22 21  2  0
 24 23  1  6
 24 25  1  0
 24 26  1  0
 26 27  1  1
 27 21  1  0
 28 26  1  0
 28 30  1  0
 29 28  2  0
M  END
$$$$
