YHV.pdb
     RDKit          3D

 30 31  0  0  1  0  0  0  0  0999 V2000
    9.2458  -12.1815   17.2861 O   0  0  0  0  0  0  0  0  0  0  0  0
    8.5974  -12.7569   18.3804 C   0  0  0  0  0  0  0  0  0  0  0  0
    9.3418  -13.3997   19.3352 C   0  0  0  0  0  0  0  0  0  0  0  0
    8.7349  -13.9914   20.4496 C   0  0  0  0  0  0  0  0  0  0  0  0
    7.3674  -13.9435   20.6171 C   0  0  0  0  0  0  0  0  0  0  0  0
    6.7063  -14.5679   21.7880 C   0  0  0  0  0  0  0  0  0  0  0  0
    6.9289  -16.0405   21.8929 C   0  0  2  0  0  0  0  0  0  0  0  0
    6.1331  -16.6818   20.8602 N   0  0  0  0  0  0  0  0  0  0  0  0
    6.7048  -16.6206   23.2165 C   0  0  0  0  0  0  0  0  0  0  0  0
    5.5488  -16.7383   23.6917 O   0  0  0  0  0  0  0  0  0  0  0  0
    6.6279  -13.2895   19.6427 C   0  0  0  0  0  0  0  0  0  0  0  0
    7.2280  -12.7070   18.5453 C   0  0  0  0  0  0  0  0  0  0  0  0
    7.7735  -17.0923   24.0597 N   0  0  0  0  0  0  0  0  0  0  0  0
    7.6464  -17.0700   25.4979 C   0  0  1  0  0  0  0  0  0  0  0  0
    7.2443  -18.4108   26.0588 C   0  0  0  0  0  0  0  0  0  0  0  0
    8.0378  -19.5173   25.5200 C   0  0  0  0  0  0  0  0  0  0  0  0
    9.0153  -19.4183   24.5610 C   0  0  0  0  0  0  0  0  0  0  0  0
    9.4914  -20.6735   24.3572 N   0  0  0  0  0  0  0  0  0  0  0  0
    8.8488  -21.5346   25.1485 C   0  0  0  0  0  0  0  0  0  0  0  0
    7.9562  -20.8115   25.8599 N   0  0  0  0  0  0  0  0  0  0  0  0
    8.8845  -16.5508   26.0796 C   0  0  0  0  0  0  0  0  0  0  0  0
    9.9830  -16.6528   25.4771 O   0  0  0  0  0  0  0  0  0  0  0  0
    8.9514  -13.7126   29.2065 C   0  0  0  0  0  0  0  0  0  0  0  0
   10.0261  -13.9882   28.1839 C   0  0  2  0  0  0  0  0  0  0  0  0
    9.8453  -13.2305   26.9089 C   0  0  0  0  0  0  0  0  0  0  0  0
   10.1273  -15.4783   27.9286 C   0  0  2  0  0  0  0  0  0  0  0  0
    8.8929  -15.9092   27.3521 N   0  0  0  0  0  0  0  0  0  0  0  0
   10.4086  -16.2350   29.1551 C   0  0  0  0  0  0  0  0  0  0  0  0
    9.5304  -16.9624   29.6675 O   0  0  0  0  0  0  0  0  0  0  0  0
   11.6465  -16.1480   29.7515 O   0  0  0  0  0  0  0  0  0  0  0  0
  2  1  1  0
  2  3  2  0
  4  3  1  0
  5  4  2  0
  6  5  1  0
  7  9  1  0
  7  6  1  0
  7  8  1  6
  9 10  2  0
 11 12  2  0
 11  5  1  0
 12  2  1  0
 13 14  1  0
 13  9  1  0
 14 15  1  1
 15 16  1  0
 16 17  2  0
 18 17  1  0
 19 18  1  0
 20 19  2  0
 20 16  1  0
 21 14  1  0
 22 21  2  0
 24 23  1  1
 24 25  1  0
 24 26  1  0
 26 27  1  1
 27 21  1  0
 28 26  1  0
 28 30  1  0
 29 28  2  0
M  END
$$$$
