YHV.pdb
     RDKit          3D

 30 31  0  0  1  0  0  0  0  0999 V2000
    6.9058  -14.2852   14.0772 O   0  0  0  0  0  0  0  0  0  0  0  0
    7.1615  -14.5530   15.4233 C   0  0  0  0  0  0  0  0  0  0  0  0
    7.0139  -13.5480   16.3436 C   0  0  0  0  0  0  0  0  0  0  0  0
    7.2591  -13.7701   17.7041 C   0  0  0  0  0  0  0  0  0  0  0  0
    7.6571  -15.0101   18.1563 C   0  0  0  0  0  0  0  0  0  0  0  0
    7.9257  -15.2634   19.5921 C   0  0  0  0  0  0  0  0  0  0  0  0
    8.9675  -14.3691   20.1785 C   0  0  2  0  0  0  0  0  0  0  0  0
   10.2271  -14.6666   19.5181 N   0  0  0  0  0  0  0  0  0  0  0  0
    9.0770  -14.3978   21.6365 C   0  0  0  0  0  0  0  0  0  0  0  0
   10.1244  -14.7908   22.2061 O   0  0  0  0  0  0  0  0  0  0  0  0
    7.8020  -16.0168   17.2131 C   0  0  0  0  0  0  0  0  0  0  0  0
    7.5597  -15.7957   15.8728 C   0  0  0  0  0  0  0  0  0  0  0  0
    8.0110  -13.9851   22.5135 N   0  0  0  0  0  0  0  0  0  0  0  0
    8.1992  -13.9571   23.9449 C   0  0  1  0  0  0  0  0  0  0  0  0
    7.0775  -13.2434   24.6567 C   0  0  0  0  0  0  0  0  0  0  0  0
    7.2717  -13.1757   26.1064 C   0  0  0  0  0  0  0  0  0  0  0  0
    7.9731  -12.2086   26.7831 C   0  0  0  0  0  0  0  0  0  0  0  0
    7.9028  -12.5253   28.1017 N   0  0  0  0  0  0  0  0  0  0  0  0
    7.1900  -13.6421   28.2607 C   0  0  0  0  0  0  0  0  0  0  0  0
    6.8066  -14.0336   27.0257 N   0  0  0  0  0  0  0  0  0  0  0  0
    8.4097  -15.3226   24.4266 C   0  0  0  0  0  0  0  0  0  0  0  0
    7.6084  -16.2477   24.1402 O   0  0  0  0  0  0  0  0  0  0  0  0
   10.8531  -17.9276   23.7604 C   0  0  0  0  0  0  0  0  0  0  0  0
   11.0016  -17.5285   25.2079 C   0  0  2  0  0  0  0  0  0  0  0  0
   11.5243  -18.6244   26.0787 C   0  0  0  0  0  0  0  0  0  0  0  0
    9.6869  -16.9883   25.7331 C   0  0  2  0  0  0  0  0  0  0  0  0
    9.5317  -15.6565   25.2395 N   0  0  0  0  0  0  0  0  0  0  0  0
    9.6280  -16.9982   27.2003 C   0  0  0  0  0  0  0  0  0  0  0  0
    9.7131  -15.9310   27.8459 O   0  0  0  0  0  0  0  0  0  0  0  0
    9.4780  -18.1875   27.8773 O   0  0  0  0  0  0  0  0  0  0  0  0
  2  1  1  0
  2  3  2  0
  4  3  1  0
  5  4  2  0
  6  5  1  0
  7  9  1  0
  7  6  1  0
  7  8  1  6
  9 10  2  0
 11 12  2  0
 11  5  1  0
 12  2  1  0
 13 14  1  0
 13  9  1  0
 14 15  1  1
 15 16  1  0
 16 17  2  0
 18 17  1  0
 19 18  1  0
 20 19  2  0
 20 16  1  0
 21 14  1  0
 22 21  2  0
 24 23  1  6
 24 25  1  0
 24 26  1  0
 26 27  1  1
 27 21  1  0
 28 26  1  0
 28 30  1  0
 29 28  2  0
M  END
$$$$
