YHV.pdb
     RDKit          3D

 30 31  0  0  1  0  0  0  0  0999 V2000
    8.9584  -12.9459   16.5278 O   0  0  0  0  0  0  0  0  0  0  0  0
    8.5081  -13.2663   17.8098 C   0  0  0  0  0  0  0  0  0  0  0  0
    9.2348  -14.1428   18.5730 C   0  0  0  0  0  0  0  0  0  0  0  0
    8.8220  -14.4935   19.8641 C   0  0  0  0  0  0  0  0  0  0  0  0
    7.6691  -13.9648   20.4044 C   0  0  0  0  0  0  0  0  0  0  0  0
    7.2135  -14.3275   21.7678 C   0  0  0  0  0  0  0  0  0  0  0  0
    6.8298  -15.7629   21.9144 C   0  0  2  0  0  0  0  0  0  0  0  0
    5.5247  -15.9359   21.2996 N   0  0  0  0  0  0  0  0  0  0  0  0
    6.8851  -16.2959   23.2751 C   0  0  0  0  0  0  0  0  0  0  0  0
    5.9957  -16.0272   24.1193 O   0  0  0  0  0  0  0  0  0  0  0  0
    6.9447  -13.0794   19.6200 C   0  0  0  0  0  0  0  0  0  0  0  0
    7.3535  -12.7352   18.3480 C   0  0  0  0  0  0  0  0  0  0  0  0
    7.9446  -17.1536   23.7413 N   0  0  0  0  0  0  0  0  0  0  0  0
    7.9764  -17.6137   25.1097 C   0  0  1  0  0  0  0  0  0  0  0  0
    8.1428  -19.1093   25.2079 C   0  0  0  0  0  0  0  0  0  0  0  0
    8.2508  -19.5832   26.5892 C   0  0  0  0  0  0  0  0  0  0  0  0
    7.5620  -19.0886   27.6690 C   0  0  0  0  0  0  0  0  0  0  0  0
    7.9591  -19.8090   28.7494 N   0  0  0  0  0  0  0  0  0  0  0  0
    8.8594  -20.7212   28.3779 C   0  0  0  0  0  0  0  0  0  0  0  0
    9.0312  -20.5729   27.0459 N   0  0  0  0  0  0  0  0  0  0  0  0
    9.0040  -16.8712   25.8403 C   0  0  0  0  0  0  0  0  0  0  0  0
   10.1258  -16.6302   25.3270 O   0  0  0  0  0  0  0  0  0  0  0  0
    8.2986  -14.7561   29.5611 C   0  0  0  0  0  0  0  0  0  0  0  0
    9.2840  -14.4614   28.4572 C   0  0  2  0  0  0  0  0  0  0  0  0
    8.7299  -13.5864   27.3802 C   0  0  0  0  0  0  0  0  0  0  0  0
    9.8265  -15.7570   27.8885 C   0  0  2  0  0  0  0  0  0  0  0  0
    8.7726  -16.3924   27.1625 N   0  0  0  0  0  0  0  0  0  0  0  0
   10.3374  -16.6525   28.9340 C   0  0  0  0  0  0  0  0  0  0  0  0
   11.3373  -16.3309   29.6120 O   0  0  0  0  0  0  0  0  0  0  0  0
    9.7161  -17.8571   29.1756 O   0  0  0  0  0  0  0  0  0  0  0  0
  2  1  1  0
  2  3  2  0
  4  3  1  0
  5  4  2  0
  6  5  1  0
  7  9  1  0
  7  6  1  0
  7  8  1  1
  9 10  2  0
 11 12  2  0
 11  5  1  0
 12  2  1  0
 13 14  1  0
 13  9  1  0
 14 15  1  6
 15 16  1  0
 16 17  2  0
 18 17  1  0
 19 18  1  0
 20 19  2  0
 20 16  1  0
 21 14  1  0
 22 21  2  0
 24 23  1  1
 24 25  1  0
 24 26  1  0
 26 27  1  1
 27 21  1  0
 28 26  1  0
 28 30  1  0
 29 28  2  0
M  END
$$$$
