YHV.pdb
     RDKit          3D

 30 31  0  0  1  0  0  0  0  0999 V2000
    7.7152  -12.1955   16.3627 O   0  0  0  0  0  0  0  0  0  0  0  0
    7.7640  -12.7459   17.6447 C   0  0  0  0  0  0  0  0  0  0  0  0
    8.9474  -13.2621   18.1050 C   0  0  0  0  0  0  0  0  0  0  0  0
    9.0437  -13.8242   19.3838 C   0  0  0  0  0  0  0  0  0  0  0  0
    7.9467  -13.8739   20.2173 C   0  0  0  0  0  0  0  0  0  0  0  0
    8.0279  -14.4691   21.5727 C   0  0  0  0  0  0  0  0  0  0  0  0
    8.5226  -15.8777   21.5850 C   0  0  2  0  0  0  0  0  0  0  0  0
    7.5827  -16.6822   20.8231 N   0  0  0  0  0  0  0  0  0  0  0  0
    8.7996  -16.4385   22.9069 C   0  0  0  0  0  0  0  0  0  0  0  0
    7.8744  -16.6927   23.7164 O   0  0  0  0  0  0  0  0  0  0  0  0
    6.7565  -13.3476   19.7373 C   0  0  0  0  0  0  0  0  0  0  0  0
    6.6639  -12.7940   18.4769 C   0  0  0  0  0  0  0  0  0  0  0  0
   10.1303  -16.7363   23.3717 N   0  0  0  0  0  0  0  0  0  0  0  0
   10.3491  -17.2786   24.6920 C   0  0  1  0  0  0  0  0  0  0  0  0
   11.3242  -18.4289   24.6850 C   0  0  0  0  0  0  0  0  0  0  0  0
   10.8554  -19.5712   23.8979 C   0  0  0  0  0  0  0  0  0  0  0  0
    9.7185  -20.3035   24.1352 C   0  0  0  0  0  0  0  0  0  0  0  0
    9.6634  -21.2619   23.1749 N   0  0  0  0  0  0  0  0  0  0  0  0
   10.7154  -21.1480   22.3620 C   0  0  0  0  0  0  0  0  0  0  0  0
   11.4423  -20.1038   22.8167 N   0  0  0  0  0  0  0  0  0  0  0  0
   10.7425  -16.1962   25.5947 C   0  0  0  0  0  0  0  0  0  0  0  0
   11.7876  -15.5267   25.3961 O   0  0  0  0  0  0  0  0  0  0  0  0
    8.0983  -14.3015   28.2323 C   0  0  0  0  0  0  0  0  0  0  0  0
    9.4270  -13.7729   27.7509 C   0  0  2  0  0  0  0  0  0  0  0  0
    9.3420  -13.0364   26.4536 C   0  0  0  0  0  0  0  0  0  0  0  0
   10.4367  -14.9004   27.6780 C   0  0  2  0  0  0  0  0  0  0  0  0
    9.9557  -15.8593   26.7342 N   0  0  0  0  0  0  0  0  0  0  0  0
   10.6559  -15.5359   28.9835 C   0  0  0  0  0  0  0  0  0  0  0  0
   11.1645  -14.8907   29.9258 O   0  0  0  0  0  0  0  0  0  0  0  0
   10.3014  -16.8517   29.1793 O   0  0  0  0  0  0  0  0  0  0  0  0
  2  1  1  0
  2  3  2  0
  4  3  1  0
  5  4  2  0
  6  5  1  0
  7  9  1  0
  7  6  1  0
  7  8  1  1
  9 10  2  0
 11 12  2  0
 11  5  1  0
 12  2  1  0
 13 14  1  0
 13  9  1  0
 14 15  1  6
 15 16  1  0
 16 17  2  0
 18 17  1  0
 19 18  1  0
 20 19  2  0
 20 16  1  0
 21 14  1  0
 22 21  2  0
 24 23  1  6
 24 25  1  0
 24 26  1  0
 26 27  1  6
 27 21  1  0
 28 26  1  0
 28 30  1  0
 29 28  2  0
M  END
$$$$
