YHV.pdb
     RDKit          3D

 30 31  0  0  1  0  0  0  0  0999 V2000
    7.9388  -12.4036   16.3651 O   0  0  0  0  0  0  0  0  0  0  0  0
    7.9348  -12.9327   17.6570 C   0  0  0  0  0  0  0  0  0  0  0  0
    9.1145  -13.3650   18.2050 C   0  0  0  0  0  0  0  0  0  0  0  0
    9.1588  -13.9026   19.4971 C   0  0  0  0  0  0  0  0  0  0  0  0
    8.0128  -14.0123   20.2555 C   0  0  0  0  0  0  0  0  0  0  0  0
    8.0390  -14.5829   21.6236 C   0  0  0  0  0  0  0  0  0  0  0  0
    8.6136  -15.9591   21.6930 C   0  0  2  0  0  0  0  0  0  0  0  0
    7.8141  -16.8150   20.8332 N   0  0  0  0  0  0  0  0  0  0  0  0
    8.7763  -16.5087   23.0384 C   0  0  0  0  0  0  0  0  0  0  0  0
    7.7879  -16.7161   23.7841 O   0  0  0  0  0  0  0  0  0  0  0  0
    6.8270  -13.5706   19.6873 C   0  0  0  0  0  0  0  0  0  0  0  0
    6.7858  -13.0410   18.4139 C   0  0  0  0  0  0  0  0  0  0  0  0
   10.0591  -16.8476   23.5996 N   0  0  0  0  0  0  0  0  0  0  0  0
   10.1579  -17.4615   24.9029 C   0  0  1  0  0  0  0  0  0  0  0  0
   10.9514  -18.7436   24.8740 C   0  0  0  0  0  0  0  0  0  0  0  0
   10.2846  -19.8121   24.1270 C   0  0  0  0  0  0  0  0  0  0  0  0
    9.0814  -19.7113   23.4734 C   0  0  0  0  0  0  0  0  0  0  0  0
    8.8357  -20.9255   22.9174 N   0  0  0  0  0  0  0  0  0  0  0  0
    9.8346  -21.7632   23.2020 C   0  0  0  0  0  0  0  0  0  0  0  0
   10.7209  -21.0669   23.9471 N   0  0  0  0  0  0  0  0  0  0  0  0
   10.6822  -16.4817   25.8548 C   0  0  0  0  0  0  0  0  0  0  0  0
   11.7597  -15.8716   25.6384 O   0  0  0  0  0  0  0  0  0  0  0  0
    8.4075  -14.8856   29.1056 C   0  0  0  0  0  0  0  0  0  0  0  0
    9.5999  -14.2646   28.4208 C   0  0  2  0  0  0  0  0  0  0  0  0
    9.2390  -13.4244   27.2391 C   0  0  0  0  0  0  0  0  0  0  0  0
   10.5995  -15.3400   28.0463 C   0  0  2  0  0  0  0  0  0  0  0  0
    9.9913  -16.1812   27.0645 N   0  0  0  0  0  0  0  0  0  0  0  0
   11.0227  -16.1343   29.2065 C   0  0  0  0  0  0  0  0  0  0  0  0
   10.6731  -17.3293   29.3189 O   0  0  0  0  0  0  0  0  0  0  0  0
   11.8105  -15.5661   30.1822 O   0  0  0  0  0  0  0  0  0  0  0  0
  2  1  1  0
  2  3  2  0
  4  3  1  0
  5  4  2  0
  6  5  1  0
  7  9  1  0
  7  6  1  0
  7  8  1  6
  9 10  2  0
 11 12  2  0
 11  5  1  0
 12  2  1  0
 13 14  1  0
 13  9  1  0
 14 15  1  6
 15 16  1  0
 16 17  2  0
 18 17  1  0
 19 18  1  0
 20 19  2  0
 20 16  1  0
 21 14  1  0
 22 21  2  0
 24 23  1  6
 24 25  1  0
 24 26  1  0
 26 27  1  6
 27 21  1  0
 28 26  1  0
 28 30  1  0
 29 28  2  0
M  END
$$$$
