VIW.pdb
     RDKit          3D

 30 31  0  0  1  0  0  0  0  0999 V2000
    5.2656  -20.1166   23.7012 C   0  0  0  0  0  0  0  0  0  0  0  0
    6.4239  -19.2598   23.2794 C   0  0  1  0  0  0  0  0  0  0  0  0
    7.7060  -20.0179   23.5064 C   0  0  0  0  0  0  0  0  0  0  0  0
    6.2891  -18.7955   21.8392 C   0  0  2  0  0  0  0  0  0  0  0  0
    6.2080  -19.9108   20.9405 N   0  0  0  0  0  0  0  0  0  0  0  0
    7.3268  -17.8174   21.4764 C   0  0  0  0  0  0  0  0  0  0  0  0
    8.3206  -18.2217   20.8247 O   0  0  0  0  0  0  0  0  0  0  0  0
    6.2292  -12.9544   19.6611 C   0  0  0  0  0  0  0  0  0  0  0  0
    7.0286  -14.1823   19.8744 C   0  0  0  0  0  0  0  0  0  0  0  0
    7.8841  -14.1774   21.1446 C   0  0  2  0  0  0  0  0  0  0  0  0
    8.8952  -13.0879   21.0643 C   0  0  0  0  0  0  0  0  0  0  0  0
    8.4189  -15.5503   21.4426 C   0  0  2  0  0  0  0  0  0  0  0  0
    7.2948  -16.4428   21.8065 N   0  0  0  0  0  0  0  0  0  0  0  0
    9.3807  -15.6077   22.5675 C   0  0  0  0  0  0  0  0  0  0  0  0
   10.5576  -15.1820   22.4234 O   0  0  0  0  0  0  0  0  0  0  0  0
    9.1111  -16.1128   23.8591 N   0  0  0  0  0  0  0  0  0  0  0  0
   10.0277  -16.0824   24.9690 C   0  0  1  0  0  0  0  0  0  0  0  0
    9.7414  -15.0803   25.9994 C   0  0  0  0  0  0  0  0  0  0  0  0
    8.3028  -14.7228   26.0127 C   0  0  0  0  0  0  0  0  0  0  0  0
    7.2400  -15.6026   25.8007 C   0  0  0  0  0  0  0  0  0  0  0  0
    6.0881  -14.9425   25.9286 N   0  0  0  0  0  0  0  0  0  0  0  0
    6.3380  -13.6398   26.2203 C   0  0  0  0  0  0  0  0  0  0  0  0
    5.5396  -12.5550   26.4346 C   0  0  0  0  0  0  0  0  0  0  0  0
    6.0214  -11.2914   26.7062 C   0  0  0  0  0  0  0  0  0  0  0  0
    7.3957  -11.1674   26.7533 C   0  0  0  0  0  0  0  0  0  0  0  0
    8.2312  -12.2447   26.5414 C   0  0  0  0  0  0  0  0  0  0  0  0
    7.7112  -13.5083   26.2707 C   0  0  0  0  0  0  0  0  0  0  0  0
   10.3249  -17.4366   25.4221 C   0  0  0  0  0  0  0  0  0  0  0  0
    9.6855  -18.4403   24.9883 O   0  0  0  0  0  0  0  0  0  0  0  0
   11.3262  -17.7517   26.3536 O   0  0  0  0  0  0  0  0  0  0  0  0
  2  1  1  6
  3  2  1  0
  4  2  1  0
  4  5  1  6
  6  4  1  0
  6  7  2  0
  9 10  1  0
  9  8  1  0
 10 12  1  0
 10 11  1  6
 12 13  1  1
 13  6  1  0
 14 12  1  0
 14 16  1  0
 15 14  2  0
 17 16  1  0
 17 28  1  0
 18 19  1  0
 17 18  1  1
 19 27  1  0
 20 21  1  0
 20 19  2  0
 21 22  1  0
 22 27  2  0
 22 23  1  0
 23 24  2  0
 24 25  1  0
 26 25  2  0
 27 26  1  0
 28 29  2  0
 28 30  1  0
M  END
$$$$
