VIW.pdb
     RDKit          3D

 30 31  0  0  1  0  0  0  0  0999 V2000
    5.9539  -18.8713   23.5360 C   0  0  0  0  0  0  0  0  0  0  0  0
    6.1401  -19.6829   22.2868 C   0  0  1  0  0  0  0  0  0  0  0  0
    5.0610  -20.7319   22.2152 C   0  0  0  0  0  0  0  0  0  0  0  0
    6.1635  -18.8101   21.0436 C   0  0  2  0  0  0  0  0  0  0  0  0
    6.2073  -19.6070   19.8516 N   0  0  0  0  0  0  0  0  0  0  0  0
    7.2179  -17.7856   21.1097 C   0  0  0  0  0  0  0  0  0  0  0  0
    8.4103  -18.1524   20.9705 O   0  0  0  0  0  0  0  0  0  0  0  0
    6.8713  -12.9882   18.8748 C   0  0  0  0  0  0  0  0  0  0  0  0
    7.4063  -14.2338   19.4702 C   0  0  0  0  0  0  0  0  0  0  0  0
    7.7711  -14.1297   20.9539 C   0  0  2  0  0  0  0  0  0  0  0  0
    8.7803  -13.0528   21.1480 C   0  0  0  0  0  0  0  0  0  0  0  0
    8.1288  -15.4757   21.5194 C   0  0  2  0  0  0  0  0  0  0  0  0
    6.9937  -16.4054   21.3199 N   0  0  0  0  0  0  0  0  0  0  0  0
    8.4220  -15.4777   22.9712 C   0  0  0  0  0  0  0  0  0  0  0  0
    7.6570  -14.8848   23.7776 O   0  0  0  0  0  0  0  0  0  0  0  0
    9.5248  -16.1079   23.5898 N   0  0  0  0  0  0  0  0  0  0  0  0
   10.0787  -15.7426   24.8676 C   0  0  1  0  0  0  0  0  0  0  0  0
    9.2429  -16.0510   26.0314 C   0  0  0  0  0  0  0  0  0  0  0  0
    8.0172  -15.2174   26.0455 C   0  0  0  0  0  0  0  0  0  0  0  0
    6.7231  -15.6622   25.7697 C   0  0  0  0  0  0  0  0  0  0  0  0
    5.8671  -14.6503   25.9192 N   0  0  0  0  0  0  0  0  0  0  0  0
    6.5426  -13.5313   26.2878 C   0  0  0  0  0  0  0  0  0  0  0  0
    6.1622  -12.2485   26.5525 C   0  0  0  0  0  0  0  0  0  0  0  0
    7.0423  -11.2454   26.9018 C   0  0  0  0  0  0  0  0  0  0  0  0
    8.3723  -11.6086   26.9744 C   0  0  0  0  0  0  0  0  0  0  0  0
    8.7901  -12.8974   26.7130 C   0  0  0  0  0  0  0  0  0  0  0  0
    7.8742  -13.8871   26.3641 C   0  0  0  0  0  0  0  0  0  0  0  0
   11.4858  -16.1200   24.9401 C   0  0  0  0  0  0  0  0  0  0  0  0
   12.1631  -15.9685   25.9997 O   0  0  0  0  0  0  0  0  0  0  0  0
   12.2054  -16.6792   23.8729 O   0  0  0  0  0  0  0  0  0  0  0  0
  2  1  1  1
  3  2  1  0
  4  2  1  0
  4  5  1  6
  6  4  1  0
  6  7  2  0
  9 10  1  0
  9  8  1  0
 10 12  1  0
 10 11  1  6
 12 13  1  1
 13  6  1  0
 14 12  1  0
 14 16  1  0
 15 14  2  0
 17 16  1  0
 17 28  1  0
 18 19  1  0
 17 18  1  1
 19 27  1  0
 20 21  1  0
 20 19  2  0
 21 22  1  0
 22 27  2  0
 22 23  1  0
 23 24  2  0
 24 25  1  0
 26 25  2  0
 27 26  1  0
 28 29  2  0
 28 30  1  0
M  END
$$$$
