VIW.pdb
     RDKit          3D

 30 31  0  0  1  0  0  0  0  0999 V2000
    6.5643  -18.7665   23.5606 C   0  0  0  0  0  0  0  0  0  0  0  0
    6.8897  -19.5870   22.3462 C   0  0  1  0  0  0  0  0  0  0  0  0
    5.9962  -20.7998   22.3171 C   0  0  0  0  0  0  0  0  0  0  0  0
    6.7803  -18.7733   21.0680 C   0  0  2  0  0  0  0  0  0  0  0  0
    6.9262  -19.6063   19.9092 N   0  0  0  0  0  0  0  0  0  0  0  0
    7.6806  -17.6093   21.0773 C   0  0  0  0  0  0  0  0  0  0  0  0
    8.8761  -17.7819   20.7354 O   0  0  0  0  0  0  0  0  0  0  0  0
    6.5149  -12.9288   18.9855 C   0  0  0  0  0  0  0  0  0  0  0  0
    7.2969  -14.0665   19.5205 C   0  0  0  0  0  0  0  0  0  0  0  0
    7.6888  -13.9375   20.9953 C   0  0  2  0  0  0  0  0  0  0  0  0
    8.4898  -12.6989   21.1950 C   0  0  0  0  0  0  0  0  0  0  0  0
    8.3069  -15.2096   21.5046 C   0  0  2  0  0  0  0  0  0  0  0  0
    7.3036  -16.2970   21.4448 N   0  0  0  0  0  0  0  0  0  0  0  0
    8.7766  -15.1494   22.9080 C   0  0  0  0  0  0  0  0  0  0  0  0
    8.9195  -14.0393   23.4862 O   0  0  0  0  0  0  0  0  0  0  0  0
    9.0985  -16.2605   23.7191 N   0  0  0  0  0  0  0  0  0  0  0  0
    9.7628  -16.1909   24.9946 C   0  0  1  0  0  0  0  0  0  0  0  0
    8.8981  -16.3446   26.1679 C   0  0  0  0  0  0  0  0  0  0  0  0
    7.8065  -15.3417   26.1630 C   0  0  0  0  0  0  0  0  0  0  0  0
    6.4489  -15.6122   25.9831 C   0  0  0  0  0  0  0  0  0  0  0  0
    5.7556  -14.4770   26.0815 N   0  0  0  0  0  0  0  0  0  0  0  0
    6.6032  -13.4435   26.3221 C   0  0  0  0  0  0  0  0  0  0  0  0
    6.4249  -12.1019   26.4910 C   0  0  0  0  0  0  0  0  0  0  0  0
    7.4571  -11.2144   26.7136 C   0  0  0  0  0  0  0  0  0  0  0  0
    8.7237  -11.7619   26.7596 C   0  0  0  0  0  0  0  0  0  0  0  0
    8.9382  -13.1146   26.5929 C   0  0  0  0  0  0  0  0  0  0  0  0
    7.8726  -13.9838   26.3711 C   0  0  0  0  0  0  0  0  0  0  0  0
   10.9961  -16.9693   24.9704 C   0  0  0  0  0  0  0  0  0  0  0  0
   11.3477  -17.6299   23.9485 O   0  0  0  0  0  0  0  0  0  0  0  0
   11.8929  -17.0544   26.0465 O   0  0  0  0  0  0  0  0  0  0  0  0
  2  1  1  1
  3  2  1  0
  4  2  1  0
  4  5  1  6
  6  4  1  0
  6  7  2  0
  9 10  1  0
  9  8  1  0
 10 12  1  0
 10 11  1  6
 12 13  1  1
 13  6  1  0
 14 12  1  0
 14 16  1  0
 15 14  2  0
 17 16  1  0
 17 28  1  0
 18 19  1  0
 17 18  1  1
 19 27  1  0
 20 21  1  0
 20 19  2  0
 21 22  1  0
 22 27  2  0
 22 23  1  0
 23 24  2  0
 24 25  1  0
 26 25  2  0
 27 26  1  0
 28 29  2  0
 28 30  1  0
M  END
$$$$
