VIW.pdb
     RDKit          3D

 30 31  0  0  1  0  0  0  0  0999 V2000
    6.8047  -19.1747   24.6631 C   0  0  0  0  0  0  0  0  0  0  0  0
    6.7729  -19.9966   23.4073 C   0  0  1  0  0  0  0  0  0  0  0  0
    5.8009  -21.1337   23.5871 C   0  0  0  0  0  0  0  0  0  0  0  0
    6.4380  -19.1541   22.1882 C   0  0  2  0  0  0  0  0  0  0  0  0
    6.1784  -19.9789   21.0436 N   0  0  0  0  0  0  0  0  0  0  0  0
    7.4451  -18.1083   21.9481 C   0  0  0  0  0  0  0  0  0  0  0  0
    8.5185  -18.4369   21.3863 O   0  0  0  0  0  0  0  0  0  0  0  0
    6.4161  -13.6579   19.4537 C   0  0  0  0  0  0  0  0  0  0  0  0
    7.1565  -14.7965   20.0432 C   0  0  0  0  0  0  0  0  0  0  0  0
    7.7549  -14.5245   21.4264 C   0  0  2  0  0  0  0  0  0  0  0  0
    8.6399  -13.3292   21.3639 C   0  0  0  0  0  0  0  0  0  0  0  0
    8.3698  -15.7684   22.0046 C   0  0  2  0  0  0  0  0  0  0  0  0
    7.2997  -16.7474   22.3033 N   0  0  0  0  0  0  0  0  0  0  0  0
    9.1122  -15.5601   23.2692 C   0  0  0  0  0  0  0  0  0  0  0  0
    9.6916  -14.4648   23.4961 O   0  0  0  0  0  0  0  0  0  0  0  0
    9.2496  -16.5046   24.3108 N   0  0  0  0  0  0  0  0  0  0  0  0
   10.0298  -16.3131   25.5057 C   0  0  1  0  0  0  0  0  0  0  0  0
    9.8388  -15.0300   26.1878 C   0  0  0  0  0  0  0  0  0  0  0  0
    8.3985  -14.7099   26.3313 C   0  0  0  0  0  0  0  0  0  0  0  0
    7.3458  -15.6224   26.2447 C   0  0  0  0  0  0  0  0  0  0  0  0
    6.1931  -14.9894   26.4672 N   0  0  0  0  0  0  0  0  0  0  0  0
    6.4327  -13.6732   26.7014 C   0  0  0  0  0  0  0  0  0  0  0  0
    5.6279  -12.6042   26.9653 C   0  0  0  0  0  0  0  0  0  0  0  0
    6.0973  -11.3215   27.1581 C   0  0  0  0  0  0  0  0  0  0  0  0
    7.4656  -11.1605   27.0690 C   0  0  0  0  0  0  0  0  0  0  0  0
    8.3074  -12.2211   26.8037 C   0  0  0  0  0  0  0  0  0  0  0  0
    7.8000  -13.5046   26.6156 C   0  0  0  0  0  0  0  0  0  0  0  0
   10.0027  -17.5158   26.3306 C   0  0  0  0  0  0  0  0  0  0  0  0
    9.2778  -18.5113   26.0344 O   0  0  0  0  0  0  0  0  0  0  0  0
   10.7621  -17.6849   27.4986 O   0  0  0  0  0  0  0  0  0  0  0  0
  2  1  1  1
  3  2  1  0
  4  2  1  0
  4  5  1  6
  6  4  1  0
  6  7  2  0
  9 10  1  0
  9  8  1  0
 10 12  1  0
 10 11  1  6
 12 13  1  1
 13  6  1  0
 14 12  1  0
 14 16  1  0
 15 14  2  0
 17 16  1  0
 17 28  1  0
 18 19  1  0
 17 18  1  1
 19 27  1  0
 20 21  1  0
 20 19  2  0
 21 22  1  0
 22 27  2  0
 22 23  1  0
 23 24  2  0
 24 25  1  0
 26 25  2  0
 27 26  1  0
 28 29  2  0
 28 30  1  0
M  END
$$$$
