VIW.pdb
     RDKit          3D

 30 31  0  0  1  0  0  0  0  0999 V2000
    9.2098  -12.8678   20.4666 C   0  0  0  0  0  0  0  0  0  0  0  0
    8.1686  -13.4082   19.5297 C   0  0  1  0  0  0  0  0  0  0  0  0
    7.9738  -12.4357   18.3956 C   0  0  0  0  0  0  0  0  0  0  0  0
    8.5254  -14.7973   19.0284 C   0  0  2  0  0  0  0  0  0  0  0  0
    7.6400  -15.2127   17.9788 N   0  0  0  0  0  0  0  0  0  0  0  0
    8.6358  -15.7683   20.1285 C   0  0  0  0  0  0  0  0  0  0  0  0
    7.5770  -16.2212   20.6280 O   0  0  0  0  0  0  0  0  0  0  0  0
   10.9471  -20.2311   19.5625 C   0  0  0  0  0  0  0  0  0  0  0  0
   10.1293  -19.1152   20.0901 C   0  0  0  0  0  0  0  0  0  0  0  0
   10.7143  -18.4187   21.3220 C   0  0  2  0  0  0  0  0  0  0  0  0
   11.0128  -19.4280   22.3746 C   0  0  0  0  0  0  0  0  0  0  0  0
    9.8569  -17.2594   21.7469 C   0  0  2  0  0  0  0  0  0  0  0  0
    9.8525  -16.2379   20.6749 N   0  0  0  0  0  0  0  0  0  0  0  0
   10.3119  -16.5731   22.9780 C   0  0  0  0  0  0  0  0  0  0  0  0
   11.3501  -15.8596   22.9645 O   0  0  0  0  0  0  0  0  0  0  0  0
    9.6749  -16.6293   24.2378 N   0  0  0  0  0  0  0  0  0  0  0  0
   10.2314  -16.1361   25.4708 C   0  0  1  0  0  0  0  0  0  0  0  0
    9.8933  -14.7506   25.8084 C   0  0  0  0  0  0  0  0  0  0  0  0
    8.4265  -14.5714   25.9260 C   0  0  0  0  0  0  0  0  0  0  0  0
    7.4634  -15.5617   25.7251 C   0  0  0  0  0  0  0  0  0  0  0  0
    6.2523  -15.0537   25.9579 N   0  0  0  0  0  0  0  0  0  0  0  0
    6.3652  -13.7470   26.3102 C   0  0  0  0  0  0  0  0  0  0  0  0
    5.4599  -12.7794   26.6335 C   0  0  0  0  0  0  0  0  0  0  0  0
    5.8057  -11.4821   26.9500 C   0  0  0  0  0  0  0  0  0  0  0  0
    7.1559  -11.1948   26.9244 C   0  0  0  0  0  0  0  0  0  0  0  0
    8.0973  -12.1506   26.6018 C   0  0  0  0  0  0  0  0  0  0  0  0
    7.7136  -13.4524   26.2885 C   0  0  0  0  0  0  0  0  0  0  0  0
   10.0917  -17.1316   26.5276 C   0  0  0  0  0  0  0  0  0  0  0  0
   10.5677  -16.9453   27.6865 O   0  0  0  0  0  0  0  0  0  0  0  0
    9.4278  -18.3579   26.3692 O   0  0  0  0  0  0  0  0  0  0  0  0
  2  1  1  1
  3  2  1  0
  4  2  1  0
  4  5  1  6
  6  4  1  0
  6  7  2  0
  9 10  1  0
  9  8  1  0
 10 12  1  0
 10 11  1  1
 12 13  1  6
 13  6  1  0
 14 12  1  0
 14 16  1  0
 15 14  2  0
 17 16  1  0
 17 28  1  0
 18 19  1  0
 17 18  1  1
 19 27  1  0
 20 21  1  0
 20 19  2  0
 21 22  1  0
 22 27  2  0
 22 23  1  0
 23 24  2  0
 24 25  1  0
 26 25  2  0
 27 26  1  0
 28 29  2  0
 28 30  1  0
M  END
$$$$
