VIW.pdb
     RDKit          3D

 30 31  0  0  1  0  0  0  0  0999 V2000
    7.2287  -19.4413   23.5534 C   0  0  0  0  0  0  0  0  0  0  0  0
    7.3592  -20.2003   22.2647 C   0  0  1  0  0  0  0  0  0  0  0  0
    6.5132  -21.4448   22.3380 C   0  0  0  0  0  0  0  0  0  0  0  0
    6.9994  -19.3419   21.0639 C   0  0  2  0  0  0  0  0  0  0  0  0
    7.0624  -20.0998   19.8476 N   0  0  0  0  0  0  0  0  0  0  0  0
    7.7792  -18.0946   21.0251 C   0  0  0  0  0  0  0  0  0  0  0  0
    8.9822  -18.1584   20.6722 O   0  0  0  0  0  0  0  0  0  0  0  0
    7.7989  -12.0457   20.0672 C   0  0  0  0  0  0  0  0  0  0  0  0
    8.3753  -13.2264   20.7499 C   0  0  0  0  0  0  0  0  0  0  0  0
    7.4840  -14.4717   20.7386 C   0  0  2  0  0  0  0  0  0  0  0  0
    6.1365  -14.1290   21.2701 C   0  0  0  0  0  0  0  0  0  0  0  0
    8.1726  -15.6364   21.3936 C   0  0  2  0  0  0  0  0  0  0  0  0
    7.2771  -16.8152   21.3572 N   0  0  0  0  0  0  0  0  0  0  0  0
    8.5280  -15.4238   22.8157 C   0  0  0  0  0  0  0  0  0  0  0  0
    7.9732  -14.5104   23.4826 O   0  0  0  0  0  0  0  0  0  0  0  0
    9.4716  -16.1747   23.5518 N   0  0  0  0  0  0  0  0  0  0  0  0
   10.0703  -15.7632   24.7948 C   0  0  1  0  0  0  0  0  0  0  0  0
    9.2773  -16.0294   25.9983 C   0  0  0  0  0  0  0  0  0  0  0  0
    8.0138  -15.2542   25.9886 C   0  0  0  0  0  0  0  0  0  0  0  0
    6.7496  -15.7558   25.6742 C   0  0  0  0  0  0  0  0  0  0  0  0
    5.8434  -14.7868   25.8114 N   0  0  0  0  0  0  0  0  0  0  0  0
    6.4559  -13.6416   26.2090 C   0  0  0  0  0  0  0  0  0  0  0  0
    6.0089  -12.3811   26.4766 C   0  0  0  0  0  0  0  0  0  0  0  0
    6.8316  -11.3421   26.8592 C   0  0  0  0  0  0  0  0  0  0  0  0
    8.1749  -11.6436   26.9631 C   0  0  0  0  0  0  0  0  0  0  0  0
    8.6593  -12.9084   26.6997 C   0  0  0  0  0  0  0  0  0  0  0  0
    7.8003  -13.9358   26.3167 C   0  0  0  0  0  0  0  0  0  0  0  0
   11.4797  -16.1373   24.8305 C   0  0  0  0  0  0  0  0  0  0  0  0
   12.2207  -15.8516   25.8172 O   0  0  0  0  0  0  0  0  0  0  0  0
   12.1331  -16.8375   23.8046 O   0  0  0  0  0  0  0  0  0  0  0  0
  2  1  1  1
  3  2  1  0
  4  2  1  0
  4  5  1  6
  6  4  1  0
  6  7  2  0
  9 10  1  0
  9  8  1  0
 10 12  1  0
 10 11  1  1
 12 13  1  1
 13  6  1  0
 14 12  1  0
 14 16  1  0
 15 14  2  0
 17 16  1  0
 17 28  1  0
 18 19  1  0
 17 18  1  1
 19 27  1  0
 20 21  1  0
 20 19  2  0
 21 22  1  0
 22 27  2  0
 22 23  1  0
 23 24  2  0
 24 25  1  0
 26 25  2  0
 27 26  1  0
 28 29  2  0
 28 30  1  0
M  END
$$$$
