VIW.pdb
     RDKit          3D

 30 31  0  0  1  0  0  0  0  0999 V2000
    8.7693  -12.9554   20.8424 C   0  0  0  0  0  0  0  0  0  0  0  0
    7.8743  -13.4495   19.7430 C   0  0  1  0  0  0  0  0  0  0  0  0
    7.6337  -12.3307   18.7631 C   0  0  0  0  0  0  0  0  0  0  0  0
    8.4421  -14.6840   19.0634 C   0  0  2  0  0  0  0  0  0  0  0  0
    7.6548  -15.0564   17.9234 N   0  0  0  0  0  0  0  0  0  0  0  0
    8.6628  -15.7843   20.0152 C   0  0  0  0  0  0  0  0  0  0  0  0
    7.6808  -16.4983   20.3339 O   0  0  0  0  0  0  0  0  0  0  0  0
   11.4138  -19.8538   19.1849 C   0  0  0  0  0  0  0  0  0  0  0  0
   10.4740  -18.8922   19.8049 C   0  0  0  0  0  0  0  0  0  0  0  0
   10.9868  -18.2316   21.0878 C   0  0  2  0  0  0  0  0  0  0  0  0
   11.3940  -19.2794   22.0636 C   0  0  0  0  0  0  0  0  0  0  0  0
   10.0133  -17.2042   21.5943 C   0  0  2  0  0  0  0  0  0  0  0  0
    9.9062  -16.1059   20.6068 N   0  0  0  0  0  0  0  0  0  0  0  0
   10.3922  -16.5756   22.8808 C   0  0  0  0  0  0  0  0  0  0  0  0
   11.2553  -15.6586   22.9134 O   0  0  0  0  0  0  0  0  0  0  0  0
    9.8624  -16.9055   24.1483 N   0  0  0  0  0  0  0  0  0  0  0  0
   10.2040  -16.2522   25.3850 C   0  0  1  0  0  0  0  0  0  0  0  0
    9.8828  -14.8240   25.4563 C   0  0  0  0  0  0  0  0  0  0  0  0
    8.4219  -14.6102   25.5886 C   0  0  0  0  0  0  0  0  0  0  0  0
    7.4355  -15.5851   25.4297 C   0  0  0  0  0  0  0  0  0  0  0  0
    6.2388  -15.0448   25.6642 N   0  0  0  0  0  0  0  0  0  0  0  0
    6.3841  -13.7312   25.9768 C   0  0  0  0  0  0  0  0  0  0  0  0
    5.5039  -12.7356   26.2841 C   0  0  0  0  0  0  0  0  0  0  0  0
    5.8814  -11.4375   26.5580 C   0  0  0  0  0  0  0  0  0  0  0  0
    7.2368  -11.1799   26.5056 C   0  0  0  0  0  0  0  0  0  0  0  0
    8.1532  -12.1644   26.1981 C   0  0  0  0  0  0  0  0  0  0  0  0
    7.7379  -13.4663   25.9280 C   0  0  0  0  0  0  0  0  0  0  0  0
    9.8164  -17.0789   26.5225 C   0  0  0  0  0  0  0  0  0  0  0  0
    9.1253  -18.1305   26.3778 O   0  0  0  0  0  0  0  0  0  0  0  0
   10.1678  -16.8004   27.8523 O   0  0  0  0  0  0  0  0  0  0  0  0
  2  1  1  1
  3  2  1  0
  4  2  1  0
  4  5  1  6
  6  4  1  0
  6  7  2  0
  9 10  1  0
  9  8  1  0
 10 12  1  0
 10 11  1  1
 12 13  1  6
 13  6  1  0
 14 12  1  0
 14 16  1  0
 15 14  2  0
 17 16  1  0
 17 28  1  0
 18 19  1  0
 17 18  1  1
 19 27  1  0
 20 21  1  0
 20 19  2  0
 21 22  1  0
 22 27  2  0
 22 23  1  0
 23 24  2  0
 24 25  1  0
 26 25  2  0
 27 26  1  0
 28 29  2  0
 28 30  1  0
M  END
$$$$
