VIW.pdb
     RDKit          3D

 30 31  0  0  1  0  0  0  0  0999 V2000
    8.2501  -19.3461   21.8498 C   0  0  0  0  0  0  0  0  0  0  0  0
    8.8431  -19.5963   20.4935 C   0  0  1  0  0  0  0  0  0  0  0  0
    8.3017  -20.8932   19.9506 C   0  0  0  0  0  0  0  0  0  0  0  0
    8.5921  -18.4372   19.5440 C   0  0  2  0  0  0  0  0  0  0  0  0
    9.0683  -18.7360   18.2242 N   0  0  0  0  0  0  0  0  0  0  0  0
    9.0989  -17.1648   20.0821 C   0  0  0  0  0  0  0  0  0  0  0  0
   10.3411  -16.9872   20.1132 O   0  0  0  0  0  0  0  0  0  0  0  0
    7.3805  -12.2884   18.9746 C   0  0  0  0  0  0  0  0  0  0  0  0
    8.2436  -13.3979   19.4396 C   0  0  0  0  0  0  0  0  0  0  0  0
    8.1322  -13.7134   20.9340 C   0  0  2  0  0  0  0  0  0  0  0  0
    8.4710  -12.5016   21.7293 C   0  0  0  0  0  0  0  0  0  0  0  0
    8.8930  -14.9623   21.2821 C   0  0  2  0  0  0  0  0  0  0  0  0
    8.2901  -16.1138   20.5728 N   0  0  0  0  0  0  0  0  0  0  0  0
    8.8877  -15.3076   22.7224 C   0  0  0  0  0  0  0  0  0  0  0  0
    7.8178  -15.2616   23.3858 O   0  0  0  0  0  0  0  0  0  0  0  0
   10.0114  -15.7085   23.4792 N   0  0  0  0  0  0  0  0  0  0  0  0
   10.0446  -15.8283   24.9136 C   0  0  1  0  0  0  0  0  0  0  0  0
    8.9159  -16.5436   25.5156 C   0  0  0  0  0  0  0  0  0  0  0  0
    7.7558  -15.6423   25.7135 C   0  0  0  0  0  0  0  0  0  0  0  0
    6.4222  -15.9558   25.4456 C   0  0  0  0  0  0  0  0  0  0  0  0
    5.6492  -14.9227   25.7833 N   0  0  0  0  0  0  0  0  0  0  0  0
    6.4194  -13.9164   26.2719 C   0  0  0  0  0  0  0  0  0  0  0  0
    6.1449  -12.6640   26.7370 C   0  0  0  0  0  0  0  0  0  0  0  0
    7.1097  -11.7829   27.1792 C   0  0  0  0  0  0  0  0  0  0  0  0
    8.4117  -12.2394   27.1288 C   0  0  0  0  0  0  0  0  0  0  0  0
    8.7231  -13.5007   26.6640 C   0  0  0  0  0  0  0  0  0  0  0  0
    7.7236  -14.3664   26.2261 C   0  0  0  0  0  0  0  0  0  0  0  0
   11.3822  -16.1969   25.3637 C   0  0  0  0  0  0  0  0  0  0  0  0
   11.6434  -16.3941   26.5873 O   0  0  0  0  0  0  0  0  0  0  0  0
   12.4797  -16.3706   24.5064 O   0  0  0  0  0  0  0  0  0  0  0  0
  2  1  1  1
  3  2  1  0
  4  2  1  0
  4  5  1  6
  6  4  1  0
  6  7  2  0
  9 10  1  0
  9  8  1  0
 10 12  1  0
 10 11  1  1
 12 13  1  6
 13  6  1  0
 14 12  1  0
 14 16  1  0
 15 14  2  0
 17 16  1  0
 17 28  1  0
 18 19  1  0
 17 18  1  6
 19 27  1  0
 20 21  1  0
 20 19  2  0
 21 22  1  0
 22 27  2  0
 22 23  1  0
 23 24  2  0
 24 25  1  0
 26 25  2  0
 27 26  1  0
 28 29  2  0
 28 30  1  0
M  END
$$$$
