VIW.pdb
     RDKit          3D

 30 31  0  0  1  0  0  0  0  0999 V2000
    8.3818  -13.0500   22.1047 C   0  0  0  0  0  0  0  0  0  0  0  0
    7.4766  -13.6942   21.0950 C   0  0  1  0  0  0  0  0  0  0  0  0
    7.0569  -12.6625   20.0803 C   0  0  0  0  0  0  0  0  0  0  0  0
    8.1281  -14.8998   20.4393 C   0  0  2  0  0  0  0  0  0  0  0  0
    7.3352  -15.3877   19.3478 N   0  0  0  0  0  0  0  0  0  0  0  0
    8.4840  -15.9359   21.4218 C   0  0  0  0  0  0  0  0  0  0  0  0
    7.5947  -16.7483   21.7750 O   0  0  0  0  0  0  0  0  0  0  0  0
   12.0580  -19.2091   20.2081 C   0  0  0  0  0  0  0  0  0  0  0  0
   10.9263  -18.5343   20.8836 C   0  0  0  0  0  0  0  0  0  0  0  0
   11.2411  -18.0028   22.2849 C   0  0  2  0  0  0  0  0  0  0  0  0
   11.7949  -19.0999   23.1248 C   0  0  0  0  0  0  0  0  0  0  0  0
   10.0657  -17.2633   22.8603 C   0  0  2  0  0  0  0  0  0  0  0  0
    9.7617  -16.0919   22.0071 N   0  0  0  0  0  0  0  0  0  0  0  0
   10.2752  -16.7408   24.2304 C   0  0  0  0  0  0  0  0  0  0  0  0
   11.1789  -15.8935   24.4590 O   0  0  0  0  0  0  0  0  0  0  0  0
    9.5314  -17.1045   25.3751 N   0  0  0  0  0  0  0  0  0  0  0  0
    9.9055  -16.8114   26.7342 C   0  0  1  0  0  0  0  0  0  0  0  0
    8.9281  -16.0406   27.5078 C   0  0  0  0  0  0  0  0  0  0  0  0
    8.9879  -14.6004   27.1617 C   0  0  0  0  0  0  0  0  0  0  0  0
   10.1425  -13.8169   27.1208 C   0  0  0  0  0  0  0  0  0  0  0  0
    9.8246  -12.5820   26.7300 N   0  0  0  0  0  0  0  0  0  0  0  0
    8.4875  -12.5040   26.5052 C   0  0  0  0  0  0  0  0  0  0  0  0
    7.6579  -11.4951   26.1126 C   0  0  0  0  0  0  0  0  0  0  0  0
    6.2946  -11.6399   25.9611 C   0  0  0  0  0  0  0  0  0  0  0  0
    5.7875  -12.8947   26.2340 C   0  0  0  0  0  0  0  0  0  0  0  0
    6.5994  -13.9366   26.6329 C   0  0  0  0  0  0  0  0  0  0  0  0
    7.9733  -13.7564   26.7746 C   0  0  0  0  0  0  0  0  0  0  0  0
   10.4766  -17.9924   27.3719 C   0  0  0  0  0  0  0  0  0  0  0  0
   10.9329  -17.9576   28.5530 O   0  0  0  0  0  0  0  0  0  0  0  0
   10.5676  -19.2508   26.7573 O   0  0  0  0  0  0  0  0  0  0  0  0
  2  1  1  1
  3  2  1  0
  4  2  1  0
  4  5  1  6
  6  4  1  0
  6  7  2  0
  9 10  1  0
  9  8  1  0
 10 12  1  0
 10 11  1  1
 12 13  1  6
 13  6  1  0
 14 12  1  0
 14 16  1  0
 15 14  2  0
 17 16  1  0
 17 28  1  0
 18 19  1  0
 17 18  1  1
 19 27  1  0
 20 21  1  0
 20 19  2  0
 21 22  1  0
 22 27  2  0
 22 23  1  0
 23 24  2  0
 24 25  1  0
 26 25  2  0
 27 26  1  0
 28 29  2  0
 28 30  1  0
M  END
$$$$
