VIW.pdb
     RDKit          3D

 30 31  0  0  1  0  0  0  0  0999 V2000
    8.7246  -12.5262   18.6332 C   0  0  0  0  0  0  0  0  0  0  0  0
    8.6961  -13.5268   19.7520 C   0  0  1  0  0  0  0  0  0  0  0  0
    7.5803  -13.1735   20.7008 C   0  0  0  0  0  0  0  0  0  0  0  0
    8.5695  -14.9498   19.2351 C   0  0  2  0  0  0  0  0  0  0  0  0
    7.4082  -15.0986   18.4062 N   0  0  0  0  0  0  0  0  0  0  0  0
    8.6525  -15.9396   20.3209 C   0  0  0  0  0  0  0  0  0  0  0  0
    7.5812  -16.3702   20.8135 O   0  0  0  0  0  0  0  0  0  0  0  0
   10.8648  -20.4122   19.6224 C   0  0  0  0  0  0  0  0  0  0  0  0
   10.0638  -19.3052   20.1926 C   0  0  0  0  0  0  0  0  0  0  0  0
   10.6554  -18.6698   21.4541 C   0  0  2  0  0  0  0  0  0  0  0  0
   10.9069  -19.7229   22.4756 C   0  0  0  0  0  0  0  0  0  0  0  0
    9.8311  -17.4973   21.9075 C   0  0  2  0  0  0  0  0  0  0  0  0
    9.8554  -16.4505   20.8605 N   0  0  0  0  0  0  0  0  0  0  0  0
   10.3056  -16.8540   23.1545 C   0  0  0  0  0  0  0  0  0  0  0  0
   11.1369  -15.9086   23.1085 O   0  0  0  0  0  0  0  0  0  0  0  0
    9.9061  -17.1991   24.4649 N   0  0  0  0  0  0  0  0  0  0  0  0
   10.1888  -16.4283   25.6477 C   0  0  1  0  0  0  0  0  0  0  0  0
    9.8580  -15.0027   25.5684 C   0  0  0  0  0  0  0  0  0  0  0  0
    8.4049  -14.7795   25.7583 C   0  0  0  0  0  0  0  0  0  0  0  0
    7.3972  -15.7185   25.5316 C   0  0  0  0  0  0  0  0  0  0  0  0
    6.2166  -15.1845   25.8477 N   0  0  0  0  0  0  0  0  0  0  0  0
    6.3935  -13.9098   26.2818 C   0  0  0  0  0  0  0  0  0  0  0  0
    5.5394  -12.9348   26.7063 C   0  0  0  0  0  0  0  0  0  0  0  0
    5.9471  -11.6755   27.0944 C   0  0  0  0  0  0  0  0  0  0  0  0
    7.3054  -11.4358   27.0322 C   0  0  0  0  0  0  0  0  0  0  0  0
    8.1959  -12.4004   26.6077 C   0  0  0  0  0  0  0  0  0  0  0  0
    7.7504  -13.6631   26.2240 C   0  0  0  0  0  0  0  0  0  0  0  0
    9.7547  -17.1468   26.8405 C   0  0  0  0  0  0  0  0  0  0  0  0
   10.0741  -16.7617   28.0041 O   0  0  0  0  0  0  0  0  0  0  0  0
    8.9563  -18.3007   26.8158 O   0  0  0  0  0  0  0  0  0  0  0  0
  2  1  1  6
  3  2  1  0
  4  2  1  0
  4  5  1  1
  6  4  1  0
  6  7  2  0
  9 10  1  0
  9  8  1  0
 10 12  1  0
 10 11  1  1
 12 13  1  6
 13  6  1  0
 14 12  1  0
 14 16  1  0
 15 14  2  0
 17 16  1  0
 17 28  1  0
 18 19  1  0
 17 18  1  6
 19 27  1  0
 20 21  1  0
 20 19  2  0
 21 22  1  0
 22 27  2  0
 22 23  1  0
 23 24  2  0
 24 25  1  0
 26 25  2  0
 27 26  1  0
 28 29  2  0
 28 30  1  0
M  END
$$$$
