VIW.pdb
     RDKit          3D

 30 31  0  0  1  0  0  0  0  0999 V2000
    9.9064  -19.8338   21.1749 C   0  0  0  0  0  0  0  0  0  0  0  0
   10.5525  -19.4720   19.8690 C   0  0  1  0  0  0  0  0  0  0  0  0
   10.4349  -20.6375   18.9215 C   0  0  0  0  0  0  0  0  0  0  0  0
    9.9632  -18.2021   19.2791 C   0  0  2  0  0  0  0  0  0  0  0  0
   10.5211  -17.9232   17.9873 N   0  0  0  0  0  0  0  0  0  0  0  0
   10.0448  -17.0702   20.2159 C   0  0  0  0  0  0  0  0  0  0  0  0
   11.1686  -16.5495   20.4200 O   0  0  0  0  0  0  0  0  0  0  0  0
    6.9550  -12.9570   19.7566 C   0  0  0  0  0  0  0  0  0  0  0  0
    8.0940  -13.8221   20.1395 C   0  0  0  0  0  0  0  0  0  0  0  0
    8.0384  -14.3574   21.5732 C   0  0  2  0  0  0  0  0  0  0  0  0
    7.9692  -13.2202   22.5311 C   0  0  0  0  0  0  0  0  0  0  0  0
    9.1315  -15.3594   21.8198 C   0  0  2  0  0  0  0  0  0  0  0  0
    8.9468  -16.5154   20.9131 N   0  0  0  0  0  0  0  0  0  0  0  0
    9.1683  -15.9074   23.1954 C   0  0  0  0  0  0  0  0  0  0  0  0
    8.1818  -16.5407   23.6567 O   0  0  0  0  0  0  0  0  0  0  0  0
   10.2480  -15.7959   24.0998 N   0  0  0  0  0  0  0  0  0  0  0  0
   10.2471  -16.2808   25.4554 C   0  0  1  0  0  0  0  0  0  0  0  0
    9.8372  -15.3107   26.4746 C   0  0  0  0  0  0  0  0  0  0  0  0
    8.4226  -14.9073   26.2908 C   0  0  0  0  0  0  0  0  0  0  0  0
    7.3488  -15.7709   26.0679 C   0  0  0  0  0  0  0  0  0  0  0  0
    6.2208  -15.0630   25.9934 N   0  0  0  0  0  0  0  0  0  0  0  0
    6.4979  -13.7437   26.1584 C   0  0  0  0  0  0  0  0  0  0  0  0
    5.7313  -12.6156   26.1585 C   0  0  0  0  0  0  0  0  0  0  0  0
    6.2390  -11.3450   26.3332 C   0  0  0  0  0  0  0  0  0  0  0  0
    7.6051  -11.2612   26.5141 C   0  0  0  0  0  0  0  0  0  0  0  0
    8.4086  -12.3829   26.5195 C   0  0  0  0  0  0  0  0  0  0  0  0
    7.8629  -13.6520   26.3416 C   0  0  0  0  0  0  0  0  0  0  0  0
    9.6476  -17.6089   25.5215 C   0  0  0  0  0  0  0  0  0  0  0  0
    9.1092  -18.1486   24.5100 O   0  0  0  0  0  0  0  0  0  0  0  0
    9.6156  -18.3999   26.6804 O   0  0  0  0  0  0  0  0  0  0  0  0
  2  1  1  1
  3  2  1  0
  4  2  1  0
  4  5  1  6
  6  4  1  0
  6  7  2  0
  9 10  1  0
  9  8  1  0
 10 12  1  0
 10 11  1  1
 12 13  1  6
 13  6  1  0
 14 12  1  0
 14 16  1  0
 15 14  2  0
 17 16  1  0
 17 28  1  0
 18 19  1  0
 17 18  1  1
 19 27  1  0
 20 21  1  0
 20 19  2  0
 21 22  1  0
 22 27  2  0
 22 23  1  0
 23 24  2  0
 24 25  1  0
 26 25  2  0
 27 26  1  0
 28 29  2  0
 28 30  1  0
M  END
$$$$
