EWV.pdb
     RDKit          3D

 31 32  0  0  1  0  0  0  0  0999 V2000
   27.4988  -24.4501  -15.8808 N   0  0  0  0  0  0  0  0  0  0  0  0
   26.8350  -23.1834  -16.0771 C   0  0  1  0  0  0  0  0  0  0  0  0
   25.8863  -23.3483  -17.2295 C   0  0  0  0  0  0  0  0  0  0  0  0
   26.5789  -23.4573  -18.5739 C   0  0  0  0  0  0  0  0  0  0  0  0
   27.2235  -22.1593  -18.9292 C   0  0  0  0  0  0  0  0  0  0  0  0
   26.5857  -21.0912  -18.7197 O   0  0  0  0  0  0  0  0  0  0  0  0
   26.2177  -22.7506  -14.8220 C   0  0  0  0  0  0  0  0  0  0  0  0
   25.5031  -23.5206  -14.0918 O   0  0  0  0  0  0  0  0  0  0  0  0
   28.4940  -22.0662  -19.4841 O   0  0  0  0  0  0  0  0  0  0  0  0
   26.3853  -21.4166  -14.3350 N   0  0  0  0  0  0  0  0  0  0  0  0
   25.6169  -20.8667  -13.2328 C   0  0  1  0  0  0  0  0  0  0  0  0
   26.4727  -19.8828  -12.4522 C   0  0  0  0  0  0  0  0  0  0  0  0
   27.4643  -20.5043  -11.5723 C   0  0  0  0  0  0  0  0  0  0  0  0
   28.5939  -21.1826  -12.0146 C   0  0  0  0  0  0  0  0  0  0  0  0
   29.3087  -21.6194  -10.9523 N   0  0  0  0  0  0  0  0  0  0  0  0
   28.6673  -21.2394   -9.8355 C   0  0  0  0  0  0  0  0  0  0  0  0
   28.9787  -21.4452   -8.5006 C   0  0  0  0  0  0  0  0  0  0  0  0
   28.1623  -20.9708   -7.5087 C   0  0  0  0  0  0  0  0  0  0  0  0
   27.0127  -20.2768   -7.8552 C   0  0  0  0  0  0  0  0  0  0  0  0
   26.7190  -20.0815   -9.1779 C   0  0  0  0  0  0  0  0  0  0  0  0
   27.5283  -20.5509  -10.2146 C   0  0  0  0  0  0  0  0  0  0  0  0
   24.2757  -20.4194  -13.5557 C   0  0  0  0  0  0  0  0  0  0  0  0
   23.9590  -19.5237  -14.3834 O   0  0  0  0  0  0  0  0  0  0  0  0
   19.6718  -21.7478  -13.9482 C   0  0  0  0  0  0  0  0  0  0  0  0
   21.1242  -21.9273  -13.6542 C   0  0  1  0  0  0  0  0  0  0  0  0
   21.7901  -22.4063  -14.9099 C   0  0  0  0  0  0  0  0  0  0  0  0
   21.7956  -20.6944  -13.0537 C   0  0  2  0  0  0  0  0  0  0  0  0
   23.1890  -21.0618  -12.8714 N   0  0  0  0  0  0  0  0  0  0  0  0
   21.1232  -20.4171  -11.7932 C   0  0  0  0  0  0  0  0  0  0  0  0
   21.4267  -21.0427  -10.7579 O   0  0  0  0  0  0  0  0  0  0  0  0
   20.1347  -19.4551  -11.7180 O   0  0  0  0  0  0  0  0  0  0  0  0
  2  1  1  1
  3  2  1  0
  3  4  1  0
  4  5  1  0
  5  9  1  0
  6  5  2  0
  7  8  2  0
  7  2  1  0
 10  7  1  0
 11 10  1  0
 11 12  1  6
 12 13  1  0
 13 21  1  0
 13 14  2  0
 14 15  1  0
 16 15  1  0
 16 17  2  0
 18 17  1  0
 19 18  2  0
 20 21  2  0
 20 19  1  0
 21 16  1  0
 22 28  1  0
 22 11  1  0
 23 22  2  0
 25 27  1  0
 25 24  1  6
 26 25  1  0
 27 29  1  0
 27 28  1  1
 29 31  1  0
 30 29  2  0
M  END
$$$$
