EWV.pdb
     RDKit          3D

 31 32  0  0  1  0  0  0  0  0999 V2000
   27.7467  -21.5043  -15.3902 N   0  0  0  0  0  0  0  0  0  0  0  0
   27.7945  -20.4684  -14.3860 C   0  0  1  0  0  0  0  0  0  0  0  0
   27.2584  -19.2128  -15.0114 C   0  0  0  0  0  0  0  0  0  0  0  0
   28.1851  -18.6087  -16.0483 C   0  0  0  0  0  0  0  0  0  0  0  0
   27.9335  -19.2218  -17.3852 C   0  0  0  0  0  0  0  0  0  0  0  0
   28.8926  -19.7835  -17.9820 O   0  0  0  0  0  0  0  0  0  0  0  0
   27.0872  -20.9141  -13.1840 C   0  0  0  0  0  0  0  0  0  0  0  0
   25.9413  -21.4819  -13.2166 O   0  0  0  0  0  0  0  0  0  0  0  0
   26.6929  -19.2032  -18.0107 O   0  0  0  0  0  0  0  0  0  0  0  0
   27.6522  -20.7355  -11.8825 N   0  0  0  0  0  0  0  0  0  0  0  0
   26.8859  -20.8593  -10.6557 C   0  0  1  0  0  0  0  0  0  0  0  0
   27.7981  -20.6494   -9.4584 C   0  0  0  0  0  0  0  0  0  0  0  0
   27.1153  -20.6677   -8.1633 C   0  0  0  0  0  0  0  0  0  0  0  0
   25.8385  -21.1751   -7.9537 C   0  0  0  0  0  0  0  0  0  0  0  0
   25.5095  -21.0568   -6.6469 N   0  0  0  0  0  0  0  0  0  0  0  0
   26.5431  -20.4851   -6.0085 C   0  0  0  0  0  0  0  0  0  0  0  0
   26.7030  -20.1413   -4.6753 C   0  0  0  0  0  0  0  0  0  0  0  0
   27.8564  -19.5468   -4.2375 C   0  0  0  0  0  0  0  0  0  0  0  0
   28.8710  -19.2907   -5.1477 C   0  0  0  0  0  0  0  0  0  0  0  0
   28.6981  -19.6362   -6.4610 C   0  0  0  0  0  0  0  0  0  0  0  0
   27.5361  -20.2435   -6.9416 C   0  0  0  0  0  0  0  0  0  0  0  0
   25.6243  -20.1450  -10.6213 C   0  0  0  0  0  0  0  0  0  0  0  0
   25.4569  -18.9235  -10.3611 O   0  0  0  0  0  0  0  0  0  0  0  0
   21.3597  -20.2589  -12.9392 C   0  0  0  0  0  0  0  0  0  0  0  0
   22.7582  -20.6299  -12.5720 C   0  0  1  0  0  0  0  0  0  0  0  0
   23.6772  -20.0084  -13.5814 C   0  0  0  0  0  0  0  0  0  0  0  0
   23.1350  -20.2915  -11.1315 C   0  0  2  0  0  0  0  0  0  0  0  0
   24.4379  -20.8972  -10.9190 N   0  0  0  0  0  0  0  0  0  0  0  0
   22.1069  -20.8678  -10.2778 C   0  0  0  0  0  0  0  0  0  0  0  0
   21.1029  -20.2034   -9.9521 O   0  0  0  0  0  0  0  0  0  0  0  0
   22.2223  -22.1627   -9.8108 O   0  0  0  0  0  0  0  0  0  0  0  0
  2  1  1  6
  3  2  1  0
  3  4  1  0
  4  5  1  0
  5  9  1  0
  6  5  2  0
  7  8  2  0
  7  2  1  0
 10  7  1  0
 11 10  1  0
 11 12  1  1
 12 13  1  0
 13 21  1  0
 13 14  2  0
 14 15  1  0
 16 15  1  0
 16 17  2  0
 18 17  1  0
 19 18  2  0
 20 21  2  0
 20 19  1  0
 21 16  1  0
 22 28  1  0
 22 11  1  0
 23 22  2  0
 25 27  1  0
 25 24  1  6
 26 25  1  0
 27 29  1  0
 27 28  1  1
 29 31  1  0
 30 29  2  0
M  END
$$$$
