EWV.pdb
     RDKit          3D

 31 32  0  0  1  0  0  0  0  0999 V2000
   28.8812  -21.5112  -14.0273 N   0  0  0  0  0  0  0  0  0  0  0  0
   28.1178  -20.4220  -13.4664 C   0  0  1  0  0  0  0  0  0  0  0  0
   27.5389  -19.6435  -14.6126 C   0  0  0  0  0  0  0  0  0  0  0  0
   28.5790  -18.8973  -15.4252 C   0  0  0  0  0  0  0  0  0  0  0  0
   28.6811  -19.4819  -16.7944 C   0  0  0  0  0  0  0  0  0  0  0  0
   27.7273  -20.1883  -17.2219 O   0  0  0  0  0  0  0  0  0  0  0  0
   27.1372  -20.9465  -12.5141 C   0  0  0  0  0  0  0  0  0  0  0  0
   26.5494  -22.0729  -12.6639 O   0  0  0  0  0  0  0  0  0  0  0  0
   29.7785  -19.2901  -17.6248 O   0  0  0  0  0  0  0  0  0  0  0  0
   26.7776  -20.2125  -11.3406 N   0  0  0  0  0  0  0  0  0  0  0  0
   25.6016  -20.5089  -10.5428 C   0  0  1  0  0  0  0  0  0  0  0  0
   25.8428  -20.0938   -9.1007 C   0  0  0  0  0  0  0  0  0  0  0  0
   27.1025  -20.5767   -8.5318 C   0  0  0  0  0  0  0  0  0  0  0  0
   27.9813  -21.4358   -9.1809 C   0  0  0  0  0  0  0  0  0  0  0  0
   29.0540  -21.6728   -8.3914 N   0  0  0  0  0  0  0  0  0  0  0  0
   28.8883  -20.9876   -7.2487 C   0  0  0  0  0  0  0  0  0  0  0  0
   29.6914  -20.9019   -6.1222 C   0  0  0  0  0  0  0  0  0  0  0  0
   29.3151  -20.1391   -5.0489 C   0  0  0  0  0  0  0  0  0  0  0  0
   28.1141  -19.4475   -5.1004 C   0  0  0  0  0  0  0  0  0  0  0  0
   27.3321  -19.5421   -6.2200 C   0  0  0  0  0  0  0  0  0  0  0  0
   27.6846  -20.3099   -7.3319 C   0  0  0  0  0  0  0  0  0  0  0  0
   24.3305  -20.1045  -11.1120 C   0  0  0  0  0  0  0  0  0  0  0  0
   23.9168  -18.9248  -11.2696 O   0  0  0  0  0  0  0  0  0  0  0  0
   23.2589  -21.5173  -14.4311 C   0  0  0  0  0  0  0  0  0  0  0  0
   22.1836  -21.8206  -13.4412 C   0  0  1  0  0  0  0  0  0  0  0  0
   22.2863  -23.2737  -13.0839 C   0  0  0  0  0  0  0  0  0  0  0  0
   22.1831  -20.9029  -12.2208 C   0  0  2  0  0  0  0  0  0  0  0  0
   23.4478  -21.1488  -11.5501 N   0  0  0  0  0  0  0  0  0  0  0  0
   21.0378  -21.2811  -11.4064 C   0  0  0  0  0  0  0  0  0  0  0  0
   21.1716  -22.0590  -10.4409 O   0  0  0  0  0  0  0  0  0  0  0  0
   19.7790  -20.7860  -11.6865 O   0  0  0  0  0  0  0  0  0  0  0  0
  2  1  1  6
  3  2  1  0
  3  4  1  0
  4  5  1  0
  5  9  1  0
  6  5  2  0
  7  8  2  0
  7  2  1  0
 10  7  1  0
 11 10  1  0
 11 12  1  1
 12 13  1  0
 13 21  1  0
 13 14  2  0
 14 15  1  0
 16 15  1  0
 16 17  2  0
 18 17  1  0
 19 18  2  0
 20 21  2  0
 20 19  1  0
 21 16  1  0
 22 28  1  0
 22 11  1  0
 23 22  2  0
 25 27  1  0
 25 24  1  6
 26 25  1  0
 27 29  1  0
 27 28  1  1
 29 31  1  0
 30 29  2  0
M  END
$$$$
