EWV.pdb
     RDKit          3D

 31 32  0  0  1  0  0  0  0  0999 V2000
   20.6674  -20.2307   -9.9544 N   0  0  0  0  0  0  0  0  0  0  0  0
   21.8860  -20.9995   -9.8667 C   0  0  1  0  0  0  0  0  0  0  0  0
   21.6425  -22.3068  -10.5644 C   0  0  0  0  0  0  0  0  0  0  0  0
   20.4725  -23.0874   -9.9979 C   0  0  0  0  0  0  0  0  0  0  0  0
   19.2792  -22.9430  -10.8821 C   0  0  0  0  0  0  0  0  0  0  0  0
   18.2039  -22.5151  -10.3799 O   0  0  0  0  0  0  0  0  0  0  0  0
   23.0035  -20.2137  -10.3932 C   0  0  0  0  0  0  0  0  0  0  0  0
   22.8795  -19.3765  -11.3526 O   0  0  0  0  0  0  0  0  0  0  0  0
   19.2904  -23.2600  -12.2349 O   0  0  0  0  0  0  0  0  0  0  0  0
   24.3205  -20.3420   -9.8506 N   0  0  0  0  0  0  0  0  0  0  0  0
   25.4981  -19.7583  -10.4670 C   0  0  1  0  0  0  0  0  0  0  0  0
   26.4840  -19.3360   -9.3901 C   0  0  0  0  0  0  0  0  0  0  0  0
   26.3292  -20.0386   -8.1149 C   0  0  0  0  0  0  0  0  0  0  0  0
   25.3039  -20.9320   -7.8278 C   0  0  0  0  0  0  0  0  0  0  0  0
   25.4592  -21.4171   -6.5745 N   0  0  0  0  0  0  0  0  0  0  0  0
   26.5597  -20.8580   -6.0462 C   0  0  0  0  0  0  0  0  0  0  0  0
   27.1418  -21.0138   -4.7979 C   0  0  0  0  0  0  0  0  0  0  0  0
   28.2762  -20.3243   -4.4619 C   0  0  0  0  0  0  0  0  0  0  0  0
   28.8418  -19.4624   -5.3896 C   0  0  0  0  0  0  0  0  0  0  0  0
   28.2553  -19.3194   -6.6182 C   0  0  0  0  0  0  0  0  0  0  0  0
   27.0991  -20.0065   -6.9943 C   0  0  0  0  0  0  0  0  0  0  0  0
   26.0596  -20.4931  -11.5840 C   0  0  0  0  0  0  0  0  0  0  0  0
   25.9025  -21.7178  -11.8354 O   0  0  0  0  0  0  0  0  0  0  0  0
   28.2093  -19.2336  -15.9629 C   0  0  0  0  0  0  0  0  0  0  0  0
   27.7882  -18.9777  -14.5539 C   0  0  1  0  0  0  0  0  0  0  0  0
   26.9566  -17.7294  -14.5438 C   0  0  0  0  0  0  0  0  0  0  0  0
   27.0962  -20.1631  -13.8851 C   0  0  2  0  0  0  0  0  0  0  0  0
   26.8752  -19.7567  -12.5083 N   0  0  0  0  0  0  0  0  0  0  0  0
   28.0008  -21.2979  -13.9926 C   0  0  0  0  0  0  0  0  0  0  0  0
   28.9327  -21.4495  -13.1777 O   0  0  0  0  0  0  0  0  0  0  0  0
   27.8457  -22.2306  -14.9997 O   0  0  0  0  0  0  0  0  0  0  0  0
  2  1  1  6
  3  2  1  0
  3  4  1  0
  4  5  1  0
  5  9  1  0
  6  5  2  0
  7  8  2  0
  7  2  1  0
 10  7  1  0
 11 10  1  0
 11 12  1  1
 12 13  1  0
 13 21  1  0
 13 14  2  0
 14 15  1  0
 16 15  1  0
 16 17  2  0
 18 17  1  0
 19 18  2  0
 20 21  2  0
 20 19  1  0
 21 16  1  0
 22 28  1  0
 22 11  1  0
 23 22  2  0
 25 27  1  0
 25 24  1  6
 26 25  1  0
 27 29  1  0
 27 28  1  1
 29 31  1  0
 30 29  2  0
M  END
$$$$
