EWV.pdb
     RDKit          3D

 31 32  0  0  1  0  0  0  0  0999 V2000
   28.0100  -22.0430  -15.0524 N   0  0  0  0  0  0  0  0  0  0  0  0
   27.1830  -20.9370  -14.6319 C   0  0  1  0  0  0  0  0  0  0  0  0
   26.5716  -20.3397  -15.8666 C   0  0  0  0  0  0  0  0  0  0  0  0
   27.5706  -20.0974  -16.9812 C   0  0  0  0  0  0  0  0  0  0  0  0
   27.8034  -18.6340  -17.1566 C   0  0  0  0  0  0  0  0  0  0  0  0
   28.9847  -18.2273  -17.3320 O   0  0  0  0  0  0  0  0  0  0  0  0
   26.2248  -21.3936  -13.6234 C   0  0  0  0  0  0  0  0  0  0  0  0
   25.6705  -22.5462  -13.6561 O   0  0  0  0  0  0  0  0  0  0  0  0
   26.7823  -17.6919  -17.1336 O   0  0  0  0  0  0  0  0  0  0  0  0
   25.8507  -20.5583  -12.5246 N   0  0  0  0  0  0  0  0  0  0  0  0
   24.7194  -20.8374  -11.6587 C   0  0  1  0  0  0  0  0  0  0  0  0
   25.0523  -20.4289  -10.2331 C   0  0  0  0  0  0  0  0  0  0  0  0
   26.4047  -20.7843   -9.7991 C   0  0  0  0  0  0  0  0  0  0  0  0
   27.2469  -21.6551  -10.4805 C   0  0  0  0  0  0  0  0  0  0  0  0
   28.4266  -21.7545   -9.8259 N   0  0  0  0  0  0  0  0  0  0  0  0
   28.3657  -20.9690   -8.7385 C   0  0  0  0  0  0  0  0  0  0  0  0
   29.3010  -20.7288   -7.7443 C   0  0  0  0  0  0  0  0  0  0  0  0
   29.0177  -19.8845   -6.7039 C   0  0  0  0  0  0  0  0  0  0  0  0
   27.7768  -19.2671   -6.6545 C   0  0  0  0  0  0  0  0  0  0  0  0
   26.8638  -19.5144   -7.6441 C   0  0  0  0  0  0  0  0  0  0  0  0
   27.1190  -20.3688   -8.7189 C   0  0  0  0  0  0  0  0  0  0  0  0
   23.4235  -20.4117  -12.1512 C   0  0  0  0  0  0  0  0  0  0  0  0
   23.0601  -19.2293  -12.3916 O   0  0  0  0  0  0  0  0  0  0  0  0
   21.8998  -21.8056  -15.2263 C   0  0  0  0  0  0  0  0  0  0  0  0
   20.9435  -22.0836  -14.1144 C   0  0  1  0  0  0  0  0  0  0  0  0
   21.0505  -23.5397  -13.7712 C   0  0  0  0  0  0  0  0  0  0  0  0
   21.1129  -21.1692  -12.9033 C   0  0  2  0  0  0  0  0  0  0  0  0
   22.4489  -21.4364  -12.3997 N   0  0  0  0  0  0  0  0  0  0  0  0
   20.0752  -21.5320  -11.9497 C   0  0  0  0  0  0  0  0  0  0  0  0
   20.3323  -22.2711  -10.9786 O   0  0  0  0  0  0  0  0  0  0  0  0
   18.7840  -21.0650  -12.1009 O   0  0  0  0  0  0  0  0  0  0  0  0
  2  1  1  6
  3  2  1  0
  3  4  1  0
  4  5  1  0
  5  9  1  0
  6  5  2  0
  7  8  2  0
  7  2  1  0
 10  7  1  0
 11 10  1  0
 11 12  1  1
 12 13  1  0
 13 21  1  0
 13 14  2  0
 14 15  1  0
 16 15  1  0
 16 17  2  0
 18 17  1  0
 19 18  2  0
 20 21  2  0
 20 19  1  0
 21 16  1  0
 22 28  1  0
 22 11  1  0
 23 22  2  0
 25 27  1  0
 25 24  1  6
 26 25  1  0
 27 29  1  0
 27 28  1  1
 29 31  1  0
 30 29  2  0
M  END
$$$$
