EWV.pdb
     RDKit          3D

 31 32  0  0  1  0  0  0  0  0999 V2000
   27.3382  -21.6201  -15.2504 N   0  0  0  0  0  0  0  0  0  0  0  0
   27.4305  -20.5651  -14.2694 C   0  0  1  0  0  0  0  0  0  0  0  0
   26.8449  -19.3273  -14.8860 C   0  0  0  0  0  0  0  0  0  0  0  0
   27.8316  -18.5468  -15.7323 C   0  0  0  0  0  0  0  0  0  0  0  0
   28.0439  -19.2315  -17.0410 C   0  0  0  0  0  0  0  0  0  0  0  0
   27.0747  -19.3116  -17.8447 O   0  0  0  0  0  0  0  0  0  0  0  0
   26.7977  -20.9958  -13.0213 C   0  0  0  0  0  0  0  0  0  0  0  0
   25.6895  -21.6340  -12.9826 O   0  0  0  0  0  0  0  0  0  0  0  0
   29.2581  -19.7905  -17.4204 O   0  0  0  0  0  0  0  0  0  0  0  0
   27.3980  -20.7213  -11.7528 N   0  0  0  0  0  0  0  0  0  0  0  0
   26.7021  -20.8821  -10.4889 C   0  0  1  0  0  0  0  0  0  0  0  0
   27.6826  -20.7159   -9.3395 C   0  0  0  0  0  0  0  0  0  0  0  0
   27.0661  -20.7042   -8.0115 C   0  0  0  0  0  0  0  0  0  0  0  0
   25.8413  -21.2863   -7.7071 C   0  0  0  0  0  0  0  0  0  0  0  0
   25.5679  -21.1132   -6.3935 N   0  0  0  0  0  0  0  0  0  0  0  0
   26.5867  -20.4333   -5.8433 C   0  0  0  0  0  0  0  0  0  0  0  0
   26.7851  -19.9999   -4.5418 C   0  0  0  0  0  0  0  0  0  0  0  0
   27.9119  -19.3010   -4.1992 C   0  0  0  0  0  0  0  0  0  0  0  0
   28.8601  -19.0296   -5.1743 C   0  0  0  0  0  0  0  0  0  0  0  0
   28.6498  -19.4645   -6.4551 C   0  0  0  0  0  0  0  0  0  0  0  0
   27.5133  -20.1792   -6.8393 C   0  0  0  0  0  0  0  0  0  0  0  0
   25.4492  -20.1636  -10.3589 C   0  0  0  0  0  0  0  0  0  0  0  0
   25.3055  -18.9213  -10.2041 O   0  0  0  0  0  0  0  0  0  0  0  0
   22.7389  -21.6828  -12.8185 C   0  0  0  0  0  0  0  0  0  0  0  0
   22.7771  -20.3330  -12.1824 C   0  0  1  0  0  0  0  0  0  0  0  0
   21.5626  -19.5784  -12.6356 C   0  0  0  0  0  0  0  0  0  0  0  0
   22.9302  -20.3639  -10.6635 C   0  0  2  0  0  0  0  0  0  0  0  0
   24.2415  -20.9380  -10.4175 N   0  0  0  0  0  0  0  0  0  0  0  0
   21.8526  -21.1936  -10.1455 C   0  0  0  0  0  0  0  0  0  0  0  0
   21.9354  -22.4377  -10.1758 O   0  0  0  0  0  0  0  0  0  0  0  0
   20.7160  -20.6199   -9.6097 O   0  0  0  0  0  0  0  0  0  0  0  0
  2  1  1  6
  3  2  1  0
  3  4  1  0
  4  5  1  0
  5  9  1  0
  6  5  2  0
  7  8  2  0
  7  2  1  0
 10  7  1  0
 11 10  1  0
 11 12  1  1
 12 13  1  0
 13 21  1  0
 13 14  2  0
 14 15  1  0
 16 15  1  0
 16 17  2  0
 18 17  1  0
 19 18  2  0
 20 21  2  0
 20 19  1  0
 21 16  1  0
 22 28  1  0
 22 11  1  0
 23 22  2  0
 25 27  1  0
 25 24  1  1
 26 25  1  0
 27 29  1  0
 27 28  1  6
 29 31  1  0
 30 29  2  0
M  END
$$$$
