EWV.pdb
     RDKit          3D

 31 32  0  0  1  0  0  0  0  0999 V2000
   28.4368  -21.9546  -16.3251 N   0  0  0  0  0  0  0  0  0  0  0  0
   27.5002  -20.8642  -16.1939 C   0  0  1  0  0  0  0  0  0  0  0  0
   26.7444  -20.7643  -17.4878 C   0  0  0  0  0  0  0  0  0  0  0  0
   27.1476  -19.5732  -18.3349 C   0  0  0  0  0  0  0  0  0  0  0  0
   28.4873  -19.8066  -18.9493 C   0  0  0  0  0  0  0  0  0  0  0  0
   28.6794  -20.8761  -19.5903 O   0  0  0  0  0  0  0  0  0  0  0  0
   26.6707  -21.0672  -15.0047 C   0  0  0  0  0  0  0  0  0  0  0  0
   25.4842  -21.5433  -15.0521 O   0  0  0  0  0  0  0  0  0  0  0  0
   29.5393  -18.9046  -18.8486 O   0  0  0  0  0  0  0  0  0  0  0  0
   27.1535  -20.7383  -13.6994 N   0  0  0  0  0  0  0  0  0  0  0  0
   26.3577  -20.8835  -12.4939 C   0  0  1  0  0  0  0  0  0  0  0  0
   27.2422  -20.7028  -11.2712 C   0  0  0  0  0  0  0  0  0  0  0  0
   26.5314  -20.7627   -9.9926 C   0  0  0  0  0  0  0  0  0  0  0  0
   25.3695  -21.4925   -9.7712 C   0  0  0  0  0  0  0  0  0  0  0  0
   24.9791  -21.3492   -8.4839 N   0  0  0  0  0  0  0  0  0  0  0  0
   25.8609  -20.5443   -7.8696 C   0  0  0  0  0  0  0  0  0  0  0  0
   25.9057  -20.0835   -6.5631 C   0  0  0  0  0  0  0  0  0  0  0  0
   26.9075  -19.2471   -6.1482 C   0  0  0  0  0  0  0  0  0  0  0  0
   27.8847  -18.8632   -7.0544 C   0  0  0  0  0  0  0  0  0  0  0  0
   27.8269  -19.3268   -8.3411 C   0  0  0  0  0  0  0  0  0  0  0  0
   26.8204  -20.1803   -8.7980 C   0  0  0  0  0  0  0  0  0  0  0  0
   25.0988  -20.1639  -12.4745 C   0  0  0  0  0  0  0  0  0  0  0  0
   24.9393  -18.9210  -12.6070 O   0  0  0  0  0  0  0  0  0  0  0  0
   22.6830  -20.0092  -14.7528 C   0  0  0  0  0  0  0  0  0  0  0  0
   21.9575  -20.6475  -13.6151 C   0  0  1  0  0  0  0  0  0  0  0  0
   21.8370  -22.1127  -13.9127 C   0  0  0  0  0  0  0  0  0  0  0  0
   22.5716  -20.3635  -12.2463 C   0  0  2  0  0  0  0  0  0  0  0  0
   23.9043  -20.9395  -12.2922 N   0  0  0  0  0  0  0  0  0  0  0  0
   21.7201  -21.0077  -11.2575 C   0  0  0  0  0  0  0  0  0  0  0  0
   21.9938  -22.1449  -10.8248 O   0  0  0  0  0  0  0  0  0  0  0  0
   20.5909  -20.3725  -10.7782 O   0  0  0  0  0  0  0  0  0  0  0  0
  2  1  1  6
  3  2  1  0
  3  4  1  0
  4  5  1  0
  5  9  1  0
  6  5  2  0
  7  8  2  0
  7  2  1  0
 10  7  1  0
 11 10  1  0
 11 12  1  1
 12 13  1  0
 13 21  1  0
 13 14  2  0
 14 15  1  0
 16 15  1  0
 16 17  2  0
 18 17  1  0
 19 18  2  0
 20 21  2  0
 20 19  1  0
 21 16  1  0
 22 28  1  0
 22 11  1  0
 23 22  2  0
 25 27  1  0
 25 24  1  6
 26 25  1  0
 27 29  1  0
 27 28  1  6
 29 31  1  0
 30 29  2  0
M  END
$$$$
