EWV.pdb
     RDKit          3D

 31 32  0  0  1  0  0  0  0  0999 V2000
   29.1801  -21.0109  -14.8092 N   0  0  0  0  0  0  0  0  0  0  0  0
   27.8451  -21.5027  -15.0534 C   0  0  1  0  0  0  0  0  0  0  0  0
   27.9753  -22.8141  -15.7734 C   0  0  0  0  0  0  0  0  0  0  0  0
   28.9630  -22.7787  -16.9233 C   0  0  0  0  0  0  0  0  0  0  0  0
   28.5316  -21.7790  -17.9437 C   0  0  0  0  0  0  0  0  0  0  0  0
   27.4338  -21.9590  -18.5388 O   0  0  0  0  0  0  0  0  0  0  0  0
   27.1019  -21.5577  -13.7931 C   0  0  0  0  0  0  0  0  0  0  0  0
   25.8839  -21.9413  -13.7153 O   0  0  0  0  0  0  0  0  0  0  0  0
   29.2812  -20.6572  -18.2758 O   0  0  0  0  0  0  0  0  0  0  0  0
   27.7112  -21.1786  -12.5562 N   0  0  0  0  0  0  0  0  0  0  0  0
   26.9943  -21.1313  -11.2947 C   0  0  1  0  0  0  0  0  0  0  0  0
   27.9763  -20.9141  -10.1552 C   0  0  0  0  0  0  0  0  0  0  0  0
   27.3530  -20.6245   -8.8624 C   0  0  0  0  0  0  0  0  0  0  0  0
   25.9814  -20.5747   -8.6434 C   0  0  0  0  0  0  0  0  0  0  0  0
   25.7370  -20.3008   -7.3413 N   0  0  0  0  0  0  0  0  0  0  0  0
   26.9179  -20.1724   -6.7152 C   0  0  0  0  0  0  0  0  0  0  0  0
   27.2120  -19.8861   -5.3913 C   0  0  0  0  0  0  0  0  0  0  0  0
   28.5101  -19.7898   -4.9660 C   0  0  0  0  0  0  0  0  0  0  0  0
   29.5356  -19.9837   -5.8794 C   0  0  0  0  0  0  0  0  0  0  0  0
   29.2291  -20.2659   -7.1834 C   0  0  0  0  0  0  0  0  0  0  0  0
   27.9175  -20.3715   -7.6512 C   0  0  0  0  0  0  0  0  0  0  0  0
   25.8060  -20.3004  -11.2712 C   0  0  0  0  0  0  0  0  0  0  0  0
   25.7673  -19.0427  -11.2050 O   0  0  0  0  0  0  0  0  0  0  0  0
   23.9869  -19.3621  -13.7127 C   0  0  0  0  0  0  0  0  0  0  0  0
   22.9970  -20.1892  -12.9615 C   0  0  1  0  0  0  0  0  0  0  0  0
   22.9254  -21.5327  -13.6245 C   0  0  0  0  0  0  0  0  0  0  0  0
   23.2680  -20.2759  -11.4613 C   0  0  2  0  0  0  0  0  0  0  0  0
   24.5376  -20.9702  -11.3361 N   0  0  0  0  0  0  0  0  0  0  0  0
   22.1650  -21.0215  -10.8737 C   0  0  0  0  0  0  0  0  0  0  0  0
   22.2817  -22.2366  -10.6183 O   0  0  0  0  0  0  0  0  0  0  0  0
   20.9661  -20.3982  -10.5868 O   0  0  0  0  0  0  0  0  0  0  0  0
  2  1  1  1
  3  2  1  0
  3  4  1  0
  4  5  1  0
  5  9  1  0
  6  5  2  0
  7  8  2  0
  7  2  1  0
 10  7  1  0
 11 10  1  0
 11 12  1  1
 12 13  1  0
 13 21  1  0
 13 14  2  0
 14 15  1  0
 16 15  1  0
 16 17  2  0
 18 17  1  0
 19 18  2  0
 20 21  2  0
 20 19  1  0
 21 16  1  0
 22 28  1  0
 22 11  1  0
 23 22  2  0
 25 27  1  0
 25 24  1  6
 26 25  1  0
 27 29  1  0
 27 28  1  6
 29 31  1  0
 30 29  2  0
M  END
$$$$
