EWV.pdb
     RDKit          3D

 31 32  0  0  1  0  0  0  0  0999 V2000
   27.9089  -22.5826  -15.8217 N   0  0  0  0  0  0  0  0  0  0  0  0
   28.2822  -21.5260  -14.9117 C   0  0  1  0  0  0  0  0  0  0  0  0
   28.2729  -20.2410  -15.6888 C   0  0  0  0  0  0  0  0  0  0  0  0
   27.2352  -20.2085  -16.7938 C   0  0  0  0  0  0  0  0  0  0  0  0
   26.5772  -18.8702  -16.8448 C   0  0  0  0  0  0  0  0  0  0  0  0
   25.6305  -18.6936  -17.6597 O   0  0  0  0  0  0  0  0  0  0  0  0
   27.4030  -21.5500  -13.7412 C   0  0  0  0  0  0  0  0  0  0  0  0
   26.1580  -21.8371  -13.8072 O   0  0  0  0  0  0  0  0  0  0  0  0
   26.9572  -17.8032  -16.0400 O   0  0  0  0  0  0  0  0  0  0  0  0
   27.8999  -21.2484  -12.4346 N   0  0  0  0  0  0  0  0  0  0  0  0
   27.0430  -21.0692  -11.2765 C   0  0  1  0  0  0  0  0  0  0  0  0
   27.8921  -20.7650  -10.0532 C   0  0  0  0  0  0  0  0  0  0  0  0
   27.1440  -20.6925   -8.7967 C   0  0  0  0  0  0  0  0  0  0  0  0
   25.7822  -20.9428   -8.6758 C   0  0  0  0  0  0  0  0  0  0  0  0
   25.4065  -20.8073   -7.3832 N   0  0  0  0  0  0  0  0  0  0  0  0
   26.4931  -20.4755   -6.6675 C   0  0  0  0  0  0  0  0  0  0  0  0
   26.6386  -20.2174   -5.3135 C   0  0  0  0  0  0  0  0  0  0  0  0
   27.8586  -19.8800   -4.7909 C   0  0  0  0  0  0  0  0  0  0  0  0
   28.9556  -19.7991   -5.6356 C   0  0  0  0  0  0  0  0  0  0  0  0
   28.7958  -20.0570   -6.9705 C   0  0  0  0  0  0  0  0  0  0  0  0
   27.5673  -20.4037   -7.5369 C   0  0  0  0  0  0  0  0  0  0  0  0
   25.8857  -20.2169  -11.4696 C   0  0  0  0  0  0  0  0  0  0  0  0
   25.8860  -18.9631  -11.5955 O   0  0  0  0  0  0  0  0  0  0  0  0
   24.1070  -19.4943  -14.0243 C   0  0  0  0  0  0  0  0  0  0  0  0
   23.0612  -20.1594  -13.1924 C   0  0  1  0  0  0  0  0  0  0  0  0
   22.8569  -21.5433  -13.7334 C   0  0  0  0  0  0  0  0  0  0  0  0
   23.3515  -20.1398  -11.6934 C   0  0  2  0  0  0  0  0  0  0  0  0
   24.6030  -20.8590  -11.5314 N   0  0  0  0  0  0  0  0  0  0  0  0
   22.2368  -20.8063  -11.0369 C   0  0  0  0  0  0  0  0  0  0  0  0
   22.3297  -21.9961  -10.6745 O   0  0  0  0  0  0  0  0  0  0  0  0
   21.0529  -20.1346  -10.8018 O   0  0  0  0  0  0  0  0  0  0  0  0
  2  1  1  6
  3  2  1  0
  3  4  1  0
  4  5  1  0
  5  9  1  0
  6  5  2  0
  7  8  2  0
  7  2  1  0
 10  7  1  0
 11 10  1  0
 11 12  1  1
 12 13  1  0
 13 21  1  0
 13 14  2  0
 14 15  1  0
 16 15  1  0
 16 17  2  0
 18 17  1  0
 19 18  2  0
 20 21  2  0
 20 19  1  0
 21 16  1  0
 22 28  1  0
 22 11  1  0
 23 22  2  0
 25 27  1  0
 25 24  1  6
 26 25  1  0
 27 29  1  0
 27 28  1  6
 29 31  1  0
 30 29  2  0
M  END
$$$$
