EWV.pdb
     RDKit          3D

 31 32  0  0  1  0  0  0  0  0999 V2000
   16.0858  -11.6099  -16.3513 N   0  0  0  0  0  0  0  0  0  0  0  0
   15.3304  -11.2802  -15.1662 C   0  0  1  0  0  0  0  0  0  0  0  0
   14.9750  -12.5717  -14.4874 C   0  0  0  0  0  0  0  0  0  0  0  0
   14.0918  -13.4745  -15.3265 C   0  0  0  0  0  0  0  0  0  0  0  0
   13.8934  -14.7848  -14.6407 C   0  0  0  0  0  0  0  0  0  0  0  0
   14.6087  -15.7635  -14.9900 O   0  0  0  0  0  0  0  0  0  0  0  0
   16.0896  -10.3356  -14.3447 C   0  0  0  0  0  0  0  0  0  0  0  0
   15.6778   -9.9046  -13.2127 O   0  0  0  0  0  0  0  0  0  0  0  0
   12.9553  -14.9841  -13.6352 O   0  0  0  0  0  0  0  0  0  0  0  0
   17.3590   -9.8350  -14.7725 N   0  0  0  0  0  0  0  0  0  0  0  0
   18.1241   -8.8546  -14.0235 C   0  0  1  0  0  0  0  0  0  0  0  0
   19.5924   -8.9512  -14.4039 C   0  0  0  0  0  0  0  0  0  0  0  0
   20.4720   -8.0405  -13.6687 C   0  0  0  0  0  0  0  0  0  0  0  0
   20.9065   -8.2471  -12.3647 C   0  0  0  0  0  0  0  0  0  0  0  0
   21.7175   -7.2320  -11.9879 N   0  0  0  0  0  0  0  0  0  0  0  0
   21.8165   -6.3755  -13.0173 C   0  0  0  0  0  0  0  0  0  0  0  0
   22.5135   -5.1834  -13.1366 C   0  0  0  0  0  0  0  0  0  0  0  0
   22.4628   -4.4540  -14.2945 C   0  0  0  0  0  0  0  0  0  0  0  0
   21.7021   -4.9234  -15.3549 C   0  0  0  0  0  0  0  0  0  0  0  0
   21.0196   -6.1025  -15.2217 C   0  0  0  0  0  0  0  0  0  0  0  0
   21.0488   -6.8714  -14.0564 C   0  0  0  0  0  0  0  0  0  0  0  0
   17.5697   -7.5153  -13.9809 C   0  0  0  0  0  0  0  0  0  0  0  0
   17.1387   -6.8468  -14.9582 O   0  0  0  0  0  0  0  0  0  0  0  0
   15.2912   -6.5454  -10.8268 C   0  0  0  0  0  0  0  0  0  0  0  0
   16.3923   -5.5644  -11.0576 C   0  0  1  0  0  0  0  0  0  0  0  0
   17.4553   -5.8185  -10.0304 C   0  0  0  0  0  0  0  0  0  0  0  0
   16.9306   -5.5565  -12.4865 C   0  0  2  0  0  0  0  0  0  0  0  0
   17.4938   -6.8789  -12.6960 N   0  0  0  0  0  0  0  0  0  0  0  0
   17.9353   -4.5058  -12.5553 C   0  0  0  0  0  0  0  0  0  0  0  0
   19.1499   -4.7800  -12.4861 O   0  0  0  0  0  0  0  0  0  0  0  0
   17.5637   -3.1831  -12.6985 O   0  0  0  0  0  0  0  0  0  0  0  0
  2  1  1  6
  3  2  1  0
  3  4  1  0
  4  5  1  0
  5  9  1  0
  6  5  2  0
  7  8  2  0
  7  2  1  0
 10  7  1  0
 11 10  1  0
 11 12  1  6
 12 13  1  0
 13 21  1  0
 13 14  2  0
 14 15  1  0
 16 15  1  0
 16 17  2  0
 18 17  1  0
 19 18  2  0
 20 21  2  0
 20 19  1  0
 21 16  1  0
 22 28  1  0
 22 11  1  0
 23 22  2  0
 25 27  1  0
 25 24  1  6
 26 25  1  0
 27 29  1  0
 27 28  1  1
 29 31  1  0
 30 29  2  0
M  END
$$$$
