EWV.pdb
     RDKit          3D

 31 32  0  0  1  0  0  0  0  0999 V2000
   29.0227  -20.1428  -14.1918 N   0  0  0  0  0  0  0  0  0  0  0  0
   27.7065  -20.6625  -14.4770 C   0  0  1  0  0  0  0  0  0  0  0  0
   27.8481  -21.6503  -15.5992 C   0  0  0  0  0  0  0  0  0  0  0  0
   28.3180  -21.0274  -16.8993 C   0  0  0  0  0  0  0  0  0  0  0  0
   27.2755  -20.1044  -17.4359 C   0  0  0  0  0  0  0  0  0  0  0  0
   26.0612  -20.3966  -17.2582 O   0  0  0  0  0  0  0  0  0  0  0  0
   27.1113  -21.1971  -13.2509 C   0  0  0  0  0  0  0  0  0  0  0  0
   27.7647  -21.8997  -12.4046 O   0  0  0  0  0  0  0  0  0  0  0  0
   27.5744  -18.9365  -18.1268 O   0  0  0  0  0  0  0  0  0  0  0  0
   25.7394  -20.9562  -12.9268 N   0  0  0  0  0  0  0  0  0  0  0  0
   25.2368  -20.9115  -11.5656 C   0  0  1  0  0  0  0  0  0  0  0  0
   26.0284  -19.8942  -10.7603 C   0  0  0  0  0  0  0  0  0  0  0  0
   27.1372  -20.4594   -9.9891 C   0  0  0  0  0  0  0  0  0  0  0  0
   28.0757  -21.3501  -10.4966 C   0  0  0  0  0  0  0  0  0  0  0  0
   28.9729  -21.6649   -9.5343 N   0  0  0  0  0  0  0  0  0  0  0  0
   28.6357  -20.9989   -8.4182 C   0  0  0  0  0  0  0  0  0  0  0  0
   29.2228  -20.9845   -7.1627 C   0  0  0  0  0  0  0  0  0  0  0  0
   28.6955  -20.2278   -6.1504 C   0  0  0  0  0  0  0  0  0  0  0  0
   27.5603  -19.4697   -6.3954 C   0  0  0  0  0  0  0  0  0  0  0  0
   26.9922  -19.4943   -7.6407 C   0  0  0  0  0  0  0  0  0  0  0  0
   27.5030  -20.2538   -8.6954 C   0  0  0  0  0  0  0  0  0  0  0  0
   23.7951  -20.8452  -11.4237 C   0  0  0  0  0  0  0  0  0  0  0  0
   23.1548  -20.4582  -10.4098 O   0  0  0  0  0  0  0  0  0  0  0  0
   20.5239  -20.0335  -15.0672 C   0  0  0  0  0  0  0  0  0  0  0  0
   21.7877  -20.5429  -14.4577 C   0  0  1  0  0  0  0  0  0  0  0  0
   22.9184  -19.7092  -14.9831 C   0  0  0  0  0  0  0  0  0  0  0  0
   21.7581  -20.6184  -12.9329 C   0  0  2  0  0  0  0  0  0  0  0  0
   23.0069  -21.2548  -12.5518 N   0  0  0  0  0  0  0  0  0  0  0  0
   20.5943  -21.4133  -12.5703 C   0  0  0  0  0  0  0  0  0  0  0  0
   19.4818  -20.8750  -12.4030 O   0  0  0  0  0  0  0  0  0  0  0  0
   20.6984  -22.7807  -12.4038 O   0  0  0  0  0  0  0  0  0  0  0  0
  2  1  1  1
  3  2  1  0
  3  4  1  0
  4  5  1  0
  5  9  1  0
  6  5  2  0
  7  8  2  0
  7  2  1  0
 10  7  1  0
 11 10  1  0
 11 12  1  6
 12 13  1  0
 13 21  1  0
 13 14  2  0
 14 15  1  0
 16 15  1  0
 16 17  2  0
 18 17  1  0
 19 18  2  0
 20 21  2  0
 20 19  1  0
 21 16  1  0
 22 28  1  0
 22 11  1  0
 23 22  2  0
 25 27  1  0
 25 24  1  1
 26 25  1  0
 27 29  1  0
 27 28  1  6
 29 31  1  0
 30 29  2  0
M  END
$$$$
