EWV.pdb
     RDKit          3D

 31 32  0  0  1  0  0  0  0  0999 V2000
   29.2731  -21.9027  -15.3257 N   0  0  0  0  0  0  0  0  0  0  0  0
   28.2632  -20.9603  -14.9062 C   0  0  1  0  0  0  0  0  0  0  0  0
   27.7503  -20.2743  -16.1396 C   0  0  0  0  0  0  0  0  0  0  0  0
   28.7889  -19.4114  -16.8294 C   0  0  0  0  0  0  0  0  0  0  0  0
   28.8452  -18.0631  -16.1927 C   0  0  0  0  0  0  0  0  0  0  0  0
   27.7646  -17.5179  -15.8367 O   0  0  0  0  0  0  0  0  0  0  0  0
   27.2456  -21.6499  -14.1108 C   0  0  0  0  0  0  0  0  0  0  0  0
   26.5017  -22.5789  -14.5801 O   0  0  0  0  0  0  0  0  0  0  0  0
   30.0310  -17.3728  -15.9736 O   0  0  0  0  0  0  0  0  0  0  0  0
   27.0255  -21.3152  -12.7380 N   0  0  0  0  0  0  0  0  0  0  0  0
   25.8496  -21.7293  -11.9941 C   0  0  1  0  0  0  0  0  0  0  0  0
   26.2543  -22.1584  -10.5934 C   0  0  0  0  0  0  0  0  0  0  0  0
   26.5497  -21.0526   -9.6804 C   0  0  0  0  0  0  0  0  0  0  0  0
   25.7552  -19.9222   -9.5300 C   0  0  0  0  0  0  0  0  0  0  0  0
   26.2977  -19.1038   -8.5994 N   0  0  0  0  0  0  0  0  0  0  0  0
   27.4232  -19.6789   -8.1460 C   0  0  0  0  0  0  0  0  0  0  0  0
   28.3417  -19.2464   -7.2024 C   0  0  0  0  0  0  0  0  0  0  0  0
   29.4429  -20.0014   -6.8979 C   0  0  0  0  0  0  0  0  0  0  0  0
   29.6314  -21.2124   -7.5472 C   0  0  0  0  0  0  0  0  0  0  0  0
   28.7152  -21.6259   -8.4765 C   0  0  0  0  0  0  0  0  0  0  0  0
   27.5818  -20.8820   -8.8113 C   0  0  0  0  0  0  0  0  0  0  0  0
   24.7028  -20.8455  -12.0772 C   0  0  0  0  0  0  0  0  0  0  0  0
   24.6993  -19.5974  -11.9033 O   0  0  0  0  0  0  0  0  0  0  0  0
   20.6591  -20.1742  -14.5570 C   0  0  0  0  0  0  0  0  0  0  0  0
   21.9163  -20.8470  -14.1155 C   0  0  1  0  0  0  0  0  0  0  0  0
   23.0274  -20.3694  -15.0027 C   0  0  0  0  0  0  0  0  0  0  0  0
   22.2236  -20.6803  -12.6292 C   0  0  2  0  0  0  0  0  0  0  0  0
   23.4371  -21.4438  -12.3961 N   0  0  0  0  0  0  0  0  0  0  0  0
   21.0826  -21.2109  -11.8982 C   0  0  0  0  0  0  0  0  0  0  0  0
   20.9040  -22.4414  -11.8015 O   0  0  0  0  0  0  0  0  0  0  0  0
   20.1740  -20.3621  -11.2964 O   0  0  0  0  0  0  0  0  0  0  0  0
  2  1  1  6
  3  2  1  0
  3  4  1  0
  4  5  1  0
  5  9  1  0
  6  5  2  0
  7  8  2  0
  7  2  1  0
 10  7  1  0
 11 10  1  0
 11 12  1  1
 12 13  1  0
 13 21  1  0
 13 14  2  0
 14 15  1  0
 16 15  1  0
 16 17  2  0
 18 17  1  0
 19 18  2  0
 20 21  2  0
 20 19  1  0
 21 16  1  0
 22 28  1  0
 22 11  1  0
 23 22  2  0
 25 27  1  0
 25 24  1  6
 26 25  1  0
 27 29  1  0
 27 28  1  1
 29 31  1  0
 30 29  2  0
M  END
$$$$
