EWV.pdb
     RDKit          3D

 31 32  0  0  1  0  0  0  0  0999 V2000
   27.6618  -21.3618  -17.3571 N   0  0  0  0  0  0  0  0  0  0  0  0
   27.3797  -22.5806  -16.6368 C   0  0  1  0  0  0  0  0  0  0  0  0
   28.6715  -23.3358  -16.5106 C   0  0  0  0  0  0  0  0  0  0  0  0
   29.1488  -23.9428  -17.8156 C   0  0  0  0  0  0  0  0  0  0  0  0
   29.6153  -22.8710  -18.7431 C   0  0  0  0  0  0  0  0  0  0  0  0
   28.8750  -22.5465  -19.7117 O   0  0  0  0  0  0  0  0  0  0  0  0
   26.7203  -22.2624  -15.3690 C   0  0  0  0  0  0  0  0  0  0  0  0
   26.3450  -23.1546  -14.5323 O   0  0  0  0  0  0  0  0  0  0  0  0
   30.8295  -22.2116  -18.5963 O   0  0  0  0  0  0  0  0  0  0  0  0
   26.4562  -20.9090  -14.9900 N   0  0  0  0  0  0  0  0  0  0  0  0
   25.7737  -20.5425  -13.7622 C   0  0  1  0  0  0  0  0  0  0  0  0
   26.6427  -19.5897  -12.9579 C   0  0  0  0  0  0  0  0  0  0  0  0
   27.4159  -20.2266  -11.8901 C   0  0  0  0  0  0  0  0  0  0  0  0
   28.6079  -20.9144  -12.0843 C   0  0  0  0  0  0  0  0  0  0  0  0
   29.0734  -21.3647  -10.8965 N   0  0  0  0  0  0  0  0  0  0  0  0
   28.2103  -20.9840   -9.9409 C   0  0  0  0  0  0  0  0  0  0  0  0
   28.2252  -21.2004   -8.5719 C   0  0  0  0  0  0  0  0  0  0  0  0
   27.2190  -20.7229   -7.7753 C   0  0  0  0  0  0  0  0  0  0  0  0
   26.1772  -20.0147   -8.3556 C   0  0  0  0  0  0  0  0  0  0  0  0
   26.1768  -19.8091   -9.7089 C   0  0  0  0  0  0  0  0  0  0  0  0
   27.1860  -20.2813  -10.5508 C   0  0  0  0  0  0  0  0  0  0  0  0
   24.3808  -20.1633  -13.8998 C   0  0  0  0  0  0  0  0  0  0  0  0
   23.9381  -19.0551  -14.3046 O   0  0  0  0  0  0  0  0  0  0  0  0
   21.8848  -22.3608  -15.7253 C   0  0  0  0  0  0  0  0  0  0  0  0
   21.4008  -22.1638  -14.3271 C   0  0  1  0  0  0  0  0  0  0  0  0
   21.6699  -23.4283  -13.5666 C   0  0  0  0  0  0  0  0  0  0  0  0
   21.9649  -20.9216  -13.6414 C   0  0  2  0  0  0  0  0  0  0  0  0
   23.3966  -21.1473  -13.5467 N   0  0  0  0  0  0  0  0  0  0  0  0
   21.3276  -20.8314  -12.3362 C   0  0  0  0  0  0  0  0  0  0  0  0
   21.9052  -21.2533  -11.3145 O   0  0  0  0  0  0  0  0  0  0  0  0
   20.0696  -20.2767  -12.2024 O   0  0  0  0  0  0  0  0  0  0  0  0
  2  1  1  1
  3  2  1  0
  3  4  1  0
  4  5  1  0
  5  9  1  0
  6  5  2  0
  7  8  2  0
  7  2  1  0
 10  7  1  0
 11 10  1  0
 11 12  1  6
 12 13  1  0
 13 21  1  0
 13 14  2  0
 14 15  1  0
 16 15  1  0
 16 17  2  0
 18 17  1  0
 19 18  2  0
 20 21  2  0
 20 19  1  0
 21 16  1  0
 22 28  1  0
 22 11  1  0
 23 22  2  0
 25 27  1  0
 25 24  1  6
 26 25  1  0
 27 29  1  0
 27 28  1  1
 29 31  1  0
 30 29  2  0
M  END
$$$$
