EWV.pdb
     RDKit          3D

 31 32  0  0  1  0  0  0  0  0999 V2000
   27.3954  -22.2624  -15.1698 N   0  0  0  0  0  0  0  0  0  0  0  0
   26.6064  -21.1203  -14.7737 C   0  0  1  0  0  0  0  0  0  0  0  0
   25.8884  -20.6257  -15.9963 C   0  0  0  0  0  0  0  0  0  0  0  0
   26.8106  -20.0252  -17.0394 C   0  0  0  0  0  0  0  0  0  0  0  0
   27.2862  -18.6821  -16.5959 C   0  0  0  0  0  0  0  0  0  0  0  0
   26.4331  -17.7731  -16.4025 O   0  0  0  0  0  0  0  0  0  0  0  0
   25.7409  -21.4848  -13.6505 C   0  0  0  0  0  0  0  0  0  0  0  0
   25.1544  -22.6180  -13.5581 O   0  0  0  0  0  0  0  0  0  0  0  0
   28.6261  -18.3789  -16.3873 O   0  0  0  0  0  0  0  0  0  0  0  0
   25.5010  -20.5746  -12.5738 N   0  0  0  0  0  0  0  0  0  0  0  0
   24.5133  -20.8084  -11.5360 C   0  0  1  0  0  0  0  0  0  0  0  0
   25.0094  -20.2362  -10.2182 C   0  0  0  0  0  0  0  0  0  0  0  0
   26.3657  -20.6465   -9.8496 C   0  0  0  0  0  0  0  0  0  0  0  0
   27.1495  -21.5265  -10.5864 C   0  0  0  0  0  0  0  0  0  0  0  0
   28.3510  -21.6810   -9.9841 N   0  0  0  0  0  0  0  0  0  0  0  0
   28.3609  -20.9221   -8.8764 C   0  0  0  0  0  0  0  0  0  0  0  0
   29.3436  -20.7380   -7.9164 C   0  0  0  0  0  0  0  0  0  0  0  0
   29.1315  -19.9119   -6.8449 C   0  0  0  0  0  0  0  0  0  0  0  0
   27.9151  -19.2559   -6.7291 C   0  0  0  0  0  0  0  0  0  0  0  0
   26.9547  -19.4479   -7.6854 C   0  0  0  0  0  0  0  0  0  0  0  0
   27.1369  -20.2822   -8.7903 C   0  0  0  0  0  0  0  0  0  0  0  0
   23.1410  -20.4941  -11.8841 C   0  0  0  0  0  0  0  0  0  0  0  0
   22.6398  -19.3448  -12.0095 O   0  0  0  0  0  0  0  0  0  0  0  0
   21.6764  -21.5073  -14.9614 C   0  0  0  0  0  0  0  0  0  0  0  0
   20.8081  -22.1320  -13.9202 C   0  0  1  0  0  0  0  0  0  0  0  0
   21.1408  -23.5934  -13.8626 C   0  0  0  0  0  0  0  0  0  0  0  0
   20.8792  -21.4479  -12.5570 C   0  0  2  0  0  0  0  0  0  0  0  0
   22.2554  -21.5999  -12.1182 N   0  0  0  0  0  0  0  0  0  0  0  0
   19.9378  -22.1372  -11.6871 C   0  0  0  0  0  0  0  0  0  0  0  0
   18.7189  -21.8776  -11.7344 O   0  0  0  0  0  0  0  0  0  0  0  0
   20.3755  -23.0933  -10.7912 O   0  0  0  0  0  0  0  0  0  0  0  0
  2  1  1  6
  3  2  1  0
  3  4  1  0
  4  5  1  0
  5  9  1  0
  6  5  2  0
  7  8  2  0
  7  2  1  0
 10  7  1  0
 11 10  1  0
 11 12  1  1
 12 13  1  0
 13 21  1  0
 13 14  2  0
 14 15  1  0
 16 15  1  0
 16 17  2  0
 18 17  1  0
 19 18  2  0
 20 21  2  0
 20 19  1  0
 21 16  1  0
 22 28  1  0
 22 11  1  0
 23 22  2  0
 25 27  1  0
 25 24  1  6
 26 25  1  0
 27 29  1  0
 27 28  1  1
 29 31  1  0
 30 29  2  0
M  END
$$$$
