DND.pdb
     RDKit          3D

 25 24  0  0  1  0  0  0  0  0999 V2000
    9.5494  -16.4613   14.8746 N   0  0  0  0  0  0  0  0  0  0  0  0
    8.9893  -15.1328   14.9486 C   0  0  1  0  0  0  0  0  0  0  0  0
    7.5455  -15.1468   14.5551 C   0  0  0  0  0  0  0  0  0  0  0  0
    7.4173  -15.7156   13.2068 C   0  0  0  0  0  0  0  0  0  0  0  0
    8.4038  -16.2381   12.6281 O   0  0  0  0  0  0  0  0  0  0  0  0
    9.1996  -14.5175   16.2914 C   0  0  0  0  0  0  0  0  0  0  0  0
    8.5946  -13.4878   16.6506 O   0  0  0  0  0  0  0  0  0  0  0  0
    6.2204  -15.7148   12.4935 O   0  0  0  0  0  0  0  0  0  0  0  0
    8.6902  -12.4034   19.1746 N   0  0  0  0  0  0  0  0  0  0  0  0
    8.3010  -13.7007   19.6134 C   0  0  0  0  0  0  0  0  0  0  0  0
    7.2345  -13.7756   20.2494 O   0  0  0  0  0  0  0  0  0  0  0  0
    9.1075  -14.8944   19.3358 C   0  0  0  0  0  0  0  0  0  0  0  0
   10.3424  -14.6786   18.5468 C   0  0  2  0  0  0  0  0  0  0  0  0
   10.1148  -15.1223   17.1851 N   0  0  0  0  0  0  0  0  0  0  0  0
   11.5375  -15.2735   19.1467 C   0  0  0  0  0  0  0  0  0  0  0  0
   11.7017  -16.5027   19.2901 O   0  0  0  0  0  0  0  0  0  0  0  0
   12.6371  -14.4715   19.6269 N   0  0  0  0  0  0  0  0  0  0  0  0
   13.8132  -15.0334   20.2199 C   0  0  1  0  0  0  0  0  0  0  0  0
   15.0593  -14.2250   19.9625 C   0  0  0  0  0  0  0  0  0  0  0  0
   15.4425  -14.1468   18.5608 C   0  0  0  0  0  0  0  0  0  0  0  0
   15.4382  -15.1639   17.8372 O   0  0  0  0  0  0  0  0  0  0  0  0
   13.5820  -15.2639   21.6643 C   0  0  0  0  0  0  0  0  0  0  0  0
   14.5016  -15.7674   22.3517 O   0  0  0  0  0  0  0  0  0  0  0  0
   15.8194  -12.9421   18.0031 O   0  0  0  0  0  0  0  0  0  0  0  0
   12.3990  -14.9561   22.3193 O   0  0  0  0  0  0  0  0  0  0  0  0
  2  3  1  0
  2  1  1  1
  3  4  1  0
  4  8  1  0
  4  5  2  0
  6  7  2  0
  6  2  1  0
  9 10  1  0
 10 11  2  0
 10 12  1  0
 13 12  1  1
 13 15  1  0
 13 14  1  0
 14  6  1  0
 15 17  1  0
 16 15  2  0
 17 18  1  0
 18 22  1  0
 18 19  1  1
 20 19  1  0
 21 20  2  0
 22 23  2  0
 22 25  1  0
 24 20  1  0
M  END
$$$$
