DND.pdb
     RDKit          3D

 25 24  0  0  1  0  0  0  0  0999 V2000
    7.1150  -12.9570   17.6731 N   0  0  0  0  0  0  0  0  0  0  0  0
    7.9065  -14.1041   18.0497 C   0  0  1  0  0  0  0  0  0  0  0  0
    8.9038  -14.4297   16.9824 C   0  0  0  0  0  0  0  0  0  0  0  0
    8.2068  -15.0263   15.8351 C   0  0  0  0  0  0  0  0  0  0  0  0
    7.7175  -14.3052   14.9286 O   0  0  0  0  0  0  0  0  0  0  0  0
    8.5506  -13.9188   19.3827 C   0  0  0  0  0  0  0  0  0  0  0  0
    8.9873  -12.8131   19.7596 O   0  0  0  0  0  0  0  0  0  0  0  0
    8.0443  -16.4010   15.6771 O   0  0  0  0  0  0  0  0  0  0  0  0
    9.7619  -14.9960   24.5018 N   0  0  0  0  0  0  0  0  0  0  0  0
    9.2889  -16.1212   23.7690 C   0  0  0  0  0  0  0  0  0  0  0  0
    9.3974  -17.2302   24.3219 O   0  0  0  0  0  0  0  0  0  0  0  0
    8.7021  -15.9919   22.4305 C   0  0  0  0  0  0  0  0  0  0  0  0
    9.3424  -15.0056   21.5299 C   0  0  2  0  0  0  0  0  0  0  0  0
    8.6690  -15.0336   20.2458 N   0  0  0  0  0  0  0  0  0  0  0  0
   10.7928  -15.1655   21.4152 C   0  0  0  0  0  0  0  0  0  0  0  0
   11.5757  -15.0976   22.3851 O   0  0  0  0  0  0  0  0  0  0  0  0
   11.4407  -15.4182   20.1506 N   0  0  0  0  0  0  0  0  0  0  0  0
   12.8554  -15.5969   20.0197 C   0  0  1  0  0  0  0  0  0  0  0  0
   13.6197  -14.2995   19.9484 C   0  0  0  0  0  0  0  0  0  0  0  0
   15.0401  -14.4565   19.6735 C   0  0  0  0  0  0  0  0  0  0  0  0
   15.7065  -15.3513   20.2333 O   0  0  0  0  0  0  0  0  0  0  0  0
   13.3486  -16.4802   21.1012 C   0  0  0  0  0  0  0  0  0  0  0  0
   13.1807  -16.1294   22.2930 O   0  0  0  0  0  0  0  0  0  0  0  0
   15.6795  -13.6159   18.7852 O   0  0  0  0  0  0  0  0  0  0  0  0
   13.9937  -17.6883   20.8825 O   0  0  0  0  0  0  0  0  0  0  0  0
  2  3  1  0
  2  1  1  6
  3  4  1  0
  4  8  1  0
  4  5  2  0
  6  7  2  0
  6  2  1  0
  9 10  1  0
 10 11  2  0
 10 12  1  0
 13 12  1  1
 13 15  1  0
 13 14  1  0
 14  6  1  0
 15 17  1  0
 16 15  2  0
 17 18  1  0
 18 22  1  0
 18 19  1  1
 20 19  1  0
 21 20  2  0
 22 23  2  0
 22 25  1  0
 24 20  1  0
M  END
$$$$
