DND.pdb
     RDKit          3D

 25 24  0  0  1  0  0  0  0  0999 V2000
    7.9856  -16.2165   15.8434 N   0  0  0  0  0  0  0  0  0  0  0  0
    8.8701  -15.1022   15.5979 C   0  0  1  0  0  0  0  0  0  0  0  0
    8.1913  -14.0655   14.7589 C   0  0  0  0  0  0  0  0  0  0  0  0
    7.8895  -14.6337   13.4383 C   0  0  0  0  0  0  0  0  0  0  0  0
    7.7293  -15.8717   13.2875 O   0  0  0  0  0  0  0  0  0  0  0  0
    9.4090  -14.5330   16.8674 C   0  0  0  0  0  0  0  0  0  0  0  0
   10.2432  -13.6061   16.8763 O   0  0  0  0  0  0  0  0  0  0  0  0
    7.7630  -13.8566   12.2888 O   0  0  0  0  0  0  0  0  0  0  0  0
    7.3764  -12.7070   19.7150 N   0  0  0  0  0  0  0  0  0  0  0  0
    7.3737  -13.8810   20.5204 C   0  0  0  0  0  0  0  0  0  0  0  0
    6.4303  -14.0029   21.3220 O   0  0  0  0  0  0  0  0  0  0  0  0
    8.4235  -14.9008   20.4192 C   0  0  0  0  0  0  0  0  0  0  0  0
    9.4685  -14.6622   19.3969 C   0  0  2  0  0  0  0  0  0  0  0  0
    8.9585  -15.0625   18.0997 N   0  0  0  0  0  0  0  0  0  0  0  0
   10.7576  -15.2776   19.7158 C   0  0  0  0  0  0  0  0  0  0  0  0
   11.1350  -16.3738   19.2529 O   0  0  0  0  0  0  0  0  0  0  0  0
   11.7080  -14.6541   20.6052 N   0  0  0  0  0  0  0  0  0  0  0  0
   12.9895  -15.2207   20.9005 C   0  0  1  0  0  0  0  0  0  0  0  0
   14.1351  -14.2712   20.6586 C   0  0  0  0  0  0  0  0  0  0  0  0
   15.4491  -14.8415   20.9158 C   0  0  0  0  0  0  0  0  0  0  0  0
   15.5947  -16.0713   21.0726 O   0  0  0  0  0  0  0  0  0  0  0  0
   12.9900  -15.7613   22.2792 C   0  0  0  0  0  0  0  0  0  0  0  0
   12.1744  -15.2983   23.1111 O   0  0  0  0  0  0  0  0  0  0  0  0
   16.5629  -14.0304   20.9914 O   0  0  0  0  0  0  0  0  0  0  0  0
   13.8444  -16.7607   22.7203 O   0  0  0  0  0  0  0  0  0  0  0  0
  2  3  1  0
  2  1  1  1
  3  4  1  0
  4  8  1  0
  4  5  2  0
  6  7  2  0
  6  2  1  0
  9 10  1  0
 10 11  2  0
 10 12  1  0
 13 12  1  1
 13 15  1  0
 13 14  1  0
 14  6  1  0
 15 17  1  0
 16 15  2  0
 17 18  1  0
 18 22  1  0
 18 19  1  1
 20 19  1  0
 21 20  2  0
 22 23  2  0
 22 25  1  0
 24 20  1  0
M  END
$$$$
