DND.pdb
     RDKit          3D

 25 24  0  0  1  0  0  0  0  0999 V2000
    8.7178  -18.1359   18.4796 N   0  0  0  0  0  0  0  0  0  0  0  0
    9.9607  -17.4098   18.3688 C   0  0  1  0  0  0  0  0  0  0  0  0
    9.9784  -16.5823   17.1221 C   0  0  0  0  0  0  0  0  0  0  0  0
    9.6569  -17.4358   15.9706 C   0  0  0  0  0  0  0  0  0  0  0  0
    9.4590  -18.6692   16.1142 O   0  0  0  0  0  0  0  0  0  0  0  0
   10.2364  -16.5950   19.5879 C   0  0  0  0  0  0  0  0  0  0  0  0
   11.2374  -15.8569   19.6791 O   0  0  0  0  0  0  0  0  0  0  0  0
    9.5519  -16.9474   14.6699 O   0  0  0  0  0  0  0  0  0  0  0  0
    9.6273  -14.6218   24.4675 N   0  0  0  0  0  0  0  0  0  0  0  0
    8.4297  -14.6628   23.6988 C   0  0  0  0  0  0  0  0  0  0  0  0
    7.4644  -14.0129   24.1386 O   0  0  0  0  0  0  0  0  0  0  0  0
    8.3273  -15.4281   22.4513 C   0  0  0  0  0  0  0  0  0  0  0  0
    9.5740  -16.0720   21.9767 C   0  0  2  0  0  0  0  0  0  0  0  0
    9.3326  -16.6627   20.6744 N   0  0  0  0  0  0  0  0  0  0  0  0
   10.1503  -17.0185   22.9328 C   0  0  0  0  0  0  0  0  0  0  0  0
   10.1033  -18.2582   22.7938 O   0  0  0  0  0  0  0  0  0  0  0  0
   10.8288  -16.5844   24.1303 N   0  0  0  0  0  0  0  0  0  0  0  0
   11.6283  -17.4581   24.9354 C   0  0  1  0  0  0  0  0  0  0  0  0
   13.0933  -17.4269   24.5811 C   0  0  0  0  0  0  0  0  0  0  0  0
   13.9206  -18.3197   25.3787 C   0  0  0  0  0  0  0  0  0  0  0  0
   13.5196  -19.4607   25.6873 O   0  0  0  0  0  0  0  0  0  0  0  0
   11.3912  -17.1716   26.3688 C   0  0  0  0  0  0  0  0  0  0  0  0
   10.7412  -16.1462   26.6815 O   0  0  0  0  0  0  0  0  0  0  0  0
   15.1688  -17.9199   25.8106 O   0  0  0  0  0  0  0  0  0  0  0  0
   11.8461  -17.9725   27.4055 O   0  0  0  0  0  0  0  0  0  0  0  0
  2  3  1  0
  2  1  1  1
  3  4  1  0
  4  8  1  0
  4  5  2  0
  6  7  2  0
  6  2  1  0
  9 10  1  0
 10 11  2  0
 10 12  1  0
 13 12  1  1
 13 15  1  0
 13 14  1  0
 14  6  1  0
 15 17  1  0
 16 15  2  0
 17 18  1  0
 18 22  1  0
 18 19  1  6
 20 19  1  0
 21 20  2  0
 22 23  2  0
 22 25  1  0
 24 20  1  0
M  END
$$$$
