DND.pdb
     RDKit          3D

 25 24  0  0  1  0  0  0  0  0999 V2000
   12.8793  -16.7392   14.5334 N   0  0  0  0  0  0  0  0  0  0  0  0
   14.1345  -16.0990   14.8479 C   0  0  1  0  0  0  0  0  0  0  0  0
   14.5416  -15.1685   13.7488 C   0  0  0  0  0  0  0  0  0  0  0  0
   14.5430  -15.8977   12.4736 C   0  0  0  0  0  0  0  0  0  0  0  0
   15.3462  -16.8434   12.2696 O   0  0  0  0  0  0  0  0  0  0  0  0
   14.0909  -15.4170   16.1741 C   0  0  0  0  0  0  0  0  0  0  0  0
   15.0795  -14.8199   16.6449 O   0  0  0  0  0  0  0  0  0  0  0  0
   13.6738  -15.5975   11.4269 O   0  0  0  0  0  0  0  0  0  0  0  0
   11.9855  -14.0170   20.8977 N   0  0  0  0  0  0  0  0  0  0  0  0
   10.9835  -14.3869   19.9564 C   0  0  0  0  0  0  0  0  0  0  0  0
    9.8021  -14.2128   20.3049 O   0  0  0  0  0  0  0  0  0  0  0  0
   11.3148  -14.9454   18.6408 C   0  0  0  0  0  0  0  0  0  0  0  0
   12.7472  -14.9224   18.2642 C   0  0  2  0  0  0  0  0  0  0  0  0
   12.8894  -15.4491   16.9206 N   0  0  0  0  0  0  0  0  0  0  0  0
   13.6224  -15.5866   19.2312 C   0  0  0  0  0  0  0  0  0  0  0  0
   13.7270  -16.8264   19.3330 O   0  0  0  0  0  0  0  0  0  0  0  0
   14.4461  -14.8471   20.1572 N   0  0  0  0  0  0  0  0  0  0  0  0
   15.3631  -15.4749   21.0603 C   0  0  1  0  0  0  0  0  0  0  0  0
   16.6570  -14.7187   21.2229 C   0  0  0  0  0  0  0  0  0  0  0  0
   17.6034  -15.3422   22.1359 C   0  0  0  0  0  0  0  0  0  0  0  0
   17.7830  -16.5774   22.1282 O   0  0  0  0  0  0  0  0  0  0  0  0
   14.6930  -15.7262   22.3567 C   0  0  0  0  0  0  0  0  0  0  0  0
   13.7451  -14.9822   22.7023 O   0  0  0  0  0  0  0  0  0  0  0  0
   18.3228  -14.5765   23.0307 O   0  0  0  0  0  0  0  0  0  0  0  0
   15.0479  -16.7445   23.2288 O   0  0  0  0  0  0  0  0  0  0  0  0
  2  3  1  0
  2  1  1  6
  3  4  1  0
  4  8  1  0
  4  5  2  0
  6  7  2  0
  6  2  1  0
  9 10  1  0
 10 11  2  0
 10 12  1  0
 13 12  1  1
 13 15  1  0
 13 14  1  0
 14  6  1  0
 15 17  1  0
 16 15  2  0
 17 18  1  0
 18 22  1  0
 18 19  1  1
 20 19  1  0
 21 20  2  0
 22 23  2  0
 22 25  1  0
 24 20  1  0
M  END
$$$$
