DND.pdb
     RDKit          3D

 25 24  0  0  1  0  0  0  0  0999 V2000
    7.3896  -13.3376   17.5778 N   0  0  0  0  0  0  0  0  0  0  0  0
    7.8962  -14.5101   18.2508 C   0  0  1  0  0  0  0  0  0  0  0  0
    8.9393  -15.1866   17.4178 C   0  0  0  0  0  0  0  0  0  0  0  0
    8.3298  -15.6548   16.1660 C   0  0  0  0  0  0  0  0  0  0  0  0
    8.6962  -15.1931   15.0553 O   0  0  0  0  0  0  0  0  0  0  0  0
    8.3918  -14.1908   19.6214 C   0  0  0  0  0  0  0  0  0  0  0  0
    9.2179  -13.2805   19.8319 O   0  0  0  0  0  0  0  0  0  0  0  0
    7.3265  -16.6207   16.1254 O   0  0  0  0  0  0  0  0  0  0  0  0
    7.6636  -13.0637   25.0154 N   0  0  0  0  0  0  0  0  0  0  0  0
    7.3036  -14.2618   24.3357 C   0  0  0  0  0  0  0  0  0  0  0  0
    7.1437  -15.2742   25.0407 O   0  0  0  0  0  0  0  0  0  0  0  0
    7.1276  -14.3120   22.8801 C   0  0  0  0  0  0  0  0  0  0  0  0
    8.3095  -14.7359   22.0942 C   0  0  2  0  0  0  0  0  0  0  0  0
    7.9084  -14.9453   20.7164 N   0  0  0  0  0  0  0  0  0  0  0  0
    9.0146  -15.8858   22.6624 C   0  0  0  0  0  0  0  0  0  0  0  0
    8.5518  -17.0451   22.6742 O   0  0  0  0  0  0  0  0  0  0  0  0
   10.3214  -15.7660   23.2631 N   0  0  0  0  0  0  0  0  0  0  0  0
   10.9750  -16.8494   23.9337 C   0  0  1  0  0  0  0  0  0  0  0  0
   12.4596  -16.6451   24.0972 C   0  0  0  0  0  0  0  0  0  0  0  0
   13.1763  -16.4406   22.8472 C   0  0  0  0  0  0  0  0  0  0  0  0
   14.1286  -15.6366   22.7782 O   0  0  0  0  0  0  0  0  0  0  0  0
   10.2998  -17.1170   25.2242 C   0  0  0  0  0  0  0  0  0  0  0  0
    9.6060  -16.2112   25.7436 O   0  0  0  0  0  0  0  0  0  0  0  0
   12.8152  -17.1346   21.7103 O   0  0  0  0  0  0  0  0  0  0  0  0
   10.3836  -18.3203   25.9086 O   0  0  0  0  0  0  0  0  0  0  0  0
  2  3  1  0
  2  1  1  6
  3  4  1  0
  4  8  1  0
  4  5  2  0
  6  7  2  0
  6  2  1  0
  9 10  1  0
 10 11  2  0
 10 12  1  0
 13 12  1  1
 13 15  1  0
 13 14  1  0
 14  6  1  0
 15 17  1  0
 16 15  2  0
 17 18  1  0
 18 22  1  0
 18 19  1  1
 20 19  1  0
 21 20  2  0
 22 23  2  0
 22 25  1  0
 24 20  1  0
M  END
$$$$
