DND.pdb
     RDKit          3D

 25 24  0  0  1  0  0  0  0  0999 V2000
    8.7471  -17.5694   19.0587 N   0  0  0  0  0  0  0  0  0  0  0  0
   10.1186  -17.1857   18.8222 C   0  0  1  0  0  0  0  0  0  0  0  0
   10.2349  -16.3996   17.5542 C   0  0  0  0  0  0  0  0  0  0  0  0
    9.6974  -17.1940   16.4417 C   0  0  0  0  0  0  0  0  0  0  0  0
   10.3679  -18.1255   15.9281 O   0  0  0  0  0  0  0  0  0  0  0  0
   10.6991  -16.4591   19.9889 C   0  0  0  0  0  0  0  0  0  0  0  0
   11.8674  -16.0226   19.9831 O   0  0  0  0  0  0  0  0  0  0  0  0
    8.4360  -16.9741   15.8922 O   0  0  0  0  0  0  0  0  0  0  0  0
    7.5022  -15.6901   24.4916 N   0  0  0  0  0  0  0  0  0  0  0  0
    8.8235  -15.2037   24.2810 C   0  0  0  0  0  0  0  0  0  0  0  0
    9.5501  -15.1150   25.2867 O   0  0  0  0  0  0  0  0  0  0  0  0
    9.3139  -14.8236   22.9515 C   0  0  0  0  0  0  0  0  0  0  0  0
   10.3770  -15.6811   22.3784 C   0  0  2  0  0  0  0  0  0  0  0  0
    9.8979  -16.2595   21.1378 N   0  0  0  0  0  0  0  0  0  0  0  0
   10.8935  -16.6837   23.3113 C   0  0  0  0  0  0  0  0  0  0  0  0
   10.3139  -17.7606   23.5612 O   0  0  0  0  0  0  0  0  0  0  0  0
   12.1338  -16.5014   24.0265 N   0  0  0  0  0  0  0  0  0  0  0  0
   12.7167  -17.5171   24.8506 C   0  0  1  0  0  0  0  0  0  0  0  0
   14.2233  -17.4738   24.8803 C   0  0  0  0  0  0  0  0  0  0  0  0
   14.8540  -17.7165   23.5914 C   0  0  0  0  0  0  0  0  0  0  0  0
   15.9232  -17.1506   23.2841 O   0  0  0  0  0  0  0  0  0  0  0  0
   12.1266  -17.4578   26.2075 C   0  0  0  0  0  0  0  0  0  0  0  0
   11.9626  -18.5257   26.8434 O   0  0  0  0  0  0  0  0  0  0  0  0
   14.2795  -18.5804   22.6813 O   0  0  0  0  0  0  0  0  0  0  0  0
   11.7368  -16.2830   26.8332 O   0  0  0  0  0  0  0  0  0  0  0  0
  2  3  1  0
  2  1  1  1
  3  4  1  0
  4  8  1  0
  4  5  2  0
  6  7  2  0
  6  2  1  0
  9 10  1  0
 10 11  2  0
 10 12  1  0
 13 12  1  1
 13 15  1  0
 13 14  1  0
 14  6  1  0
 15 17  1  0
 16 15  2  0
 17 18  1  0
 18 22  1  0
 18 19  1  1
 20 19  1  0
 21 20  2  0
 22 23  2  0
 22 25  1  0
 24 20  1  0
M  END
$$$$
