DND.pdb
     RDKit          3D

 25 24  0  0  1  0  0  0  0  0999 V2000
   12.8818  -16.2840   19.0724 N   0  0  0  0  0  0  0  0  0  0  0  0
   13.8554  -15.5433   19.8390 C   0  0  1  0  0  0  0  0  0  0  0  0
   14.1656  -14.2378   19.1765 C   0  0  0  0  0  0  0  0  0  0  0  0
   14.8997  -14.4907   17.9295 C   0  0  0  0  0  0  0  0  0  0  0  0
   15.3355  -15.6381   17.6562 O   0  0  0  0  0  0  0  0  0  0  0  0
   13.4249  -15.3657   21.2565 C   0  0  0  0  0  0  0  0  0  0  0  0
   14.1427  -14.7927   22.1001 O   0  0  0  0  0  0  0  0  0  0  0  0
   15.1572  -13.4984   16.9860 O   0  0  0  0  0  0  0  0  0  0  0  0
   10.0978  -15.5072   25.4317 N   0  0  0  0  0  0  0  0  0  0  0  0
    9.4204  -15.6623   24.1892 C   0  0  0  0  0  0  0  0  0  0  0  0
    8.1771  -15.6498   24.2286 O   0  0  0  0  0  0  0  0  0  0  0  0
   10.1404  -15.8290   22.9217 C   0  0  0  0  0  0  0  0  0  0  0  0
   11.6168  -15.7335   22.9926 C   0  0  2  0  0  0  0  0  0  0  0  0
   12.1619  -15.8636   21.6551 N   0  0  0  0  0  0  0  0  0  0  0  0
   12.2232  -16.6630   23.9468 C   0  0  0  0  0  0  0  0  0  0  0  0
   12.6965  -16.3142   25.0480 O   0  0  0  0  0  0  0  0  0  0  0  0
   12.3224  -18.0787   23.6839 N   0  0  0  0  0  0  0  0  0  0  0  0
   13.0340  -18.9834   24.5359 C   0  0  1  0  0  0  0  0  0  0  0  0
   14.4141  -18.5009   24.9033 C   0  0  0  0  0  0  0  0  0  0  0  0
   15.4043  -19.5601   25.0280 C   0  0  0  0  0  0  0  0  0  0  0  0
   16.3877  -19.4325   25.7861 O   0  0  0  0  0  0  0  0  0  0  0  0
   12.2127  -19.2961   25.7278 C   0  0  0  0  0  0  0  0  0  0  0  0
   11.1024  -18.7300   25.8632 O   0  0  0  0  0  0  0  0  0  0  0  0
   15.2742  -20.7299   24.3076 O   0  0  0  0  0  0  0  0  0  0  0  0
   12.5938  -20.1865   26.7205 O   0  0  0  0  0  0  0  0  0  0  0  0
  2  3  1  0
  2  1  1  6
  3  4  1  0
  4  8  1  0
  4  5  2  0
  6  7  2  0
  6  2  1  0
  9 10  1  0
 10 11  2  0
 10 12  1  0
 13 12  1  6
 13 15  1  0
 13 14  1  0
 14  6  1  0
 15 17  1  0
 16 15  2  0
 17 18  1  0
 18 22  1  0
 18 19  1  1
 20 19  1  0
 21 20  2  0
 22 23  2  0
 22 25  1  0
 24 20  1  0
M  END
$$$$
