DND.pdb
     RDKit          3D

 25 24  0  0  1  0  0  0  0  0999 V2000
    8.8395  -18.4397   18.6124 N   0  0  0  0  0  0  0  0  0  0  0  0
    9.5771  -17.2276   18.3465 C   0  0  1  0  0  0  0  0  0  0  0  0
    8.8682  -16.3919   17.3274 C   0  0  0  0  0  0  0  0  0  0  0  0
    8.8471  -17.1079   16.0449 C   0  0  0  0  0  0  0  0  0  0  0  0
    9.1392  -18.3292   15.9805 O   0  0  0  0  0  0  0  0  0  0  0  0
    9.8609  -16.4665   19.5980 C   0  0  0  0  0  0  0  0  0  0  0  0
    9.2671  -15.4061   19.8778 O   0  0  0  0  0  0  0  0  0  0  0  0
    8.5094  -16.4959   14.8396 O   0  0  0  0  0  0  0  0  0  0  0  0
    9.3055  -16.6735   25.0980 N   0  0  0  0  0  0  0  0  0  0  0  0
    9.9675  -16.0345   24.0115 C   0  0  0  0  0  0  0  0  0  0  0  0
   10.6374  -15.0230   24.2862 O   0  0  0  0  0  0  0  0  0  0  0  0
    9.8718  -16.5338   22.6353 C   0  0  0  0  0  0  0  0  0  0  0  0
   11.0954  -16.4099   21.8097 C   0  0  2  0  0  0  0  0  0  0  0  0
   10.8349  -16.9646   20.4954 N   0  0  0  0  0  0  0  0  0  0  0  0
   12.2910  -16.9736   22.4383 C   0  0  0  0  0  0  0  0  0  0  0  0
   12.3948  -18.1696   22.7806 O   0  0  0  0  0  0  0  0  0  0  0  0
   13.4620  -16.1768   22.7154 N   0  0  0  0  0  0  0  0  0  0  0  0
   14.6544  -16.7165   23.2963 C   0  0  1  0  0  0  0  0  0  0  0  0
   15.8909  -15.9132   22.9827 C   0  0  0  0  0  0  0  0  0  0  0  0
   16.2129  -15.8400   21.5654 C   0  0  0  0  0  0  0  0  0  0  0  0
   16.6929  -14.7998   21.0699 O   0  0  0  0  0  0  0  0  0  0  0  0
   14.4599  -16.9020   24.7526 C   0  0  0  0  0  0  0  0  0  0  0  0
   15.3874  -17.4076   25.4276 O   0  0  0  0  0  0  0  0  0  0  0  0
   15.9927  -16.9234   20.7395 O   0  0  0  0  0  0  0  0  0  0  0  0
   13.3034  -16.5490   25.4319 O   0  0  0  0  0  0  0  0  0  0  0  0
  2  3  1  0
  2  1  1  1
  3  4  1  0
  4  8  1  0
  4  5  2  0
  6  7  2  0
  6  2  1  0
  9 10  1  0
 10 11  2  0
 10 12  1  0
 13 12  1  1
 13 15  1  0
 13 14  1  0
 14  6  1  0
 15 17  1  0
 16 15  2  0
 17 18  1  0
 18 22  1  0
 18 19  1  1
 20 19  1  0
 21 20  2  0
 22 23  2  0
 22 25  1  0
 24 20  1  0
M  END
$$$$
