DND.pdb
     RDKit          3D

 25 24  0  0  1  0  0  0  0  0999 V2000
    9.6531  -19.8428   22.0376 N   0  0  0  0  0  0  0  0  0  0  0  0
   10.4500  -18.7384   22.5167 C   0  0  1  0  0  0  0  0  0  0  0  0
   10.6536  -17.7263   21.4333 C   0  0  0  0  0  0  0  0  0  0  0  0
   11.4264  -18.3347   20.3422 C   0  0  0  0  0  0  0  0  0  0  0  0
   11.7262  -19.5557   20.3638 O   0  0  0  0  0  0  0  0  0  0  0  0
    9.8704  -18.1318   23.7504 C   0  0  0  0  0  0  0  0  0  0  0  0
   10.3441  -17.1002   24.2670 O   0  0  0  0  0  0  0  0  0  0  0  0
   11.8697  -17.6161   19.2339 O   0  0  0  0  0  0  0  0  0  0  0  0
    6.6385  -17.9854   23.1970 N   0  0  0  0  0  0  0  0  0  0  0  0
    6.0032  -18.4899   24.3670 C   0  0  0  0  0  0  0  0  0  0  0  0
    4.7910  -18.7525   24.2720 O   0  0  0  0  0  0  0  0  0  0  0  0
    6.7301  -18.6937   25.6250 C   0  0  0  0  0  0  0  0  0  0  0  0
    8.1665  -18.3319   25.6146 C   0  0  2  0  0  0  0  0  0  0  0  0
    8.7476  -18.7472   24.3526 N   0  0  0  0  0  0  0  0  0  0  0  0
    8.9088  -18.8293   26.7738 C   0  0  0  0  0  0  0  0  0  0  0  0
    8.5850  -18.5943   27.9563 O   0  0  0  0  0  0  0  0  0  0  0  0
   10.0924  -19.6436   26.6370 N   0  0  0  0  0  0  0  0  0  0  0  0
   10.8946  -20.0493   27.7517 C   0  0  1  0  0  0  0  0  0  0  0  0
   10.5368  -21.4139   28.2830 C   0  0  0  0  0  0  0  0  0  0  0  0
   10.6166  -22.4799   27.2955 C   0  0  0  0  0  0  0  0  0  0  0  0
   10.4305  -22.2464   26.0835 O   0  0  0  0  0  0  0  0  0  0  0  0
   12.3289  -19.9426   27.3988 C   0  0  0  0  0  0  0  0  0  0  0  0
   12.6431  -19.6950   26.2107 O   0  0  0  0  0  0  0  0  0  0  0  0
   10.9005  -23.7738   27.6821 O   0  0  0  0  0  0  0  0  0  0  0  0
   13.3650  -20.1004   28.3071 O   0  0  0  0  0  0  0  0  0  0  0  0
  2  3  1  0
  2  1  1  6
  3  4  1  0
  4  8  1  0
  4  5  2  0
  6  7  2  0
  6  2  1  0
  9 10  1  0
 10 11  2  0
 10 12  1  0
 13 12  1  1
 13 15  1  0
 13 14  1  0
 14  6  1  0
 15 17  1  0
 16 15  2  0
 17 18  1  0
 18 22  1  0
 18 19  1  6
 20 19  1  0
 21 20  2  0
 22 23  2  0
 22 25  1  0
 24 20  1  0
M  END
$$$$
