DND.pdb
     RDKit          3D

 25 24  0  0  1  0  0  0  0  0999 V2000
    7.5246  -20.6570   20.6863 N   0  0  0  0  0  0  0  0  0  0  0  0
    8.1524  -19.3690   20.5100 C   0  0  1  0  0  0  0  0  0  0  0  0
    7.4335  -18.5704   19.4684 C   0  0  0  0  0  0  0  0  0  0  0  0
    6.8547  -19.4830   18.4734 C   0  0  0  0  0  0  0  0  0  0  0  0
    7.3935  -20.5904   18.2199 O   0  0  0  0  0  0  0  0  0  0  0  0
    8.2723  -18.6303   21.8007 C   0  0  0  0  0  0  0  0  0  0  0  0
    8.7614  -17.4849   21.8657 O   0  0  0  0  0  0  0  0  0  0  0  0
    5.6949  -19.1899   17.7590 O   0  0  0  0  0  0  0  0  0  0  0  0
    7.0433  -19.2966   27.6350 N   0  0  0  0  0  0  0  0  0  0  0  0
    6.6487  -18.5725   26.4745 C   0  0  0  0  0  0  0  0  0  0  0  0
    6.1998  -17.4273   26.6598 O   0  0  0  0  0  0  0  0  0  0  0  0
    6.7610  -19.1372   25.1250 C   0  0  0  0  0  0  0  0  0  0  0  0
    7.8947  -18.6495   24.3059 C   0  0  2  0  0  0  0  0  0  0  0  0
    7.8162  -19.2499   22.9882 N   0  0  0  0  0  0  0  0  0  0  0  0
    9.2018  -18.8337   24.9380 C   0  0  0  0  0  0  0  0  0  0  0  0
    9.5668  -18.2239   25.9643 O   0  0  0  0  0  0  0  0  0  0  0  0
   10.1864  -19.7500   24.4148 N   0  0  0  0  0  0  0  0  0  0  0  0
   11.4686  -19.9487   25.0208 C   0  0  1  0  0  0  0  0  0  0  0  0
   12.3785  -18.7525   24.9046 C   0  0  0  0  0  0  0  0  0  0  0  0
   13.7342  -18.9839   25.3804 C   0  0  0  0  0  0  0  0  0  0  0  0
   13.9624  -19.1938   26.5895 O   0  0  0  0  0  0  0  0  0  0  0  0
   11.2941  -20.3870   26.4245 C   0  0  0  0  0  0  0  0  0  0  0  0
   12.0525  -21.2752   26.8800 O   0  0  0  0  0  0  0  0  0  0  0  0
   14.7971  -18.9758   24.5002 O   0  0  0  0  0  0  0  0  0  0  0  0
   10.3338  -19.8741   27.2837 O   0  0  0  0  0  0  0  0  0  0  0  0
  2  3  1  0
  2  1  1  1
  3  4  1  0
  4  8  1  0
  4  5  2  0
  6  7  2  0
  6  2  1  0
  9 10  1  0
 10 11  2  0
 10 12  1  0
 13 12  1  1
 13 15  1  0
 13 14  1  0
 14  6  1  0
 15 17  1  0
 16 15  2  0
 17 18  1  0
 18 22  1  0
 18 19  1  1
 20 19  1  0
 21 20  2  0
 22 23  2  0
 22 25  1  0
 24 20  1  0
M  END
$$$$
