EHH.pdb
     RDKit          3D

 30 31  0  0  1  0  0  0  0  0999 V2000
   27.1375  -17.7758  -19.2871 N   0  0  0  0  0  0  0  0  0  0  0  0
   26.1158  -17.2896  -18.3501 C   0  0  1  0  0  0  0  0  0  0  0  0
   24.8278  -17.1552  -19.1635 C   0  0  0  0  0  0  0  0  0  0  0  0
   24.7237  -15.6687  -19.5206 C   0  0  0  0  0  0  0  0  0  0  0  0
   24.0810  -14.8894  -18.4444 C   0  0  0  0  0  0  0  0  0  0  0  0
   24.6627  -14.7907  -17.3314 O   0  0  0  0  0  0  0  0  0  0  0  0
   25.8735  -18.2864  -17.2964 C   0  0  0  0  0  0  0  0  0  0  0  0
   25.7371  -19.4947  -17.5835 O   0  0  0  0  0  0  0  0  0  0  0  0
   22.8672  -14.2836  -18.6596 O   0  0  0  0  0  0  0  0  0  0  0  0
   25.7775  -17.9636  -15.9058 N   0  0  0  0  0  0  0  0  0  0  0  0
   25.5158  -18.9264  -14.8994 C   0  0  1  0  0  0  0  0  0  0  0  0
   26.1572  -18.7803  -13.5849 C   0  0  0  0  0  0  0  0  0  0  0  0
   25.8851  -19.8397  -12.5900 C   0  0  0  0  0  0  0  0  0  0  0  0
   26.4356  -21.0780  -12.4203 C   0  0  0  0  0  0  0  0  0  0  0  0
   25.9041  -21.7053  -11.3528 N   0  0  0  0  0  0  0  0  0  0  0  0
   25.0080  -20.8651  -10.8340 C   0  0  0  0  0  0  0  0  0  0  0  0
   24.9793  -19.7378  -11.5607 N   0  0  0  0  0  0  0  0  0  0  0  0
   24.0396  -19.1420  -14.6960 C   0  0  0  0  0  0  0  0  0  0  0  0
   23.3328  -18.1908  -14.3168 O   0  0  0  0  0  0  0  0  0  0  0  0
   23.4609  -20.4002  -14.9305 N   0  0  0  0  0  0  0  0  0  0  0  0
   22.0500  -20.6894  -14.6704 C   0  0  1  0  0  0  0  0  0  0  0  0
   21.6759  -22.0414  -15.1669 C   0  0  0  0  0  0  0  0  0  0  0  0
   20.2223  -22.2712  -14.9936 C   0  0  0  0  0  0  0  0  0  0  0  0
   19.1850  -21.4239  -15.3858 C   0  0  0  0  0  0  0  0  0  0  0  0
   18.0150  -21.9831  -15.0560 N   0  0  0  0  0  0  0  0  0  0  0  0
   18.2815  -23.1525  -14.4701 C   0  0  0  0  0  0  0  0  0  0  0  0
   19.6120  -23.3329  -14.4288 N   0  0  0  0  0  0  0  0  0  0  0  0
   21.8418  -20.5923  -13.2214 C   0  0  0  0  0  0  0  0  0  0  0  0
   20.9367  -19.8718  -12.7295 O   0  0  0  0  0  0  0  0  0  0  0  0
   22.6321  -21.2923  -12.3366 O   0  0  0  0  0  0  0  0  0  0  0  0
  2  1  1  6
  3  2  1  0
  4  5  1  0
  4  3  1  0
  5  6  2  0
  7  2  1  0
  8  7  2  0
  9  5  1  0
 10  7  1  0
 11 10  1  0
 12 13  1  0
 11 12  1  1
 13 14  2  0
 15 14  1  0
 16 15  1  0
 17 16  2  0
 17 13  1  0
 18 11  1  0
 18 19  2  0
 20 18  1  0
 21 20  1  0
 21 22  1  1
 23 22  1  0
 24 23  2  0
 25 26  1  0
 25 24  1  0
 26 27  2  0
 27 23  1  0
 28 21  1  0
 29 28  2  0
 30 28  1  0
M  END
$$$$
