EHH.pdb
     RDKit          3D

 30 31  0  0  1  0  0  0  0  0999 V2000
   20.3838  -13.8610  -18.9201 N   0  0  0  0  0  0  0  0  0  0  0  0
   21.2311  -12.6991  -18.6196 C   0  0  1  0  0  0  0  0  0  0  0  0
   21.8122  -12.2438  -19.9589 C   0  0  0  0  0  0  0  0  0  0  0  0
   22.9271  -13.2444  -20.2815 C   0  0  0  0  0  0  0  0  0  0  0  0
   24.1697  -12.9372  -19.5467 C   0  0  0  0  0  0  0  0  0  0  0  0
   24.4497  -11.7347  -19.2968 O   0  0  0  0  0  0  0  0  0  0  0  0
   20.4157  -11.5952  -18.0913 C   0  0  0  0  0  0  0  0  0  0  0  0
   19.3609  -11.2520  -18.6665 O   0  0  0  0  0  0  0  0  0  0  0  0
   25.0037  -13.9517  -19.1442 O   0  0  0  0  0  0  0  0  0  0  0  0
   20.7532  -10.8510  -16.9168 N   0  0  0  0  0  0  0  0  0  0  0  0
   19.9066   -9.8666  -16.3489 C   0  0  1  0  0  0  0  0  0  0  0  0
   19.1952  -10.1692  -15.0987 C   0  0  0  0  0  0  0  0  0  0  0  0
   18.2011  -11.2627  -15.1464 C   0  0  0  0  0  0  0  0  0  0  0  0
   17.8010  -12.0713  -16.1716 C   0  0  0  0  0  0  0  0  0  0  0  0
   16.8817  -12.9649  -15.7571 N   0  0  0  0  0  0  0  0  0  0  0  0
   16.6909  -12.7291  -14.4585 C   0  0  0  0  0  0  0  0  0  0  0  0
   17.4731  -11.7109  -14.0696 N   0  0  0  0  0  0  0  0  0  0  0  0
   20.6049   -8.5411  -16.1994 C   0  0  0  0  0  0  0  0  0  0  0  0
   21.7933   -8.5180  -15.8314 O   0  0  0  0  0  0  0  0  0  0  0  0
   19.9280   -7.3407  -16.4712 N   0  0  0  0  0  0  0  0  0  0  0  0
   20.5472   -6.0238  -16.3156 C   0  0  1  0  0  0  0  0  0  0  0  0
   19.6843   -4.9516  -16.8812 C   0  0  0  0  0  0  0  0  0  0  0  0
   20.3311   -3.6284  -16.7184 C   0  0  0  0  0  0  0  0  0  0  0  0
   21.6920   -3.3389  -16.8286 C   0  0  0  0  0  0  0  0  0  0  0  0
   21.8800   -2.0317  -16.6142 N   0  0  0  0  0  0  0  0  0  0  0  0
   20.6842   -1.4898  -16.3731 C   0  0  0  0  0  0  0  0  0  0  0  0
   19.7445   -2.4477  -16.4342 N   0  0  0  0  0  0  0  0  0  0  0  0
   20.7689   -5.8096  -14.8812 C   0  0  0  0  0  0  0  0  0  0  0  0
   21.5807   -4.9480  -14.4583 O   0  0  0  0  0  0  0  0  0  0  0  0
   20.0911   -6.5459  -13.9349 O   0  0  0  0  0  0  0  0  0  0  0  0
  2  1  1  6
  3  2  1  0
  4  5  1  0
  4  3  1  0
  5  6  2  0
  7  2  1  0
  8  7  2  0
  9  5  1  0
 10  7  1  0
 11 10  1  0
 12 13  1  0
 11 12  1  1
 13 14  2  0
 15 14  1  0
 16 15  1  0
 17 16  2  0
 17 13  1  0
 18 11  1  0
 18 19  2  0
 20 18  1  0
 21 20  1  0
 21 22  1  1
 23 22  1  0
 24 23  2  0
 25 26  1  0
 25 24  1  0
 26 27  2  0
 27 23  1  0
 28 21  1  0
 29 28  2  0
 30 28  1  0
M  END
$$$$
