EHH.pdb
     RDKit          3D

 30 31  0  0  1  0  0  0  0  0999 V2000
   26.8675  -24.2239  -16.4782 N   0  0  0  0  0  0  0  0  0  0  0  0
   25.6787  -24.6991  -17.1987 C   0  0  1  0  0  0  0  0  0  0  0  0
   25.0304  -25.7493  -16.2957 C   0  0  0  0  0  0  0  0  0  0  0  0
   26.0417  -26.8977  -16.2140 C   0  0  0  0  0  0  0  0  0  0  0  0
   26.1327  -27.6404  -17.4862 C   0  0  0  0  0  0  0  0  0  0  0  0
   25.1938  -27.5401  -18.3201 O   0  0  0  0  0  0  0  0  0  0  0  0
   24.7129  -23.6033  -17.3694 C   0  0  0  0  0  0  0  0  0  0  0  0
   24.1883  -23.0576  -16.3754 O   0  0  0  0  0  0  0  0  0  0  0  0
   27.2270  -28.4273  -17.7507 O   0  0  0  0  0  0  0  0  0  0  0  0
   24.3103  -23.0918  -18.6436 N   0  0  0  0  0  0  0  0  0  0  0  0
   23.4485  -21.9775  -18.7980 C   0  0  1  0  0  0  0  0  0  0  0  0
   23.6307  -21.0864  -19.9528 C   0  0  0  0  0  0  0  0  0  0  0  0
   22.7664  -19.8882  -20.0119 C   0  0  0  0  0  0  0  0  0  0  0  0
   21.6873  -19.5945  -20.7959 C   0  0  0  0  0  0  0  0  0  0  0  0
   21.1756  -18.3868  -20.4878 N   0  0  0  0  0  0  0  0  0  0  0  0
   21.9297  -17.9026  -19.5003 C   0  0  0  0  0  0  0  0  0  0  0  0
   22.8916  -18.7875  -19.1977 N   0  0  0  0  0  0  0  0  0  0  0  0
   21.9977  -22.3714  -18.7153 C   0  0  0  0  0  0  0  0  0  0  0  0
   21.5854  -23.3219  -19.4043 O   0  0  0  0  0  0  0  0  0  0  0  0
   21.1146  -21.6779  -17.8713 N   0  0  0  0  0  0  0  0  0  0  0  0
   19.7241  -22.0853  -17.6651 C   0  0  1  0  0  0  0  0  0  0  0  0
   19.1255  -21.3881  -16.4947 C   0  0  0  0  0  0  0  0  0  0  0  0
   17.7554  -21.8912  -16.2391 C   0  0  0  0  0  0  0  0  0  0  0  0
   17.1718  -23.0445  -16.7657 C   0  0  0  0  0  0  0  0  0  0  0  0
   15.9234  -23.1560  -16.2975 N   0  0  0  0  0  0  0  0  0  0  0  0
   15.7025  -22.1125  -15.4949 C   0  0  0  0  0  0  0  0  0  0  0  0
   16.8040  -21.3448  -15.4550 N   0  0  0  0  0  0  0  0  0  0  0  0
   18.9866  -21.7665  -18.8926 C   0  0  0  0  0  0  0  0  0  0  0  0
   19.1201  -20.6615  -19.4770 O   0  0  0  0  0  0  0  0  0  0  0  0
   18.1155  -22.6707  -19.4590 O   0  0  0  0  0  0  0  0  0  0  0  0
  2  1  1  1
  3  2  1  0
  4  5  1  0
  4  3  1  0
  5  6  2  0
  7  2  1  0
  8  7  2  0
  9  5  1  0
 10  7  1  0
 11 10  1  0
 12 13  1  0
 11 12  1  6
 13 14  2  0
 15 14  1  0
 16 15  1  0
 17 16  2  0
 17 13  1  0
 18 11  1  0
 18 19  2  0
 20 18  1  0
 21 20  1  0
 21 22  1  1
 23 22  1  0
 24 23  2  0
 25 26  1  0
 25 24  1  0
 26 27  2  0
 27 23  1  0
 28 21  1  0
 29 28  2  0
 30 28  1  0
M  END
$$$$
