EHH.pdb
     RDKit          3D

 30 31  0  0  1  0  0  0  0  0999 V2000
   20.4910  -15.6807  -17.5693 N   0  0  0  0  0  0  0  0  0  0  0  0
   21.7129  -15.3435  -18.3120 C   0  0  1  0  0  0  0  0  0  0  0  0
   21.6924  -16.2094  -19.5723 C   0  0  0  0  0  0  0  0  0  0  0  0
   20.2106  -16.3953  -19.9159 C   0  0  0  0  0  0  0  0  0  0  0  0
   19.9545  -17.7022  -20.5521 C   0  0  0  0  0  0  0  0  0  0  0  0
   19.8982  -18.7324  -19.8293 O   0  0  0  0  0  0  0  0  0  0  0  0
   21.6791  -13.9368  -18.7393 C   0  0  0  0  0  0  0  0  0  0  0  0
   22.6431  -13.4365  -19.3569 O   0  0  0  0  0  0  0  0  0  0  0  0
   19.7811  -17.7871  -21.9120 O   0  0  0  0  0  0  0  0  0  0  0  0
   20.5775  -13.0582  -18.4905 N   0  0  0  0  0  0  0  0  0  0  0  0
   20.5408  -11.7117  -18.9309 C   0  0  1  0  0  0  0  0  0  0  0  0
   19.5459  -11.3147  -19.9374 C   0  0  0  0  0  0  0  0  0  0  0  0
   19.7511  -11.8200  -21.3117 C   0  0  0  0  0  0  0  0  0  0  0  0
   20.7195  -12.6257  -21.8393 C   0  0  0  0  0  0  0  0  0  0  0  0
   20.4980  -12.8613  -23.1473 N   0  0  0  0  0  0  0  0  0  0  0  0
   19.3811  -12.2039  -23.4611 C   0  0  0  0  0  0  0  0  0  0  0  0
   18.9146  -11.5711  -22.3741 N   0  0  0  0  0  0  0  0  0  0  0  0
   20.4766  -10.7438  -17.7793 C   0  0  0  0  0  0  0  0  0  0  0  0
   19.7603  -11.0127  -16.7982 O   0  0  0  0  0  0  0  0  0  0  0  0
   21.2151   -9.5493  -17.8062 N   0  0  0  0  0  0  0  0  0  0  0  0
   21.1854   -8.5693  -16.7196 C   0  0  1  0  0  0  0  0  0  0  0  0
   22.5605   -8.1619  -16.3228 C   0  0  0  0  0  0  0  0  0  0  0  0
   22.5070   -7.0828  -15.3087 C   0  0  0  0  0  0  0  0  0  0  0  0
   22.3390   -7.2315  -13.9312 C   0  0  0  0  0  0  0  0  0  0  0  0
   22.3444   -6.0231  -13.3568 N   0  0  0  0  0  0  0  0  0  0  0  0
   22.5097   -5.1202  -14.3259 C   0  0  0  0  0  0  0  0  0  0  0  0
   22.6085   -5.7526  -15.5069 N   0  0  0  0  0  0  0  0  0  0  0  0
   20.4170   -7.4125  -17.1925 C   0  0  0  0  0  0  0  0  0  0  0  0
   20.3899   -7.0874  -18.4065 O   0  0  0  0  0  0  0  0  0  0  0  0
   19.6883   -6.6333  -16.3213 O   0  0  0  0  0  0  0  0  0  0  0  0
  2  1  1  1
  3  2  1  0
  4  5  1  0
  4  3  1  0
  5  6  2  0
  7  2  1  0
  8  7  2  0
  9  5  1  0
 10  7  1  0
 11 10  1  0
 12 13  1  0
 11 12  1  6
 13 14  2  0
 15 14  1  0
 16 15  1  0
 17 16  2  0
 17 13  1  0
 18 11  1  0
 18 19  2  0
 20 18  1  0
 21 20  1  0
 21 22  1  6
 23 22  1  0
 24 23  2  0
 25 26  1  0
 25 24  1  0
 26 27  2  0
 27 23  1  0
 28 21  1  0
 29 28  2  0
 30 28  1  0
M  END
$$$$
