EHH.pdb
     RDKit          3D

 30 31  0  0  1  0  0  0  0  0999 V2000
   14.3653  -20.5737    0.7900 N   0  0  0  0  0  0  0  0  0  0  0  0
   14.2523  -19.4372    1.7140 C   0  0  1  0  0  0  0  0  0  0  0  0
   12.9635  -19.6640    2.5054 C   0  0  0  0  0  0  0  0  0  0  0  0
   11.8536  -19.0127    1.6735 C   0  0  0  0  0  0  0  0  0  0  0  0
   11.7323  -17.5689    1.9548 C   0  0  0  0  0  0  0  0  0  0  0  0
   12.5135  -17.0421    2.7909 O   0  0  0  0  0  0  0  0  0  0  0  0
   15.3683  -19.4444    2.6715 C   0  0  0  0  0  0  0  0  0  0  0  0
   16.2545  -20.3230    2.6085 O   0  0  0  0  0  0  0  0  0  0  0  0
   10.7799  -16.8166    1.3114 O   0  0  0  0  0  0  0  0  0  0  0  0
   15.5235  -18.4794    3.7165 N   0  0  0  0  0  0  0  0  0  0  0  0
   16.6469  -18.4403    4.5795 C   0  0  1  0  0  0  0  0  0  0  0  0
   17.0987  -17.1453    5.1081 C   0  0  0  0  0  0  0  0  0  0  0  0
   17.5815  -16.1555    4.1215 C   0  0  0  0  0  0  0  0  0  0  0  0
   17.7558  -16.2432    2.7698 C   0  0  0  0  0  0  0  0  0  0  0  0
   18.1915  -15.0755    2.2579 N   0  0  0  0  0  0  0  0  0  0  0  0
   18.2969  -14.2332    3.2863 C   0  0  0  0  0  0  0  0  0  0  0  0
   17.9356  -14.8600    4.4161 N   0  0  0  0  0  0  0  0  0  0  0  0
   16.5122  -19.4094    5.7239 C   0  0  0  0  0  0  0  0  0  0  0  0
   15.3863  -19.6280    6.2063 O   0  0  0  0  0  0  0  0  0  0  0  0
   17.6411  -20.0630    6.2451 N   0  0  0  0  0  0  0  0  0  0  0  0
   17.5719  -21.0011    7.3663 C   0  0  1  0  0  0  0  0  0  0  0  0
   18.7376  -21.9259    7.3687 C   0  0  0  0  0  0  0  0  0  0  0  0
   18.6195  -22.9029    8.4765 C   0  0  0  0  0  0  0  0  0  0  0  0
   17.5867  -23.8187    8.6827 C   0  0  0  0  0  0  0  0  0  0  0  0
   17.8426  -24.5246    9.7902 N   0  0  0  0  0  0  0  0  0  0  0  0
   19.0004  -24.0837   10.2871 C   0  0  0  0  0  0  0  0  0  0  0  0
   19.4750  -23.1047    9.4993 N   0  0  0  0  0  0  0  0  0  0  0  0
   17.5351  -20.2084    8.6003 C   0  0  0  0  0  0  0  0  0  0  0  0
   17.8963  -19.0046    8.6248 O   0  0  0  0  0  0  0  0  0  0  0  0
   17.0986  -20.7533    9.7877 O   0  0  0  0  0  0  0  0  0  0  0  0
  2  1  1  6
  3  2  1  0
  4  5  1  0
  4  3  1  0
  5  6  2  0
  7  2  1  0
  8  7  2  0
  9  5  1  0
 10  7  1  0
 11 10  1  0
 12 13  1  0
 11 12  1  1
 13 14  2  0
 15 14  1  0
 16 15  1  0
 17 16  2  0
 17 13  1  0
 18 11  1  0
 18 19  2  0
 20 18  1  0
 21 20  1  0
 21 22  1  1
 23 22  1  0
 24 23  2  0
 25 26  1  0
 25 24  1  0
 26 27  2  0
 27 23  1  0
 28 21  1  0
 29 28  2  0
 30 28  1  0
M  END
$$$$
