EHH.pdb
     RDKit          3D

 30 31  0  0  1  0  0  0  0  0999 V2000
   21.7789  -17.7922  -17.3062 N   0  0  0  0  0  0  0  0  0  0  0  0
   22.2404  -16.4188  -17.5492 C   0  0  1  0  0  0  0  0  0  0  0  0
   22.8406  -16.4186  -18.9558 C   0  0  0  0  0  0  0  0  0  0  0  0
   24.2847  -15.9359  -18.7833 C   0  0  0  0  0  0  0  0  0  0  0  0
   24.9691  -15.7776  -20.0814 C   0  0  0  0  0  0  0  0  0  0  0  0
   24.3660  -16.1150  -21.1346 O   0  0  0  0  0  0  0  0  0  0  0  0
   21.1002  -15.4901  -17.5530 C   0  0  0  0  0  0  0  0  0  0  0  0
   20.2214  -15.5657  -18.4380 O   0  0  0  0  0  0  0  0  0  0  0  0
   26.2442  -15.2695  -20.1333 O   0  0  0  0  0  0  0  0  0  0  0  0
   20.9122  -14.4605  -16.5773 N   0  0  0  0  0  0  0  0  0  0  0  0
   19.8487  -13.5253  -16.6276 C   0  0  1  0  0  0  0  0  0  0  0  0
   18.4977  -13.9561  -16.2404 C   0  0  0  0  0  0  0  0  0  0  0  0
   18.4021  -14.9354  -15.1367 C   0  0  0  0  0  0  0  0  0  0  0  0
   19.3689  -15.5756  -14.4151 C   0  0  0  0  0  0  0  0  0  0  0  0
   18.8268  -16.3691  -13.4707 N   0  0  0  0  0  0  0  0  0  0  0  0
   17.5049  -16.2372  -13.5860 C   0  0  0  0  0  0  0  0  0  0  0  0
   17.2263  -15.3807  -14.5803 N   0  0  0  0  0  0  0  0  0  0  0  0
   20.1806  -12.2545  -15.8914 C   0  0  0  0  0  0  0  0  0  0  0  0
   21.1808  -12.2237  -15.1519 O   0  0  0  0  0  0  0  0  0  0  0  0
   19.3744  -11.1131  -16.0340 N   0  0  0  0  0  0  0  0  0  0  0  0
   19.6512   -9.8509  -15.3469 C   0  0  1  0  0  0  0  0  0  0  0  0
   20.6273   -9.0251  -16.1082 C   0  0  0  0  0  0  0  0  0  0  0  0
   20.8496   -7.7285  -15.4260 C   0  0  0  0  0  0  0  0  0  0  0  0
   21.9443   -7.3704  -14.6378 C   0  0  0  0  0  0  0  0  0  0  0  0
   21.7772   -6.1169  -14.2006 N   0  0  0  0  0  0  0  0  0  0  0  0
   20.6152   -5.6752  -14.6869 C   0  0  0  0  0  0  0  0  0  0  0  0
   20.0497   -6.6427  -15.4274 N   0  0  0  0  0  0  0  0  0  0  0  0
   18.3751   -9.1424  -15.1991 C   0  0  0  0  0  0  0  0  0  0  0  0
   17.4618   -9.2378  -16.0576 O   0  0  0  0  0  0  0  0  0  0  0  0
   18.1238   -8.3418  -14.1068 O   0  0  0  0  0  0  0  0  0  0  0  0
  2  1  1  6
  3  2  1  0
  4  5  1  0
  4  3  1  0
  5  6  2  0
  7  2  1  0
  8  7  2  0
  9  5  1  0
 10  7  1  0
 11 10  1  0
 12 13  1  0
 11 12  1  1
 13 14  2  0
 15 14  1  0
 16 15  1  0
 17 16  2  0
 17 13  1  0
 18 11  1  0
 18 19  2  0
 20 18  1  0
 21 20  1  0
 21 22  1  6
 23 22  1  0
 24 23  2  0
 25 26  1  0
 25 24  1  0
 26 27  2  0
 27 23  1  0
 28 21  1  0
 29 28  2  0
 30 28  1  0
M  END
$$$$
