EHH.pdb
     RDKit          3D

 30 31  0  0  1  0  0  0  0  0999 V2000
   21.0384  -13.5453  -18.4292 N   0  0  0  0  0  0  0  0  0  0  0  0
   19.8057  -13.0854  -17.7756 C   0  0  1  0  0  0  0  0  0  0  0  0
   19.4837  -14.1269  -16.7030 C   0  0  0  0  0  0  0  0  0  0  0  0
   18.1007  -14.6759  -17.0692 C   0  0  0  0  0  0  0  0  0  0  0  0
   17.2308  -14.8068  -15.8841 C   0  0  0  0  0  0  0  0  0  0  0  0
   17.4168  -14.0394  -14.9026 O   0  0  0  0  0  0  0  0  0  0  0  0
   20.0369  -11.8031  -17.0939 C   0  0  0  0  0  0  0  0  0  0  0  0
   21.0230  -11.6514  -16.3419 O   0  0  0  0  0  0  0  0  0  0  0  0
   16.2354  -15.7530  -15.8581 O   0  0  0  0  0  0  0  0  0  0  0  0
   19.1804  -10.6652  -17.2323 N   0  0  0  0  0  0  0  0  0  0  0  0
   19.4365   -9.4179  -16.6102 C   0  0  1  0  0  0  0  0  0  0  0  0
   19.6370   -8.2275  -17.4490 C   0  0  0  0  0  0  0  0  0  0  0  0
   20.7725   -8.2636  -18.3954 C   0  0  0  0  0  0  0  0  0  0  0  0
   21.7134   -9.2237  -18.6361 C   0  0  0  0  0  0  0  0  0  0  0  0
   22.5534   -8.8469  -19.6200 N   0  0  0  0  0  0  0  0  0  0  0  0
   22.1492   -7.6386  -20.0135 C   0  0  0  0  0  0  0  0  0  0  0  0
   21.0807   -7.2679  -19.2920 N   0  0  0  0  0  0  0  0  0  0  0  0
   18.4163   -9.0967  -15.5507 C   0  0  0  0  0  0  0  0  0  0  0  0
   17.2198   -9.3701  -15.7558 O   0  0  0  0  0  0  0  0  0  0  0  0
   18.8044   -8.4956  -14.3419 N   0  0  0  0  0  0  0  0  0  0  0  0
   17.8593   -8.1764  -13.2710 C   0  0  1  0  0  0  0  0  0  0  0  0
   18.5166   -8.2316  -11.9371 C   0  0  0  0  0  0  0  0  0  0  0  0
   17.5521   -7.8727  -10.8709 C   0  0  0  0  0  0  0  0  0  0  0  0
   16.5919   -8.7036  -10.2918 C   0  0  0  0  0  0  0  0  0  0  0  0
   15.9165   -8.0128   -9.3661 N   0  0  0  0  0  0  0  0  0  0  0  0
   16.4192   -6.7765   -9.3438 C   0  0  0  0  0  0  0  0  0  0  0  0
   17.4068   -6.6846  -10.2496 N   0  0  0  0  0  0  0  0  0  0  0  0
   17.3334   -6.8327  -13.5357 C   0  0  0  0  0  0  0  0  0  0  0  0
   18.0262   -5.9507  -14.1034 O   0  0  0  0  0  0  0  0  0  0  0  0
   16.0515   -6.4821  -13.1734 O   0  0  0  0  0  0  0  0  0  0  0  0
  2  1  1  1
  3  2  1  0
  4  5  1  0
  4  3  1  0
  5  6  2  0
  7  2  1  0
  8  7  2  0
  9  5  1  0
 10  7  1  0
 11 10  1  0
 12 13  1  0
 11 12  1  6
 13 14  2  0
 15 14  1  0
 16 15  1  0
 17 16  2  0
 17 13  1  0
 18 11  1  0
 18 19  2  0
 20 18  1  0
 21 20  1  0
 21 22  1  1
 23 22  1  0
 24 23  2  0
 25 26  1  0
 25 24  1  0
 26 27  2  0
 27 23  1  0
 28 21  1  0
 29 28  2  0
 30 28  1  0
M  END
$$$$
