EHH.pdb
     RDKit          3D

 30 31  0  0  1  0  0  0  0  0999 V2000
   24.8958  -14.7230  -18.8411 N   0  0  0  0  0  0  0  0  0  0  0  0
   23.5133  -15.2080  -18.7329 C   0  0  1  0  0  0  0  0  0  0  0  0
   22.9861  -15.3011  -20.1654 C   0  0  0  0  0  0  0  0  0  0  0  0
   22.9841  -13.8628  -20.6940 C   0  0  0  0  0  0  0  0  0  0  0  0
   21.8665  -13.0753  -20.1379 C   0  0  0  0  0  0  0  0  0  0  0  0
   20.7156  -13.2170  -20.6301 O   0  0  0  0  0  0  0  0  0  0  0  0
   23.4906  -16.5632  -18.1626 C   0  0  0  0  0  0  0  0  0  0  0  0
   22.7622  -17.4494  -18.6579 O   0  0  0  0  0  0  0  0  0  0  0  0
   22.0846  -12.2030  -19.0995 O   0  0  0  0  0  0  0  0  0  0  0  0
   24.2737  -16.9622  -17.0335 N   0  0  0  0  0  0  0  0  0  0  0  0
   24.2515  -18.2727  -16.4946 C   0  0  1  0  0  0  0  0  0  0  0  0
   25.4716  -18.8143  -15.8791 C   0  0  0  0  0  0  0  0  0  0  0  0
   26.6845  -18.8488  -16.7240 C   0  0  0  0  0  0  0  0  0  0  0  0
   26.9074  -18.4078  -17.9972 C   0  0  0  0  0  0  0  0  0  0  0  0
   28.1862  -18.6152  -18.3677 N   0  0  0  0  0  0  0  0  0  0  0  0
   28.7877  -19.1918  -17.3267 C   0  0  0  0  0  0  0  0  0  0  0  0
   27.9051  -19.3421  -16.3276 N   0  0  0  0  0  0  0  0  0  0  0  0
   23.1010  -18.4716  -15.5441 C   0  0  0  0  0  0  0  0  0  0  0  0
   22.8596  -17.5992  -14.6904 O   0  0  0  0  0  0  0  0  0  0  0  0
   22.3050  -19.6268  -15.6155 N   0  0  0  0  0  0  0  0  0  0  0  0
   20.9979  -19.7354  -14.9661 C   0  0  1  0  0  0  0  0  0  0  0  0
   20.0661  -18.6808  -15.4495 C   0  0  0  0  0  0  0  0  0  0  0  0
   18.7019  -18.9149  -14.9203 C   0  0  0  0  0  0  0  0  0  0  0  0
   18.3195  -19.8668  -13.9740 C   0  0  0  0  0  0  0  0  0  0  0  0
   17.0030  -19.7648  -13.7580 N   0  0  0  0  0  0  0  0  0  0  0  0
   16.5450  -18.7817  -14.5362 C   0  0  0  0  0  0  0  0  0  0  0  0
   17.5650  -18.2642  -15.2407 N   0  0  0  0  0  0  0  0  0  0  0  0
   20.4696  -21.0714  -15.2633 C   0  0  0  0  0  0  0  0  0  0  0  0
   20.9164  -21.7637  -16.2127 O   0  0  0  0  0  0  0  0  0  0  0  0
   19.4592  -21.6252  -14.5086 O   0  0  0  0  0  0  0  0  0  0  0  0
  2  1  1  6
  3  2  1  0
  4  5  1  0
  4  3  1  0
  5  6  2  0
  7  2  1  0
  8  7  2  0
  9  5  1  0
 10  7  1  0
 11 10  1  0
 12 13  1  0
 11 12  1  1
 13 14  2  0
 15 14  1  0
 16 15  1  0
 17 16  2  0
 17 13  1  0
 18 11  1  0
 18 19  2  0
 20 18  1  0
 21 20  1  0
 21 22  1  6
 23 22  1  0
 24 23  2  0
 25 26  1  0
 25 24  1  0
 26 27  2  0
 27 23  1  0
 28 21  1  0
 29 28  2  0
 30 28  1  0
M  END
$$$$
