EHH.pdb
     RDKit          3D

 30 31  0  0  1  0  0  0  0  0999 V2000
   17.2139  -13.0368    5.5312 N   0  0  0  0  0  0  0  0  0  0  0  0
   18.3949  -13.9104    5.5500 C   0  0  1  0  0  0  0  0  0  0  0  0
   19.4002  -13.2397    6.4871 C   0  0  0  0  0  0  0  0  0  0  0  0
   19.9544  -12.0449    5.7038 C   0  0  0  0  0  0  0  0  0  0  0  0
   20.9567  -11.2939    6.4848 C   0  0  0  0  0  0  0  0  0  0  0  0
   21.5845  -10.3539    5.9288 O   0  0  0  0  0  0  0  0  0  0  0  0
   18.0534  -15.2186    6.1281 C   0  0  0  0  0  0  0  0  0  0  0  0
   17.1589  -15.3168    6.9950 O   0  0  0  0  0  0  0  0  0  0  0  0
   21.1965  -11.6200    7.7974 O   0  0  0  0  0  0  0  0  0  0  0  0
   18.6960  -16.4421    5.7574 N   0  0  0  0  0  0  0  0  0  0  0  0
   18.4001  -17.6904    6.3594 C   0  0  1  0  0  0  0  0  0  0  0  0
   17.9907  -18.8166    5.5080 C   0  0  0  0  0  0  0  0  0  0  0  0
   16.7319  -18.6544    4.7495 C   0  0  0  0  0  0  0  0  0  0  0  0
   15.6231  -17.8965    4.9971 C   0  0  0  0  0  0  0  0  0  0  0  0
   14.7129  -18.0285    4.0124 N   0  0  0  0  0  0  0  0  0  0  0  0
   15.2404  -18.8751    3.1275 C   0  0  0  0  0  0  0  0  0  0  0  0
   16.4530  -19.2642    3.5492 N   0  0  0  0  0  0  0  0  0  0  0  0
   19.5045  -18.1513    7.2730 C   0  0  0  0  0  0  0  0  0  0  0  0
   20.6474  -18.3170    6.8099 O   0  0  0  0  0  0  0  0  0  0  0  0
   19.2538  -18.3927    8.6339 N   0  0  0  0  0  0  0  0  0  0  0  0
   20.2573  -18.9487    9.5427 C   0  0  1  0  0  0  0  0  0  0  0  0
   20.5647  -18.0038   10.6503 C   0  0  0  0  0  0  0  0  0  0  0  0
   21.5761  -17.0114   10.2168 C   0  0  0  0  0  0  0  0  0  0  0  0
   22.8460  -17.2759    9.7018 C   0  0  0  0  0  0  0  0  0  0  0  0
   23.4573  -16.1174    9.4286 N   0  0  0  0  0  0  0  0  0  0  0  0
   22.6152  -15.1342    9.7543 C   0  0  0  0  0  0  0  0  0  0  0  0
   21.4777  -15.6665   10.2309 N   0  0  0  0  0  0  0  0  0  0  0  0
   19.7226  -20.2095   10.0688 C   0  0  0  0  0  0  0  0  0  0  0  0
   20.3840  -20.9311   10.8576 O   0  0  0  0  0  0  0  0  0  0  0  0
   18.4667  -20.6548    9.7200 O   0  0  0  0  0  0  0  0  0  0  0  0
  2  1  1  1
  3  2  1  0
  4  5  1  0
  4  3  1  0
  5  6  2  0
  7  2  1  0
  8  7  2  0
  9  5  1  0
 10  7  1  0
 11 10  1  0
 12 13  1  0
 11 12  1  6
 13 14  2  0
 15 14  1  0
 16 15  1  0
 17 16  2  0
 17 13  1  0
 18 11  1  0
 18 19  2  0
 20 18  1  0
 21 20  1  0
 21 22  1  1
 23 22  1  0
 24 23  2  0
 25 26  1  0
 25 24  1  0
 26 27  2  0
 27 23  1  0
 28 21  1  0
 29 28  2  0
 30 28  1  0
M  END
$$$$
