EHH.pdb
     RDKit          3D

 30 31  0  0  1  0  0  0  0  0999 V2000
   13.2121  -25.7609   -0.9075 N   0  0  0  0  0  0  0  0  0  0  0  0
   14.3784  -24.9479   -0.5373 C   0  0  1  0  0  0  0  0  0  0  0  0
   13.8241  -23.5932   -0.0941 C   0  0  0  0  0  0  0  0  0  0  0  0
   13.5716  -22.8124   -1.3882 C   0  0  0  0  0  0  0  0  0  0  0  0
   14.7298  -21.9763   -1.7597 C   0  0  0  0  0  0  0  0  0  0  0  0
   15.4603  -22.3376   -2.7203 O   0  0  0  0  0  0  0  0  0  0  0  0
   15.0706  -25.5430    0.6156 C   0  0  0  0  0  0  0  0  0  0  0  0
   14.4318  -26.1739    1.4845 O   0  0  0  0  0  0  0  0  0  0  0  0
   15.0015  -20.8232   -1.0646 O   0  0  0  0  0  0  0  0  0  0  0  0
   16.4826  -25.4502    0.8278 N   0  0  0  0  0  0  0  0  0  0  0  0
   17.1378  -26.0006    1.9574 C   0  0  1  0  0  0  0  0  0  0  0  0
   18.3518  -26.8054    1.7591 C   0  0  0  0  0  0  0  0  0  0  0  0
   18.7453  -27.0830    0.3611 C   0  0  0  0  0  0  0  0  0  0  0  0
   18.1424  -26.7682   -0.8232 C   0  0  0  0  0  0  0  0  0  0  0  0
   18.8744  -27.1943   -1.8710 N   0  0  0  0  0  0  0  0  0  0  0  0
   19.9535  -27.7854   -1.3568 C   0  0  0  0  0  0  0  0  0  0  0  0
   19.8976  -27.7305   -0.0175 N   0  0  0  0  0  0  0  0  0  0  0  0
   17.4137  -24.9609    3.0108 C   0  0  0  0  0  0  0  0  0  0  0  0
   17.6394  -23.7877    2.6630 O   0  0  0  0  0  0  0  0  0  0  0  0
   17.4171  -25.3049    4.3727 N   0  0  0  0  0  0  0  0  0  0  0  0
   17.6662  -24.3343    5.4393 C   0  0  1  0  0  0  0  0  0  0  0  0
   16.4914  -24.2143    6.3447 C   0  0  0  0  0  0  0  0  0  0  0  0
   16.7620  -23.2238    7.4132 C   0  0  0  0  0  0  0  0  0  0  0  0
   17.2584  -21.9293    7.2530 C   0  0  0  0  0  0  0  0  0  0  0  0
   17.3635  -21.3493    8.4542 N   0  0  0  0  0  0  0  0  0  0  0  0
   16.9504  -22.2349    9.3636 C   0  0  0  0  0  0  0  0  0  0  0  0
   16.5859  -23.3687    8.7424 N   0  0  0  0  0  0  0  0  0  0  0  0
   18.8483  -24.7892    6.1797 C   0  0  0  0  0  0  0  0  0  0  0  0
   19.3409  -25.9321    6.0026 O   0  0  0  0  0  0  0  0  0  0  0  0
   19.4711  -23.9772    7.1016 O   0  0  0  0  0  0  0  0  0  0  0  0
  2  1  1  1
  3  2  1  0
  4  5  1  0
  4  3  1  0
  5  6  2  0
  7  2  1  0
  8  7  2  0
  9  5  1  0
 10  7  1  0
 11 10  1  0
 12 13  1  0
 11 12  1  6
 13 14  2  0
 15 14  1  0
 16 15  1  0
 17 16  2  0
 17 13  1  0
 18 11  1  0
 18 19  2  0
 20 18  1  0
 21 20  1  0
 21 22  1  1
 23 22  1  0
 24 23  2  0
 25 26  1  0
 25 24  1  0
 26 27  2  0
 27 23  1  0
 28 21  1  0
 29 28  2  0
 30 28  1  0
M  END
$$$$
