EHH.pdb
     RDKit          3D

 30 31  0  0  1  0  0  0  0  0999 V2000
   24.1077  -21.8429  -17.2231 N   0  0  0  0  0  0  0  0  0  0  0  0
   25.2174  -22.7648  -16.9459 C   0  0  1  0  0  0  0  0  0  0  0  0
   25.8855  -23.0375  -18.2942 C   0  0  0  0  0  0  0  0  0  0  0  0
   25.7428  -21.7363  -19.0911 C   0  0  0  0  0  0  0  0  0  0  0  0
   24.8126  -21.8877  -20.2270 C   0  0  0  0  0  0  0  0  0  0  0  0
   25.2008  -22.5016  -21.2562 O   0  0  0  0  0  0  0  0  0  0  0  0
   26.2142  -22.1182  -16.0793 C   0  0  0  0  0  0  0  0  0  0  0  0
   27.2241  -22.7451  -15.6942 O   0  0  0  0  0  0  0  0  0  0  0  0
   23.5444  -21.3648  -20.1567 O   0  0  0  0  0  0  0  0  0  0  0  0
   26.1111  -20.7660  -15.6231 N   0  0  0  0  0  0  0  0  0  0  0  0
   27.0166  -20.1843  -14.7012 C   0  0  1  0  0  0  0  0  0  0  0  0
   27.9848  -19.1876  -15.1808 C   0  0  0  0  0  0  0  0  0  0  0  0
   28.6236  -19.4551  -16.4872 C   0  0  0  0  0  0  0  0  0  0  0  0
   28.4316  -18.8900  -17.7156 C   0  0  0  0  0  0  0  0  0  0  0  0
   29.2627  -19.4232  -18.6324 N   0  0  0  0  0  0  0  0  0  0  0  0
   29.9926  -20.3351  -17.9891 C   0  0  0  0  0  0  0  0  0  0  0  0
   29.6263  -20.3717  -16.6991 N   0  0  0  0  0  0  0  0  0  0  0  0
   26.3114  -19.6305  -13.4918 C   0  0  0  0  0  0  0  0  0  0  0  0
   25.7783  -18.5082  -13.5595 O   0  0  0  0  0  0  0  0  0  0  0  0
   26.2520  -20.3677  -12.2976 N   0  0  0  0  0  0  0  0  0  0  0  0
   25.0765  -20.3794  -11.4258 C   0  0  1  0  0  0  0  0  0  0  0  0
   23.8706  -20.8610  -12.1525 C   0  0  0  0  0  0  0  0  0  0  0  0
   22.6745  -20.7752  -11.2820 C   0  0  0  0  0  0  0  0  0  0  0  0
   22.5863  -20.1578  -10.0334 C   0  0  0  0  0  0  0  0  0  0  0  0
   21.3405  -20.2941   -9.5649 N   0  0  0  0  0  0  0  0  0  0  0  0
   20.6429  -20.9761  -10.4760 C   0  0  0  0  0  0  0  0  0  0  0  0
   21.4418  -21.2700  -11.5151 N   0  0  0  0  0  0  0  0  0  0  0  0
   25.3819  -21.2548  -10.2888 C   0  0  0  0  0  0  0  0  0  0  0  0
   25.9439  -22.3686  -10.4431 O   0  0  0  0  0  0  0  0  0  0  0  0
   25.0659  -20.8886   -8.9991 O   0  0  0  0  0  0  0  0  0  0  0  0
  2  1  1  6
  3  2  1  0
  4  5  1  0
  4  3  1  0
  5  6  2  0
  7  2  1  0
  8  7  2  0
  9  5  1  0
 10  7  1  0
 11 10  1  0
 12 13  1  0
 11 12  1  6
 13 14  2  0
 15 14  1  0
 16 15  1  0
 17 16  2  0
 17 13  1  0
 18 11  1  0
 18 19  2  0
 20 18  1  0
 21 20  1  0
 21 22  1  6
 23 22  1  0
 24 23  2  0
 25 26  1  0
 25 24  1  0
 26 27  2  0
 27 23  1  0
 28 21  1  0
 29 28  2  0
 30 28  1  0
M  END
$$$$
