EHH.pdb
     RDKit          3D

 30 31  0  0  1  0  0  0  0  0999 V2000
   46.9872  -12.8853   -8.1856 N   0  0  0  0  0  0  0  0  0  0  0  0
   45.7802  -12.5312   -7.4267 C   0  0  1  0  0  0  0  0  0  0  0  0
   46.2514  -12.2258   -6.0042 C   0  0  0  0  0  0  0  0  0  0  0  0
   47.7247  -11.8269   -6.1390 C   0  0  0  0  0  0  0  0  0  0  0  0
   48.3300  -11.5122   -4.8302 C   0  0  0  0  0  0  0  0  0  0  0  0
   48.5300  -10.3067   -4.5241 O   0  0  0  0  0  0  0  0  0  0  0  0
   45.1782  -11.3037   -7.9681 C   0  0  0  0  0  0  0  0  0  0  0  0
   45.8500  -10.5259   -8.6787 O   0  0  0  0  0  0  0  0  0  0  0  0
   48.6678  -12.5230   -3.9636 O   0  0  0  0  0  0  0  0  0  0  0  0
   43.8216  -10.9146   -7.7326 N   0  0  0  0  0  0  0  0  0  0  0  0
   43.2216   -9.7801   -8.3337 C   0  0  1  0  0  0  0  0  0  0  0  0
   41.9070   -9.9216   -8.9761 C   0  0  0  0  0  0  0  0  0  0  0  0
   41.8841  -10.5519  -10.3134 C   0  0  0  0  0  0  0  0  0  0  0  0
   42.8805  -11.1090  -11.0632 C   0  0  0  0  0  0  0  0  0  0  0  0
   42.4012  -11.6001  -12.2227 N   0  0  0  0  0  0  0  0  0  0  0  0
   41.0899  -11.3576  -12.2172 C   0  0  0  0  0  0  0  0  0  0  0  0
   40.7566  -10.7288  -11.0800 N   0  0  0  0  0  0  0  0  0  0  0  0
   43.1774   -8.6029   -7.3961 C   0  0  0  0  0  0  0  0  0  0  0  0
   42.7784   -8.7693   -6.2294 O   0  0  0  0  0  0  0  0  0  0  0  0
   43.5814   -7.3286   -7.8276 N   0  0  0  0  0  0  0  0  0  0  0  0
   43.5934   -6.1570   -6.9507 C   0  0  1  0  0  0  0  0  0  0  0  0
   44.8977   -5.4440   -7.0206 C   0  0  0  0  0  0  0  0  0  0  0  0
   44.8780   -4.2449   -6.1504 C   0  0  0  0  0  0  0  0  0  0  0  0
   44.9882   -4.2140   -4.7594 C   0  0  0  0  0  0  0  0  0  0  0  0
   44.9270   -2.9437   -4.3438 N   0  0  0  0  0  0  0  0  0  0  0  0
   44.7820   -2.1753   -5.4256 C   0  0  0  0  0  0  0  0  0  0  0  0
   44.7515   -2.9540   -6.5197 N   0  0  0  0  0  0  0  0  0  0  0  0
   42.4979   -5.2788   -7.3762 C   0  0  0  0  0  0  0  0  0  0  0  0
   41.9923   -4.4280   -6.6010 O   0  0  0  0  0  0  0  0  0  0  0  0
   41.9781   -5.3494   -8.6498 O   0  0  0  0  0  0  0  0  0  0  0  0
  2  1  1  6
  3  2  1  0
  4  5  1  0
  4  3  1  0
  5  6  2  0
  7  2  1  0
  8  7  2  0
  9  5  1  0
 10  7  1  0
 11 10  1  0
 12 13  1  0
 11 12  1  1
 13 14  2  0
 15 14  1  0
 16 15  1  0
 17 16  2  0
 17 13  1  0
 18 11  1  0
 18 19  2  0
 20 18  1  0
 21 20  1  0
 21 22  1  6
 23 22  1  0
 24 23  2  0
 25 26  1  0
 25 24  1  0
 26 27  2  0
 27 23  1  0
 28 21  1  0
 29 28  2  0
 30 28  1  0
M  END
$$$$
