EHH.pdb
     RDKit          3D

 30 31  0  0  1  0  0  0  0  0999 V2000
   19.8119  -14.3940  -17.5727 N   0  0  0  0  0  0  0  0  0  0  0  0
   19.3629  -13.1472  -18.2070 C   0  0  1  0  0  0  0  0  0  0  0  0
   17.9293  -12.9216  -17.7245 C   0  0  0  0  0  0  0  0  0  0  0  0
   17.6359  -14.0771  -16.7618 C   0  0  0  0  0  0  0  0  0  0  0  0
   16.2577  -14.0178  -16.2371 C   0  0  0  0  0  0  0  0  0  0  0  0
   15.5661  -12.9873  -16.4532 O   0  0  0  0  0  0  0  0  0  0  0  0
   20.1732  -12.0140  -17.7362 C   0  0  0  0  0  0  0  0  0  0  0  0
   20.7214  -12.0471  -16.6139 O   0  0  0  0  0  0  0  0  0  0  0  0
   15.7429  -15.0734  -15.5248 O   0  0  0  0  0  0  0  0  0  0  0  0
   20.3913  -10.8233  -18.4991 N   0  0  0  0  0  0  0  0  0  0  0  0
   21.2205   -9.7602  -18.0628 C   0  0  1  0  0  0  0  0  0  0  0  0
   22.1804   -9.1679  -19.0054 C   0  0  0  0  0  0  0  0  0  0  0  0
   23.2087  -10.0716  -19.5641 C   0  0  0  0  0  0  0  0  0  0  0  0
   23.4866  -11.3846  -19.3110 C   0  0  0  0  0  0  0  0  0  0  0  0
   24.5020  -11.8247  -20.0796 N   0  0  0  0  0  0  0  0  0  0  0  0
   24.8778  -10.7888  -20.8306 C   0  0  0  0  0  0  0  0  0  0  0  0
   24.1148   -9.7248  -20.5382 N   0  0  0  0  0  0  0  0  0  0  0  0
   20.4267   -8.6532  -17.4214 C   0  0  0  0  0  0  0  0  0  0  0  0
   19.2715   -8.4224  -17.8220 O   0  0  0  0  0  0  0  0  0  0  0  0
   20.9783   -7.8864  -16.3818 N   0  0  0  0  0  0  0  0  0  0  0  0
   20.2358   -6.8332  -15.6878 C   0  0  1  0  0  0  0  0  0  0  0  0
   20.5003   -6.8616  -14.2238 C   0  0  0  0  0  0  0  0  0  0  0  0
   19.7623   -7.9778  -13.5872 C   0  0  0  0  0  0  0  0  0  0  0  0
   18.9242   -8.8988  -14.2174 C   0  0  0  0  0  0  0  0  0  0  0  0
   18.4457   -9.7514  -13.3040 N   0  0  0  0  0  0  0  0  0  0  0  0
   18.9541   -9.3978  -12.1216 C   0  0  0  0  0  0  0  0  0  0  0  0
   19.7497   -8.3278  -12.2848 N   0  0  0  0  0  0  0  0  0  0  0  0
   20.6502   -5.5501  -16.2658 C   0  0  0  0  0  0  0  0  0  0  0  0
   21.5673   -5.4753  -17.1223 O   0  0  0  0  0  0  0  0  0  0  0  0
   20.0463   -4.3694  -15.8934 O   0  0  0  0  0  0  0  0  0  0  0  0
  2  1  1  1
  3  2  1  0
  4  5  1  0
  4  3  1  0
  5  6  2  0
  7  2  1  0
  8  7  2  0
  9  5  1  0
 10  7  1  0
 11 10  1  0
 12 13  1  0
 11 12  1  6
 13 14  2  0
 15 14  1  0
 16 15  1  0
 17 16  2  0
 17 13  1  0
 18 11  1  0
 18 19  2  0
 20 18  1  0
 21 20  1  0
 21 22  1  1
 23 22  1  0
 24 23  2  0
 25 26  1  0
 25 24  1  0
 26 27  2  0
 27 23  1  0
 28 21  1  0
 29 28  2  0
 30 28  1  0
M  END
$$$$
