TQV.pdb
     RDKit          3D

 24 23  0  0  1  0  0  0  0  0999 V2000
    8.3732  -12.4245   20.0415 C   0  0  0  0  0  0  0  0  0  0  0  0
    7.8122  -13.5078   19.1460 C   0  0  1  0  0  0  0  0  0  0  0  0
    8.0092  -13.2284   17.8039 O   0  0  0  0  0  0  0  0  0  0  0  0
    8.3629  -14.8667   19.5433 C   0  0  2  0  0  0  0  0  0  0  0  0
    7.8168  -15.8305   18.6195 N   0  0  0  0  0  0  0  0  0  0  0  0
    7.9686  -15.2248   20.9299 C   0  0  0  0  0  0  0  0  0  0  0  0
    6.8382  -15.7141   21.2049 O   0  0  0  0  0  0  0  0  0  0  0  0
   10.6907  -19.3601   23.3849 N   0  0  0  0  0  0  0  0  0  0  0  0
   10.1978  -18.9321   24.6385 C   0  0  0  0  0  0  0  0  0  0  0  0
   10.3726  -19.6164   25.6622 O   0  0  0  0  0  0  0  0  0  0  0  0
    9.4624  -17.6205   24.6543 C   0  0  0  0  0  0  0  0  0  0  0  0
    9.5075  -16.9681   23.3041 C   0  0  0  0  0  0  0  0  0  0  0  0
    8.7377  -15.6988   23.2944 C   0  0  2  0  0  0  0  0  0  0  0  0
    8.8626  -15.0235   21.9908 N   0  0  0  0  0  0  0  0  0  0  0  0
    9.0971  -14.7544   24.3766 C   0  0  0  0  0  0  0  0  0  0  0  0
   10.2500  -14.3463   24.6414 O   0  0  0  0  0  0  0  0  0  0  0  0
    5.8868  -13.2143   26.7120 C   0  0  0  0  0  0  0  0  0  0  0  0
    7.2056  -12.4543   26.6028 C   0  0  2  0  0  0  0  0  0  0  0  0
    7.1086  -11.4973   25.4309 C   0  0  0  0  0  0  0  0  0  0  0  0
    8.3559  -13.4155   26.3804 C   0  0  2  0  0  0  0  0  0  0  0  0
    8.0644  -14.2358   25.2212 N   0  0  0  0  0  0  0  0  0  0  0  0
    8.4631  -14.2758   27.5832 C   0  0  0  0  0  0  0  0  0  0  0  0
    8.7556  -13.7568   28.7030 O   0  0  0  0  0  0  0  0  0  0  0  0
    8.2616  -15.6351   27.5669 O   0  0  0  0  0  0  0  0  0  0  0  0
  2  1  1  1
  3  2  1  0
  4  6  1  0
  4  2  1  0
  4  5  1  6
  6  7  2  0
  8  9  1  0
  9 11  1  0
 10  9  2  0
 11 12  1  0
 13 12  1  6
 14 13  1  0
 14  6  1  0
 15 21  1  0
 15 13  1  0
 16 15  2  0
 18 17  1  6
 19 18  1  0
 20 18  1  0
 20 21  1  6
 22 20  1  0
 22 24  1  0
 23 22  2  0
M  END
$$$$
