TQV.pdb
     RDKit          3D

 24 23  0  0  1  0  0  0  0  0999 V2000
    8.5716  -12.5173   20.2948 C   0  0  0  0  0  0  0  0  0  0  0  0
    7.8143  -13.4978   19.4256 C   0  0  1  0  0  0  0  0  0  0  0  0
    7.9093  -13.1829   18.0803 O   0  0  0  0  0  0  0  0  0  0  0  0
    8.2529  -14.9219   19.7212 C   0  0  2  0  0  0  0  0  0  0  0  0
    7.5013  -15.7860   18.8442 N   0  0  0  0  0  0  0  0  0  0  0  0
    7.9825  -15.2878   21.1351 C   0  0  0  0  0  0  0  0  0  0  0  0
    6.8113  -15.4335   21.5823 O   0  0  0  0  0  0  0  0  0  0  0  0
   11.0100  -19.4406   24.0515 N   0  0  0  0  0  0  0  0  0  0  0  0
   10.1434  -19.4843   22.9359 C   0  0  0  0  0  0  0  0  0  0  0  0
   10.0660  -20.5021   22.2253 O   0  0  0  0  0  0  0  0  0  0  0  0
    9.3362  -18.2440   22.6684 C   0  0  0  0  0  0  0  0  0  0  0  0
    9.6567  -17.1737   23.6696 C   0  0  0  0  0  0  0  0  0  0  0  0
    8.8634  -15.9449   23.4154 C   0  0  2  0  0  0  0  0  0  0  0  0
    9.0456  -15.4847   22.0275 N   0  0  0  0  0  0  0  0  0  0  0  0
    9.1444  -14.8289   24.3470 C   0  0  0  0  0  0  0  0  0  0  0  0
   10.1550  -14.0914   24.3247 O   0  0  0  0  0  0  0  0  0  0  0  0
    6.0054  -13.3721   26.7273 C   0  0  0  0  0  0  0  0  0  0  0  0
    7.3061  -12.6015   26.5202 C   0  0  2  0  0  0  0  0  0  0  0  0
    7.1880  -11.8030   25.2368 C   0  0  0  0  0  0  0  0  0  0  0  0
    8.4789  -13.5559   26.4191 C   0  0  2  0  0  0  0  0  0  0  0  0
    8.2023  -14.5308   25.3825 N   0  0  0  0  0  0  0  0  0  0  0  0
    8.6133  -14.2445   27.7253 C   0  0  0  0  0  0  0  0  0  0  0  0
    8.2998  -15.4695   27.8252 O   0  0  0  0  0  0  0  0  0  0  0  0
    9.0670  -13.6286   28.8670 O   0  0  0  0  0  0  0  0  0  0  0  0
  2  1  1  1
  3  2  1  0
  4  6  1  0
  4  2  1  0
  4  5  1  6
  6  7  2  0
  8  9  1  0
  9 11  1  0
 10  9  2  0
 11 12  1  0
 13 12  1  1
 14 13  1  0
 14  6  1  0
 15 21  1  0
 15 13  1  0
 16 15  2  0
 18 17  1  6
 19 18  1  0
 20 18  1  0
 20 21  1  6
 22 20  1  0
 22 24  1  0
 23 22  2  0
M  END
$$$$
