TQV.pdb
     RDKit          3D

 24 23  0  0  1  0  0  0  0  0999 V2000
    8.5454  -12.4150   20.1687 C   0  0  0  0  0  0  0  0  0  0  0  0
    7.9202  -13.4107   19.2158 C   0  0  1  0  0  0  0  0  0  0  0  0
    8.1155  -13.0576   17.8910 O   0  0  0  0  0  0  0  0  0  0  0  0
    8.4063  -14.8175   19.5197 C   0  0  2  0  0  0  0  0  0  0  0  0
    7.7675  -15.6990   18.5733 N   0  0  0  0  0  0  0  0  0  0  0  0
    8.0488  -15.2255   20.9024 C   0  0  0  0  0  0  0  0  0  0  0  0
    6.8598  -15.4711   21.2474 O   0  0  0  0  0  0  0  0  0  0  0  0
   10.6594  -19.4633   23.9225 N   0  0  0  0  0  0  0  0  0  0  0  0
   10.1482  -19.3052   22.6143 C   0  0  0  0  0  0  0  0  0  0  0  0
   10.2650  -20.2092   21.7682 O   0  0  0  0  0  0  0  0  0  0  0  0
    9.4668  -17.9979   22.3172 C   0  0  0  0  0  0  0  0  0  0  0  0
    9.5011  -17.0950   23.5148 C   0  0  0  0  0  0  0  0  0  0  0  0
    8.7816  -15.8237   23.2503 C   0  0  2  0  0  0  0  0  0  0  0  0
    9.0458  -15.3507   21.8800 N   0  0  0  0  0  0  0  0  0  0  0  0
    9.0777  -14.7387   24.2133 C   0  0  0  0  0  0  0  0  0  0  0  0
   10.1151  -14.0394   24.2344 O   0  0  0  0  0  0  0  0  0  0  0  0
    5.9458  -13.3910   26.6985 C   0  0  0  0  0  0  0  0  0  0  0  0
    7.2254  -12.5830   26.5023 C   0  0  2  0  0  0  0  0  0  0  0  0
    7.0545  -11.7104   25.2743 C   0  0  0  0  0  0  0  0  0  0  0  0
    8.4120  -13.5056   26.3093 C   0  0  2  0  0  0  0  0  0  0  0  0
    8.1190  -14.4273   25.2295 N   0  0  0  0  0  0  0  0  0  0  0  0
    8.6040  -14.2623   27.5698 C   0  0  0  0  0  0  0  0  0  0  0  0
    8.3476  -15.5041   27.6025 O   0  0  0  0  0  0  0  0  0  0  0  0
    9.0533  -13.6940   28.7376 O   0  0  0  0  0  0  0  0  0  0  0  0
  2  1  1  1
  3  2  1  0
  4  6  1  0
  4  2  1  0
  4  5  1  6
  6  7  2  0
  8  9  1  0
  9 11  1  0
 10  9  2  0
 11 12  1  0
 13 12  1  1
 14 13  1  0
 14  6  1  0
 15 21  1  0
 15 13  1  0
 16 15  2  0
 18 17  1  6
 19 18  1  0
 20 18  1  0
 20 21  1  6
 22 20  1  0
 22 24  1  0
 23 22  2  0
M  END
$$$$
