TQV.pdb
     RDKit          3D

 24 23  0  0  1  0  0  0  0  0999 V2000
    9.0350  -12.7704   18.3122 C   0  0  0  0  0  0  0  0  0  0  0  0
    8.4929  -13.2268   19.6493 C   0  0  1  0  0  0  0  0  0  0  0  0
    7.3857  -12.4927   20.0408 O   0  0  0  0  0  0  0  0  0  0  0  0
    8.2226  -14.7216   19.6332 C   0  0  2  0  0  0  0  0  0  0  0  0
    7.2164  -14.9582   18.6271 N   0  0  0  0  0  0  0  0  0  0  0  0
    7.7312  -15.1958   20.9522 C   0  0  0  0  0  0  0  0  0  0  0  0
    6.5044  -15.3688   21.1929 O   0  0  0  0  0  0  0  0  0  0  0  0
    6.2831  -18.8418   23.6359 N   0  0  0  0  0  0  0  0  0  0  0  0
    6.9069  -18.5940   24.8797 C   0  0  0  0  0  0  0  0  0  0  0  0
    6.3651  -18.9342   25.9462 O   0  0  0  0  0  0  0  0  0  0  0  0
    8.2429  -17.9054   24.8312 C   0  0  0  0  0  0  0  0  0  0  0  0
    8.5387  -17.4137   23.4451 C   0  0  0  0  0  0  0  0  0  0  0  0
    8.2309  -15.9676   23.3106 C   0  0  2  0  0  0  0  0  0  0  0  0
    8.6386  -15.4690   21.9854 N   0  0  0  0  0  0  0  0  0  0  0  0
    8.8242  -15.1130   24.3641 C   0  0  0  0  0  0  0  0  0  0  0  0
   10.0386  -14.8386   24.4887 O   0  0  0  0  0  0  0  0  0  0  0  0
    6.1265  -13.2283   27.1111 C   0  0  0  0  0  0  0  0  0  0  0  0
    7.4701  -12.6125   26.7315 C   0  0  2  0  0  0  0  0  0  0  0  0
    7.2666  -11.7417   25.5072 C   0  0  0  0  0  0  0  0  0  0  0  0
    8.4829  -13.6964   26.4218 C   0  0  2  0  0  0  0  0  0  0  0  0
    7.9686  -14.5268   25.3505 N   0  0  0  0  0  0  0  0  0  0  0  0
    8.6550  -14.5152   27.6458 C   0  0  0  0  0  0  0  0  0  0  0  0
    8.2064  -15.7012   27.6768 O   0  0  0  0  0  0  0  0  0  0  0  0
    9.2850  -14.0640   28.7808 O   0  0  0  0  0  0  0  0  0  0  0  0
  2  1  1  6
  3  2  1  0
  4  6  1  0
  4  2  1  0
  4  5  1  6
  6  7  2  0
  8  9  1  0
  9 11  1  0
 10  9  2  0
 11 12  1  0
 13 12  1  1
 14 13  1  0
 14  6  1  0
 15 21  1  0
 15 13  1  0
 16 15  2  0
 18 17  1  6
 19 18  1  0
 20 18  1  0
 20 21  1  6
 22 20  1  0
 22 24  1  0
 23 22  2  0
M  END
$$$$
