TQV.pdb
     RDKit          3D

 24 23  0  0  1  0  0  0  0  0999 V2000
    8.6295  -12.5956   20.1007 C   0  0  0  0  0  0  0  0  0  0  0  0
    8.0186  -13.5558   19.1031 C   0  0  1  0  0  0  0  0  0  0  0  0
    8.4753  -13.3298   17.8154 O   0  0  0  0  0  0  0  0  0  0  0  0
    8.2268  -14.9928   19.5495 C   0  0  2  0  0  0  0  0  0  0  0  0
    7.7285  -15.8397   18.4935 N   0  0  0  0  0  0  0  0  0  0  0  0
    7.4922  -15.2792   20.8082 C   0  0  0  0  0  0  0  0  0  0  0  0
    6.3362  -15.7856   20.8145 O   0  0  0  0  0  0  0  0  0  0  0  0
    6.1095  -19.0174   22.9001 N   0  0  0  0  0  0  0  0  0  0  0  0
    6.6085  -18.8278   24.2087 C   0  0  0  0  0  0  0  0  0  0  0  0
    6.0475  -19.3484   25.1891 O   0  0  0  0  0  0  0  0  0  0  0  0
    7.8385  -17.9721   24.3368 C   0  0  0  0  0  0  0  0  0  0  0  0
    8.0784  -17.1924   23.0778 C   0  0  0  0  0  0  0  0  0  0  0  0
    7.7945  -15.7489   23.2771 C   0  0  2  0  0  0  0  0  0  0  0  0
    8.0782  -14.9874   22.0479 N   0  0  0  0  0  0  0  0  0  0  0  0
    8.5125  -15.1335   24.4164 C   0  0  0  0  0  0  0  0  0  0  0  0
    9.7442  -15.1965   24.6277 O   0  0  0  0  0  0  0  0  0  0  0  0
    6.1633  -13.2489   27.4386 C   0  0  0  0  0  0  0  0  0  0  0  0
    7.4479  -12.5829   26.9539 C   0  0  2  0  0  0  0  0  0  0  0  0
    7.0928  -11.6142   25.8429 C   0  0  0  0  0  0  0  0  0  0  0  0
    8.4204  -13.6211   26.4317 C   0  0  2  0  0  0  0  0  0  0  0  0
    7.7704  -14.3901   25.3887 N   0  0  0  0  0  0  0  0  0  0  0  0
    8.7742  -14.5151   27.5604 C   0  0  0  0  0  0  0  0  0  0  0  0
    8.3463  -15.7090   27.5745 O   0  0  0  0  0  0  0  0  0  0  0  0
    9.5560  -14.1272   28.6220 O   0  0  0  0  0  0  0  0  0  0  0  0
  2  1  1  1
  3  2  1  0
  4  6  1  0
  4  2  1  0
  4  5  1  6
  6  7  2  0
  8  9  1  0
  9 11  1  0
 10  9  2  0
 11 12  1  0
 13 12  1  6
 14 13  1  0
 14  6  1  0
 15 21  1  0
 15 13  1  0
 16 15  2  0
 18 17  1  6
 19 18  1  0
 20 18  1  0
 20 21  1  6
 22 20  1  0
 22 24  1  0
 23 22  2  0
M  END
$$$$
