TQV.pdb
     RDKit          3D

 24 23  0  0  1  0  0  0  0  0999 V2000
    9.1563  -13.1044   20.6647 C   0  0  0  0  0  0  0  0  0  0  0  0
    8.0184  -13.4451   19.7270 C   0  0  1  0  0  0  0  0  0  0  0  0
    8.3256  -13.1557   18.4080 O   0  0  0  0  0  0  0  0  0  0  0  0
    7.5828  -14.8877   19.9189 C   0  0  2  0  0  0  0  0  0  0  0  0
    6.5396  -15.1457   18.9567 N   0  0  0  0  0  0  0  0  0  0  0  0
    7.0640  -15.1172   21.2916 C   0  0  0  0  0  0  0  0  0  0  0  0
    6.0212  -14.5513   21.7223 O   0  0  0  0  0  0  0  0  0  0  0  0
    7.5114  -20.1514   24.7344 N   0  0  0  0  0  0  0  0  0  0  0  0
    7.2617  -19.2467   25.7912 C   0  0  0  0  0  0  0  0  0  0  0  0
    7.1248  -19.6499   26.9597 O   0  0  0  0  0  0  0  0  0  0  0  0
    7.1739  -17.7925   25.4184 C   0  0  0  0  0  0  0  0  0  0  0  0
    7.3844  -17.6067   23.9447 C   0  0  0  0  0  0  0  0  0  0  0  0
    7.3586  -16.1691   23.5750 C   0  0  2  0  0  0  0  0  0  0  0  0
    7.7350  -15.9875   22.1620 N   0  0  0  0  0  0  0  0  0  0  0  0
    8.2029  -15.3008   24.4268 C   0  0  0  0  0  0  0  0  0  0  0  0
    9.4526  -15.2421   24.4037 O   0  0  0  0  0  0  0  0  0  0  0  0
    6.1499  -12.6747   27.0344 C   0  0  0  0  0  0  0  0  0  0  0  0
    7.5901  -12.3725   26.6305 C   0  0  2  0  0  0  0  0  0  0  0  0
    7.5646  -11.4994   25.3913 C   0  0  0  0  0  0  0  0  0  0  0  0
    8.3390  -13.6559   26.3328 C   0  0  2  0  0  0  0  0  0  0  0  0
    7.5753  -14.4337   25.3772 N   0  0  0  0  0  0  0  0  0  0  0  0
    8.4614  -14.4110   27.6029 C   0  0  0  0  0  0  0  0  0  0  0  0
    7.8041  -15.4841   27.7619 O   0  0  0  0  0  0  0  0  0  0  0  0
    9.2608  -14.0164   28.6488 O   0  0  0  0  0  0  0  0  0  0  0  0
  2  1  1  1
  3  2  1  0
  4  6  1  0
  4  2  1  0
  4  5  1  6
  6  7  2  0
  8  9  1  0
  9 11  1  0
 10  9  2  0
 11 12  1  0
 13 12  1  1
 14 13  1  0
 14  6  1  0
 15 21  1  0
 15 13  1  0
 16 15  2  0
 18 17  1  6
 19 18  1  0
 20 18  1  0
 20 21  1  6
 22 20  1  0
 22 24  1  0
 23 22  2  0
M  END
$$$$
