TQV.pdb
     RDKit          3D

 24 23  0  0  1  0  0  0  0  0999 V2000
    8.7961  -12.4423   20.0723 C   0  0  0  0  0  0  0  0  0  0  0  0
    7.9942  -13.3546   19.1696 C   0  0  1  0  0  0  0  0  0  0  0  0
    8.0171  -12.9337   17.8503 O   0  0  0  0  0  0  0  0  0  0  0  0
    8.4489  -14.7954   19.3275 C   0  0  2  0  0  0  0  0  0  0  0  0
    7.7242  -15.5763   18.3550 N   0  0  0  0  0  0  0  0  0  0  0  0
    8.1616  -15.3059   20.6924 C   0  0  0  0  0  0  0  0  0  0  0  0
    6.9860  -15.5169   21.1003 O   0  0  0  0  0  0  0  0  0  0  0  0
   11.8644  -18.7826   22.3373 N   0  0  0  0  0  0  0  0  0  0  0  0
   10.5869  -19.2140   21.9138 C   0  0  0  0  0  0  0  0  0  0  0  0
   10.4613  -20.1828   21.1441 O   0  0  0  0  0  0  0  0  0  0  0  0
    9.4113  -18.4405   22.4440 C   0  0  0  0  0  0  0  0  0  0  0  0
    9.8692  -17.2433   23.2235 C   0  0  0  0  0  0  0  0  0  0  0  0
    9.0075  -16.0647   22.9543 C   0  0  2  0  0  0  0  0  0  0  0  0
    9.2128  -15.5719   21.5809 N   0  0  0  0  0  0  0  0  0  0  0  0
    9.1785  -14.9477   23.9109 C   0  0  0  0  0  0  0  0  0  0  0  0
   10.1470  -14.1564   23.9493 O   0  0  0  0  0  0  0  0  0  0  0  0
    7.1142  -11.7372   26.9511 C   0  0  0  0  0  0  0  0  0  0  0  0
    7.0080  -12.8727   25.9372 C   0  0  2  0  0  0  0  0  0  0  0  0
    5.8610  -13.7744   26.3496 C   0  0  0  0  0  0  0  0  0  0  0  0
    8.2947  -13.6724   25.8983 C   0  0  2  0  0  0  0  0  0  0  0  0
    8.1692  -14.7148   24.8987 N   0  0  0  0  0  0  0  0  0  0  0  0
    8.4844  -14.2861   27.2346 C   0  0  0  0  0  0  0  0  0  0  0  0
    8.2606  -15.5242   27.3951 O   0  0  0  0  0  0  0  0  0  0  0  0
    8.8976  -13.5851   28.3421 O   0  0  0  0  0  0  0  0  0  0  0  0
  2  1  1  1
  3  2  1  0
  4  6  1  0
  4  2  1  0
  4  5  1  6
  6  7  2  0
  8  9  1  0
  9 11  1  0
 10  9  2  0
 11 12  1  0
 13 12  1  1
 14 13  1  0
 14  6  1  0
 15 21  1  0
 15 13  1  0
 16 15  2  0
 18 17  1  1
 19 18  1  0
 20 18  1  0
 20 21  1  6
 22 20  1  0
 22 24  1  0
 23 22  2  0
M  END
$$$$
