TQV.pdb
     RDKit          3D

 24 23  0  0  1  0  0  0  0  0999 V2000
    8.3992  -16.3382   18.5769 C   0  0  0  0  0  0  0  0  0  0  0  0
    8.0489  -15.9217   19.9890 C   0  0  1  0  0  0  0  0  0  0  0  0
    7.6351  -14.6018   20.0555 O   0  0  0  0  0  0  0  0  0  0  0  0
    7.0353  -16.8794   20.5917 C   0  0  2  0  0  0  0  0  0  0  0  0
    5.8194  -16.7435   19.8276 N   0  0  0  0  0  0  0  0  0  0  0  0
    6.7684  -16.5567   22.0167 C   0  0  0  0  0  0  0  0  0  0  0  0
    5.9064  -15.7034   22.3655 O   0  0  0  0  0  0  0  0  0  0  0  0
    7.8049  -20.4646   26.6781 N   0  0  0  0  0  0  0  0  0  0  0  0
    7.4695  -19.3297   27.4508 C   0  0  0  0  0  0  0  0  0  0  0  0
    7.3405  -19.4114   28.6851 O   0  0  0  0  0  0  0  0  0  0  0  0
    7.2823  -18.0412   26.6984 C   0  0  0  0  0  0  0  0  0  0  0  0
    7.3763  -18.2700   25.2186 C   0  0  0  0  0  0  0  0  0  0  0  0
    7.2228  -16.9988   24.4673 C   0  0  2  0  0  0  0  0  0  0  0  0
    7.4837  -17.2069   23.0321 N   0  0  0  0  0  0  0  0  0  0  0  0
    8.0622  -15.8856   24.9659 C   0  0  0  0  0  0  0  0  0  0  0  0
    9.2767  -15.7146   24.7180 O   0  0  0  0  0  0  0  0  0  0  0  0
    6.1309  -12.9655   27.4100 C   0  0  0  0  0  0  0  0  0  0  0  0
    7.3522  -12.6051   26.5691 C   0  0  2  0  0  0  0  0  0  0  0  0
    6.8727  -12.1222   25.2144 C   0  0  0  0  0  0  0  0  0  0  0  0
    8.2492  -13.8134   26.3899 C   0  0  2  0  0  0  0  0  0  0  0  0
    7.4729  -14.8923   25.8113 N   0  0  0  0  0  0  0  0  0  0  0  0
    8.7362  -14.2159   27.7312 C   0  0  0  0  0  0  0  0  0  0  0  0
    8.3189  -15.2935   28.2540 O   0  0  0  0  0  0  0  0  0  0  0  0
    9.6340  -13.4803   28.4670 O   0  0  0  0  0  0  0  0  0  0  0  0
  2  1  1  6
  3  2  1  0
  4  6  1  0
  4  2  1  0
  4  5  1  6
  6  7  2  0
  8  9  1  0
  9 11  1  0
 10  9  2  0
 11 12  1  0
 13 12  1  1
 14 13  1  0
 14  6  1  0
 15 21  1  0
 15 13  1  0
 16 15  2  0
 18 17  1  1
 19 18  1  0
 20 18  1  0
 20 21  1  1
 22 20  1  0
 22 24  1  0
 23 22  2  0
M  END
$$$$
