TQV.pdb
     RDKit          3D

 24 23  0  0  1  0  0  0  0  0999 V2000
    8.4384  -12.3675   20.2605 C   0  0  0  0  0  0  0  0  0  0  0  0
    7.8310  -13.3885   19.3230 C   0  0  1  0  0  0  0  0  0  0  0  0
    7.9876  -13.0334   17.9936 O   0  0  0  0  0  0  0  0  0  0  0  0
    8.3733  -14.7758   19.6214 C   0  0  2  0  0  0  0  0  0  0  0  0
    7.7982  -15.6725   18.6489 N   0  0  0  0  0  0  0  0  0  0  0  0
    8.0017  -15.2180   20.9898 C   0  0  0  0  0  0  0  0  0  0  0  0
    6.8194  -15.5329   21.2994 O   0  0  0  0  0  0  0  0  0  0  0  0
   10.5676  -19.8349   21.9068 N   0  0  0  0  0  0  0  0  0  0  0  0
    9.6002  -19.4705   22.8705 C   0  0  0  0  0  0  0  0  0  0  0  0
    9.3653  -20.2011   23.8492 O   0  0  0  0  0  0  0  0  0  0  0  0
    8.8866  -18.1669   22.6405 C   0  0  0  0  0  0  0  0  0  0  0  0
    9.4042  -17.1058   23.5661 C   0  0  0  0  0  0  0  0  0  0  0  0
    8.7062  -15.8140   23.3469 C   0  0  2  0  0  0  0  0  0  0  0  0
    8.9772  -15.2983   21.9935 N   0  0  0  0  0  0  0  0  0  0  0  0
    9.0215  -14.7683   24.3465 C   0  0  0  0  0  0  0  0  0  0  0  0
   10.1377  -14.2291   24.5170 O   0  0  0  0  0  0  0  0  0  0  0  0
    5.8090  -13.4025   26.8379 C   0  0  0  0  0  0  0  0  0  0  0  0
    7.0166  -12.5228   26.5275 C   0  0  2  0  0  0  0  0  0  0  0  0
    6.7139  -11.7216   25.2765 C   0  0  0  0  0  0  0  0  0  0  0  0
    8.2497  -13.3740   26.3003 C   0  0  2  0  0  0  0  0  0  0  0  0
    7.9863  -14.3017   25.2179 N   0  0  0  0  0  0  0  0  0  0  0  0
    8.5122  -14.1292   27.5489 C   0  0  0  0  0  0  0  0  0  0  0  0
    8.2885  -15.3771   27.5874 O   0  0  0  0  0  0  0  0  0  0  0  0
    8.9949  -13.5531   28.6994 O   0  0  0  0  0  0  0  0  0  0  0  0
  2  1  1  1
  3  2  1  0
  4  6  1  0
  4  2  1  0
  4  5  1  6
  6  7  2  0
  8  9  1  0
  9 11  1  0
 10  9  2  0
 11 12  1  0
 13 12  1  1
 14 13  1  0
 14  6  1  0
 15 21  1  0
 15 13  1  0
 16 15  2  0
 18 17  1  6
 19 18  1  0
 20 18  1  0
 20 21  1  6
 22 20  1  0
 22 24  1  0
 23 22  2  0
M  END
$$$$
