TQV.pdb
     RDKit          3D

 24 23  0  0  1  0  0  0  0  0999 V2000
    9.4474  -16.2293   20.5255 C   0  0  0  0  0  0  0  0  0  0  0  0
    9.4048  -14.8311   19.9481 C   0  0  1  0  0  0  0  0  0  0  0  0
    9.4941  -14.8350   18.5661 O   0  0  0  0  0  0  0  0  0  0  0  0
    8.1804  -14.0842   20.4489 C   0  0  2  0  0  0  0  0  0  0  0  0
    8.1076  -12.8480   19.7091 N   0  0  0  0  0  0  0  0  0  0  0  0
    8.2829  -13.7917   21.9015 C   0  0  0  0  0  0  0  0  0  0  0  0
    8.8752  -12.7687   22.3437 O   0  0  0  0  0  0  0  0  0  0  0  0
    5.2261  -12.3475   25.6691 N   0  0  0  0  0  0  0  0  0  0  0  0
    6.0741  -12.9666   26.6151 C   0  0  0  0  0  0  0  0  0  0  0  0
    6.5090  -12.3352   27.5944 O   0  0  0  0  0  0  0  0  0  0  0  0
    6.4104  -14.4110   26.3659 C   0  0  0  0  0  0  0  0  0  0  0  0
    6.4134  -14.7113   24.8960 C   0  0  0  0  0  0  0  0  0  0  0  0
    7.7384  -14.4238   24.2914 C   0  0  2  0  0  0  0  0  0  0  0  0
    7.7113  -14.6645   22.8379 N   0  0  0  0  0  0  0  0  0  0  0  0
    8.8643  -15.1722   24.8953 C   0  0  0  0  0  0  0  0  0  0  0  0
    9.3948  -16.2039   24.4265 O   0  0  0  0  0  0  0  0  0  0  0  0
    9.8447  -14.4441   29.0134 C   0  0  0  0  0  0  0  0  0  0  0  0
   10.9619  -14.6016   27.9859 C   0  0  2  0  0  0  0  0  0  0  0  0
   11.3684  -13.2213   27.5084 C   0  0  0  0  0  0  0  0  0  0  0  0
   10.4875  -15.4280   26.8076 C   0  0  2  0  0  0  0  0  0  0  0  0
    9.4283  -14.7096   26.1268 N   0  0  0  0  0  0  0  0  0  0  0  0
    9.9582  -16.7073   27.3384 C   0  0  0  0  0  0  0  0  0  0  0  0
    8.7106  -16.9333   27.3053 O   0  0  0  0  0  0  0  0  0  0  0  0
   10.7496  -17.6923   27.8789 O   0  0  0  0  0  0  0  0  0  0  0  0
  2  1  1  6
  3  2  1  0
  4  6  1  0
  4  2  1  0
  4  5  1  6
  6  7  2  0
  8  9  1  0
  9 11  1  0
 10  9  2  0
 11 12  1  0
 13 12  1  1
 14 13  1  0
 14  6  1  0
 15 21  1  0
 15 13  1  0
 16 15  2  0
 18 17  1  1
 19 18  1  0
 20 18  1  0
 20 21  1  1
 22 20  1  0
 22 24  1  0
 23 22  2  0
M  END
$$$$
