TQV.pdb
     RDKit          3D

 24 23  0  0  1  0  0  0  0  0999 V2000
    8.4171  -12.9633   18.2985 C   0  0  0  0  0  0  0  0  0  0  0  0
    8.2186  -13.4292   19.7246 C   0  0  1  0  0  0  0  0  0  0  0  0
    7.0553  -12.9238   20.2808 O   0  0  0  0  0  0  0  0  0  0  0  0
    8.2908  -14.9444   19.8058 C   0  0  2  0  0  0  0  0  0  0  0  0
    7.2543  -15.4633   18.9472 N   0  0  0  0  0  0  0  0  0  0  0  0
    8.0737  -15.4217   21.1955 C   0  0  0  0  0  0  0  0  0  0  0  0
    6.9254  -15.6901   21.6452 O   0  0  0  0  0  0  0  0  0  0  0  0
   11.3347  -19.4962   23.8653 N   0  0  0  0  0  0  0  0  0  0  0  0
   10.3005  -19.6024   22.9079 C   0  0  0  0  0  0  0  0  0  0  0  0
   10.1568  -20.6373   22.2333 O   0  0  0  0  0  0  0  0  0  0  0  0
    9.4018  -18.4057   22.7602 C   0  0  0  0  0  0  0  0  0  0  0  0
    9.8462  -17.2914   23.6611 C   0  0  0  0  0  0  0  0  0  0  0  0
    9.0303  -16.0697   23.4477 C   0  0  2  0  0  0  0  0  0  0  0  0
    9.1637  -15.5895   22.0611 N   0  0  0  0  0  0  0  0  0  0  0  0
    9.3263  -14.9622   24.3848 C   0  0  0  0  0  0  0  0  0  0  0  0
   10.3122  -14.1940   24.3247 O   0  0  0  0  0  0  0  0  0  0  0  0
    6.2393  -13.6600   26.9021 C   0  0  0  0  0  0  0  0  0  0  0  0
    7.4806  -12.8167   26.6252 C   0  0  2  0  0  0  0  0  0  0  0  0
    7.2546  -12.0428   25.3412 C   0  0  0  0  0  0  0  0  0  0  0  0
    8.7020  -13.7016   26.4772 C   0  0  2  0  0  0  0  0  0  0  0  0
    8.4309  -14.7112   25.4729 N   0  0  0  0  0  0  0  0  0  0  0  0
    8.9458  -14.3554   27.7854 C   0  0  0  0  0  0  0  0  0  0  0  0
    9.2558  -13.6496   28.7927 O   0  0  0  0  0  0  0  0  0  0  0  0
    8.8564  -15.7119   27.9865 O   0  0  0  0  0  0  0  0  0  0  0  0
  2  1  1  6
  3  2  1  0
  4  6  1  0
  4  2  1  0
  4  5  1  6
  6  7  2  0
  8  9  1  0
  9 11  1  0
 10  9  2  0
 11 12  1  0
 13 12  1  1
 14 13  1  0
 14  6  1  0
 15 21  1  0
 15 13  1  0
 16 15  2  0
 18 17  1  6
 19 18  1  0
 20 18  1  0
 20 21  1  6
 22 20  1  0
 22 24  1  0
 23 22  2  0
M  END
$$$$
