TQV.pdb
     RDKit          3D

 24 23  0  0  1  0  0  0  0  0999 V2000
    8.8550  -12.5929   20.0543 C   0  0  0  0  0  0  0  0  0  0  0  0
    7.9997  -13.4606   19.1567 C   0  0  1  0  0  0  0  0  0  0  0  0
    8.2209  -13.1994   17.8148 O   0  0  0  0  0  0  0  0  0  0  0  0
    8.1841  -14.9287   19.5008 C   0  0  2  0  0  0  0  0  0  0  0  0
    7.4329  -15.6876   18.5311 N   0  0  0  0  0  0  0  0  0  0  0  0
    7.6846  -15.2302   20.8667 C   0  0  0  0  0  0  0  0  0  0  0  0
    6.4538  -15.3254   21.1293 O   0  0  0  0  0  0  0  0  0  0  0  0
    6.0488  -18.7070   25.7215 N   0  0  0  0  0  0  0  0  0  0  0  0
    7.1538  -18.8271   24.8484 C   0  0  0  0  0  0  0  0  0  0  0  0
    7.2720  -19.8115   24.0976 O   0  0  0  0  0  0  0  0  0  0  0  0
    8.1584  -17.7087   24.8852 C   0  0  0  0  0  0  0  0  0  0  0  0
    8.5236  -17.2747   23.4963 C   0  0  0  0  0  0  0  0  0  0  0  0
    8.1797  -15.8482   23.2709 C   0  0  2  0  0  0  0  0  0  0  0  0
    8.5884  -15.4206   21.9213 N   0  0  0  0  0  0  0  0  0  0  0  0
    8.7395  -14.9156   24.2755 C   0  0  0  0  0  0  0  0  0  0  0  0
    9.9182  -14.4973   24.3116 O   0  0  0  0  0  0  0  0  0  0  0  0
    6.0874  -13.5923   27.3436 C   0  0  0  0  0  0  0  0  0  0  0  0
    7.2043  -12.6822   26.8408 C   0  0  2  0  0  0  0  0  0  0  0  0
    6.6538  -11.8295   25.7145 C   0  0  0  0  0  0  0  0  0  0  0  0
    8.3713  -13.5045   26.3322 C   0  0  2  0  0  0  0  0  0  0  0  0
    7.8917  -14.4225   25.3179 N   0  0  0  0  0  0  0  0  0  0  0  0
    8.9155  -14.2713   27.4785 C   0  0  0  0  0  0  0  0  0  0  0  0
    9.4913  -13.6584   28.4281 O   0  0  0  0  0  0  0  0  0  0  0  0
    8.8365  -15.6392   27.5852 O   0  0  0  0  0  0  0  0  0  0  0  0
  2  1  1  1
  3  2  1  0
  4  6  1  0
  4  2  1  0
  4  5  1  6
  6  7  2  0
  8  9  1  0
  9 11  1  0
 10  9  2  0
 11 12  1  0
 13 12  1  1
 14 13  1  0
 14  6  1  0
 15 21  1  0
 15 13  1  0
 16 15  2  0
 18 17  1  6
 19 18  1  0
 20 18  1  0
 20 21  1  6
 22 20  1  0
 22 24  1  0
 23 22  2  0
M  END
$$$$
