TQV.pdb
     RDKit          3D

 24 23  0  0  1  0  0  0  0  0999 V2000
    7.0867  -12.8316   17.9515 C   0  0  0  0  0  0  0  0  0  0  0  0
    7.2164  -13.9156   18.9995 C   0  0  1  0  0  0  0  0  0  0  0  0
    7.9972  -14.9725   18.5621 O   0  0  0  0  0  0  0  0  0  0  0  0
    7.7110  -13.3323   20.3120 C   0  0  2  0  0  0  0  0  0  0  0  0
    9.0429  -12.8310   20.0764 N   0  0  0  0  0  0  0  0  0  0  0  0
    7.7470  -14.3625   21.3814 C   0  0  0  0  0  0  0  0  0  0  0  0
    6.6978  -14.8770   21.8582 O   0  0  0  0  0  0  0  0  0  0  0  0
    9.5607  -19.3722   22.3010 N   0  0  0  0  0  0  0  0  0  0  0  0
    9.9242  -19.1039   23.6402 C   0  0  0  0  0  0  0  0  0  0  0  0
    9.9613  -20.0135   24.4876 O   0  0  0  0  0  0  0  0  0  0  0  0
   10.2570  -17.6745   23.9682 C   0  0  0  0  0  0  0  0  0  0  0  0
   10.0624  -16.7937   22.7694 C   0  0  0  0  0  0  0  0  0  0  0  0
    9.0906  -15.7077   23.0524 C   0  0  2  0  0  0  0  0  0  0  0  0
    8.9748  -14.7983   21.8989 N   0  0  0  0  0  0  0  0  0  0  0  0
    9.3853  -14.9227   24.2729 C   0  0  0  0  0  0  0  0  0  0  0  0
   10.5240  -14.6135   24.6891 O   0  0  0  0  0  0  0  0  0  0  0  0
    6.0317  -13.6397   26.5820 C   0  0  0  0  0  0  0  0  0  0  0  0
    7.3254  -12.8304   26.5738 C   0  0  2  0  0  0  0  0  0  0  0  0
    7.2304  -11.7910   25.4741 C   0  0  0  0  0  0  0  0  0  0  0  0
    8.5154  -13.7332   26.3187 C   0  0  2  0  0  0  0  0  0  0  0  0
    8.2998  -14.4549   25.0801 N   0  0  0  0  0  0  0  0  0  0  0  0
    8.6016  -14.6940   27.4447 C   0  0  0  0  0  0  0  0  0  0  0  0
    8.3092  -15.9134   27.2541 O   0  0  0  0  0  0  0  0  0  0  0  0
    8.9875  -14.3434   28.7162 O   0  0  0  0  0  0  0  0  0  0  0  0
  2  1  1  6
  3  2  1  0
  4  6  1  0
  4  2  1  0
  4  5  1  6
  6  7  2  0
  8  9  1  0
  9 11  1  0
 10  9  2  0
 11 12  1  0
 13 12  1  6
 14 13  1  0
 14  6  1  0
 15 21  1  0
 15 13  1  0
 16 15  2  0
 18 17  1  6
 19 18  1  0
 20 18  1  0
 20 21  1  6
 22 20  1  0
 22 24  1  0
 23 22  2  0
M  END
$$$$
