KCI.pdb
     RDKit          3D

 24 23  0  0  1  0  0  0  0  0999 V2000
    9.5390  -17.8678   19.3766 N   0  0  0  0  0  0  0  0  0  0  0  0
    8.5742  -16.8206   19.2323 C   0  0  1  0  0  0  0  0  0  0  0  0
    7.5538  -17.0578   18.1537 C   0  0  0  0  0  0  0  0  0  0  0  0
    8.0553  -17.9466   17.0384 C   0  0  0  0  0  0  0  0  0  0  0  0
    6.8913  -18.2861   16.1532 C   0  0  0  0  0  0  0  0  0  0  0  0
    7.2873  -19.1979   15.0103 C   0  0  0  0  0  0  0  0  0  0  0  0
    6.0704  -19.4759   14.2580 N   0  0  0  0  0  0  0  0  0  0  0  0
    7.7865  -16.6344   20.5061 C   0  0  0  0  0  0  0  0  0  0  0  0
    6.8214  -15.8393   20.5366 O   0  0  0  0  0  0  0  0  0  0  0  0
    8.1174  -17.3433   21.6754 N   0  0  0  0  0  0  0  0  0  0  0  0
    7.2777  -17.1490   22.8746 C   0  0  1  0  0  0  0  0  0  0  0  0
    7.1836  -18.4865   23.5796 C   0  0  0  0  0  0  0  0  0  0  0  0
    8.4006  -18.5827   24.8782 S   0  0  0  0  0  0  0  0  0  0  0  0
    7.9254  -16.1194   23.7320 C   0  0  0  0  0  0  0  0  0  0  0  0
    9.1624  -15.8667   23.5082 O   0  0  0  0  0  0  0  0  0  0  0  0
    6.9376  -10.7768   26.4169 C   0  0  0  0  0  0  0  0  0  0  0  0
    7.7814  -12.0238   26.2358 C   0  0  0  0  0  0  0  0  0  0  0  0
    7.0202  -13.1278   25.5658 C   0  0  2  0  0  0  0  0  0  0  0  0
    5.8690  -13.5602   26.4768 C   0  0  0  0  0  0  0  0  0  0  0  0
    7.9443  -14.3147   25.4010 C   0  0  2  0  0  0  0  0  0  0  0  0
    7.2556  -15.4162   24.7615 N   0  0  0  0  0  0  0  0  0  0  0  0
    8.3720  -14.7779   26.7522 C   0  0  0  0  0  0  0  0  0  0  0  0
    9.3357  -14.1188   27.4801 O   0  0  0  0  0  0  0  0  0  0  0  0
    7.8439  -15.8108   27.2674 O   0  0  0  0  0  0  0  0  0  0  0  0
  2  1  1  1
  3  2  1  0
  4  3  1  0
  5  4  1  0
  5  6  1  0
  6  7  1  0
  8  9  2  0
  8  2  1  0
 10  8  1  0
 11 10  1  0
 12 13  1  0
 11 12  1  1
 14 21  1  0
 14 11  1  0
 15 14  2  0
 17 16  1  0
 18 17  1  0
 18 20  1  0
 18 19  1  1
 20 21  1  1
 20 22  1  0
 22 23  1  0
 24 22  2  0
M  END
$$$$
