KCI.pdb
     RDKit          3D

 24 23  0  0  1  0  0  0  0  0999 V2000
    6.1567  -16.3739   19.1249 N   0  0  0  0  0  0  0  0  0  0  0  0
    6.9937  -15.6158   20.0041 C   0  0  1  0  0  0  0  0  0  0  0  0
    6.8533  -14.1251   19.8666 C   0  0  0  0  0  0  0  0  0  0  0  0
    7.2870  -13.6037   18.5155 C   0  0  0  0  0  0  0  0  0  0  0  0
    8.6956  -14.0610   18.2692 C   0  0  0  0  0  0  0  0  0  0  0  0
    9.2339  -13.5691   16.9415 C   0  0  0  0  0  0  0  0  0  0  0  0
   10.5940  -14.0803   16.8281 N   0  0  0  0  0  0  0  0  0  0  0  0
    6.6786  -15.9244   21.4474 C   0  0  0  0  0  0  0  0  0  0  0  0
    5.6536  -15.4468   21.9820 O   0  0  0  0  0  0  0  0  0  0  0  0
    7.5225  -16.7473   22.2155 N   0  0  0  0  0  0  0  0  0  0  0  0
    7.1642  -16.9968   23.6264 C   0  0  1  0  0  0  0  0  0  0  0  0
    7.5060  -18.4412   23.9288 C   0  0  0  0  0  0  0  0  0  0  0  0
    7.3478  -18.7565   25.6758 S   0  0  0  0  0  0  0  0  0  0  0  0
    7.9452  -16.0570   24.4759 C   0  0  0  0  0  0  0  0  0  0  0  0
    9.1738  -15.8683   24.1612 O   0  0  0  0  0  0  0  0  0  0  0  0
    5.6608  -11.7939   26.9465 C   0  0  0  0  0  0  0  0  0  0  0  0
    6.6443  -12.6851   26.2129 C   0  0  0  0  0  0  0  0  0  0  0  0
    7.4758  -13.5028   27.1545 C   0  0  2  0  0  0  0  0  0  0  0  0
    8.4641  -12.5806   27.8722 C   0  0  0  0  0  0  0  0  0  0  0  0
    8.2813  -14.4947   26.3438 C   0  0  2  0  0  0  0  0  0  0  0  0
    7.4084  -15.3717   25.5918 N   0  0  0  0  0  0  0  0  0  0  0  0
    9.0725  -15.3448   27.2790 C   0  0  0  0  0  0  0  0  0  0  0  0
   10.3725  -15.0464   27.6164 O   0  0  0  0  0  0  0  0  0  0  0  0
    8.5505  -16.3817   27.7925 O   0  0  0  0  0  0  0  0  0  0  0  0
  2  1  1  6
  3  2  1  0
  4  3  1  0
  5  4  1  0
  5  6  1  0
  6  7  1  0
  8  9  2  0
  8  2  1  0
 10  8  1  0
 11 10  1  0
 12 13  1  0
 11 12  1  1
 14 21  1  0
 14 11  1  0
 15 14  2  0
 17 16  1  0
 18 17  1  0
 18 20  1  0
 18 19  1  6
 20 21  1  1
 20 22  1  0
 22 23  1  0
 24 22  2  0
M  END
$$$$
