KCI.pdb
     RDKit          3D

 24 23  0  0  1  0  0  0  0  0999 V2000
    6.5130  -16.7230   18.6327 N   0  0  0  0  0  0  0  0  0  0  0  0
    7.0948  -15.7557   19.5125 C   0  0  1  0  0  0  0  0  0  0  0  0
    6.6660  -14.3384   19.2516 C   0  0  0  0  0  0  0  0  0  0  0  0
    7.6623  -13.5517   18.4307 C   0  0  0  0  0  0  0  0  0  0  0  0
    7.9042  -14.2973   17.1503 C   0  0  0  0  0  0  0  0  0  0  0  0
    9.0124  -13.6757   16.3258 C   0  0  0  0  0  0  0  0  0  0  0  0
    9.1967  -14.5330   15.1617 N   0  0  0  0  0  0  0  0  0  0  0  0
    6.7206  -16.0382   20.9471 C   0  0  0  0  0  0  0  0  0  0  0  0
    5.5184  -16.0438   21.2926 O   0  0  0  0  0  0  0  0  0  0  0  0
    7.7055  -16.2984   21.9173 N   0  0  0  0  0  0  0  0  0  0  0  0
    7.2689  -16.6256   23.2897 C   0  0  1  0  0  0  0  0  0  0  0  0
    7.5419  -18.0993   23.5094 C   0  0  0  0  0  0  0  0  0  0  0  0
    7.2822  -18.5231   25.2210 S   0  0  0  0  0  0  0  0  0  0  0  0
    8.0408  -15.7757   24.2366 C   0  0  0  0  0  0  0  0  0  0  0  0
    9.2965  -15.6437   24.0127 O   0  0  0  0  0  0  0  0  0  0  0  0
    5.8990  -11.5445   26.9160 C   0  0  0  0  0  0  0  0  0  0  0  0
    6.8771  -12.4346   26.1738 C   0  0  0  0  0  0  0  0  0  0  0  0
    7.5584  -13.4088   27.0869 C   0  0  2  0  0  0  0  0  0  0  0  0
    8.5551  -12.6503   27.9663 C   0  0  0  0  0  0  0  0  0  0  0  0
    8.3453  -14.3869   26.2419 C   0  0  2  0  0  0  0  0  0  0  0  0
    7.4681  -15.1160   25.3500 N   0  0  0  0  0  0  0  0  0  0  0  0
    8.9948  -15.3814   27.1432 C   0  0  0  0  0  0  0  0  0  0  0  0
   10.3273  -15.3049   27.4772 O   0  0  0  0  0  0  0  0  0  0  0  0
    8.3163  -16.3375   27.6297 O   0  0  0  0  0  0  0  0  0  0  0  0
  2  1  1  6
  3  2  1  0
  4  3  1  0
  5  4  1  0
  5  6  1  0
  6  7  1  0
  8  9  2  0
  8  2  1  0
 10  8  1  0
 11 10  1  0
 12 13  1  0
 11 12  1  1
 14 21  1  0
 14 11  1  0
 15 14  2  0
 17 16  1  0
 18 17  1  0
 18 20  1  0
 18 19  1  1
 20 21  1  6
 20 22  1  0
 22 23  1  0
 24 22  2  0
M  END
$$$$
