KCI.pdb
     RDKit          3D

 24 23  0  0  1  0  0  0  0  0999 V2000
    5.9110  -20.1437   20.2717 N   0  0  0  0  0  0  0  0  0  0  0  0
    6.9761  -19.4365   20.9147 C   0  0  1  0  0  0  0  0  0  0  0  0
    7.6962  -18.4563   20.0307 C   0  0  0  0  0  0  0  0  0  0  0  0
    7.2322  -18.4924   18.5924 C   0  0  0  0  0  0  0  0  0  0  0  0
    8.4429  -18.4039   17.7091 C   0  0  0  0  0  0  0  0  0  0  0  0
    8.0762  -18.2905   16.2438 C   0  0  0  0  0  0  0  0  0  0  0  0
    9.3300  -18.2014   15.5062 N   0  0  0  0  0  0  0  0  0  0  0  0
    6.4605  -18.6313   22.0825 C   0  0  0  0  0  0  0  0  0  0  0  0
    5.3515  -18.0576   22.0083 O   0  0  0  0  0  0  0  0  0  0  0  0
    7.2085  -18.5092   23.2677 N   0  0  0  0  0  0  0  0  0  0  0  0
    6.5971  -17.8060   24.4135 C   0  0  1  0  0  0  0  0  0  0  0  0
    6.6768  -18.7359   25.6067 C   0  0  0  0  0  0  0  0  0  0  0  0
    8.3797  -19.0314   26.0419 S   0  0  0  0  0  0  0  0  0  0  0  0
    7.3578  -16.5479   24.6446 C   0  0  0  0  0  0  0  0  0  0  0  0
    8.4809  -16.4244   24.0383 O   0  0  0  0  0  0  0  0  0  0  0  0
    7.0403  -10.6272   26.2649 C   0  0  0  0  0  0  0  0  0  0  0  0
    7.8078  -11.9141   26.0314 C   0  0  0  0  0  0  0  0  0  0  0  0
    6.8976  -13.0977   25.8983 C   0  0  2  0  0  0  0  0  0  0  0  0
    6.1866  -13.3290   27.2336 C   0  0  0  0  0  0  0  0  0  0  0  0
    7.7415  -14.3205   25.6111 C   0  0  2  0  0  0  0  0  0  0  0  0
    6.9102  -15.4990   25.4829 N   0  0  0  0  0  0  0  0  0  0  0  0
    8.6630  -14.5454   26.7616 C   0  0  0  0  0  0  0  0  0  0  0  0
    9.8108  -13.8068   26.9345 O   0  0  0  0  0  0  0  0  0  0  0  0
    8.4003  -15.4415   27.6214 O   0  0  0  0  0  0  0  0  0  0  0  0
  2  1  1  6
  3  2  1  0
  4  3  1  0
  5  4  1  0
  5  6  1  0
  6  7  1  0
  8  9  2  0
  8  2  1  0
 10  8  1  0
 11 10  1  0
 12 13  1  0
 11 12  1  1
 14 21  1  0
 14 11  1  0
 15 14  2  0
 17 16  1  0
 18 17  1  0
 18 20  1  0
 18 19  1  1
 20 21  1  1
 20 22  1  0
 22 23  1  0
 24 22  2  0
M  END
$$$$
