KCI.pdb
     RDKit          3D

 24 23  0  0  1  0  0  0  0  0999 V2000
   10.0389  -15.6000   20.0212 N   0  0  0  0  0  0  0  0  0  0  0  0
    9.1772  -16.2697   20.9469 C   0  0  1  0  0  0  0  0  0  0  0  0
    9.5742  -17.6869   21.2545 C   0  0  0  0  0  0  0  0  0  0  0  0
    9.1920  -18.6662   20.1680 C   0  0  0  0  0  0  0  0  0  0  0  0
    8.3080  -19.7162   20.7761 C   0  0  0  0  0  0  0  0  0  0  0  0
    7.9276  -20.7921   19.7801 C   0  0  0  0  0  0  0  0  0  0  0  0
    7.1505  -21.7831   20.5135 N   0  0  0  0  0  0  0  0  0  0  0  0
    9.1540  -15.5544   22.2757 C   0  0  0  0  0  0  0  0  0  0  0  0
   10.2005  -15.0428   22.7314 O   0  0  0  0  0  0  0  0  0  0  0  0
    7.9670  -15.4488   23.0235 N   0  0  0  0  0  0  0  0  0  0  0  0
    8.0124  -14.7312   24.3135 C   0  0  1  0  0  0  0  0  0  0  0  0
    6.5835  -14.4089   24.6996 C   0  0  0  0  0  0  0  0  0  0  0  0
    6.5442  -13.6013   26.2880 S   0  0  0  0  0  0  0  0  0  0  0  0
    8.6663  -15.6176   25.3142 C   0  0  0  0  0  0  0  0  0  0  0  0
    8.7219  -16.8687   25.0386 O   0  0  0  0  0  0  0  0  0  0  0  0
   11.1149  -13.1406   29.3650 C   0  0  0  0  0  0  0  0  0  0  0  0
   11.1695  -14.1690   28.2518 C   0  0  0  0  0  0  0  0  0  0  0  0
   10.4529  -15.4340   28.6165 C   0  0  2  0  0  0  0  0  0  0  0  0
   11.4432  -16.3896   29.2860 C   0  0  0  0  0  0  0  0  0  0  0  0
    9.9691  -16.0940   27.3436 C   0  0  2  0  0  0  0  0  0  0  0  0
    9.2220  -15.1566   26.5315 N   0  0  0  0  0  0  0  0  0  0  0  0
    9.0464  -17.2083   27.7046 C   0  0  0  0  0  0  0  0  0  0  0  0
    9.4934  -18.4956   27.8945 O   0  0  0  0  0  0  0  0  0  0  0  0
    7.8049  -16.9856   27.8468 O   0  0  0  0  0  0  0  0  0  0  0  0
  2  1  1  6
  3  2  1  0
  4  3  1  0
  5  4  1  0
  5  6  1  0
  6  7  1  0
  8  9  2  0
  8  2  1  0
 10  8  1  0
 11 10  1  0
 12 13  1  0
 11 12  1  1
 14 21  1  0
 14 11  1  0
 15 14  2  0
 17 16  1  0
 18 17  1  0
 18 20  1  0
 18 19  1  6
 20 21  1  6
 20 22  1  0
 22 23  1  0
 24 22  2  0
M  END
$$$$
