KCI.pdb
     RDKit          3D

 24 23  0  0  1  0  0  0  0  0999 V2000
    5.2419  -19.1985   21.4898 N   0  0  0  0  0  0  0  0  0  0  0  0
    5.0167  -19.5397   22.8613 C   0  0  1  0  0  0  0  0  0  0  0  0
    4.8475  -21.0116   23.1177 C   0  0  0  0  0  0  0  0  0  0  0  0
    5.3666  -21.8797   21.9942 C   0  0  0  0  0  0  0  0  0  0  0  0
    5.1145  -23.3142   22.3583 C   0  0  0  0  0  0  0  0  0  0  0  0
    5.6195  -24.2716   21.2988 C   0  0  0  0  0  0  0  0  0  0  0  0
    5.4002  -25.6171   21.8143 N   0  0  0  0  0  0  0  0  0  0  0  0
    6.1779  -19.1059   23.7221 C   0  0  0  0  0  0  0  0  0  0  0  0
    6.3771  -19.6527   24.8293 O   0  0  0  0  0  0  0  0  0  0  0  0
    7.0527  -18.0870   23.3026 N   0  0  0  0  0  0  0  0  0  0  0  0
    8.1206  -17.6550   24.2268 C   0  0  1  0  0  0  0  0  0  0  0  0
    9.4327  -18.1665   23.6688 C   0  0  0  0  0  0  0  0  0  0  0  0
    9.9364  -17.1736   22.2770 S   0  0  0  0  0  0  0  0  0  0  0  0
    8.0961  -16.1689   24.3010 C   0  0  0  0  0  0  0  0  0  0  0  0
    7.8063  -15.5349   23.2247 O   0  0  0  0  0  0  0  0  0  0  0  0
    5.7276  -11.3217   26.0875 C   0  0  0  0  0  0  0  0  0  0  0  0
    7.0122  -11.9550   25.5890 C   0  0  0  0  0  0  0  0  0  0  0  0
    6.9599  -13.4522   25.6394 C   0  0  2  0  0  0  0  0  0  0  0  0
    6.5266  -13.8863   27.0415 C   0  0  0  0  0  0  0  0  0  0  0  0
    8.3556  -13.9880   25.4051 C   0  0  2  0  0  0  0  0  0  0  0  0
    8.3692  -15.4340   25.4792 N   0  0  0  0  0  0  0  0  0  0  0  0
    9.2505  -13.4759   26.4822 C   0  0  0  0  0  0  0  0  0  0  0  0
    9.8233  -14.3094   27.4151 O   0  0  0  0  0  0  0  0  0  0  0  0
    9.5064  -12.2351   26.5605 O   0  0  0  0  0  0  0  0  0  0  0  0
  2  1  1  6
  3  2  1  0
  4  3  1  0
  5  4  1  0
  5  6  1  0
  6  7  1  0
  8  9  2  0
  8  2  1  0
 10  8  1  0
 11 10  1  0
 12 13  1  0
 11 12  1  6
 14 21  1  0
 14 11  1  0
 15 14  2  0
 17 16  1  0
 18 17  1  0
 18 20  1  0
 18 19  1  1
 20 21  1  1
 20 22  1  0
 22 23  1  0
 24 22  2  0
M  END
$$$$
