KCI.pdb
     RDKit          3D

 24 23  0  0  1  0  0  0  0  0999 V2000
   10.5753  -17.0316   19.4854 N   0  0  0  0  0  0  0  0  0  0  0  0
   10.8932  -17.7139   20.7025 C   0  0  1  0  0  0  0  0  0  0  0  0
   12.3439  -17.6490   21.0927 C   0  0  0  0  0  0  0  0  0  0  0  0
   13.1735  -18.7684   20.5062 C   0  0  0  0  0  0  0  0  0  0  0  0
   14.6025  -18.5526   20.9130 C   0  0  0  0  0  0  0  0  0  0  0  0
   15.5020  -19.6882   20.4706 C   0  0  0  0  0  0  0  0  0  0  0  0
   16.8688  -19.2752   20.7625 N   0  0  0  0  0  0  0  0  0  0  0  0
   10.1309  -17.1260   21.8648 C   0  0  0  0  0  0  0  0  0  0  0  0
    9.9529  -15.8901   21.9378 O   0  0  0  0  0  0  0  0  0  0  0  0
    9.6094  -17.9467   22.8815 N   0  0  0  0  0  0  0  0  0  0  0  0
    8.7972  -17.3181   23.9428 C   0  0  1  0  0  0  0  0  0  0  0  0
    7.6380  -18.2490   24.2332 C   0  0  0  0  0  0  0  0  0  0  0  0
    6.6259  -17.5800   25.5389 S   0  0  0  0  0  0  0  0  0  0  0  0
    9.6633  -17.1282   25.1381 C   0  0  0  0  0  0  0  0  0  0  0  0
   10.7239  -17.8452   25.2109 O   0  0  0  0  0  0  0  0  0  0  0  0
    9.1189  -12.6895   28.3826 C   0  0  0  0  0  0  0  0  0  0  0  0
    9.7791  -13.7714   27.5499 C   0  0  0  0  0  0  0  0  0  0  0  0
    9.8588  -15.0770   28.2818 C   0  0  2  0  0  0  0  0  0  0  0  0
   10.9384  -14.9750   29.3618 C   0  0  0  0  0  0  0  0  0  0  0  0
   10.2895  -16.1485   27.3039 C   0  0  2  0  0  0  0  0  0  0  0  0
    9.3812  -16.2106   26.1780 N   0  0  0  0  0  0  0  0  0  0  0  0
   10.2408  -17.4703   27.9921 C   0  0  0  0  0  0  0  0  0  0  0  0
    9.0593  -18.1443   28.1986 O   0  0  0  0  0  0  0  0  0  0  0  0
   11.3113  -18.0103   28.4091 O   0  0  0  0  0  0  0  0  0  0  0  0
  2  1  1  6
  3  2  1  0
  4  3  1  0
  5  4  1  0
  5  6  1  0
  6  7  1  0
  8  9  2  0
  8  2  1  0
 10  8  1  0
 11 10  1  0
 12 13  1  0
 11 12  1  1
 14 21  1  0
 14 11  1  0
 15 14  2  0
 17 16  1  0
 18 17  1  0
 18 20  1  0
 18 19  1  1
 20 21  1  6
 20 22  1  0
 22 23  1  0
 24 22  2  0
M  END
$$$$
