KCI.pdb
     RDKit          3D

 24 23  0  0  1  0  0  0  0  0999 V2000
    8.5925  -15.9429   18.6854 N   0  0  0  0  0  0  0  0  0  0  0  0
    8.3471  -14.8186   19.5363 C   0  0  1  0  0  0  0  0  0  0  0  0
    7.1884  -13.9585   19.1138 C   0  0  0  0  0  0  0  0  0  0  0  0
    6.9409  -13.9757   17.6225 C   0  0  0  0  0  0  0  0  0  0  0  0
    8.2475  -13.7176   16.9297 C   0  0  0  0  0  0  0  0  0  0  0  0
    8.0830  -13.5756   15.4307 C   0  0  0  0  0  0  0  0  0  0  0  0
    9.4097  -13.3093   14.8892 N   0  0  0  0  0  0  0  0  0  0  0  0
    8.0323  -15.2659   20.9429 C   0  0  0  0  0  0  0  0  0  0  0  0
    7.2799  -14.5773   21.6669 O   0  0  0  0  0  0  0  0  0  0  0  0
    8.5731  -16.4549   21.4655 N   0  0  0  0  0  0  0  0  0  0  0  0
    8.1376  -16.8932   22.8069 C   0  0  1  0  0  0  0  0  0  0  0  0
    8.7734  -18.2433   23.0675 C   0  0  0  0  0  0  0  0  0  0  0  0
    8.5741  -18.6951   24.7800 S   0  0  0  0  0  0  0  0  0  0  0  0
    8.5847  -15.8744   23.7952 C   0  0  0  0  0  0  0  0  0  0  0  0
    9.7578  -15.3815   23.6362 O   0  0  0  0  0  0  0  0  0  0  0  0
    6.8493  -10.9029   26.6033 C   0  0  0  0  0  0  0  0  0  0  0  0
    7.7470  -12.1250   26.6236 C   0  0  0  0  0  0  0  0  0  0  0  0
    7.2221  -13.2253   25.7515 C   0  0  2  0  0  0  0  0  0  0  0  0
    5.9816  -13.8320   26.4111 C   0  0  0  0  0  0  0  0  0  0  0  0
    8.2727  -14.3111   25.6664 C   0  0  2  0  0  0  0  0  0  0  0  0
    7.7932  -15.4286   24.8805 N   0  0  0  0  0  0  0  0  0  0  0  0
    8.5491  -14.8167   27.0417 C   0  0  0  0  0  0  0  0  0  0  0  0
    8.2152  -16.0929   27.4326 O   0  0  0  0  0  0  0  0  0  0  0  0
    9.1095  -14.0633   27.8959 O   0  0  0  0  0  0  0  0  0  0  0  0
  2  1  1  6
  3  2  1  0
  4  3  1  0
  5  4  1  0
  5  6  1  0
  6  7  1  0
  8  9  2  0
  8  2  1  0
 10  8  1  0
 11 10  1  0
 12 13  1  0
 11 12  1  1
 14 21  1  0
 14 11  1  0
 15 14  2  0
 17 16  1  0
 18 17  1  0
 18 20  1  0
 18 19  1  1
 20 21  1  6
 20 22  1  0
 22 23  1  0
 24 22  2  0
M  END
$$$$
