KCI.pdb
     RDKit          3D

 24 23  0  0  1  0  0  0  0  0999 V2000
    9.8957  -15.1172   19.9286 N   0  0  0  0  0  0  0  0  0  0  0  0
    9.0203  -15.8269   20.8108 C   0  0  1  0  0  0  0  0  0  0  0  0
    9.3809  -17.2720   21.0171 C   0  0  0  0  0  0  0  0  0  0  0  0
   10.2663  -17.8309   19.9266 C   0  0  0  0  0  0  0  0  0  0  0  0
    9.9372  -19.2860   19.7583 C   0  0  0  0  0  0  0  0  0  0  0  0
   10.8272  -19.9601   18.7346 C   0  0  0  0  0  0  0  0  0  0  0  0
   10.4306  -21.3620   18.6964 N   0  0  0  0  0  0  0  0  0  0  0  0
    9.0214  -15.2052   22.1860 C   0  0  0  0  0  0  0  0  0  0  0  0
   10.0341  -14.5990   22.5999 O   0  0  0  0  0  0  0  0  0  0  0  0
    7.8949  -15.2934   23.0243 N   0  0  0  0  0  0  0  0  0  0  0  0
    7.9170  -14.5633   24.3078 C   0  0  1  0  0  0  0  0  0  0  0  0
    6.4778  -14.3584   24.7337 C   0  0  0  0  0  0  0  0  0  0  0  0
    6.4139  -13.4334   26.2558 S   0  0  0  0  0  0  0  0  0  0  0  0
    8.6715  -15.3831   25.2945 C   0  0  0  0  0  0  0  0  0  0  0  0
    8.9044  -16.6049   24.9824 O   0  0  0  0  0  0  0  0  0  0  0  0
   10.6258  -12.8267   29.6927 C   0  0  0  0  0  0  0  0  0  0  0  0
   10.7898  -13.6589   28.4356 C   0  0  0  0  0  0  0  0  0  0  0  0
   10.3562  -15.0793   28.6385 C   0  0  2  0  0  0  0  0  0  0  0  0
   11.5052  -15.8620   29.2784 C   0  0  0  0  0  0  0  0  0  0  0  0
   10.0822  -15.6944   27.2833 C   0  0  2  0  0  0  0  0  0  0  0  0
    9.1384  -14.8898   26.5361 N   0  0  0  0  0  0  0  0  0  0  0  0
    9.4655  -17.0370   27.4844 C   0  0  0  0  0  0  0  0  0  0  0  0
    8.1131  -17.1990   27.6782 O   0  0  0  0  0  0  0  0  0  0  0  0
   10.1920  -18.0779   27.4803 O   0  0  0  0  0  0  0  0  0  0  0  0
  2  1  1  6
  3  2  1  0
  4  3  1  0
  5  4  1  0
  5  6  1  0
  6  7  1  0
  8  9  2  0
  8  2  1  0
 10  8  1  0
 11 10  1  0
 12 13  1  0
 11 12  1  1
 14 21  1  0
 14 11  1  0
 15 14  2  0
 17 16  1  0
 18 17  1  0
 18 20  1  0
 18 19  1  6
 20 21  1  6
 20 22  1  0
 22 23  1  0
 24 22  2  0
M  END
$$$$
