KCI.pdb
     RDKit          3D

 24 23  0  0  1  0  0  0  0  0999 V2000
    5.3038  -17.5165   19.8256 N   0  0  0  0  0  0  0  0  0  0  0  0
    6.2698  -16.7878   20.5899 C   0  0  1  0  0  0  0  0  0  0  0  0
    6.1664  -15.2932   20.4623 C   0  0  0  0  0  0  0  0  0  0  0  0
    6.6581  -14.7693   19.1322 C   0  0  0  0  0  0  0  0  0  0  0  0
    7.9697  -14.0751   19.3601 C   0  0  0  0  0  0  0  0  0  0  0  0
    8.4467  -13.3327   18.1290 C   0  0  0  0  0  0  0  0  0  0  0  0
    9.6273  -12.5777   18.5290 N   0  0  0  0  0  0  0  0  0  0  0  0
    6.1254  -17.0831   22.0629 C   0  0  0  0  0  0  0  0  0  0  0  0
    5.0047  -17.0015   22.6124 O   0  0  0  0  0  0  0  0  0  0  0  0
    7.2369  -17.4523   22.8423 N   0  0  0  0  0  0  0  0  0  0  0  0
    7.0741  -17.5189   24.3087 C   0  0  1  0  0  0  0  0  0  0  0  0
    7.5508  -18.8865   24.7526 C   0  0  0  0  0  0  0  0  0  0  0  0
    7.5931  -18.9739   26.5323 S   0  0  0  0  0  0  0  0  0  0  0  0
    7.8863  -16.4293   24.9152 C   0  0  0  0  0  0  0  0  0  0  0  0
    9.0712  -16.2587   24.4554 O   0  0  0  0  0  0  0  0  0  0  0  0
    5.4081  -12.1610   27.2228 C   0  0  0  0  0  0  0  0  0  0  0  0
    6.4040  -12.9522   26.3970 C   0  0  0  0  0  0  0  0  0  0  0  0
    7.5113  -13.5155   27.2358 C   0  0  2  0  0  0  0  0  0  0  0  0
    8.4704  -12.3848   27.6152 C   0  0  0  0  0  0  0  0  0  0  0  0
    8.2855  -14.5116   26.4002 C   0  0  2  0  0  0  0  0  0  0  0  0
    7.4238  -15.5859   25.9532 N   0  0  0  0  0  0  0  0  0  0  0  0
    9.3534  -15.1168   27.2468 C   0  0  0  0  0  0  0  0  0  0  0  0
   10.6374  -14.6233   27.2681 O   0  0  0  0  0  0  0  0  0  0  0  0
    9.0923  -16.1200   27.9795 O   0  0  0  0  0  0  0  0  0  0  0  0
  2  1  1  6
  3  2  1  0
  4  3  1  0
  5  4  1  0
  5  6  1  0
  6  7  1  0
  8  9  2  0
  8  2  1  0
 10  8  1  0
 11 10  1  0
 12 13  1  0
 11 12  1  1
 14 21  1  0
 14 11  1  0
 15 14  2  0
 17 16  1  0
 18 17  1  0
 18 20  1  0
 18 19  1  6
 20 21  1  1
 20 22  1  0
 22 23  1  0
 24 22  2  0
M  END
$$$$
