KCI.pdb
     RDKit          3D

 24 23  0  0  1  0  0  0  0  0999 V2000
    5.9967  -16.4291   19.7378 N   0  0  0  0  0  0  0  0  0  0  0  0
    7.0224  -15.8228   20.5305 C   0  0  1  0  0  0  0  0  0  0  0  0
    7.0441  -14.3203   20.4781 C   0  0  0  0  0  0  0  0  0  0  0  0
    7.2386  -13.7714   19.0830 C   0  0  0  0  0  0  0  0  0  0  0  0
    8.6896  -13.9127   18.7242 C   0  0  0  0  0  0  0  0  0  0  0  0
    9.0047  -13.3182   17.3671 C   0  0  0  0  0  0  0  0  0  0  0  0
   10.4497  -13.4064   17.1988 N   0  0  0  0  0  0  0  0  0  0  0  0
    6.8580  -16.1785   21.9880 C   0  0  0  0  0  0  0  0  0  0  0  0
    5.7774  -15.9448   22.5730 O   0  0  0  0  0  0  0  0  0  0  0  0
    7.9061  -16.7741   22.7133 N   0  0  0  0  0  0  0  0  0  0  0  0
    7.6657  -17.1341   24.1253 C   0  0  1  0  0  0  0  0  0  0  0  0
    8.1407  -18.5602   24.3132 C   0  0  0  0  0  0  0  0  0  0  0  0
    8.1004  -18.9980   26.0404 S   0  0  0  0  0  0  0  0  0  0  0  0
    8.4257  -16.1836   24.9818 C   0  0  0  0  0  0  0  0  0  0  0  0
    9.6181  -15.8899   24.6130 O   0  0  0  0  0  0  0  0  0  0  0  0
    6.0711  -12.0271   27.3324 C   0  0  0  0  0  0  0  0  0  0  0  0
    7.1267  -12.8872   26.6648 C   0  0  0  0  0  0  0  0  0  0  0  0
    7.9245  -13.6751   27.6595 C   0  0  2  0  0  0  0  0  0  0  0  0
    8.8895  -12.7312   28.3805 C   0  0  0  0  0  0  0  0  0  0  0  0
    8.7551  -14.6928   26.9084 C   0  0  2  0  0  0  0  0  0  0  0  0
    7.9064  -15.5963   26.1602 N   0  0  0  0  0  0  0  0  0  0  0  0
    9.5175  -15.5093   27.8962 C   0  0  0  0  0  0  0  0  0  0  0  0
   10.8031  -15.1925   28.2699 O   0  0  0  0  0  0  0  0  0  0  0  0
    8.9833  -16.5337   28.4221 O   0  0  0  0  0  0  0  0  0  0  0  0
  2  1  1  6
  3  2  1  0
  4  3  1  0
  5  4  1  0
  5  6  1  0
  6  7  1  0
  8  9  2  0
  8  2  1  0
 10  8  1  0
 11 10  1  0
 12 13  1  0
 11 12  1  6
 14 21  1  0
 14 11  1  0
 15 14  2  0
 17 16  1  0
 18 17  1  0
 18 20  1  0
 18 19  1  6
 20 21  1  1
 20 22  1  0
 22 23  1  0
 24 22  2  0
M  END
$$$$
