KCI.pdb
     RDKit          3D

 24 23  0  0  1  0  0  0  0  0999 V2000
    4.2812  -19.3976   20.8853 N   0  0  0  0  0  0  0  0  0  0  0  0
    5.5947  -18.9831   21.2742 C   0  0  1  0  0  0  0  0  0  0  0  0
    6.1633  -17.8608   20.4509 C   0  0  0  0  0  0  0  0  0  0  0  0
    6.8301  -18.3290   19.1776 C   0  0  0  0  0  0  0  0  0  0  0  0
    7.4345  -17.1332   18.5004 C   0  0  0  0  0  0  0  0  0  0  0  0
    8.1331  -17.4992   17.2072 C   0  0  0  0  0  0  0  0  0  0  0  0
    8.4650  -16.2449   16.5434 N   0  0  0  0  0  0  0  0  0  0  0  0
    5.6036  -18.4889   22.7002 C   0  0  0  0  0  0  0  0  0  0  0  0
    4.5690  -17.9937   23.1992 O   0  0  0  0  0  0  0  0  0  0  0  0
    6.7639  -18.5731   23.4913 N   0  0  0  0  0  0  0  0  0  0  0  0
    6.6913  -18.1156   24.8936 C   0  0  1  0  0  0  0  0  0  0  0  0
    7.1298  -19.2726   25.7676 C   0  0  0  0  0  0  0  0  0  0  0  0
    7.2204  -18.7552   27.4708 S   0  0  0  0  0  0  0  0  0  0  0  0
    7.5912  -16.9399   25.0447 C   0  0  0  0  0  0  0  0  0  0  0  0
    8.7319  -16.9986   24.4620 O   0  0  0  0  0  0  0  0  0  0  0  0
    5.3879  -12.1832   26.2428 C   0  0  0  0  0  0  0  0  0  0  0  0
    6.3865  -13.0541   25.5052 C   0  0  0  0  0  0  0  0  0  0  0  0
    7.5510  -13.4334   26.3694 C   0  0  2  0  0  0  0  0  0  0  0  0
    8.5904  -12.3111   26.3215 C   0  0  0  0  0  0  0  0  0  0  0  0
    8.1919  -14.6760   25.7906 C   0  0  2  0  0  0  0  0  0  0  0  0
    7.2557  -15.7805   25.7837 N   0  0  0  0  0  0  0  0  0  0  0  0
    9.3407  -15.0681   26.6566 C   0  0  0  0  0  0  0  0  0  0  0  0
    9.2179  -16.0093   27.6526 O   0  0  0  0  0  0  0  0  0  0  0  0
   10.4777  -14.5297   26.4875 O   0  0  0  0  0  0  0  0  0  0  0  0
  2  1  1  6
  3  2  1  0
  4  3  1  0
  5  4  1  0
  5  6  1  0
  6  7  1  0
  8  9  2  0
  8  2  1  0
 10  8  1  0
 11 10  1  0
 12 13  1  0
 11 12  1  1
 14 21  1  0
 14 11  1  0
 15 14  2  0
 17 16  1  0
 18 17  1  0
 18 20  1  0
 18 19  1  6
 20 21  1  1
 20 22  1  0
 22 23  1  0
 24 22  2  0
M  END
$$$$
