KCI.pdb
     RDKit          3D

 24 23  0  0  1  0  0  0  0  0999 V2000
    6.2344  -16.6501   19.2797 N   0  0  0  0  0  0  0  0  0  0  0  0
    7.0470  -15.8317   20.1271 C   0  0  1  0  0  0  0  0  0  0  0  0
    6.8529  -14.3528   19.9374 C   0  0  0  0  0  0  0  0  0  0  0  0
    7.0956  -13.8932   18.5178 C   0  0  0  0  0  0  0  0  0  0  0  0
    8.2972  -12.9932   18.5176 C   0  0  0  0  0  0  0  0  0  0  0  0
    9.4948  -13.6365   17.8494 C   0  0  0  0  0  0  0  0  0  0  0  0
    9.1775  -13.7346   16.4304 N   0  0  0  0  0  0  0  0  0  0  0  0
    6.7484  -16.0995   21.5821 C   0  0  0  0  0  0  0  0  0  0  0  0
    5.7022  -15.6514   22.1008 O   0  0  0  0  0  0  0  0  0  0  0  0
    7.6315  -16.8509   22.3788 N   0  0  0  0  0  0  0  0  0  0  0  0
    7.2694  -17.0935   23.7898 C   0  0  1  0  0  0  0  0  0  0  0  0
    7.6075  -18.5373   24.0993 C   0  0  0  0  0  0  0  0  0  0  0  0
    7.4452  -18.8445   25.8474 S   0  0  0  0  0  0  0  0  0  0  0  0
    8.0502  -16.1517   24.6372 C   0  0  0  0  0  0  0  0  0  0  0  0
    9.2552  -15.9028   24.2764 O   0  0  0  0  0  0  0  0  0  0  0  0
    5.4772  -12.1849   27.2248 C   0  0  0  0  0  0  0  0  0  0  0  0
    6.5422  -12.9207   26.4347 C   0  0  0  0  0  0  0  0  0  0  0  0
    7.5187  -13.6272   27.3259 C   0  0  2  0  0  0  0  0  0  0  0  0
    8.4530  -12.5922   27.9567 C   0  0  0  0  0  0  0  0  0  0  0  0
    8.3646  -14.5483   26.4738 C   0  0  2  0  0  0  0  0  0  0  0  0
    7.5375  -15.5264   25.7987 N   0  0  0  0  0  0  0  0  0  0  0  0
    9.3032  -15.2921   27.3620 C   0  0  0  0  0  0  0  0  0  0  0  0
   10.5690  -14.8297   27.6394 O   0  0  0  0  0  0  0  0  0  0  0  0
    8.9446  -16.3892   27.8903 O   0  0  0  0  0  0  0  0  0  0  0  0
  2  1  1  6
  3  2  1  0
  4  3  1  0
  5  4  1  0
  5  6  1  0
  6  7  1  0
  8  9  2  0
  8  2  1  0
 10  8  1  0
 11 10  1  0
 12 13  1  0
 11 12  1  1
 14 21  1  0
 14 11  1  0
 15 14  2  0
 17 16  1  0
 18 17  1  0
 18 20  1  0
 18 19  1  6
 20 21  1  1
 20 22  1  0
 22 23  1  0
 24 22  2  0
M  END
$$$$
