KCI.pdb
     RDKit          3D

 24 23  0  0  1  0  0  0  0  0999 V2000
    6.4502  -17.0363   19.1451 N   0  0  0  0  0  0  0  0  0  0  0  0
    7.4095  -16.4148   20.0063 C   0  0  1  0  0  0  0  0  0  0  0  0
    7.6714  -14.9654   19.7042 C   0  0  0  0  0  0  0  0  0  0  0  0
    7.1049  -14.5176   18.3761 C   0  0  0  0  0  0  0  0  0  0  0  0
    8.2518  -14.1524   17.4788 C   0  0  0  0  0  0  0  0  0  0  0  0
    7.7887  -13.7308   16.0996 C   0  0  0  0  0  0  0  0  0  0  0  0
    8.9906  -13.5215   15.3023 N   0  0  0  0  0  0  0  0  0  0  0  0
    6.9499  -16.4560   21.4433 C   0  0  0  0  0  0  0  0  0  0  0  0
    5.9616  -15.7804   21.8057 O   0  0  0  0  0  0  0  0  0  0  0  0
    7.6164  -17.2468   22.3970 N   0  0  0  0  0  0  0  0  0  0  0  0
    7.1703  -17.1747   23.8031 C   0  0  1  0  0  0  0  0  0  0  0  0
    7.3441  -18.5554   24.4016 C   0  0  0  0  0  0  0  0  0  0  0  0
    7.1621  -18.4837   26.1731 S   0  0  0  0  0  0  0  0  0  0  0  0
    8.0065  -16.1622   24.5033 C   0  0  0  0  0  0  0  0  0  0  0  0
    9.2765  -16.2437   24.3462 O   0  0  0  0  0  0  0  0  0  0  0  0
    5.9697  -11.7021   27.4297 C   0  0  0  0  0  0  0  0  0  0  0  0
    6.5296  -13.0407   26.9887 C   0  0  0  0  0  0  0  0  0  0  0  0
    7.8088  -12.8923   26.2217 C   0  0  2  0  0  0  0  0  0  0  0  0
    7.4944  -12.3141   24.8400 C   0  0  0  0  0  0  0  0  0  0  0  0
    8.4066  -14.2674   26.0173 C   0  0  2  0  0  0  0  0  0  0  0  0
    7.4793  -15.1310   25.3167 N   0  0  0  0  0  0  0  0  0  0  0  0
    8.6662  -14.8783   27.3525 C   0  0  0  0  0  0  0  0  0  0  0  0
    9.6376  -14.3979   28.2001 O   0  0  0  0  0  0  0  0  0  0  0  0
    7.9812  -15.8740   27.7406 O   0  0  0  0  0  0  0  0  0  0  0  0
  2  1  1  6
  3  2  1  0
  4  3  1  0
  5  4  1  0
  5  6  1  0
  6  7  1  0
  8  9  2  0
  8  2  1  0
 10  8  1  0
 11 10  1  0
 12 13  1  0
 11 12  1  1
 14 21  1  0
 14 11  1  0
 15 14  2  0
 17 16  1  0
 18 17  1  0
 18 20  1  0
 18 19  1  6
 20 21  1  6
 20 22  1  0
 22 23  1  0
 24 22  2  0
M  END
$$$$
