KCI.pdb
     RDKit          3D

 24 23  0  0  1  0  0  0  0  0999 V2000
    5.8566  -18.0704   19.4185 N   0  0  0  0  0  0  0  0  0  0  0  0
    6.8933  -17.4469   20.1832 C   0  0  1  0  0  0  0  0  0  0  0  0
    7.2064  -16.0345   19.7735 C   0  0  0  0  0  0  0  0  0  0  0  0
    7.4147  -15.8739   18.2848 C   0  0  0  0  0  0  0  0  0  0  0  0
    7.6928  -14.4252   18.0061 C   0  0  0  0  0  0  0  0  0  0  0  0
    7.8724  -14.1503   16.5274 C   0  0  0  0  0  0  0  0  0  0  0  0
    8.1068  -12.7179   16.3953 N   0  0  0  0  0  0  0  0  0  0  0  0
    6.5171  -17.3749   21.6430 C   0  0  0  0  0  0  0  0  0  0  0  0
    5.3524  -17.0635   21.9763 O   0  0  0  0  0  0  0  0  0  0  0  0
    7.4586  -17.6533   22.6507 N   0  0  0  0  0  0  0  0  0  0  0  0
    7.0269  -17.5568   24.0598 C   0  0  1  0  0  0  0  0  0  0  0  0
    7.2651  -18.9103   24.6970 C   0  0  0  0  0  0  0  0  0  0  0  0
    7.0226  -18.8098   26.4599 S   0  0  0  0  0  0  0  0  0  0  0  0
    7.8288  -16.4898   24.7181 C   0  0  0  0  0  0  0  0  0  0  0  0
    9.0553  -16.3769   24.3618 O   0  0  0  0  0  0  0  0  0  0  0  0
    5.5365  -12.0193   26.9741 C   0  0  0  0  0  0  0  0  0  0  0  0
    6.5382  -12.8598   26.2060 C   0  0  0  0  0  0  0  0  0  0  0  0
    7.4441  -13.6314   27.1175 C   0  0  2  0  0  0  0  0  0  0  0  0
    8.4608  -12.6697   27.7366 C   0  0  0  0  0  0  0  0  0  0  0  0
    8.2119  -14.6384   26.2891 C   0  0  2  0  0  0  0  0  0  0  0  0
    7.3137  -15.6080   25.6979 N   0  0  0  0  0  0  0  0  0  0  0  0
    9.1454  -15.3803   27.1843 C   0  0  0  0  0  0  0  0  0  0  0  0
   10.4889  -15.0897   27.2423 O   0  0  0  0  0  0  0  0  0  0  0  0
    8.7090  -16.3137   27.9257 O   0  0  0  0  0  0  0  0  0  0  0  0
  2  1  1  6
  3  2  1  0
  4  3  1  0
  5  4  1  0
  5  6  1  0
  6  7  1  0
  8  9  2  0
  8  2  1  0
 10  8  1  0
 11 10  1  0
 12 13  1  0
 11 12  1  1
 14 21  1  0
 14 11  1  0
 15 14  2  0
 17 16  1  0
 18 17  1  0
 18 20  1  0
 18 19  1  6
 20 21  1  1
 20 22  1  0
 22 23  1  0
 24 22  2  0
M  END
$$$$
