KRA.pdb
     RDKit          3D

 26 25  0  0  1  0  0  0  0  0999 V2000
   27.0901  -21.0587  -18.8809 N   0  0  0  0  0  0  0  0  0  0  0  0
   26.4004  -20.0317  -18.1671 C   0  0  1  0  0  0  0  0  0  0  0  0
   25.5151  -19.1849  -19.0303 C   0  0  0  0  0  0  0  0  0  0  0  0
   26.2105  -18.3484  -20.0434 C   0  0  0  0  0  0  0  0  0  0  0  0
   26.9791  -17.1851  -19.5235 C   0  0  0  0  0  0  0  0  0  0  0  0
   27.5783  -16.3316  -20.6159 C   0  0  0  0  0  0  0  0  0  0  0  0
   28.2319  -15.1516  -20.0759 N   0  0  0  0  0  0  0  0  0  0  0  0
   25.6788  -20.5973  -17.0121 C   0  0  0  0  0  0  0  0  0  0  0  0
   24.8309  -21.5104  -17.2659 O   0  0  0  0  0  0  0  0  0  0  0  0
   23.1396  -20.5958   -9.7710 N   0  0  0  0  0  0  0  0  0  0  0  0
   24.3362  -20.9423   -9.1056 C   0  0  0  0  0  0  0  0  0  0  0  0
   24.4978  -20.5959   -7.8612 N   0  0  0  0  0  0  0  0  0  0  0  0
   25.3974  -21.6601   -9.7204 N   0  0  0  0  0  0  0  0  0  0  0  0
   26.0691  -21.1104  -10.8806 C   0  0  0  0  0  0  0  0  0  0  0  0
   25.1598  -21.2300  -12.1047 C   0  0  0  0  0  0  0  0  0  0  0  0
   25.8400  -20.7629  -13.3460 C   0  0  0  0  0  0  0  0  0  0  0  0
   25.0345  -20.8006  -14.5890 C   0  0  2  0  0  0  0  0  0  0  0  0
   25.8399  -20.2233  -15.6573 N   0  0  0  0  0  0  0  0  0  0  0  0
   23.7390  -20.1424  -14.5480 C   0  0  0  0  0  0  0  0  0  0  0  0
   23.5613  -18.9067  -14.3908 O   0  0  0  0  0  0  0  0  0  0  0  0
   25.3424  -20.8201   -7.3185 C   0  0  0  0  0  0  0  0  0  0  0  0
   20.3535  -21.0360  -15.5324 C   0  0  1  0  0  0  0  0  0  0  0  0
   21.2659  -20.3273  -14.5483 N   0  0  0  0  0  0  0  0  0  0  0  0
   22.5687  -20.9309  -14.6942 C   0  0  0  0  0  0  0  0  0  0  0  0
   20.7669  -20.3787  -13.1778 O   0  0  0  0  0  0  0  0  0  0  0  0
   21.2606  -21.1771  -12.3542 O   0  0  0  0  0  0  0  0  0  0  0  0
  2  1  1  6
  3  2  1  0
  4  5  1  0
  4  3  1  0
  5  6  1  0
  6  7  1  0
  8  2  1  0
  8  9  2  0
 10 11  1  0
 11 12  2  0
 13 11  1  0
 13 14  1  0
 14 15  1  0
 15 16  1  0
 17 18  1  0
 17 16  1  1
 18  8  1  0
 19 17  1  0
 20 19  2  0
 22 21  1  6
 22 23  1  0
 23 19  1  0
 24 22  1  0
 24 26  1  0
 25 24  2  0
M  END
$$$$
