KRA.pdb
     RDKit          3D

 26 25  0  0  1  0  0  0  0  0999 V2000
   17.2886  -12.1030  -17.1037 N   0  0  0  0  0  0  0  0  0  0  0  0
   18.2042  -11.9829  -16.0142 C   0  0  1  0  0  0  0  0  0  0  0  0
   19.5780  -12.4985  -16.3187 C   0  0  0  0  0  0  0  0  0  0  0  0
   19.6715  -13.9530  -16.6110 C   0  0  0  0  0  0  0  0  0  0  0  0
   19.9581  -14.8417  -15.4525 C   0  0  0  0  0  0  0  0  0  0  0  0
   20.0858  -16.2968  -15.8360 C   0  0  0  0  0  0  0  0  0  0  0  0
   20.1354  -17.1568  -14.6659 N   0  0  0  0  0  0  0  0  0  0  0  0
   18.2270  -10.5989  -15.5055 C   0  0  0  0  0  0  0  0  0  0  0  0
   18.1745   -9.6743  -16.3770 O   0  0  0  0  0  0  0  0  0  0  0  0
   14.0998   -8.4822   -8.4306 N   0  0  0  0  0  0  0  0  0  0  0  0
   13.5158   -8.9083   -9.6440 C   0  0  0  0  0  0  0  0  0  0  0  0
   12.2461   -9.1936   -9.6755 N   0  0  0  0  0  0  0  0  0  0  0  0
   14.2409   -9.0486  -10.8581 N   0  0  0  0  0  0  0  0  0  0  0  0
   15.6685   -8.8017  -10.8837 C   0  0  0  0  0  0  0  0  0  0  0  0
   16.1923   -8.9668  -12.3112 C   0  0  0  0  0  0  0  0  0  0  0  0
   17.6643   -8.7455  -12.3886 C   0  0  0  0  0  0  0  0  0  0  0  0
   18.2664   -8.8065  -13.7410 C   0  0  2  0  0  0  0  0  0  0  0  0
   18.3007  -10.2050  -14.1488 N   0  0  0  0  0  0  0  0  0  0  0  0
   19.5894   -8.2239  -13.8938 C   0  0  0  0  0  0  0  0  0  0  0  0
   20.6624   -8.7573  -13.5096 O   0  0  0  0  0  0  0  0  0  0  0  0
   11.7466   -9.4480  -10.5380 C   0  0  0  0  0  0  0  0  0  0  0  0
   20.8939   -5.3867  -15.8437 C   0  0  1  0  0  0  0  0  0  0  0  0
   21.0048   -6.3405  -14.6686 N   0  0  0  0  0  0  0  0  0  0  0  0
   19.7082   -6.9570  -14.5212 C   0  0  0  0  0  0  0  0  0  0  0  0
   21.4625   -5.6830  -13.4487 O   0  0  0  0  0  0  0  0  0  0  0  0
   20.6692   -5.4724  -12.5075 O   0  0  0  0  0  0  0  0  0  0  0  0
  2  1  1  6
  3  2  1  0
  4  5  1  0
  4  3  1  0
  5  6  1  0
  6  7  1  0
  8  2  1  0
  8  9  2  0
 10 11  1  0
 11 12  2  0
 13 11  1  0
 13 14  1  0
 14 15  1  0
 15 16  1  0
 17 18  1  0
 17 16  1  1
 18  8  1  0
 19 17  1  0
 20 19  2  0
 22 21  1  6
 22 23  1  0
 23 19  1  0
 24 22  1  0
 24 26  1  0
 25 24  2  0
M  END
$$$$
