KRA.pdb
     RDKit          3D

 26 25  0  0  1  0  0  0  0  0999 V2000
   20.3218  -30.8141  -16.0017 N   0  0  0  0  0  0  0  0  0  0  0  0
   19.9982  -29.5275  -16.5305 C   0  0  1  0  0  0  0  0  0  0  0  0
   18.5382  -29.1960  -16.4647 C   0  0  0  0  0  0  0  0  0  0  0  0
   17.9243  -28.7297  -17.7357 C   0  0  0  0  0  0  0  0  0  0  0  0
   18.0979  -29.6177  -18.9170 C   0  0  0  0  0  0  0  0  0  0  0  0
   17.5205  -29.0387  -20.1866 C   0  0  0  0  0  0  0  0  0  0  0  0
   17.7992  -29.8832  -21.3357 N   0  0  0  0  0  0  0  0  0  0  0  0
   20.8363  -28.4851  -15.9091 C   0  0  0  0  0  0  0  0  0  0  0  0
   21.2439  -28.7165  -14.7270 O   0  0  0  0  0  0  0  0  0  0  0  0
   28.7082  -26.5716  -15.8994 N   0  0  0  0  0  0  0  0  0  0  0  0
   27.7527  -25.6320  -16.3456 C   0  0  0  0  0  0  0  0  0  0  0  0
   28.0816  -24.3749  -16.4228 N   0  0  0  0  0  0  0  0  0  0  0  0
   26.4273  -25.9784  -16.7235 N   0  0  0  0  0  0  0  0  0  0  0  0
   25.4630  -24.9394  -17.0237 C   0  0  0  0  0  0  0  0  0  0  0  0
   24.2536  -25.0786  -16.0976 C   0  0  0  0  0  0  0  0  0  0  0  0
   23.3205  -26.1432  -16.5637 C   0  0  0  0  0  0  0  0  0  0  0  0
   22.0587  -26.2894  -15.8008 C   0  0  2  0  0  0  0  0  0  0  0  0
   21.2275  -27.2608  -16.4999 N   0  0  0  0  0  0  0  0  0  0  0  0
   21.2935  -25.0760  -15.5655 C   0  0  0  0  0  0  0  0  0  0  0  0
   20.7330  -24.3906  -16.4596 O   0  0  0  0  0  0  0  0  0  0  0  0
   27.4489  -23.6474  -16.7813 C   0  0  0  0  0  0  0  0  0  0  0  0
   20.4193  -23.2113  -12.4630 C   0  0  1  0  0  0  0  0  0  0  0  0
   20.4456  -23.3757  -13.9714 N   0  0  0  0  0  0  0  0  0  0  0  0
   21.1521  -24.6065  -14.2342 C   0  0  0  0  0  0  0  0  0  0  0  0
   21.0327  -22.2274  -14.6546 O   0  0  0  0  0  0  0  0  0  0  0  0
   20.3177  -21.2639  -15.0011 O   0  0  0  0  0  0  0  0  0  0  0  0
  2  1  1  1
  3  2  1  0
  4  5  1  0
  4  3  1  0
  5  6  1  0
  6  7  1  0
  8  2  1  0
  8  9  2  0
 10 11  1  0
 11 12  2  0
 13 11  1  0
 13 14  1  0
 14 15  1  0
 15 16  1  0
 17 18  1  0
 17 16  1  6
 18  8  1  0
 19 17  1  0
 20 19  2  0
 22 21  1  1
 22 23  1  0
 23 19  1  0
 24 22  1  0
 24 26  1  0
 25 24  2  0
M  END
$$$$
