KRA.pdb
     RDKit          3D

 26 25  0  0  1  0  0  0  0  0999 V2000
   20.4232  -18.7135  -14.3059 N   0  0  0  0  0  0  0  0  0  0  0  0
   21.4694  -19.1159  -15.1909 C   0  0  1  0  0  0  0  0  0  0  0  0
   20.9825  -19.8024  -16.4309 C   0  0  0  0  0  0  0  0  0  0  0  0
   19.5174  -19.7349  -16.6729 C   0  0  0  0  0  0  0  0  0  0  0  0
   18.7853  -21.0303  -16.6544 C   0  0  0  0  0  0  0  0  0  0  0  0
   17.3476  -20.9077  -17.1002 C   0  0  0  0  0  0  0  0  0  0  0  0
   16.6589  -22.1859  -17.0453 N   0  0  0  0  0  0  0  0  0  0  0  0
   22.3586  -17.9791  -15.4942 C   0  0  0  0  0  0  0  0  0  0  0  0
   21.8059  -16.8379  -15.5907 O   0  0  0  0  0  0  0  0  0  0  0  0
   28.1965  -21.5575  -13.4732 N   0  0  0  0  0  0  0  0  0  0  0  0
   27.4779  -20.8658  -12.4731 C   0  0  0  0  0  0  0  0  0  0  0  0
   27.4496  -21.3428  -11.2622 N   0  0  0  0  0  0  0  0  0  0  0  0
   26.7689  -19.6570  -12.7091 N   0  0  0  0  0  0  0  0  0  0  0  0
   26.7617  -19.0662  -14.0321 C   0  0  0  0  0  0  0  0  0  0  0  0
   25.9755  -17.7544  -14.0040 C   0  0  0  0  0  0  0  0  0  0  0  0
   25.9197  -17.1149  -15.3492 C   0  0  0  0  0  0  0  0  0  0  0  0
   24.5675  -16.8426  -15.8901 C   0  0  2  0  0  0  0  0  0  0  0  0
   23.7589  -18.0375  -15.6861 N   0  0  0  0  0  0  0  0  0  0  0  0
   24.4911  -16.4372  -17.2841 C   0  0  0  0  0  0  0  0  0  0  0  0
   24.3786  -17.2235  -18.2599 O   0  0  0  0  0  0  0  0  0  0  0  0
   26.9583  -20.8809  -10.4855 C   0  0  0  0  0  0  0  0  0  0  0  0
   23.8818  -13.1732  -18.8775 C   0  0  1  0  0  0  0  0  0  0  0  0
   24.3611  -14.6109  -18.9570 N   0  0  0  0  0  0  0  0  0  0  0  0
   24.5452  -15.0543  -17.5959 C   0  0  0  0  0  0  0  0  0  0  0  0
   25.5636  -14.7612  -19.7703 O   0  0  0  0  0  0  0  0  0  0  0  0
   26.6950  -14.6549  -19.2525 O   0  0  0  0  0  0  0  0  0  0  0  0
  2  1  1  6
  3  2  1  0
  4  5  1  0
  4  3  1  0
  5  6  1  0
  6  7  1  0
  8  2  1  0
  8  9  2  0
 10 11  1  0
 11 12  2  0
 13 11  1  0
 13 14  1  0
 14 15  1  0
 15 16  1  0
 17 18  1  0
 17 16  1  6
 18  8  1  0
 19 17  1  0
 20 19  2  0
 22 21  1  1
 22 23  1  0
 23 19  1  0
 24 22  1  0
 24 26  1  0
 25 24  2  0
M  END
$$$$
