KRA.pdb
     RDKit          3D

 26 25  0  0  1  0  0  0  0  0999 V2000
   19.5371   -6.6169  -21.1362 N   0  0  0  0  0  0  0  0  0  0  0  0
   19.9592   -5.8611  -20.0003 C   0  0  1  0  0  0  0  0  0  0  0  0
   20.4889   -4.5012  -20.3411 C   0  0  0  0  0  0  0  0  0  0  0  0
   21.7691   -4.4779  -21.0963 C   0  0  0  0  0  0  0  0  0  0  0  0
   23.0052   -4.7306  -20.3074 C   0  0  0  0  0  0  0  0  0  0  0  0
   24.2707   -4.5656  -21.1149 C   0  0  0  0  0  0  0  0  0  0  0  0
   25.4564   -4.6991  -20.2858 N   0  0  0  0  0  0  0  0  0  0  0  0
   18.8893   -5.8059  -18.9868 C   0  0  0  0  0  0  0  0  0  0  0  0
   17.7192   -5.5473  -19.4122 O   0  0  0  0  0  0  0  0  0  0  0  0
   17.0228  -10.8032  -12.0267 N   0  0  0  0  0  0  0  0  0  0  0  0
   16.0020   -9.8304  -12.1067 C   0  0  0  0  0  0  0  0  0  0  0  0
   14.9715   -9.9202  -11.3163 N   0  0  0  0  0  0  0  0  0  0  0  0
   16.0283   -8.7368  -13.0138 N   0  0  0  0  0  0  0  0  0  0  0  0
   17.0989   -8.6238  -13.9837 C   0  0  0  0  0  0  0  0  0  0  0  0
   16.8973   -7.3631  -14.8260 C   0  0  0  0  0  0  0  0  0  0  0  0
   18.0329   -7.1387  -15.7650 C   0  0  0  0  0  0  0  0  0  0  0  0
   17.9108   -5.9763  -16.6757 C   0  0  2  0  0  0  0  0  0  0  0  0
   19.0404   -6.0128  -17.5956 N   0  0  0  0  0  0  0  0  0  0  0  0
   17.8335   -4.6646  -16.0539 C   0  0  0  0  0  0  0  0  0  0  0  0
   18.7846   -4.0861  -15.4673 O   0  0  0  0  0  0  0  0  0  0  0  0
   14.2274   -9.2111  -11.2772 C   0  0  0  0  0  0  0  0  0  0  0  0
   15.2007   -2.0498  -16.0354 C   0  0  1  0  0  0  0  0  0  0  0  0
   16.5030   -2.6393  -15.5260 N   0  0  0  0  0  0  0  0  0  0  0  0
   16.6025   -3.9609  -16.0975 C   0  0  0  0  0  0  0  0  0  0  0  0
   16.5896   -2.6430  -14.0691 O   0  0  0  0  0  0  0  0  0  0  0  0
   16.6382   -1.5679  -13.4354 O   0  0  0  0  0  0  0  0  0  0  0  0
  2  1  1  6
  3  2  1  0
  4  5  1  0
  4  3  1  0
  5  6  1  0
  6  7  1  0
  8  2  1  0
  8  9  2  0
 10 11  1  0
 11 12  2  0
 13 11  1  0
 13 14  1  0
 14 15  1  0
 15 16  1  0
 17 18  1  0
 17 16  1  1
 18  8  1  0
 19 17  1  0
 20 19  2  0
 22 21  1  6
 22 23  1  0
 23 19  1  0
 24 22  1  0
 24 26  1  0
 25 24  2  0
M  END
$$$$
