KRA.pdb
     RDKit          3D

 26 25  0  0  1  0  0  0  0  0999 V2000
   26.9369  -26.5530  -18.6992 N   0  0  0  0  0  0  0  0  0  0  0  0
   26.7429  -27.9613  -18.8361 C   0  0  1  0  0  0  0  0  0  0  0  0
   26.3910  -28.3912  -20.2279 C   0  0  0  0  0  0  0  0  0  0  0  0
   26.6802  -27.4040  -21.3009 C   0  0  0  0  0  0  0  0  0  0  0  0
   28.0255  -27.4897  -21.9312 C   0  0  0  0  0  0  0  0  0  0  0  0
   27.9714  -27.6031  -23.4361 C   0  0  0  0  0  0  0  0  0  0  0  0
   27.9961  -26.2974  -24.0730 N   0  0  0  0  0  0  0  0  0  0  0  0
   27.9014  -28.6994  -18.2995 C   0  0  0  0  0  0  0  0  0  0  0  0
   28.9110  -28.0026  -17.9644 O   0  0  0  0  0  0  0  0  0  0  0  0
   26.2339  -35.4975  -13.6824 N   0  0  0  0  0  0  0  0  0  0  0  0
   26.0460  -34.1645  -13.2548 C   0  0  0  0  0  0  0  0  0  0  0  0
   25.2667  -33.9236  -12.2404 N   0  0  0  0  0  0  0  0  0  0  0  0
   26.6663  -33.0460  -13.8742 N   0  0  0  0  0  0  0  0  0  0  0  0
   27.4929  -33.2331  -15.0495 C   0  0  0  0  0  0  0  0  0  0  0  0
   27.9655  -31.8732  -15.5663 C   0  0  0  0  0  0  0  0  0  0  0  0
   28.6798  -31.9950  -16.8687 C   0  0  0  0  0  0  0  0  0  0  0  0
   29.1433  -30.7290  -17.4833 C   0  0  2  0  0  0  0  0  0  0  0  0
   27.9951  -30.0999  -18.1230 N   0  0  0  0  0  0  0  0  0  0  0  0
   30.2363  -30.8276  -18.4367 C   0  0  0  0  0  0  0  0  0  0  0  0
   30.1070  -30.8088  -19.6882 O   0  0  0  0  0  0  0  0  0  0  0  0
   25.1237  -32.9827  -11.8501 C   0  0  0  0  0  0  0  0  0  0  0  0
   32.6883  -29.7456  -19.6435 C   0  0  2  0  0  0  0  0  0  0  0  0
   32.6693  -31.0477  -18.8643 N   0  0  0  0  0  0  0  0  0  0  0  0
   31.5607  -30.9555  -17.9447 C   0  0  0  0  0  0  0  0  0  0  0  0
   33.9376  -31.3259  -18.1981 O   0  0  0  0  0  0  0  0  0  0  0  0
   34.9639  -31.5686  -18.8671 O   0  0  0  0  0  0  0  0  0  0  0  0
  2  1  1  6
  3  2  1  0
  4  5  1  0
  4  3  1  0
  5  6  1  0
  6  7  1  0
  8  2  1  0
  8  9  2  0
 10 11  1  0
 11 12  2  0
 13 11  1  0
 13 14  1  0
 14 15  1  0
 15 16  1  0
 17 18  1  0
 17 16  1  6
 18  8  1  0
 19 17  1  0
 20 19  2  0
 22 21  1  6
 22 23  1  0
 23 19  1  0
 24 22  1  0
 24 26  1  0
 25 24  2  0
M  END
$$$$
