KRA.pdb
     RDKit          3D

 26 25  0  0  1  0  0  0  0  0999 V2000
   25.4645  -16.3410  -18.2160 N   0  0  0  0  0  0  0  0  0  0  0  0
   24.7377  -17.5702  -18.2435 C   0  0  1  0  0  0  0  0  0  0  0  0
   25.4232  -18.6615  -19.0083 C   0  0  0  0  0  0  0  0  0  0  0  0
   26.7349  -19.1037  -18.4663 C   0  0  0  0  0  0  0  0  0  0  0  0
   26.7636  -20.4432  -17.8190 C   0  0  0  0  0  0  0  0  0  0  0  0
   28.1069  -20.7860  -17.2200 C   0  0  0  0  0  0  0  0  0  0  0  0
   27.9820  -21.2248  -15.8405 N   0  0  0  0  0  0  0  0  0  0  0  0
   24.3742  -17.9890  -16.8770 C   0  0  0  0  0  0  0  0  0  0  0  0
   24.8601  -17.2995  -15.9254 O   0  0  0  0  0  0  0  0  0  0  0  0
   19.7461  -22.0984  -11.3762 N   0  0  0  0  0  0  0  0  0  0  0  0
   19.0271  -20.8917  -11.5240 C   0  0  0  0  0  0  0  0  0  0  0  0
   18.3349  -20.4344  -10.5209 N   0  0  0  0  0  0  0  0  0  0  0  0
   19.0107  -20.1288  -12.7228 N   0  0  0  0  0  0  0  0  0  0  0  0
   19.7550  -20.5806  -13.8810 C   0  0  0  0  0  0  0  0  0  0  0  0
   21.2064  -20.1100  -13.7739 C   0  0  0  0  0  0  0  0  0  0  0  0
   21.7474  -19.6822  -15.0952 C   0  0  0  0  0  0  0  0  0  0  0  0
   23.1974  -19.3815  -15.1439 C   0  0  2  0  0  0  0  0  0  0  0  0
   23.5413  -19.0775  -16.5269 N   0  0  0  0  0  0  0  0  0  0  0  0
   24.0944  -20.4060  -14.6348 C   0  0  0  0  0  0  0  0  0  0  0  0
   24.3210  -21.5103  -15.1938 O   0  0  0  0  0  0  0  0  0  0  0  0
   17.8133  -19.5484  -10.5530 C   0  0  0  0  0  0  0  0  0  0  0  0
   26.2758  -20.5786  -11.6231 C   0  0  1  0  0  0  0  0  0  0  0  0
   25.6097  -21.1974  -12.8382 N   0  0  0  0  0  0  0  0  0  0  0  0
   24.7796  -20.1677  -13.4157 C   0  0  0  0  0  0  0  0  0  0  0  0
   24.8668  -22.4121  -12.5177 O   0  0  0  0  0  0  0  0  0  0  0  0
   23.6228  -22.4394  -12.6239 O   0  0  0  0  0  0  0  0  0  0  0  0
  2  1  1  1
  3  2  1  0
  4  5  1  0
  4  3  1  0
  5  6  1  0
  6  7  1  0
  8  2  1  0
  8  9  2  0
 10 11  1  0
 11 12  2  0
 13 11  1  0
 13 14  1  0
 14 15  1  0
 15 16  1  0
 17 18  1  0
 17 16  1  6
 18  8  1  0
 19 17  1  0
 20 19  2  0
 22 21  1  6
 22 23  1  0
 23 19  1  0
 24 22  1  0
 24 26  1  0
 25 24  2  0
M  END
$$$$
