KRA.pdb
     RDKit          3D

 26 25  0  0  1  0  0  0  0  0999 V2000
   21.9453  -26.6969  -15.1011 N   0  0  0  0  0  0  0  0  0  0  0  0
   21.3429  -25.6276  -14.3708 C   0  0  1  0  0  0  0  0  0  0  0  0
   20.7361  -24.5679  -15.2396 C   0  0  0  0  0  0  0  0  0  0  0  0
   21.6965  -23.7485  -16.0243 C   0  0  0  0  0  0  0  0  0  0  0  0
   21.1423  -22.5374  -16.6878 C   0  0  0  0  0  0  0  0  0  0  0  0
   20.6000  -21.5201  -15.7123 C   0  0  0  0  0  0  0  0  0  0  0  0
   20.1637  -20.3098  -16.3877 N   0  0  0  0  0  0  0  0  0  0  0  0
   20.3864  -26.1512  -13.3779 C   0  0  0  0  0  0  0  0  0  0  0  0
   19.9774  -27.3416  -13.5588 O   0  0  0  0  0  0  0  0  0  0  0  0
   16.7039  -24.1956   -6.1508 N   0  0  0  0  0  0  0  0  0  0  0  0
   17.1530  -25.4772   -5.7626 C   0  0  0  0  0  0  0  0  0  0  0  0
   16.5688  -26.0847   -4.7706 N   0  0  0  0  0  0  0  0  0  0  0  0
   18.2244  -26.1603   -6.3990 N   0  0  0  0  0  0  0  0  0  0  0  0
   18.9540  -25.5225   -7.4762 C   0  0  0  0  0  0  0  0  0  0  0  0
   18.5268  -26.1280   -8.8143 C   0  0  0  0  0  0  0  0  0  0  0  0
   19.2990  -25.5536   -9.9523 C   0  0  0  0  0  0  0  0  0  0  0  0
   18.9730  -26.0802  -11.2983 C   0  0  2  0  0  0  0  0  0  0  0  0
   19.8848  -25.4595  -12.2505 N   0  0  0  0  0  0  0  0  0  0  0  0
   17.6035  -25.9062  -11.7537 C   0  0  0  0  0  0  0  0  0  0  0  0
   17.0939  -24.8120  -12.1090 O   0  0  0  0  0  0  0  0  0  0  0  0
   16.8275  -27.0295   -4.4569 C   0  0  0  0  0  0  0  0  0  0  0  0
   15.0155  -25.4422  -12.0070 C   0  0  2  0  0  0  0  0  0  0  0  0
   15.3808  -26.8982  -12.2296 N   0  0  0  0  0  0  0  0  0  0  0  0
   16.7547  -27.0415  -11.8115 C   0  0  0  0  0  0  0  0  0  0  0  0
   15.1580  -27.3324  -13.6051 O   0  0  0  0  0  0  0  0  0  0  0  0
   16.1163  -27.7044  -14.3142 O   0  0  0  0  0  0  0  0  0  0  0  0
  2  1  1  6
  3  2  1  0
  4  5  1  0
  4  3  1  0
  5  6  1  0
  6  7  1  0
  8  2  1  0
  8  9  2  0
 10 11  1  0
 11 12  2  0
 13 11  1  0
 13 14  1  0
 14 15  1  0
 15 16  1  0
 17 18  1  0
 17 16  1  1
 18  8  1  0
 19 17  1  0
 20 19  2  0
 22 21  1  1
 22 23  1  0
 23 19  1  0
 24 22  1  0
 24 26  1  0
 25 24  2  0
M  END
$$$$
