KRA.pdb
     RDKit          3D

 26 25  0  0  1  0  0  0  0  0999 V2000
   19.8146  -20.2363  -13.4726 N   0  0  0  0  0  0  0  0  0  0  0  0
   20.8154  -21.0269  -14.1153 C   0  0  1  0  0  0  0  0  0  0  0  0
   20.7082  -21.0406  -15.6100 C   0  0  0  0  0  0  0  0  0  0  0  0
   20.1104  -19.8266  -16.2254 C   0  0  0  0  0  0  0  0  0  0  0  0
   19.2663  -20.0455  -17.4310 C   0  0  0  0  0  0  0  0  0  0  0  0
   18.7076  -18.7659  -18.0066 C   0  0  0  0  0  0  0  0  0  0  0  0
   17.8399  -19.0238  -19.1432 N   0  0  0  0  0  0  0  0  0  0  0  0
   22.1608  -20.6354  -13.6553 C   0  0  0  0  0  0  0  0  0  0  0  0
   22.3867  -19.3874  -13.5629 O   0  0  0  0  0  0  0  0  0  0  0  0
   26.3994  -20.1688   -6.7913 N   0  0  0  0  0  0  0  0  0  0  0  0
   27.4859  -20.6039   -7.5819 C   0  0  0  0  0  0  0  0  0  0  0  0
   28.6692  -20.6928   -7.0468 N   0  0  0  0  0  0  0  0  0  0  0  0
   27.3675  -20.9583   -8.9530 N   0  0  0  0  0  0  0  0  0  0  0  0
   26.0710  -21.2926   -9.5069 C   0  0  0  0  0  0  0  0  0  0  0  0
   26.1935  -21.4858  -11.0193 C   0  0  0  0  0  0  0  0  0  0  0  0
   24.8797  -21.8129  -11.6426 C   0  0  0  0  0  0  0  0  0  0  0  0
   24.5089  -21.0260  -12.8421 C   0  0  2  0  0  0  0  0  0  0  0  0
   23.2165  -21.5109  -13.3088 N   0  0  0  0  0  0  0  0  0  0  0  0
   25.4561  -21.0307  -13.9448 C   0  0  0  0  0  0  0  0  0  0  0  0
   25.6339  -21.9894  -14.7402 O   0  0  0  0  0  0  0  0  0  0  0  0
   29.5026  -20.9956   -7.5681 C   0  0  0  0  0  0  0  0  0  0  0  0
   27.8768  -18.4911  -15.1944 C   0  0  1  0  0  0  0  0  0  0  0  0
   27.2202  -19.8587  -15.2352 N   0  0  0  0  0  0  0  0  0  0  0  0
   26.2538  -19.8782  -14.1634 C   0  0  0  0  0  0  0  0  0  0  0  0
   28.1844  -20.9509  -15.1498 O   0  0  0  0  0  0  0  0  0  0  0  0
   28.4653  -21.4620  -14.0455 O   0  0  0  0  0  0  0  0  0  0  0  0
  2  1  1  1
  3  2  1  0
  4  5  1  0
  4  3  1  0
  5  6  1  0
  6  7  1  0
  8  2  1  0
  8  9  2  0
 10 11  1  0
 11 12  2  0
 13 11  1  0
 13 14  1  0
 14 15  1  0
 15 16  1  0
 17 18  1  0
 17 16  1  1
 18  8  1  0
 19 17  1  0
 20 19  2  0
 22 21  1  6
 22 23  1  0
 23 19  1  0
 24 22  1  0
 24 26  1  0
 25 24  2  0
M  END
$$$$
