KRA.pdb
     RDKit          3D

 26 25  0  0  1  0  0  0  0  0999 V2000
   19.8231  -21.0239  -12.8473 N   0  0  0  0  0  0  0  0  0  0  0  0
   20.0564  -20.2360  -14.0155 C   0  0  1  0  0  0  0  0  0  0  0  0
   19.1927  -19.0145  -14.1040 C   0  0  0  0  0  0  0  0  0  0  0  0
   17.9017  -19.1874  -14.8204 C   0  0  0  0  0  0  0  0  0  0  0  0
   16.9847  -18.0156  -14.8197 C   0  0  0  0  0  0  0  0  0  0  0  0
   15.6458  -18.3073  -15.4544 C   0  0  0  0  0  0  0  0  0  0  0  0
   14.7353  -17.1824  -15.3254 N   0  0  0  0  0  0  0  0  0  0  0  0
   21.4902  -19.9172  -14.1486 C   0  0  0  0  0  0  0  0  0  0  0  0
   22.1016  -19.6009  -13.0794 O   0  0  0  0  0  0  0  0  0  0  0  0
   27.7452  -24.7260  -15.9061 N   0  0  0  0  0  0  0  0  0  0  0  0
   28.3629  -23.5722  -16.4375 C   0  0  0  0  0  0  0  0  0  0  0  0
   29.6556  -23.5530  -16.5892 N   0  0  0  0  0  0  0  0  0  0  0  0
   27.6485  -22.4066  -16.8252 N   0  0  0  0  0  0  0  0  0  0  0  0
   26.2014  -22.3852  -16.7549 C   0  0  0  0  0  0  0  0  0  0  0  0
   25.7381  -21.0776  -16.1106 C   0  0  0  0  0  0  0  0  0  0  0  0
   24.2525  -21.0050  -16.0145 C   0  0  0  0  0  0  0  0  0  0  0  0
   23.6963  -19.8022  -15.3518 C   0  0  2  0  0  0  0  0  0  0  0  0
   22.2448  -19.9305  -15.3451 N   0  0  0  0  0  0  0  0  0  0  0  0
   24.0670  -18.5150  -15.9165 C   0  0  0  0  0  0  0  0  0  0  0  0
   23.5446  -17.9965  -16.9371 O   0  0  0  0  0  0  0  0  0  0  0  0
   30.1703  -22.7337  -16.9386 C   0  0  0  0  0  0  0  0  0  0  0  0
   26.4350  -15.8610  -14.8433 C   0  0  1  0  0  0  0  0  0  0  0  0
   25.5652  -16.5389  -15.8859 N   0  0  0  0  0  0  0  0  0  0  0  0
   25.0941  -17.7650  -15.2879 C   0  0  0  0  0  0  0  0  0  0  0  0
   26.2629  -16.7552  -17.1494 O   0  0  0  0  0  0  0  0  0  0  0  0
   26.5973  -15.7854  -17.8617 O   0  0  0  0  0  0  0  0  0  0  0  0
  2  1  1  1
  3  2  1  0
  4  5  1  0
  4  3  1  0
  5  6  1  0
  6  7  1  0
  8  2  1  0
  8  9  2  0
 10 11  1  0
 11 12  2  0
 13 11  1  0
 13 14  1  0
 14 15  1  0
 15 16  1  0
 17 18  1  0
 17 16  1  6
 18  8  1  0
 19 17  1  0
 20 19  2  0
 22 21  1  1
 22 23  1  0
 23 19  1  0
 24 22  1  0
 24 26  1  0
 25 24  2  0
M  END
$$$$
