KRA.pdb
     RDKit          3D

 26 25  0  0  1  0  0  0  0  0999 V2000
   15.7245  -29.7122   -6.8564 N   0  0  0  0  0  0  0  0  0  0  0  0
   16.9008  -29.2195   -6.2136 C   0  0  1  0  0  0  0  0  0  0  0  0
   16.6249  -28.4242   -4.9737 C   0  0  0  0  0  0  0  0  0  0  0  0
   15.5163  -27.4388   -5.0724 C   0  0  0  0  0  0  0  0  0  0  0  0
   15.7941  -26.0776   -4.5395 C   0  0  0  0  0  0  0  0  0  0  0  0
   14.5983  -25.1576   -4.6044 C   0  0  0  0  0  0  0  0  0  0  0  0
   14.8523  -23.8998   -3.9228 N   0  0  0  0  0  0  0  0  0  0  0  0
   17.8583  -30.3151   -5.9729 C   0  0  0  0  0  0  0  0  0  0  0  0
   17.3808  -31.3870   -5.4830 O   0  0  0  0  0  0  0  0  0  0  0  0
   25.6841  -32.4573   -9.6925 N   0  0  0  0  0  0  0  0  0  0  0  0
   25.4165  -33.4251   -8.6992 C   0  0  0  0  0  0  0  0  0  0  0  0
   26.2226  -34.4379   -8.5615 N   0  0  0  0  0  0  0  0  0  0  0  0
   24.3001  -33.3628   -7.8222 N   0  0  0  0  0  0  0  0  0  0  0  0
   23.3803  -32.2457   -7.8963 C   0  0  0  0  0  0  0  0  0  0  0  0
   22.2815  -32.4150   -6.8458 C   0  0  0  0  0  0  0  0  0  0  0  0
   21.2553  -31.3384   -6.9412 C   0  0  0  0  0  0  0  0  0  0  0  0
   20.1062  -31.4435   -6.0118 C   0  0  2  0  0  0  0  0  0  0  0  0
   19.2483  -30.2868   -6.2343 N   0  0  0  0  0  0  0  0  0  0  0  0
   20.4187  -31.5507   -4.5962 C   0  0  0  0  0  0  0  0  0  0  0  0
   20.8033  -30.5998   -3.8673 O   0  0  0  0  0  0  0  0  0  0  0  0
   26.0893  -35.1727   -7.8541 C   0  0  0  0  0  0  0  0  0  0  0  0
   19.9755  -34.2149   -2.0764 C   0  0  1  0  0  0  0  0  0  0  0  0
   20.6930  -32.9791   -2.5874 N   0  0  0  0  0  0  0  0  0  0  0  0
   20.2885  -32.8135   -3.9629 C   0  0  0  0  0  0  0  0  0  0  0  0
   22.1413  -33.0604   -2.4276 O   0  0  0  0  0  0  0  0  0  0  0  0
   22.6651  -32.8863   -1.3074 O   0  0  0  0  0  0  0  0  0  0  0  0
  2  1  1  1
  3  2  1  0
  4  5  1  0
  4  3  1  0
  5  6  1  0
  6  7  1  0
  8  2  1  0
  8  9  2  0
 10 11  1  0
 11 12  2  0
 13 11  1  0
 13 14  1  0
 14 15  1  0
 15 16  1  0
 17 18  1  0
 17 16  1  6
 18  8  1  0
 19 17  1  0
 20 19  2  0
 22 21  1  1
 22 23  1  0
 23 19  1  0
 24 22  1  0
 24 26  1  0
 25 24  2  0
M  END
$$$$
