KRA.pdb
     RDKit          3D

 26 25  0  0  1  0  0  0  0  0999 V2000
   19.2245  -28.3522   -1.5168 N   0  0  0  0  0  0  0  0  0  0  0  0
   18.2311  -28.4835   -2.5344 C   0  0  1  0  0  0  0  0  0  0  0  0
   16.9363  -29.0583   -2.0454 C   0  0  0  0  0  0  0  0  0  0  0  0
   16.9294  -30.5261   -1.8110 C   0  0  0  0  0  0  0  0  0  0  0  0
   16.0987  -31.3388   -2.7404 C   0  0  0  0  0  0  0  0  0  0  0  0
   15.9908  -32.7880   -2.3294 C   0  0  0  0  0  0  0  0  0  0  0  0
   15.1108  -33.5317   -3.2147 N   0  0  0  0  0  0  0  0  0  0  0  0
   18.0420  -27.2042   -3.2434 C   0  0  0  0  0  0  0  0  0  0  0  0
   18.0534  -26.1531   -2.5277 O   0  0  0  0  0  0  0  0  0  0  0  0
   16.2914  -24.4164  -10.3472 N   0  0  0  0  0  0  0  0  0  0  0  0
   17.2911  -23.4186  -10.3428 C   0  0  0  0  0  0  0  0  0  0  0  0
   17.1168  -22.3376  -11.0466 N   0  0  0  0  0  0  0  0  0  0  0  0
   18.5004  -23.5216   -9.6036 N   0  0  0  0  0  0  0  0  0  0  0  0
   18.7625  -24.6992   -8.8010 C   0  0  0  0  0  0  0  0  0  0  0  0
   18.0937  -24.5477   -7.4337 C   0  0  0  0  0  0  0  0  0  0  0  0
   18.2890  -25.7580   -6.5861 C   0  0  0  0  0  0  0  0  0  0  0  0
   17.6638  -25.7259   -5.2431 C   0  0  2  0  0  0  0  0  0  0  0  0
   17.8511  -27.0368   -4.6350 N   0  0  0  0  0  0  0  0  0  0  0  0
   16.2579  -25.3607   -5.1857 C   0  0  0  0  0  0  0  0  0  0  0  0
   15.3144  -26.0427   -5.6632 O   0  0  0  0  0  0  0  0  0  0  0  0
   17.8102  -21.5794  -11.0966 C   0  0  0  0  0  0  0  0  0  0  0  0
   14.4402  -22.5360   -3.5929 C   0  0  1  0  0  0  0  0  0  0  0  0
   14.5180  -23.7123   -4.5486 N   0  0  0  0  0  0  0  0  0  0  0  0
   15.8942  -24.1468   -4.5479 C   0  0  0  0  0  0  0  0  0  0  0  0
   14.0257  -23.3886   -5.8838 O   0  0  0  0  0  0  0  0  0  0  0  0
   14.8257  -23.1842   -6.8208 O   0  0  0  0  0  0  0  0  0  0  0  0
  2  1  1  1
  3  2  1  0
  4  5  1  0
  4  3  1  0
  5  6  1  0
  6  7  1  0
  8  2  1  0
  8  9  2  0
 10 11  1  0
 11 12  2  0
 13 11  1  0
 13 14  1  0
 14 15  1  0
 15 16  1  0
 17 18  1  0
 17 16  1  6
 18  8  1  0
 19 17  1  0
 20 19  2  0
 22 21  1  1
 22 23  1  0
 23 19  1  0
 24 22  1  0
 24 26  1  0
 25 24  2  0
M  END
$$$$
