QNN.pdb
     RDKit          3D

 26 25  0  0  1  0  0  0  0  0999 V2000
    8.0602  -12.9791   15.7414 N   0  0  0  0  0  0  0  0  0  0  0  0
    7.0991  -13.7488   16.4246 C   0  0  0  0  0  0  0  0  0  0  0  0
    6.1497  -14.2495   15.7927 O   0  0  0  0  0  0  0  0  0  0  0  0
    7.2037  -13.9693   17.8776 C   0  0  0  0  0  0  0  0  0  0  0  0
    8.3309  -13.2351   18.5382 C   0  0  0  0  0  0  0  0  0  0  0  0
    9.6219  -13.9804   18.5440 C   0  0  2  0  0  0  0  0  0  0  0  0
    9.4837  -15.3091   17.9618 N   0  0  0  0  0  0  0  0  0  0  0  0
   10.0326  -14.1848   19.9766 C   0  0  0  0  0  0  0  0  0  0  0  0
   10.0721  -13.1452   20.6910 O   0  0  0  0  0  0  0  0  0  0  0  0
   10.4270  -15.3491   25.0170 N   0  0  0  0  0  0  0  0  0  0  0  0
   10.1836  -16.4469   24.1399 C   0  0  0  0  0  0  0  0  0  0  0  0
   10.3836  -17.6015   24.5903 O   0  0  0  0  0  0  0  0  0  0  0  0
    9.7099  -16.2197   22.7427 C   0  0  0  0  0  0  0  0  0  0  0  0
   10.7769  -15.6220   21.8544 C   0  0  2  0  0  0  0  0  0  0  0  0
   10.3544  -15.4556   20.4928 N   0  0  0  0  0  0  0  0  0  0  0  0
   12.0358  -16.4169   21.9452 C   0  0  0  0  0  0  0  0  0  0  0  0
   12.4544  -16.8771   23.0343 O   0  0  0  0  0  0  0  0  0  0  0  0
   15.4987  -15.4743   18.1301 N   0  0  0  0  0  0  0  0  0  0  0  0
   14.7316  -14.4359   18.7195 C   0  0  0  0  0  0  0  0  0  0  0  0
   14.7123  -13.3170   18.1550 O   0  0  0  0  0  0  0  0  0  0  0  0
   13.9698  -14.6397   19.9659 C   0  0  0  0  0  0  0  0  0  0  0  0
   14.0678  -16.0374   20.5049 C   0  0  2  0  0  0  0  0  0  0  0  0
   12.8261  -16.6874   20.7732 N   0  0  0  0  0  0  0  0  0  0  0  0
   14.9960  -16.0950   21.6889 C   0  0  0  0  0  0  0  0  0  0  0  0
   16.0350  -17.0083   21.7622 O   0  0  0  0  0  0  0  0  0  0  0  0
   14.8673  -15.3172   22.6614 O   0  0  0  0  0  0  0  0  0  0  0  0
  2  3  2  0
  2  1  1  0
  4  2  1  0
  5  4  1  0
  6  5  1  0
  6  7  1  1
  8  9  2  0
  8  6  1  0
 11 10  1  0
 11 13  1  0
 12 11  2  0
 14 13  1  1
 14 15  1  0
 15  8  1  0
 16 23  1  0
 16 14  1  0
 17 16  2  0
 18 19  1  0
 19 21  1  0
 20 19  2  0
 22 21  1  1
 22 23  1  0
 22 24  1  0
 24 25  1  0
 26 24  2  0
M  END
$$$$
