QNN.pdb
     RDKit          3D

 26 25  0  0  1  0  0  0  0  0999 V2000
    6.0633  -12.5386   18.4942 N   0  0  0  0  0  0  0  0  0  0  0  0
    6.9677  -13.4099   17.8573 C   0  0  0  0  0  0  0  0  0  0  0  0
    6.9501  -13.5150   16.6163 O   0  0  0  0  0  0  0  0  0  0  0  0
    7.9346  -14.1982   18.6413 C   0  0  0  0  0  0  0  0  0  0  0  0
    8.9683  -13.3814   19.3556 C   0  0  0  0  0  0  0  0  0  0  0  0
   10.3578  -13.9040   19.2188 C   0  0  2  0  0  0  0  0  0  0  0  0
   10.4667  -14.8800   18.1422 N   0  0  0  0  0  0  0  0  0  0  0  0
   10.7066  -14.6312   20.4886 C   0  0  0  0  0  0  0  0  0  0  0  0
   10.7033  -13.9337   21.5403 O   0  0  0  0  0  0  0  0  0  0  0  0
    8.6214  -17.1023   21.8280 N   0  0  0  0  0  0  0  0  0  0  0  0
    9.4656  -18.2507   21.7843 C   0  0  0  0  0  0  0  0  0  0  0  0
    8.9094  -19.3755   21.7461 O   0  0  0  0  0  0  0  0  0  0  0  0
   10.9516  -18.1086   21.7845 C   0  0  0  0  0  0  0  0  0  0  0  0
   11.4001  -16.6665   21.7225 C   0  0  2  0  0  0  0  0  0  0  0  0
   11.0186  -16.0050   20.5072 N   0  0  0  0  0  0  0  0  0  0  0  0
   12.8686  -16.5667   21.9639 C   0  0  0  0  0  0  0  0  0  0  0  0
   13.4726  -17.3598   22.7252 O   0  0  0  0  0  0  0  0  0  0  0  0
   15.1057  -13.6882   18.2538 N   0  0  0  0  0  0  0  0  0  0  0  0
   15.4719  -14.7318   19.1432 C   0  0  0  0  0  0  0  0  0  0  0  0
   15.5437  -15.8992   18.6927 O   0  0  0  0  0  0  0  0  0  0  0  0
   15.7625  -14.4778   20.5667 C   0  0  0  0  0  0  0  0  0  0  0  0
   15.0675  -15.4286   21.4978 C   0  0  2  0  0  0  0  0  0  0  0  0
   13.6556  -15.5446   21.3257 N   0  0  0  0  0  0  0  0  0  0  0  0
   15.4345  -15.1458   22.9302 C   0  0  0  0  0  0  0  0  0  0  0  0
   14.4741  -14.9950   23.9171 O   0  0  0  0  0  0  0  0  0  0  0  0
   16.6279  -15.0339   23.2915 O   0  0  0  0  0  0  0  0  0  0  0  0
  2  3  2  0
  2  1  1  0
  4  2  1  0
  5  4  1  0
  6  5  1  0
  6  7  1  6
  8  9  2  0
  8  6  1  0
 11 10  1  0
 11 13  1  0
 12 11  2  0
 14 13  1  6
 14 15  1  0
 15  8  1  0
 16 23  1  0
 16 14  1  0
 17 16  2  0
 18 19  1  0
 19 21  1  0
 20 19  2  0
 22 21  1  6
 22 23  1  0
 22 24  1  0
 24 25  1  0
 26 24  2  0
M  END
$$$$
