QNN.pdb
     RDKit          3D

 26 25  0  0  1  0  0  0  0  0999 V2000
   11.1845  -25.1257   21.2399 N   0  0  0  0  0  0  0  0  0  0  0  0
   10.1020  -24.8254   22.0889 C   0  0  0  0  0  0  0  0  0  0  0  0
    8.9736  -25.2868   21.8335 O   0  0  0  0  0  0  0  0  0  0  0  0
   10.2884  -23.9724   23.2757 C   0  0  0  0  0  0  0  0  0  0  0  0
   11.6400  -23.3327   23.3753 C   0  0  0  0  0  0  0  0  0  0  0  0
   12.6801  -24.2015   23.9964 C   0  0  2  0  0  0  0  0  0  0  0  0
   12.1030  -25.4051   24.5810 N   0  0  0  0  0  0  0  0  0  0  0  0
   13.3063  -23.4366   25.1302 C   0  0  0  0  0  0  0  0  0  0  0  0
   14.4323  -23.8533   25.5189 O   0  0  0  0  0  0  0  0  0  0  0  0
   14.1498  -19.6850   24.0824 N   0  0  0  0  0  0  0  0  0  0  0  0
   14.5776  -20.0211   25.4006 C   0  0  0  0  0  0  0  0  0  0  0  0
   15.8092  -20.1794   25.5854 O   0  0  0  0  0  0  0  0  0  0  0  0
   13.5903  -20.1762   26.5094 C   0  0  0  0  0  0  0  0  0  0  0  0
   13.2845  -21.6234   26.8206 C   0  0  2  0  0  0  0  0  0  0  0  0
   12.6784  -22.3241   25.7244 N   0  0  0  0  0  0  0  0  0  0  0  0
   12.4616  -21.7271   28.0604 C   0  0  0  0  0  0  0  0  0  0  0  0
   11.2313  -21.4830   28.0641 O   0  0  0  0  0  0  0  0  0  0  0  0
   13.1968  -24.9390   30.2447 N   0  0  0  0  0  0  0  0  0  0  0  0
   13.5166  -24.2361   31.4354 C   0  0  0  0  0  0  0  0  0  0  0  0
   14.2169  -24.8158   32.2983 O   0  0  0  0  0  0  0  0  0  0  0  0
   13.0474  -22.8592   31.6787 C   0  0  0  0  0  0  0  0  0  0  0  0
   12.3048  -22.2663   30.5164 C   0  0  2  0  0  0  0  0  0  0  0  0
   13.0559  -22.1145   29.3126 N   0  0  0  0  0  0  0  0  0  0  0  0
   11.6177  -20.9864   30.9117 C   0  0  0  0  0  0  0  0  0  0  0  0
   10.6170  -20.9569   31.8691 O   0  0  0  0  0  0  0  0  0  0  0  0
   11.9225  -19.8902   30.3894 O   0  0  0  0  0  0  0  0  0  0  0  0
  2  3  2  0
  2  1  1  0
  4  2  1  0
  5  4  1  0
  6  5  1  0
  6  7  1  1
  8  9  2  0
  8  6  1  0
 11 10  1  0
 11 13  1  0
 12 11  2  0
 14 13  1  6
 14 15  1  0
 15  8  1  0
 16 23  1  0
 16 14  1  0
 17 16  2  0
 18 19  1  0
 19 21  1  0
 20 19  2  0
 22 21  1  1
 22 23  1  0
 22 24  1  0
 24 25  1  0
 26 24  2  0
M  END
$$$$
