QNN.pdb
     RDKit          3D

 26 25  0  0  1  0  0  0  0  0999 V2000
   11.6485  -14.1791   13.6745 N   0  0  0  0  0  0  0  0  0  0  0  0
   12.3150  -15.4085   13.5101 C   0  0  0  0  0  0  0  0  0  0  0  0
   12.1255  -16.0776   12.4768 O   0  0  0  0  0  0  0  0  0  0  0  0
   13.2341  -15.9125   14.5455 C   0  0  0  0  0  0  0  0  0  0  0  0
   13.3069  -15.0636   15.7785 C   0  0  0  0  0  0  0  0  0  0  0  0
   13.0373  -15.8041   17.0439 C   0  0  2  0  0  0  0  0  0  0  0  0
   12.3422  -17.0613   16.7990 N   0  0  0  0  0  0  0  0  0  0  0  0
   12.1143  -14.9649   17.8844 C   0  0  0  0  0  0  0  0  0  0  0  0
   12.6254  -13.9316   18.3979 O   0  0  0  0  0  0  0  0  0  0  0  0
    7.8074  -12.1081   19.8293 N   0  0  0  0  0  0  0  0  0  0  0  0
    7.7552  -13.4890   19.4775 C   0  0  0  0  0  0  0  0  0  0  0  0
    6.9091  -14.2041   20.0679 O   0  0  0  0  0  0  0  0  0  0  0  0
    8.6761  -14.0512   18.4458 C   0  0  0  0  0  0  0  0  0  0  0  0
    9.9512  -14.6037   19.0404 C   0  0  2  0  0  0  0  0  0  0  0  0
   10.7631  -15.3075   18.0887 N   0  0  0  0  0  0  0  0  0  0  0  0
    9.6476  -15.4471   20.2326 C   0  0  0  0  0  0  0  0  0  0  0  0
    8.7687  -16.3417   20.2077 O   0  0  0  0  0  0  0  0  0  0  0  0
   14.1468  -16.0808   21.1031 N   0  0  0  0  0  0  0  0  0  0  0  0
   13.2149  -16.3187   22.1466 C   0  0  0  0  0  0  0  0  0  0  0  0
   13.4663  -15.8581   23.2849 O   0  0  0  0  0  0  0  0  0  0  0  0
   11.9759  -17.0879   21.9261 C   0  0  0  0  0  0  0  0  0  0  0  0
   10.7326  -16.3452   22.3215 C   0  0  2  0  0  0  0  0  0  0  0  0
   10.3592  -15.2627   21.4699 N   0  0  0  0  0  0  0  0  0  0  0  0
   10.7918  -15.9252   23.7660 C   0  0  0  0  0  0  0  0  0  0  0  0
   10.5137  -14.6278   24.1642 O   0  0  0  0  0  0  0  0  0  0  0  0
   11.0965  -16.7336   24.6721 O   0  0  0  0  0  0  0  0  0  0  0  0
  2  3  2  0
  2  1  1  0
  4  2  1  0
  5  4  1  0
  6  5  1  0
  6  7  1  6
  8  9  2  0
  8  6  1  0
 11 10  1  0
 11 13  1  0
 12 11  2  0
 14 13  1  6
 14 15  1  0
 15  8  1  0
 16 23  1  0
 16 14  1  0
 17 16  2  0
 18 19  1  0
 19 21  1  0
 20 19  2  0
 22 21  1  6
 22 23  1  0
 22 24  1  0
 24 25  1  0
 26 24  2  0
M  END
$$$$
