QNN.pdb
     RDKit          3D

 26 25  0  0  1  0  0  0  0  0999 V2000
    8.5820  -12.2365   19.1186 N   0  0  0  0  0  0  0  0  0  0  0  0
    8.0374  -13.2721   18.3352 C   0  0  0  0  0  0  0  0  0  0  0  0
    8.0834  -13.1929   17.0930 O   0  0  0  0  0  0  0  0  0  0  0  0
    7.4144  -14.4481   18.9673 C   0  0  0  0  0  0  0  0  0  0  0  0
    7.5077  -14.4724   20.4629 C   0  0  0  0  0  0  0  0  0  0  0  0
    8.8771  -14.7493   20.9827 C   0  0  2  0  0  0  0  0  0  0  0  0
    9.5563  -15.7756   20.2022 N   0  0  0  0  0  0  0  0  0  0  0  0
    8.7418  -15.2961   22.3774 C   0  0  0  0  0  0  0  0  0  0  0  0
    7.9100  -14.7062   23.1210 O   0  0  0  0  0  0  0  0  0  0  0  0
    8.0955  -19.9207   23.2529 N   0  0  0  0  0  0  0  0  0  0  0  0
    9.3448  -19.2375   23.1760 C   0  0  0  0  0  0  0  0  0  0  0  0
   10.0339  -19.4085   22.1407 O   0  0  0  0  0  0  0  0  0  0  0  0
    9.8047  -18.3560   24.2894 C   0  0  0  0  0  0  0  0  0  0  0  0
    9.3131  -16.9335   24.1489 C   0  0  2  0  0  0  0  0  0  0  0  0
    9.4946  -16.3977   22.8299 N   0  0  0  0  0  0  0  0  0  0  0  0
    9.9370  -16.0618   25.1861 C   0  0  0  0  0  0  0  0  0  0  0  0
   11.1460  -15.7310   25.1369 O   0  0  0  0  0  0  0  0  0  0  0  0
    8.7214  -11.6327   26.2370 N   0  0  0  0  0  0  0  0  0  0  0  0
    8.2470  -12.8874   26.7003 C   0  0  0  0  0  0  0  0  0  0  0  0
    7.2359  -13.3815   26.1484 O   0  0  0  0  0  0  0  0  0  0  0  0
    8.9055  -13.6116   27.8036 C   0  0  0  0  0  0  0  0  0  0  0  0
    9.7310  -14.7784   27.3443 C   0  0  2  0  0  0  0  0  0  0  0  0
    9.1664  -15.5630   26.2946 N   0  0  0  0  0  0  0  0  0  0  0  0
   10.1578  -15.6294   28.5106 C   0  0  0  0  0  0  0  0  0  0  0  0
   10.8198  -15.0957   29.6042 O   0  0  0  0  0  0  0  0  0  0  0  0
    9.9320  -16.8605   28.5415 O   0  0  0  0  0  0  0  0  0  0  0  0
  2  3  2  0
  2  1  1  0
  4  2  1  0
  5  4  1  0
  6  5  1  0
  6  7  1  6
  8  9  2  0
  8  6  1  0
 11 10  1  0
 11 13  1  0
 12 11  2  0
 14 13  1  6
 14 15  1  0
 15  8  1  0
 16 23  1  0
 16 14  1  0
 17 16  2  0
 18 19  1  0
 19 21  1  0
 20 19  2  0
 22 21  1  1
 22 23  1  0
 22 24  1  0
 24 25  1  0
 26 24  2  0
M  END
$$$$
