QNN.pdb
     RDKit          3D

 26 25  0  0  1  0  0  0  0  0999 V2000
    8.0668  -12.7881   15.8657 N   0  0  0  0  0  0  0  0  0  0  0  0
    8.2428  -14.1742   15.6911 C   0  0  0  0  0  0  0  0  0  0  0  0
    7.5341  -14.7855   14.8693 O   0  0  0  0  0  0  0  0  0  0  0  0
    9.2554  -14.9097   16.4686 C   0  0  0  0  0  0  0  0  0  0  0  0
    8.9094  -15.1035   17.9138 C   0  0  0  0  0  0  0  0  0  0  0  0
    9.9766  -15.7734   18.7105 C   0  0  2  0  0  0  0  0  0  0  0  0
    9.7164  -17.1975   18.8765 N   0  0  0  0  0  0  0  0  0  0  0  0
    9.9683  -15.1762   20.0911 C   0  0  0  0  0  0  0  0  0  0  0  0
   10.6096  -14.0978   20.2276 O   0  0  0  0  0  0  0  0  0  0  0  0
    6.6874  -13.4891   21.4333 N   0  0  0  0  0  0  0  0  0  0  0  0
    6.9042  -14.7715   22.0179 C   0  0  0  0  0  0  0  0  0  0  0  0
    6.1851  -15.7187   21.6158 O   0  0  0  0  0  0  0  0  0  0  0  0
    7.9483  -14.9679   23.0665 C   0  0  0  0  0  0  0  0  0  0  0  0
    9.3222  -15.2092   22.4842 C   0  0  2  0  0  0  0  0  0  0  0  0
    9.2888  -15.7797   21.1676 N   0  0  0  0  0  0  0  0  0  0  0  0
   10.1468  -16.0303   23.4173 C   0  0  0  0  0  0  0  0  0  0  0  0
   10.1825  -15.8013   24.6501 O   0  0  0  0  0  0  0  0  0  0  0  0
   10.0276  -20.3071   21.9003 N   0  0  0  0  0  0  0  0  0  0  0  0
   10.4282  -19.9411   23.2116 C   0  0  0  0  0  0  0  0  0  0  0  0
    9.6067  -20.0870   24.1469 O   0  0  0  0  0  0  0  0  0  0  0  0
   11.7697  -19.3973   23.4946 C   0  0  0  0  0  0  0  0  0  0  0  0
   11.7695  -17.9233   23.7794 C   0  0  2  0  0  0  0  0  0  0  0  0
   10.9415  -17.1278   22.9321 N   0  0  0  0  0  0  0  0  0  0  0  0
   13.1746  -17.3875   23.8505 C   0  0  0  0  0  0  0  0  0  0  0  0
   13.9436  -17.4965   24.9976 O   0  0  0  0  0  0  0  0  0  0  0  0
   13.7096  -16.8181   22.8723 O   0  0  0  0  0  0  0  0  0  0  0  0
  2  3  2  0
  2  1  1  0
  4  2  1  0
  5  4  1  0
  6  5  1  0
  6  7  1  1
  8  9  2  0
  8  6  1  0
 11 10  1  0
 11 13  1  0
 12 11  2  0
 14 13  1  1
 14 15  1  0
 15  8  1  0
 16 23  1  0
 16 14  1  0
 17 16  2  0
 18 19  1  0
 19 21  1  0
 20 19  2  0
 22 21  1  6
 22 23  1  0
 22 24  1  0
 24 25  1  0
 26 24  2  0
M  END
$$$$
