QNN.pdb
     RDKit          3D

 26 25  0  0  1  0  0  0  0  0999 V2000
    6.6673  -12.3436   18.3963 N   0  0  0  0  0  0  0  0  0  0  0  0
    7.5217  -12.9940   17.4854 C   0  0  0  0  0  0  0  0  0  0  0  0
    7.1662  -13.1321   16.2997 O   0  0  0  0  0  0  0  0  0  0  0  0
    8.8311  -13.5127   17.9181 C   0  0  0  0  0  0  0  0  0  0  0  0
    9.1049  -13.3641   19.3841 C   0  0  0  0  0  0  0  0  0  0  0  0
   10.4567  -13.8340   19.8014 C   0  0  2  0  0  0  0  0  0  0  0  0
   11.0812  -14.6650   18.7801 N   0  0  0  0  0  0  0  0  0  0  0  0
   10.2898  -14.7062   21.0155 C   0  0  0  0  0  0  0  0  0  0  0  0
    9.8005  -14.1435   22.0337 O   0  0  0  0  0  0  0  0  0  0  0  0
    7.8561  -18.1114   20.2646 N   0  0  0  0  0  0  0  0  0  0  0  0
    8.2924  -17.6792   21.5516 C   0  0  0  0  0  0  0  0  0  0  0  0
    7.4983  -16.9784   22.2256 O   0  0  0  0  0  0  0  0  0  0  0  0
    9.6430  -18.0517   22.0668 C   0  0  0  0  0  0  0  0  0  0  0  0
   10.5613  -16.8599   22.2128 C   0  0  2  0  0  0  0  0  0  0  0  0
   10.6559  -16.0667   21.0204 N   0  0  0  0  0  0  0  0  0  0  0  0
   11.9057  -17.2936   22.6917 C   0  0  0  0  0  0  0  0  0  0  0  0
   12.1569  -18.4896   22.9741 O   0  0  0  0  0  0  0  0  0  0  0  0
   14.3377  -17.4859   19.6503 N   0  0  0  0  0  0  0  0  0  0  0  0
   15.1231  -17.0968   20.7664 C   0  0  0  0  0  0  0  0  0  0  0  0
   16.0099  -16.2277   20.5955 O   0  0  0  0  0  0  0  0  0  0  0  0
   14.9247  -17.6863   22.1038 C   0  0  0  0  0  0  0  0  0  0  0  0
   14.3279  -16.7306   23.0959 C   0  0  2  0  0  0  0  0  0  0  0  0
   12.9762  -16.3448   22.8499 N   0  0  0  0  0  0  0  0  0  0  0  0
   15.2218  -15.5364   23.2994 C   0  0  0  0  0  0  0  0  0  0  0  0
   16.4743  -15.6487   23.8804 O   0  0  0  0  0  0  0  0  0  0  0  0
   14.8695  -14.3866   22.9512 O   0  0  0  0  0  0  0  0  0  0  0  0
  2  3  2  0
  2  1  1  0
  4  2  1  0
  5  4  1  0
  6  5  1  0
  6  7  1  6
  8  9  2  0
  8  6  1  0
 11 10  1  0
 11 13  1  0
 12 11  2  0
 14 13  1  6
 14 15  1  0
 15  8  1  0
 16 23  1  0
 16 14  1  0
 17 16  2  0
 18 19  1  0
 19 21  1  0
 20 19  2  0
 22 21  1  6
 22 23  1  0
 22 24  1  0
 24 25  1  0
 26 24  2  0
M  END
$$$$
