QNN.pdb
     RDKit          3D

 26 25  0  0  1  0  0  0  0  0999 V2000
    8.8713  -12.1730   17.7483 N   0  0  0  0  0  0  0  0  0  0  0  0
    7.8695  -13.1174   17.4531 C   0  0  0  0  0  0  0  0  0  0  0  0
    7.7179  -13.5069   16.2798 O   0  0  0  0  0  0  0  0  0  0  0  0
    6.9988  -13.6504   18.5155 C   0  0  0  0  0  0  0  0  0  0  0  0
    7.7316  -14.2334   19.6855 C   0  0  0  0  0  0  0  0  0  0  0  0
    8.6773  -15.3285   19.3268 C   0  0  2  0  0  0  0  0  0  0  0  0
    7.9994  -16.4353   18.6643 N   0  0  0  0  0  0  0  0  0  0  0  0
    9.2495  -15.8832   20.6026 C   0  0  0  0  0  0  0  0  0  0  0  0
    9.6217  -15.0301   21.4549 O   0  0  0  0  0  0  0  0  0  0  0  0
    7.8083  -20.3431   21.0585 N   0  0  0  0  0  0  0  0  0  0  0  0
    8.2854  -19.5519   22.1448 C   0  0  0  0  0  0  0  0  0  0  0  0
    7.4391  -19.1428   22.9768 O   0  0  0  0  0  0  0  0  0  0  0  0
    9.7368  -19.2291   22.2768 C   0  0  0  0  0  0  0  0  0  0  0  0
   10.0391  -17.7747   21.9971 C   0  0  2  0  0  0  0  0  0  0  0  0
    9.3651  -17.2679   20.8357 N   0  0  0  0  0  0  0  0  0  0  0  0
   11.5122  -17.5550   21.9162 C   0  0  0  0  0  0  0  0  0  0  0  0
   12.2582  -18.2949   21.2311 O   0  0  0  0  0  0  0  0  0  0  0  0
   14.8137  -14.1429   19.8955 N   0  0  0  0  0  0  0  0  0  0  0  0
   13.7772  -14.6379   20.7290 C   0  0  0  0  0  0  0  0  0  0  0  0
   12.6588  -14.8700   20.2129 O   0  0  0  0  0  0  0  0  0  0  0  0
   13.9823  -14.8790   22.1695 C   0  0  0  0  0  0  0  0  0  0  0  0
   13.5478  -16.2452   22.6150 C   0  0  2  0  0  0  0  0  0  0  0  0
   12.1394  -16.4741   22.6302 N   0  0  0  0  0  0  0  0  0  0  0  0
   14.1880  -16.6137   23.9268 C   0  0  0  0  0  0  0  0  0  0  0  0
   13.4417  -16.8099   25.0773 O   0  0  0  0  0  0  0  0  0  0  0  0
   15.4269  -16.7584   24.0342 O   0  0  0  0  0  0  0  0  0  0  0  0
  2  3  2  0
  2  1  1  0
  4  2  1  0
  5  4  1  0
  6  5  1  0
  6  7  1  1
  8  9  2  0
  8  6  1  0
 11 10  1  0
 11 13  1  0
 12 11  2  0
 14 13  1  6
 14 15  1  0
 15  8  1  0
 16 23  1  0
 16 14  1  0
 17 16  2  0
 18 19  1  0
 19 21  1  0
 20 19  2  0
 22 21  1  1
 22 23  1  0
 22 24  1  0
 24 25  1  0
 26 24  2  0
M  END
$$$$
