QNN.pdb
     RDKit          3D

 26 25  0  0  1  0  0  0  0  0999 V2000
    8.4938  -12.4187   17.8164 N   0  0  0  0  0  0  0  0  0  0  0  0
    7.7899  -13.6276   17.9772 C   0  0  0  0  0  0  0  0  0  0  0  0
    6.7498  -13.8257   17.3213 O   0  0  0  0  0  0  0  0  0  0  0  0
    8.2693  -14.6609   18.9117 C   0  0  0  0  0  0  0  0  0  0  0  0
    9.4872  -14.2739   19.6947 C   0  0  0  0  0  0  0  0  0  0  0  0
    9.9344  -15.3054   20.6737 C   0  0  2  0  0  0  0  0  0  0  0  0
    9.3175  -16.6004   20.4169 N   0  0  0  0  0  0  0  0  0  0  0  0
    9.4729  -14.8784   22.0402 C   0  0  0  0  0  0  0  0  0  0  0  0
    9.6798  -13.6695   22.3375 O   0  0  0  0  0  0  0  0  0  0  0  0
    7.0992  -17.5947   23.5260 N   0  0  0  0  0  0  0  0  0  0  0  0
    6.5322  -16.6062   24.3833 C   0  0  0  0  0  0  0  0  0  0  0  0
    5.3307  -16.7513   24.7168 O   0  0  0  0  0  0  0  0  0  0  0  0
    7.3454  -15.4484   24.8590 C   0  0  0  0  0  0  0  0  0  0  0  0
    8.7643  -15.4786   24.3387 C   0  0  2  0  0  0  0  0  0  0  0  0
    8.8485  -15.7690   22.9357 N   0  0  0  0  0  0  0  0  0  0  0  0
    9.5949  -16.4194   25.1448 C   0  0  0  0  0  0  0  0  0  0  0  0
    9.3756  -17.6544   25.1595 O   0  0  0  0  0  0  0  0  0  0  0  0
   10.4006  -14.1509   30.2705 N   0  0  0  0  0  0  0  0  0  0  0  0
    9.6403  -15.0365   29.4633 C   0  0  0  0  0  0  0  0  0  0  0  0
    8.9270  -15.8958   30.0324 O   0  0  0  0  0  0  0  0  0  0  0  0
    9.6727  -14.9721   27.9901 C   0  0  0  0  0  0  0  0  0  0  0  0
   10.6610  -15.9181   27.3718 C   0  0  2  0  0  0  0  0  0  0  0  0
   10.6905  -15.9395   25.9452 N   0  0  0  0  0  0  0  0  0  0  0  0
   10.5171  -17.3012   27.9486 C   0  0  0  0  0  0  0  0  0  0  0  0
   10.0187  -18.3579   27.2042 O   0  0  0  0  0  0  0  0  0  0  0  0
   10.8427  -17.5561   29.1303 O   0  0  0  0  0  0  0  0  0  0  0  0
  2  3  2  0
  2  1  1  0
  4  2  1  0
  5  4  1  0
  6  5  1  0
  6  7  1  6
  8  9  2  0
  8  6  1  0
 11 10  1  0
 11 13  1  0
 12 11  2  0
 14 13  1  1
 14 15  1  0
 15  8  1  0
 16 23  1  0
 16 14  1  0
 17 16  2  0
 18 19  1  0
 19 21  1  0
 20 19  2  0
 22 21  1  6
 22 23  1  0
 22 24  1  0
 24 25  1  0
 26 24  2  0
M  END
$$$$
