QNN.pdb
     RDKit          3D

 26 25  0  0  1  0  0  0  0  0999 V2000
    8.6285  -19.0885   15.3333 N   0  0  0  0  0  0  0  0  0  0  0  0
    9.9872  -19.0611   14.9644 C   0  0  0  0  0  0  0  0  0  0  0  0
   10.3228  -19.4357   13.8249 O   0  0  0  0  0  0  0  0  0  0  0  0
   11.0162  -18.5941   15.9099 C   0  0  0  0  0  0  0  0  0  0  0  0
   10.4758  -18.0459   17.1957 C   0  0  0  0  0  0  0  0  0  0  0  0
   11.5254  -17.6578   18.1806 C   0  0  2  0  0  0  0  0  0  0  0  0
   12.4293  -18.7626   18.4736 N   0  0  0  0  0  0  0  0  0  0  0  0
   10.8415  -17.3134   19.4754 C   0  0  0  0  0  0  0  0  0  0  0  0
   10.0846  -16.3040   19.4459 O   0  0  0  0  0  0  0  0  0  0  0  0
    8.3391  -18.9662   20.3530 N   0  0  0  0  0  0  0  0  0  0  0  0
    8.6075  -19.5012   21.6473 C   0  0  0  0  0  0  0  0  0  0  0  0
    7.9232  -20.4859   22.0187 O   0  0  0  0  0  0  0  0  0  0  0  0
    9.6634  -18.9049   22.5178 C   0  0  0  0  0  0  0  0  0  0  0  0
   10.3574  -17.7281   21.8711 C   0  0  2  0  0  0  0  0  0  0  0  0
   11.0315  -18.0674   20.6502 N   0  0  0  0  0  0  0  0  0  0  0  0
   11.2784  -17.0686   22.8415 C   0  0  0  0  0  0  0  0  0  0  0  0
   10.8525  -16.4276   23.8320 O   0  0  0  0  0  0  0  0  0  0  0  0
   14.0577  -19.8063   24.7969 N   0  0  0  0  0  0  0  0  0  0  0  0
   13.9029  -18.4248   25.0824 C   0  0  0  0  0  0  0  0  0  0  0  0
   13.1660  -18.0946   26.0411 O   0  0  0  0  0  0  0  0  0  0  0  0
   14.5772  -17.3829   24.2855 C   0  0  0  0  0  0  0  0  0  0  0  0
   13.6265  -16.4871   23.5455 C   0  0  2  0  0  0  0  0  0  0  0  0
   12.7060  -17.1436   22.6748 N   0  0  0  0  0  0  0  0  0  0  0  0
   14.3653  -15.3784   22.8444 C   0  0  0  0  0  0  0  0  0  0  0  0
   15.2893  -14.5828   23.5020 O   0  0  0  0  0  0  0  0  0  0  0  0
   14.1748  -15.1270   21.6329 O   0  0  0  0  0  0  0  0  0  0  0  0
  2  3  2  0
  2  1  1  0
  4  2  1  0
  5  4  1  0
  6  5  1  0
  6  7  1  1
  8  9  2  0
  8  6  1  0
 11 10  1  0
 11 13  1  0
 12 11  2  0
 14 13  1  1
 14 15  1  0
 15  8  1  0
 16 23  1  0
 16 14  1  0
 17 16  2  0
 18 19  1  0
 19 21  1  0
 20 19  2  0
 22 21  1  6
 22 23  1  0
 22 24  1  0
 24 25  1  0
 26 24  2  0
M  END
$$$$
