QNN.pdb
     RDKit          3D

 26 25  0  0  1  0  0  0  0  0999 V2000
    8.8638  -13.4393   16.0259 N   0  0  0  0  0  0  0  0  0  0  0  0
    7.5020  -13.4920   16.3801 C   0  0  0  0  0  0  0  0  0  0  0  0
    6.6445  -13.6907   15.4990 O   0  0  0  0  0  0  0  0  0  0  0  0
    7.0797  -13.3154   17.7806 C   0  0  0  0  0  0  0  0  0  0  0  0
    8.2044  -13.2929   18.7708 C   0  0  0  0  0  0  0  0  0  0  0  0
    8.9925  -14.5571   18.8253 C   0  0  2  0  0  0  0  0  0  0  0  0
    8.1342  -15.7253   18.9742 N   0  0  0  0  0  0  0  0  0  0  0  0
    9.8615  -14.5091   20.0522 C   0  0  0  0  0  0  0  0  0  0  0  0
   10.6238  -13.5079   20.1472 O   0  0  0  0  0  0  0  0  0  0  0  0
   10.7873  -15.4091   25.7162 N   0  0  0  0  0  0  0  0  0  0  0  0
   11.1158  -16.1439   24.5391 C   0  0  0  0  0  0  0  0  0  0  0  0
   12.2180  -16.7447   24.5218 O   0  0  0  0  0  0  0  0  0  0  0  0
   10.1778  -16.1896   23.3788 C   0  0  0  0  0  0  0  0  0  0  0  0
   10.7293  -15.4954   22.1546 C   0  0  2  0  0  0  0  0  0  0  0  0
    9.8300  -15.5170   21.0362 N   0  0  0  0  0  0  0  0  0  0  0  0
   12.0648  -16.0544   21.7958 C   0  0  0  0  0  0  0  0  0  0  0  0
   12.2335  -17.2752   21.5621 O   0  0  0  0  0  0  0  0  0  0  0  0
   13.3719  -14.8259   18.8394 N   0  0  0  0  0  0  0  0  0  0  0  0
   14.6245  -14.2860   19.2313 C   0  0  0  0  0  0  0  0  0  0  0  0
   15.1505  -13.4132   18.5015 O   0  0  0  0  0  0  0  0  0  0  0  0
   15.3137  -14.7250   20.4592 C   0  0  0  0  0  0  0  0  0  0  0  0
   14.5042  -15.6768   21.2916 C   0  0  2  0  0  0  0  0  0  0  0  0
   13.2225  -15.2043   21.7043 N   0  0  0  0  0  0  0  0  0  0  0  0
   15.3089  -16.1962   22.4530 C   0  0  0  0  0  0  0  0  0  0  0  0
   15.6412  -15.3935   23.5321 O   0  0  0  0  0  0  0  0  0  0  0  0
   15.7141  -17.3801   22.4929 O   0  0  0  0  0  0  0  0  0  0  0  0
  2  3  2  0
  2  1  1  0
  4  2  1  0
  5  4  1  0
  6  5  1  0
  6  7  1  1
  8  9  2  0
  8  6  1  0
 11 10  1  0
 11 13  1  0
 12 11  2  0
 14 13  1  1
 14 15  1  0
 15  8  1  0
 16 23  1  0
 16 14  1  0
 17 16  2  0
 18 19  1  0
 19 21  1  0
 20 19  2  0
 22 21  1  1
 22 23  1  0
 22 24  1  0
 24 25  1  0
 26 24  2  0
M  END
$$$$
