QNN.pdb
     RDKit          3D

 26 25  0  0  1  0  0  0  0  0999 V2000
    9.8856  -12.7791   19.4473 N   0  0  0  0  0  0  0  0  0  0  0  0
    8.5709  -12.7139   18.9473 C   0  0  0  0  0  0  0  0  0  0  0  0
    8.2917  -11.8889   18.0570 O   0  0  0  0  0  0  0  0  0  0  0  0
    7.5221  -13.6103   19.4643 C   0  0  0  0  0  0  0  0  0  0  0  0
    7.9889  -14.5727   20.5140 C   0  0  0  0  0  0  0  0  0  0  0  0
    8.7628  -15.7288   19.9786 C   0  0  2  0  0  0  0  0  0  0  0  0
    7.9407  -16.5887   19.1369 N   0  0  0  0  0  0  0  0  0  0  0  0
    9.2037  -16.5712   21.1442 C   0  0  0  0  0  0  0  0  0  0  0  0
    8.5141  -17.6042   21.3682 O   0  0  0  0  0  0  0  0  0  0  0  0
   13.2101  -19.3469   23.9110 N   0  0  0  0  0  0  0  0  0  0  0  0
   12.7990  -18.0072   24.1750 C   0  0  0  0  0  0  0  0  0  0  0  0
   12.8658  -17.6058   25.3626 O   0  0  0  0  0  0  0  0  0  0  0  0
   12.3099  -17.1257   23.0740 C   0  0  0  0  0  0  0  0  0  0  0  0
   10.8028  -17.1185   22.9578 C   0  0  2  0  0  0  0  0  0  0  0  0
   10.3162  -16.2319   21.9394 N   0  0  0  0  0  0  0  0  0  0  0  0
   10.1795  -16.8285   24.2815 C   0  0  0  0  0  0  0  0  0  0  0  0
   10.2125  -15.6849   24.7957 O   0  0  0  0  0  0  0  0  0  0  0  0
    6.5132  -18.0062   24.1964 N   0  0  0  0  0  0  0  0  0  0  0  0
    6.6764  -17.3823   25.4606 C   0  0  0  0  0  0  0  0  0  0  0  0
    6.0753  -16.3031   25.6731 O   0  0  0  0  0  0  0  0  0  0  0  0
    7.5281  -17.9650   26.5143 C   0  0  0  0  0  0  0  0  0  0  0  0
    8.9879  -17.6612   26.3392 C   0  0  2  0  0  0  0  0  0  0  0  0
    9.5104  -17.8622   25.0266 N   0  0  0  0  0  0  0  0  0  0  0  0
    9.8140  -18.3642   27.3832 C   0  0  0  0  0  0  0  0  0  0  0  0
   10.9396  -19.1012   27.0535 O   0  0  0  0  0  0  0  0  0  0  0  0
    9.5172  -18.3126   28.5984 O   0  0  0  0  0  0  0  0  0  0  0  0
  2  3  2  0
  2  1  1  0
  4  2  1  0
  5  4  1  0
  6  5  1  0
  6  7  1  6
  8  9  2  0
  8  6  1  0
 11 10  1  0
 11 13  1  0
 12 11  2  0
 14 13  1  1
 14 15  1  0
 15  8  1  0
 16 23  1  0
 16 14  1  0
 17 16  2  0
 18 19  1  0
 19 21  1  0
 20 19  2  0
 22 21  1  6
 22 23  1  0
 22 24  1  0
 24 25  1  0
 26 24  2  0
M  END
$$$$
