QNN.pdb
     RDKit          3D

 26 25  0  0  1  0  0  0  0  0999 V2000
   15.6856  -14.5482   16.8785 N   0  0  0  0  0  0  0  0  0  0  0  0
   15.2478  -13.8978   18.0481 C   0  0  0  0  0  0  0  0  0  0  0  0
   16.0842  -13.3968   18.8232 O   0  0  0  0  0  0  0  0  0  0  0  0
   13.8122  -13.8027   18.3658 C   0  0  0  0  0  0  0  0  0  0  0  0
   13.2294  -15.0369   18.9848 C   0  0  0  0  0  0  0  0  0  0  0  0
   11.8804  -15.3997   18.4645 C   0  0  2  0  0  0  0  0  0  0  0  0
   11.3814  -14.4126   17.5158 N   0  0  0  0  0  0  0  0  0  0  0  0
   10.9210  -15.3986   19.6231 C   0  0  0  0  0  0  0  0  0  0  0  0
    9.7815  -14.9076   19.3928 O   0  0  0  0  0  0  0  0  0  0  0  0
    8.7160  -18.7893   20.0866 N   0  0  0  0  0  0  0  0  0  0  0  0
    9.0863  -18.1532   21.3080 C   0  0  0  0  0  0  0  0  0  0  0  0
    9.4870  -18.8879   22.2436 O   0  0  0  0  0  0  0  0  0  0  0  0
    8.9965  -16.6706   21.4565 C   0  0  0  0  0  0  0  0  0  0  0  0
   10.2917  -16.0518   21.9302 C   0  0  2  0  0  0  0  0  0  0  0  0
   11.2687  -15.9120   20.8881 N   0  0  0  0  0  0  0  0  0  0  0  0
   10.8357  -16.8090   23.0945 C   0  0  0  0  0  0  0  0  0  0  0  0
   11.2716  -17.9797   22.9812 O   0  0  0  0  0  0  0  0  0  0  0  0
    7.4416  -15.6595   26.2400 N   0  0  0  0  0  0  0  0  0  0  0  0
    8.7874  -15.9432   26.5898 C   0  0  0  0  0  0  0  0  0  0  0  0
    9.4188  -15.0943   27.2619 O   0  0  0  0  0  0  0  0  0  0  0  0
    9.4520  -17.1955   26.1830 C   0  0  0  0  0  0  0  0  0  0  0  0
   10.8227  -16.9854   25.6077 C   0  0  2  0  0  0  0  0  0  0  0  0
   10.8802  -16.2180   24.4060 N   0  0  0  0  0  0  0  0  0  0  0  0
   11.5566  -18.2928   25.4715 C   0  0  0  0  0  0  0  0  0  0  0  0
   12.7929  -18.5043   26.0596 O   0  0  0  0  0  0  0  0  0  0  0  0
   11.0790  -19.2480   24.8181 O   0  0  0  0  0  0  0  0  0  0  0  0
  2  3  2  0
  2  1  1  0
  4  2  1  0
  5  4  1  0
  6  5  1  0
  6  7  1  6
  8  9  2  0
  8  6  1  0
 11 10  1  0
 11 13  1  0
 12 11  2  0
 14 13  1  6
 14 15  1  0
 15  8  1  0
 16 23  1  0
 16 14  1  0
 17 16  2  0
 18 19  1  0
 19 21  1  0
 20 19  2  0
 22 21  1  6
 22 23  1  0
 22 24  1  0
 24 25  1  0
 26 24  2  0
M  END
$$$$
