QNN.pdb
     RDKit          3D

 26 25  0  0  1  0  0  0  0  0999 V2000
    7.7122  -12.5290   17.4414 N   0  0  0  0  0  0  0  0  0  0  0  0
    7.9449  -13.7606   16.7995 C   0  0  0  0  0  0  0  0  0  0  0  0
    7.6295  -13.8997   15.6027 O   0  0  0  0  0  0  0  0  0  0  0  0
    8.5574  -14.8862   17.5268 C   0  0  0  0  0  0  0  0  0  0  0  0
    8.8448  -14.6099   18.9714 C   0  0  0  0  0  0  0  0  0  0  0  0
    9.5294  -15.7285   19.6803 C   0  0  2  0  0  0  0  0  0  0  0  0
    8.9062  -17.0142   19.3939 N   0  0  0  0  0  0  0  0  0  0  0  0
    9.3766  -15.5023   21.1596 C   0  0  0  0  0  0  0  0  0  0  0  0
    9.9107  -14.4528   21.6134 O   0  0  0  0  0  0  0  0  0  0  0  0
    6.6044  -17.4213   26.3879 N   0  0  0  0  0  0  0  0  0  0  0  0
    7.2669  -16.5285   25.4948 C   0  0  0  0  0  0  0  0  0  0  0  0
    7.7247  -15.4635   25.9766 O   0  0  0  0  0  0  0  0  0  0  0  0
    7.4046  -16.8583   24.0455 C   0  0  0  0  0  0  0  0  0  0  0  0
    8.6106  -16.2050   23.4102 C   0  0  2  0  0  0  0  0  0  0  0  0
    8.6817  -16.4033   21.9905 N   0  0  0  0  0  0  0  0  0  0  0  0
    9.8620  -16.6487   24.0897 C   0  0  0  0  0  0  0  0  0  0  0  0
   10.8932  -15.9350   24.1162 O   0  0  0  0  0  0  0  0  0  0  0  0
   12.8827  -19.1937   23.3498 N   0  0  0  0  0  0  0  0  0  0  0  0
   13.2169  -18.0552   24.1284 C   0  0  0  0  0  0  0  0  0  0  0  0
   14.2904  -17.4583   23.8787 O   0  0  0  0  0  0  0  0  0  0  0  0
   12.3436  -17.5671   25.2121 C   0  0  0  0  0  0  0  0  0  0  0  0
   11.1087  -18.3988   25.4053 C   0  0  2  0  0  0  0  0  0  0  0  0
    9.9338  -17.9272   24.7468 N   0  0  0  0  0  0  0  0  0  0  0  0
   10.8615  -18.6659   26.8661 C   0  0  0  0  0  0  0  0  0  0  0  0
    9.6260  -18.4459   27.4529 O   0  0  0  0  0  0  0  0  0  0  0  0
   11.7657  -19.0995   27.6157 O   0  0  0  0  0  0  0  0  0  0  0  0
  2  3  2  0
  2  1  1  0
  4  2  1  0
  5  4  1  0
  6  5  1  0
  6  7  1  6
  8  9  2  0
  8  6  1  0
 11 10  1  0
 11 13  1  0
 12 11  2  0
 14 13  1  1
 14 15  1  0
 15  8  1  0
 16 23  1  0
 16 14  1  0
 17 16  2  0
 18 19  1  0
 19 21  1  0
 20 19  2  0
 22 21  1  1
 22 23  1  0
 22 24  1  0
 24 25  1  0
 26 24  2  0
M  END
$$$$
