FGI.pdb
     RDKit          3D

 24 24  0  0  1  0  0  0  0  0999 V2000
   24.3987  -19.9952  -15.0697 N   0  0  0  0  0  0  0  0  0  0  0  0
   24.2526  -20.2731  -13.6720 C   0  0  1  0  0  0  0  0  0  0  0  0
   23.3421  -21.4654  -13.5088 C   0  0  0  0  0  0  0  0  0  0  0  0
   21.9895  -21.0652  -13.9758 C   0  0  0  0  0  0  0  0  0  0  0  0
   21.4898  -21.4680  -15.1847 C   0  0  0  0  0  0  0  0  0  0  0  0
   20.2165  -21.0653  -15.5754 C   0  0  0  0  0  0  0  0  0  0  0  0
   19.4265  -20.2661  -14.7839 C   0  0  0  0  0  0  0  0  0  0  0  0
   19.9309  -19.8620  -13.5684 C   0  0  0  0  0  0  0  0  0  0  0  0
   21.2070  -20.2629  -13.1716 C   0  0  0  0  0  0  0  0  0  0  0  0
   25.5850  -20.5311  -13.0391 C   0  0  0  0  0  0  0  0  0  0  0  0
   26.3818  -21.3167  -13.6198 O   0  0  0  0  0  0  0  0  0  0  0  0
   25.9644  -19.9201  -11.8185 N   0  0  0  0  0  0  0  0  0  0  0  0
   27.2418  -20.1936  -11.2202 C   0  0  0  0  0  0  0  0  0  0  0  0
   27.1112  -20.8588   -9.8989 C   0  0  0  0  0  0  0  0  0  0  0  0
   26.8066  -22.0759   -9.8213 O   0  0  0  0  0  0  0  0  0  0  0  0
   28.7226  -19.1596   -4.2347 C   0  0  0  0  0  0  0  0  0  0  0  0
   27.6434  -19.7848   -5.1200 C   0  0  0  0  0  0  0  0  0  0  0  0
   28.2147  -20.1238   -6.4603 C   0  0  2  0  0  0  0  0  0  0  0  0
   28.7838  -18.8697   -7.1103 C   0  0  0  0  0  0  0  0  0  0  0  0
   27.2267  -20.7960   -7.3797 C   0  0  2  0  0  0  0  0  0  0  0  0
   27.3255  -20.1435   -8.6917 N   0  0  0  0  0  0  0  0  0  0  0  0
   25.8321  -20.7567   -6.9070 C   0  0  0  0  0  0  0  0  0  0  0  0
   25.3148  -21.5942   -5.9526 O   0  0  0  0  0  0  0  0  0  0  0  0
   25.0255  -19.8966   -7.4007 O   0  0  0  0  0  0  0  0  0  0  0  0
  2 10  1  0
  2  1  1  6
  3  2  1  0
  4  3  1  0
  5  4  2  0
  6  5  1  0
  7  6  2  0
  7  8  1  0
  8  9  2  0
  9  4  1  0
 10 12  1  0
 11 10  2  0
 12 13  1  0
 14 21  1  0
 14 13  1  0
 15 14  2  0
 17 16  1  0
 18 19  1  6
 18 17  1  0
 20 21  1  6
 20 18  1  0
 22 23  1  0
 22 20  1  0
 24 22  2  0
M  END
$$$$
