FGI.pdb
     RDKit          3D

 24 24  0  0  1  0  0  0  0  0999 V2000
   26.9384  -18.5819   -7.9441 N   0  0  0  0  0  0  0  0  0  0  0  0
   27.2429  -19.9807   -7.8911 C   0  0  1  0  0  0  0  0  0  0  0  0
   26.9241  -20.4927   -6.5078 C   0  0  0  0  0  0  0  0  0  0  0  0
   27.8952  -19.8778   -5.5661 C   0  0  0  0  0  0  0  0  0  0  0  0
   29.2407  -20.1116   -5.6551 C   0  0  0  0  0  0  0  0  0  0  0  0
   30.1084  -19.5110   -4.7480 C   0  0  0  0  0  0  0  0  0  0  0  0
   29.6621  -18.6784   -3.7496 C   0  0  0  0  0  0  0  0  0  0  0  0
   28.3083  -18.4445   -3.6618 C   0  0  0  0  0  0  0  0  0  0  0  0
   27.4339  -19.0441   -4.5687 C   0  0  0  0  0  0  0  0  0  0  0  0
   26.4678  -20.7333   -8.9281 C   0  0  0  0  0  0  0  0  0  0  0  0
   25.9451  -21.8338   -8.6036 O   0  0  0  0  0  0  0  0  0  0  0  0
   26.3112  -20.2424  -10.2477 N   0  0  0  0  0  0  0  0  0  0  0  0
   25.6199  -21.0111  -11.2457 C   0  0  0  0  0  0  0  0  0  0  0  0
   24.2719  -20.4627  -11.5416 C   0  0  0  0  0  0  0  0  0  0  0  0
   23.7824  -19.5474  -10.8327 O   0  0  0  0  0  0  0  0  0  0  0  0
   21.6232  -18.6351  -16.4782 C   0  0  0  0  0  0  0  0  0  0  0  0
   21.3131  -19.0807  -15.0483 C   0  0  0  0  0  0  0  0  0  0  0  0
   22.4497  -19.8885  -14.5067 C   0  0  2  0  0  0  0  0  0  0  0  0
   22.6687  -21.1187  -15.3774 C   0  0  0  0  0  0  0  0  0  0  0  0
   22.2679  -20.2856  -13.0636 C   0  0  2  0  0  0  0  0  0  0  0  0
   23.5011  -20.9536  -12.6278 N   0  0  0  0  0  0  0  0  0  0  0  0
   21.1111  -21.1630  -12.8155 C   0  0  0  0  0  0  0  0  0  0  0  0
   21.1647  -22.5331  -12.8175 O   0  0  0  0  0  0  0  0  0  0  0  0
   19.9671  -20.6431  -12.5804 O   0  0  0  0  0  0  0  0  0  0  0  0
  2 10  1  0
  2  1  1  1
  3  2  1  0
  4  3  1  0
  5  4  2  0
  6  5  1  0
  7  6  2  0
  7  8  1  0
  8  9  2  0
  9  4  1  0
 10 12  1  0
 11 10  2  0
 12 13  1  0
 14 21  1  0
 14 13  1  0
 15 14  2  0
 17 16  1  0
 18 19  1  6
 18 17  1  0
 20 21  1  6
 20 18  1  0
 22 23  1  0
 22 20  1  0
 24 22  2  0
M  END
$$$$
