FGI.pdb
     RDKit          3D

 24 24  0  0  1  0  0  0  0  0999 V2000
   22.4991  -21.3462  -13.0362 N   0  0  0  0  0  0  0  0  0  0  0  0
   23.5054  -20.3469  -13.2379 C   0  0  1  0  0  0  0  0  0  0  0  0
   22.9007  -19.2014  -14.0122 C   0  0  0  0  0  0  0  0  0  0  0  0
   22.6274  -19.6851  -15.3903 C   0  0  0  0  0  0  0  0  0  0  0  0
   23.6341  -19.9890  -16.2663 C   0  0  0  0  0  0  0  0  0  0  0  0
   23.3247  -20.4384  -17.5463 C   0  0  0  0  0  0  0  0  0  0  0  0
   22.0277  -20.5922  -17.9744 C   0  0  0  0  0  0  0  0  0  0  0  0
   21.0165  -20.2860  -17.0918 C   0  0  0  0  0  0  0  0  0  0  0  0
   21.3211  -19.8349  -15.8072 C   0  0  0  0  0  0  0  0  0  0  0  0
   24.0535  -19.8722  -11.9277 C   0  0  0  0  0  0  0  0  0  0  0  0
   23.2420  -19.6028  -11.0013 O   0  0  0  0  0  0  0  0  0  0  0  0
   25.4451  -19.7212  -11.7095 N   0  0  0  0  0  0  0  0  0  0  0  0
   25.9436  -19.1125  -10.5071 C   0  0  0  0  0  0  0  0  0  0  0  0
   26.2193  -20.1130   -9.4449 C   0  0  0  0  0  0  0  0  0  0  0  0
   26.2330  -21.3417   -9.7096 O   0  0  0  0  0  0  0  0  0  0  0  0
   29.5762  -18.5872   -5.4275 C   0  0  0  0  0  0  0  0  0  0  0  0
   28.8695  -19.3736   -6.5328 C   0  0  0  0  0  0  0  0  0  0  0  0
   27.6058  -19.9750   -6.0045 C   0  0  2  0  0  0  0  0  0  0  0  0
   27.9254  -20.9125   -4.8477 C   0  0  0  0  0  0  0  0  0  0  0  0
   26.7964  -20.6885   -7.0575 C   0  0  2  0  0  0  0  0  0  0  0  0
   26.4739  -19.7130   -8.1069 N   0  0  0  0  0  0  0  0  0  0  0  0
   25.5581  -21.3088   -6.5559 C   0  0  0  0  0  0  0  0  0  0  0  0
   25.4763  -22.5871   -6.0667 O   0  0  0  0  0  0  0  0  0  0  0  0
   24.4705  -20.6370   -6.5649 O   0  0  0  0  0  0  0  0  0  0  0  0
  2 10  1  0
  2  1  1  1
  3  2  1  0
  4  3  1  0
  5  4  2  0
  6  5  1  0
  7  6  2  0
  7  8  1  0
  8  9  2  0
  9  4  1  0
 10 12  1  0
 11 10  2  0
 12 13  1  0
 14 21  1  0
 14 13  1  0
 15 14  2  0
 17 16  1  0
 18 19  1  1
 18 17  1  0
 20 21  1  6
 20 18  1  0
 22 23  1  0
 22 20  1  0
 24 22  2  0
M  END
$$$$
