FGI.pdb
     RDKit          3D

 24 24  0  0  1  0  0  0  0  0999 V2000
   26.2574  -21.5562   -7.7218 N   0  0  0  0  0  0  0  0  0  0  0  0
   26.4612  -20.2758   -8.3309 C   0  0  1  0  0  0  0  0  0  0  0  0
   27.9132  -19.8937   -8.1788 C   0  0  0  0  0  0  0  0  0  0  0  0
   28.1784  -19.7035   -6.7292 C   0  0  0  0  0  0  0  0  0  0  0  0
   28.9811  -20.5552   -6.0198 C   0  0  0  0  0  0  0  0  0  0  0  0
   29.1976  -20.3327   -4.6634 C   0  0  0  0  0  0  0  0  0  0  0  0
   28.6287  -19.2747   -3.9954 C   0  0  0  0  0  0  0  0  0  0  0  0
   27.8216  -18.4190   -4.7107 C   0  0  0  0  0  0  0  0  0  0  0  0
   27.6012  -18.6376   -6.0710 C   0  0  0  0  0  0  0  0  0  0  0  0
   26.0679  -20.3055   -9.7755 C   0  0  0  0  0  0  0  0  0  0  0  0
   26.1242  -19.2317  -10.4337 O   0  0  0  0  0  0  0  0  0  0  0  0
   25.6397  -21.4976  -10.4100 N   0  0  0  0  0  0  0  0  0  0  0  0
   25.1730  -21.4856  -11.7689 C   0  0  0  0  0  0  0  0  0  0  0  0
   23.7394  -21.1103  -11.8661 C   0  0  0  0  0  0  0  0  0  0  0  0
   23.0191  -21.0589  -10.8373 O   0  0  0  0  0  0  0  0  0  0  0  0
   20.6581  -17.6971  -12.7573 C   0  0  0  0  0  0  0  0  0  0  0  0
   21.7289  -17.9072  -13.8290 C   0  0  0  0  0  0  0  0  0  0  0  0
   21.6880  -19.3186  -14.3228 C   0  0  2  0  0  0  0  0  0  0  0  0
   20.4449  -19.5302  -15.1767 C   0  0  0  0  0  0  0  0  0  0  0  0
   21.7526  -20.3418  -13.2173 C   0  0  2  0  0  0  0  0  0  0  0  0
   23.1442  -20.8003  -13.1170 N   0  0  0  0  0  0  0  0  0  0  0  0
   20.8592  -21.4977  -13.4056 C   0  0  0  0  0  0  0  0  0  0  0  0
   21.2363  -22.6803  -13.9881 O   0  0  0  0  0  0  0  0  0  0  0  0
   19.6454  -21.4244  -13.0112 O   0  0  0  0  0  0  0  0  0  0  0  0
  2 10  1  0
  2  1  1  6
  3  2  1  0
  4  3  1  0
  5  4  2  0
  6  5  1  0
  7  6  2  0
  7  8  1  0
  8  9  2  0
  9  4  1  0
 10 12  1  0
 11 10  2  0
 12 13  1  0
 14 21  1  0
 14 13  1  0
 15 14  2  0
 17 16  1  0
 18 19  1  1
 18 17  1  0
 20 21  1  6
 20 18  1  0
 22 23  1  0
 22 20  1  0
 24 22  2  0
M  END
$$$$
