FGI.pdb
     RDKit          3D

 24 24  0  0  1  0  0  0  0  0999 V2000
   23.5603  -21.5986  -12.9201 N   0  0  0  0  0  0  0  0  0  0  0  0
   24.2082  -20.4967  -13.5667 C   0  0  1  0  0  0  0  0  0  0  0  0
   23.2011  -19.3895  -13.7597 C   0  0  0  0  0  0  0  0  0  0  0  0
   22.1173  -19.9145  -14.6302 C   0  0  0  0  0  0  0  0  0  0  0  0
   22.3205  -20.1938  -15.9545 C   0  0  0  0  0  0  0  0  0  0  0  0
   21.2718  -20.6839  -16.7266 C   0  0  0  0  0  0  0  0  0  0  0  0
   20.0191  -20.9028  -16.2052 C   0  0  0  0  0  0  0  0  0  0  0  0
   19.8167  -20.6212  -14.8729 C   0  0  0  0  0  0  0  0  0  0  0  0
   20.8647  -20.1295  -14.0941 C   0  0  0  0  0  0  0  0  0  0  0  0
   25.3758  -20.0186  -12.7602 C   0  0  0  0  0  0  0  0  0  0  0  0
   26.0840  -19.0856  -13.2266 O   0  0  0  0  0  0  0  0  0  0  0  0
   25.6976  -20.5840  -11.5018 N   0  0  0  0  0  0  0  0  0  0  0  0
   26.8281  -20.1164  -10.7481 C   0  0  0  0  0  0  0  0  0  0  0  0
   26.9064  -20.7466   -9.4057 C   0  0  0  0  0  0  0  0  0  0  0  0
   26.8471  -21.9958   -9.2795 O   0  0  0  0  0  0  0  0  0  0  0  0
   29.6246  -18.0224   -5.5045 C   0  0  0  0  0  0  0  0  0  0  0  0
   29.0835  -19.0973   -6.4486 C   0  0  0  0  0  0  0  0  0  0  0  0
   27.7509  -19.5768   -5.9670 C   0  0  2  0  0  0  0  0  0  0  0  0
   27.8887  -20.1632   -4.5683 C   0  0  0  0  0  0  0  0  0  0  0  0
   27.1001  -20.5695   -6.8967 C   0  0  2  0  0  0  0  0  0  0  0  0
   27.0498  -19.9608   -8.2323 N   0  0  0  0  0  0  0  0  0  0  0  0
   25.7483  -20.9889   -6.4887 C   0  0  0  0  0  0  0  0  0  0  0  0
   25.4676  -22.1546   -5.8235 O   0  0  0  0  0  0  0  0  0  0  0  0
   24.7493  -20.2384   -6.7590 O   0  0  0  0  0  0  0  0  0  0  0  0
  2 10  1  0
  2  1  1  1
  3  2  1  0
  4  3  1  0
  5  4  2  0
  6  5  1  0
  7  6  2  0
  7  8  1  0
  8  9  2  0
  9  4  1  0
 10 12  1  0
 11 10  2  0
 12 13  1  0
 14 21  1  0
 14 13  1  0
 15 14  2  0
 17 16  1  0
 18 19  1  1
 18 17  1  0
 20 21  1  6
 20 18  1  0
 22 23  1  0
 22 20  1  0
 24 22  2  0
M  END
$$$$
