FGI.pdb
     RDKit          3D

 24 24  0  0  1  0  0  0  0  0999 V2000
   24.9169  -22.1379  -14.6926 N   0  0  0  0  0  0  0  0  0  0  0  0
   24.9990  -21.0876  -13.7219 C   0  0  1  0  0  0  0  0  0  0  0  0
   23.7286  -21.0816  -12.9075 C   0  0  0  0  0  0  0  0  0  0  0  0
   22.6659  -20.4568  -13.7372 C   0  0  0  0  0  0  0  0  0  0  0  0
   22.6581  -19.1176  -14.0194 C   0  0  0  0  0  0  0  0  0  0  0  0
   21.6396  -18.5817  -14.8016 C   0  0  0  0  0  0  0  0  0  0  0  0
   20.6239  -19.3550  -15.3109 C   0  0  0  0  0  0  0  0  0  0  0  0
   20.6335  -20.7018  -15.0259 C   0  0  0  0  0  0  0  0  0  0  0  0
   21.6524  -21.2444  -14.2422 C   0  0  0  0  0  0  0  0  0  0  0  0
   26.1950  -21.2712  -12.8397 C   0  0  0  0  0  0  0  0  0  0  0  0
   26.7426  -22.4062  -12.8017 O   0  0  0  0  0  0  0  0  0  0  0  0
   26.7176  -20.2118  -12.0576 N   0  0  0  0  0  0  0  0  0  0  0  0
   27.8663  -20.4096  -11.2174 C   0  0  0  0  0  0  0  0  0  0  0  0
   27.4983  -20.9411   -9.8804 C   0  0  0  0  0  0  0  0  0  0  0  0
   26.9498  -22.0664   -9.7667 O   0  0  0  0  0  0  0  0  0  0  0  0
   29.2190  -19.8540   -4.0793 C   0  0  0  0  0  0  0  0  0  0  0  0
   28.2422  -20.5902   -4.9976 C   0  0  0  0  0  0  0  0  0  0  0  0
   28.2589  -19.9743   -6.3607 C   0  0  2  0  0  0  0  0  0  0  0  0
   27.8124  -18.5209   -6.2752 C   0  0  0  0  0  0  0  0  0  0  0  0
   27.4266  -20.7266   -7.3679 C   0  0  2  0  0  0  0  0  0  0  0  0
   27.7537  -20.1977   -8.6984 N   0  0  0  0  0  0  0  0  0  0  0  0
   25.9737  -20.6416   -7.1410 C   0  0  0  0  0  0  0  0  0  0  0  0
   25.1041  -19.9507   -7.9450 O   0  0  0  0  0  0  0  0  0  0  0  0
   25.4588  -21.2402   -6.1356 O   0  0  0  0  0  0  0  0  0  0  0  0
  2 10  1  0
  2  1  1  6
  3  2  1  0
  4  3  1  0
  5  4  2  0
  6  5  1  0
  7  6  2  0
  7  8  1  0
  8  9  2  0
  9  4  1  0
 10 12  1  0
 11 10  2  0
 12 13  1  0
 14 21  1  0
 14 13  1  0
 15 14  2  0
 17 16  1  0
 18 19  1  1
 18 17  1  0
 20 21  1  6
 20 18  1  0
 22 23  1  0
 22 20  1  0
 24 22  2  0
M  END
$$$$
