FGI.pdb
     RDKit          3D

 24 24  0  0  1  0  0  0  0  0999 V2000
   28.1978  -20.5635   -8.8609 N   0  0  0  0  0  0  0  0  0  0  0  0
   26.9128  -20.8352   -8.2890 C   0  0  1  0  0  0  0  0  0  0  0  0
   26.4761  -19.6329   -7.4883 C   0  0  0  0  0  0  0  0  0  0  0  0
   27.4347  -19.4688   -6.3650 C   0  0  0  0  0  0  0  0  0  0  0  0
   27.4659  -20.3335   -5.3046 C   0  0  0  0  0  0  0  0  0  0  0  0
   28.3835  -20.1353   -4.2774 C   0  0  0  0  0  0  0  0  0  0  0  0
   29.2749  -19.0891   -4.2842 C   0  0  0  0  0  0  0  0  0  0  0  0
   29.2420  -18.2204   -5.3517 C   0  0  0  0  0  0  0  0  0  0  0  0
   28.3239  -18.4145   -6.3842 C   0  0  0  0  0  0  0  0  0  0  0  0
   25.9125  -21.1549   -9.3565 C   0  0  0  0  0  0  0  0  0  0  0  0
   24.7358  -21.4433   -9.0077 O   0  0  0  0  0  0  0  0  0  0  0  0
   26.2548  -21.1405  -10.7311 N   0  0  0  0  0  0  0  0  0  0  0  0
   25.3312  -21.6067  -11.7283 C   0  0  0  0  0  0  0  0  0  0  0  0
   24.2071  -20.6592  -11.9381 C   0  0  0  0  0  0  0  0  0  0  0  0
   24.2283  -19.5146  -11.4192 O   0  0  0  0  0  0  0  0  0  0  0  0
   21.0766  -21.1163  -16.5635 C   0  0  0  0  0  0  0  0  0  0  0  0
   21.3348  -21.2982  -15.0669 C   0  0  0  0  0  0  0  0  0  0  0  0
   21.7678  -20.0006  -14.4614 C   0  0  2  0  0  0  0  0  0  0  0  0
   23.0271  -19.5018  -15.1574 C   0  0  0  0  0  0  0  0  0  0  0  0
   21.9804  -20.0769  -12.9707 C   0  0  2  0  0  0  0  0  0  0  0  0
   23.0821  -21.0168  -12.7265 N   0  0  0  0  0  0  0  0  0  0  0  0
   20.7914  -20.4932  -12.2074 C   0  0  0  0  0  0  0  0  0  0  0  0
   19.7857  -19.6461  -11.8189 O   0  0  0  0  0  0  0  0  0  0  0  0
   20.6596  -21.7189  -11.8688 O   0  0  0  0  0  0  0  0  0  0  0  0
  2 10  1  0
  2  1  1  6
  3  2  1  0
  4  3  1  0
  5  4  2  0
  6  5  1  0
  7  6  2  0
  7  8  1  0
  8  9  2  0
  9  4  1  0
 10 12  1  0
 11 10  2  0
 12 13  1  0
 14 21  1  0
 14 13  1  0
 15 14  2  0
 17 16  1  0
 18 19  1  6
 18 17  1  0
 20 21  1  6
 20 18  1  0
 22 23  1  0
 22 20  1  0
 24 22  2  0
M  END
$$$$
