FGI.pdb
     RDKit          3D

 24 24  0  0  1  0  0  0  0  0999 V2000
   24.8978  -21.1284  -13.7947 N   0  0  0  0  0  0  0  0  0  0  0  0
   24.7736  -20.6785  -12.4403 C   0  0  1  0  0  0  0  0  0  0  0  0
   23.5455  -21.3101  -11.8319 C   0  0  0  0  0  0  0  0  0  0  0  0
   22.3718  -20.8701  -12.6298 C   0  0  0  0  0  0  0  0  0  0  0  0
   21.9583  -19.5657  -12.6547 C   0  0  0  0  0  0  0  0  0  0  0  0
   20.8524  -19.2053  -13.4185 C   0  0  0  0  0  0  0  0  0  0  0  0
   20.1463  -20.1210  -14.1615 C   0  0  0  0  0  0  0  0  0  0  0  0
   20.5638  -21.4326  -14.1352 C   0  0  0  0  0  0  0  0  0  0  0  0
   21.6720  -21.7994  -13.3710 C   0  0  0  0  0  0  0  0  0  0  0  0
   25.9972  -21.0265  -11.6502 C   0  0  0  0  0  0  0  0  0  0  0  0
   26.9950  -21.4912  -12.2649 O   0  0  0  0  0  0  0  0  0  0  0  0
   26.0571  -20.8473  -10.2461 N   0  0  0  0  0  0  0  0  0  0  0  0
   27.3121  -20.6291   -9.5812 C   0  0  0  0  0  0  0  0  0  0  0  0
   27.1468  -20.4504   -8.1163 C   0  0  0  0  0  0  0  0  0  0  0  0
   26.0027  -20.3249   -7.6109 O   0  0  0  0  0  0  0  0  0  0  0  0
   31.6096  -21.4626   -5.0318 C   0  0  0  0  0  0  0  0  0  0  0  0
   30.1372  -21.5001   -5.4440 C   0  0  0  0  0  0  0  0  0  0  0  0
   29.5050  -20.1658   -5.2039 C   0  0  2  0  0  0  0  0  0  0  0  0
   29.4286  -19.8933   -3.7075 C   0  0  0  0  0  0  0  0  0  0  0  0
   28.1448  -20.0247   -5.8389 C   0  0  2  0  0  0  0  0  0  0  0  0
   28.2699  -20.4163   -7.2488 N   0  0  0  0  0  0  0  0  0  0  0  0
   27.5678  -18.6726   -5.7462 C   0  0  0  0  0  0  0  0  0  0  0  0
   27.5362  -17.7724   -6.7800 O   0  0  0  0  0  0  0  0  0  0  0  0
   27.0556  -18.2824   -4.6419 O   0  0  0  0  0  0  0  0  0  0  0  0
  2 10  1  0
  2  1  1  6
  3  2  1  0
  4  3  1  0
  5  4  2  0
  6  5  1  0
  7  6  2  0
  7  8  1  0
  8  9  2  0
  9  4  1  0
 10 12  1  0
 11 10  2  0
 12 13  1  0
 14 21  1  0
 14 13  1  0
 15 14  2  0
 17 16  1  0
 18 19  1  1
 18 17  1  0
 20 21  1  6
 20 18  1  0
 22 23  1  0
 22 20  1  0
 24 22  2  0
M  END
$$$$
