FGI.pdb
     RDKit          3D

 24 24  0  0  1  0  0  0  0  0999 V2000
   25.9776  -20.0094  -16.6182 N   0  0  0  0  0  0  0  0  0  0  0  0
   25.9066  -19.6213  -15.2411 C   0  0  1  0  0  0  0  0  0  0  0  0
   24.5351  -19.9632  -14.7126 C   0  0  0  0  0  0  0  0  0  0  0  0
   23.5568  -19.0770  -15.3949 C   0  0  0  0  0  0  0  0  0  0  0  0
   23.3595  -17.7791  -15.0080 C   0  0  0  0  0  0  0  0  0  0  0  0
   22.4308  -16.9906  -15.6803 C   0  0  0  0  0  0  0  0  0  0  0  0
   21.6909  -17.4697  -16.7349 C   0  0  0  0  0  0  0  0  0  0  0  0
   21.8907  -18.7755  -17.1226 C   0  0  0  0  0  0  0  0  0  0  0  0
   22.8207  -19.5705  -16.4519 C   0  0  0  0  0  0  0  0  0  0  0  0
   26.9707  -20.3058  -14.4402 C   0  0  0  0  0  0  0  0  0  0  0  0
   27.2995  -21.4799  -14.7609 O   0  0  0  0  0  0  0  0  0  0  0  0
   27.6073  -19.6715  -13.3450 N   0  0  0  0  0  0  0  0  0  0  0  0
   28.5126  -20.3950  -12.4955 C   0  0  0  0  0  0  0  0  0  0  0  0
   27.8169  -21.0329  -11.3490 C   0  0  0  0  0  0  0  0  0  0  0  0
   27.6568  -22.2790  -11.3091 O   0  0  0  0  0  0  0  0  0  0  0  0
   28.3577  -18.7188   -6.5352 C   0  0  0  0  0  0  0  0  0  0  0  0
   28.2227  -19.7978   -7.6108 C   0  0  0  0  0  0  0  0  0  0  0  0
   26.7797  -20.0118   -7.9419 C   0  0  2  0  0  0  0  0  0  0  0  0
   26.0572  -20.6046   -6.7395 C   0  0  0  0  0  0  0  0  0  0  0  0
   26.5665  -20.8684   -9.1642 C   0  0  2  0  0  0  0  0  0  0  0  0
   27.3150  -20.2582  -10.2706 N   0  0  0  0  0  0  0  0  0  0  0  0
   25.1549  -21.0366   -9.5502 C   0  0  0  0  0  0  0  0  0  0  0  0
   24.3572  -22.0715   -9.1346 O   0  0  0  0  0  0  0  0  0  0  0  0
   24.6085  -20.1780  -10.3238 O   0  0  0  0  0  0  0  0  0  0  0  0
  2 10  1  0
  2  1  1  6
  3  2  1  0
  4  3  1  0
  5  4  2  0
  6  5  1  0
  7  6  2  0
  7  8  1  0
  8  9  2  0
  9  4  1  0
 10 12  1  0
 11 10  2  0
 12 13  1  0
 14 21  1  0
 14 13  1  0
 15 14  2  0
 17 16  1  0
 18 19  1  1
 18 17  1  0
 20 21  1  6
 20 18  1  0
 22 23  1  0
 22 20  1  0
 24 22  2  0
M  END
$$$$
