FGI.pdb
     RDKit          3D

 24 24  0  0  1  0  0  0  0  0999 V2000
   24.2375  -21.9065  -14.4457 N   0  0  0  0  0  0  0  0  0  0  0  0
   23.7988  -20.6485  -13.9195 C   0  0  1  0  0  0  0  0  0  0  0  0
   22.4018  -20.8138  -13.3732 C   0  0  0  0  0  0  0  0  0  0  0  0
   21.5111  -21.1549  -14.5126 C   0  0  0  0  0  0  0  0  0  0  0  0
   21.1466  -22.4448  -14.7887 C   0  0  0  0  0  0  0  0  0  0  0  0
   20.3099  -22.7111  -15.8681 C   0  0  0  0  0  0  0  0  0  0  0  0
   19.8262  -21.7149  -16.6823 C   0  0  0  0  0  0  0  0  0  0  0  0
   20.1940  -20.4180  -16.4030 C   0  0  0  0  0  0  0  0  0  0  0  0
   21.0327  -20.1455  -15.3219 C   0  0  0  0  0  0  0  0  0  0  0  0
   24.7323  -20.1633  -12.8538 C   0  0  0  0  0  0  0  0  0  0  0  0
   24.3688  -19.1928  -12.1358 O   0  0  0  0  0  0  0  0  0  0  0  0
   25.9976  -20.7627  -12.6379 N   0  0  0  0  0  0  0  0  0  0  0  0
   26.8757  -20.2854  -11.6055 C   0  0  0  0  0  0  0  0  0  0  0  0
   26.5493  -20.8670  -10.2786 C   0  0  0  0  0  0  0  0  0  0  0  0
   25.9914  -21.9900  -10.1907 O   0  0  0  0  0  0  0  0  0  0  0  0
   29.3916  -18.8352   -6.0026 C   0  0  0  0  0  0  0  0  0  0  0  0
   28.7490  -19.7790   -7.0203 C   0  0  0  0  0  0  0  0  0  0  0  0
   27.2898  -19.9293   -6.7278 C   0  0  2  0  0  0  0  0  0  0  0  0
   27.1010  -20.5237   -5.3384 C   0  0  0  0  0  0  0  0  0  0  0  0
   26.5535  -20.7467   -7.7588 C   0  0  2  0  0  0  0  0  0  0  0  0
   26.8563  -20.1755   -9.0776 N   0  0  0  0  0  0  0  0  0  0  0  0
   25.0947  -20.8020   -7.5625 C   0  0  0  0  0  0  0  0  0  0  0  0
   24.4362  -21.8315   -6.9407 O   0  0  0  0  0  0  0  0  0  0  0  0
   24.3664  -19.8422   -7.9897 O   0  0  0  0  0  0  0  0  0  0  0  0
  2 10  1  0
  2  1  1  1
  3  2  1  0
  4  3  1  0
  5  4  2  0
  6  5  1  0
  7  6  2  0
  7  8  1  0
  8  9  2  0
  9  4  1  0
 10 12  1  0
 11 10  2  0
 12 13  1  0
 14 21  1  0
 14 13  1  0
 15 14  2  0
 17 16  1  0
 18 19  1  1
 18 17  1  0
 20 21  1  6
 20 18  1  0
 22 23  1  0
 22 20  1  0
 24 22  2  0
M  END
$$$$
