FGI.pdb
     RDKit          3D

 24 24  0  0  1  0  0  0  0  0999 V2000
   29.0460  -21.2827   -8.6405 N   0  0  0  0  0  0  0  0  0  0  0  0
   27.6223  -21.1286   -8.6061 C   0  0  1  0  0  0  0  0  0  0  0  0
   27.2956  -19.7911   -7.9881 C   0  0  0  0  0  0  0  0  0  0  0  0
   27.8055  -19.8044   -6.5925 C   0  0  0  0  0  0  0  0  0  0  0  0
   27.3069  -20.6571   -5.6452 C   0  0  0  0  0  0  0  0  0  0  0  0
   27.8193  -20.6297   -4.3517 C   0  0  0  0  0  0  0  0  0  0  0  0
   28.8225  -19.7667   -3.9801 C   0  0  0  0  0  0  0  0  0  0  0  0
   29.3227  -18.9098   -4.9344 C   0  0  0  0  0  0  0  0  0  0  0  0
   28.8126  -18.9331   -6.2328 C   0  0  0  0  0  0  0  0  0  0  0  0
   27.0426  -21.2338   -9.9828 C   0  0  0  0  0  0  0  0  0  0  0  0
   27.6972  -20.7521  -10.9466 O   0  0  0  0  0  0  0  0  0  0  0  0
   25.7917  -21.8542  -10.2225 N   0  0  0  0  0  0  0  0  0  0  0  0
   25.2185  -21.8784  -11.5399 C   0  0  0  0  0  0  0  0  0  0  0  0
   24.0310  -20.9936  -11.6510 C   0  0  0  0  0  0  0  0  0  0  0  0
   23.7124  -20.2269  -10.7073 O   0  0  0  0  0  0  0  0  0  0  0  0
   23.0896  -18.4052  -16.1646 C   0  0  0  0  0  0  0  0  0  0  0  0
   23.1665  -18.8130  -14.6924 C   0  0  0  0  0  0  0  0  0  0  0  0
   21.9544  -19.6055  -14.3175 C   0  0  2  0  0  0  0  0  0  0  0  0
   20.7048  -18.7548  -14.5022 C   0  0  0  0  0  0  0  0  0  0  0  0
   22.0136  -20.1645  -12.9185 C   0  0  2  0  0  0  0  0  0  0  0  0
   23.2256  -20.9880  -12.8199 N   0  0  0  0  0  0  0  0  0  0  0  0
   20.8366  -20.9612  -12.5317 C   0  0  0  0  0  0  0  0  0  0  0  0
   19.8200  -20.5026  -11.7340 O   0  0  0  0  0  0  0  0  0  0  0  0
   20.7269  -22.1640  -12.9505 O   0  0  0  0  0  0  0  0  0  0  0  0
  2 10  1  0
  2  1  1  6
  3  2  1  0
  4  3  1  0
  5  4  2  0
  6  5  1  0
  7  6  2  0
  7  8  1  0
  8  9  2  0
  9  4  1  0
 10 12  1  0
 11 10  2  0
 12 13  1  0
 14 21  1  0
 14 13  1  0
 15 14  2  0
 17 16  1  0
 18 19  1  1
 18 17  1  0
 20 21  1  6
 20 18  1  0
 22 23  1  0
 22 20  1  0
 24 22  2  0
M  END
$$$$
