FGI.pdb
     RDKit          3D

 24 24  0  0  1  0  0  0  0  0999 V2000
   25.3161  -20.5357   -7.2591 N   0  0  0  0  0  0  0  0  0  0  0  0
   26.4077  -20.2607   -8.1451 C   0  0  1  0  0  0  0  0  0  0  0  0
   27.6478  -20.9315   -7.6070 C   0  0  0  0  0  0  0  0  0  0  0  0
   27.9610  -20.3102   -6.2941 C   0  0  0  0  0  0  0  0  0  0  0  0
   27.6985  -18.9927   -6.0329 C   0  0  0  0  0  0  0  0  0  0  0  0
   28.0112  -18.4591   -4.7864 C   0  0  0  0  0  0  0  0  0  0  0  0
   28.5826  -19.2136   -3.7898 C   0  0  0  0  0  0  0  0  0  0  0  0
   28.8460  -20.5388   -4.0544 C   0  0  0  0  0  0  0  0  0  0  0  0
   28.5344  -21.0788   -5.3025 C   0  0  0  0  0  0  0  0  0  0  0  0
   26.1022  -20.7408   -9.5302 C   0  0  0  0  0  0  0  0  0  0  0  0
   25.2120  -21.6216   -9.6760 O   0  0  0  0  0  0  0  0  0  0  0  0
   26.7823  -20.2338  -10.6648 N   0  0  0  0  0  0  0  0  0  0  0  0
   26.4182  -20.6479  -11.9917 C   0  0  0  0  0  0  0  0  0  0  0  0
   25.7872  -19.5505  -12.7681 C   0  0  0  0  0  0  0  0  0  0  0  0
   25.0967  -18.6723  -12.1919 O   0  0  0  0  0  0  0  0  0  0  0  0
   28.8155  -16.9321  -15.9533 C   0  0  0  0  0  0  0  0  0  0  0  0
   27.7344  -17.4752  -15.0175 C   0  0  0  0  0  0  0  0  0  0  0  0
   26.4889  -17.7698  -15.7919 C   0  0  2  0  0  0  0  0  0  0  0  0
   26.0173  -16.5112  -16.5081 C   0  0  0  0  0  0  0  0  0  0  0  0
   25.3809  -18.3461  -14.9472 C   0  0  2  0  0  0  0  0  0  0  0  0
   25.9445  -19.4618  -14.1761 N   0  0  0  0  0  0  0  0  0  0  0  0
   24.2111  -18.8099  -15.7128 C   0  0  0  0  0  0  0  0  0  0  0  0
   23.0554  -18.0894  -15.8720 O   0  0  0  0  0  0  0  0  0  0  0  0
   24.2440  -19.9564  -16.2774 O   0  0  0  0  0  0  0  0  0  0  0  0
  2 10  1  0
  2  1  1  1
  3  2  1  0
  4  3  1  0
  5  4  2  0
  6  5  1  0
  7  6  2  0
  7  8  1  0
  8  9  2  0
  9  4  1  0
 10 12  1  0
 11 10  2  0
 12 13  1  0
 14 21  1  0
 14 13  1  0
 15 14  2  0
 17 16  1  0
 18 19  1  1
 18 17  1  0
 20 21  1  6
 20 18  1  0
 22 23  1  0
 22 20  1  0
 24 22  2  0
M  END
$$$$
