EHG.pdb
     RDKit          3D

 24 24  0  0  1  0  0  0  0  0999 V2000
    9.9896  -18.6275   18.6003 N   0  0  0  0  0  0  0  0  0  0  0  0
    8.9574  -18.3549   19.5352 C   0  0  1  0  0  0  0  0  0  0  0  0
    8.6352  -19.5465   20.3642 C   0  0  0  0  0  0  0  0  0  0  0  0
    9.8245  -20.3209   20.8658 C   0  0  0  0  0  0  0  0  0  0  0  0
    9.4421  -21.5222   21.6413 C   0  0  0  0  0  0  0  0  0  0  0  0
    8.2238  -21.8254   21.8717 O   0  0  0  0  0  0  0  0  0  0  0  0
    9.2489  -17.1895   20.4116 C   0  0  0  0  0  0  0  0  0  0  0  0
   10.4708  -16.8378   20.4797 O   0  0  0  0  0  0  0  0  0  0  0  0
   10.3715  -22.4055   22.1740 O   0  0  0  0  0  0  0  0  0  0  0  0
    8.2751  -16.4885   21.1376 N   0  0  0  0  0  0  0  0  0  0  0  0
    8.6906  -15.3702   22.0214 C   0  0  1  0  0  0  0  0  0  0  0  0
    7.7799  -14.1943   21.7463 C   0  0  0  0  0  0  0  0  0  0  0  0
    8.0462  -13.4628   20.5103 C   0  0  0  0  0  0  0  0  0  0  0  0
    9.0594  -13.6108   19.5723 C   0  0  0  0  0  0  0  0  0  0  0  0
    8.8818  -12.6817   18.6446 N   0  0  0  0  0  0  0  0  0  0  0  0
    7.8055  -11.9486   18.9445 C   0  0  0  0  0  0  0  0  0  0  0  0
    7.3038  -12.4258   20.0746 N   0  0  0  0  0  0  0  0  0  0  0  0
    8.6431  -15.8430   23.4087 C   0  0  0  0  0  0  0  0  0  0  0  0
    7.5441  -15.8083   24.0328 O   0  0  0  0  0  0  0  0  0  0  0  0
    9.7428  -16.3558   24.1428 N   0  0  0  0  0  0  0  0  0  0  0  0
    9.5935  -16.8199   25.5057 C   0  0  0  0  0  0  0  0  0  0  0  0
   10.8948  -17.1542   26.1262 C   0  0  0  0  0  0  0  0  0  0  0  0
   11.0248  -17.5752   27.4341 O   0  0  0  0  0  0  0  0  0  0  0  0
   11.9370  -17.0542   25.4407 O   0  0  0  0  0  0  0  0  0  0  0  0
  2  1  1  1
  3  2  1  0
  4  5  1  0
  4  3  1  0
  5  9  1  0
  6  5  2  0
  7  2  1  0
  7 10  1  0
  8  7  2  0
 11 10  1  0
 11 18  1  0
 12 13  1  0
 11 12  1  1
 13 14  2  0
 14 15  1  0
 16 15  1  0
 17 13  1  0
 17 16  2  0
 18 20  1  0
 18 19  2  0
 20 21  1  0
 22 21  1  0
 22 23  1  0
 24 22  2  0
M  END
$$$$
