EHG.pdb
     RDKit          3D

 24 24  0  0  1  0  0  0  0  0999 V2000
   11.4545  -17.5268   20.0319 N   0  0  0  0  0  0  0  0  0  0  0  0
   11.5237  -16.1850   19.5752 C   0  0  1  0  0  0  0  0  0  0  0  0
   11.2648  -16.0855   18.1143 C   0  0  0  0  0  0  0  0  0  0  0  0
   10.4336  -17.1971   17.5320 C   0  0  0  0  0  0  0  0  0  0  0  0
   10.1921  -17.0340   16.0808 C   0  0  0  0  0  0  0  0  0  0  0  0
   11.1456  -16.9543   15.2359 O   0  0  0  0  0  0  0  0  0  0  0  0
   10.6217  -15.2633   20.3154 C   0  0  0  0  0  0  0  0  0  0  0  0
   10.2638  -14.2144   19.6886 O   0  0  0  0  0  0  0  0  0  0  0  0
    8.9199  -16.9557   15.5303 O   0  0  0  0  0  0  0  0  0  0  0  0
   10.1661  -15.4901   21.6222 N   0  0  0  0  0  0  0  0  0  0  0  0
    9.1280  -14.5973   22.1964 C   0  0  1  0  0  0  0  0  0  0  0  0
    7.9629  -14.5554   21.2327 C   0  0  0  0  0  0  0  0  0  0  0  0
    8.2076  -13.8569   19.9734 C   0  0  0  0  0  0  0  0  0  0  0  0
    8.8217  -12.6373   19.7203 C   0  0  0  0  0  0  0  0  0  0  0  0
    8.7670  -12.4278   18.4132 N   0  0  0  0  0  0  0  0  0  0  0  0
    8.1484  -13.4533   17.8202 C   0  0  0  0  0  0  0  0  0  0  0  0
    7.8121  -14.3152   18.7693 N   0  0  0  0  0  0  0  0  0  0  0  0
    8.7766  -15.1030   23.5273 C   0  0  0  0  0  0  0  0  0  0  0  0
    7.9015  -14.4926   24.2056 O   0  0  0  0  0  0  0  0  0  0  0  0
    9.3365  -16.2486   24.1480 N   0  0  0  0  0  0  0  0  0  0  0  0
    9.6955  -16.2512   25.5502 C   0  0  0  0  0  0  0  0  0  0  0  0
   10.9415  -17.0079   25.8049 C   0  0  0  0  0  0  0  0  0  0  0  0
   11.4050  -17.3002   27.0716 O   0  0  0  0  0  0  0  0  0  0  0  0
   11.6178  -17.4082   24.8310 O   0  0  0  0  0  0  0  0  0  0  0  0
  2  1  1  1
  3  2  1  0
  4  5  1  0
  4  3  1  0
  5  9  1  0
  6  5  2  0
  7  2  1  0
  7 10  1  0
  8  7  2  0
 11 10  1  0
 11 18  1  0
 12 13  1  0
 11 12  1  6
 13 14  2  0
 14 15  1  0
 16 15  1  0
 17 13  1  0
 17 16  2  0
 18 20  1  0
 18 19  2  0
 20 21  1  0
 22 21  1  0
 22 23  1  0
 24 22  2  0
M  END
$$$$
