EHG.pdb
     RDKit          3D

 24 24  0  0  1  0  0  0  0  0999 V2000
   10.8646  -18.7275   19.0038 N   0  0  0  0  0  0  0  0  0  0  0  0
   11.3573  -17.5586   18.3676 C   0  0  1  0  0  0  0  0  0  0  0  0
   10.9996  -17.5234   16.9248 C   0  0  0  0  0  0  0  0  0  0  0  0
   11.5829  -16.3749   16.1460 C   0  0  0  0  0  0  0  0  0  0  0  0
   11.1810  -16.3840   14.7215 C   0  0  0  0  0  0  0  0  0  0  0  0
   10.3702  -15.5257   14.2366 O   0  0  0  0  0  0  0  0  0  0  0  0
   10.9236  -16.2999   19.0300 C   0  0  0  0  0  0  0  0  0  0  0  0
   11.6106  -15.2633   18.7568 O   0  0  0  0  0  0  0  0  0  0  0  0
   11.6511  -17.3194   13.8094 O   0  0  0  0  0  0  0  0  0  0  0  0
    9.8338  -16.2085   19.9079 N   0  0  0  0  0  0  0  0  0  0  0  0
    9.5227  -14.9060   20.5490 C   0  0  1  0  0  0  0  0  0  0  0  0
    8.0730  -14.5802   20.2655 C   0  0  0  0  0  0  0  0  0  0  0  0
    7.7594  -14.2419   18.8796 C   0  0  0  0  0  0  0  0  0  0  0  0
    7.0472  -14.9440   17.9163 C   0  0  0  0  0  0  0  0  0  0  0  0
    7.0707  -14.2269   16.8025 N   0  0  0  0  0  0  0  0  0  0  0  0
    7.7626  -13.1022   17.0078 C   0  0  0  0  0  0  0  0  0  0  0  0
    8.1770  -13.1166   18.2666 N   0  0  0  0  0  0  0  0  0  0  0  0
    9.8361  -15.0140   21.9775 C   0  0  0  0  0  0  0  0  0  0  0  0
    9.4784  -14.0853   22.7573 O   0  0  0  0  0  0  0  0  0  0  0  0
   10.5196  -16.0940   22.5919 N   0  0  0  0  0  0  0  0  0  0  0  0
   10.7567  -16.1265   24.0194 C   0  0  0  0  0  0  0  0  0  0  0  0
   11.4588  -17.3596   24.4398 C   0  0  0  0  0  0  0  0  0  0  0  0
   11.5790  -17.7514   25.7577 O   0  0  0  0  0  0  0  0  0  0  0  0
   11.9738  -18.0921   23.5656 O   0  0  0  0  0  0  0  0  0  0  0  0
  2  1  1  1
  3  2  1  0
  4  5  1  0
  4  3  1  0
  5  9  1  0
  6  5  2  0
  7  2  1  0
  7 10  1  0
  8  7  2  0
 11 10  1  0
 11 18  1  0
 12 13  1  0
 11 12  1  1
 13 14  2  0
 14 15  1  0
 16 15  1  0
 17 13  1  0
 17 16  2  0
 18 20  1  0
 18 19  2  0
 20 21  1  0
 22 21  1  0
 22 23  1  0
 24 22  2  0
M  END
$$$$
