EHG.pdb
     RDKit          3D

 24 24  0  0  1  0  0  0  0  0999 V2000
   11.7922  -18.6890   16.4824 N   0  0  0  0  0  0  0  0  0  0  0  0
   11.1221  -18.4107   17.7020 C   0  0  1  0  0  0  0  0  0  0  0  0
   11.0813  -19.6005   18.5929 C   0  0  0  0  0  0  0  0  0  0  0  0
   12.2048  -20.5842   18.4030 C   0  0  0  0  0  0  0  0  0  0  0  0
   12.5214  -21.3394   19.6360 C   0  0  0  0  0  0  0  0  0  0  0  0
   11.8710  -22.3814   19.9830 O   0  0  0  0  0  0  0  0  0  0  0  0
   11.6891  -17.2468   18.4336 C   0  0  0  0  0  0  0  0  0  0  0  0
   12.8367  -16.8535   18.0471 O   0  0  0  0  0  0  0  0  0  0  0  0
   13.5425  -20.9759   20.5039 O   0  0  0  0  0  0  0  0  0  0  0  0
   11.0403  -16.5895   19.4889 N   0  0  0  0  0  0  0  0  0  0  0  0
   11.7232  -15.4636   20.1747 C   0  0  1  0  0  0  0  0  0  0  0  0
   10.9186  -14.2074   19.9247 C   0  0  0  0  0  0  0  0  0  0  0  0
    9.4879  -14.3062   20.2018 C   0  0  0  0  0  0  0  0  0  0  0  0
    8.7172  -15.3896   20.6027 C   0  0  0  0  0  0  0  0  0  0  0  0
    7.4616  -14.9752   20.6875 N   0  0  0  0  0  0  0  0  0  0  0  0
    7.3935  -13.6812   20.3606 C   0  0  0  0  0  0  0  0  0  0  0  0
    8.6227  -13.2816   20.0676 N   0  0  0  0  0  0  0  0  0  0  0  0
   11.8570  -15.8074   21.5940 C   0  0  0  0  0  0  0  0  0  0  0  0
   12.4391  -14.9972   22.3707 O   0  0  0  0  0  0  0  0  0  0  0  0
   11.3792  -16.9959   22.2028 N   0  0  0  0  0  0  0  0  0  0  0  0
   11.6176  -17.2789   23.6021 C   0  0  0  0  0  0  0  0  0  0  0  0
   10.6528  -16.5841   24.4834 C   0  0  0  0  0  0  0  0  0  0  0  0
   10.7197  -16.6249   25.8613 O   0  0  0  0  0  0  0  0  0  0  0  0
    9.7252  -15.9231   23.9650 O   0  0  0  0  0  0  0  0  0  0  0  0
  2  1  1  6
  3  2  1  0
  4  5  1  0
  4  3  1  0
  5  9  1  0
  6  5  2  0
  7  2  1  0
  7 10  1  0
  8  7  2  0
 11 10  1  0
 11 18  1  0
 12 13  1  0
 11 12  1  1
 13 14  2  0
 14 15  1  0
 16 15  1  0
 17 13  1  0
 17 16  2  0
 18 20  1  0
 18 19  2  0
 20 21  1  0
 22 21  1  0
 22 23  1  0
 24 22  2  0
M  END
$$$$
