EHG.pdb
     RDKit          3D

 24 24  0  0  1  0  0  0  0  0999 V2000
   13.3213  -14.8317   17.4387 N   0  0  0  0  0  0  0  0  0  0  0  0
   12.5090  -15.6586   18.2575 C   0  0  1  0  0  0  0  0  0  0  0  0
   13.3124  -16.6829   18.9760 C   0  0  0  0  0  0  0  0  0  0  0  0
   14.3334  -17.4035   18.1369 C   0  0  0  0  0  0  0  0  0  0  0  0
   15.1418  -18.3668   18.9176 C   0  0  0  0  0  0  0  0  0  0  0  0
   16.4101  -18.4464   18.7983 O   0  0  0  0  0  0  0  0  0  0  0  0
   11.6767  -14.8948   19.2245 C   0  0  0  0  0  0  0  0  0  0  0  0
   12.2024  -13.8339   19.6928 O   0  0  0  0  0  0  0  0  0  0  0  0
   14.5876  -19.2515   19.8330 O   0  0  0  0  0  0  0  0  0  0  0  0
   10.3889  -15.2770   19.6271 N   0  0  0  0  0  0  0  0  0  0  0  0
    9.6020  -14.3732   20.5036 C   0  0  1  0  0  0  0  0  0  0  0  0
    8.1986  -14.2870   19.9459 C   0  0  0  0  0  0  0  0  0  0  0  0
    8.0989  -13.9134   18.5373 C   0  0  0  0  0  0  0  0  0  0  0  0
    7.9712  -12.6667   17.9392 C   0  0  0  0  0  0  0  0  0  0  0  0
    7.8865  -12.8595   16.6312 N   0  0  0  0  0  0  0  0  0  0  0  0
    7.9538  -14.1675   16.3655 C   0  0  0  0  0  0  0  0  0  0  0  0
    8.0824  -14.8004   17.5228 N   0  0  0  0  0  0  0  0  0  0  0  0
    9.6634  -14.8971   21.8719 C   0  0  0  0  0  0  0  0  0  0  0  0
    9.0478  -14.2865   22.7922 O   0  0  0  0  0  0  0  0  0  0  0  0
   10.3645  -16.0609   22.2783 N   0  0  0  0  0  0  0  0  0  0  0  0
   10.3596  -16.5061   23.6555 C   0  0  0  0  0  0  0  0  0  0  0  0
   11.6998  -16.4128   24.2761 C   0  0  0  0  0  0  0  0  0  0  0  0
   11.9495  -16.7405   25.5933 O   0  0  0  0  0  0  0  0  0  0  0  0
   12.6634  -16.0183   23.5818 O   0  0  0  0  0  0  0  0  0  0  0  0
  2  1  1  1
  3  2  1  0
  4  5  1  0
  4  3  1  0
  5  9  1  0
  6  5  2  0
  7  2  1  0
  7 10  1  0
  8  7  2  0
 11 10  1  0
 11 18  1  0
 12 13  1  0
 11 12  1  6
 13 14  2  0
 14 15  1  0
 16 15  1  0
 17 13  1  0
 17 16  2  0
 18 20  1  0
 18 19  2  0
 20 21  1  0
 22 21  1  0
 22 23  1  0
 24 22  2  0
M  END
$$$$
