EHG.pdb
     RDKit          3D

 24 24  0  0  1  0  0  0  0  0999 V2000
   13.3567  -14.4536   17.4467 N   0  0  0  0  0  0  0  0  0  0  0  0
   12.8760  -15.3841   18.4043 C   0  0  1  0  0  0  0  0  0  0  0  0
   13.9865  -16.1254   19.0588 C   0  0  0  0  0  0  0  0  0  0  0  0
   15.1500  -16.4606   18.1646 C   0  0  0  0  0  0  0  0  0  0  0  0
   16.1958  -17.2490   18.8542 C   0  0  0  0  0  0  0  0  0  0  0  0
   16.6715  -18.3270   18.3634 O   0  0  0  0  0  0  0  0  0  0  0  0
   11.9985  -14.7686   19.4350 C   0  0  0  0  0  0  0  0  0  0  0  0
   12.2915  -13.5768   19.7739 O   0  0  0  0  0  0  0  0  0  0  0  0
   16.7363  -16.8800   20.0788 O   0  0  0  0  0  0  0  0  0  0  0  0
   10.9054  -15.4181   20.0266 N   0  0  0  0  0  0  0  0  0  0  0  0
   10.0267  -14.6644   20.9562 C   0  0  1  0  0  0  0  0  0  0  0  0
    8.6020  -14.8018   20.4671 C   0  0  0  0  0  0  0  0  0  0  0  0
    8.3348  -14.2628   19.1361 C   0  0  0  0  0  0  0  0  0  0  0  0
    7.9868  -12.9803   18.7328 C   0  0  0  0  0  0  0  0  0  0  0  0
    7.8210  -13.0075   17.4187 N   0  0  0  0  0  0  0  0  0  0  0  0
    8.0460  -14.2438   16.9638 C   0  0  0  0  0  0  0  0  0  0  0  0
    8.3566  -14.9992   18.0076 N   0  0  0  0  0  0  0  0  0  0  0  0
   10.2401  -15.1863   22.3099 C   0  0  0  0  0  0  0  0  0  0  0  0
    9.3930  -14.9232   23.2109 O   0  0  0  0  0  0  0  0  0  0  0  0
   11.3362  -15.9865   22.7216 N   0  0  0  0  0  0  0  0  0  0  0  0
   11.4450  -16.4829   24.0768 C   0  0  0  0  0  0  0  0  0  0  0  0
   12.6628  -17.3001   24.2749 C   0  0  0  0  0  0  0  0  0  0  0  0
   13.0288  -17.8314   25.4949 O   0  0  0  0  0  0  0  0  0  0  0  0
   13.4064  -17.5278   23.2944 O   0  0  0  0  0  0  0  0  0  0  0  0
  2  1  1  6
  3  2  1  0
  4  5  1  0
  4  3  1  0
  5  9  1  0
  6  5  2  0
  7  2  1  0
  7 10  1  0
  8  7  2  0
 11 10  1  0
 11 18  1  0
 12 13  1  0
 11 12  1  6
 13 14  2  0
 14 15  1  0
 16 15  1  0
 17 13  1  0
 17 16  2  0
 18 20  1  0
 18 19  2  0
 20 21  1  0
 22 21  1  0
 22 23  1  0
 24 22  2  0
M  END
$$$$
