EHG.pdb
     RDKit          3D

 24 24  0  0  1  0  0  0  0  0999 V2000
   12.4615  -17.8946   18.0351 N   0  0  0  0  0  0  0  0  0  0  0  0
   11.2412  -17.9571   18.7567 C   0  0  1  0  0  0  0  0  0  0  0  0
   11.0918  -19.2494   19.4769 C   0  0  0  0  0  0  0  0  0  0  0  0
   12.3815  -19.9363   19.8383 C   0  0  0  0  0  0  0  0  0  0  0  0
   12.1860  -21.0748   20.7637 C   0  0  0  0  0  0  0  0  0  0  0  0
   11.0361  -21.3972   21.2145 O   0  0  0  0  0  0  0  0  0  0  0  0
   11.0567  -16.8240   19.7018 C   0  0  0  0  0  0  0  0  0  0  0  0
   11.9988  -15.9680   19.7331 O   0  0  0  0  0  0  0  0  0  0  0  0
   13.2299  -21.8743   21.2096 O   0  0  0  0  0  0  0  0  0  0  0  0
    9.9347  -16.6634   20.5276 N   0  0  0  0  0  0  0  0  0  0  0  0
    9.8192  -15.4465   21.3703 C   0  0  1  0  0  0  0  0  0  0  0  0
    8.4470  -14.8511   21.1453 C   0  0  0  0  0  0  0  0  0  0  0  0
    8.2915  -14.0618   19.9262 C   0  0  0  0  0  0  0  0  0  0  0  0
    9.2267  -13.6686   18.9779 C   0  0  0  0  0  0  0  0  0  0  0  0
    8.5935  -12.9346   18.0749 N   0  0  0  0  0  0  0  0  0  0  0  0
    7.3008  -12.8401   18.4002 C   0  0  0  0  0  0  0  0  0  0  0  0
    7.1238  -13.5242   19.5215 N   0  0  0  0  0  0  0  0  0  0  0  0
   10.0767  -15.8292   22.7623 C   0  0  0  0  0  0  0  0  0  0  0  0
    9.9944  -14.9499   23.6670 O   0  0  0  0  0  0  0  0  0  0  0  0
   10.4163  -17.1314   23.2098 N   0  0  0  0  0  0  0  0  0  0  0  0
   10.6089  -17.4235   24.6142 C   0  0  0  0  0  0  0  0  0  0  0  0
   12.0410  -17.5462   24.9666 C   0  0  0  0  0  0  0  0  0  0  0  0
   12.4863  -17.8237   26.2431 O   0  0  0  0  0  0  0  0  0  0  0  0
   12.9012  -17.3926   24.0707 O   0  0  0  0  0  0  0  0  0  0  0  0
  2  1  1  1
  3  2  1  0
  4  5  1  0
  4  3  1  0
  5  9  1  0
  6  5  2  0
  7  2  1  0
  7 10  1  0
  8  7  2  0
 11 10  1  0
 11 18  1  0
 12 13  1  0
 11 12  1  1
 13 14  2  0
 14 15  1  0
 16 15  1  0
 17 13  1  0
 17 16  2  0
 18 20  1  0
 18 19  2  0
 20 21  1  0
 22 21  1  0
 22 23  1  0
 24 22  2  0
M  END
$$$$
