EHG.pdb
     RDKit          3D

 24 24  0  0  1  0  0  0  0  0999 V2000
   10.4218  -19.2242   18.6105 N   0  0  0  0  0  0  0  0  0  0  0  0
   11.4233  -18.2437   18.3875 C   0  0  1  0  0  0  0  0  0  0  0  0
   11.3472  -17.6802   17.0136 C   0  0  0  0  0  0  0  0  0  0  0  0
    9.9598  -17.5700   16.4402 C   0  0  0  0  0  0  0  0  0  0  0  0
    9.9452  -16.9861   15.0802 C   0  0  0  0  0  0  0  0  0  0  0  0
   10.7363  -17.3817   14.1600 O   0  0  0  0  0  0  0  0  0  0  0  0
   11.4058  -17.1451   19.3895 C   0  0  0  0  0  0  0  0  0  0  0  0
   12.3134  -16.2615   19.2605 O   0  0  0  0  0  0  0  0  0  0  0  0
    9.0765  -15.9707   14.7029 O   0  0  0  0  0  0  0  0  0  0  0  0
   10.4703  -17.0439   20.4292 N   0  0  0  0  0  0  0  0  0  0  0  0
   10.4979  -15.8568   21.3204 C   0  0  1  0  0  0  0  0  0  0  0  0
    9.0943  -15.2985   21.3985 C   0  0  0  0  0  0  0  0  0  0  0  0
    8.6197  -14.6088   20.2016 C   0  0  0  0  0  0  0  0  0  0  0  0
    9.2863  -14.2610   19.0341 C   0  0  0  0  0  0  0  0  0  0  0  0
    8.4249  -13.6166   18.2608 N   0  0  0  0  0  0  0  0  0  0  0  0
    7.2420  -13.5362   18.8773 C   0  0  0  0  0  0  0  0  0  0  0  0
    7.3658  -14.1383   20.0515 N   0  0  0  0  0  0  0  0  0  0  0  0
   11.0421  -16.2722   22.6172 C   0  0  0  0  0  0  0  0  0  0  0  0
   11.1769  -15.4101   23.5322 O   0  0  0  0  0  0  0  0  0  0  0  0
   11.4417  -17.5892   22.9597 N   0  0  0  0  0  0  0  0  0  0  0  0
   11.8861  -17.9225   24.2963 C   0  0  0  0  0  0  0  0  0  0  0  0
   10.7735  -18.3888   25.1534 C   0  0  0  0  0  0  0  0  0  0  0  0
   10.9407  -18.7788   26.4667 O   0  0  0  0  0  0  0  0  0  0  0  0
    9.6182  -18.4366   24.6747 O   0  0  0  0  0  0  0  0  0  0  0  0
  2  1  1  1
  3  2  1  0
  4  5  1  0
  4  3  1  0
  5  9  1  0
  6  5  2  0
  7  2  1  0
  7 10  1  0
  8  7  2  0
 11 10  1  0
 11 18  1  0
 12 13  1  0
 11 12  1  1
 13 14  2  0
 14 15  1  0
 16 15  1  0
 17 13  1  0
 17 16  2  0
 18 20  1  0
 18 19  2  0
 20 21  1  0
 22 21  1  0
 22 23  1  0
 24 22  2  0
M  END
$$$$
