EHG.pdb
     RDKit          3D

 24 24  0  0  1  0  0  0  0  0999 V2000
   11.0281  -18.1000   18.7620 N   0  0  0  0  0  0  0  0  0  0  0  0
   11.6446  -16.8497   18.4964 C   0  0  1  0  0  0  0  0  0  0  0  0
   11.7087  -16.5650   17.0384 C   0  0  0  0  0  0  0  0  0  0  0  0
   10.5859  -17.1449   16.2206 C   0  0  0  0  0  0  0  0  0  0  0  0
   10.6763  -16.7885   14.7868 C   0  0  0  0  0  0  0  0  0  0  0  0
   11.5486  -17.3034   14.0101 O   0  0  0  0  0  0  0  0  0  0  0  0
   11.0028  -15.7131   19.2087 C   0  0  0  0  0  0  0  0  0  0  0  0
   11.5618  -14.5786   19.0613 O   0  0  0  0  0  0  0  0  0  0  0  0
    9.8259  -15.8738   14.1802 O   0  0  0  0  0  0  0  0  0  0  0  0
    9.8540  -15.8316   20.0043 N   0  0  0  0  0  0  0  0  0  0  0  0
    9.3457  -14.6408   20.7309 C   0  0  1  0  0  0  0  0  0  0  0  0
    7.9130  -14.4096   20.3044 C   0  0  0  0  0  0  0  0  0  0  0  0
    7.7251  -13.9897   18.9181 C   0  0  0  0  0  0  0  0  0  0  0  0
    7.8511  -12.7395   18.3268 C   0  0  0  0  0  0  0  0  0  0  0  0
    7.5414  -12.8722   17.0455 N   0  0  0  0  0  0  0  0  0  0  0  0
    7.2242  -14.1450   16.7903 C   0  0  0  0  0  0  0  0  0  0  0  0
    7.3371  -14.8167   17.9272 N   0  0  0  0  0  0  0  0  0  0  0  0
    9.5030  -14.8820   22.1688 C   0  0  0  0  0  0  0  0  0  0  0  0
    8.7595  -14.2611   22.9813 O   0  0  0  0  0  0  0  0  0  0  0  0
   10.4344  -15.7747   22.7577 N   0  0  0  0  0  0  0  0  0  0  0  0
   10.4441  -16.0279   24.1828 C   0  0  0  0  0  0  0  0  0  0  0  0
   11.5058  -16.9824   24.5720 C   0  0  0  0  0  0  0  0  0  0  0  0
   11.7218  -17.3863   25.8739 O   0  0  0  0  0  0  0  0  0  0  0  0
   12.2520  -17.4542   23.6850 O   0  0  0  0  0  0  0  0  0  0  0  0
  2  1  1  6
  3  2  1  0
  4  5  1  0
  4  3  1  0
  5  9  1  0
  6  5  2  0
  7  2  1  0
  7 10  1  0
  8  7  2  0
 11 10  1  0
 11 18  1  0
 12 13  1  0
 11 12  1  1
 13 14  2  0
 14 15  1  0
 16 15  1  0
 17 13  1  0
 17 16  2  0
 18 20  1  0
 18 19  2  0
 20 21  1  0
 22 21  1  0
 22 23  1  0
 24 22  2  0
M  END
$$$$
