EHG.pdb
     RDKit          3D

 24 24  0  0  1  0  0  0  0  0999 V2000
    9.6543  -17.7882   17.2327 N   0  0  0  0  0  0  0  0  0  0  0  0
   10.9370  -17.7294   17.8369 C   0  0  1  0  0  0  0  0  0  0  0  0
   12.0141  -17.5486   16.8280 C   0  0  0  0  0  0  0  0  0  0  0  0
   11.7794  -18.2327   15.5078 C   0  0  0  0  0  0  0  0  0  0  0  0
   12.9758  -18.2249   14.6363 C   0  0  0  0  0  0  0  0  0  0  0  0
   14.1211  -18.6102   15.0474 O   0  0  0  0  0  0  0  0  0  0  0  0
   11.0453  -16.6845   18.8893 C   0  0  0  0  0  0  0  0  0  0  0  0
   11.8185  -15.7081   18.6249 O   0  0  0  0  0  0  0  0  0  0  0  0
   12.9452  -17.8013   13.3144 O   0  0  0  0  0  0  0  0  0  0  0  0
   10.3600  -16.7261   20.1122 N   0  0  0  0  0  0  0  0  0  0  0  0
   10.5745  -15.6424   21.1041 C   0  0  1  0  0  0  0  0  0  0  0  0
    9.2381  -14.9893   21.3789 C   0  0  0  0  0  0  0  0  0  0  0  0
    8.6724  -14.2167   20.2759 C   0  0  0  0  0  0  0  0  0  0  0  0
    9.1853  -13.9265   19.0185 C   0  0  0  0  0  0  0  0  0  0  0  0
    8.3017  -13.1608   18.3953 N   0  0  0  0  0  0  0  0  0  0  0  0
    7.2508  -12.9483   19.1930 C   0  0  0  0  0  0  0  0  0  0  0  0
    7.4806  -13.5897   20.3298 N   0  0  0  0  0  0  0  0  0  0  0  0
   11.2014  -16.2294   22.2928 C   0  0  0  0  0  0  0  0  0  0  0  0
   10.5774  -17.1169   22.9421 O   0  0  0  0  0  0  0  0  0  0  0  0
   12.4817  -15.8922   22.8010 N   0  0  0  0  0  0  0  0  0  0  0  0
   13.0266  -16.5425   23.9737 C   0  0  0  0  0  0  0  0  0  0  0  0
   14.4475  -16.1928   24.1951 C   0  0  0  0  0  0  0  0  0  0  0  0
   15.1717  -16.6211   25.2891 O   0  0  0  0  0  0  0  0  0  0  0  0
   15.0329  -15.4732   23.3551 O   0  0  0  0  0  0  0  0  0  0  0  0
  2  1  1  6
  3  2  1  0
  4  5  1  0
  4  3  1  0
  5  9  1  0
  6  5  2  0
  7  2  1  0
  7 10  1  0
  8  7  2  0
 11 10  1  0
 11 18  1  0
 12 13  1  0
 11 12  1  1
 13 14  2  0
 14 15  1  0
 16 15  1  0
 17 13  1  0
 17 16  2  0
 18 20  1  0
 18 19  2  0
 20 21  1  0
 22 21  1  0
 22 23  1  0
 24 22  2  0
M  END
$$$$
