EHG.pdb
     RDKit          3D

 24 24  0  0  1  0  0  0  0  0999 V2000
   10.5664  -18.2344   17.9295 N   0  0  0  0  0  0  0  0  0  0  0  0
   11.3400  -17.0708   17.6815 C   0  0  1  0  0  0  0  0  0  0  0  0
   10.9734  -16.4295   16.3911 C   0  0  0  0  0  0  0  0  0  0  0  0
   11.5349  -17.0923   15.1617 C   0  0  0  0  0  0  0  0  0  0  0  0
   11.1300  -16.4159   13.9090 C   0  0  0  0  0  0  0  0  0  0  0  0
    9.9116  -16.1417   13.6454 O   0  0  0  0  0  0  0  0  0  0  0  0
   11.2735  -16.0732   18.7822 C   0  0  0  0  0  0  0  0  0  0  0  0
   12.0630  -15.0797   18.6796 O   0  0  0  0  0  0  0  0  0  0  0  0
   12.0371  -16.0302   12.9310 O   0  0  0  0  0  0  0  0  0  0  0  0
   10.4129  -16.1751   19.8848 N   0  0  0  0  0  0  0  0  0  0  0  0
   10.3189  -15.0439   20.8418 C   0  0  1  0  0  0  0  0  0  0  0  0
    8.8886  -14.5517   20.8443 C   0  0  0  0  0  0  0  0  0  0  0  0
    8.3766  -14.0876   19.5575 C   0  0  0  0  0  0  0  0  0  0  0  0
    8.3363  -12.8135   19.0065 C   0  0  0  0  0  0  0  0  0  0  0  0
    7.7418  -12.9088   17.8264 N   0  0  0  0  0  0  0  0  0  0  0  0
    7.4009  -14.1805   17.5974 C   0  0  0  0  0  0  0  0  0  0  0  0
    7.7876  -14.8894   18.6483 N   0  0  0  0  0  0  0  0  0  0  0  0
   10.7849  -15.5135   22.1506 C   0  0  0  0  0  0  0  0  0  0  0  0
   10.7331  -14.7278   23.1398 O   0  0  0  0  0  0  0  0  0  0  0  0
   11.3014  -16.8051   22.4268 N   0  0  0  0  0  0  0  0  0  0  0  0
   11.7102  -17.1879   23.7615 C   0  0  0  0  0  0  0  0  0  0  0  0
   10.7934  -18.1827   24.3613 C   0  0  0  0  0  0  0  0  0  0  0  0
   10.9985  -18.7509   25.6022 O   0  0  0  0  0  0  0  0  0  0  0  0
    9.7775  -18.5347   23.7208 O   0  0  0  0  0  0  0  0  0  0  0  0
  2  1  1  1
  3  2  1  0
  4  5  1  0
  4  3  1  0
  5  9  1  0
  6  5  2  0
  7  2  1  0
  7 10  1  0
  8  7  2  0
 11 10  1  0
 11 18  1  0
 12 13  1  0
 11 12  1  1
 13 14  2  0
 14 15  1  0
 16 15  1  0
 17 13  1  0
 17 16  2  0
 18 20  1  0
 18 19  2  0
 20 21  1  0
 22 21  1  0
 22 23  1  0
 24 22  2  0
M  END
$$$$
