EHG.pdb
     RDKit          3D

 24 24  0  0  1  0  0  0  0  0999 V2000
   11.1768  -16.7721   20.6680 N   0  0  0  0  0  0  0  0  0  0  0  0
    9.8592  -16.8240   21.1925 C   0  0  1  0  0  0  0  0  0  0  0  0
    9.4091  -18.2234   21.4156 C   0  0  0  0  0  0  0  0  0  0  0  0
    9.6801  -19.1742   20.2805 C   0  0  0  0  0  0  0  0  0  0  0  0
    9.1491  -20.5330   20.5304 C   0  0  0  0  0  0  0  0  0  0  0  0
    8.6090  -20.8605   21.6396 O   0  0  0  0  0  0  0  0  0  0  0  0
    9.6893  -16.0304   22.4385 C   0  0  0  0  0  0  0  0  0  0  0  0
   10.7625  -15.7172   23.0480 O   0  0  0  0  0  0  0  0  0  0  0  0
    9.1967  -21.5489   19.5851 O   0  0  0  0  0  0  0  0  0  0  0  0
    8.4477  -15.6278   22.9512 N   0  0  0  0  0  0  0  0  0  0  0  0
    8.4043  -14.7480   24.1464 C   0  0  1  0  0  0  0  0  0  0  0  0
    7.0975  -13.9867   24.1188 C   0  0  0  0  0  0  0  0  0  0  0  0
    6.8724  -13.0748   25.2374 C   0  0  0  0  0  0  0  0  0  0  0  0
    7.6688  -12.7761   26.3351 C   0  0  0  0  0  0  0  0  0  0  0  0
    7.0039  -11.9099   27.0854 N   0  0  0  0  0  0  0  0  0  0  0  0
    5.8229  -11.6414   26.5206 C   0  0  0  0  0  0  0  0  0  0  0  0
    5.7488  -12.3491   25.4025 N   0  0  0  0  0  0  0  0  0  0  0  0
    8.5749  -15.5869   25.3370 C   0  0  0  0  0  0  0  0  0  0  0  0
    8.4762  -15.0579   26.4811 O   0  0  0  0  0  0  0  0  0  0  0  0
    8.8446  -16.9792   25.3326 N   0  0  0  0  0  0  0  0  0  0  0  0
    9.0152  -17.7217   26.5632 C   0  0  0  0  0  0  0  0  0  0  0  0
   10.3861  -17.5940   27.1057 C   0  0  0  0  0  0  0  0  0  0  0  0
   10.7915  -18.1817   28.2868 O   0  0  0  0  0  0  0  0  0  0  0  0
   11.2293  -16.9217   26.4707 O   0  0  0  0  0  0  0  0  0  0  0  0
  2  1  1  1
  3  2  1  0
  4  5  1  0
  4  3  1  0
  5  9  1  0
  6  5  2  0
  7  2  1  0
  7 10  1  0
  8  7  2  0
 11 10  1  0
 11 18  1  0
 12 13  1  0
 11 12  1  1
 13 14  2  0
 14 15  1  0
 16 15  1  0
 17 13  1  0
 17 16  2  0
 18 20  1  0
 18 19  2  0
 20 21  1  0
 22 21  1  0
 22 23  1  0
 24 22  2  0
M  END
$$$$
