EHG.pdb
     RDKit          3D

 24 24  0  0  1  0  0  0  0  0999 V2000
   11.1939  -16.6684   20.6523 N   0  0  0  0  0  0  0  0  0  0  0  0
    9.9876  -16.9052   21.3613 C   0  0  1  0  0  0  0  0  0  0  0  0
    9.8706  -18.3233   21.7926 C   0  0  0  0  0  0  0  0  0  0  0  0
   11.0992  -19.1650   21.5733 C   0  0  0  0  0  0  0  0  0  0  0  0
   10.9223  -20.5659   22.0173 C   0  0  0  0  0  0  0  0  0  0  0  0
   10.9903  -21.5510   21.2086 O   0  0  0  0  0  0  0  0  0  0  0  0
    9.8028  -16.0019   22.5279 C   0  0  0  0  0  0  0  0  0  0  0  0
   10.8649  -15.4869   23.0052 O   0  0  0  0  0  0  0  0  0  0  0  0
   10.6709  -20.9143   23.3377 O   0  0  0  0  0  0  0  0  0  0  0  0
    8.5587  -15.7044   23.1027 N   0  0  0  0  0  0  0  0  0  0  0  0
    8.4895  -14.7415   24.2307 C   0  0  1  0  0  0  0  0  0  0  0  0
    7.1422  -14.0560   24.1778 C   0  0  0  0  0  0  0  0  0  0  0  0
    6.8816  -13.0892   25.2413 C   0  0  0  0  0  0  0  0  0  0  0  0
    7.5533  -11.9247   25.5894 C   0  0  0  0  0  0  0  0  0  0  0  0
    6.9447  -11.4162   26.6506 N   0  0  0  0  0  0  0  0  0  0  0  0
    5.9180  -12.1987   26.9966 C   0  0  0  0  0  0  0  0  0  0  0  0
    5.8847  -13.2096   26.1401 N   0  0  0  0  0  0  0  0  0  0  0  0
    8.7294  -15.4788   25.4754 C   0  0  0  0  0  0  0  0  0  0  0  0
    8.6805  -14.8589   26.5764 O   0  0  0  0  0  0  0  0  0  0  0  0
    9.0164  -16.8644   25.5705 N   0  0  0  0  0  0  0  0  0  0  0  0
    9.1522  -17.5237   26.8518 C   0  0  0  0  0  0  0  0  0  0  0  0
   10.5669  -17.6439   27.2695 C   0  0  0  0  0  0  0  0  0  0  0  0
   10.9640  -18.2866   28.4244 O   0  0  0  0  0  0  0  0  0  0  0  0
   11.4571  -17.1415   26.5475 O   0  0  0  0  0  0  0  0  0  0  0  0
  2  1  1  1
  3  2  1  0
  4  5  1  0
  4  3  1  0
  5  9  1  0
  6  5  2  0
  7  2  1  0
  7 10  1  0
  8  7  2  0
 11 10  1  0
 11 18  1  0
 12 13  1  0
 11 12  1  1
 13 14  2  0
 14 15  1  0
 16 15  1  0
 17 13  1  0
 17 16  2  0
 18 20  1  0
 18 19  2  0
 20 21  1  0
 22 21  1  0
 22 23  1  0
 24 22  2  0
M  END
$$$$
