SSW.pdb
     RDKit          3D

 27 28  0  0  1  0  0  0  0  0999 V2000
   12.3332  -19.3824   17.7983 O   0  0  0  0  0  0  0  0  0  0  0  0
   11.9337  -18.3019   18.6162 C   0  0  0  0  0  0  0  0  0  0  0  0
   10.6067  -17.7535   18.0877 C   0  0  2  0  0  0  0  0  0  0  0  0
   10.8264  -16.8391   17.0031 N   0  0  0  0  0  0  0  0  0  0  0  0
    9.9734  -17.0278   19.2121 C   0  0  0  0  0  0  0  0  0  0  0  0
   10.3059  -15.8162   19.4283 O   0  0  0  0  0  0  0  0  0  0  0  0
    6.8295  -18.5295   21.6565 O   0  0  0  0  0  0  0  0  0  0  0  0
    6.9337  -17.1817   21.3234 C   0  0  0  0  0  0  0  0  0  0  0  0
    8.3691  -16.7816   21.1032 C   0  0  2  0  0  0  0  0  0  0  0  0
    9.0137  -17.5718   20.0837 N   0  0  0  0  0  0  0  0  0  0  0  0
    9.1783  -16.8449   22.3334 C   0  0  0  0  0  0  0  0  0  0  0  0
   10.0593  -17.7318   22.4125 O   0  0  0  0  0  0  0  0  0  0  0  0
    9.0155  -15.9621   23.4246 N   0  0  0  0  0  0  0  0  0  0  0  0
    9.7721  -16.1810   24.6620 C   0  0  1  0  0  0  0  0  0  0  0  0
    9.6902  -14.8824   25.4472 C   0  0  0  0  0  0  0  0  0  0  0  0
    8.2920  -14.4927   25.5836 C   0  0  0  0  0  0  0  0  0  0  0  0
    7.1884  -15.3531   25.4802 C   0  0  0  0  0  0  0  0  0  0  0  0
    6.0951  -14.6499   25.7098 N   0  0  0  0  0  0  0  0  0  0  0  0
    6.3842  -13.3668   25.9617 C   0  0  0  0  0  0  0  0  0  0  0  0
    5.5823  -12.2637   26.2443 C   0  0  0  0  0  0  0  0  0  0  0  0
    6.1251  -11.0184   26.4566 C   0  0  0  0  0  0  0  0  0  0  0  0
    7.4977  -10.9009   26.3788 C   0  0  0  0  0  0  0  0  0  0  0  0
    8.2863  -12.0098   26.0965 C   0  0  0  0  0  0  0  0  0  0  0  0
    7.7695  -13.2682   25.8813 C   0  0  0  0  0  0  0  0  0  0  0  0
    9.3302  -17.3757   25.3475 C   0  0  0  0  0  0  0  0  0  0  0  0
    8.1723  -18.0643   25.0379 O   0  0  0  0  0  0  0  0  0  0  0  0
   10.0355  -17.8306   26.2979 O   0  0  0  0  0  0  0  0  0  0  0  0
  1  2  1  0
  2  3  1  0
  3  4  1  6
  5  6  2  0
  5  3  1  0
  7  8  1  0
  9  8  1  1
  9 10  1  0
 10  5  1  0
 11 13  1  0
 11  9  1  0
 12 11  2  0
 14 25  1  0
 14 13  1  0
 15 16  1  0
 14 15  1  1
 16 17  2  0
 16 24  1  0
 17 18  1  0
 18 19  1  0
 19 20  2  0
 20 21  1  0
 22 21  2  0
 23 22  1  0
 24 23  2  0
 24 19  1  0
 25 26  1  0
 27 25  2  0
M  END
$$$$
