SSW.pdb
     RDKit          3D

 27 28  0  0  1  0  0  0  0  0999 V2000
    8.7816  -11.6598   18.8901 O   0  0  0  0  0  0  0  0  0  0  0  0
    8.3542  -12.6845   19.7637 C   0  0  0  0  0  0  0  0  0  0  0  0
    8.5026  -14.0293   19.0493 C   0  0  2  0  0  0  0  0  0  0  0  0
    7.4943  -14.1866   18.0398 N   0  0  0  0  0  0  0  0  0  0  0  0
    8.3228  -15.0762   20.0807 C   0  0  0  0  0  0  0  0  0  0  0  0
    7.2217  -15.7174   20.1218 O   0  0  0  0  0  0  0  0  0  0  0  0
   10.9296  -17.7479   21.0346 O   0  0  0  0  0  0  0  0  0  0  0  0
    9.5906  -17.8397   21.4047 C   0  0  0  0  0  0  0  0  0  0  0  0
    9.0838  -16.5322   21.9546 C   0  0  2  0  0  0  0  0  0  0  0  0
    9.2841  -15.4335   21.0424 N   0  0  0  0  0  0  0  0  0  0  0  0
    9.6850  -16.1839   23.2544 C   0  0  0  0  0  0  0  0  0  0  0  0
   10.7404  -15.5093   23.2520 O   0  0  0  0  0  0  0  0  0  0  0  0
    9.1372  -16.5678   24.4990 N   0  0  0  0  0  0  0  0  0  0  0  0
    9.8869  -16.3218   25.7355 C   0  0  1  0  0  0  0  0  0  0  0  0
    8.8538  -16.2003   26.8435 C   0  0  0  0  0  0  0  0  0  0  0  0
    7.7494  -15.3695   26.3795 C   0  0  0  0  0  0  0  0  0  0  0  0
    6.5421  -15.8389   25.8401 C   0  0  0  0  0  0  0  0  0  0  0  0
    5.7734  -14.7971   25.5826 N   0  0  0  0  0  0  0  0  0  0  0  0
    6.3807  -13.6497   25.9113 C   0  0  0  0  0  0  0  0  0  0  0  0
    5.9825  -12.3184   25.8169 C   0  0  0  0  0  0  0  0  0  0  0  0
    6.8076  -11.2934   26.2158 C   0  0  0  0  0  0  0  0  0  0  0  0
    8.0486  -11.6329   26.7143 C   0  0  0  0  0  0  0  0  0  0  0  0
    8.4332  -12.9652   26.8035 C   0  0  0  0  0  0  0  0  0  0  0  0
    7.6268  -14.0112   26.4131 C   0  0  0  0  0  0  0  0  0  0  0  0
   10.9248  -17.3105   25.9299 C   0  0  0  0  0  0  0  0  0  0  0  0
   11.0888  -18.4296   25.1353 O   0  0  0  0  0  0  0  0  0  0  0  0
   11.7412  -17.1584   26.8880 O   0  0  0  0  0  0  0  0  0  0  0  0
  1  2  1  0
  2  3  1  0
  3  4  1  6
  5  6  2  0
  5  3  1  0
  7  8  1  0
  9  8  1  6
  9 10  1  0
 10  5  1  0
 11 13  1  0
 11  9  1  0
 12 11  2  0
 14 25  1  0
 14 13  1  0
 15 16  1  0
 14 15  1  1
 16 17  2  0
 16 24  1  0
 17 18  1  0
 18 19  1  0
 19 20  2  0
 20 21  1  0
 22 21  2  0
 23 22  1  0
 24 23  2  0
 24 19  1  0
 25 26  1  0
 27 25  2  0
M  END
$$$$
