SSW.pdb
     RDKit          3D

 27 28  0  0  1  0  0  0  0  0999 V2000
   10.5401  -13.6159   19.2389 O   0  0  0  0  0  0  0  0  0  0  0  0
    9.7231  -14.4130   18.4064 C   0  0  0  0  0  0  0  0  0  0  0  0
    8.2688  -13.9711   18.5810 C   0  0  2  0  0  0  0  0  0  0  0  0
    8.1427  -12.5503   18.4194 N   0  0  0  0  0  0  0  0  0  0  0  0
    7.8800  -14.3379   19.9617 C   0  0  0  0  0  0  0  0  0  0  0  0
    7.8616  -13.4312   20.8577 O   0  0  0  0  0  0  0  0  0  0  0  0
    7.0642  -18.2834   21.3496 O   0  0  0  0  0  0  0  0  0  0  0  0
    6.3885  -17.1945   21.8938 C   0  0  0  0  0  0  0  0  0  0  0  0
    7.1901  -15.9270   21.7531 C   0  0  2  0  0  0  0  0  0  0  0  0
    7.5207  -15.6308   20.3811 N   0  0  0  0  0  0  0  0  0  0  0  0
    8.4318  -15.9414   22.5468 C   0  0  0  0  0  0  0  0  0  0  0  0
    9.5227  -15.9044   21.9322 O   0  0  0  0  0  0  0  0  0  0  0  0
    8.4588  -15.9938   23.9585 N   0  0  0  0  0  0  0  0  0  0  0  0
    9.7420  -16.0878   24.6628 C   0  0  1  0  0  0  0  0  0  0  0  0
    9.5097  -15.5136   26.0507 C   0  0  0  0  0  0  0  0  0  0  0  0
    8.1547  -14.9814   26.1280 C   0  0  0  0  0  0  0  0  0  0  0  0
    6.9775  -15.7433   26.1816 C   0  0  0  0  0  0  0  0  0  0  0  0
    5.9558  -14.9152   26.2948 N   0  0  0  0  0  0  0  0  0  0  0  0
    6.3624  -13.6395   26.3207 C   0  0  0  0  0  0  0  0  0  0  0  0
    5.6672  -12.4363   26.4156 C   0  0  0  0  0  0  0  0  0  0  0  0
    6.3222  -11.2275   26.4073 C   0  0  0  0  0  0  0  0  0  0  0  0
    7.6977  -11.2498   26.3008 C   0  0  0  0  0  0  0  0  0  0  0  0
    8.3791  -12.4573   26.2073 C   0  0  0  0  0  0  0  0  0  0  0  0
    7.7488  -13.6819   26.2149 C   0  0  0  0  0  0  0  0  0  0  0  0
   10.2804  -17.4291   24.6039 C   0  0  0  0  0  0  0  0  0  0  0  0
   11.5749  -17.7617   24.9566 O   0  0  0  0  0  0  0  0  0  0  0  0
    9.5322  -18.3702   24.2013 O   0  0  0  0  0  0  0  0  0  0  0  0
  1  2  1  0
  2  3  1  0
  3  4  1  1
  5  6  2  0
  5  3  1  0
  7  8  1  0
  9  8  1  6
  9 10  1  0
 10  5  1  0
 11 13  1  0
 11  9  1  0
 12 11  2  0
 14 25  1  0
 14 13  1  0
 15 16  1  0
 14 15  1  1
 16 17  2  0
 16 24  1  0
 17 18  1  0
 18 19  1  0
 19 20  2  0
 20 21  1  0
 22 21  2  0
 23 22  1  0
 24 23  2  0
 24 19  1  0
 25 26  1  0
 27 25  2  0
M  END
$$$$
