SSW.pdb
     RDKit          3D

 27 28  0  0  1  0  0  0  0  0999 V2000
   14.0982  -14.4907   19.0727 O   0  0  0  0  0  0  0  0  0  0  0  0
   12.9891  -14.5946   19.9416 C   0  0  0  0  0  0  0  0  0  0  0  0
   11.8821  -15.3749   19.2298 C   0  0  2  0  0  0  0  0  0  0  0  0
   11.1409  -14.5207   18.3457 N   0  0  0  0  0  0  0  0  0  0  0  0
   10.9768  -15.8804   20.2867 C   0  0  0  0  0  0  0  0  0  0  0  0
   10.0859  -15.1005   20.7592 O   0  0  0  0  0  0  0  0  0  0  0  0
   11.1944  -19.7193   22.1270 O   0  0  0  0  0  0  0  0  0  0  0  0
    9.9635  -19.0985   21.9321 C   0  0  0  0  0  0  0  0  0  0  0  0
   10.1101  -17.6007   21.8678 C   0  0  2  0  0  0  0  0  0  0  0  0
   11.0151  -17.1774   20.8281 N   0  0  0  0  0  0  0  0  0  0  0  0
   10.5479  -17.0108   23.1455 C   0  0  0  0  0  0  0  0  0  0  0  0
   11.7564  -16.7050   23.2683 O   0  0  0  0  0  0  0  0  0  0  0  0
    9.6815  -16.7718   24.2358 N   0  0  0  0  0  0  0  0  0  0  0  0
   10.2252  -16.2919   25.5108 C   0  0  1  0  0  0  0  0  0  0  0  0
    9.9457  -14.7988   25.5586 C   0  0  0  0  0  0  0  0  0  0  0  0
    8.5087  -14.5842   25.6780 C   0  0  0  0  0  0  0  0  0  0  0  0
    7.5244  -15.5828   25.6229 C   0  0  0  0  0  0  0  0  0  0  0  0
    6.3493  -15.0139   25.8181 N   0  0  0  0  0  0  0  0  0  0  0  0
    6.4712  -13.6930   26.0016 C   0  0  0  0  0  0  0  0  0  0  0  0
    5.5338  -12.6881   26.2282 C   0  0  0  0  0  0  0  0  0  0  0  0
    5.9124  -11.3743   26.3734 C   0  0  0  0  0  0  0  0  0  0  0  0
    7.2591  -11.0867   26.2859 C   0  0  0  0  0  0  0  0  0  0  0  0
    8.1839  -12.0990   26.0600 C   0  0  0  0  0  0  0  0  0  0  0  0
    7.8329  -13.4226   25.9125 C   0  0  0  0  0  0  0  0  0  0  0  0
    9.7324  -17.0740   26.6234 C   0  0  0  0  0  0  0  0  0  0  0  0
   10.2077  -16.9680   27.9171 O   0  0  0  0  0  0  0  0  0  0  0  0
    8.8094  -17.9179   26.4152 O   0  0  0  0  0  0  0  0  0  0  0  0
  1  2  1  0
  2  3  1  0
  3  4  1  6
  5  6  2  0
  5  3  1  0
  7  8  1  0
  9  8  1  1
  9 10  1  0
 10  5  1  0
 11 13  1  0
 11  9  1  0
 12 11  2  0
 14 25  1  0
 14 13  1  0
 15 16  1  0
 14 15  1  1
 16 17  2  0
 16 24  1  0
 17 18  1  0
 18 19  1  0
 19 20  2  0
 20 21  1  0
 22 21  2  0
 23 22  1  0
 24 23  2  0
 24 19  1  0
 25 26  1  0
 27 25  2  0
M  END
$$$$
