SSW.pdb
     RDKit          3D

 27 28  0  0  1  0  0  0  0  0999 V2000
    7.3963  -13.3469   16.9291 O   0  0  0  0  0  0  0  0  0  0  0  0
    7.7118  -13.0740   18.2789 C   0  0  0  0  0  0  0  0  0  0  0  0
    8.9485  -13.8874   18.6658 C   0  0  2  0  0  0  0  0  0  0  0  0
    9.2752  -14.8400   17.6428 N   0  0  0  0  0  0  0  0  0  0  0  0
    8.6036  -14.6120   19.9100 C   0  0  0  0  0  0  0  0  0  0  0  0
    8.2025  -13.9453   20.9199 O   0  0  0  0  0  0  0  0  0  0  0  0
    9.0846  -18.7642   20.5289 O   0  0  0  0  0  0  0  0  0  0  0  0
    7.9788  -18.1281   21.0867 C   0  0  0  0  0  0  0  0  0  0  0  0
    8.2360  -16.6573   21.2854 C   0  0  2  0  0  0  0  0  0  0  0  0
    8.6820  -16.0056   20.0790 N   0  0  0  0  0  0  0  0  0  0  0  0
    9.2086  -16.3840   22.3585 C   0  0  0  0  0  0  0  0  0  0  0  0
   10.4096  -16.2291   22.0379 O   0  0  0  0  0  0  0  0  0  0  0  0
    8.8613  -16.2868   23.7247 N   0  0  0  0  0  0  0  0  0  0  0  0
    9.9137  -16.2254   24.7445 C   0  0  1  0  0  0  0  0  0  0  0  0
    9.7390  -14.8948   25.4580 C   0  0  0  0  0  0  0  0  0  0  0  0
    8.3168  -14.6350   25.6452 C   0  0  0  0  0  0  0  0  0  0  0  0
    7.2986  -15.6005   25.6260 C   0  0  0  0  0  0  0  0  0  0  0  0
    6.1530  -14.9958   25.8802 N   0  0  0  0  0  0  0  0  0  0  0  0
    6.3267  -13.6816   26.0701 C   0  0  0  0  0  0  0  0  0  0  0  0
    5.4342  -12.6492   26.3486 C   0  0  0  0  0  0  0  0  0  0  0  0
    5.8620  -11.3501   26.4884 C   0  0  0  0  0  0  0  0  0  0  0  0
    7.2121  -11.1055   26.3419 C   0  0  0  0  0  0  0  0  0  0  0  0
    8.0918  -12.1448   26.0645 C   0  0  0  0  0  0  0  0  0  0  0  0
    7.6910  -13.4546   25.9211 C   0  0  0  0  0  0  0  0  0  0  0  0
    9.9110  -17.4072   25.5787 C   0  0  0  0  0  0  0  0  0  0  0  0
    8.9480  -18.3970   25.5186 O   0  0  0  0  0  0  0  0  0  0  0  0
   10.8412  -17.5579   26.4271 O   0  0  0  0  0  0  0  0  0  0  0  0
  1  2  1  0
  2  3  1  0
  3  4  1  6
  5  6  2  0
  5  3  1  0
  7  8  1  0
  9  8  1  6
  9 10  1  0
 10  5  1  0
 11 13  1  0
 11  9  1  0
 12 11  2  0
 14 25  1  0
 14 13  1  0
 15 16  1  0
 14 15  1  1
 16 17  2  0
 16 24  1  0
 17 18  1  0
 18 19  1  0
 19 20  2  0
 20 21  1  0
 22 21  2  0
 23 22  1  0
 24 23  2  0
 24 19  1  0
 25 26  1  0
 27 25  2  0
M  END
$$$$
