SSW.pdb
     RDKit          3D

 27 28  0  0  1  0  0  0  0  0999 V2000
   10.3639  -13.9410   16.6715 O   0  0  0  0  0  0  0  0  0  0  0  0
    9.9104  -14.6047   17.8333 C   0  0  0  0  0  0  0  0  0  0  0  0
    8.4337  -14.2652   18.0451 C   0  0  2  0  0  0  0  0  0  0  0  0
    8.2211  -12.8467   17.9873 N   0  0  0  0  0  0  0  0  0  0  0  0
    8.0791  -14.7533   19.3972 C   0  0  0  0  0  0  0  0  0  0  0  0
    7.8789  -13.9032   20.3259 O   0  0  0  0  0  0  0  0  0  0  0  0
    7.7645  -18.8420   20.5928 O   0  0  0  0  0  0  0  0  0  0  0  0
    6.8804  -17.8805   21.0748 C   0  0  0  0  0  0  0  0  0  0  0  0
    7.5058  -16.5102   21.0691 C   0  0  2  0  0  0  0  0  0  0  0  0
    7.9408  -16.1059   19.7551 N   0  0  0  0  0  0  0  0  0  0  0  0
    8.6418  -16.3931   22.0007 C   0  0  0  0  0  0  0  0  0  0  0  0
    9.7990  -16.4965   21.5325 O   0  0  0  0  0  0  0  0  0  0  0  0
    8.4972  -16.1708   23.3886 N   0  0  0  0  0  0  0  0  0  0  0  0
    9.6865  -16.0686   24.2410 C   0  0  1  0  0  0  0  0  0  0  0  0
    9.6494  -14.6811   24.8601 C   0  0  0  0  0  0  0  0  0  0  0  0
    8.3086  -14.4196   25.3691 C   0  0  0  0  0  0  0  0  0  0  0  0
    7.3303  -15.3897   25.6355 C   0  0  0  0  0  0  0  0  0  0  0  0
    6.2686  -14.7793   26.1284 N   0  0  0  0  0  0  0  0  0  0  0  0
    6.4618  -13.4569   26.2134 C   0  0  0  0  0  0  0  0  0  0  0  0
    5.6451  -12.4169   26.6508 C   0  0  0  0  0  0  0  0  0  0  0  0
    6.0735  -11.1106   26.6274 C   0  0  0  0  0  0  0  0  0  0  0  0
    7.3460  -10.8667   26.1529 C   0  0  0  0  0  0  0  0  0  0  0  0
    8.1507  -11.9137   25.7200 C   0  0  0  0  0  0  0  0  0  0  0  0
    7.7479  -13.2306   25.7339 C   0  0  0  0  0  0  0  0  0  0  0  0
    9.7744  -17.1811   25.1614 C   0  0  0  0  0  0  0  0  0  0  0  0
   10.8817  -17.4569   25.9415 O   0  0  0  0  0  0  0  0  0  0  0  0
    8.7836  -17.9650   25.2681 O   0  0  0  0  0  0  0  0  0  0  0  0
  1  2  1  0
  2  3  1  0
  3  4  1  1
  5  6  2  0
  5  3  1  0
  7  8  1  0
  9  8  1  6
  9 10  1  0
 10  5  1  0
 11 13  1  0
 11  9  1  0
 12 11  2  0
 14 25  1  0
 14 13  1  0
 15 16  1  0
 14 15  1  1
 16 17  2  0
 16 24  1  0
 17 18  1  0
 18 19  1  0
 19 20  2  0
 20 21  1  0
 22 21  2  0
 23 22  1  0
 24 23  2  0
 24 19  1  0
 25 26  1  0
 27 25  2  0
M  END
$$$$
