SSW.pdb
     RDKit          3D

 27 28  0  0  1  0  0  0  0  0999 V2000
    7.7848  -14.7657   19.0963 O   0  0  0  0  0  0  0  0  0  0  0  0
    8.6802  -15.3427   18.1681 C   0  0  0  0  0  0  0  0  0  0  0  0
    8.5465  -16.8650   18.2417 C   0  0  2  0  0  0  0  0  0  0  0  0
    7.1823  -17.2689   18.0512 N   0  0  0  0  0  0  0  0  0  0  0  0
    8.9837  -17.2610   19.5996 C   0  0  0  0  0  0  0  0  0  0  0  0
    8.1020  -17.4388   20.5031 O   0  0  0  0  0  0  0  0  0  0  0  0
   13.0027  -17.5299   20.9708 O   0  0  0  0  0  0  0  0  0  0  0  0
   12.0750  -18.4933   21.3573 C   0  0  0  0  0  0  0  0  0  0  0  0
   10.6696  -17.9544   21.2989 C   0  0  2  0  0  0  0  0  0  0  0  0
   10.3194  -17.4628   19.9893 N   0  0  0  0  0  0  0  0  0  0  0  0
   10.4213  -16.8889   22.2865 C   0  0  0  0  0  0  0  0  0  0  0  0
   10.5124  -15.6997   21.9036 O   0  0  0  0  0  0  0  0  0  0  0  0
   10.0867  -17.1349   23.6371 N   0  0  0  0  0  0  0  0  0  0  0  0
    9.8857  -16.0106   24.5575 C   0  0  1  0  0  0  0  0  0  0  0  0
    8.4364  -16.0832   25.0091 C   0  0  0  0  0  0  0  0  0  0  0  0
    8.2121  -15.0972   26.0592 C   0  0  0  0  0  0  0  0  0  0  0  0
    8.6998  -15.1745   27.3727 C   0  0  0  0  0  0  0  0  0  0  0  0
    8.3341  -14.0795   28.0129 N   0  0  0  0  0  0  0  0  0  0  0  0
    7.6285  -13.2633   27.2196 C   0  0  0  0  0  0  0  0  0  0  0  0
    7.0320  -12.0247   27.4430 C   0  0  0  0  0  0  0  0  0  0  0  0
    6.3335  -11.3763   26.4519 C   0  0  0  0  0  0  0  0  0  0  0  0
    6.2446  -11.9996   25.2240 C   0  0  0  0  0  0  0  0  0  0  0  0
    6.8450  -13.2352   25.0144 C   0  0  0  0  0  0  0  0  0  0  0  0
    7.5514  -13.9058   25.9881 C   0  0  0  0  0  0  0  0  0  0  0  0
   10.8850  -15.9985   25.6033 C   0  0  0  0  0  0  0  0  0  0  0  0
   11.5210  -17.1287   26.0818 O   0  0  0  0  0  0  0  0  0  0  0  0
   11.2062  -14.8898   26.1280 O   0  0  0  0  0  0  0  0  0  0  0  0
  1  2  1  0
  2  3  1  0
  3  4  1  1
  5  6  2  0
  5  3  1  0
  7  8  1  0
  9  8  1  6
  9 10  1  0
 10  5  1  0
 11 13  1  0
 11  9  1  0
 12 11  2  0
 14 25  1  0
 14 13  1  0
 15 16  1  0
 14 15  1  1
 16 17  2  0
 16 24  1  0
 17 18  1  0
 18 19  1  0
 19 20  2  0
 20 21  1  0
 22 21  2  0
 23 22  1  0
 24 23  2  0
 24 19  1  0
 25 26  1  0
 27 25  2  0
M  END
$$$$
