SSW.pdb
     RDKit          3D

 27 28  0  0  1  0  0  0  0  0999 V2000
   10.2951  -12.7912   19.5654 O   0  0  0  0  0  0  0  0  0  0  0  0
    9.7281  -13.7664   18.7148 C   0  0  0  0  0  0  0  0  0  0  0  0
    8.2268  -13.8487   18.9984 C   0  0  2  0  0  0  0  0  0  0  0  0
    7.6740  -12.5415   19.2129 N   0  0  0  0  0  0  0  0  0  0  0  0
    8.0752  -14.6477   20.2356 C   0  0  0  0  0  0  0  0  0  0  0  0
    7.4991  -14.1197   21.2429 O   0  0  0  0  0  0  0  0  0  0  0  0
    9.4538  -18.6229   20.7701 O   0  0  0  0  0  0  0  0  0  0  0  0
    8.2281  -18.2321   21.3024 C   0  0  0  0  0  0  0  0  0  0  0  0
    8.1946  -16.7499   21.5686 C   0  0  2  0  0  0  0  0  0  0  0  0
    8.5223  -15.9704   20.4006 N   0  0  0  0  0  0  0  0  0  0  0  0
    9.0823  -16.3443   22.6729 C   0  0  0  0  0  0  0  0  0  0  0  0
   10.1293  -15.7191   22.3861 O   0  0  0  0  0  0  0  0  0  0  0  0
    8.8175  -16.6207   24.0330 N   0  0  0  0  0  0  0  0  0  0  0  0
    9.8081  -16.2716   25.0569 C   0  0  1  0  0  0  0  0  0  0  0  0
    9.0412  -16.1298   26.3613 C   0  0  0  0  0  0  0  0  0  0  0  0
    7.8386  -15.3400   26.1263 C   0  0  0  0  0  0  0  0  0  0  0  0
    6.5824  -15.8493   25.7633 C   0  0  0  0  0  0  0  0  0  0  0  0
    5.7347  -14.8401   25.6893 N   0  0  0  0  0  0  0  0  0  0  0  0
    6.3337  -13.6777   25.9779 C   0  0  0  0  0  0  0  0  0  0  0  0
    5.8641  -12.3671   26.0208 C   0  0  0  0  0  0  0  0  0  0  0  0
    6.6949  -11.3181   26.3369 C   0  0  0  0  0  0  0  0  0  0  0  0
    8.0150  -11.6120   26.6105 C   0  0  0  0  0  0  0  0  0  0  0  0
    8.4703  -12.9241   26.5646 C   0  0  0  0  0  0  0  0  0  0  0  0
    7.6603  -13.9934   26.2527 C   0  0  0  0  0  0  0  0  0  0  0  0
   10.9155  -17.2023   25.0602 C   0  0  0  0  0  0  0  0  0  0  0  0
   12.1015  -16.9945   25.7392 O   0  0  0  0  0  0  0  0  0  0  0  0
   10.8097  -18.2795   24.3999 O   0  0  0  0  0  0  0  0  0  0  0  0
  1  2  1  0
  2  3  1  0
  3  4  1  1
  5  6  2  0
  5  3  1  0
  7  8  1  0
  9  8  1  6
  9 10  1  0
 10  5  1  0
 11 13  1  0
 11  9  1  0
 12 11  2  0
 14 25  1  0
 14 13  1  0
 15 16  1  0
 14 15  1  1
 16 17  2  0
 16 24  1  0
 17 18  1  0
 18 19  1  0
 19 20  2  0
 20 21  1  0
 22 21  2  0
 23 22  1  0
 24 23  2  0
 24 19  1  0
 25 26  1  0
 27 25  2  0
M  END
$$$$
