SSW.pdb
     RDKit          3D

 27 28  0  0  1  0  0  0  0  0999 V2000
   10.5532  -13.6583   19.3240 O   0  0  0  0  0  0  0  0  0  0  0  0
    9.5190  -12.7990   18.8902 C   0  0  0  0  0  0  0  0  0  0  0  0
    8.2943  -13.6464   18.5398 C   0  0  2  0  0  0  0  0  0  0  0  0
    7.2172  -12.8206   18.0726 N   0  0  0  0  0  0  0  0  0  0  0  0
    7.8789  -14.3231   19.7894 C   0  0  0  0  0  0  0  0  0  0  0  0
    7.2610  -13.6498   20.6782 O   0  0  0  0  0  0  0  0  0  0  0  0
    8.0632  -18.5326   20.6532 O   0  0  0  0  0  0  0  0  0  0  0  0
    7.1184  -17.6455   21.1618 C   0  0  0  0  0  0  0  0  0  0  0  0
    7.7005  -16.2675   21.3380 C   0  0  2  0  0  0  0  0  0  0  0  0
    8.1124  -15.6769   20.0887 N   0  0  0  0  0  0  0  0  0  0  0  0
    8.8395  -16.2401   22.2729 C   0  0  0  0  0  0  0  0  0  0  0  0
    9.9913  -16.1299   21.7930 O   0  0  0  0  0  0  0  0  0  0  0  0
    8.7036  -16.3306   23.6764 N   0  0  0  0  0  0  0  0  0  0  0  0
    9.8977  -16.4335   24.5219 C   0  0  1  0  0  0  0  0  0  0  0  0
    9.9784  -15.1339   25.3058 C   0  0  0  0  0  0  0  0  0  0  0  0
    8.6853  -14.8662   25.9235 C   0  0  0  0  0  0  0  0  0  0  0  0
    7.9896  -15.7364   26.7767 C   0  0  0  0  0  0  0  0  0  0  0  0
    6.8862  -15.1297   27.1729 N   0  0  0  0  0  0  0  0  0  0  0  0
    6.7865  -13.9037   26.6434 C   0  0  0  0  0  0  0  0  0  0  0  0
    5.8167  -12.9104   26.7564 C   0  0  0  0  0  0  0  0  0  0  0  0
    5.9349  -11.7141   26.0891 C   0  0  0  0  0  0  0  0  0  0  0  0
    7.0527  -11.5330   25.3006 C   0  0  0  0  0  0  0  0  0  0  0  0
    8.0130  -12.5321   25.1971 C   0  0  0  0  0  0  0  0  0  0  0  0
    7.9208  -13.7384   25.8553 C   0  0  0  0  0  0  0  0  0  0  0  0
    9.8916  -17.6535   25.2991 C   0  0  0  0  0  0  0  0  0  0  0  0
   10.9979  -18.1620   25.9536 O   0  0  0  0  0  0  0  0  0  0  0  0
    8.8125  -18.3127   25.3923 O   0  0  0  0  0  0  0  0  0  0  0  0
  1  2  1  0
  2  3  1  0
  3  4  1  1
  5  6  2  0
  5  3  1  0
  7  8  1  0
  9  8  1  6
  9 10  1  0
 10  5  1  0
 11 13  1  0
 11  9  1  0
 12 11  2  0
 14 25  1  0
 14 13  1  0
 15 16  1  0
 14 15  1  1
 16 17  2  0
 16 24  1  0
 17 18  1  0
 18 19  1  0
 19 20  2  0
 20 21  1  0
 22 21  2  0
 23 22  1  0
 24 23  2  0
 24 19  1  0
 25 26  1  0
 27 25  2  0
M  END
$$$$
