SSW.pdb
     RDKit          3D

 27 28  0  0  1  0  0  0  0  0999 V2000
   12.6376  -18.1865   19.0510 O   0  0  0  0  0  0  0  0  0  0  0  0
   11.4848  -18.6657   18.3896 C   0  0  0  0  0  0  0  0  0  0  0  0
   10.7155  -17.4716   17.8212 C   0  0  2  0  0  0  0  0  0  0  0  0
   11.5860  -16.6129   17.0692 N   0  0  0  0  0  0  0  0  0  0  0  0
   10.1817  -16.7234   18.9819 C   0  0  0  0  0  0  0  0  0  0  0  0
   10.6489  -15.5646   19.2354 O   0  0  0  0  0  0  0  0  0  0  0  0
    6.7716  -17.8688   21.2056 O   0  0  0  0  0  0  0  0  0  0  0  0
    7.1006  -16.5360   20.9741 C   0  0  0  0  0  0  0  0  0  0  0  0
    8.5915  -16.3513   20.8643 C   0  0  2  0  0  0  0  0  0  0  0  0
    9.1800  -17.1911   19.8506 N   0  0  0  0  0  0  0  0  0  0  0  0
    9.2947  -16.5839   22.1385 C   0  0  0  0  0  0  0  0  0  0  0  0
   10.0606  -17.5721   22.2153 O   0  0  0  0  0  0  0  0  0  0  0  0
    9.1529  -15.7554   23.2743 N   0  0  0  0  0  0  0  0  0  0  0  0
    9.9011  -16.0585   24.4990 C   0  0  1  0  0  0  0  0  0  0  0  0
    9.8461  -14.8031   25.3539 C   0  0  0  0  0  0  0  0  0  0  0  0
    8.4572  -14.5108   25.6867 C   0  0  0  0  0  0  0  0  0  0  0  0
    7.4278  -15.4568   25.8081 C   0  0  0  0  0  0  0  0  0  0  0  0
    6.3266  -14.8232   26.1668 N   0  0  0  0  0  0  0  0  0  0  0  0
    6.5409  -13.5076   26.2961 C   0  0  0  0  0  0  0  0  0  0  0  0
    5.7007  -12.4508   26.6383 C   0  0  0  0  0  0  0  0  0  0  0  0
    6.1618  -11.1566   26.6908 C   0  0  0  0  0  0  0  0  0  0  0  0
    7.4915  -10.9421   26.3908 C   0  0  0  0  0  0  0  0  0  0  0  0
    8.3190  -12.0057   26.0513 C   0  0  0  0  0  0  0  0  0  0  0  0
    7.8842  -13.3112   25.9926 C   0  0  0  0  0  0  0  0  0  0  0  0
    9.4306  -17.2785   25.1177 C   0  0  0  0  0  0  0  0  0  0  0  0
   10.1700  -18.0301   26.0116 O   0  0  0  0  0  0  0  0  0  0  0  0
    8.2707  -17.7016   24.8291 O   0  0  0  0  0  0  0  0  0  0  0  0
  1  2  1  0
  2  3  1  0
  3  4  1  1
  5  6  2  0
  5  3  1  0
  7  8  1  0
  9  8  1  1
  9 10  1  0
 10  5  1  0
 11 13  1  0
 11  9  1  0
 12 11  2  0
 14 25  1  0
 14 13  1  0
 15 16  1  0
 14 15  1  1
 16 17  2  0
 16 24  1  0
 17 18  1  0
 18 19  1  0
 19 20  2  0
 20 21  1  0
 22 21  2  0
 23 22  1  0
 24 23  2  0
 24 19  1  0
 25 26  1  0
 27 25  2  0
M  END
$$$$
