SSW.pdb
     RDKit          3D

 27 28  0  0  1  0  0  0  0  0999 V2000
    8.1623  -12.2421   17.2591 O   0  0  0  0  0  0  0  0  0  0  0  0
    8.2695  -13.2394   18.2540 C   0  0  0  0  0  0  0  0  0  0  0  0
    8.7320  -14.5401   17.5942 C   0  0  2  0  0  0  0  0  0  0  0  0
    7.6762  -15.1226   16.8153 N   0  0  0  0  0  0  0  0  0  0  0  0
    9.0903  -15.4654   18.6931 C   0  0  0  0  0  0  0  0  0  0  0  0
    8.1689  -16.1526   19.2446 O   0  0  0  0  0  0  0  0  0  0  0  0
   12.9746  -15.9408   20.3864 O   0  0  0  0  0  0  0  0  0  0  0  0
   12.1060  -17.0246   20.2892 C   0  0  0  0  0  0  0  0  0  0  0  0
   10.6688  -16.5742   20.2709 C   0  0  2  0  0  0  0  0  0  0  0  0
   10.3900  -15.6568   19.1939 N   0  0  0  0  0  0  0  0  0  0  0  0
   10.2437  -15.9574   21.5401 C   0  0  0  0  0  0  0  0  0  0  0  0
   10.4798  -14.7389   21.7096 O   0  0  0  0  0  0  0  0  0  0  0  0
    9.5861  -16.6630   22.5727 N   0  0  0  0  0  0  0  0  0  0  0  0
    9.1699  -15.9587   23.7901 C   0  0  1  0  0  0  0  0  0  0  0  0
    7.7017  -15.6137   23.6024 C   0  0  0  0  0  0  0  0  0  0  0  0
    7.1712  -15.0822   24.8519 C   0  0  0  0  0  0  0  0  0  0  0  0
    6.4548  -15.8115   25.8132 C   0  0  0  0  0  0  0  0  0  0  0  0
    6.1855  -15.0065   26.8242 N   0  0  0  0  0  0  0  0  0  0  0  0
    6.6719  -13.7770   26.6118 C   0  0  0  0  0  0  0  0  0  0  0  0
    6.6311  -12.6094   27.3701 C   0  0  0  0  0  0  0  0  0  0  0  0
    7.2042  -11.4429   26.9213 C   0  0  0  0  0  0  0  0  0  0  0  0
    7.8228  -11.4712   25.6882 C   0  0  0  0  0  0  0  0  0  0  0  0
    7.8567  -12.6430   24.9421 C   0  0  0  0  0  0  0  0  0  0  0  0
    7.2927  -13.8252   25.3678 C   0  0  0  0  0  0  0  0  0  0  0  0
    9.5063  -16.7125   24.9781 C   0  0  0  0  0  0  0  0  0  0  0  0
    9.8111  -16.1409   26.1991 O   0  0  0  0  0  0  0  0  0  0  0  0
    9.5321  -17.9784   24.9110 O   0  0  0  0  0  0  0  0  0  0  0  0
  1  2  1  0
  2  3  1  0
  3  4  1  1
  5  6  2  0
  5  3  1  0
  7  8  1  0
  9  8  1  1
  9 10  1  0
 10  5  1  0
 11 13  1  0
 11  9  1  0
 12 11  2  0
 14 25  1  0
 14 13  1  0
 15 16  1  0
 14 15  1  6
 16 17  2  0
 16 24  1  0
 17 18  1  0
 18 19  1  0
 19 20  2  0
 20 21  1  0
 22 21  2  0
 23 22  1  0
 24 23  2  0
 24 19  1  0
 25 26  1  0
 27 25  2  0
M  END
$$$$
