VKH.pdb
     RDKit          3D

 27 27  0  0  1  0  0  0  0  0999 V2000
    9.7974  -18.2811   14.8559 C   0  0  0  0  0  0  0  0  0  0  0  0
    9.3820  -18.2324   16.3143 C   0  0  1  0  0  0  0  0  0  0  0  0
   10.0940  -17.0574   16.9375 C   0  0  0  0  0  0  0  0  0  0  0  0
    7.8832  -18.0795   16.3508 C   0  0  2  0  0  0  0  0  0  0  0  0
    7.4633  -16.9292   15.5418 N   0  0  0  0  0  0  0  0  0  0  0  0
    7.3389  -17.9717   17.7117 C   0  0  0  0  0  0  0  0  0  0  0  0
    7.2258  -16.8514   18.2897 O   0  0  0  0  0  0  0  0  0  0  0  0
    6.9327  -19.1460   18.3904 N   0  0  0  0  0  0  0  0  0  0  0  0
    6.3587  -19.1278   19.7541 C   0  0  1  0  0  0  0  0  0  0  0  0
    5.1668  -20.0694   19.7422 C   0  0  0  0  0  0  0  0  0  0  0  0
    4.0199  -19.5443   18.9753 C   0  0  0  0  0  0  0  0  0  0  0  0
    2.8730  -20.5608   19.0466 C   0  0  0  0  0  0  0  0  0  0  0  0
    1.6292  -20.0770   18.3700 C   0  0  0  0  0  0  0  0  0  0  0  0
    0.6043  -21.1005   18.5610 N   0  0  0  0  0  0  0  0  0  0  0  0
    7.3824  -19.4413   20.7500 C   0  0  0  0  0  0  0  0  0  0  0  0
    8.4621  -19.9771   20.3589 O   0  0  0  0  0  0  0  0  0  0  0  0
    7.3043  -19.2038   22.1454 N   0  0  0  0  0  0  0  0  0  0  0  0
    8.4682  -18.8021   22.9279 C   0  0  1  0  0  0  0  0  0  0  0  0
    8.9018  -17.4317   22.3904 C   0  0  0  0  0  0  0  0  0  0  0  0
   10.1314  -16.9692   23.0643 C   0  0  0  0  0  0  0  0  0  0  0  0
   10.8099  -17.6605   24.0466 C   0  0  0  0  0  0  0  0  0  0  0  0
   11.8515  -16.8961   24.3773 N   0  0  0  0  0  0  0  0  0  0  0  0
   11.8228  -15.7758   23.6322 C   0  0  0  0  0  0  0  0  0  0  0  0
   10.7485  -15.8069   22.8028 N   0  0  0  0  0  0  0  0  0  0  0  0
    8.1317  -18.6547   24.3644 C   0  0  0  0  0  0  0  0  0  0  0  0
    9.0491  -18.5821   25.2194 O   0  0  0  0  0  0  0  0  0  0  0  0
    6.8352  -18.5882   24.8558 O   0  0  0  0  0  0  0  0  0  0  0  0
  2  1  1  6
  2  4  1  0
  3  2  1  0
  4  5  1  6
  6  7  2  0
  6  4  1  0
  8  6  1  0
  9 15  1  0
  9  8  1  0
  9 10  1  6
 11 12  1  0
 11 10  1  0
 13 14  1  0
 13 12  1  0
 15 17  1  0
 16 15  2  0
 17 18  1  0
 18 25  1  0
 18 19  1  6
 20 19  1  0
 20 21  2  0
 22 21  1  0
 23 22  1  0
 24 23  2  0
 24 20  1  0
 25 26  2  0
 25 27  1  0
M  END
$$$$
