VKH.pdb
     RDKit          3D

 27 27  0  0  1  0  0  0  0  0999 V2000
    8.9219  -21.8120   17.7350 C   0  0  0  0  0  0  0  0  0  0  0  0
    8.3412  -21.8566   19.1359 C   0  0  1  0  0  0  0  0  0  0  0  0
    9.4359  -21.4292   20.0818 C   0  0  0  0  0  0  0  0  0  0  0  0
    7.1610  -20.9198   19.1643 C   0  0  2  0  0  0  0  0  0  0  0  0
    7.5315  -19.6086   18.6190 N   0  0  0  0  0  0  0  0  0  0  0  0
    6.5669  -20.7673   20.4999 C   0  0  0  0  0  0  0  0  0  0  0  0
    6.9070  -19.8211   21.2686 O   0  0  0  0  0  0  0  0  0  0  0  0
    5.5936  -21.6986   20.9356 N   0  0  0  0  0  0  0  0  0  0  0  0
    5.0772  -21.7316   22.3218 C   0  0  1  0  0  0  0  0  0  0  0  0
    3.6288  -22.1820   22.2411 C   0  0  0  0  0  0  0  0  0  0  0  0
    2.9773  -22.2817   23.5620 C   0  0  0  0  0  0  0  0  0  0  0  0
    1.5160  -22.7027   23.3599 C   0  0  0  0  0  0  0  0  0  0  0  0
    0.7555  -22.7856   24.6458 C   0  0  0  0  0  0  0  0  0  0  0  0
   -0.6137  -23.1749   24.3167 N   0  0  0  0  0  0  0  0  0  0  0  0
    5.9332  -22.5569   23.1728 C   0  0  0  0  0  0  0  0  0  0  0  0
    6.5043  -23.5649   22.6593 O   0  0  0  0  0  0  0  0  0  0  0  0
    6.2086  -22.3501   24.5480 N   0  0  0  0  0  0  0  0  0  0  0  0
    7.5584  -22.4572   25.0910 C   0  0  1  0  0  0  0  0  0  0  0  0
    8.4050  -21.4044   24.3630 C   0  0  0  0  0  0  0  0  0  0  0  0
    9.6021  -22.0213   23.7579 C   0  0  0  0  0  0  0  0  0  0  0  0
    9.9638  -23.3469   23.8803 C   0  0  0  0  0  0  0  0  0  0  0  0
   11.0957  -23.4817   23.1882 N   0  0  0  0  0  0  0  0  0  0  0  0
   11.4252  -22.2898   22.6570 C   0  0  0  0  0  0  0  0  0  0  0  0
   10.4970  -21.3627   23.0058 N   0  0  0  0  0  0  0  0  0  0  0  0
    7.5850  -22.1551   26.5424 C   0  0  0  0  0  0  0  0  0  0  0  0
    8.6346  -22.3494   27.2045 O   0  0  0  0  0  0  0  0  0  0  0  0
    6.5013  -21.6563   27.2521 O   0  0  0  0  0  0  0  0  0  0  0  0
  2  1  1  6
  2  4  1  0
  3  2  1  0
  4  5  1  1
  6  7  2  0
  6  4  1  0
  8  6  1  0
  9 15  1  0
  9  8  1  0
  9 10  1  6
 11 12  1  0
 11 10  1  0
 13 14  1  0
 13 12  1  0
 15 17  1  0
 16 15  2  0
 17 18  1  0
 18 25  1  0
 18 19  1  6
 20 19  1  0
 20 21  2  0
 22 21  1  0
 23 22  1  0
 24 23  2  0
 24 20  1  0
 25 26  2  0
 25 27  1  0
M  END
$$$$
