VKH.pdb
     RDKit          3D

 27 27  0  0  1  0  0  0  0  0999 V2000
    7.7367  -12.5070   25.6855 C   0  0  0  0  0  0  0  0  0  0  0  0
    6.8559  -13.4157   26.5223 C   0  0  1  0  0  0  0  0  0  0  0  0
    5.9245  -12.5267   27.3084 C   0  0  0  0  0  0  0  0  0  0  0  0
    6.1167  -14.3244   25.5740 C   0  0  2  0  0  0  0  0  0  0  0  0
    5.2627  -15.2586   26.3169 N   0  0  0  0  0  0  0  0  0  0  0  0
    7.0011  -15.0594   24.6589 C   0  0  0  0  0  0  0  0  0  0  0  0
    7.1202  -16.3176   24.7258 O   0  0  0  0  0  0  0  0  0  0  0  0
    7.7352  -14.3446   23.6817 N   0  0  0  0  0  0  0  0  0  0  0  0
    8.4833  -15.0107   22.5927 C   0  0  1  0  0  0  0  0  0  0  0  0
    8.7478  -13.9561   21.5318 C   0  0  0  0  0  0  0  0  0  0  0  0
    8.1106  -14.2635   20.2362 C   0  0  0  0  0  0  0  0  0  0  0  0
    8.8817  -13.5404   19.1243 C   0  0  0  0  0  0  0  0  0  0  0  0
    8.3144  -13.8006   17.7644 C   0  0  0  0  0  0  0  0  0  0  0  0
    8.9393  -12.8533   16.8443 N   0  0  0  0  0  0  0  0  0  0  0  0
    9.6777  -15.6725   23.1155 C   0  0  0  0  0  0  0  0  0  0  0  0
   10.5584  -16.0673   22.2943 O   0  0  0  0  0  0  0  0  0  0  0  0
    9.9741  -15.9276   24.4782 N   0  0  0  0  0  0  0  0  0  0  0  0
   11.1981  -16.6067   24.8895 C   0  0  1  0  0  0  0  0  0  0  0  0
   11.1056  -16.7865   26.4107 C   0  0  0  0  0  0  0  0  0  0  0  0
   10.7425  -15.5152   27.0678 C   0  0  0  0  0  0  0  0  0  0  0  0
   10.7958  -14.2694   26.4777 C   0  0  0  0  0  0  0  0  0  0  0  0
   10.3885  -13.4066   27.4095 N   0  0  0  0  0  0  0  0  0  0  0  0
   10.0939  -14.0867   28.5328 C   0  0  0  0  0  0  0  0  0  0  0  0
   10.3111  -15.4119   28.3341 N   0  0  0  0  0  0  0  0  0  0  0  0
   11.3100  -17.9477   24.2670 C   0  0  0  0  0  0  0  0  0  0  0  0
   12.3033  -18.6747   24.5173 O   0  0  0  0  0  0  0  0  0  0  0  0
   10.3686  -18.4817   23.3978 O   0  0  0  0  0  0  0  0  0  0  0  0
  2  1  1  6
  2  4  1  0
  3  2  1  0
  4  5  1  1
  6  7  2  0
  6  4  1  0
  8  6  1  0
  9 15  1  0
  9  8  1  0
  9 10  1  6
 11 12  1  0
 11 10  1  0
 13 14  1  0
 13 12  1  0
 15 17  1  0
 16 15  2  0
 17 18  1  0
 18 25  1  0
 18 19  1  1
 20 19  1  0
 20 21  2  0
 22 21  1  0
 23 22  1  0
 24 23  2  0
 24 20  1  0
 25 26  2  0
 25 27  1  0
M  END
$$$$
