VKH.pdb
     RDKit          3D

 27 27  0  0  1  0  0  0  0  0999 V2000
    9.9489  -15.3896   17.0205 C   0  0  0  0  0  0  0  0  0  0  0  0
    9.3581  -14.0162   17.2786 C   0  0  1  0  0  0  0  0  0  0  0  0
    8.9532  -13.4507   15.9400 C   0  0  0  0  0  0  0  0  0  0  0  0
    8.1821  -14.1984   18.2034 C   0  0  2  0  0  0  0  0  0  0  0  0
    7.4862  -12.9226   18.4084 N   0  0  0  0  0  0  0  0  0  0  0  0
    8.5418  -14.7967   19.4966 C   0  0  0  0  0  0  0  0  0  0  0  0
    9.0117  -14.0953   20.4396 O   0  0  0  0  0  0  0  0  0  0  0  0
    8.3588  -16.1870   19.6916 N   0  0  0  0  0  0  0  0  0  0  0  0
    8.7944  -16.8904   20.9184 C   0  0  1  0  0  0  0  0  0  0  0  0
    8.1213  -18.2521   20.9071 C   0  0  0  0  0  0  0  0  0  0  0  0
    8.4958  -19.0943   22.0603 C   0  0  0  0  0  0  0  0  0  0  0  0
    7.7119  -20.4108   21.9837 C   0  0  0  0  0  0  0  0  0  0  0  0
    7.9687  -21.3051   23.1556 C   0  0  0  0  0  0  0  0  0  0  0  0
    6.6705  -21.6590   23.7248 N   0  0  0  0  0  0  0  0  0  0  0  0
   10.2537  -16.9245   21.0042 C   0  0  0  0  0  0  0  0  0  0  0  0
   10.9124  -17.2499   19.9718 O   0  0  0  0  0  0  0  0  0  0  0  0
   11.0402  -16.6222   22.1443 N   0  0  0  0  0  0  0  0  0  0  0  0
   12.4961  -16.7139   22.1259 C   0  0  1  0  0  0  0  0  0  0  0  0
   13.0231  -15.2730   22.1610 C   0  0  0  0  0  0  0  0  0  0  0  0
   13.0345  -14.6857   20.8065 C   0  0  0  0  0  0  0  0  0  0  0  0
   14.1637  -14.4481   20.0504 C   0  0  0  0  0  0  0  0  0  0  0  0
   13.7314  -13.9165   18.9063 N   0  0  0  0  0  0  0  0  0  0  0  0
   12.3892  -13.8267   18.9482 C   0  0  0  0  0  0  0  0  0  0  0  0
   11.9368  -14.3058   20.1351 N   0  0  0  0  0  0  0  0  0  0  0  0
   13.0100  -17.4280   23.3194 C   0  0  0  0  0  0  0  0  0  0  0  0
   12.2159  -17.7973   24.2198 O   0  0  0  0  0  0  0  0  0  0  0  0
   14.3488  -17.7311   23.5266 O   0  0  0  0  0  0  0  0  0  0  0  0
  2  1  1  6
  2  4  1  0
  3  2  1  0
  4  5  1  1
  6  7  2  0
  6  4  1  0
  8  6  1  0
  9 15  1  0
  9  8  1  0
  9 10  1  6
 11 12  1  0
 11 10  1  0
 13 14  1  0
 13 12  1  0
 15 17  1  0
 16 15  2  0
 17 18  1  0
 18 25  1  0
 18 19  1  1
 20 19  1  0
 20 21  2  0
 22 21  1  0
 23 22  1  0
 24 23  2  0
 24 20  1  0
 25 26  2  0
 25 27  1  0
M  END
$$$$
