VKH.pdb
     RDKit          3D

 27 27  0  0  1  0  0  0  0  0999 V2000
    9.4041  -12.0921   18.7096 C   0  0  0  0  0  0  0  0  0  0  0  0
    8.8898  -12.9950   19.8151 C   0  0  1  0  0  0  0  0  0  0  0  0
    7.5179  -12.4938   20.1926 C   0  0  0  0  0  0  0  0  0  0  0  0
    8.8570  -14.3999   19.2706 C   0  0  2  0  0  0  0  0  0  0  0  0
    8.0058  -14.4695   18.0771 N   0  0  0  0  0  0  0  0  0  0  0  0
    8.4322  -15.4009   20.2592 C   0  0  0  0  0  0  0  0  0  0  0  0
    7.3925  -16.1009   20.0836 O   0  0  0  0  0  0  0  0  0  0  0  0
    9.2023  -15.5858   21.4327 N   0  0  0  0  0  0  0  0  0  0  0  0
    8.9579  -16.6888   22.3884 C   0  0  1  0  0  0  0  0  0  0  0  0
    9.6292  -17.9247   21.8145 C   0  0  0  0  0  0  0  0  0  0  0  0
    9.3905  -19.1405   22.6172 C   0  0  0  0  0  0  0  0  0  0  0  0
   10.1122  -20.3194   21.9518 C   0  0  0  0  0  0  0  0  0  0  0  0
    9.8891  -21.6131   22.6698 C   0  0  0  0  0  0  0  0  0  0  0  0
   10.5702  -22.6566   21.9071 N   0  0  0  0  0  0  0  0  0  0  0  0
    9.3980  -16.3157   23.7320 C   0  0  0  0  0  0  0  0  0  0  0  0
   10.5823  -15.8913   23.8840 O   0  0  0  0  0  0  0  0  0  0  0  0
    8.6264  -16.3727   24.9199 N   0  0  0  0  0  0  0  0  0  0  0  0
    9.1434  -15.9040   26.2011 C   0  0  1  0  0  0  0  0  0  0  0  0
    7.9217  -15.6169   27.0844 C   0  0  0  0  0  0  0  0  0  0  0  0
    7.2562  -14.3663   26.6684 C   0  0  0  0  0  0  0  0  0  0  0  0
    7.9018  -13.2007   26.3112 C   0  0  0  0  0  0  0  0  0  0  0  0
    6.9393  -12.3284   26.0091 N   0  0  0  0  0  0  0  0  0  0  0  0
    5.7444  -12.9258   26.1715 C   0  0  0  0  0  0  0  0  0  0  0  0
    5.9267  -14.2059   26.5852 N   0  0  0  0  0  0  0  0  0  0  0  0
    9.9668  -16.9420   26.8666 C   0  0  0  0  0  0  0  0  0  0  0  0
   10.4693  -16.7159   27.9953 O   0  0  0  0  0  0  0  0  0  0  0  0
   10.2352  -18.1893   26.3196 O   0  0  0  0  0  0  0  0  0  0  0  0
  2  1  1  6
  2  4  1  0
  3  2  1  0
  4  5  1  6
  6  7  2  0
  6  4  1  0
  8  6  1  0
  9 15  1  0
  9  8  1  0
  9 10  1  6
 11 12  1  0
 11 10  1  0
 13 14  1  0
 13 12  1  0
 15 17  1  0
 16 15  2  0
 17 18  1  0
 18 25  1  0
 18 19  1  1
 20 19  1  0
 20 21  2  0
 22 21  1  0
 23 22  1  0
 24 23  2  0
 24 20  1  0
 25 26  2  0
 25 27  1  0
M  END
$$$$
