VKH.pdb
     RDKit          3D

 27 27  0  0  1  0  0  0  0  0999 V2000
   16.4513  -16.9976   17.0929 C   0  0  0  0  0  0  0  0  0  0  0  0
   15.5708  -16.4652   18.2078 C   0  0  1  0  0  0  0  0  0  0  0  0
   16.4507  -16.2908   19.4207 C   0  0  0  0  0  0  0  0  0  0  0  0
   14.9831  -15.1609   17.7336 C   0  0  2  0  0  0  0  0  0  0  0  0
   16.0480  -14.2168   17.3749 N   0  0  0  0  0  0  0  0  0  0  0  0
   14.0625  -14.5478   18.7013 C   0  0  0  0  0  0  0  0  0  0  0  0
   14.4855  -13.8018   19.6322 O   0  0  0  0  0  0  0  0  0  0  0  0
   12.6733  -14.7970   18.5898 N   0  0  0  0  0  0  0  0  0  0  0  0
   11.6925  -14.3463   19.6019 C   0  0  1  0  0  0  0  0  0  0  0  0
   10.3737  -14.1427   18.8762 C   0  0  0  0  0  0  0  0  0  0  0  0
    9.3036  -13.6244   19.7512 C   0  0  0  0  0  0  0  0  0  0  0  0
    8.0447  -13.3931   18.9055 C   0  0  0  0  0  0  0  0  0  0  0  0
    6.9292  -12.7739   19.6873 C   0  0  0  0  0  0  0  0  0  0  0  0
    5.8102  -12.5793   18.7683 N   0  0  0  0  0  0  0  0  0  0  0  0
   11.6408  -15.2821   20.7242 C   0  0  0  0  0  0  0  0  0  0  0  0
   11.7163  -16.5233   20.4802 O   0  0  0  0  0  0  0  0  0  0  0  0
   11.5156  -14.9493   22.0966 N   0  0  0  0  0  0  0  0  0  0  0  0
   10.5905  -15.6496   22.9809 C   0  0  1  0  0  0  0  0  0  0  0  0
    9.3935  -16.0668   22.1160 C   0  0  0  0  0  0  0  0  0  0  0  0
    8.4324  -16.8663   22.9014 C   0  0  0  0  0  0  0  0  0  0  0  0
    8.5541  -17.1671   24.2422 C   0  0  0  0  0  0  0  0  0  0  0  0
    7.4833  -17.8997   24.5504 N   0  0  0  0  0  0  0  0  0  0  0  0
    6.7264  -18.0489   23.4477 C   0  0  0  0  0  0  0  0  0  0  0  0
    7.3091  -17.4057   22.4039 N   0  0  0  0  0  0  0  0  0  0  0  0
   11.2046  -16.8735   23.5495 C   0  0  0  0  0  0  0  0  0  0  0  0
   10.5437  -17.6025   24.3302 O   0  0  0  0  0  0  0  0  0  0  0  0
   12.4998  -17.2916   23.2762 O   0  0  0  0  0  0  0  0  0  0  0  0
  2  1  1  6
  2  4  1  0
  3  2  1  0
  4  5  1  1
  6  7  2  0
  6  4  1  0
  8  6  1  0
  9 15  1  0
  9  8  1  0
  9 10  1  6
 11 12  1  0
 11 10  1  0
 13 14  1  0
 13 12  1  0
 15 17  1  0
 16 15  2  0
 17 18  1  0
 18 25  1  0
 18 19  1  6
 20 19  1  0
 20 21  2  0
 22 21  1  0
 23 22  1  0
 24 23  2  0
 24 20  1  0
 25 26  2  0
 25 27  1  0
M  END
$$$$
