VKH.pdb
     RDKit          3D

 27 27  0  0  1  0  0  0  0  0999 V2000
   10.8057  -17.0308   23.2309 C   0  0  0  0  0  0  0  0  0  0  0  0
   10.2909  -18.3313   22.6432 C   0  0  1  0  0  0  0  0  0  0  0  0
    9.4385  -18.9873   23.7011 C   0  0  0  0  0  0  0  0  0  0  0  0
    9.5035  -17.9858   21.4055 C   0  0  2  0  0  0  0  0  0  0  0  0
    8.8608  -19.1840   20.8532 N   0  0  0  0  0  0  0  0  0  0  0  0
   10.3033  -17.3136   20.3719 C   0  0  0  0  0  0  0  0  0  0  0  0
   11.1284  -17.9536   19.6568 O   0  0  0  0  0  0  0  0  0  0  0  0
   10.1473  -15.9207   20.1720 N   0  0  0  0  0  0  0  0  0  0  0  0
   10.9386  -15.1577   19.1815 C   0  0  1  0  0  0  0  0  0  0  0  0
    9.9971  -14.1453   18.5521 C   0  0  0  0  0  0  0  0  0  0  0  0
    9.0688  -14.7458   17.5738 C   0  0  0  0  0  0  0  0  0  0  0  0
    8.2629  -13.6237   16.9067 C   0  0  0  0  0  0  0  0  0  0  0  0
    7.3023  -14.1345   15.8794 C   0  0  0  0  0  0  0  0  0  0  0  0
    6.5250  -12.9919   15.4052 N   0  0  0  0  0  0  0  0  0  0  0  0
   12.1324  -14.5863   19.8031 C   0  0  0  0  0  0  0  0  0  0  0  0
   12.1202  -14.3729   21.0521 O   0  0  0  0  0  0  0  0  0  0  0  0
   13.3404  -14.2364   19.1488 N   0  0  0  0  0  0  0  0  0  0  0  0
   14.6467  -14.5608   19.7114 C   0  0  1  0  0  0  0  0  0  0  0  0
   14.6892  -16.0876   19.8606 C   0  0  0  0  0  0  0  0  0  0  0  0
   14.4736  -16.4832   21.2665 C   0  0  0  0  0  0  0  0  0  0  0  0
   14.3855  -15.6143   22.3344 C   0  0  0  0  0  0  0  0  0  0  0  0
   14.1909  -16.3774   23.4106 N   0  0  0  0  0  0  0  0  0  0  0  0
   14.1591  -17.6676   23.0289 C   0  0  0  0  0  0  0  0  0  0  0  0
   14.3352  -17.7503   21.6854 N   0  0  0  0  0  0  0  0  0  0  0  0
   15.7454  -14.1498   18.8045 C   0  0  0  0  0  0  0  0  0  0  0  0
   16.9394  -14.2419   19.1836 O   0  0  0  0  0  0  0  0  0  0  0  0
   15.5502  -13.6532   17.5230 O   0  0  0  0  0  0  0  0  0  0  0  0
  2  1  1  1
  2  4  1  0
  3  2  1  0
  4  5  1  6
  6  7  2  0
  6  4  1  0
  8  6  1  0
  9 15  1  0
  9  8  1  0
  9 10  1  1
 11 12  1  0
 11 10  1  0
 13 14  1  0
 13 12  1  0
 15 17  1  0
 16 15  2  0
 17 18  1  0
 18 25  1  0
 18 19  1  6
 20 19  1  0
 20 21  2  0
 22 21  1  0
 23 22  1  0
 24 23  2  0
 24 20  1  0
 25 26  2  0
 25 27  1  0
M  END
$$$$
