VKH.pdb
     RDKit          3D

 27 27  0  0  1  0  0  0  0  0999 V2000
    8.0447  -11.8118   25.8318 C   0  0  0  0  0  0  0  0  0  0  0  0
    6.9114  -12.5022   26.5672 C   0  0  1  0  0  0  0  0  0  0  0  0
    6.0331  -11.4188   27.1422 C   0  0  0  0  0  0  0  0  0  0  0  0
    6.1818  -13.3606   25.5661 C   0  0  2  0  0  0  0  0  0  0  0  0
    5.0706  -14.0707   26.2101 N   0  0  0  0  0  0  0  0  0  0  0  0
    7.0554  -14.3108   24.8633 C   0  0  0  0  0  0  0  0  0  0  0  0
    7.3501  -15.4332   25.3685 O   0  0  0  0  0  0  0  0  0  0  0  0
    7.5782  -13.9631   23.5943 N   0  0  0  0  0  0  0  0  0  0  0  0
    8.4629  -14.8590   22.8171 C   0  0  1  0  0  0  0  0  0  0  0  0
    8.6870  -14.1949   21.4694 C   0  0  0  0  0  0  0  0  0  0  0  0
    7.6898  -14.5893   20.4549 C   0  0  0  0  0  0  0  0  0  0  0  0
    8.2300  -14.2254   19.0659 C   0  0  0  0  0  0  0  0  0  0  0  0
    7.2907  -14.6023   17.9638 C   0  0  0  0  0  0  0  0  0  0  0  0
    7.9674  -14.3191   16.7003 N   0  0  0  0  0  0  0  0  0  0  0  0
    9.6818  -15.1595   23.5668 C   0  0  0  0  0  0  0  0  0  0  0  0
   10.5590  -14.2524   23.6830 O   0  0  0  0  0  0  0  0  0  0  0  0
   10.0026  -16.3860   24.2013 N   0  0  0  0  0  0  0  0  0  0  0  0
   11.3032  -16.6199   24.8195 C   0  0  1  0  0  0  0  0  0  0  0  0
   11.0290  -17.3156   26.1596 C   0  0  0  0  0  0  0  0  0  0  0  0
   10.5558  -16.3455   27.1669 C   0  0  0  0  0  0  0  0  0  0  0  0
   10.4437  -14.9845   26.9715 C   0  0  0  0  0  0  0  0  0  0  0  0
    9.9843  -14.4876   28.1206 N   0  0  0  0  0  0  0  0  0  0  0  0
    9.8173  -15.4969   28.9950 C   0  0  0  0  0  0  0  0  0  0  0  0
   10.1719  -16.6699   28.4109 N   0  0  0  0  0  0  0  0  0  0  0  0
   12.1442  -17.5171   23.9913 C   0  0  0  0  0  0  0  0  0  0  0  0
   13.3046  -17.8148   24.3690 O   0  0  0  0  0  0  0  0  0  0  0  0
   11.7343  -18.0740   22.7876 O   0  0  0  0  0  0  0  0  0  0  0  0
  2  1  1  6
  2  4  1  0
  3  2  1  0
  4  5  1  1
  6  7  2  0
  6  4  1  0
  8  6  1  0
  9 15  1  0
  9  8  1  0
  9 10  1  6
 11 12  1  0
 11 10  1  0
 13 14  1  0
 13 12  1  0
 15 17  1  0
 16 15  2  0
 17 18  1  0
 18 25  1  0
 18 19  1  1
 20 19  1  0
 20 21  2  0
 22 21  1  0
 23 22  1  0
 24 23  2  0
 24 20  1  0
 25 26  2  0
 25 27  1  0
M  END
$$$$
