VKH.pdb
     RDKit          3D

 27 27  0  0  1  0  0  0  0  0999 V2000
    8.3928  -12.8949   20.8166 C   0  0  0  0  0  0  0  0  0  0  0  0
    7.9524  -13.2621   19.4119 C   0  0  1  0  0  0  0  0  0  0  0  0
    8.0967  -12.0219   18.5652 C   0  0  0  0  0  0  0  0  0  0  0  0
    8.8407  -14.3846   18.9405 C   0  0  2  0  0  0  0  0  0  0  0  0
    8.5382  -14.7294   17.5463 N   0  0  0  0  0  0  0  0  0  0  0  0
    8.7701  -15.5825   19.7889 C   0  0  0  0  0  0  0  0  0  0  0  0
    7.9048  -16.4838   19.5865 O   0  0  0  0  0  0  0  0  0  0  0  0
    9.6895  -15.7313   20.8553 N   0  0  0  0  0  0  0  0  0  0  0  0
    9.6513  -16.8733   21.7954 C   0  0  1  0  0  0  0  0  0  0  0  0
   10.6158  -17.9170   21.2589 C   0  0  0  0  0  0  0  0  0  0  0  0
   11.7520  -17.3321   20.5199 C   0  0  0  0  0  0  0  0  0  0  0  0
   12.6226  -18.4709   19.9732 C   0  0  0  0  0  0  0  0  0  0  0  0
   13.7345  -17.9803   19.1005 C   0  0  0  0  0  0  0  0  0  0  0  0
   14.5482  -19.1391   18.7405 N   0  0  0  0  0  0  0  0  0  0  0  0
    9.9222  -16.4277   23.1615 C   0  0  0  0  0  0  0  0  0  0  0  0
   10.9513  -15.7192   23.3732 O   0  0  0  0  0  0  0  0  0  0  0  0
    9.1392  -16.7029   24.3108 N   0  0  0  0  0  0  0  0  0  0  0  0
    9.5921  -16.3616   25.6550 C   0  0  1  0  0  0  0  0  0  0  0  0
    8.3315  -16.0497   26.4727 C   0  0  0  0  0  0  0  0  0  0  0  0
    7.7263  -14.7753   26.0376 C   0  0  0  0  0  0  0  0  0  0  0  0
    8.2516  -13.9281   25.0839 C   0  0  0  0  0  0  0  0  0  0  0  0
    7.4007  -12.9050   24.9962 N   0  0  0  0  0  0  0  0  0  0  0  0
    6.3879  -13.1066   25.8592 C   0  0  0  0  0  0  0  0  0  0  0  0
    6.5780  -14.2768   26.5205 N   0  0  0  0  0  0  0  0  0  0  0  0
   10.2947  -17.4991   26.2960 C   0  0  0  0  0  0  0  0  0  0  0  0
   10.3715  -18.6037   25.7029 O   0  0  0  0  0  0  0  0  0  0  0  0
   10.8958  -17.4361   27.5457 O   0  0  0  0  0  0  0  0  0  0  0  0
  2  1  1  1
  2  4  1  0
  3  2  1  0
  4  5  1  6
  6  7  2  0
  6  4  1  0
  8  6  1  0
  9 15  1  0
  9  8  1  0
  9 10  1  6
 11 12  1  0
 11 10  1  0
 13 14  1  0
 13 12  1  0
 15 17  1  0
 16 15  2  0
 17 18  1  0
 18 25  1  0
 18 19  1  1
 20 19  1  0
 20 21  2  0
 22 21  1  0
 23 22  1  0
 24 23  2  0
 24 20  1  0
 25 26  2  0
 25 27  1  0
M  END
$$$$
