FPS.pdb
     RDKit          3D

 25 26  0  0  1  0  0  0  0  0999 V2000
    6.0063  -17.7870   25.5665 N   0  0  0  0  0  0  0  0  0  0  0  0
    6.6790  -16.5377   25.3685 C   0  0  1  0  0  0  0  0  0  0  0  0
    7.1356  -15.9788   26.7187 C   0  0  0  0  0  0  0  0  0  0  0  0
    6.9763  -14.5068   26.6516 C   0  0  0  0  0  0  0  0  0  0  0  0
    5.7833  -13.8638   26.4343 C   0  0  0  0  0  0  0  0  0  0  0  0
    5.6711  -12.4917   26.3757 C   0  0  0  0  0  0  0  0  0  0  0  0
    6.8087  -11.7316   26.5429 C   0  0  0  0  0  0  0  0  0  0  0  0
    8.0356  -12.3304   26.7645 C   0  0  0  0  0  0  0  0  0  0  0  0
    8.0973  -13.7237   26.8153 C   0  0  0  0  0  0  0  0  0  0  0  0
    7.7753  -16.5319   24.3928 C   0  0  0  0  0  0  0  0  0  0  0  0
    8.8198  -17.1650   24.8027 O   0  0  0  0  0  0  0  0  0  0  0  0
    7.7621  -15.9239   23.1264 N   0  0  0  0  0  0  0  0  0  0  0  0
    6.5605  -15.6331   22.3013 C   0  0  0  0  0  0  0  0  0  0  0  0
    6.8514  -14.1688   21.9157 C   0  0  0  0  0  0  0  0  0  0  0  0
    8.3503  -13.9808   22.1128 C   0  0  0  0  0  0  0  0  0  0  0  0
    8.7928  -15.4425   22.2586 C   0  0  1  0  0  0  0  0  0  0  0  0
   10.1748  -15.5978   22.5596 C   0  0  0  0  0  0  0  0  0  0  0  0
   10.9729  -14.8019   23.0836 O   0  0  0  0  0  0  0  0  0  0  0  0
   11.3918  -19.3675   22.6063 O   0  0  0  0  0  0  0  0  0  0  0  0
   12.3102  -18.4657   23.1032 C   0  0  0  0  0  0  0  0  0  0  0  0
   12.1783  -17.1229   22.3723 C   0  0  2  0  0  0  0  0  0  0  0  0
   10.7645  -16.8817   22.2063 N   0  0  0  0  0  0  0  0  0  0  0  0
   12.8394  -17.3344   21.0349 C   0  0  0  0  0  0  0  0  0  0  0  0
   12.1567  -17.3590   19.9804 O   0  0  0  0  0  0  0  0  0  0  0  0
   14.2107  -17.5085   20.9118 O   0  0  0  0  0  0  0  0  0  0  0  0
  2  1  1  1
  2 10  1  0
  3  2  1  0
  4  3  1  0
  4  9  1  0
  5  4  2  0
  6  5  1  0
  6  7  2  0
  7  8  1  0
  8  9  2  0
 10 11  2  0
 10 12  1  0
 12 13  1  0
 13 14  1  0
 15 14  1  0
 16 12  1  0
 16 15  1  0
 16 17  1  1
 18 17  2  0
 19 20  1  0
 21 20  1  1
 21 22  1  0
 21 23  1  0
 22 17  1  0
 23 25  1  0
 24 23  2  0
M  END
$$$$
