FPS.pdb
     RDKit          3D

 25 26  0  0  1  0  0  0  0  0999 V2000
    6.4213  -16.4487   25.9465 N   0  0  0  0  0  0  0  0  0  0  0  0
    7.0628  -15.6622   24.9354 C   0  0  1  0  0  0  0  0  0  0  0  0
    8.1875  -14.8345   25.5629 C   0  0  0  0  0  0  0  0  0  0  0  0
    7.5519  -13.6554   26.1975 C   0  0  0  0  0  0  0  0  0  0  0  0
    8.0280  -13.0273   27.3211 C   0  0  0  0  0  0  0  0  0  0  0  0
    7.4104  -11.9331   27.8867 C   0  0  0  0  0  0  0  0  0  0  0  0
    6.2628  -11.4484   27.2969 C   0  0  0  0  0  0  0  0  0  0  0  0
    5.7416  -12.0451   26.1631 C   0  0  0  0  0  0  0  0  0  0  0  0
    6.4040  -13.1510   25.6281 C   0  0  0  0  0  0  0  0  0  0  0  0
    7.5330  -16.3821   23.7460 C   0  0  0  0  0  0  0  0  0  0  0  0
    7.8373  -17.6108   23.9866 O   0  0  0  0  0  0  0  0  0  0  0  0
    7.6634  -15.8566   22.4497 N   0  0  0  0  0  0  0  0  0  0  0  0
    6.6063  -15.1597   21.6712 C   0  0  0  0  0  0  0  0  0  0  0  0
    7.3997  -13.9283   21.1897 C   0  0  0  0  0  0  0  0  0  0  0  0
    8.8689  -14.3157   21.3001 C   0  0  0  0  0  0  0  0  0  0  0  0
    8.7380  -15.8305   21.5054 C   0  0  1  0  0  0  0  0  0  0  0  0
    9.9771  -16.4878   21.7445 C   0  0  0  0  0  0  0  0  0  0  0  0
   10.8395  -16.2756   22.6142 O   0  0  0  0  0  0  0  0  0  0  0  0
   10.4572  -20.3642   21.3251 O   0  0  0  0  0  0  0  0  0  0  0  0
   11.3087  -19.7138   20.4560 C   0  0  0  0  0  0  0  0  0  0  0  0
   11.5633  -18.2807   20.9418 C   0  0  2  0  0  0  0  0  0  0  0  0
   10.3040  -17.5818   20.8406 N   0  0  0  0  0  0  0  0  0  0  0  0
   12.5657  -17.7075   19.9737 C   0  0  0  0  0  0  0  0  0  0  0  0
   12.1852  -17.0476   18.9746 O   0  0  0  0  0  0  0  0  0  0  0  0
   13.9323  -17.8812   20.1413 O   0  0  0  0  0  0  0  0  0  0  0  0
  2  1  1  1
  2 10  1  0
  3  2  1  0
  4  3  1  0
  4  9  1  0
  5  4  2  0
  6  5  1  0
  6  7  2  0
  7  8  1  0
  8  9  2  0
 10 11  2  0
 10 12  1  0
 12 13  1  0
 13 14  1  0
 15 14  1  0
 16 12  1  0
 16 15  1  0
 16 17  1  1
 18 17  2  0
 19 20  1  0
 21 20  1  6
 21 22  1  0
 21 23  1  0
 22 17  1  0
 23 25  1  0
 24 23  2  0
M  END
$$$$
