FPS.pdb
     RDKit          3D

 25 26  0  0  1  0  0  0  0  0999 V2000
    6.9523  -17.1302   26.8227 N   0  0  0  0  0  0  0  0  0  0  0  0
    6.8685  -16.2053   25.7318 C   0  0  1  0  0  0  0  0  0  0  0  0
    6.8716  -14.7722   26.2702 C   0  0  0  0  0  0  0  0  0  0  0  0
    8.0840  -14.6305   27.1109 C   0  0  0  0  0  0  0  0  0  0  0  0
    8.1191  -14.8468   28.4658 C   0  0  0  0  0  0  0  0  0  0  0  0
    9.2645  -14.7040   29.2182 C   0  0  0  0  0  0  0  0  0  0  0  0
   10.4269  -14.3268   28.5806 C   0  0  0  0  0  0  0  0  0  0  0  0
   10.4451  -14.0965   27.2168 C   0  0  0  0  0  0  0  0  0  0  0  0
    9.2589  -14.2546   26.4987 C   0  0  0  0  0  0  0  0  0  0  0  0
    7.8529  -16.3710   24.6560 C   0  0  0  0  0  0  0  0  0  0  0  0
    8.8972  -17.0299   25.0238 O   0  0  0  0  0  0  0  0  0  0  0  0
    7.7394  -15.8923   23.3401 N   0  0  0  0  0  0  0  0  0  0  0  0
    6.4801  -15.5212   22.6431 C   0  0  0  0  0  0  0  0  0  0  0  0
    6.8924  -14.1546   22.0600 C   0  0  0  0  0  0  0  0  0  0  0  0
    8.4158  -14.1551   22.0463 C   0  0  0  0  0  0  0  0  0  0  0  0
    8.6915  -15.6426   22.3016 C   0  0  1  0  0  0  0  0  0  0  0  0
   10.0722  -15.9554   22.4440 C   0  0  0  0  0  0  0  0  0  0  0  0
   10.9080  -15.5301   23.2599 O   0  0  0  0  0  0  0  0  0  0  0  0
   11.3026  -19.4086   22.0969 O   0  0  0  0  0  0  0  0  0  0  0  0
   12.2376  -18.4323   22.3725 C   0  0  0  0  0  0  0  0  0  0  0  0
   12.0204  -17.2212   21.4556 C   0  0  2  0  0  0  0  0  0  0  0  0
   10.6085  -16.9221   21.4960 N   0  0  0  0  0  0  0  0  0  0  0  0
   12.4228  -17.6893   20.0809 C   0  0  0  0  0  0  0  0  0  0  0  0
   11.5609  -17.8433   19.1798 O   0  0  0  0  0  0  0  0  0  0  0  0
   13.7431  -17.9664   19.7556 O   0  0  0  0  0  0  0  0  0  0  0  0
  2  1  1  1
  2 10  1  0
  3  2  1  0
  4  3  1  0
  4  9  1  0
  5  4  2  0
  6  5  1  0
  6  7  2  0
  7  8  1  0
  8  9  2  0
 10 11  2  0
 10 12  1  0
 12 13  1  0
 13 14  1  0
 15 14  1  0
 16 12  1  0
 16 15  1  0
 16 17  1  1
 18 17  2  0
 19 20  1  0
 21 20  1  1
 21 22  1  0
 21 23  1  0
 22 17  1  0
 23 25  1  0
 24 23  2  0
M  END
$$$$
