FPS.pdb
     RDKit          3D

 25 26  0  0  1  0  0  0  0  0999 V2000
    6.5716  -16.4477   25.4645 N   0  0  0  0  0  0  0  0  0  0  0  0
    7.1023  -15.5097   24.5206 C   0  0  1  0  0  0  0  0  0  0  0  0
    8.0915  -14.5759   25.2227 C   0  0  0  0  0  0  0  0  0  0  0  0
    7.2875  -13.5831   25.9742 C   0  0  0  0  0  0  0  0  0  0  0  0
    5.9592  -13.3253   25.7441 C   0  0  0  0  0  0  0  0  0  0  0  0
    5.2415  -12.3928   26.4609 C   0  0  0  0  0  0  0  0  0  0  0  0
    5.8874  -11.6877   27.4537 C   0  0  0  0  0  0  0  0  0  0  0  0
    7.2254  -11.9097   27.7255 C   0  0  0  0  0  0  0  0  0  0  0  0
    7.9087  -12.8648   26.9715 C   0  0  0  0  0  0  0  0  0  0  0  0
    7.6806  -16.0713   23.2941 C   0  0  0  0  0  0  0  0  0  0  0  0
    8.2322  -17.2213   23.4762 O   0  0  0  0  0  0  0  0  0  0  0  0
    7.6722  -15.4789   22.0203 N   0  0  0  0  0  0  0  0  0  0  0  0
    6.4930  -14.8980   21.3267 C   0  0  0  0  0  0  0  0  0  0  0  0
    7.0906  -13.5521   20.8694 C   0  0  0  0  0  0  0  0  0  0  0  0
    8.6018  -13.7432   20.8923 C   0  0  0  0  0  0  0  0  0  0  0  0
    8.6828  -15.2692   21.0294 C   0  0  1  0  0  0  0  0  0  0  0  0
   10.0086  -15.7637   21.1783 C   0  0  0  0  0  0  0  0  0  0  0  0
   11.0889  -15.1511   21.2300 O   0  0  0  0  0  0  0  0  0  0  0  0
   10.0951  -19.6038   22.2705 O   0  0  0  0  0  0  0  0  0  0  0  0
   11.3022  -18.9557   22.4324 C   0  0  0  0  0  0  0  0  0  0  0  0
   11.4399  -17.8322   21.3963 C   0  0  2  0  0  0  0  0  0  0  0  0
   10.1416  -17.2097   21.2890 N   0  0  0  0  0  0  0  0  0  0  0  0
   11.8024  -18.5250   20.1081 C   0  0  0  0  0  0  0  0  0  0  0  0
   12.8933  -19.1385   19.9966 O   0  0  0  0  0  0  0  0  0  0  0  0
   10.9597  -18.5155   19.0056 O   0  0  0  0  0  0  0  0  0  0  0  0
  2  1  1  1
  2 10  1  0
  3  2  1  0
  4  3  1  0
  4  9  1  0
  5  4  2  0
  6  5  1  0
  6  7  2  0
  7  8  1  0
  8  9  2  0
 10 11  2  0
 10 12  1  0
 12 13  1  0
 13 14  1  0
 15 14  1  0
 16 12  1  0
 16 15  1  0
 16 17  1  1
 18 17  2  0
 19 20  1  0
 21 20  1  1
 21 22  1  0
 21 23  1  0
 22 17  1  0
 23 25  1  0
 24 23  2  0
M  END
$$$$
