FPS.pdb
     RDKit          3D

 25 26  0  0  1  0  0  0  0  0999 V2000
    5.7704  -16.4991   25.4894 N   0  0  0  0  0  0  0  0  0  0  0  0
    6.4855  -16.1037   24.3126 C   0  0  1  0  0  0  0  0  0  0  0  0
    6.2599  -14.6125   24.0494 C   0  0  0  0  0  0  0  0  0  0  0  0
    6.7958  -13.8822   25.2225 C   0  0  0  0  0  0  0  0  0  0  0  0
    8.0864  -13.4280   25.3313 C   0  0  0  0  0  0  0  0  0  0  0  0
    8.5527  -12.7534   26.4386 C   0  0  0  0  0  0  0  0  0  0  0  0
    7.6833  -12.5249   27.4834 C   0  0  0  0  0  0  0  0  0  0  0  0
    6.3723  -12.9620   27.4237 C   0  0  0  0  0  0  0  0  0  0  0  0
    5.9480  -13.6408   26.2805 C   0  0  0  0  0  0  0  0  0  0  0  0
    7.9133  -16.4408   24.2699 C   0  0  0  0  0  0  0  0  0  0  0  0
    8.4162  -16.6580   25.4360 O   0  0  0  0  0  0  0  0  0  0  0  0
    8.7139  -16.5372   23.1196 N   0  0  0  0  0  0  0  0  0  0  0  0
    8.2328  -16.6975   21.7224 C   0  0  0  0  0  0  0  0  0  0  0  0
    9.0781  -15.6129   21.0247 C   0  0  0  0  0  0  0  0  0  0  0  0
   10.2540  -15.3448   21.9554 C   0  0  0  0  0  0  0  0  0  0  0  0
   10.1287  -16.5419   22.9068 C   0  0  1  0  0  0  0  0  0  0  0  0
   11.0599  -16.5216   23.9824 C   0  0  0  0  0  0  0  0  0  0  0  0
   11.3731  -15.5962   24.7509 O   0  0  0  0  0  0  0  0  0  0  0  0
   11.5120  -18.6935   27.7170 O   0  0  0  0  0  0  0  0  0  0  0  0
   11.0893  -18.2733   26.4727 C   0  0  0  0  0  0  0  0  0  0  0  0
   12.2965  -18.0696   25.5475 C   0  0  2  0  0  0  0  0  0  0  0  0
   11.7661  -17.7692   24.2387 N   0  0  0  0  0  0  0  0  0  0  0  0
   13.0137  -19.3948   25.5362 C   0  0  0  0  0  0  0  0  0  0  0  0
   12.7184  -20.2749   24.6895 O   0  0  0  0  0  0  0  0  0  0  0  0
   14.0165  -19.6960   26.4470 O   0  0  0  0  0  0  0  0  0  0  0  0
  2  1  1  1
  2 10  1  0
  3  2  1  0
  4  3  1  0
  4  9  1  0
  5  4  2  0
  6  5  1  0
  6  7  2  0
  7  8  1  0
  8  9  2  0
 10 11  2  0
 10 12  1  0
 12 13  1  0
 13 14  1  0
 15 14  1  0
 16 12  1  0
 16 15  1  0
 16 17  1  1
 18 17  2  0
 19 20  1  0
 21 20  1  1
 21 22  1  0
 21 23  1  0
 22 17  1  0
 23 25  1  0
 24 23  2  0
M  END
$$$$
