FPS.pdb
     RDKit          3D

 25 26  0  0  1  0  0  0  0  0999 V2000
    5.5751  -17.6827   25.0805 N   0  0  0  0  0  0  0  0  0  0  0  0
    6.3506  -16.4796   25.1401 C   0  0  1  0  0  0  0  0  0  0  0  0
    6.5767  -16.0843   26.6017 C   0  0  0  0  0  0  0  0  0  0  0  0
    6.7539  -14.6130   26.6276 C   0  0  0  0  0  0  0  0  0  0  0  0
    5.7352  -13.7054   26.4792 C   0  0  0  0  0  0  0  0  0  0  0  0
    5.9357  -12.3424   26.5063 C   0  0  0  0  0  0  0  0  0  0  0  0
    7.2175  -11.8703   26.6908 C   0  0  0  0  0  0  0  0  0  0  0  0
    8.2794  -12.7430   26.8454 C   0  0  0  0  0  0  0  0  0  0  0  0
    8.0247  -14.1147   26.8104 C   0  0  0  0  0  0  0  0  0  0  0  0
    7.6105  -16.4748   24.3873 C   0  0  0  0  0  0  0  0  0  0  0  0
    8.5362  -17.1746   24.9472 O   0  0  0  0  0  0  0  0  0  0  0  0
    7.8573  -15.8043   23.1777 N   0  0  0  0  0  0  0  0  0  0  0  0
    6.8434  -15.4179   22.1619 C   0  0  0  0  0  0  0  0  0  0  0  0
    7.2538  -13.9510   21.9222 C   0  0  0  0  0  0  0  0  0  0  0  0
    8.6946  -13.8420   22.4048 C   0  0  0  0  0  0  0  0  0  0  0  0
    9.0493  -15.3280   22.5458 C   0  0  1  0  0  0  0  0  0  0  0  0
   10.3436  -15.5614   23.0887 C   0  0  0  0  0  0  0  0  0  0  0  0
   10.9151  -15.0226   24.0521 O   0  0  0  0  0  0  0  0  0  0  0  0
   11.6202  -18.7197   24.0966 O   0  0  0  0  0  0  0  0  0  0  0  0
   12.5475  -18.3807   23.1330 C   0  0  0  0  0  0  0  0  0  0  0  0
   12.4877  -16.8734   22.8516 C   0  0  2  0  0  0  0  0  0  0  0  0
   11.1378  -16.5871   22.4269 N   0  0  0  0  0  0  0  0  0  0  0  0
   13.4577  -16.6437   21.7215 C   0  0  0  0  0  0  0  0  0  0  0  0
   13.0700  -16.6856   20.5271 O   0  0  0  0  0  0  0  0  0  0  0  0
   14.8012  -16.3798   21.9478 O   0  0  0  0  0  0  0  0  0  0  0  0
  2  1  1  1
  2 10  1  0
  3  2  1  0
  4  3  1  0
  4  9  1  0
  5  4  2  0
  6  5  1  0
  6  7  2  0
  7  8  1  0
  8  9  2  0
 10 11  2  0
 10 12  1  0
 12 13  1  0
 13 14  1  0
 15 14  1  0
 16 12  1  0
 16 15  1  0
 16 17  1  1
 18 17  2  0
 19 20  1  0
 21 20  1  6
 21 22  1  0
 21 23  1  0
 22 17  1  0
 23 25  1  0
 24 23  2  0
M  END
$$$$
