FPS.pdb
     RDKit          3D

 25 26  0  0  1  0  0  0  0  0999 V2000
    6.4884  -16.6335   25.7831 N   0  0  0  0  0  0  0  0  0  0  0  0
    7.0941  -15.7308   24.8500 C   0  0  1  0  0  0  0  0  0  0  0  0
    8.1013  -14.8367   25.5778 C   0  0  0  0  0  0  0  0  0  0  0  0
    7.3507  -13.6604   26.0774 C   0  0  0  0  0  0  0  0  0  0  0  0
    7.5329  -13.0903   27.3126 C   0  0  0  0  0  0  0  0  0  0  0  0
    6.8155  -11.9968   27.7466 C   0  0  0  0  0  0  0  0  0  0  0  0
    5.8728  -11.4518   26.9016 C   0  0  0  0  0  0  0  0  0  0  0  0
    5.6505  -11.9887   25.6464 C   0  0  0  0  0  0  0  0  0  0  0  0
    6.4027  -13.0964   25.2530 C   0  0  0  0  0  0  0  0  0  0  0  0
    7.6870  -16.3311   23.6491 C   0  0  0  0  0  0  0  0  0  0  0  0
    8.3009  -17.4383   23.8882 O   0  0  0  0  0  0  0  0  0  0  0  0
    7.6324  -15.8142   22.3440 N   0  0  0  0  0  0  0  0  0  0  0  0
    6.4175  -15.3285   21.6389 C   0  0  0  0  0  0  0  0  0  0  0  0
    6.9452  -13.9855   21.0954 C   0  0  0  0  0  0  0  0  0  0  0  0
    8.4638  -14.1061   21.1029 C   0  0  0  0  0  0  0  0  0  0  0  0
    8.6175  -15.6163   21.3254 C   0  0  1  0  0  0  0  0  0  0  0  0
    9.9669  -16.0406   21.4792 C   0  0  0  0  0  0  0  0  0  0  0  0
   10.9858  -15.3821   21.7498 O   0  0  0  0  0  0  0  0  0  0  0  0
   10.3017  -20.0443   21.6091 O   0  0  0  0  0  0  0  0  0  0  0  0
   11.3955  -19.3710   22.1127 C   0  0  0  0  0  0  0  0  0  0  0  0
   11.5436  -18.0117   21.4162 C   0  0  2  0  0  0  0  0  0  0  0  0
   10.2132  -17.4641   21.2948 N   0  0  0  0  0  0  0  0  0  0  0  0
   12.1130  -18.3244   20.0566 C   0  0  0  0  0  0  0  0  0  0  0  0
   11.4068  -18.2048   19.0242 O   0  0  0  0  0  0  0  0  0  0  0  0
   13.4225  -18.7516   19.8882 O   0  0  0  0  0  0  0  0  0  0  0  0
  2  1  1  1
  2 10  1  0
  3  2  1  0
  4  3  1  0
  4  9  1  0
  5  4  2  0
  6  5  1  0
  6  7  2  0
  7  8  1  0
  8  9  2  0
 10 11  2  0
 10 12  1  0
 12 13  1  0
 13 14  1  0
 15 14  1  0
 16 12  1  0
 16 15  1  0
 16 17  1  1
 18 17  2  0
 19 20  1  0
 21 20  1  1
 21 22  1  0
 21 23  1  0
 22 17  1  0
 23 25  1  0
 24 23  2  0
M  END
$$$$
