FPS.pdb
     RDKit          3D

 25 26  0  0  1  0  0  0  0  0999 V2000
    6.6766  -16.4013   25.9778 N   0  0  0  0  0  0  0  0  0  0  0  0
    7.1872  -15.5787   24.9218 C   0  0  1  0  0  0  0  0  0  0  0  0
    8.2150  -14.5947   25.4865 C   0  0  0  0  0  0  0  0  0  0  0  0
    7.4588  -13.5699   26.2446 C   0  0  0  0  0  0  0  0  0  0  0  0
    6.1037  -13.3751   26.1479 C   0  0  0  0  0  0  0  0  0  0  0  0
    5.4318  -12.4104   26.8666 C   0  0  0  0  0  0  0  0  0  0  0  0
    6.1542  -11.6053   27.7210 C   0  0  0  0  0  0  0  0  0  0  0  0
    7.5220  -11.7606   27.8551 C   0  0  0  0  0  0  0  0  0  0  0  0
    8.1565  -12.7520   27.1053 C   0  0  0  0  0  0  0  0  0  0  0  0
    7.7126  -16.2779   23.7431 C   0  0  0  0  0  0  0  0  0  0  0  0
    8.2265  -17.4255   24.0238 O   0  0  0  0  0  0  0  0  0  0  0  0
    7.6927  -15.8110   22.4183 N   0  0  0  0  0  0  0  0  0  0  0  0
    6.5016  -15.3267   21.6727 C   0  0  0  0  0  0  0  0  0  0  0  0
    7.0689  -14.0176   21.0878 C   0  0  0  0  0  0  0  0  0  0  0  0
    8.5840  -14.1708   21.1281 C   0  0  0  0  0  0  0  0  0  0  0  0
    8.6998  -15.6743   21.4113 C   0  0  1  0  0  0  0  0  0  0  0  0
   10.0364  -16.1215   21.6063 C   0  0  0  0  0  0  0  0  0  0  0  0
   10.8533  -15.8339   22.4980 O   0  0  0  0  0  0  0  0  0  0  0  0
   11.1635  -19.6193   21.6793 O   0  0  0  0  0  0  0  0  0  0  0  0
   11.9428  -18.5045   21.9106 C   0  0  0  0  0  0  0  0  0  0  0  0
   11.8954  -17.5676   20.6963 C   0  0  2  0  0  0  0  0  0  0  0  0
   10.5449  -17.0628   20.6183 N   0  0  0  0  0  0  0  0  0  0  0  0
   12.2021  -18.4436   19.5092 C   0  0  0  0  0  0  0  0  0  0  0  0
   11.3121  -18.7088   18.6629 O   0  0  0  0  0  0  0  0  0  0  0  0
   13.4621  -18.9871   19.3024 O   0  0  0  0  0  0  0  0  0  0  0  0
  2  1  1  1
  2 10  1  0
  3  2  1  0
  4  3  1  0
  4  9  1  0
  5  4  2  0
  6  5  1  0
  6  7  2  0
  7  8  1  0
  8  9  2  0
 10 11  2  0
 10 12  1  0
 12 13  1  0
 13 14  1  0
 15 14  1  0
 16 12  1  0
 16 15  1  0
 16 17  1  1
 18 17  2  0
 19 20  1  0
 21 20  1  1
 21 22  1  0
 21 23  1  0
 22 17  1  0
 23 25  1  0
 24 23  2  0
M  END
$$$$
