FPS.pdb
     RDKit          3D

 25 26  0  0  1  0  0  0  0  0999 V2000
    5.7275  -17.3217   25.5166 N   0  0  0  0  0  0  0  0  0  0  0  0
    6.6351  -16.2789   25.1408 C   0  0  1  0  0  0  0  0  0  0  0  0
    7.3819  -15.7751   26.3786 C   0  0  0  0  0  0  0  0  0  0  0  0
    7.2069  -14.3038   26.4181 C   0  0  0  0  0  0  0  0  0  0  0  0
    8.2378  -13.4009   26.4952 C   0  0  0  0  0  0  0  0  0  0  0  0
    8.0392  -12.0379   26.5322 C   0  0  0  0  0  0  0  0  0  0  0  0
    6.7468  -11.5607   26.4896 C   0  0  0  0  0  0  0  0  0  0  0  0
    5.6725  -12.4285   26.4117 C   0  0  0  0  0  0  0  0  0  0  0  0
    5.9257  -13.8005   26.3770 C   0  0  0  0  0  0  0  0  0  0  0  0
    7.5647  -16.5829   24.0465 C   0  0  0  0  0  0  0  0  0  0  0  0
    8.3660  -17.5542   24.3194 O   0  0  0  0  0  0  0  0  0  0  0  0
    7.6335  -15.9302   22.8044 N   0  0  0  0  0  0  0  0  0  0  0  0
    6.4821  -15.4469   21.9982 C   0  0  0  0  0  0  0  0  0  0  0  0
    6.9695  -14.0220   21.6672 C   0  0  0  0  0  0  0  0  0  0  0  0
    8.4802  -14.0474   21.8624 C   0  0  0  0  0  0  0  0  0  0  0  0
    8.7195  -15.5604   21.9495 C   0  0  1  0  0  0  0  0  0  0  0  0
   10.0677  -15.9138   22.2360 C   0  0  0  0  0  0  0  0  0  0  0  0
   10.8064  -15.5564   23.1697 O   0  0  0  0  0  0  0  0  0  0  0  0
   11.3109  -19.4047   22.0472 O   0  0  0  0  0  0  0  0  0  0  0  0
   12.1071  -18.3638   22.4783 C   0  0  0  0  0  0  0  0  0  0  0  0
   12.0810  -17.2215   21.4540 C   0  0  2  0  0  0  0  0  0  0  0  0
   10.6978  -16.8365   21.3020 N   0  0  0  0  0  0  0  0  0  0  0  0
   12.6058  -17.8242   20.1766 C   0  0  0  0  0  0  0  0  0  0  0  0
   11.8485  -17.9860   19.1871 O   0  0  0  0  0  0  0  0  0  0  0  0
   13.9286  -18.2208   20.0397 O   0  0  0  0  0  0  0  0  0  0  0  0
  2  1  1  1
  2 10  1  0
  3  2  1  0
  4  3  1  0
  4  9  1  0
  5  4  2  0
  6  5  1  0
  6  7  2  0
  7  8  1  0
  8  9  2  0
 10 11  2  0
 10 12  1  0
 12 13  1  0
 13 14  1  0
 15 14  1  0
 16 12  1  0
 16 15  1  0
 16 17  1  1
 18 17  2  0
 19 20  1  0
 21 20  1  1
 21 22  1  0
 21 23  1  0
 22 17  1  0
 23 25  1  0
 24 23  2  0
M  END
$$$$
