FPS.pdb
     RDKit          3D

 25 26  0  0  1  0  0  0  0  0999 V2000
    5.6436  -17.7881   25.1392 N   0  0  0  0  0  0  0  0  0  0  0  0
    6.2623  -16.4980   25.2115 C   0  0  1  0  0  0  0  0  0  0  0  0
    6.3138  -16.0324   26.6690 C   0  0  0  0  0  0  0  0  0  0  0  0
    6.5569  -14.5705   26.6458 C   0  0  0  0  0  0  0  0  0  0  0  0
    5.5852  -13.6249   26.4325 C   0  0  0  0  0  0  0  0  0  0  0  0
    5.8466  -12.2722   26.4153 C   0  0  0  0  0  0  0  0  0  0  0  0
    7.1426  -11.8506   26.6216 C   0  0  0  0  0  0  0  0  0  0  0  0
    8.1588  -12.7629   26.8411 C   0  0  0  0  0  0  0  0  0  0  0  0
    7.8431  -14.1223   26.8491 C   0  0  0  0  0  0  0  0  0  0  0  0
    7.5725  -16.3631   24.5640 C   0  0  0  0  0  0  0  0  0  0  0  0
    8.5303  -16.8878   25.2474 O   0  0  0  0  0  0  0  0  0  0  0  0
    7.8339  -15.7427   23.3309 N   0  0  0  0  0  0  0  0  0  0  0  0
    6.8272  -15.3590   22.3069 C   0  0  0  0  0  0  0  0  0  0  0  0
    7.2829  -13.9151   22.0149 C   0  0  0  0  0  0  0  0  0  0  0  0
    8.7292  -13.8360   22.4871 C   0  0  0  0  0  0  0  0  0  0  0  0
    9.0370  -15.3269   22.6776 C   0  0  1  0  0  0  0  0  0  0  0  0
   10.3261  -15.5830   23.2225 C   0  0  0  0  0  0  0  0  0  0  0  0
   10.8755  -15.1095   24.2321 O   0  0  0  0  0  0  0  0  0  0  0  0
   11.6886  -18.6303   24.2053 O   0  0  0  0  0  0  0  0  0  0  0  0
   12.5913  -18.3074   23.2132 C   0  0  0  0  0  0  0  0  0  0  0  0
   12.5087  -16.8089   22.8933 C   0  0  2  0  0  0  0  0  0  0  0  0
   11.1447  -16.5464   22.4996 N   0  0  0  0  0  0  0  0  0  0  0  0
   13.4443  -16.6010   21.7305 C   0  0  0  0  0  0  0  0  0  0  0  0
   12.9990  -16.5139   20.5588 O   0  0  0  0  0  0  0  0  0  0  0  0
   14.8176  -16.4982   21.9008 O   0  0  0  0  0  0  0  0  0  0  0  0
  2  1  1  1
  2 10  1  0
  3  2  1  0
  4  3  1  0
  4  9  1  0
  5  4  2  0
  6  5  1  0
  6  7  2  0
  7  8  1  0
  8  9  2  0
 10 11  2  0
 10 12  1  0
 12 13  1  0
 13 14  1  0
 15 14  1  0
 16 12  1  0
 16 15  1  0
 16 17  1  1
 18 17  2  0
 19 20  1  0
 21 20  1  6
 21 22  1  0
 21 23  1  0
 22 17  1  0
 23 25  1  0
 24 23  2  0
M  END
$$$$
