FPS.pdb
     RDKit          3D

 25 26  0  0  1  0  0  0  0  0999 V2000
    6.2654  -17.3338   25.8102 N   0  0  0  0  0  0  0  0  0  0  0  0
    7.0224  -16.2247   25.3108 C   0  0  1  0  0  0  0  0  0  0  0  0
    7.7866  -15.5632   26.4606 C   0  0  0  0  0  0  0  0  0  0  0  0
    7.2918  -14.1697   26.5612 C   0  0  0  0  0  0  0  0  0  0  0  0
    8.0975  -13.0681   26.7067 C   0  0  0  0  0  0  0  0  0  0  0  0
    7.6035  -11.7851   26.7994 C   0  0  0  0  0  0  0  0  0  0  0  0
    6.2387  -11.6008   26.7433 C   0  0  0  0  0  0  0  0  0  0  0  0
    5.3830  -12.6776   26.5974 C   0  0  0  0  0  0  0  0  0  0  0  0
    5.9322  -13.9575   26.5081 C   0  0  0  0  0  0  0  0  0  0  0  0
    7.9068  -16.4957   24.1714 C   0  0  0  0  0  0  0  0  0  0  0  0
    8.8405  -17.3398   24.4462 O   0  0  0  0  0  0  0  0  0  0  0  0
    7.8088  -15.9348   22.8871 N   0  0  0  0  0  0  0  0  0  0  0  0
    6.5543  -15.5697   22.1786 C   0  0  0  0  0  0  0  0  0  0  0  0
    6.9232  -14.1513   21.6995 C   0  0  0  0  0  0  0  0  0  0  0  0
    8.4450  -14.0883   21.7317 C   0  0  0  0  0  0  0  0  0  0  0  0
    8.7773  -15.5771   21.8965 C   0  0  1  0  0  0  0  0  0  0  0  0
   10.1657  -15.8419   22.0594 C   0  0  0  0  0  0  0  0  0  0  0  0
   11.0503  -15.1612   22.6064 O   0  0  0  0  0  0  0  0  0  0  0  0
   11.2067  -19.5885   22.1014 O   0  0  0  0  0  0  0  0  0  0  0  0
   12.2021  -18.6789   22.3931 C   0  0  0  0  0  0  0  0  0  0  0  0
   12.0500  -17.4312   21.5129 C   0  0  2  0  0  0  0  0  0  0  0  0
   10.6444  -17.1011   21.5061 N   0  0  0  0  0  0  0  0  0  0  0  0
   12.4995  -17.8592   20.1398 C   0  0  0  0  0  0  0  0  0  0  0  0
   13.6879  -18.2132   19.9371 O   0  0  0  0  0  0  0  0  0  0  0  0
   11.6332  -17.8805   19.0559 O   0  0  0  0  0  0  0  0  0  0  0  0
  2  1  1  1
  2 10  1  0
  3  2  1  0
  4  3  1  0
  4  9  1  0
  5  4  2  0
  6  5  1  0
  6  7  2  0
  7  8  1  0
  8  9  2  0
 10 11  2  0
 10 12  1  0
 12 13  1  0
 13 14  1  0
 15 14  1  0
 16 12  1  0
 16 15  1  0
 16 17  1  1
 18 17  2  0
 19 20  1  0
 21 20  1  1
 21 22  1  0
 21 23  1  0
 22 17  1  0
 23 25  1  0
 24 23  2  0
M  END
$$$$
