FPS.pdb
     RDKit          3D

 25 26  0  0  1  0  0  0  0  0999 V2000
    6.7832  -16.4555   25.8936 N   0  0  0  0  0  0  0  0  0  0  0  0
    7.2016  -15.5728   24.8457 C   0  0  1  0  0  0  0  0  0  0  0  0
    8.1787  -14.5355   25.4052 C   0  0  0  0  0  0  0  0  0  0  0  0
    7.3786  -13.5771   26.2039 C   0  0  0  0  0  0  0  0  0  0  0  0
    6.2046  -13.0047   25.7821 C   0  0  0  0  0  0  0  0  0  0  0  0
    5.4862  -12.1146   26.5504 C   0  0  0  0  0  0  0  0  0  0  0  0
    5.9692  -11.7849   27.7986 C   0  0  0  0  0  0  0  0  0  0  0  0
    7.1477  -12.3338   28.2708 C   0  0  0  0  0  0  0  0  0  0  0  0
    7.8388  -13.2305   27.4547 C   0  0  0  0  0  0  0  0  0  0  0  0
    7.7336  -16.2035   23.6319 C   0  0  0  0  0  0  0  0  0  0  0  0
    8.3218  -17.3264   23.8622 O   0  0  0  0  0  0  0  0  0  0  0  0
    7.6488  -15.6989   22.3235 N   0  0  0  0  0  0  0  0  0  0  0  0
    6.4649  -15.0459   21.7062 C   0  0  0  0  0  0  0  0  0  0  0  0
    7.1383  -13.8025   21.0914 C   0  0  0  0  0  0  0  0  0  0  0  0
    8.6180  -14.1475   20.9809 C   0  0  0  0  0  0  0  0  0  0  0  0
    8.5653  -15.6612   21.2255 C   0  0  1  0  0  0  0  0  0  0  0  0
    9.8454  -16.2797   21.2814 C   0  0  0  0  0  0  0  0  0  0  0  0
   10.5254  -16.7926   20.3760 O   0  0  0  0  0  0  0  0  0  0  0  0
   11.6855  -16.5269   25.1109 O   0  0  0  0  0  0  0  0  0  0  0  0
   12.2832  -15.8410   24.0737 C   0  0  0  0  0  0  0  0  0  0  0  0
   11.9027  -16.4798   22.7314 C   0  0  2  0  0  0  0  0  0  0  0  0
   10.4733  -16.3297   22.5945 N   0  0  0  0  0  0  0  0  0  0  0  0
   12.2711  -17.9346   22.8677 C   0  0  0  0  0  0  0  0  0  0  0  0
   11.3790  -18.8153   22.9526 O   0  0  0  0  0  0  0  0  0  0  0  0
   13.5920  -18.3583   22.9048 O   0  0  0  0  0  0  0  0  0  0  0  0
  2  1  1  1
  2 10  1  0
  3  2  1  0
  4  3  1  0
  4  9  1  0
  5  4  2  0
  6  5  1  0
  6  7  2  0
  7  8  1  0
  8  9  2  0
 10 11  2  0
 10 12  1  0
 12 13  1  0
 13 14  1  0
 15 14  1  0
 16 12  1  0
 16 15  1  0
 16 17  1  1
 18 17  2  0
 19 20  1  0
 21 20  1  1
 21 22  1  0
 21 23  1  0
 22 17  1  0
 23 25  1  0
 24 23  2  0
M  END
$$$$
