FPS.pdb
     RDKit          3D

 25 26  0  0  1  0  0  0  0  0999 V2000
    6.6515  -16.4341   25.5260 N   0  0  0  0  0  0  0  0  0  0  0  0
    7.1005  -15.5715   24.4739 C   0  0  1  0  0  0  0  0  0  0  0  0
    8.1133  -14.5664   25.0287 C   0  0  0  0  0  0  0  0  0  0  0  0
    7.3529  -13.6025   25.8590 C   0  0  0  0  0  0  0  0  0  0  0  0
    6.0816  -13.1688   25.5774 C   0  0  0  0  0  0  0  0  0  0  0  0
    5.4036  -12.2691   26.3708 C   0  0  0  0  0  0  0  0  0  0  0  0
    6.0313  -11.7834   27.4978 C   0  0  0  0  0  0  0  0  0  0  0  0
    7.3123  -12.1887   27.8264 C   0  0  0  0  0  0  0  0  0  0  0  0
    7.9570  -13.1017   26.9907 C   0  0  0  0  0  0  0  0  0  0  0  0
    7.6101  -16.2262   23.2632 C   0  0  0  0  0  0  0  0  0  0  0  0
    8.1550  -17.3698   23.4985 O   0  0  0  0  0  0  0  0  0  0  0  0
    7.5465  -15.7234   21.9530 N   0  0  0  0  0  0  0  0  0  0  0  0
    6.3686  -15.0828   21.3115 C   0  0  0  0  0  0  0  0  0  0  0  0
    7.0416  -13.8331   20.7091 C   0  0  0  0  0  0  0  0  0  0  0  0
    8.5267  -14.1631   20.6287 C   0  0  0  0  0  0  0  0  0  0  0  0
    8.4844  -15.6771   20.8735 C   0  0  1  0  0  0  0  0  0  0  0  0
    9.7693  -16.2826   20.9556 C   0  0  0  0  0  0  0  0  0  0  0  0
   10.8273  -15.8492   21.4435 O   0  0  0  0  0  0  0  0  0  0  0  0
   10.4758  -19.7723   22.0415 O   0  0  0  0  0  0  0  0  0  0  0  0
   10.9254  -19.7371   20.7377 C   0  0  0  0  0  0  0  0  0  0  0  0
   11.1609  -18.2851   20.3008 C   0  0  2  0  0  0  0  0  0  0  0  0
    9.8834  -17.6175   20.3848 N   0  0  0  0  0  0  0  0  0  0  0  0
   11.6186  -18.3729   18.8679 C   0  0  0  0  0  0  0  0  0  0  0  0
   10.8106  -18.1801   17.9252 O   0  0  0  0  0  0  0  0  0  0  0  0
   12.9328  -18.6662   18.5323 O   0  0  0  0  0  0  0  0  0  0  0  0
  2  1  1  1
  2 10  1  0
  3  2  1  0
  4  3  1  0
  4  9  1  0
  5  4  2  0
  6  5  1  0
  6  7  2  0
  7  8  1  0
  8  9  2  0
 10 11  2  0
 10 12  1  0
 12 13  1  0
 13 14  1  0
 15 14  1  0
 16 12  1  0
 16 15  1  0
 16 17  1  1
 18 17  2  0
 19 20  1  0
 21 20  1  6
 21 22  1  0
 21 23  1  0
 22 17  1  0
 23 25  1  0
 24 23  2  0
M  END
$$$$
