FPS.pdb
     RDKit          3D

 25 26  0  0  1  0  0  0  0  0999 V2000
    5.7451  -17.4255   25.4718 N   0  0  0  0  0  0  0  0  0  0  0  0
    6.6090  -16.3133   25.2091 C   0  0  1  0  0  0  0  0  0  0  0  0
    7.1397  -15.7499   26.5299 C   0  0  0  0  0  0  0  0  0  0  0  0
    6.9326  -14.2830   26.4866 C   0  0  0  0  0  0  0  0  0  0  0  0
    5.7070  -13.6745   26.3796 C   0  0  0  0  0  0  0  0  0  0  0  0
    5.5504  -12.3061   26.3400 C   0  0  0  0  0  0  0  0  0  0  0  0
    6.6759  -11.5135   26.4112 C   0  0  0  0  0  0  0  0  0  0  0  0
    7.9344  -12.0769   26.5198 C   0  0  0  0  0  0  0  0  0  0  0  0
    8.0406  -13.4680   26.5559 C   0  0  0  0  0  0  0  0  0  0  0  0
    7.6986  -16.5423   24.2529 C   0  0  0  0  0  0  0  0  0  0  0  0
    8.6578  -17.2510   24.7404 O   0  0  0  0  0  0  0  0  0  0  0  0
    7.7607  -16.0728   22.9303 N   0  0  0  0  0  0  0  0  0  0  0  0
    6.6037  -15.7733   22.0466 C   0  0  0  0  0  0  0  0  0  0  0  0
    7.0247  -14.3870   21.5191 C   0  0  0  0  0  0  0  0  0  0  0  0
    8.5302  -14.3030   21.7368 C   0  0  0  0  0  0  0  0  0  0  0  0
    8.8446  -15.7725   22.0460 C   0  0  1  0  0  0  0  0  0  0  0  0
   10.2025  -16.0080   22.3994 C   0  0  0  0  0  0  0  0  0  0  0  0
   10.9714  -15.3375   23.1096 O   0  0  0  0  0  0  0  0  0  0  0  0
   11.5490  -19.5641   23.1813 O   0  0  0  0  0  0  0  0  0  0  0  0
   12.2910  -19.0649   22.1308 C   0  0  0  0  0  0  0  0  0  0  0  0
   12.1910  -17.5341   22.0960 C   0  0  2  0  0  0  0  0  0  0  0  0
   10.8033  -17.2175   21.8542 N   0  0  0  0  0  0  0  0  0  0  0  0
   13.0419  -17.1091   20.9272 C   0  0  0  0  0  0  0  0  0  0  0  0
   12.5554  -17.0479   19.7704 O   0  0  0  0  0  0  0  0  0  0  0  0
   14.3798  -16.7718   21.0757 O   0  0  0  0  0  0  0  0  0  0  0  0
  2  1  1  1
  2 10  1  0
  3  2  1  0
  4  3  1  0
  4  9  1  0
  5  4  2  0
  6  5  1  0
  6  7  2  0
  7  8  1  0
  8  9  2  0
 10 11  2  0
 10 12  1  0
 12 13  1  0
 13 14  1  0
 15 14  1  0
 16 12  1  0
 16 15  1  0
 16 17  1  1
 18 17  2  0
 19 20  1  0
 21 20  1  6
 21 22  1  0
 21 23  1  0
 22 17  1  0
 23 25  1  0
 24 23  2  0
M  END
$$$$
