FPS.pdb
     RDKit          3D

 25 26  0  0  1  0  0  0  0  0999 V2000
    6.1266  -16.9852   25.6702 N   0  0  0  0  0  0  0  0  0  0  0  0
    6.9590  -16.0072   25.0352 C   0  0  1  0  0  0  0  0  0  0  0  0
    7.9153  -15.3985   26.0641 C   0  0  0  0  0  0  0  0  0  0  0  0
    7.4309  -14.0257   26.3428 C   0  0  0  0  0  0  0  0  0  0  0  0
    8.2457  -12.9541   26.6105 C   0  0  0  0  0  0  0  0  0  0  0  0
    7.7614  -11.6900   26.8677 C   0  0  0  0  0  0  0  0  0  0  0  0
    6.3972  -11.4938   26.8552 C   0  0  0  0  0  0  0  0  0  0  0  0
    5.5325  -12.5406   26.5909 C   0  0  0  0  0  0  0  0  0  0  0  0
    6.0721  -13.8023   26.3366 C   0  0  0  0  0  0  0  0  0  0  0  0
    7.6791  -16.4420   23.8325 C   0  0  0  0  0  0  0  0  0  0  0  0
    8.4315  -17.4677   24.0373 O   0  0  0  0  0  0  0  0  0  0  0  0
    7.6066  -15.8547   22.5584 N   0  0  0  0  0  0  0  0  0  0  0  0
    6.3749  -15.3768   21.8775 C   0  0  0  0  0  0  0  0  0  0  0  0
    6.8513  -13.9860   21.4126 C   0  0  0  0  0  0  0  0  0  0  0  0
    8.3735  -14.0485   21.4188 C   0  0  0  0  0  0  0  0  0  0  0  0
    8.5849  -15.5619   21.5562 C   0  0  1  0  0  0  0  0  0  0  0  0
    9.9493  -15.9421   21.6908 C   0  0  0  0  0  0  0  0  0  0  0  0
   10.9170  -15.3021   22.1370 O   0  0  0  0  0  0  0  0  0  0  0  0
   10.6701  -19.7514   22.0172 O   0  0  0  0  0  0  0  0  0  0  0  0
   11.7614  -18.9203   22.1643 C   0  0  0  0  0  0  0  0  0  0  0  0
   11.6558  -17.7357   21.1946 C   0  0  2  0  0  0  0  0  0  0  0  0
   10.2845  -17.2863   21.2415 N   0  0  0  0  0  0  0  0  0  0  0  0
   11.9795  -18.3057   19.8378 C   0  0  0  0  0  0  0  0  0  0  0  0
   11.1097  -18.3335   18.9314 O   0  0  0  0  0  0  0  0  0  0  0  0
   13.2335  -18.8170   19.5350 O   0  0  0  0  0  0  0  0  0  0  0  0
  2  1  1  1
  2 10  1  0
  3  2  1  0
  4  3  1  0
  4  9  1  0
  5  4  2  0
  6  5  1  0
  6  7  2  0
  7  8  1  0
  8  9  2  0
 10 11  2  0
 10 12  1  0
 12 13  1  0
 13 14  1  0
 15 14  1  0
 16 12  1  0
 16 15  1  0
 16 17  1  1
 18 17  2  0
 19 20  1  0
 21 20  1  1
 21 22  1  0
 21 23  1  0
 22 17  1  0
 23 25  1  0
 24 23  2  0
M  END
$$$$
