CVY.pdb
     RDKit          3D

 26 26  0  0  1  0  0  0  0  0999 V2000
   16.7009  -11.4998  -17.2062 N   0  0  0  0  0  0  0  0  0  0  0  0
   16.7502  -10.5188  -16.1395 C   0  0  1  0  0  0  0  0  0  0  0  0
   17.3037  -11.1438  -14.8769 C   0  0  0  0  0  0  0  0  0  0  0  0
   19.0048  -11.7430  -15.1960 S   0  0  0  0  0  0  0  0  0  0  0  0
   17.5461   -9.3726  -16.5972 C   0  0  0  0  0  0  0  0  0  0  0  0
   18.4304   -9.4958  -17.5136 O   0  0  0  0  0  0  0  0  0  0  0  0
   16.2683   -5.5702  -16.1987 C   0  0  0  0  0  0  0  0  0  0  0  0
   17.3359   -5.9539  -17.2029 C   0  0  1  0  0  0  0  0  0  0  0  0
   18.0942   -4.6823  -17.5401 C   0  0  0  0  0  0  0  0  0  0  0  0
   18.2549   -6.9642  -16.5169 C   0  0  2  0  0  0  0  0  0  0  0  0
   17.4147   -8.0530  -16.0809 N   0  0  0  0  0  0  0  0  0  0  0  0
   18.9384   -6.2705  -15.4274 C   0  0  0  0  0  0  0  0  0  0  0  0
   18.2762   -5.9746  -14.4033 O   0  0  0  0  0  0  0  0  0  0  0  0
   25.4419   -7.7816  -17.9646 O   0  0  0  0  0  0  0  0  0  0  0  0
   24.5978   -7.4001  -16.9434 C   0  0  0  0  0  0  0  0  0  0  0  0
   24.6825   -6.1118  -16.4322 C   0  0  0  0  0  0  0  0  0  0  0  0
   23.8355   -5.7531  -15.4189 C   0  0  0  0  0  0  0  0  0  0  0  0
   22.9131   -6.6173  -14.8957 C   0  0  0  0  0  0  0  0  0  0  0  0
   22.0000   -6.2208  -13.7772 C   0  0  0  0  0  0  0  0  0  0  0  0
   20.9129   -5.2962  -14.2684 C   0  0  2  0  0  0  0  0  0  0  0  0
   20.3080   -5.9139  -15.4646 N   0  0  0  0  0  0  0  0  0  0  0  0
   21.3688   -3.9470  -14.5782 C   0  0  0  0  0  0  0  0  0  0  0  0
   21.8386   -3.1016  -13.6073 O   0  0  0  0  0  0  0  0  0  0  0  0
   22.8324   -7.8954  -15.4060 C   0  0  0  0  0  0  0  0  0  0  0  0
   23.6700   -8.2838  -16.4239 C   0  0  0  0  0  0  0  0  0  0  0  0
   21.3380   -3.5224  -15.7690 O   0  0  0  0  0  0  0  0  0  0  0  0
  2  1  1  6
  2  3  1  0
  3  4  1  0
  5  2  1  0
  6  5  2  0
  8  7  1  1
  8  9  1  0
  8 10  1  0
 10 12  1  0
 10 11  1  1
 11  5  1  0
 12 21  1  0
 13 12  2  0
 15 16  2  0
 15 14  1  0
 17 16  1  0
 18 17  2  0
 20 19  1  6
 19 18  1  0
 20 22  1  0
 21 20  1  0
 22 26  2  0
 22 23  1  0
 24 18  1  0
 24 25  2  0
 25 15  1  0
M  END
$$$$
