CVY.pdb
     RDKit          3D

 26 26  0  0  1  0  0  0  0  0999 V2000
   27.9336  -23.6744  -16.6187 N   0  0  0  0  0  0  0  0  0  0  0  0
   26.5912  -24.2095  -16.4991 C   0  0  1  0  0  0  0  0  0  0  0  0
   25.5882  -23.2503  -17.1035 C   0  0  0  0  0  0  0  0  0  0  0  0
   25.5112  -21.7336  -16.0797 S   0  0  0  0  0  0  0  0  0  0  0  0
   26.5591  -25.5332  -17.1342 C   0  0  0  0  0  0  0  0  0  0  0  0
   26.1734  -25.6850  -18.3446 O   0  0  0  0  0  0  0  0  0  0  0  0
   28.9367  -29.6259  -17.6527 C   0  0  0  0  0  0  0  0  0  0  0  0
   28.6860  -28.2653  -17.0349 C   0  0  1  0  0  0  0  0  0  0  0  0
   29.5300  -27.2712  -17.8130 C   0  0  0  0  0  0  0  0  0  0  0  0
   27.1982  -27.9613  -17.2075 C   0  0  2  0  0  0  0  0  0  0  0  0
   26.9426  -26.7396  -16.4839 N   0  0  0  0  0  0  0  0  0  0  0  0
   26.4513  -29.1133  -16.7072 C   0  0  0  0  0  0  0  0  0  0  0  0
   26.6536  -29.4853  -15.5259 O   0  0  0  0  0  0  0  0  0  0  0  0
   21.1486  -26.8499  -13.8812 O   0  0  0  0  0  0  0  0  0  0  0  0
   21.6887  -27.8355  -14.6798 C   0  0  0  0  0  0  0  0  0  0  0  0
   21.7090  -29.1478  -14.2262 C   0  0  0  0  0  0  0  0  0  0  0  0
   22.2495  -30.1110  -15.0343 C   0  0  0  0  0  0  0  0  0  0  0  0
   22.7678  -29.8251  -16.2676 C   0  0  0  0  0  0  0  0  0  0  0  0
   23.3704  -30.8832  -17.1392 C   0  0  0  0  0  0  0  0  0  0  0  0
   24.8529  -31.0117  -16.8872 C   0  0  2  0  0  0  0  0  0  0  0  0
   25.5112  -29.8330  -17.4836 N   0  0  0  0  0  0  0  0  0  0  0  0
   25.4459  -32.2352  -17.4124 C   0  0  0  0  0  0  0  0  0  0  0  0
   25.1100  -33.4699  -16.9220 O   0  0  0  0  0  0  0  0  0  0  0  0
   22.7460  -28.5210  -16.7141 C   0  0  0  0  0  0  0  0  0  0  0  0
   22.2094  -27.5326  -15.9243 C   0  0  0  0  0  0  0  0  0  0  0  0
   26.2973  -32.1801  -18.3458 O   0  0  0  0  0  0  0  0  0  0  0  0
  2  1  1  6
  2  3  1  0
  3  4  1  0
  5  2  1  0
  6  5  2  0
  8  7  1  6
  8  9  1  0
  8 10  1  0
 10 12  1  0
 10 11  1  1
 11  5  1  0
 12 21  1  0
 13 12  2  0
 15 16  2  0
 15 14  1  0
 17 16  1  0
 18 17  2  0
 20 19  1  6
 19 18  1  0
 20 22  1  0
 21 20  1  0
 22 26  2  0
 22 23  1  0
 24 18  1  0
 24 25  2  0
 25 15  1  0
M  END
$$$$
