CVY.pdb
     RDKit          3D

 26 26  0  0  1  0  0  0  0  0999 V2000
   15.7331  -12.0309  -14.9908 N   0  0  0  0  0  0  0  0  0  0  0  0
   16.6789  -11.4475  -14.0594 C   0  0  1  0  0  0  0  0  0  0  0  0
   17.8883  -10.9197  -14.8011 C   0  0  0  0  0  0  0  0  0  0  0  0
   18.9741  -12.3217  -15.2595 S   0  0  0  0  0  0  0  0  0  0  0  0
   15.9904  -10.4041  -13.2887 C   0  0  0  0  0  0  0  0  0  0  0  0
   15.2333   -9.5431  -13.8565 O   0  0  0  0  0  0  0  0  0  0  0  0
   13.8595   -8.9132   -9.2508 C   0  0  0  0  0  0  0  0  0  0  0  0
   14.6025   -9.9686  -10.0444 C   0  0  1  0  0  0  0  0  0  0  0  0
   13.5504  -10.8896  -10.6366 C   0  0  0  0  0  0  0  0  0  0  0  0
   15.3679   -9.2426  -11.1502 C   0  0  2  0  0  0  0  0  0  0  0  0
   16.0957  -10.2542  -11.8774 N   0  0  0  0  0  0  0  0  0  0  0  0
   16.2212   -8.2422  -10.5128 C   0  0  0  0  0  0  0  0  0  0  0  0
   17.0915   -8.6351   -9.6986 O   0  0  0  0  0  0  0  0  0  0  0  0
   21.6511   -8.0973  -13.6694 O   0  0  0  0  0  0  0  0  0  0  0  0
   20.6910   -7.3544  -13.0157 C   0  0  0  0  0  0  0  0  0  0  0  0
   21.0243   -6.6854  -11.8453 C   0  0  0  0  0  0  0  0  0  0  0  0
   20.0568   -5.9535  -11.2120 C   0  0  0  0  0  0  0  0  0  0  0  0
   18.7790   -5.8596  -11.6912 C   0  0  0  0  0  0  0  0  0  0  0  0
   17.7229   -5.0681  -10.9839 C   0  0  0  0  0  0  0  0  0  0  0  0
   16.9743   -5.9279   -9.9948 C   0  0  2  0  0  0  0  0  0  0  0  0
   16.1192   -6.8526  -10.7643 N   0  0  0  0  0  0  0  0  0  0  0  0
   16.1679   -5.1785   -9.0396 C   0  0  0  0  0  0  0  0  0  0  0  0
   16.7177   -4.6016   -7.9247 O   0  0  0  0  0  0  0  0  0  0  0  0
   18.4522   -6.5254  -12.8534 C   0  0  0  0  0  0  0  0  0  0  0  0
   19.4031   -7.2681  -13.5112 C   0  0  0  0  0  0  0  0  0  0  0  0
   14.9239   -5.0448   -9.2234 O   0  0  0  0  0  0  0  0  0  0  0  0
  2  1  1  6
  2  3  1  0
  3  4  1  0
  5  2  1  0
  6  5  2  0
  8  7  1  1
  8  9  1  0
  8 10  1  0
 10 12  1  0
 10 11  1  1
 11  5  1  0
 12 21  1  0
 13 12  2  0
 15 16  2  0
 15 14  1  0
 17 16  1  0
 18 17  2  0
 20 19  1  6
 19 18  1  0
 20 22  1  0
 21 20  1  0
 22 26  2  0
 22 23  1  0
 24 18  1  0
 24 25  2  0
 25 15  1  0
M  END
$$$$
