CVY.pdb
     RDKit          3D

 26 26  0  0  1  0  0  0  0  0999 V2000
   25.1252  -15.1077  -18.3076 N   0  0  0  0  0  0  0  0  0  0  0  0
   25.0910  -13.7355  -18.7751 C   0  0  1  0  0  0  0  0  0  0  0  0
   24.0762  -13.5855  -19.8881 C   0  0  0  0  0  0  0  0  0  0  0  0
   24.5299  -14.6961  -21.2720 S   0  0  0  0  0  0  0  0  0  0  0  0
   24.8064  -12.8605  -17.6306 C   0  0  0  0  0  0  0  0  0  0  0  0
   23.8983  -13.1500  -16.7771 O   0  0  0  0  0  0  0  0  0  0  0  0
   27.4129  -11.5261  -15.3486 C   0  0  0  0  0  0  0  0  0  0  0  0
   26.5745  -10.3171  -15.7108 C   0  0  1  0  0  0  0  0  0  0  0  0
   27.3082   -9.5970  -16.8284 C   0  0  0  0  0  0  0  0  0  0  0  0
   25.2237  -10.8381  -16.2004 C   0  0  2  0  0  0  0  0  0  0  0  0
   25.4928  -11.6418  -17.3680 N   0  0  0  0  0  0  0  0  0  0  0  0
   24.3723   -9.6797  -16.4620 C   0  0  0  0  0  0  0  0  0  0  0  0
   24.4852   -9.0967  -17.5675 O   0  0  0  0  0  0  0  0  0  0  0  0
   17.9006   -4.7395  -18.7318 O   0  0  0  0  0  0  0  0  0  0  0  0
   18.8416   -5.6689  -18.3420 C   0  0  0  0  0  0  0  0  0  0  0  0
   20.1410   -5.2564  -18.0781 C   0  0  0  0  0  0  0  0  0  0  0  0
   21.0596   -6.1946  -17.6925 C   0  0  0  0  0  0  0  0  0  0  0  0
   20.7416   -7.5185  -17.5591 C   0  0  0  0  0  0  0  0  0  0  0  0
   21.7568   -8.5406  -17.1505 C   0  0  0  0  0  0  0  0  0  0  0  0
   22.5436   -8.0717  -15.9509 C   0  0  2  0  0  0  0  0  0  0  0  0
   23.4264   -9.1791  -15.5352 N   0  0  0  0  0  0  0  0  0  0  0  0
   21.7219   -7.6382  -14.8278 C   0  0  0  0  0  0  0  0  0  0  0  0
   21.1613   -8.5329  -13.9542 O   0  0  0  0  0  0  0  0  0  0  0  0
   19.4505   -7.9239  -17.8223 C   0  0  0  0  0  0  0  0  0  0  0  0
   18.5066   -7.0040  -18.2113 C   0  0  0  0  0  0  0  0  0  0  0  0
   21.5055   -6.4073  -14.6353 O   0  0  0  0  0  0  0  0  0  0  0  0
  2  1  1  1
  2  3  1  0
  3  4  1  0
  5  2  1  0
  6  5  2  0
  8  7  1  6
  8  9  1  0
  8 10  1  0
 10 12  1  0
 10 11  1  6
 11  5  1  0
 12 21  1  0
 13 12  2  0
 15 16  2  0
 15 14  1  0
 17 16  1  0
 18 17  2  0
 20 19  1  6
 19 18  1  0
 20 22  1  0
 21 20  1  0
 22 26  2  0
 22 23  1  0
 24 18  1  0
 24 25  2  0
 25 15  1  0
M  END
$$$$
