CVY.pdb
     RDKit          3D

 26 26  0  0  1  0  0  0  0  0999 V2000
   16.2885  -25.0259   -4.5696 N   0  0  0  0  0  0  0  0  0  0  0  0
   16.3368  -26.3229   -3.9230 C   0  0  1  0  0  0  0  0  0  0  0  0
   15.9390  -27.4104   -4.8978 C   0  0  0  0  0  0  0  0  0  0  0  0
   14.1551  -27.2536   -5.2817 S   0  0  0  0  0  0  0  0  0  0  0  0
   17.6854  -26.5210   -3.3765 C   0  0  0  0  0  0  0  0  0  0  0  0
   18.7143  -25.9992   -3.9296 O   0  0  0  0  0  0  0  0  0  0  0  0
   18.6540  -25.9824    0.2367 C   0  0  0  0  0  0  0  0  0  0  0  0
   19.1366  -27.3687   -0.1387 C   0  0  1  0  0  0  0  0  0  0  0  0
   18.0554  -28.3403    0.3003 C   0  0  0  0  0  0  0  0  0  0  0  0
   19.2977  -27.3916   -1.6583 C   0  0  2  0  0  0  0  0  0  0  0  0
   17.9698  -27.2899   -2.2132 N   0  0  0  0  0  0  0  0  0  0  0  0
   19.9935  -28.6276   -2.0099 C   0  0  0  0  0  0  0  0  0  0  0  0
   19.3054  -29.6486   -2.2522 O   0  0  0  0  0  0  0  0  0  0  0  0
   25.8800  -34.6390   -4.4507 O   0  0  0  0  0  0  0  0  0  0  0  0
   25.2633  -33.4593   -4.0914 C   0  0  0  0  0  0  0  0  0  0  0  0
   24.3857  -32.8493   -4.9780 C   0  0  0  0  0  0  0  0  0  0  0  0
   23.7841  -31.6791   -4.6020 C   0  0  0  0  0  0  0  0  0  0  0  0
   24.0175  -31.0935   -3.3879 C   0  0  0  0  0  0  0  0  0  0  0  0
   23.3657  -29.8052   -2.9905 C   0  0  0  0  0  0  0  0  0  0  0  0
   21.9963  -30.0501   -2.4052 C   0  0  2  0  0  0  0  0  0  0  0  0
   21.4028  -28.7356   -2.0921 N   0  0  0  0  0  0  0  0  0  0  0  0
   21.9948  -30.8954   -1.2178 C   0  0  0  0  0  0  0  0  0  0  0  0
   22.2619  -30.3921    0.0285 O   0  0  0  0  0  0  0  0  0  0  0  0
   24.8896  -31.7021   -2.5107 C   0  0  0  0  0  0  0  0  0  0  0  0
   25.5084  -32.8781   -2.8610 C   0  0  0  0  0  0  0  0  0  0  0  0
   21.7440  -32.1310   -1.3165 O   0  0  0  0  0  0  0  0  0  0  0  0
  2  1  1  6
  2  3  1  0
  3  4  1  0
  5  2  1  0
  6  5  2  0
  8  7  1  6
  8  9  1  0
  8 10  1  0
 10 12  1  0
 10 11  1  6
 11  5  1  0
 12 21  1  0
 13 12  2  0
 15 16  2  0
 15 14  1  0
 17 16  1  0
 18 17  2  0
 20 19  1  1
 19 18  1  0
 20 22  1  0
 21 20  1  0
 22 26  2  0
 22 23  1  0
 24 18  1  0
 24 25  2  0
 25 15  1  0
M  END
$$$$
