CVY.pdb
     RDKit          3D

 26 26  0  0  1  0  0  0  0  0999 V2000
   23.2240  -16.0744  -16.3803 N   0  0  0  0  0  0  0  0  0  0  0  0
   23.3134  -14.8955  -17.2199 C   0  0  1  0  0  0  0  0  0  0  0  0
   21.9775  -14.6145  -17.8737 C   0  0  0  0  0  0  0  0  0  0  0  0
   21.5239  -16.0252  -18.9501 S   0  0  0  0  0  0  0  0  0  0  0  0
   23.7865  -13.7736  -16.3987 C   0  0  0  0  0  0  0  0  0  0  0  0
   23.3513  -13.5844  -15.2106 O   0  0  0  0  0  0  0  0  0  0  0  0
   27.2381  -10.4482  -15.4661 C   0  0  0  0  0  0  0  0  0  0  0  0
   26.7306  -11.6217  -16.2791 C   0  0  1  0  0  0  0  0  0  0  0  0
   27.5010  -12.8430  -15.8093 C   0  0  0  0  0  0  0  0  0  0  0  0
   25.2415  -11.7714  -15.9699 C   0  0  2  0  0  0  0  0  0  0  0  0
   24.7465  -12.8167  -16.8324 N   0  0  0  0  0  0  0  0  0  0  0  0
   24.6115  -10.4719  -16.1925 C   0  0  0  0  0  0  0  0  0  0  0  0
   24.5770  -10.0208  -17.3630 O   0  0  0  0  0  0  0  0  0  0  0  0
   19.9616   -3.0982  -15.4923 O   0  0  0  0  0  0  0  0  0  0  0  0
   20.5920   -4.2917  -15.2108 C   0  0  0  0  0  0  0  0  0  0  0  0
   21.8078   -4.2807  -14.5400 C   0  0  0  0  0  0  0  0  0  0  0  0
   22.4170   -5.4761  -14.2703 C   0  0  0  0  0  0  0  0  0  0  0  0
   21.8706   -6.6752  -14.6377 C   0  0  0  0  0  0  0  0  0  0  0  0
   22.5512   -7.9778  -14.3512 C   0  0  0  0  0  0  0  0  0  0  0  0
   23.4360   -8.3903  -15.5022 C   0  0  2  0  0  0  0  0  0  0  0  0
   24.0376   -9.6935  -15.1585 N   0  0  0  0  0  0  0  0  0  0  0  0
   24.4804   -7.4278  -15.8296 C   0  0  0  0  0  0  0  0  0  0  0  0
   24.3572   -6.5564  -16.8801 O   0  0  0  0  0  0  0  0  0  0  0  0
   20.6635   -6.6817  -15.3038 C   0  0  0  0  0  0  0  0  0  0  0  0
   20.0285   -5.4966  -15.5882 C   0  0  0  0  0  0  0  0  0  0  0  0
   25.5392   -7.3782  -15.1399 O   0  0  0  0  0  0  0  0  0  0  0  0
  2  1  1  1
  2  3  1  0
  3  4  1  0
  5  2  1  0
  6  5  2  0
  8  7  1  1
  8  9  1  0
  8 10  1  0
 10 12  1  0
 10 11  1  6
 11  5  1  0
 12 21  1  0
 13 12  2  0
 15 16  2  0
 15 14  1  0
 17 16  1  0
 18 17  2  0
 20 19  1  1
 19 18  1  0
 20 22  1  0
 21 20  1  0
 22 26  2  0
 22 23  1  0
 24 18  1  0
 24 25  2  0
 25 15  1  0
M  END
$$$$
