CVY.pdb
     RDKit          3D

 26 26  0  0  1  0  0  0  0  0999 V2000
   24.4680  -14.8597  -17.7635 N   0  0  0  0  0  0  0  0  0  0  0  0
   24.2920  -13.9253  -16.6687 C   0  0  1  0  0  0  0  0  0  0  0  0
   25.6372  -13.5015  -16.1192 C   0  0  0  0  0  0  0  0  0  0  0  0
   26.3334  -14.8632  -15.1114 S   0  0  0  0  0  0  0  0  0  0  0  0
   23.4958  -12.7889  -17.1496 C   0  0  0  0  0  0  0  0  0  0  0  0
   23.8499  -12.1107  -18.1752 O   0  0  0  0  0  0  0  0  0  0  0  0
   19.2187  -10.5437  -17.5394 C   0  0  0  0  0  0  0  0  0  0  0  0
   20.0684  -11.7344  -17.1446 C   0  0  1  0  0  0  0  0  0  0  0  0
   19.9108  -12.7668  -18.2470 C   0  0  0  0  0  0  0  0  0  0  0  0
   21.5147  -11.2470  -17.0648 C   0  0  2  0  0  0  0  0  0  0  0  0
   22.2892  -12.3451  -16.5395 N   0  0  0  0  0  0  0  0  0  0  0  0
   21.5324  -10.0532  -16.2223 C   0  0  0  0  0  0  0  0  0  0  0  0
   21.0810  -10.1429  -15.0549 O   0  0  0  0  0  0  0  0  0  0  0  0
   21.5695   -1.6145  -13.8401 O   0  0  0  0  0  0  0  0  0  0  0  0
   21.8766   -2.8210  -14.4325 C   0  0  0  0  0  0  0  0  0  0  0  0
   21.6583   -2.9892  -15.7935 C   0  0  0  0  0  0  0  0  0  0  0  0
   21.9700   -4.1944  -16.3620 C   0  0  0  0  0  0  0  0  0  0  0  0
   22.4869   -5.2334  -15.6376 C   0  0  0  0  0  0  0  0  0  0  0  0
   22.8116   -6.5535  -16.2653 C   0  0  0  0  0  0  0  0  0  0  0  0
   21.8903   -7.6353  -15.7565 C   0  0  2  0  0  0  0  0  0  0  0  0
   22.0315   -8.7999  -16.6521 N   0  0  0  0  0  0  0  0  0  0  0  0
   20.4907   -7.2380  -15.6692 C   0  0  0  0  0  0  0  0  0  0  0  0
   19.6933   -7.1504  -16.7803 O   0  0  0  0  0  0  0  0  0  0  0  0
   22.7020   -5.0623  -14.2867 C   0  0  0  0  0  0  0  0  0  0  0  0
   22.3985   -3.8630  -13.6883 C   0  0  0  0  0  0  0  0  0  0  0  0
   19.9767   -6.9603  -14.5477 O   0  0  0  0  0  0  0  0  0  0  0  0
  2  1  1  6
  2  3  1  0
  3  4  1  0
  5  2  1  0
  6  5  2  0
  8  7  1  6
  8  9  1  0
  8 10  1  0
 10 12  1  0
 10 11  1  1
 11  5  1  0
 12 21  1  0
 13 12  2  0
 15 16  2  0
 15 14  1  0
 17 16  1  0
 18 17  2  0
 20 19  1  6
 19 18  1  0
 20 22  1  0
 21 20  1  0
 22 26  2  0
 22 23  1  0
 24 18  1  0
 24 25  2  0
 25 15  1  0
M  END
$$$$
