CVY.pdb
     RDKit          3D

 26 26  0  0  1  0  0  0  0  0999 V2000
   28.2849  -21.6464  -15.8406 N   0  0  0  0  0  0  0  0  0  0  0  0
   27.4854  -20.5280  -15.3795 C   0  0  1  0  0  0  0  0  0  0  0  0
   26.8055  -19.8510  -16.5502 C   0  0  0  0  0  0  0  0  0  0  0  0
   27.9813  -18.6918  -17.3429 S   0  0  0  0  0  0  0  0  0  0  0  0
   26.5291  -21.0199  -14.3794 C   0  0  0  0  0  0  0  0  0  0  0  0
   25.8544  -22.0902  -14.5692 O   0  0  0  0  0  0  0  0  0  0  0  0
   24.8489  -21.0064   -9.7801 C   0  0  0  0  0  0  0  0  0  0  0  0
   25.8337  -20.4714  -10.7997 C   0  0  1  0  0  0  0  0  0  0  0  0
   27.1709  -21.1250  -10.4986 C   0  0  0  0  0  0  0  0  0  0  0  0
   25.3258  -20.8926  -12.1782 C   0  0  2  0  0  0  0  0  0  0  0  0
   26.2682  -20.3728  -13.1391 N   0  0  0  0  0  0  0  0  0  0  0  0
   23.9722  -20.3636  -12.3305 C   0  0  0  0  0  0  0  0  0  0  0  0
   23.8237  -19.1190  -12.3910 O   0  0  0  0  0  0  0  0  0  0  0  0
   17.2660  -18.4587  -17.1295 O   0  0  0  0  0  0  0  0  0  0  0  0
   18.3797  -18.9500  -16.4820 C   0  0  0  0  0  0  0  0  0  0  0  0
   19.1979  -18.0797  -15.7739 C   0  0  0  0  0  0  0  0  0  0  0  0
   20.2983  -18.5875  -15.1383 C   0  0  0  0  0  0  0  0  0  0  0  0
   20.6172  -19.9172  -15.1772 C   0  0  0  0  0  0  0  0  0  0  0  0
   21.8313  -20.4620  -14.4907 C   0  0  0  0  0  0  0  0  0  0  0  0
   21.5914  -20.6150  -13.0085 C   0  0  2  0  0  0  0  0  0  0  0  0
   22.8182  -21.1798  -12.4134 N   0  0  0  0  0  0  0  0  0  0  0  0
   20.4428  -21.4462  -12.6703 C   0  0  0  0  0  0  0  0  0  0  0  0
   19.2249  -20.9028  -12.3548 O   0  0  0  0  0  0  0  0  0  0  0  0
   19.8025  -20.7779  -15.8816 C   0  0  0  0  0  0  0  0  0  0  0  0
   18.6904  -20.2965  -16.5298 C   0  0  0  0  0  0  0  0  0  0  0  0
   20.5499  -22.7061  -12.6599 O   0  0  0  0  0  0  0  0  0  0  0  0
  2  1  1  6
  2  3  1  0
  3  4  1  0
  5  2  1  0
  6  5  2  0
  8  7  1  1
  8  9  1  0
  8 10  1  0
 10 12  1  0
 10 11  1  6
 11  5  1  0
 12 21  1  0
 13 12  2  0
 15 16  2  0
 15 14  1  0
 17 16  1  0
 18 17  2  0
 20 19  1  6
 19 18  1  0
 20 22  1  0
 21 20  1  0
 22 26  2  0
 22 23  1  0
 24 18  1  0
 24 25  2  0
 25 15  1  0
M  END
$$$$
