CVY.pdb
     RDKit          3D

 26 26  0  0  1  0  0  0  0  0999 V2000
   45.2518  -12.5400   -7.3351 N   0  0  0  0  0  0  0  0  0  0  0  0
   44.3919  -12.1356   -8.4305 C   0  0  1  0  0  0  0  0  0  0  0  0
   43.5840  -13.3156   -8.9265 C   0  0  0  0  0  0  0  0  0  0  0  0
   42.9422  -12.9459  -10.6016 S   0  0  0  0  0  0  0  0  0  0  0  0
   43.5463  -11.0254   -7.9734 C   0  0  0  0  0  0  0  0  0  0  0  0
   42.8299  -11.1211   -6.9177 O   0  0  0  0  0  0  0  0  0  0  0  0
   42.5586   -6.3724   -7.4786 C   0  0  0  0  0  0  0  0  0  0  0  0
   43.4630   -7.4961   -7.9422 C   0  0  1  0  0  0  0  0  0  0  0  0
   44.4458   -7.7580   -6.8146 C   0  0  0  0  0  0  0  0  0  0  0  0
   42.5757   -8.7177   -8.1789 C   0  0  2  0  0  0  0  0  0  0  0  0
   43.4448   -9.7726   -8.6409 N   0  0  0  0  0  0  0  0  0  0  0  0
   41.5453   -8.3349   -9.1417 C   0  0  0  0  0  0  0  0  0  0  0  0
   41.9053   -8.0039  -10.2974 O   0  0  0  0  0  0  0  0  0  0  0  0
   36.0264   -6.3528   -4.6237 O   0  0  0  0  0  0  0  0  0  0  0  0
   36.4708   -6.8601   -5.8262 C   0  0  0  0  0  0  0  0  0  0  0  0
   37.1010   -8.0972   -5.8549 C   0  0  0  0  0  0  0  0  0  0  0  0
   37.5344   -8.5828   -7.0587 C   0  0  0  0  0  0  0  0  0  0  0  0
   37.3683   -7.8933   -8.2286 C   0  0  0  0  0  0  0  0  0  0  0  0
   37.8586   -8.4258   -9.5394 C   0  0  0  0  0  0  0  0  0  0  0  0
   39.2164   -7.8610   -9.8786 C   0  0  2  0  0  0  0  0  0  0  0  0
   40.1619   -8.3173   -8.8412 N   0  0  0  0  0  0  0  0  0  0  0  0
   39.2515   -6.4077   -9.9832 C   0  0  0  0  0  0  0  0  0  0  0  0
   38.7957   -5.7517  -11.0967 O   0  0  0  0  0  0  0  0  0  0  0  0
   36.7423   -6.6654   -8.1957 C   0  0  0  0  0  0  0  0  0  0  0  0
   36.2964   -6.1525   -7.0013 C   0  0  0  0  0  0  0  0  0  0  0  0
   39.7123   -5.7121   -9.0330 O   0  0  0  0  0  0  0  0  0  0  0  0
  2  1  1  1
  2  3  1  0
  3  4  1  0
  5  2  1  0
  6  5  2  0
  8  7  1  1
  8  9  1  0
  8 10  1  0
 10 12  1  0
 10 11  1  6
 11  5  1  0
 12 21  1  0
 13 12  2  0
 15 16  2  0
 15 14  1  0
 17 16  1  0
 18 17  2  0
 20 19  1  1
 19 18  1  0
 20 22  1  0
 21 20  1  0
 22 26  2  0
 22 23  1  0
 24 18  1  0
 24 25  2  0
 25 15  1  0
M  END
$$$$
