CVY.pdb
     RDKit          3D

 26 26  0  0  1  0  0  0  0  0999 V2000
   27.9474  -22.7770  -17.3906 N   0  0  0  0  0  0  0  0  0  0  0  0
   27.4933  -21.5284  -16.8097 C   0  0  1  0  0  0  0  0  0  0  0  0
   26.5768  -20.8043  -17.7725 C   0  0  0  0  0  0  0  0  0  0  0  0
   27.5486  -20.2322  -19.2157 S   0  0  0  0  0  0  0  0  0  0  0  0
   26.8441  -21.8211  -15.5253 C   0  0  0  0  0  0  0  0  0  0  0  0
   26.2801  -22.9477  -15.3025 O   0  0  0  0  0  0  0  0  0  0  0  0
   28.2583  -21.5628  -12.2226 C   0  0  0  0  0  0  0  0  0  0  0  0
   26.9648  -20.7898  -12.0650 C   0  0  1  0  0  0  0  0  0  0  0  0
   27.3233  -19.3171  -12.1562 C   0  0  0  0  0  0  0  0  0  0  0  0
   26.0551  -21.1963  -13.2239 C   0  0  2  0  0  0  0  0  0  0  0  0
   26.7814  -20.9069  -14.4365 N   0  0  0  0  0  0  0  0  0  0  0  0
   24.8069  -20.4487  -13.0884 C   0  0  0  0  0  0  0  0  0  0  0  0
   24.7825  -19.2566  -13.4797 O   0  0  0  0  0  0  0  0  0  0  0  0
   17.2733  -19.2812  -16.6570 O   0  0  0  0  0  0  0  0  0  0  0  0
   18.4976  -19.6471  -16.1393 C   0  0  0  0  0  0  0  0  0  0  0  0
   18.6919  -20.9500  -15.6998 C   0  0  0  0  0  0  0  0  0  0  0  0
   19.9146  -21.2927  -15.1894 C   0  0  0  0  0  0  0  0  0  0  0  0
   20.9462  -20.3990  -15.0984 C   0  0  0  0  0  0  0  0  0  0  0  0
   22.2764  -20.7789  -14.5253 C   0  0  0  0  0  0  0  0  0  0  0  0
   22.3201  -20.5161  -13.0397 C   0  0  2  0  0  0  0  0  0  0  0  0
   23.6226  -20.9968  -12.5391 N   0  0  0  0  0  0  0  0  0  0  0  0
   21.2356  -21.1370  -12.2894 C   0  0  0  0  0  0  0  0  0  0  0  0
   21.2440  -22.4712  -11.9767 O   0  0  0  0  0  0  0  0  0  0  0  0
   20.7492  -19.1064  -15.5357 C   0  0  0  0  0  0  0  0  0  0  0  0
   19.5319  -18.7335  -16.0530 C   0  0  0  0  0  0  0  0  0  0  0  0
   20.2485  -20.4451  -11.9072 O   0  0  0  0  0  0  0  0  0  0  0  0
  2  1  1  6
  2  3  1  0
  3  4  1  0
  5  2  1  0
  6  5  2  0
  8  7  1  6
  8  9  1  0
  8 10  1  0
 10 12  1  0
 10 11  1  6
 11  5  1  0
 12 21  1  0
 13 12  2  0
 15 16  2  0
 15 14  1  0
 17 16  1  0
 18 17  2  0
 20 19  1  6
 19 18  1  0
 20 22  1  0
 21 20  1  0
 22 26  2  0
 22 23  1  0
 24 18  1  0
 24 25  2  0
 25 15  1  0
M  END
$$$$
