CVY.pdb
     RDKit          3D

 26 26  0  0  1  0  0  0  0  0999 V2000
   28.3122  -22.1168  -16.2176 N   0  0  0  0  0  0  0  0  0  0  0  0
   27.7042  -20.9165  -15.6770 C   0  0  1  0  0  0  0  0  0  0  0  0
   27.0862  -20.0952  -16.7882 C   0  0  0  0  0  0  0  0  0  0  0  0
   27.2977  -18.3152  -16.4120 S   0  0  0  0  0  0  0  0  0  0  0  0
   26.7255  -21.3098  -14.6551 C   0  0  0  0  0  0  0  0  0  0  0  0
   25.9863  -22.3439  -14.8001 O   0  0  0  0  0  0  0  0  0  0  0  0
   24.8859  -20.8411  -10.1243 C   0  0  0  0  0  0  0  0  0  0  0  0
   25.9573  -20.4674  -11.1283 C   0  0  1  0  0  0  0  0  0  0  0  0
   27.2280  -21.1763  -10.6938 C   0  0  0  0  0  0  0  0  0  0  0  0
   25.4931  -20.9794  -12.4914 C   0  0  2  0  0  0  0  0  0  0  0  0
   26.5111  -20.5996  -13.4406 N   0  0  0  0  0  0  0  0  0  0  0  0
   24.1829  -20.3913  -12.7611 C   0  0  0  0  0  0  0  0  0  0  0  0
   24.0883  -19.1404  -12.7942 O   0  0  0  0  0  0  0  0  0  0  0  0
   17.4018  -17.4036  -16.8406 O   0  0  0  0  0  0  0  0  0  0  0  0
   18.5305  -18.0139  -16.3359 C   0  0  0  0  0  0  0  0  0  0  0  0
   19.4322  -17.2701  -15.5862 C   0  0  0  0  0  0  0  0  0  0  0  0
   20.5460  -17.8949  -15.0944 C   0  0  0  0  0  0  0  0  0  0  0  0
   20.7991  -19.2209  -15.3157 C   0  0  0  0  0  0  0  0  0  0  0  0
   22.0277  -19.8930  -14.7858 C   0  0  0  0  0  0  0  0  0  0  0  0
   21.7818  -20.4623  -13.4098 C   0  0  2  0  0  0  0  0  0  0  0  0
   23.0135  -21.1569  -12.9871 N   0  0  0  0  0  0  0  0  0  0  0  0
   20.6438  -21.3696  -13.3316 C   0  0  0  0  0  0  0  0  0  0  0  0
   19.4038  -20.9416  -12.9351 O   0  0  0  0  0  0  0  0  0  0  0  0
   19.9014  -19.9557  -16.0607 C   0  0  0  0  0  0  0  0  0  0  0  0
   18.7740  -19.3551  -16.5674 C   0  0  0  0  0  0  0  0  0  0  0  0
   20.7811  -22.5903  -13.6319 O   0  0  0  0  0  0  0  0  0  0  0  0
  2  1  1  6
  2  3  1  0
  3  4  1  0
  5  2  1  0
  6  5  2  0
  8  7  1  1
  8  9  1  0
  8 10  1  0
 10 12  1  0
 10 11  1  6
 11  5  1  0
 12 21  1  0
 13 12  2  0
 15 16  2  0
 15 14  1  0
 17 16  1  0
 18 17  2  0
 20 19  1  6
 19 18  1  0
 20 22  1  0
 21 20  1  0
 22 26  2  0
 22 23  1  0
 24 18  1  0
 24 25  2  0
 25 15  1  0
M  END
$$$$
