CVY.pdb
     RDKit          3D

 26 26  0  0  1  0  0  0  0  0999 V2000
   26.6824  -20.3772   -8.4906 N   0  0  0  0  0  0  0  0  0  0  0  0
   25.6071  -20.9758   -9.2573 C   0  0  1  0  0  0  0  0  0  0  0  0
   24.2767  -20.7240   -8.5805 C   0  0  0  0  0  0  0  0  0  0  0  0
   24.3121  -21.4402   -6.8952 S   0  0  0  0  0  0  0  0  0  0  0  0
   25.6549  -20.4400  -10.6238 C   0  0  0  0  0  0  0  0  0  0  0  0
   25.8235  -19.1916  -10.8470 O   0  0  0  0  0  0  0  0  0  0  0  0
   26.3416  -20.9542  -15.3952 C   0  0  0  0  0  0  0  0  0  0  0  0
   26.3182  -21.5790  -14.0151 C   0  0  1  0  0  0  0  0  0  0  0  0
   27.7584  -21.6334  -13.5369 C   0  0  0  0  0  0  0  0  0  0  0  0
   25.4871  -20.6601  -13.1204 C   0  0  2  0  0  0  0  0  0  0  0  0
   25.5224  -21.2343  -11.7973 N   0  0  0  0  0  0  0  0  0  0  0  0
   24.1461  -20.5791  -13.6953 C   0  0  0  0  0  0  0  0  0  0  0  0
   23.4112  -21.5944  -13.6348 O   0  0  0  0  0  0  0  0  0  0  0  0
   16.3774  -17.7385  -16.5461 O   0  0  0  0  0  0  0  0  0  0  0  0
   17.6548  -17.8360  -16.0365 C   0  0  0  0  0  0  0  0  0  0  0  0
   17.8352  -18.2105  -14.7115 C   0  0  0  0  0  0  0  0  0  0  0  0
   19.1112  -18.3014  -14.2254 C   0  0  0  0  0  0  0  0  0  0  0  0
   20.2091  -18.0370  -14.9975 C   0  0  0  0  0  0  0  0  0  0  0  0
   21.6013  -18.1251  -14.4532 C   0  0  0  0  0  0  0  0  0  0  0  0
   22.2452  -19.4384  -14.8251 C   0  0  2  0  0  0  0  0  0  0  0  0
   23.6308  -19.4162  -14.3172 N   0  0  0  0  0  0  0  0  0  0  0  0
   22.2407  -19.7242  -16.2543 C   0  0  0  0  0  0  0  0  0  0  0  0
   21.2670  -20.4943  -16.8347 O   0  0  0  0  0  0  0  0  0  0  0  0
   20.0256  -17.6654  -16.3124 C   0  0  0  0  0  0  0  0  0  0  0  0
   18.7557  -17.5658  -16.8282 C   0  0  0  0  0  0  0  0  0  0  0  0
   23.1514  -19.2603  -16.9990 O   0  0  0  0  0  0  0  0  0  0  0  0
  2  1  1  1
  2  3  1  0
  3  4  1  0
  5  2  1  0
  6  5  2  0
  8  7  1  6
  8  9  1  0
  8 10  1  0
 10 12  1  0
 10 11  1  1
 11  5  1  0
 12 21  1  0
 13 12  2  0
 15 16  2  0
 15 14  1  0
 17 16  1  0
 18 17  2  0
 20 19  1  6
 19 18  1  0
 20 22  1  0
 21 20  1  0
 22 26  2  0
 22 23  1  0
 24 18  1  0
 24 25  2  0
 25 15  1  0
M  END
$$$$
