VDA.pdb
     RDKit          3D

 21 20  0  0  1  0  0  0  0  0999 V2000
   15.1411  -10.4459  -14.8785 C   0  0  0  0  0  0  0  0  0  0  0  0
   15.1336  -11.9483  -14.8096 C   0  0  1  0  0  0  0  0  0  0  0  0
   13.7363  -12.4888  -14.8984 C   0  0  0  0  0  0  0  0  0  0  0  0
   16.0800  -12.5761  -15.8030 C   0  0  2  0  0  0  0  0  0  0  0  0
   16.2029  -13.9697  -15.5016 N   0  0  0  0  0  0  0  0  0  0  0  0
   17.3544  -11.8633  -15.9230 C   0  0  0  0  0  0  0  0  0  0  0  0
   18.2836  -12.1611  -15.1437 O   0  0  0  0  0  0  0  0  0  0  0  0
   17.6314  -10.8395  -16.8702 N   0  0  0  0  0  0  0  0  0  0  0  0
   18.8893  -10.2202  -17.0646 C   0  0  1  0  0  0  0  0  0  0  0  0
   19.1476   -9.6975  -18.4417 C   0  0  0  0  0  0  0  0  0  0  0  0
   19.2531  -10.7324  -19.4724 C   0  0  0  0  0  0  0  0  0  0  0  0
   18.6278  -10.5750  -20.5481 O   0  0  0  0  0  0  0  0  0  0  0  0
   19.1072   -9.1845  -16.0435 C   0  0  0  0  0  0  0  0  0  0  0  0
   18.1710   -8.3986  -15.7587 O   0  0  0  0  0  0  0  0  0  0  0  0
   20.0185  -11.8765  -19.2994 O   0  0  0  0  0  0  0  0  0  0  0  0
   21.8881   -8.2699  -13.6328 C   0  0  0  0  0  0  0  0  0  0  0  0
   20.5305   -8.0317  -14.3026 C   0  0  2  0  0  0  0  0  0  0  0  0
   20.3309   -9.0073  -15.3414 N   0  0  0  0  0  0  0  0  0  0  0  0
   20.5203   -6.6439  -14.8278 C   0  0  0  0  0  0  0  0  0  0  0  0
   20.3252   -5.5353  -14.0352 O   0  0  0  0  0  0  0  0  0  0  0  0
   20.6990   -6.4730  -16.0597 O   0  0  0  0  0  0  0  0  0  0  0  0
  2  1  1  6
  2  4  1  0
  3  2  1  0
  4  5  1  1
  4  6  1  0
  6  8  1  0
  7  6  2  0
  8  9  1  0
  9 10  1  6
  9 13  1  0
 10 11  1  0
 11 15  1  0
 12 11  2  0
 13 18  1  0
 13 14  2  0
 17 16  1  6
 18 17  1  0
 19 17  1  0
 19 20  1  0
 21 19  2  0
M  END
$$$$
