VDA.pdb
     RDKit          3D

 21 20  0  0  1  0  0  0  0  0999 V2000
   20.1878  -14.1080  -17.7118 C   0  0  0  0  0  0  0  0  0  0  0  0
   19.4772  -12.7946  -17.5329 C   0  0  1  0  0  0  0  0  0  0  0  0
   18.5782  -12.8231  -16.3314 C   0  0  0  0  0  0  0  0  0  0  0  0
   20.4247  -11.6203  -17.5409 C   0  0  2  0  0  0  0  0  0  0  0  0
   21.5726  -11.9520  -16.7533 N   0  0  0  0  0  0  0  0  0  0  0  0
   19.7836  -10.3530  -17.1811 C   0  0  0  0  0  0  0  0  0  0  0  0
   18.9202   -9.8789  -17.9485 O   0  0  0  0  0  0  0  0  0  0  0  0
   20.0650   -9.5996  -16.0084 N   0  0  0  0  0  0  0  0  0  0  0  0
   19.5373   -8.3207  -15.7086 C   0  0  1  0  0  0  0  0  0  0  0  0
   18.2923   -8.3122  -14.8804 C   0  0  0  0  0  0  0  0  0  0  0  0
   17.7494   -6.9780  -14.6165 C   0  0  0  0  0  0  0  0  0  0  0  0
   17.6242   -6.1797  -15.5756 O   0  0  0  0  0  0  0  0  0  0  0  0
   20.5816   -7.4662  -15.1238 C   0  0  0  0  0  0  0  0  0  0  0  0
   21.2041   -7.8665  -14.1102 O   0  0  0  0  0  0  0  0  0  0  0  0
   17.3707   -6.5691  -13.3460 O   0  0  0  0  0  0  0  0  0  0  0  0
   22.1415   -4.1019  -15.9363 C   0  0  0  0  0  0  0  0  0  0  0  0
   21.9604   -5.3493  -15.0647 C   0  0  2  0  0  0  0  0  0  0  0  0
   20.9430   -6.1905  -15.6374 N   0  0  0  0  0  0  0  0  0  0  0  0
   21.6097   -4.8995  -13.6949 C   0  0  0  0  0  0  0  0  0  0  0  0
   22.5424   -4.4810  -12.7727 O   0  0  0  0  0  0  0  0  0  0  0  0
   20.3986   -4.9009  -13.3602 O   0  0  0  0  0  0  0  0  0  0  0  0
  2  1  1  1
  2  4  1  0
  3  2  1  0
  4  5  1  1
  4  6  1  0
  6  8  1  0
  7  6  2  0
  8  9  1  0
  9 10  1  1
  9 13  1  0
 10 11  1  0
 11 15  1  0
 12 11  2  0
 13 18  1  0
 13 14  2  0
 17 16  1  6
 18 17  1  0
 19 17  1  0
 19 20  1  0
 21 19  2  0
M  END
$$$$
