VDA.pdb
     RDKit          3D

 21 20  0  0  1  0  0  0  0  0999 V2000
   19.1418  -12.3308  -16.9769 C   0  0  0  0  0  0  0  0  0  0  0  0
   19.1132  -11.0280  -16.2260 C   0  0  1  0  0  0  0  0  0  0  0  0
   19.7135  -11.1763  -14.8585 C   0  0  0  0  0  0  0  0  0  0  0  0
   19.7102   -9.8917  -17.0193 C   0  0  2  0  0  0  0  0  0  0  0  0
   20.9748  -10.3117  -17.5412 N   0  0  0  0  0  0  0  0  0  0  0  0
   19.7439   -8.6243  -16.2850 C   0  0  0  0  0  0  0  0  0  0  0  0
   18.6678   -8.1377  -15.8794 O   0  0  0  0  0  0  0  0  0  0  0  0
   20.9209   -7.8840  -15.9877 N   0  0  0  0  0  0  0  0  0  0  0  0
   20.9602   -6.6458  -15.3027 C   0  0  1  0  0  0  0  0  0  0  0  0
   21.8370   -6.6034  -14.0921 C   0  0  0  0  0  0  0  0  0  0  0  0
   21.7815   -5.3434  -13.3478 C   0  0  0  0  0  0  0  0  0  0  0  0
   20.6637   -4.8087  -13.1541 O   0  0  0  0  0  0  0  0  0  0  0  0
   21.2794   -5.5583  -16.2398 C   0  0  0  0  0  0  0  0  0  0  0  0
   22.3433   -5.6140  -16.9032 O   0  0  0  0  0  0  0  0  0  0  0  0
   22.9194   -4.7239  -12.8520 O   0  0  0  0  0  0  0  0  0  0  0  0
   19.4989   -2.5243  -17.6251 C   0  0  0  0  0  0  0  0  0  0  0  0
   20.7592   -3.3566  -17.3657 C   0  0  2  0  0  0  0  0  0  0  0  0
   20.4490   -4.4236  -16.4514 N   0  0  0  0  0  0  0  0  0  0  0  0
   21.8026   -2.4468  -16.8317 C   0  0  0  0  0  0  0  0  0  0  0  0
   22.5139   -1.5666  -17.6157 O   0  0  0  0  0  0  0  0  0  0  0  0
   22.0490   -2.4823  -15.6001 O   0  0  0  0  0  0  0  0  0  0  0  0
  2  1  1  6
  2  4  1  0
  3  2  1  0
  4  5  1  1
  4  6  1  0
  6  8  1  0
  7  6  2  0
  8  9  1  0
  9 10  1  1
  9 13  1  0
 10 11  1  0
 11 15  1  0
 12 11  2  0
 13 18  1  0
 13 14  2  0
 17 16  1  1
 18 17  1  0
 19 17  1  0
 19 20  1  0
 21 19  2  0
M  END
$$$$
