VDA.pdb
     RDKit          3D

 21 20  0  0  1  0  0  0  0  0999 V2000
   18.3688  -13.5896  -17.5686 C   0  0  0  0  0  0  0  0  0  0  0  0
   19.5029  -12.6939  -17.1522 C   0  0  1  0  0  0  0  0  0  0  0  0
   20.4848  -12.5053  -18.2715 C   0  0  0  0  0  0  0  0  0  0  0  0
   19.0222  -11.3941  -16.5555 C   0  0  2  0  0  0  0  0  0  0  0  0
   17.9558  -10.8855  -17.3630 N   0  0  0  0  0  0  0  0  0  0  0  0
   20.1018  -10.4377  -16.2979 C   0  0  0  0  0  0  0  0  0  0  0  0
   21.0291  -10.7726  -15.5315 O   0  0  0  0  0  0  0  0  0  0  0  0
   20.1874   -9.1330  -16.8567 N   0  0  0  0  0  0  0  0  0  0  0  0
   21.2527   -8.2227  -16.6556 C   0  0  1  0  0  0  0  0  0  0  0  0
   21.9316   -7.7366  -17.8962 C   0  0  0  0  0  0  0  0  0  0  0  0
   22.7009   -8.7605  -18.6065 C   0  0  0  0  0  0  0  0  0  0  0  0
   22.4323   -8.9864  -19.8105 O   0  0  0  0  0  0  0  0  0  0  0  0
   20.8108   -7.1052  -15.8079 C   0  0  0  0  0  0  0  0  0  0  0  0
   19.6982   -6.5692  -16.0317 O   0  0  0  0  0  0  0  0  0  0  0  0
   23.7127   -9.4859  -17.9944 O   0  0  0  0  0  0  0  0  0  0  0  0
   21.9428   -5.4292  -12.6241 C   0  0  0  0  0  0  0  0  0  0  0  0
   21.1877   -5.4258  -13.9577 C   0  0  2  0  0  0  0  0  0  0  0  0
   21.5725   -6.5780  -14.7290 N   0  0  0  0  0  0  0  0  0  0  0  0
   21.5026   -4.1543  -14.6548 C   0  0  0  0  0  0  0  0  0  0  0  0
   20.9624   -2.9397  -14.2964 O   0  0  0  0  0  0  0  0  0  0  0  0
   22.3038   -4.1890  -15.6220 O   0  0  0  0  0  0  0  0  0  0  0  0
  2  1  1  6
  2  4  1  0
  3  2  1  0
  4  5  1  6
  4  6  1  0
  6  8  1  0
  7  6  2  0
  8  9  1  0
  9 10  1  6
  9 13  1  0
 10 11  1  0
 11 15  1  0
 12 11  2  0
 13 18  1  0
 13 14  2  0
 17 16  1  1
 18 17  1  0
 19 17  1  0
 19 20  1  0
 21 19  2  0
M  END
$$$$
