VDA.pdb
     RDKit          3D

 21 20  0  0  1  0  0  0  0  0999 V2000
   32.0238  -14.5480  -19.7346 C   0  0  0  0  0  0  0  0  0  0  0  0
   32.3902  -13.0903  -19.7864 C   0  0  1  0  0  0  0  0  0  0  0  0
   31.8353  -12.4344  -21.0169 C   0  0  0  0  0  0  0  0  0  0  0  0
   32.0391  -12.3616  -18.5126 C   0  0  2  0  0  0  0  0  0  0  0  0
   30.7059  -12.7175  -18.1334 N   0  0  0  0  0  0  0  0  0  0  0  0
   32.2900  -10.9197  -18.5791 C   0  0  0  0  0  0  0  0  0  0  0  0
   33.4645  -10.5218  -18.7261 O   0  0  0  0  0  0  0  0  0  0  0  0
   31.2909   -9.9120  -18.4888 N   0  0  0  0  0  0  0  0  0  0  0  0
   31.5223   -8.5178  -18.5681 C   0  0  1  0  0  0  0  0  0  0  0  0
   30.4562   -7.7225  -19.2516 C   0  0  0  0  0  0  0  0  0  0  0  0
   30.7417   -6.2899  -19.3553 C   0  0  0  0  0  0  0  0  0  0  0  0
   31.8998   -5.9296  -19.6744 O   0  0  0  0  0  0  0  0  0  0  0  0
   31.8281   -7.9783  -17.2346 C   0  0  0  0  0  0  0  0  0  0  0  0
   31.0392   -8.2070  -16.2857 O   0  0  0  0  0  0  0  0  0  0  0  0
   29.7778   -5.3220  -19.1133 O   0  0  0  0  0  0  0  0  0  0  0  0
   34.7577   -7.0289  -15.2961 C   0  0  0  0  0  0  0  0  0  0  0  0
   33.2991   -6.6966  -15.6286 C   0  0  2  0  0  0  0  0  0  0  0  0
   32.9800   -7.1988  -16.9388 N   0  0  0  0  0  0  0  0  0  0  0  0
   33.1364   -5.2246  -15.5379 C   0  0  0  0  0  0  0  0  0  0  0  0
   33.0948   -4.5389  -14.3448 O   0  0  0  0  0  0  0  0  0  0  0  0
   33.0313   -4.5709  -16.6059 O   0  0  0  0  0  0  0  0  0  0  0  0
  2  1  1  1
  2  4  1  0
  3  2  1  0
  4  5  1  6
  4  6  1  0
  6  8  1  0
  7  6  2  0
  8  9  1  0
  9 10  1  1
  9 13  1  0
 10 11  1  0
 11 15  1  0
 12 11  2  0
 13 18  1  0
 13 14  2  0
 17 16  1  6
 18 17  1  0
 19 17  1  0
 19 20  1  0
 21 19  2  0
M  END
$$$$
