VDA.pdb
     RDKit          3D

 21 20  0  0  1  0  0  0  0  0999 V2000
   16.8585  -12.7904  -15.6068 C   0  0  0  0  0  0  0  0  0  0  0  0
   17.3327  -11.5825  -14.8466 C   0  0  1  0  0  0  0  0  0  0  0  0
   17.9479  -10.5689  -15.7667 C   0  0  0  0  0  0  0  0  0  0  0  0
   16.2613  -11.0051  -13.9545 C   0  0  2  0  0  0  0  0  0  0  0  0
   15.0648  -10.8410  -14.7222 N   0  0  0  0  0  0  0  0  0  0  0  0
   16.6909   -9.8060  -13.2306 C   0  0  0  0  0  0  0  0  0  0  0  0
   17.6224   -9.9057  -12.4050 O   0  0  0  0  0  0  0  0  0  0  0  0
   16.1272   -8.5103  -13.3898 N   0  0  0  0  0  0  0  0  0  0  0  0
   16.5490   -7.3428  -12.7094 C   0  0  1  0  0  0  0  0  0  0  0  0
   16.7747   -6.1393  -13.5678 C   0  0  0  0  0  0  0  0  0  0  0  0
   17.2570   -4.9610  -12.8441 C   0  0  0  0  0  0  0  0  0  0  0  0
   17.7909   -5.1227  -11.7209 O   0  0  0  0  0  0  0  0  0  0  0  0
   15.6359   -7.0484  -11.5947 C   0  0  0  0  0  0  0  0  0  0  0  0
   14.3998   -7.0124  -11.8087 O   0  0  0  0  0  0  0  0  0  0  0  0
   17.1434   -3.6772  -13.3575 O   0  0  0  0  0  0  0  0  0  0  0  0
   15.5931   -7.1498   -7.9091 C   0  0  0  0  0  0  0  0  0  0  0  0
   15.1844   -6.4152   -9.1904 C   0  0  2  0  0  0  0  0  0  0  0  0
   16.0651   -6.7961  -10.2628 N   0  0  0  0  0  0  0  0  0  0  0  0
   15.2351   -4.9581   -8.9146 C   0  0  0  0  0  0  0  0  0  0  0  0
   16.0974   -4.0956   -9.5532 O   0  0  0  0  0  0  0  0  0  0  0  0
   14.4499   -4.4882   -8.0534 O   0  0  0  0  0  0  0  0  0  0  0  0
  2  1  1  6
  2  4  1  0
  3  2  1  0
  4  5  1  6
  4  6  1  0
  6  8  1  0
  7  6  2  0
  8  9  1  0
  9 10  1  6
  9 13  1  0
 10 11  1  0
 11 15  1  0
 12 11  2  0
 13 18  1  0
 13 14  2  0
 17 16  1  1
 18 17  1  0
 19 17  1  0
 19 20  1  0
 21 19  2  0
M  END
$$$$
