VDA.pdb
     RDKit          3D

 21 20  0  0  1  0  0  0  0  0999 V2000
   29.7368  -25.1482  -17.5438 C   0  0  0  0  0  0  0  0  0  0  0  0
   28.8484  -26.3615  -17.5676 C   0  0  1  0  0  0  0  0  0  0  0  0
   29.0877  -27.2332  -16.3694 C   0  0  0  0  0  0  0  0  0  0  0  0
   27.3950  -26.0084  -17.7672 C   0  0  2  0  0  0  0  0  0  0  0  0
   27.0333  -25.0009  -16.8173 N   0  0  0  0  0  0  0  0  0  0  0  0
   26.5099  -27.1758  -17.7851 C   0  0  0  0  0  0  0  0  0  0  0  0
   26.6850  -28.0475  -18.6618 O   0  0  0  0  0  0  0  0  0  0  0  0
   25.4455  -27.4076  -16.8711 N   0  0  0  0  0  0  0  0  0  0  0  0
   24.5252  -28.4810  -16.9387 C   0  0  1  0  0  0  0  0  0  0  0  0
   24.4302  -29.3304  -15.7116 C   0  0  0  0  0  0  0  0  0  0  0  0
   23.5171  -30.4689  -15.8322 C   0  0  0  0  0  0  0  0  0  0  0  0
   22.3706  -30.3751  -15.3327 O   0  0  0  0  0  0  0  0  0  0  0  0
   23.2044  -27.9902  -17.3600 C   0  0  0  0  0  0  0  0  0  0  0  0
   22.7013  -27.0030  -16.7706 O   0  0  0  0  0  0  0  0  0  0  0  0
   23.8766  -31.6431  -16.4778 O   0  0  0  0  0  0  0  0  0  0  0  0
   21.0206  -28.3757  -20.3688 C   0  0  0  0  0  0  0  0  0  0  0  0
   21.1886  -28.0401  -18.8830 C   0  0  2  0  0  0  0  0  0  0  0  0
   22.4412  -28.5684  -18.4112 N   0  0  0  0  0  0  0  0  0  0  0  0
   20.0294  -28.6117  -18.1542 C   0  0  0  0  0  0  0  0  0  0  0  0
   20.1508  -29.5511  -17.1551 O   0  0  0  0  0  0  0  0  0  0  0  0
   18.8778  -28.2173  -18.4658 O   0  0  0  0  0  0  0  0  0  0  0  0
  2  1  1  1
  2  4  1  0
  3  2  1  0
  4  5  1  1
  4  6  1  0
  6  8  1  0
  7  6  2  0
  8  9  1  0
  9 10  1  1
  9 13  1  0
 10 11  1  0
 11 15  1  0
 12 11  2  0
 13 18  1  0
 13 14  2  0
 17 16  1  6
 18 17  1  0
 19 17  1  0
 19 20  1  0
 21 19  2  0
M  END
$$$$
