VDA.pdb
     RDKit          3D

 21 20  0  0  1  0  0  0  0  0999 V2000
   16.1395  -13.0091  -16.7022 C   0  0  0  0  0  0  0  0  0  0  0  0
   16.3753  -11.5312  -16.8508 C   0  0  1  0  0  0  0  0  0  0  0  0
   15.1015  -10.7576  -16.6730 C   0  0  0  0  0  0  0  0  0  0  0  0
   17.5007  -11.0358  -15.9763 C   0  0  2  0  0  0  0  0  0  0  0  0
   17.2953  -11.5214  -14.6459 N   0  0  0  0  0  0  0  0  0  0  0  0
   17.7181   -9.5900  -16.0712 C   0  0  0  0  0  0  0  0  0  0  0  0
   18.1216   -9.1142  -17.1529 O   0  0  0  0  0  0  0  0  0  0  0  0
   17.5049   -8.6612  -15.0158 N   0  0  0  0  0  0  0  0  0  0  0  0
   17.7659   -7.2715  -15.0808 C   0  0  1  0  0  0  0  0  0  0  0  0
   16.6358   -6.3810  -14.6734 C   0  0  0  0  0  0  0  0  0  0  0  0
   16.9257   -4.9491  -14.7757 C   0  0  0  0  0  0  0  0  0  0  0  0
   17.7054   -4.5568  -15.6763 O   0  0  0  0  0  0  0  0  0  0  0  0
   18.9982   -6.9525  -14.3444 C   0  0  0  0  0  0  0  0  0  0  0  0
   19.0672   -7.2211  -13.1203 O   0  0  0  0  0  0  0  0  0  0  0  0
   16.3689   -4.0160  -13.9132 O   0  0  0  0  0  0  0  0  0  0  0  0
   22.5561   -6.3889  -15.1725 C   0  0  0  0  0  0  0  0  0  0  0  0
   21.3763   -6.1046  -14.2368 C   0  0  2  0  0  0  0  0  0  0  0  0
   20.1417   -6.3478  -14.9349 N   0  0  0  0  0  0  0  0  0  0  0  0
   21.4912   -4.6992  -13.7748 C   0  0  0  0  0  0  0  0  0  0  0  0
   20.5750   -3.7209  -14.0893 O   0  0  0  0  0  0  0  0  0  0  0  0
   22.4760   -4.3869  -13.0596 O   0  0  0  0  0  0  0  0  0  0  0  0
  2  1  1  1
  2  4  1  0
  3  2  1  0
  4  5  1  1
  4  6  1  0
  6  8  1  0
  7  6  2  0
  8  9  1  0
  9 10  1  1
  9 13  1  0
 10 11  1  0
 11 15  1  0
 12 11  2  0
 13 18  1  0
 13 14  2  0
 17 16  1  6
 18 17  1  0
 19 17  1  0
 19 20  1  0
 21 19  2  0
M  END
$$$$
