VDA.pdb
     RDKit          3D

 21 20  0  0  1  0  0  0  0  0999 V2000
   27.3000  -12.5854  -15.5997 C   0  0  0  0  0  0  0  0  0  0  0  0
   26.5876  -11.3314  -16.0261 C   0  0  1  0  0  0  0  0  0  0  0  0
   27.5611  -10.2743  -16.4589 C   0  0  0  0  0  0  0  0  0  0  0  0
   25.5070  -11.5997  -17.0445 C   0  0  2  0  0  0  0  0  0  0  0  0
   26.1009  -12.2162  -18.1914 N   0  0  0  0  0  0  0  0  0  0  0  0
   24.6828  -10.4254  -17.3413 C   0  0  0  0  0  0  0  0  0  0  0  0
   24.9903   -9.7081  -18.3161 O   0  0  0  0  0  0  0  0  0  0  0  0
   23.5382  -10.0226  -16.5999 N   0  0  0  0  0  0  0  0  0  0  0  0
   22.6884   -8.9389  -16.9272 C   0  0  1  0  0  0  0  0  0  0  0  0
   21.2422   -9.2791  -17.0977 C   0  0  0  0  0  0  0  0  0  0  0  0
   20.9795  -10.3316  -18.0815 C   0  0  0  0  0  0  0  0  0  0  0  0
   21.5396  -10.2607  -19.2013 O   0  0  0  0  0  0  0  0  0  0  0  0
   22.8759   -7.8403  -15.9676 C   0  0  0  0  0  0  0  0  0  0  0  0
   22.9593   -8.1040  -14.7434 O   0  0  0  0  0  0  0  0  0  0  0  0
   20.1350  -11.4000  -17.8172 O   0  0  0  0  0  0  0  0  0  0  0  0
   23.4133   -4.0912  -16.1658 C   0  0  0  0  0  0  0  0  0  0  0  0
   23.1490   -5.3928  -15.4014 C   0  0  2  0  0  0  0  0  0  0  0  0
   22.9713   -6.4708  -16.3379 N   0  0  0  0  0  0  0  0  0  0  0  0
   21.9502   -5.1854  -14.5519 C   0  0  0  0  0  0  0  0  0  0  0  0
   20.7302   -5.7701  -14.8072 O   0  0  0  0  0  0  0  0  0  0  0  0
   22.0550   -4.4372  -13.5478 O   0  0  0  0  0  0  0  0  0  0  0  0
  2  1  1  6
  2  4  1  0
  3  2  1  0
  4  5  1  6
  4  6  1  0
  6  8  1  0
  7  6  2  0
  8  9  1  0
  9 10  1  1
  9 13  1  0
 10 11  1  0
 11 15  1  0
 12 11  2  0
 13 18  1  0
 13 14  2  0
 17 16  1  6
 18 17  1  0
 19 17  1  0
 19 20  1  0
 21 19  2  0
M  END
$$$$
