VDA.pdb
     RDKit          3D

 21 20  0  0  1  0  0  0  0  0999 V2000
   24.8119  -12.3809  -16.6094 C   0  0  0  0  0  0  0  0  0  0  0  0
   23.5059  -11.7038  -16.9224 C   0  0  1  0  0  0  0  0  0  0  0  0
   22.3414  -12.5897  -16.5884 C   0  0  0  0  0  0  0  0  0  0  0  0
   23.4061  -10.3301  -16.3061 C   0  0  2  0  0  0  0  0  0  0  0  0
   23.6873  -10.4340  -14.9068 N   0  0  0  0  0  0  0  0  0  0  0  0
   22.1555   -9.6379  -16.6272 C   0  0  0  0  0  0  0  0  0  0  0  0
   21.8794   -9.4241  -17.8262 O   0  0  0  0  0  0  0  0  0  0  0  0
   21.2080   -9.1782  -15.6717 N   0  0  0  0  0  0  0  0  0  0  0  0
   19.9738   -8.5546  -15.9746 C   0  0  1  0  0  0  0  0  0  0  0  0
   18.8014   -9.0139  -15.1679 C   0  0  0  0  0  0  0  0  0  0  0  0
   18.4034  -10.4016  -15.4135 C   0  0  0  0  0  0  0  0  0  0  0  0
   18.1258  -11.1300  -14.4310 O   0  0  0  0  0  0  0  0  0  0  0  0
   20.1209   -7.0920  -15.9304 C   0  0  0  0  0  0  0  0  0  0  0  0
   20.6071   -6.5561  -14.9049 O   0  0  0  0  0  0  0  0  0  0  0  0
   18.3236  -10.9354  -16.6915 O   0  0  0  0  0  0  0  0  0  0  0  0
   19.5321   -4.2102  -18.3283 C   0  0  0  0  0  0  0  0  0  0  0  0
   19.9179   -4.7959  -16.9657 C   0  0  2  0  0  0  0  0  0  0  0  0
   19.7426   -6.2239  -16.9911 N   0  0  0  0  0  0  0  0  0  0  0  0
   19.0710   -4.1456  -15.9354 C   0  0  0  0  0  0  0  0  0  0  0  0
   19.3435   -2.9057  -15.4027 O   0  0  0  0  0  0  0  0  0  0  0  0
   18.0527   -4.7592  -15.5288 O   0  0  0  0  0  0  0  0  0  0  0  0
  2  1  1  1
  2  4  1  0
  3  2  1  0
  4  5  1  1
  4  6  1  0
  6  8  1  0
  7  6  2  0
  8  9  1  0
  9 10  1  1
  9 13  1  0
 10 11  1  0
 11 15  1  0
 12 11  2  0
 13 18  1  0
 13 14  2  0
 17 16  1  6
 18 17  1  0
 19 17  1  0
 19 20  1  0
 21 19  2  0
M  END
$$$$
