VDA.pdb
     RDKit          3D

 21 20  0  0  1  0  0  0  0  0999 V2000
   20.4098  -12.1673  -16.9779 C   0  0  0  0  0  0  0  0  0  0  0  0
   20.8013  -11.0256  -16.0806 C   0  0  1  0  0  0  0  0  0  0  0  0
   22.0051  -10.3047  -16.6131 C   0  0  0  0  0  0  0  0  0  0  0  0
   19.6430  -10.1078  -15.7762 C   0  0  2  0  0  0  0  0  0  0  0  0
   18.9375   -9.8410  -16.9924 N   0  0  0  0  0  0  0  0  0  0  0  0
   20.0300   -8.9135  -15.0210 C   0  0  0  0  0  0  0  0  0  0  0  0
   20.4041   -9.0478  -13.8372 O   0  0  0  0  0  0  0  0  0  0  0  0
   20.0163   -7.5857  -15.5297 N   0  0  0  0  0  0  0  0  0  0  0  0
   20.3453   -6.4219  -14.7941 C   0  0  1  0  0  0  0  0  0  0  0  0
   21.7977   -6.0677  -14.7588 C   0  0  0  0  0  0  0  0  0  0  0  0
   22.1164   -4.8993  -13.9354 C   0  0  0  0  0  0  0  0  0  0  0  0
   22.6442   -3.9030  -14.4847 O   0  0  0  0  0  0  0  0  0  0  0  0
   19.5233   -5.2886  -15.2444 C   0  0  0  0  0  0  0  0  0  0  0  0
   19.5441   -4.9599  -16.4554 O   0  0  0  0  0  0  0  0  0  0  0  0
   21.8552   -4.8579  -12.5735 O   0  0  0  0  0  0  0  0  0  0  0  0
   16.5380   -3.4468  -14.0613 C   0  0  0  0  0  0  0  0  0  0  0  0
   17.8659   -3.4276  -14.8259 C   0  0  2  0  0  0  0  0  0  0  0  0
   18.6886   -4.5228  -14.3850 N   0  0  0  0  0  0  0  0  0  0  0  0
   18.5090   -2.1120  -14.5865 C   0  0  0  0  0  0  0  0  0  0  0  0
   18.1371   -0.9572  -15.2373 O   0  0  0  0  0  0  0  0  0  0  0  0
   19.4411   -2.0498  -13.7462 O   0  0  0  0  0  0  0  0  0  0  0  0
  2  1  1  6
  2  4  1  0
  3  2  1  0
  4  5  1  6
  4  6  1  0
  6  8  1  0
  7  6  2  0
  8  9  1  0
  9 10  1  6
  9 13  1  0
 10 11  1  0
 11 15  1  0
 12 11  2  0
 13 18  1  0
 13 14  2  0
 17 16  1  1
 18 17  1  0
 19 17  1  0
 19 20  1  0
 21 19  2  0
M  END
$$$$
