VDA.pdb
     RDKit          3D

 21 20  0  0  1  0  0  0  0  0999 V2000
   17.6564  -12.8661  -15.7917 C   0  0  0  0  0  0  0  0  0  0  0  0
   18.4552  -11.6631  -15.3716 C   0  0  1  0  0  0  0  0  0  0  0  0
   19.6441  -11.4618  -16.2653 C   0  0  0  0  0  0  0  0  0  0  0  0
   17.6027  -10.4267  -15.2261 C   0  0  2  0  0  0  0  0  0  0  0  0
   16.7776  -10.2992  -16.3884 N   0  0  0  0  0  0  0  0  0  0  0  0
   18.3718   -9.2260  -14.8893 C   0  0  0  0  0  0  0  0  0  0  0  0
   18.9937   -9.1965  -13.8069 O   0  0  0  0  0  0  0  0  0  0  0  0
   18.4741   -8.0662  -15.7056 N   0  0  0  0  0  0  0  0  0  0  0  0
   19.1943   -6.8927  -15.3771 C   0  0  1  0  0  0  0  0  0  0  0  0
   20.5946   -6.8258  -15.8974 C   0  0  0  0  0  0  0  0  0  0  0  0
   21.5163   -7.7823  -15.2808 C   0  0  0  0  0  0  0  0  0  0  0  0
   21.7759   -7.6647  -14.0594 O   0  0  0  0  0  0  0  0  0  0  0  0
   18.4199   -5.7007  -15.7543 C   0  0  0  0  0  0  0  0  0  0  0  0
   17.9001   -5.6438  -16.8953 O   0  0  0  0  0  0  0  0  0  0  0  0
   22.1095   -8.8099  -15.9996 O   0  0  0  0  0  0  0  0  0  0  0  0
   17.1527   -2.6088  -13.9717 C   0  0  0  0  0  0  0  0  0  0  0  0
   17.3781   -3.4599  -15.2260 C   0  0  2  0  0  0  0  0  0  0  0  0
   18.2144   -4.5841  -14.8982 N   0  0  0  0  0  0  0  0  0  0  0  0
   17.9891   -2.5902  -16.2614 C   0  0  0  0  0  0  0  0  0  0  0  0
   17.3176   -1.5571  -16.8756 O   0  0  0  0  0  0  0  0  0  0  0  0
   19.1809   -2.8088  -16.5941 O   0  0  0  0  0  0  0  0  0  0  0  0
  2  1  1  6
  2  4  1  0
  3  2  1  0
  4  5  1  6
  4  6  1  0
  6  8  1  0
  7  6  2  0
  8  9  1  0
  9 10  1  6
  9 13  1  0
 10 11  1  0
 11 15  1  0
 12 11  2  0
 13 18  1  0
 13 14  2  0
 17 16  1  1
 18 17  1  0
 19 17  1  0
 19 20  1  0
 21 19  2  0
M  END
$$$$
