VDA.pdb
     RDKit          3D

 21 20  0  0  1  0  0  0  0  0999 V2000
   17.7031  -10.3637  -18.8900 C   0  0  0  0  0  0  0  0  0  0  0  0
   17.8478   -9.2146  -17.9306 C   0  0  1  0  0  0  0  0  0  0  0  0
   16.5567   -8.4634  -17.7846 C   0  0  0  0  0  0  0  0  0  0  0  0
   18.4444   -9.6369  -16.6106 C   0  0  2  0  0  0  0  0  0  0  0  0
   17.5891  -10.6165  -16.0133 N   0  0  0  0  0  0  0  0  0  0  0  0
   18.7832   -8.5097  -15.7381 C   0  0  0  0  0  0  0  0  0  0  0  0
   18.0229   -8.2397  -14.7851 O   0  0  0  0  0  0  0  0  0  0  0  0
   19.9274   -7.6783  -15.8853 N   0  0  0  0  0  0  0  0  0  0  0  0
   20.2173   -6.5355  -15.1020 C   0  0  1  0  0  0  0  0  0  0  0  0
   21.5838   -6.4958  -14.4961 C   0  0  0  0  0  0  0  0  0  0  0  0
   21.8092   -5.3733  -13.5829 C   0  0  0  0  0  0  0  0  0  0  0  0
   20.8243   -4.8779  -12.9852 O   0  0  0  0  0  0  0  0  0  0  0  0
   19.9285   -5.3118  -15.8650 C   0  0  0  0  0  0  0  0  0  0  0  0
   20.5841   -5.0711  -16.9077 O   0  0  0  0  0  0  0  0  0  0  0  0
   23.0707   -4.8416  -13.3581 O   0  0  0  0  0  0  0  0  0  0  0  0
   17.0500   -3.1032  -16.3577 C   0  0  0  0  0  0  0  0  0  0  0  0
   18.5767   -3.2205  -16.2946 C   0  0  2  0  0  0  0  0  0  0  0  0
   18.9370   -4.3619  -15.4958 N   0  0  0  0  0  0  0  0  0  0  0  0
   19.1069   -1.9536  -15.7329 C   0  0  0  0  0  0  0  0  0  0  0  0
   19.8106   -1.8845  -14.5516 O   0  0  0  0  0  0  0  0  0  0  0  0
   18.9025   -0.8895  -16.3690 O   0  0  0  0  0  0  0  0  0  0  0  0
  2  1  1  6
  2  4  1  0
  3  2  1  0
  4  5  1  1
  4  6  1  0
  6  8  1  0
  7  6  2  0
  8  9  1  0
  9 10  1  6
  9 13  1  0
 10 11  1  0
 11 15  1  0
 12 11  2  0
 13 18  1  0
 13 14  2  0
 17 16  1  1
 18 17  1  0
 19 17  1  0
 19 20  1  0
 21 19  2  0
M  END
$$$$
