VDA.pdb
     RDKit          3D

 21 20  0  0  1  0  0  0  0  0999 V2000
   19.6783  -13.2084  -17.7432 C   0  0  0  0  0  0  0  0  0  0  0  0
   19.4390  -11.7807  -17.3357 C   0  0  1  0  0  0  0  0  0  0  0  0
   18.9298  -11.6964  -15.9264 C   0  0  0  0  0  0  0  0  0  0  0  0
   20.6371  -10.8994  -17.5904 C   0  0  2  0  0  0  0  0  0  0  0  0
   21.8129  -11.5856  -17.1491 N   0  0  0  0  0  0  0  0  0  0  0  0
   20.4858   -9.5434  -17.0569 C   0  0  0  0  0  0  0  0  0  0  0  0
   19.5587   -8.8283  -17.4912 O   0  0  0  0  0  0  0  0  0  0  0  0
   21.3208   -8.9578  -16.0661 N   0  0  0  0  0  0  0  0  0  0  0  0
   21.2306   -7.6238  -15.6011 C   0  0  1  0  0  0  0  0  0  0  0  0
   21.4003   -7.4394  -14.1269 C   0  0  0  0  0  0  0  0  0  0  0  0
   21.2857   -6.0518  -13.6728 C   0  0  0  0  0  0  0  0  0  0  0  0
   22.3310   -5.3679  -13.5613 O   0  0  0  0  0  0  0  0  0  0  0  0
   22.1442   -6.7589  -16.3629 C   0  0  0  0  0  0  0  0  0  0  0  0
   23.3765   -6.9950  -16.3355 O   0  0  0  0  0  0  0  0  0  0  0  0
   20.0645   -5.4711  -13.3631 O   0  0  0  0  0  0  0  0  0  0  0  0
   22.0559   -4.5940  -19.3036 C   0  0  0  0  0  0  0  0  0  0  0  0
   22.6108   -4.8006  -17.8902 C   0  0  2  0  0  0  0  0  0  0  0  0
   21.7197   -5.6500  -17.1451 N   0  0  0  0  0  0  0  0  0  0  0  0
   22.7662   -3.4646  -17.2633 C   0  0  0  0  0  0  0  0  0  0  0  0
   23.9315   -2.7336  -17.3167 O   0  0  0  0  0  0  0  0  0  0  0  0
   21.7827   -2.9763  -16.6525 O   0  0  0  0  0  0  0  0  0  0  0  0
  2  1  1  1
  2  4  1  0
  3  2  1  0
  4  5  1  1
  4  6  1  0
  6  8  1  0
  7  6  2  0
  8  9  1  0
  9 10  1  1
  9 13  1  0
 10 11  1  0
 11 15  1  0
 12 11  2  0
 13 18  1  0
 13 14  2  0
 17 16  1  6
 18 17  1  0
 19 17  1  0
 19 20  1  0
 21 19  2  0
M  END
$$$$
