VDA.pdb
     RDKit          3D

 21 20  0  0  1  0  0  0  0  0999 V2000
   12.5597  -10.6361  -11.7522 C   0  0  0  0  0  0  0  0  0  0  0  0
   12.3531  -11.7551  -10.7688 C   0  0  1  0  0  0  0  0  0  0  0  0
   10.9169  -11.8450  -10.3425 C   0  0  0  0  0  0  0  0  0  0  0  0
   12.9118  -13.0671  -11.2621 C   0  0  2  0  0  0  0  0  0  0  0  0
   12.8758  -14.0131  -10.1889 N   0  0  0  0  0  0  0  0  0  0  0  0
   14.2165  -12.9350  -11.9153 C   0  0  0  0  0  0  0  0  0  0  0  0
   15.2212  -12.7115  -11.2081 O   0  0  0  0  0  0  0  0  0  0  0  0
   14.4434  -13.0413  -13.3150 N   0  0  0  0  0  0  0  0  0  0  0  0
   15.7056  -12.9567  -13.9503 C   0  0  1  0  0  0  0  0  0  0  0  0
   15.9523  -13.9559  -15.0352 C   0  0  0  0  0  0  0  0  0  0  0  0
   15.9368  -15.3507  -14.5891 C   0  0  0  0  0  0  0  0  0  0  0  0
   16.9741  -15.8268  -14.0693 O   0  0  0  0  0  0  0  0  0  0  0  0
   15.9476  -11.5827  -14.4155 C   0  0  0  0  0  0  0  0  0  0  0  0
   15.0066  -10.9391  -14.9404 O   0  0  0  0  0  0  0  0  0  0  0  0
   14.8176  -16.1596  -14.7218 O   0  0  0  0  0  0  0  0  0  0  0  0
   18.8689   -9.1609  -14.4322 C   0  0  0  0  0  0  0  0  0  0  0  0
   17.4757   -9.6229  -14.8729 C   0  0  2  0  0  0  0  0  0  0  0  0
   17.2002  -10.9182  -14.3099 N   0  0  0  0  0  0  0  0  0  0  0  0
   17.4509   -9.6400  -16.3564 C   0  0  0  0  0  0  0  0  0  0  0  0
   17.3115   -8.5064  -17.1251 O   0  0  0  0  0  0  0  0  0  0  0  0
   17.5630  -10.7470  -16.9403 O   0  0  0  0  0  0  0  0  0  0  0  0
  2  1  1  6
  2  4  1  0
  3  2  1  0
  4  5  1  1
  4  6  1  0
  6  8  1  0
  7  6  2  0
  8  9  1  0
  9 10  1  6
  9 13  1  0
 10 11  1  0
 11 15  1  0
 12 11  2  0
 13 18  1  0
 13 14  2  0
 17 16  1  6
 18 17  1  0
 19 17  1  0
 19 20  1  0
 21 19  2  0
M  END
$$$$
