VDA.pdb
     RDKit          3D

 21 20  0  0  1  0  0  0  0  0999 V2000
   18.0787  -13.6550  -16.8803 C   0  0  0  0  0  0  0  0  0  0  0  0
   18.5770  -12.5100  -16.0421 C   0  0  1  0  0  0  0  0  0  0  0  0
   20.0012  -12.1732  -16.3750 C   0  0  0  0  0  0  0  0  0  0  0  0
   17.6554  -11.3162  -16.0897 C   0  0  2  0  0  0  0  0  0  0  0  0
   17.1791  -11.1579  -17.4299 N   0  0  0  0  0  0  0  0  0  0  0  0
   18.2386  -10.1072  -15.5028 C   0  0  0  0  0  0  0  0  0  0  0  0
   18.4991  -10.0993  -14.2815 O   0  0  0  0  0  0  0  0  0  0  0  0
   18.5404   -8.9160  -16.2182 N   0  0  0  0  0  0  0  0  0  0  0  0
   19.0805   -7.7351  -15.6547 C   0  0  1  0  0  0  0  0  0  0  0  0
   20.5320   -7.4952  -15.9229 C   0  0  0  0  0  0  0  0  0  0  0  0
   21.4398   -8.3341  -15.1376 C   0  0  0  0  0  0  0  0  0  0  0  0
   21.2968   -8.3719  -13.8922 O   0  0  0  0  0  0  0  0  0  0  0  0
   18.2618   -6.5732  -16.0321 C   0  0  0  0  0  0  0  0  0  0  0  0
   18.0768   -6.3232  -17.2481 O   0  0  0  0  0  0  0  0  0  0  0  0
   22.4486   -9.0853  -15.7229 O   0  0  0  0  0  0  0  0  0  0  0  0
   15.9875   -4.1197  -14.2963 C   0  0  0  0  0  0  0  0  0  0  0  0
   16.8988   -4.5236  -15.4604 C   0  0  2  0  0  0  0  0  0  0  0  0
   17.6519   -5.6942  -15.0955 N   0  0  0  0  0  0  0  0  0  0  0  0
   17.7757   -3.3681  -15.7729 C   0  0  0  0  0  0  0  0  0  0  0  0
   19.1471   -3.4048  -15.6580 O   0  0  0  0  0  0  0  0  0  0  0  0
   17.2378   -2.3015  -16.1625 O   0  0  0  0  0  0  0  0  0  0  0  0
  2  1  1  6
  2  4  1  0
  3  2  1  0
  4  5  1  6
  4  6  1  0
  6  8  1  0
  7  6  2  0
  8  9  1  0
  9 10  1  6
  9 13  1  0
 10 11  1  0
 11 15  1  0
 12 11  2  0
 13 18  1  0
 13 14  2  0
 17 16  1  1
 18 17  1  0
 19 17  1  0
 19 20  1  0
 21 19  2  0
M  END
$$$$
