SCV.pdb
     RDKit          3D

 20 19  0  0  1  0  0  0  0  0999 V2000
    8.5752  -15.9678   18.5826 O   0  0  0  0  0  0  0  0  0  0  0  0
    9.1274  -16.6582   19.6305 C   0  0  0  0  0  0  0  0  0  0  0  0
    8.1922  -17.6453   20.2763 C   0  0  2  0  0  0  0  0  0  0  0  0
    7.3297  -18.2783   19.3241 N   0  0  0  0  0  0  0  0  0  0  0  0
    7.4383  -17.1078   21.4057 C   0  0  0  0  0  0  0  0  0  0  0  0
    6.2226  -16.8279   21.2295 O   0  0  0  0  0  0  0  0  0  0  0  0
    7.9684  -16.8741   22.6939 N   0  0  0  0  0  0  0  0  0  0  0  0
    7.1117  -16.4113   23.7592 C   0  0  1  0  0  0  0  0  0  0  0  0
    6.7885  -17.6563   24.5823 C   0  0  0  0  0  0  0  0  0  0  0  0
    8.2339  -18.3044   25.4458 S   0  0  0  0  0  0  0  0  0  0  0  0
    7.8581  -15.4043   24.5384 C   0  0  0  0  0  0  0  0  0  0  0  0
    9.1334  -15.3443   24.4449 O   0  0  0  0  0  0  0  0  0  0  0  0
    6.9895  -11.5420   25.3163 C   0  0  0  0  0  0  0  0  0  0  0  0
    7.3271  -12.3104   26.5760 C   0  0  1  0  0  0  0  0  0  0  0  0
    6.0535  -12.6122   27.3016 C   0  0  0  0  0  0  0  0  0  0  0  0
    8.0787  -13.5489   26.1665 C   0  0  2  0  0  0  0  0  0  0  0  0
    7.2739  -14.4676   25.4077 N   0  0  0  0  0  0  0  0  0  0  0  0
    8.5164  -14.2486   27.4023 C   0  0  0  0  0  0  0  0  0  0  0  0
    8.0748  -15.3959   27.7059 O   0  0  0  0  0  0  0  0  0  0  0  0
    9.4319  -13.6649   28.2741 O   0  0  0  0  0  0  0  0  0  0  0  0
  2  1  1  0
  3  2  1  0
  3  5  1  0
  3  4  1  6
  5  6  2  0
  7  8  1  0
  7  5  1  0
  9 10  1  0
  8  9  1  1
 11  8  1  0
 11 12  2  0
 14 13  1  6
 14 16  1  0
 15 14  1  0
 16 17  1  1
 16 18  1  0
 17 11  1  0
 18 19  2  0
 18 20  1  0
M  END
$$$$
