SCV.pdb
     RDKit          3D

 20 19  0  0  1  0  0  0  0  0999 V2000
    6.8847  -17.5434   20.5538 O   0  0  0  0  0  0  0  0  0  0  0  0
    7.8118  -16.9876   21.3971 C   0  0  0  0  0  0  0  0  0  0  0  0
    7.8749  -15.4849   21.3355 C   0  0  2  0  0  0  0  0  0  0  0  0
    8.7202  -15.0204   20.2767 N   0  0  0  0  0  0  0  0  0  0  0  0
    8.2088  -14.8454   22.6054 C   0  0  0  0  0  0  0  0  0  0  0  0
    9.4187  -14.5826   22.8386 O   0  0  0  0  0  0  0  0  0  0  0  0
    7.2739  -14.4939   23.6041 N   0  0  0  0  0  0  0  0  0  0  0  0
    7.7149  -13.8490   24.8176 C   0  0  1  0  0  0  0  0  0  0  0  0
    6.4486  -13.2737   25.4480 C   0  0  0  0  0  0  0  0  0  0  0  0
    6.7451  -12.5998   27.0950 S   0  0  0  0  0  0  0  0  0  0  0  0
    8.3496  -14.8716   25.6718 C   0  0  0  0  0  0  0  0  0  0  0  0
    7.8284  -16.0373   25.7632 O   0  0  0  0  0  0  0  0  0  0  0  0
   12.2786  -15.5016   26.2294 C   0  0  0  0  0  0  0  0  0  0  0  0
   11.5308  -15.5246   27.5453 C   0  0  1  0  0  0  0  0  0  0  0  0
   11.8045  -14.2426   28.2674 C   0  0  0  0  0  0  0  0  0  0  0  0
   10.0712  -15.7259   27.2364 C   0  0  2  0  0  0  0  0  0  0  0  0
    9.5204  -14.6755   26.4234 N   0  0  0  0  0  0  0  0  0  0  0  0
    9.3279  -15.7360   28.5231 C   0  0  0  0  0  0  0  0  0  0  0  0
    8.5004  -14.8237   28.8175 O   0  0  0  0  0  0  0  0  0  0  0  0
    9.5157  -16.7534   29.4550 O   0  0  0  0  0  0  0  0  0  0  0  0
  2  1  1  0
  3  2  1  0
  3  5  1  0
  3  4  1  6
  5  6  2  0
  7  8  1  0
  7  5  1  0
  9 10  1  0
  8  9  1  1
 11  8  1  0
 11 12  2  0
 14 13  1  6
 14 16  1  0
 15 14  1  0
 16 17  1  6
 16 18  1  0
 17 11  1  0
 18 19  2  0
 18 20  1  0
M  END
$$$$
