SCV.pdb
     RDKit          3D

 20 19  0  0  1  0  0  0  0  0999 V2000
   10.1920  -15.4309   19.9924 O   0  0  0  0  0  0  0  0  0  0  0  0
    9.8361  -16.7537   19.9346 C   0  0  0  0  0  0  0  0  0  0  0  0
    8.3520  -16.9941   20.0091 C   0  0  2  0  0  0  0  0  0  0  0  0
    7.6501  -16.3975   18.9123 N   0  0  0  0  0  0  0  0  0  0  0  0
    7.7488  -16.6332   21.2892 C   0  0  0  0  0  0  0  0  0  0  0  0
    6.8897  -15.7118   21.3027 O   0  0  0  0  0  0  0  0  0  0  0  0
    8.0546  -17.2409   22.5271 N   0  0  0  0  0  0  0  0  0  0  0  0
    7.2571  -16.9523   23.6949 C   0  0  1  0  0  0  0  0  0  0  0  0
    7.3871  -18.1874   24.5834 C   0  0  0  0  0  0  0  0  0  0  0  0
    6.7753  -17.8990   26.2560 S   0  0  0  0  0  0  0  0  0  0  0  0
    7.8091  -15.7425   24.3353 C   0  0  0  0  0  0  0  0  0  0  0  0
    9.0275  -15.4107   24.1251 O   0  0  0  0  0  0  0  0  0  0  0  0
    5.7015  -13.1742   27.0446 C   0  0  0  0  0  0  0  0  0  0  0  0
    6.7320  -12.6292   26.0791 C   0  0  1  0  0  0  0  0  0  0  0  0
    7.3749  -11.4294   26.7010 C   0  0  0  0  0  0  0  0  0  0  0  0
    7.7104  -13.7349   25.7849 C   0  0  2  0  0  0  0  0  0  0  0  0
    7.0911  -14.8871   25.1879 N   0  0  0  0  0  0  0  0  0  0  0  0
    8.3156  -14.1654   27.0720 C   0  0  0  0  0  0  0  0  0  0  0  0
    8.1069  -15.3198   27.5491 O   0  0  0  0  0  0  0  0  0  0  0  0
    9.1375  -13.3111   27.8024 O   0  0  0  0  0  0  0  0  0  0  0  0
  2  1  1  0
  3  2  1  0
  3  5  1  0
  3  4  1  6
  5  6  2  0
  7  8  1  0
  7  5  1  0
  9 10  1  0
  8  9  1  1
 11  8  1  0
 11 12  2  0
 14 13  1  1
 14 16  1  0
 15 14  1  0
 16 17  1  1
 16 18  1  0
 17 11  1  0
 18 19  2  0
 18 20  1  0
M  END
$$$$
