SCV.pdb
     RDKit          3D

 20 19  0  0  1  0  0  0  0  0999 V2000
    0.4245  -22.2959   20.8599 O   0  0  0  0  0  0  0  0  0  0  0  0
    0.5084  -22.9281   19.6463 C   0  0  0  0  0  0  0  0  0  0  0  0
   -0.3212  -24.1802   19.5476 C   0  0  2  0  0  0  0  0  0  0  0  0
   -0.3911  -24.6805   18.2073 N   0  0  0  0  0  0  0  0  0  0  0  0
   -1.6486  -24.0698   20.1466 C   0  0  0  0  0  0  0  0  0  0  0  0
   -2.5954  -23.6618   19.4225 O   0  0  0  0  0  0  0  0  0  0  0  0
   -1.9596  -24.3872   21.4874 N   0  0  0  0  0  0  0  0  0  0  0  0
   -3.3044  -24.2142   21.9819 C   0  0  1  0  0  0  0  0  0  0  0  0
   -3.6554  -25.5375   22.6583 C   0  0  0  0  0  0  0  0  0  0  0  0
   -5.0517  -25.3824   23.7902 S   0  0  0  0  0  0  0  0  0  0  0  0
   -3.2980  -23.0851   22.9323 C   0  0  0  0  0  0  0  0  0  0  0  0
   -2.3782  -23.0047   23.8190 O   0  0  0  0  0  0  0  0  0  0  0  0
   -4.0818  -18.6124   24.4319 C   0  0  0  0  0  0  0  0  0  0  0  0
   -4.0572  -19.6281   23.3099 C   0  0  1  0  0  0  0  0  0  0  0  0
   -2.7885  -19.4481   22.5367 C   0  0  0  0  0  0  0  0  0  0  0  0
   -4.1798  -20.9946   23.9295 C   0  0  2  0  0  0  0  0  0  0  0  0
   -4.2464  -22.0485   22.9536 N   0  0  0  0  0  0  0  0  0  0  0  0
   -5.4399  -21.0294   24.7164 C   0  0  0  0  0  0  0  0  0  0  0  0
   -5.6117  -20.2840   25.7256 O   0  0  0  0  0  0  0  0  0  0  0  0
   -6.4812  -21.8865   24.3703 O   0  0  0  0  0  0  0  0  0  0  0  0
  2  1  1  0
  3  2  1  0
  3  5  1  0
  3  4  1  6
  5  6  2  0
  7  8  1  0
  7  5  1  0
  9 10  1  0
  8  9  1  1
 11  8  1  0
 11 12  2  0
 14 13  1  1
 14 16  1  0
 15 14  1  0
 16 17  1  6
 16 18  1  0
 17 11  1  0
 18 19  2  0
 18 20  1  0
M  END
$$$$
