SCV.pdb
     RDKit          3D

 20 19  0  0  1  0  0  0  0  0999 V2000
   12.1795  -15.2936   20.6472 O   0  0  0  0  0  0  0  0  0  0  0  0
   11.9796  -16.6057   20.9911 C   0  0  0  0  0  0  0  0  0  0  0  0
   10.5385  -17.0387   20.9490 C   0  0  2  0  0  0  0  0  0  0  0  0
    9.8723  -16.5921   19.7623 N   0  0  0  0  0  0  0  0  0  0  0  0
    9.7756  -16.7037   22.1483 C   0  0  0  0  0  0  0  0  0  0  0  0
    9.0099  -15.7040   22.1058 O   0  0  0  0  0  0  0  0  0  0  0  0
    9.8277  -17.4181   23.3657 N   0  0  0  0  0  0  0  0  0  0  0  0
    9.0584  -16.9732   24.5029 C   0  0  1  0  0  0  0  0  0  0  0  0
    8.0913  -18.1160   24.8037 C   0  0  0  0  0  0  0  0  0  0  0  0
    7.1477  -17.8385   26.3161 S   0  0  0  0  0  0  0  0  0  0  0  0
    9.9945  -16.7252   25.6167 C   0  0  0  0  0  0  0  0  0  0  0  0
   11.1102  -17.3512   25.6617 O   0  0  0  0  0  0  0  0  0  0  0  0
   10.8622  -13.2981   27.4928 C   0  0  0  0  0  0  0  0  0  0  0  0
   10.5777  -14.3975   28.4936 C   0  0  1  0  0  0  0  0  0  0  0  0
    9.2201  -14.1646   29.0788 C   0  0  0  0  0  0  0  0  0  0  0  0
   10.6886  -15.7126   27.7695 C   0  0  2  0  0  0  0  0  0  0  0  0
    9.7646  -15.8289   26.6740 N   0  0  0  0  0  0  0  0  0  0  0  0
   10.3776  -16.7962   28.7377 C   0  0  0  0  0  0  0  0  0  0  0  0
    9.3572  -17.5337   28.6015 O   0  0  0  0  0  0  0  0  0  0  0  0
   11.2008  -17.0403   29.8338 O   0  0  0  0  0  0  0  0  0  0  0  0
  2  1  1  0
  3  2  1  0
  3  5  1  0
  3  4  1  6
  5  6  2  0
  7  8  1  0
  7  5  1  0
  9 10  1  0
  8  9  1  1
 11  8  1  0
 11 12  2  0
 14 13  1  6
 14 16  1  0
 15 14  1  0
 16 17  1  6
 16 18  1  0
 17 11  1  0
 18 19  2  0
 18 20  1  0
M  END
$$$$
