SCV.pdb
     RDKit          3D

 20 19  0  0  1  0  0  0  0  0999 V2000
   -4.2748  -27.5193   27.5928 O   0  0  0  0  0  0  0  0  0  0  0  0
   -4.6542  -26.9168   28.7645 C   0  0  0  0  0  0  0  0  0  0  0  0
   -4.1128  -25.5234   28.9418 C   0  0  2  0  0  0  0  0  0  0  0  0
   -2.7476  -25.5230   29.3750 N   0  0  0  0  0  0  0  0  0  0  0  0
   -4.9398  -24.6601   29.7806 C   0  0  0  0  0  0  0  0  0  0  0  0
   -4.7558  -24.6891   31.0267 O   0  0  0  0  0  0  0  0  0  0  0  0
   -5.9404  -23.7857   29.3019 N   0  0  0  0  0  0  0  0  0  0  0  0
   -6.7656  -23.0488   30.2287 C   0  0  1  0  0  0  0  0  0  0  0  0
   -6.5383  -21.5784   29.8852 C   0  0  0  0  0  0  0  0  0  0  0  0
   -7.7202  -20.4897   30.7056 S   0  0  0  0  0  0  0  0  0  0  0  0
   -8.1668  -23.4619   30.0181 C   0  0  0  0  0  0  0  0  0  0  0  0
   -8.6206  -23.5898   28.8280 O   0  0  0  0  0  0  0  0  0  0  0  0
   -9.9855  -26.5541   30.7819 C   0  0  0  0  0  0  0  0  0  0  0  0
  -10.7994  -25.4527   31.4265 C   0  0  1  0  0  0  0  0  0  0  0  0
  -10.5128  -25.4505   32.8954 C   0  0  0  0  0  0  0  0  0  0  0  0
  -10.4289  -24.1584   30.7528 C   0  0  2  0  0  0  0  0  0  0  0  0
   -9.0848  -23.7393   31.0451 N   0  0  0  0  0  0  0  0  0  0  0  0
  -11.3481  -23.1028   31.2518 C   0  0  0  0  0  0  0  0  0  0  0  0
  -10.9507  -22.1984   32.0441 O   0  0  0  0  0  0  0  0  0  0  0  0
  -12.6850  -23.0704   30.8640 O   0  0  0  0  0  0  0  0  0  0  0  0
  2  1  1  0
  3  2  1  0
  3  5  1  0
  3  4  1  1
  5  6  2  0
  7  8  1  0
  7  5  1  0
  9 10  1  0
  8  9  1  6
 11  8  1  0
 11 12  2  0
 14 13  1  6
 14 16  1  0
 15 14  1  0
 16 17  1  1
 16 18  1  0
 17 11  1  0
 18 19  2  0
 18 20  1  0
M  END
$$$$
