SCV.pdb
     RDKit          3D

 20 19  0  0  1  0  0  0  0  0999 V2000
    5.9390  -16.9035   20.3924 O   0  0  0  0  0  0  0  0  0  0  0  0
    6.7959  -16.4636   21.3680 C   0  0  0  0  0  0  0  0  0  0  0  0
    6.9238  -14.9656   21.4432 C   0  0  2  0  0  0  0  0  0  0  0  0
    7.4820  -14.4082   20.2477 N   0  0  0  0  0  0  0  0  0  0  0  0
    7.6180  -14.4812   22.6333 C   0  0  0  0  0  0  0  0  0  0  0  0
    8.8765  -14.4284   22.6071 O   0  0  0  0  0  0  0  0  0  0  0  0
    6.9848  -14.0626   23.8245 N   0  0  0  0  0  0  0  0  0  0  0  0
    7.7736  -13.6710   24.9678 C   0  0  1  0  0  0  0  0  0  0  0  0
    6.8242  -12.8658   25.8523 C   0  0  0  0  0  0  0  0  0  0  0  0
    7.5257  -12.5197   27.4780 S   0  0  0  0  0  0  0  0  0  0  0  0
    8.2513  -14.8987   25.6332 C   0  0  0  0  0  0  0  0  0  0  0  0
    7.4392  -15.8657   25.8437 O   0  0  0  0  0  0  0  0  0  0  0  0
   11.5690  -18.1654   26.9081 C   0  0  0  0  0  0  0  0  0  0  0  0
   11.2306  -16.9167   26.1223 C   0  0  1  0  0  0  0  0  0  0  0  0
   11.1107  -17.2854   24.6768 C   0  0  0  0  0  0  0  0  0  0  0  0
    9.9576  -16.3506   26.6927 C   0  0  2  0  0  0  0  0  0  0  0  0
    9.5683  -15.1124   26.0738 N   0  0  0  0  0  0  0  0  0  0  0  0
   10.1828  -16.0808   28.1366 C   0  0  0  0  0  0  0  0  0  0  0  0
   10.2556  -14.8992   28.5863 O   0  0  0  0  0  0  0  0  0  0  0  0
   10.3223  -17.1221   29.0502 O   0  0  0  0  0  0  0  0  0  0  0  0
  2  1  1  0
  3  2  1  0
  3  5  1  0
  3  4  1  6
  5  6  2  0
  7  8  1  0
  7  5  1  0
  9 10  1  0
  8  9  1  1
 11  8  1  0
 11 12  2  0
 14 13  1  1
 14 16  1  0
 15 14  1  0
 16 17  1  6
 16 18  1  0
 17 11  1  0
 18 19  2  0
 18 20  1  0
M  END
$$$$
