SCV.pdb
     RDKit          3D

 20 19  0  0  1  0  0  0  0  0999 V2000
    7.0926  -16.9073   21.8638 O   0  0  0  0  0  0  0  0  0  0  0  0
    6.3808  -15.7501   21.6798 C   0  0  0  0  0  0  0  0  0  0  0  0
    7.2308  -14.5092   21.6204 C   0  0  2  0  0  0  0  0  0  0  0  0
    8.1003  -14.5013   20.4823 N   0  0  0  0  0  0  0  0  0  0  0  0
    7.9606  -14.2219   22.8524 C   0  0  0  0  0  0  0  0  0  0  0  0
    9.2093  -14.3899   22.8565 O   0  0  0  0  0  0  0  0  0  0  0  0
    7.3726  -13.7657   24.0529 N   0  0  0  0  0  0  0  0  0  0  0  0
    8.1986  -13.4591   25.1959 C   0  0  1  0  0  0  0  0  0  0  0  0
    7.3527  -12.5296   26.0633 C   0  0  0  0  0  0  0  0  0  0  0  0
    5.8879  -13.3494   26.7244 S   0  0  0  0  0  0  0  0  0  0  0  0
    8.5164  -14.7273   25.8809 C   0  0  0  0  0  0  0  0  0  0  0  0
    7.6510  -15.6701   25.9084 O   0  0  0  0  0  0  0  0  0  0  0  0
   10.6823  -17.5057   25.3509 C   0  0  0  0  0  0  0  0  0  0  0  0
   11.0507  -17.0627   26.7506 C   0  0  1  0  0  0  0  0  0  0  0  0
   12.3486  -16.3203   26.6855 C   0  0  0  0  0  0  0  0  0  0  0  0
    9.9176  -16.2219   27.2754 C   0  0  2  0  0  0  0  0  0  0  0  0
    9.7305  -15.0060   26.5310 N   0  0  0  0  0  0  0  0  0  0  0  0
   10.2369  -15.8467   28.6774 C   0  0  0  0  0  0  0  0  0  0  0  0
   10.3984  -14.6382   29.0196 O   0  0  0  0  0  0  0  0  0  0  0  0
   10.3703  -16.8150   29.6691 O   0  0  0  0  0  0  0  0  0  0  0  0
  2  1  1  0
  3  2  1  0
  3  5  1  0
  3  4  1  6
  5  6  2  0
  7  8  1  0
  7  5  1  0
  9 10  1  0
  8  9  1  1
 11  8  1  0
 11 12  2  0
 14 13  1  6
 14 16  1  0
 15 14  1  0
 16 17  1  6
 16 18  1  0
 17 11  1  0
 18 19  2  0
 18 20  1  0
M  END
$$$$
