SCV.pdb
     RDKit          3D

 20 19  0  0  1  0  0  0  0  0999 V2000
    9.0417  -15.4251   18.1309 O   0  0  0  0  0  0  0  0  0  0  0  0
    8.0624  -15.3762   19.0891 C   0  0  0  0  0  0  0  0  0  0  0  0
    7.9286  -16.6403   19.8954 C   0  0  2  0  0  0  0  0  0  0  0  0
    7.2876  -17.6882   19.1589 N   0  0  0  0  0  0  0  0  0  0  0  0
    7.3119  -16.4540   21.2061 C   0  0  0  0  0  0  0  0  0  0  0  0
    6.0569  -16.3596   21.2646 O   0  0  0  0  0  0  0  0  0  0  0  0
    8.0173  -16.3703   22.4270 N   0  0  0  0  0  0  0  0  0  0  0  0
    7.2998  -16.2781   23.6759 C   0  0  1  0  0  0  0  0  0  0  0  0
    7.3509  -17.6833   24.2715 C   0  0  0  0  0  0  0  0  0  0  0  0
    6.7633  -17.7294   25.9766 S   0  0  0  0  0  0  0  0  0  0  0  0
    7.9885  -15.2860   24.5242 C   0  0  0  0  0  0  0  0  0  0  0  0
    9.2672  -15.2252   24.5223 O   0  0  0  0  0  0  0  0  0  0  0  0
    6.8006  -11.5130   25.3757 C   0  0  0  0  0  0  0  0  0  0  0  0
    7.2648  -12.2522   26.6124 C   0  0  1  0  0  0  0  0  0  0  0  0
    6.0596  -12.6562   27.4023 C   0  0  0  0  0  0  0  0  0  0  0  0
    8.0913  -13.4257   26.1584 C   0  0  2  0  0  0  0  0  0  0  0  0
    7.3437  -14.3650   25.3670 N   0  0  0  0  0  0  0  0  0  0  0  0
    8.5749  -14.1407   27.3681 C   0  0  0  0  0  0  0  0  0  0  0  0
    8.2202  -15.3297   27.6210 O   0  0  0  0  0  0  0  0  0  0  0  0
    9.4390  -13.5259   28.2703 O   0  0  0  0  0  0  0  0  0  0  0  0
  2  1  1  0
  3  2  1  0
  3  5  1  0
  3  4  1  6
  5  6  2  0
  7  8  1  0
  7  5  1  0
  9 10  1  0
  8  9  1  1
 11  8  1  0
 11 12  2  0
 14 13  1  6
 14 16  1  0
 15 14  1  0
 16 17  1  6
 16 18  1  0
 17 11  1  0
 18 19  2  0
 18 20  1  0
M  END
$$$$
