SCV.pdb
     RDKit          3D

 20 19  0  0  1  0  0  0  0  0999 V2000
    6.3204  -22.2724   21.5464 O   0  0  0  0  0  0  0  0  0  0  0  0
    5.5847  -21.1232   21.4126 C   0  0  0  0  0  0  0  0  0  0  0  0
    4.8588  -20.7096   22.6648 C   0  0  2  0  0  0  0  0  0  0  0  0
    3.4494  -20.9502   22.5793 N   0  0  0  0  0  0  0  0  0  0  0  0
    5.1424  -19.3447   23.1002 C   0  0  0  0  0  0  0  0  0  0  0  0
    4.1828  -18.6420   23.5159 O   0  0  0  0  0  0  0  0  0  0  0  0
    6.4201  -18.7426   23.0927 N   0  0  0  0  0  0  0  0  0  0  0  0
    6.5950  -17.4030   23.6004 C   0  0  1  0  0  0  0  0  0  0  0  0
    6.9893  -17.5785   25.0652 C   0  0  0  0  0  0  0  0  0  0  0  0
    7.5595  -16.0390   25.8133 S   0  0  0  0  0  0  0  0  0  0  0  0
    7.6576  -16.7518   22.8097 C   0  0  0  0  0  0  0  0  0  0  0  0
    8.7022  -17.4142   22.4800 O   0  0  0  0  0  0  0  0  0  0  0  0
    6.9771  -13.8578   20.0567 C   0  0  0  0  0  0  0  0  0  0  0  0
    8.2470  -13.6016   20.8395 C   0  0  1  0  0  0  0  0  0  0  0  0
    7.9842  -12.5025   21.8207 C   0  0  0  0  0  0  0  0  0  0  0  0
    8.6451  -14.8954   21.4981 C   0  0  2  0  0  0  0  0  0  0  0  0
    7.6262  -15.4186   22.3674 N   0  0  0  0  0  0  0  0  0  0  0  0
    9.8525  -14.6361   22.3247 C   0  0  0  0  0  0  0  0  0  0  0  0
   10.9432  -14.2580   21.8041 O   0  0  0  0  0  0  0  0  0  0  0  0
    9.8272  -14.8002   23.7072 O   0  0  0  0  0  0  0  0  0  0  0  0
  2  1  1  0
  3  2  1  0
  3  5  1  0
  3  4  1  6
  5  6  2  0
  7  8  1  0
  7  5  1  0
  9 10  1  0
  8  9  1  1
 11  8  1  0
 11 12  2  0
 14 13  1  1
 14 16  1  0
 15 14  1  0
 16 17  1  1
 16 18  1  0
 17 11  1  0
 18 19  2  0
 18 20  1  0
M  END
$$$$
