SCV.pdb
     RDKit          3D

 20 19  0  0  1  0  0  0  0  0999 V2000
    8.9568  -24.7320   23.4917 O   0  0  0  0  0  0  0  0  0  0  0  0
    8.9684  -23.3790   23.7128 C   0  0  0  0  0  0  0  0  0  0  0  0
   10.2550  -22.7036   23.3200 C   0  0  2  0  0  0  0  0  0  0  0  0
   10.7875  -23.2214   22.0954 N   0  0  0  0  0  0  0  0  0  0  0  0
   11.2658  -22.6781   24.3738 C   0  0  0  0  0  0  0  0  0  0  0  0
   12.1684  -23.5569   24.3530 O   0  0  0  0  0  0  0  0  0  0  0  0
   11.3134  -21.7370   25.4260 N   0  0  0  0  0  0  0  0  0  0  0  0
   12.3635  -21.8039   26.4138 C   0  0  1  0  0  0  0  0  0  0  0  0
   13.4229  -20.8116   25.9395 C   0  0  0  0  0  0  0  0  0  0  0  0
   14.5130  -20.2787   27.2746 S   0  0  0  0  0  0  0  0  0  0  0  0
   11.7863  -21.4244   27.7180 C   0  0  0  0  0  0  0  0  0  0  0  0
   11.0603  -20.3742   27.8113 O   0  0  0  0  0  0  0  0  0  0  0  0
    9.4438  -23.2422   29.9685 C   0  0  0  0  0  0  0  0  0  0  0  0
   10.6146  -22.8380   30.8386 C   0  0  1  0  0  0  0  0  0  0  0  0
   11.4751  -24.0418   31.0627 C   0  0  0  0  0  0  0  0  0  0  0  0
   11.3385  -21.7196   30.1376 C   0  0  2  0  0  0  0  0  0  0  0  0
   11.9671  -22.1390   28.9143 N   0  0  0  0  0  0  0  0  0  0  0  0
   12.4057  -21.2248   31.0455 C   0  0  0  0  0  0  0  0  0  0  0  0
   13.6277  -21.2651   30.7156 O   0  0  0  0  0  0  0  0  0  0  0  0
   12.0987  -20.6969   32.2968 O   0  0  0  0  0  0  0  0  0  0  0  0
  2  1  1  0
  3  2  1  0
  3  5  1  0
  3  4  1  6
  5  6  2  0
  7  8  1  0
  7  5  1  0
  9 10  1  0
  8  9  1  6
 11  8  1  0
 11 12  2  0
 14 13  1  6
 14 16  1  0
 15 14  1  0
 16 17  1  6
 16 18  1  0
 17 11  1  0
 18 19  2  0
 18 20  1  0
M  END
$$$$
