SCV.pdb
     RDKit          3D

 20 19  0  0  1  0  0  0  0  0999 V2000
   11.1333  -16.4032   19.1020 O   0  0  0  0  0  0  0  0  0  0  0  0
   10.3210  -16.1419   20.1751 C   0  0  0  0  0  0  0  0  0  0  0  0
    9.4344  -17.2929   20.5689 C   0  0  2  0  0  0  0  0  0  0  0  0
    8.4608  -17.5964   19.5631 N   0  0  0  0  0  0  0  0  0  0  0  0
    8.8172  -17.1525   21.8850 C   0  0  0  0  0  0  0  0  0  0  0  0
    7.7324  -16.5171   21.9680 O   0  0  0  0  0  0  0  0  0  0  0  0
    9.3444  -17.6777   23.0855 N   0  0  0  0  0  0  0  0  0  0  0  0
    8.6587  -17.4604   24.3367 C   0  0  1  0  0  0  0  0  0  0  0  0
    8.2311  -18.8495   24.8052 C   0  0  0  0  0  0  0  0  0  0  0  0
    7.6473  -18.8502   26.5123 S   0  0  0  0  0  0  0  0  0  0  0  0
    9.6071  -16.8228   25.2707 C   0  0  0  0  0  0  0  0  0  0  0  0
   10.8394  -17.1691   25.2614 O   0  0  0  0  0  0  0  0  0  0  0  0
    8.4795  -14.0081   28.1913 C   0  0  0  0  0  0  0  0  0  0  0  0
    9.8791  -13.9214   27.6212 C   0  0  1  0  0  0  0  0  0  0  0  0
   10.7983  -13.4330   28.6964 C   0  0  0  0  0  0  0  0  0  0  0  0
   10.2475  -15.2879   27.1080 C   0  0  2  0  0  0  0  0  0  0  0  0
    9.2680  -15.8306   26.2060 N   0  0  0  0  0  0  0  0  0  0  0  0
   10.3427  -16.2046   28.2737 C   0  0  0  0  0  0  0  0  0  0  0  0
   11.2235  -16.0476   29.1699 O   0  0  0  0  0  0  0  0  0  0  0  0
    9.4629  -17.2735   28.4226 O   0  0  0  0  0  0  0  0  0  0  0  0
  2  1  1  0
  3  2  1  0
  3  5  1  0
  3  4  1  6
  5  6  2  0
  7  8  1  0
  7  5  1  0
  9 10  1  0
  8  9  1  1
 11  8  1  0
 11 12  2  0
 14 13  1  1
 14 16  1  0
 15 14  1  0
 16 17  1  6
 16 18  1  0
 17 11  1  0
 18 19  2  0
 18 20  1  0
M  END
$$$$
