SCV.pdb
     RDKit          3D

 20 19  0  0  1  0  0  0  0  0999 V2000
    7.0079  -16.8774   21.3803 O   0  0  0  0  0  0  0  0  0  0  0  0
    6.3498  -15.7000   21.1347 C   0  0  0  0  0  0  0  0  0  0  0  0
    7.2091  -14.4733   21.2854 C   0  0  2  0  0  0  0  0  0  0  0  0
    8.0466  -14.2542   20.1444 N   0  0  0  0  0  0  0  0  0  0  0  0
    7.9754  -14.4259   22.5277 C   0  0  0  0  0  0  0  0  0  0  0  0
    9.2179  -14.6262   22.4677 O   0  0  0  0  0  0  0  0  0  0  0  0
    7.4296  -14.1708   23.8052 N   0  0  0  0  0  0  0  0  0  0  0  0
    8.2899  -14.0992   24.9619 C   0  0  1  0  0  0  0  0  0  0  0  0
    7.5154  -13.2726   25.9860 C   0  0  0  0  0  0  0  0  0  0  0  0
    8.3605  -13.1818   27.5774 S   0  0  0  0  0  0  0  0  0  0  0  0
    8.5397  -15.4767   25.4292 C   0  0  0  0  0  0  0  0  0  0  0  0
    7.5742  -16.3156   25.4826 O   0  0  0  0  0  0  0  0  0  0  0  0
   10.3804  -18.3666   24.2528 C   0  0  0  0  0  0  0  0  0  0  0  0
   10.9226  -18.1404   25.6478 C   0  0  1  0  0  0  0  0  0  0  0  0
   12.2694  -17.4978   25.5335 C   0  0  0  0  0  0  0  0  0  0  0  0
    9.9267  -17.2911   26.3916 C   0  0  2  0  0  0  0  0  0  0  0  0
    9.7901  -15.9717   25.8364 N   0  0  0  0  0  0  0  0  0  0  0  0
   10.4052  -17.1433   27.7907 C   0  0  0  0  0  0  0  0  0  0  0  0
   10.7306  -16.0147   28.2640 O   0  0  0  0  0  0  0  0  0  0  0  0
   10.5130  -18.2455   28.6347 O   0  0  0  0  0  0  0  0  0  0  0  0
  2  1  1  0
  3  2  1  0
  3  5  1  0
  3  4  1  6
  5  6  2  0
  7  8  1  0
  7  5  1  0
  9 10  1  0
  8  9  1  1
 11  8  1  0
 11 12  2  0
 14 13  1  6
 14 16  1  0
 15 14  1  0
 16 17  1  6
 16 18  1  0
 17 11  1  0
 18 19  2  0
 18 20  1  0
M  END
$$$$
