SCV.pdb
     RDKit          3D

 20 19  0  0  1  0  0  0  0  0999 V2000
    7.3109  -17.3965   22.0741 O   0  0  0  0  0  0  0  0  0  0  0  0
    6.5899  -16.3414   21.5774 C   0  0  0  0  0  0  0  0  0  0  0  0
    7.3660  -15.0546   21.4892 C   0  0  2  0  0  0  0  0  0  0  0  0
    8.3613  -15.0909   20.4599 N   0  0  0  0  0  0  0  0  0  0  0  0
    7.9275  -14.6039   22.7598 C   0  0  0  0  0  0  0  0  0  0  0  0
    9.1705  -14.7147   22.9330 O   0  0  0  0  0  0  0  0  0  0  0  0
    7.1807  -14.0475   23.8218 N   0  0  0  0  0  0  0  0  0  0  0  0
    7.8490  -13.5743   25.0103 C   0  0  1  0  0  0  0  0  0  0  0  0
    6.8262  -12.6894   25.7191 C   0  0  0  0  0  0  0  0  0  0  0  0
    7.3946  -12.1459   27.3428 S   0  0  0  0  0  0  0  0  0  0  0  0
    8.2265  -14.7500   25.8187 C   0  0  0  0  0  0  0  0  0  0  0  0
    7.3887  -15.7034   25.9853 O   0  0  0  0  0  0  0  0  0  0  0  0
   10.5203  -17.4057   25.3753 C   0  0  0  0  0  0  0  0  0  0  0  0
   10.8910  -16.9035   26.7543 C   0  0  1  0  0  0  0  0  0  0  0  0
   12.1654  -16.1261   26.6478 C   0  0  0  0  0  0  0  0  0  0  0  0
    9.7394  -16.0786   27.2637 C   0  0  2  0  0  0  0  0  0  0  0  0
    9.4710  -14.9261   26.4468 N   0  0  0  0  0  0  0  0  0  0  0  0
   10.0893  -15.5943   28.6243 C   0  0  0  0  0  0  0  0  0  0  0  0
   10.1889  -14.3586   28.8825 O   0  0  0  0  0  0  0  0  0  0  0  0
   10.3212  -16.4861   29.6682 O   0  0  0  0  0  0  0  0  0  0  0  0
  2  1  1  0
  3  2  1  0
  3  5  1  0
  3  4  1  6
  5  6  2  0
  7  8  1  0
  7  5  1  0
  9 10  1  0
  8  9  1  1
 11  8  1  0
 11 12  2  0
 14 13  1  6
 14 16  1  0
 15 14  1  0
 16 17  1  6
 16 18  1  0
 17 11  1  0
 18 19  2  0
 18 20  1  0
M  END
$$$$
