KGF.pdb
     RDKit          3D

 25 25  0  0  1  0  0  0  0  0999 V2000
    5.6434  -19.1658   21.9912 N   0  0  0  0  0  0  0  0  0  0  0  0
    4.9360  -18.0865   21.4275 C   0  0  1  0  0  0  0  0  0  0  0  0
    3.4958  -17.9360   21.6416 C   0  0  0  0  0  0  0  0  0  0  0  0
    2.4705  -18.6985   20.9591 C   0  0  0  0  0  0  0  0  0  0  0  0
    2.3272  -20.1377   20.8882 C   0  0  0  0  0  0  0  0  0  0  0  0
    1.2303  -20.7935   20.1418 C   0  0  0  0  0  0  0  0  0  0  0  0
    1.4474  -22.2803   20.1537 N   0  0  0  0  0  0  0  0  0  0  0  0
    5.5854  -16.8159   21.9471 C   0  0  0  0  0  0  0  0  0  0  0  0
    5.2319  -16.3499   23.0498 O   0  0  0  0  0  0  0  0  0  0  0  0
    6.5900  -16.1415   21.2057 N   0  0  0  0  0  0  0  0  0  0  0  0
    7.1240  -14.9398   21.7410 C   0  0  0  0  0  0  0  0  0  0  0  0
    7.9117  -15.0625   22.9669 C   0  0  0  0  0  0  0  0  0  0  0  0
    9.0911  -14.5611   23.0214 O   0  0  0  0  0  0  0  0  0  0  0  0
    7.5023  -15.7032   24.1613 N   0  0  0  0  0  0  0  0  0  0  0  0
    8.3863  -15.8930   25.2967 C   0  0  1  0  0  0  0  0  0  0  0  0
    7.7728  -15.3633   26.5591 C   0  0  0  0  0  0  0  0  0  0  0  0
    7.5935  -13.9178   26.5750 C   0  0  0  0  0  0  0  0  0  0  0  0
    6.3543  -13.3356   26.4501 C   0  0  0  0  0  0  0  0  0  0  0  0
    6.2376  -11.9675   26.4849 C   0  0  0  0  0  0  0  0  0  0  0  0
    7.3346  -11.1455   26.6429 C   0  0  0  0  0  0  0  0  0  0  0  0
    8.5694  -11.7458   26.7667 C   0  0  0  0  0  0  0  0  0  0  0  0
    8.7032  -13.1143   26.7338 C   0  0  0  0  0  0  0  0  0  0  0  0
    8.8724  -17.2819   25.3882 C   0  0  0  0  0  0  0  0  0  0  0  0
    9.6772  -17.5908   26.2953 O   0  0  0  0  0  0  0  0  0  0  0  0
    8.4591  -18.2347   24.5029 O   0  0  0  0  0  0  0  0  0  0  0  0
  2  1  1  1
  2  8  1  0
  3  2  1  0
  3  4  1  0
  4  5  1  0
  5  6  1  0
  6  7  1  0
  8  9  2  0
 10 11  1  0
 10  8  1  0
 11 12  1  0
 12 13  2  0
 12 14  1  0
 14 15  1  0
 15 23  1  0
 15 16  1  1
 17 16  1  0
 17 18  2  0
 19 18  1  0
 20 19  2  0
 21 22  2  0
 21 20  1  0
 22 17  1  0
 23 25  1  0
 24 23  2  0
M  END
$$$$
