KGF.pdb
     RDKit          3D

 25 25  0  0  1  0  0  0  0  0999 V2000
    8.8479  -17.4389   18.2632 N   0  0  0  0  0  0  0  0  0  0  0  0
    7.6035  -18.0178   18.5783 C   0  0  1  0  0  0  0  0  0  0  0  0
    7.4720  -19.4631   18.7695 C   0  0  0  0  0  0  0  0  0  0  0  0
    8.4873  -20.4409   18.4354 C   0  0  0  0  0  0  0  0  0  0  0  0
    8.4347  -21.8774   18.6098 C   0  0  0  0  0  0  0  0  0  0  0  0
    9.5331  -22.7727   18.1834 C   0  0  0  0  0  0  0  0  0  0  0  0
    9.1662  -24.1924   18.5116 N   0  0  0  0  0  0  0  0  0  0  0  0
    7.1289  -17.3666   19.8654 C   0  0  0  0  0  0  0  0  0  0  0  0
    6.0560  -17.7375   20.3843 O   0  0  0  0  0  0  0  0  0  0  0  0
    7.8794  -16.3407   20.4963 N   0  0  0  0  0  0  0  0  0  0  0  0
    7.4136  -15.8388   21.7400 C   0  0  0  0  0  0  0  0  0  0  0  0
    8.3549  -15.8841   22.8582 C   0  0  0  0  0  0  0  0  0  0  0  0
    9.4804  -16.4841   22.7220 O   0  0  0  0  0  0  0  0  0  0  0  0
    8.1575  -15.3132   24.1388 N   0  0  0  0  0  0  0  0  0  0  0  0
    9.2028  -15.2520   25.1439 C   0  0  1  0  0  0  0  0  0  0  0  0
    9.5299  -13.8329   25.5038 C   0  0  0  0  0  0  0  0  0  0  0  0
    8.3683  -13.0171   25.8313 C   0  0  0  0  0  0  0  0  0  0  0  0
    7.5470  -12.4951   24.8600 C   0  0  0  0  0  0  0  0  0  0  0  0
    6.4561  -11.7431   25.2221 C   0  0  0  0  0  0  0  0  0  0  0  0
    6.1509  -11.4897   26.5436 C   0  0  0  0  0  0  0  0  0  0  0  0
    6.9847  -12.0206   27.5045 C   0  0  0  0  0  0  0  0  0  0  0  0
    8.0811  -12.7757   27.1585 C   0  0  0  0  0  0  0  0  0  0  0  0
    8.9085  -16.1235   26.2962 C   0  0  0  0  0  0  0  0  0  0  0  0
    7.7815  -16.6600   26.3864 O   0  0  0  0  0  0  0  0  0  0  0  0
    9.8429  -16.3556   27.2632 O   0  0  0  0  0  0  0  0  0  0  0  0
  2  1  1  1
  2  8  1  0
  3  2  1  0
  3  4  1  0
  4  5  1  0
  5  6  1  0
  6  7  1  0
  8  9  2  0
 10 11  1  0
 10  8  1  0
 11 12  1  0
 12 13  2  0
 12 14  1  0
 14 15  1  0
 15 23  1  0
 15 16  1  1
 17 16  1  0
 17 18  2  0
 19 18  1  0
 20 19  2  0
 21 22  2  0
 21 20  1  0
 22 17  1  0
 23 25  1  0
 24 23  2  0
M  END
$$$$
