KGF.pdb
     RDKit          3D

 25 25  0  0  1  0  0  0  0  0999 V2000
    5.2620  -19.5783   22.9443 N   0  0  0  0  0  0  0  0  0  0  0  0
    4.9143  -19.2871   21.6112 C   0  0  1  0  0  0  0  0  0  0  0  0
    3.5184  -19.0716   21.2268 C   0  0  0  0  0  0  0  0  0  0  0  0
    2.4014  -19.8834   21.6649 C   0  0  0  0  0  0  0  0  0  0  0  0
    1.2362  -20.2831   20.9040 C   0  0  0  0  0  0  0  0  0  0  0  0
    0.1285  -21.0665   21.4953 C   0  0  0  0  0  0  0  0  0  0  0  0
   -1.1524  -20.2944   21.3499 N   0  0  0  0  0  0  0  0  0  0  0  0
    5.6685  -18.0268   21.2254 C   0  0  0  0  0  0  0  0  0  0  0  0
    5.5354  -17.5564   20.0769 O   0  0  0  0  0  0  0  0  0  0  0  0
    6.5257  -17.3668   22.1438 N   0  0  0  0  0  0  0  0  0  0  0  0
    7.2104  -16.2037   21.7032 C   0  0  0  0  0  0  0  0  0  0  0  0
    8.0746  -15.5431   22.6806 C   0  0  0  0  0  0  0  0  0  0  0  0
    8.8744  -14.6147   22.3018 O   0  0  0  0  0  0  0  0  0  0  0  0
    8.1333  -15.8242   24.0671 N   0  0  0  0  0  0  0  0  0  0  0  0
    9.1777  -15.3071   24.9324 C   0  0  1  0  0  0  0  0  0  0  0  0
    8.6462  -14.9925   26.2995 C   0  0  0  0  0  0  0  0  0  0  0  0
    7.7483  -13.8462   26.3418 C   0  0  0  0  0  0  0  0  0  0  0  0
    6.4112  -13.9561   26.0412 C   0  0  0  0  0  0  0  0  0  0  0  0
    5.6042  -12.8468   26.1093 C   0  0  0  0  0  0  0  0  0  0  0  0
    6.0941  -11.6094   26.4735 C   0  0  0  0  0  0  0  0  0  0  0  0
    7.4369  -11.5170   26.7716 C   0  0  0  0  0  0  0  0  0  0  0  0
    8.2585  -12.6183   26.7082 C   0  0  0  0  0  0  0  0  0  0  0  0
   10.3743  -16.1684   24.9240 C   0  0  0  0  0  0  0  0  0  0  0  0
   10.2815  -17.3419   24.4995 O   0  0  0  0  0  0  0  0  0  0  0  0
   11.5792  -15.7079   25.3693 O   0  0  0  0  0  0  0  0  0  0  0  0
  2  1  1  1
  2  8  1  0
  3  2  1  0
  3  4  1  0
  4  5  1  0
  5  6  1  0
  6  7  1  0
  8  9  2  0
 10 11  1  0
 10  8  1  0
 11 12  1  0
 12 13  2  0
 12 14  1  0
 14 15  1  0
 15 23  1  0
 15 16  1  1
 17 16  1  0
 17 18  2  0
 19 18  1  0
 20 19  2  0
 21 22  2  0
 21 20  1  0
 22 17  1  0
 23 25  1  0
 24 23  2  0
M  END
$$$$
