KGF.pdb
     RDKit          3D

 25 25  0  0  1  0  0  0  0  0999 V2000
    6.4676  -18.6907   20.3933 N   0  0  0  0  0  0  0  0  0  0  0  0
    7.5538  -18.2249   19.6277 C   0  0  1  0  0  0  0  0  0  0  0  0
    7.4214  -18.0088   18.1860 C   0  0  0  0  0  0  0  0  0  0  0  0
    7.0756  -19.0324   17.2210 C   0  0  0  0  0  0  0  0  0  0  0  0
    7.9308  -20.0602   16.6651 C   0  0  0  0  0  0  0  0  0  0  0  0
    8.6717  -19.8804   15.3967 C   0  0  0  0  0  0  0  0  0  0  0  0
    9.4591  -21.1267   15.1060 N   0  0  0  0  0  0  0  0  0  0  0  0
    7.9759  -16.8951   20.2272 C   0  0  0  0  0  0  0  0  0  0  0  0
    9.0258  -16.3471   19.8329 O   0  0  0  0  0  0  0  0  0  0  0  0
    7.2018  -16.2563   21.2304 N   0  0  0  0  0  0  0  0  0  0  0  0
    7.6236  -14.9813   21.6911 C   0  0  0  0  0  0  0  0  0  0  0  0
    8.5159  -14.9661   22.8496 C   0  0  0  0  0  0  0  0  0  0  0  0
    9.6521  -14.3758   22.7732 O   0  0  0  0  0  0  0  0  0  0  0  0
    8.2574  -15.5576   24.1098 N   0  0  0  0  0  0  0  0  0  0  0  0
    9.1831  -15.4736   25.2245 C   0  0  1  0  0  0  0  0  0  0  0  0
    9.3122  -14.0636   25.7202 C   0  0  0  0  0  0  0  0  0  0  0  0
    8.0399  -13.3882   25.9372 C   0  0  0  0  0  0  0  0  0  0  0  0
    6.8486  -13.9214   25.5050 C   0  0  0  0  0  0  0  0  0  0  0  0
    5.6745  -13.2509   25.7467 C   0  0  0  0  0  0  0  0  0  0  0  0
    5.6477  -12.0450   26.4168 C   0  0  0  0  0  0  0  0  0  0  0  0
    6.8510  -11.5247   26.8432 C   0  0  0  0  0  0  0  0  0  0  0  0
    8.0354  -12.1837   26.6091 C   0  0  0  0  0  0  0  0  0  0  0  0
    8.8735  -16.4646   26.2714 C   0  0  0  0  0  0  0  0  0  0  0  0
    9.5771  -16.5033   27.3055 O   0  0  0  0  0  0  0  0  0  0  0  0
    7.8339  -17.3376   26.1324 O   0  0  0  0  0  0  0  0  0  0  0  0
  2  1  1  1
  2  8  1  0
  3  2  1  0
  3  4  1  0
  4  5  1  0
  5  6  1  0
  6  7  1  0
  8  9  2  0
 10 11  1  0
 10  8  1  0
 11 12  1  0
 12 13  2  0
 12 14  1  0
 14 15  1  0
 15 23  1  0
 15 16  1  1
 17 16  1  0
 17 18  2  0
 19 18  1  0
 20 19  2  0
 21 22  2  0
 21 20  1  0
 22 17  1  0
 23 25  1  0
 24 23  2  0
M  END
$$$$
