KGF.pdb
     RDKit          3D

 25 25  0  0  1  0  0  0  0  0999 V2000
    7.3762  -17.7427   20.1982 N   0  0  0  0  0  0  0  0  0  0  0  0
    7.0789  -16.3680   20.2669 C   0  0  1  0  0  0  0  0  0  0  0  0
    5.8027  -15.8997   20.8098 C   0  0  0  0  0  0  0  0  0  0  0  0
    4.8792  -16.7101   21.5774 C   0  0  0  0  0  0  0  0  0  0  0  0
    4.2508  -17.9558   21.1903 C   0  0  0  0  0  0  0  0  0  0  0  0
    3.2088  -18.6116   22.0115 C   0  0  0  0  0  0  0  0  0  0  0  0
    2.8813  -19.9506   21.4134 N   0  0  0  0  0  0  0  0  0  0  0  0
    8.1681  -15.7240   21.1063 C   0  0  0  0  0  0  0  0  0  0  0  0
    8.1278  -14.4970   21.3318 O   0  0  0  0  0  0  0  0  0  0  0  0
    9.2369  -16.4872   21.6439 N   0  0  0  0  0  0  0  0  0  0  0  0
   10.1900  -15.8226   22.4598 C   0  0  0  0  0  0  0  0  0  0  0  0
    9.9501  -15.8506   23.9021 C   0  0  0  0  0  0  0  0  0  0  0  0
   10.8214  -15.3584   24.7044 O   0  0  0  0  0  0  0  0  0  0  0  0
    8.8093  -16.3855   24.5480 N   0  0  0  0  0  0  0  0  0  0  0  0
    8.6431  -16.3757   25.9899 C   0  0  1  0  0  0  0  0  0  0  0  0
    7.2598  -15.9423   26.3757 C   0  0  0  0  0  0  0  0  0  0  0  0
    7.0047  -14.5207   26.1857 C   0  0  0  0  0  0  0  0  0  0  0  0
    7.1333  -13.6137   27.2108 C   0  0  0  0  0  0  0  0  0  0  0  0
    6.8942  -12.2817   26.9760 C   0  0  0  0  0  0  0  0  0  0  0  0
    6.5247  -11.8152   25.7311 C   0  0  0  0  0  0  0  0  0  0  0  0
    6.4005  -12.7381   24.7147 C   0  0  0  0  0  0  0  0  0  0  0  0
    6.6363  -14.0754   24.9334 C   0  0  0  0  0  0  0  0  0  0  0  0
    9.0802  -17.6440   26.6017 C   0  0  0  0  0  0  0  0  0  0  0  0
    9.0944  -17.7498   27.8485 O   0  0  0  0  0  0  0  0  0  0  0  0
    9.4674  -18.7027   25.8327 O   0  0  0  0  0  0  0  0  0  0  0  0
  2  1  1  1
  2  8  1  0
  3  2  1  0
  3  4  1  0
  4  5  1  0
  5  6  1  0
  6  7  1  0
  8  9  2  0
 10 11  1  0
 10  8  1  0
 11 12  1  0
 12 13  2  0
 12 14  1  0
 14 15  1  0
 15 23  1  0
 15 16  1  6
 17 16  1  0
 17 18  2  0
 19 18  1  0
 20 19  2  0
 21 22  2  0
 21 20  1  0
 22 17  1  0
 23 25  1  0
 24 23  2  0
M  END
$$$$
