KGF.pdb
     RDKit          3D

 25 25  0  0  1  0  0  0  0  0999 V2000
    9.8739  -13.9205   19.1825 N   0  0  0  0  0  0  0  0  0  0  0  0
    8.7468  -13.3398   19.7952 C   0  0  1  0  0  0  0  0  0  0  0  0
    7.5224  -13.0869   19.0340 C   0  0  0  0  0  0  0  0  0  0  0  0
    7.3445  -13.3782   17.6261 C   0  0  0  0  0  0  0  0  0  0  0  0
    8.1252  -14.2695   16.7937 C   0  0  0  0  0  0  0  0  0  0  0  0
    7.8300  -14.4830   15.3593 C   0  0  0  0  0  0  0  0  0  0  0  0
    8.7182  -15.5740   14.8313 N   0  0  0  0  0  0  0  0  0  0  0  0
    8.3584  -14.2462   20.9500 C   0  0  0  0  0  0  0  0  0  0  0  0
    7.3439  -13.9809   21.6272 O   0  0  0  0  0  0  0  0  0  0  0  0
    9.1247  -15.3941   21.2802 N   0  0  0  0  0  0  0  0  0  0  0  0
    8.6280  -16.2638   22.2865 C   0  0  0  0  0  0  0  0  0  0  0  0
    9.1265  -16.0465   23.6440 C   0  0  0  0  0  0  0  0  0  0  0  0
   10.3490  -15.7048   23.8286 O   0  0  0  0  0  0  0  0  0  0  0  0
    8.3778  -16.1763   24.8386 N   0  0  0  0  0  0  0  0  0  0  0  0
    8.9587  -15.9953   26.1563 C   0  0  1  0  0  0  0  0  0  0  0  0
    7.9669  -15.4004   27.1118 C   0  0  0  0  0  0  0  0  0  0  0  0
    7.4297  -14.1137   26.6903 C   0  0  0  0  0  0  0  0  0  0  0  0
    6.1374  -13.9749   26.2419 C   0  0  0  0  0  0  0  0  0  0  0  0
    5.6749  -12.7366   25.8688 C   0  0  0  0  0  0  0  0  0  0  0  0
    6.4718  -11.6118   25.9287 C   0  0  0  0  0  0  0  0  0  0  0  0
    7.7646  -11.7687   26.3806 C   0  0  0  0  0  0  0  0  0  0  0  0
    8.2430  -13.0018   26.7580 C   0  0  0  0  0  0  0  0  0  0  0  0
    9.6145  -17.2237   26.6408 C   0  0  0  0  0  0  0  0  0  0  0  0
    9.3761  -18.3114   26.0698 O   0  0  0  0  0  0  0  0  0  0  0  0
   10.4765  -17.1943   27.6984 O   0  0  0  0  0  0  0  0  0  0  0  0
  2  1  1  6
  2  8  1  0
  3  2  1  0
  3  4  1  0
  4  5  1  0
  5  6  1  0
  6  7  1  0
  8  9  2  0
 10 11  1  0
 10  8  1  0
 11 12  1  0
 12 13  2  0
 12 14  1  0
 14 15  1  0
 15 23  1  0
 15 16  1  1
 17 16  1  0
 17 18  2  0
 19 18  1  0
 20 19  2  0
 21 22  2  0
 21 20  1  0
 22 17  1  0
 23 25  1  0
 24 23  2  0
M  END
$$$$
