KGF.pdb
     RDKit          3D

 25 25  0  0  1  0  0  0  0  0999 V2000
    9.9323  -13.6011   19.5505 N   0  0  0  0  0  0  0  0  0  0  0  0
    8.5572  -13.4185   19.7927 C   0  0  1  0  0  0  0  0  0  0  0  0
    7.5716  -13.6224   18.7298 C   0  0  0  0  0  0  0  0  0  0  0  0
    7.8587  -13.5744   17.3106 C   0  0  0  0  0  0  0  0  0  0  0  0
    7.5608  -14.5734   16.3056 C   0  0  0  0  0  0  0  0  0  0  0  0
    7.7660  -14.3349   14.8595 C   0  0  0  0  0  0  0  0  0  0  0  0
    7.4522  -15.5951   14.1037 N   0  0  0  0  0  0  0  0  0  0  0  0
    8.1799  -14.3644   20.9192 C   0  0  0  0  0  0  0  0  0  0  0  0
    7.0213  -14.3390   21.3830 O   0  0  0  0  0  0  0  0  0  0  0  0
    9.1173  -15.2818   21.4608 N   0  0  0  0  0  0  0  0  0  0  0  0
    8.6714  -16.1796   22.4662 C   0  0  0  0  0  0  0  0  0  0  0  0
    9.1003  -15.8950   23.8350 C   0  0  0  0  0  0  0  0  0  0  0  0
   10.1156  -15.1391   24.0422 O   0  0  0  0  0  0  0  0  0  0  0  0
    8.4937  -16.3822   25.0178 N   0  0  0  0  0  0  0  0  0  0  0  0
    8.9873  -16.0643   26.3452 C   0  0  1  0  0  0  0  0  0  0  0  0
    7.9158  -15.4408   27.1899 C   0  0  0  0  0  0  0  0  0  0  0  0
    7.3943  -14.1868   26.6630 C   0  0  0  0  0  0  0  0  0  0  0  0
    8.0457  -12.9906   26.8498 C   0  0  0  0  0  0  0  0  0  0  0  0
    7.5186  -11.8379   26.3207 C   0  0  0  0  0  0  0  0  0  0  0  0
    6.3429  -11.8377   25.5985 C   0  0  0  0  0  0  0  0  0  0  0  0
    5.7028  -13.0456   25.4207 C   0  0  0  0  0  0  0  0  0  0  0  0
    6.2174  -14.2088   25.9441 C   0  0  0  0  0  0  0  0  0  0  0  0
    9.6663  -17.2149   26.9688 C   0  0  0  0  0  0  0  0  0  0  0  0
   10.2241  -17.0688   28.0794 O   0  0  0  0  0  0  0  0  0  0  0  0
    9.6956  -18.4344   26.3570 O   0  0  0  0  0  0  0  0  0  0  0  0
  2  1  1  6
  2  8  1  0
  3  2  1  0
  3  4  1  0
  4  5  1  0
  5  6  1  0
  6  7  1  0
  8  9  2  0
 10 11  1  0
 10  8  1  0
 11 12  1  0
 12 13  2  0
 12 14  1  0
 14 15  1  0
 15 23  1  0
 15 16  1  1
 17 16  1  0
 17 18  2  0
 19 18  1  0
 20 19  2  0
 21 22  2  0
 21 20  1  0
 22 17  1  0
 23 25  1  0
 24 23  2  0
M  END
$$$$
