KGF.pdb
     RDKit          3D

 25 25  0  0  1  0  0  0  0  0999 V2000
    7.7585  -19.0876   21.1933 N   0  0  0  0  0  0  0  0  0  0  0  0
    8.0431  -18.2611   20.0893 C   0  0  1  0  0  0  0  0  0  0  0  0
    6.9740  -17.7826   19.2113 C   0  0  0  0  0  0  0  0  0  0  0  0
    5.6844  -18.4221   19.0483 C   0  0  0  0  0  0  0  0  0  0  0  0
    5.2426  -19.2767   17.9661 C   0  0  0  0  0  0  0  0  0  0  0  0
    3.8447  -19.7464   17.8414 C   0  0  0  0  0  0  0  0  0  0  0  0
    3.6988  -20.5231   16.5634 N   0  0  0  0  0  0  0  0  0  0  0  0
    8.7413  -17.0269   20.6325 C   0  0  0  0  0  0  0  0  0  0  0  0
    9.1835  -16.1701   19.8398 O   0  0  0  0  0  0  0  0  0  0  0  0
    8.9043  -16.8223   22.0273 N   0  0  0  0  0  0  0  0  0  0  0  0
    9.5707  -15.6449   22.4578 C   0  0  0  0  0  0  0  0  0  0  0  0
    9.7829  -15.5022   23.8977 C   0  0  0  0  0  0  0  0  0  0  0  0
   10.7576  -14.7906   24.3323 O   0  0  0  0  0  0  0  0  0  0  0  0
    8.9970  -16.0883   24.9191 N   0  0  0  0  0  0  0  0  0  0  0  0
    9.3584  -16.0288   26.3236 C   0  0  1  0  0  0  0  0  0  0  0  0
    8.2057  -15.5636   27.1634 C   0  0  0  0  0  0  0  0  0  0  0  0
    7.7892  -14.1930   26.8989 C   0  0  0  0  0  0  0  0  0  0  0  0
    8.4819  -13.1127   27.3921 C   0  0  0  0  0  0  0  0  0  0  0  0
    8.0552  -11.8397   27.1024 C   0  0  0  0  0  0  0  0  0  0  0  0
    6.9410  -11.6033   26.3235 C   0  0  0  0  0  0  0  0  0  0  0  0
    6.2583  -12.6977   25.8372 C   0  0  0  0  0  0  0  0  0  0  0  0
    6.6726  -13.9788   26.1181 C   0  0  0  0  0  0  0  0  0  0  0  0
    9.9841  -17.2822   26.7833 C   0  0  0  0  0  0  0  0  0  0  0  0
   10.0685  -18.2500   25.9945 O   0  0  0  0  0  0  0  0  0  0  0  0
   10.4729  -17.4040   28.0515 O   0  0  0  0  0  0  0  0  0  0  0  0
  2  1  1  1
  2  8  1  0
  3  2  1  0
  3  4  1  0
  4  5  1  0
  5  6  1  0
  6  7  1  0
  8  9  2  0
 10 11  1  0
 10  8  1  0
 11 12  1  0
 12 13  2  0
 12 14  1  0
 14 15  1  0
 15 23  1  0
 15 16  1  1
 17 16  1  0
 17 18  2  0
 19 18  1  0
 20 19  2  0
 21 22  2  0
 21 20  1  0
 22 17  1  0
 23 25  1  0
 24 23  2  0
M  END
$$$$
