KGF.pdb
     RDKit          3D

 25 25  0  0  1  0  0  0  0  0999 V2000
    7.0965  -18.1616   19.4079 N   0  0  0  0  0  0  0  0  0  0  0  0
    8.4887  -17.9644   19.4854 C   0  0  1  0  0  0  0  0  0  0  0  0
    9.2732  -17.6546   18.2890 C   0  0  0  0  0  0  0  0  0  0  0  0
    8.8379  -17.8874   16.9270 C   0  0  0  0  0  0  0  0  0  0  0  0
    9.5974  -18.4531   15.8317 C   0  0  0  0  0  0  0  0  0  0  0  0
    9.0636  -18.5430   14.4544 C   0  0  0  0  0  0  0  0  0  0  0  0
   10.1689  -18.9565   13.5243 N   0  0  0  0  0  0  0  0  0  0  0  0
    8.7174  -16.8226   20.4599 C   0  0  0  0  0  0  0  0  0  0  0  0
    9.8817  -16.5224   20.7950 O   0  0  0  0  0  0  0  0  0  0  0  0
    7.6338  -16.0840   21.0023 N   0  0  0  0  0  0  0  0  0  0  0  0
    7.9289  -15.0200   21.8948 C   0  0  0  0  0  0  0  0  0  0  0  0
    8.2070  -15.3877   23.2826 C   0  0  0  0  0  0  0  0  0  0  0  0
    7.5739  -16.3629   23.8243 O   0  0  0  0  0  0  0  0  0  0  0  0
    9.1418  -14.7599   24.1408 N   0  0  0  0  0  0  0  0  0  0  0  0
    9.2864  -15.1126   25.5414 C   0  0  1  0  0  0  0  0  0  0  0  0
    7.9740  -15.0270   26.2628 C   0  0  0  0  0  0  0  0  0  0  0  0
    7.4118  -13.6845   26.3223 C   0  0  0  0  0  0  0  0  0  0  0  0
    6.0638  -13.4520   26.1842 C   0  0  0  0  0  0  0  0  0  0  0  0
    5.5824  -12.1679   26.2617 C   0  0  0  0  0  0  0  0  0  0  0  0
    6.4147  -11.0885   26.4761 C   0  0  0  0  0  0  0  0  0  0  0  0
    7.7633  -11.3395   26.6124 C   0  0  0  0  0  0  0  0  0  0  0  0
    8.2613  -12.6194   26.5373 C   0  0  0  0  0  0  0  0  0  0  0  0
    9.9980  -16.3922   25.7148 C   0  0  0  0  0  0  0  0  0  0  0  0
   10.1444  -16.8605   26.8659 O   0  0  0  0  0  0  0  0  0  0  0  0
   10.4976  -17.0736   24.6432 O   0  0  0  0  0  0  0  0  0  0  0  0
  2  1  1  6
  2  8  1  0
  3  2  1  0
  3  4  1  0
  4  5  1  0
  5  6  1  0
  6  7  1  0
  8  9  2  0
 10 11  1  0
 10  8  1  0
 11 12  1  0
 12 13  2  0
 12 14  1  0
 14 15  1  0
 15 23  1  0
 15 16  1  6
 17 16  1  0
 17 18  2  0
 19 18  1  0
 20 19  2  0
 21 22  2  0
 21 20  1  0
 22 17  1  0
 23 25  1  0
 24 23  2  0
M  END
$$$$
