RKM.pdb
     RDKit          3D

 29 28  0  0  1  0  0  0  0  0999 V2000
    8.5913  -13.4965   14.2785 N   0  0  0  0  0  0  0  0  0  0  0  0
    8.8525  -14.4303   15.3160 C   0  0  0  0  0  0  0  0  0  0  0  0
    9.9735  -15.0243   15.3489 N   0  0  0  0  0  0  0  0  0  0  0  0
    7.8781  -14.6974   16.3021 N   0  0  0  0  0  0  0  0  0  0  0  0
    7.5993  -13.7489   17.3253 C   0  0  0  0  0  0  0  0  0  0  0  0
    8.7197  -13.5577   18.3292 C   0  0  0  0  0  0  0  0  0  0  0  0
    8.3168  -14.1792   19.6406 C   0  0  0  0  0  0  0  0  0  0  0  0
    8.5278  -15.6845   19.6386 C   0  0  2  0  0  0  0  0  0  0  0  0
    7.6343  -16.3469   18.7410 N   0  0  0  0  0  0  0  0  0  0  0  0
    8.3350  -16.1889   21.0104 C   0  0  0  0  0  0  0  0  0  0  0  0
    7.1929  -16.3741   21.5216 O   0  0  0  0  0  0  0  0  0  0  0  0
   10.2455  -15.7995   15.9899 N   0  0  0  0  0  0  0  0  0  0  0  0
    9.4540  -16.4861   21.8102 C   0  0  1  0  0  0  0  0  0  0  0  0
    9.3639  -17.1206   23.1086 C   0  0  0  0  0  0  0  0  0  0  0  0
   10.4394  -18.1815   23.1897 C   0  0  0  0  0  0  0  0  0  0  0  0
   10.1428  -19.3737   22.3387 C   0  0  0  0  0  0  0  0  0  0  0  0
   11.2808  -20.3423   22.3992 C   0  0  0  0  0  0  0  0  0  0  0  0
   11.0443  -21.6168   21.6566 N   0  0  0  0  0  0  0  0  0  0  0  0
   12.2358  -22.4547   21.8701 C   0  0  0  0  0  0  0  0  0  0  0  0
    9.7120  -16.0768   24.1337 O   0  0  0  0  0  0  0  0  0  0  0  0
   10.7808  -15.4216   24.0585 C   0  0  0  0  0  0  0  0  0  0  0  0
    5.3331  -12.2525   26.5711 S   0  0  0  0  0  0  0  0  0  0  0  0
    6.5865  -12.1076   27.8222 C   0  0  0  0  0  0  0  0  0  0  0  0
    8.0797  -13.0288   27.5925 C   0  0  0  0  0  0  0  0  0  0  0  0
    8.0030  -13.9634   26.4326 C   0  0  1  0  0  0  0  0  0  0  0  0
    9.2113  -14.8128   26.2151 N   0  0  0  0  0  0  0  0  0  0  0  0
    8.8328  -15.8154   25.2062 C   0  0  0  0  0  0  0  0  0  0  0  0
    9.6266  -15.5190   27.4423 O   0  0  0  0  0  0  0  0  0  0  0  0
   10.3759  -14.8166   28.4118 O   0  0  0  0  0  0  0  0  0  0  0  0
  2  3  2  0
  2  1  1  0
  4  2  1  0
  5  4  1  0
  6  7  1  0
  6  5  1  0
  7  8  1  0
  8 10  1  0
  8  9  1  6
 10 12  1  0
 11 10  2  0
 12 13  1  0
 13 19  1  0
 13 14  1  6
 15 14  1  0
 16 17  1  0
 16 15  1  0
 18 17  1  0
 19 20  2  0
 19 26  1  0
 22 21  1  0
 23 22  1  0
 24 23  1  0
 25 24  1  6
 25 27  1  0
 26 25  1  0
 27 28  1  0
 29 27  2  0
M  END
$$$$
