RKM.pdb
     RDKit          3D

 29 28  0  0  1  0  0  0  0  0999 V2000
    9.4593  -12.8905   19.0673 N   0  0  0  0  0  0  0  0  0  0  0  0
    8.2698  -12.6993   19.8191 C   0  0  0  0  0  0  0  0  0  0  0  0
    7.5780  -11.6521   19.6309 N   0  0  0  0  0  0  0  0  0  0  0  0
    7.8579  -13.6617   20.7664 N   0  0  0  0  0  0  0  0  0  0  0  0
    8.5276  -14.9126   20.8710 C   0  0  0  0  0  0  0  0  0  0  0  0
    9.1122  -15.4251   19.5689 C   0  0  0  0  0  0  0  0  0  0  0  0
   10.5922  -15.6413   19.7453 C   0  0  0  0  0  0  0  0  0  0  0  0
   10.9049  -17.0608   20.1903 C   0  0  2  0  0  0  0  0  0  0  0  0
   10.0501  -18.0174   19.5601 N   0  0  0  0  0  0  0  0  0  0  0  0
   10.7594  -17.1380   21.6552 C   0  0  0  0  0  0  0  0  0  0  0  0
   11.3815  -16.3754   22.4499 O   0  0  0  0  0  0  0  0  0  0  0  0
    6.7480  -11.3499   20.1838 N   0  0  0  0  0  0  0  0  0  0  0  0
    9.8966  -18.0936   22.2232 C   0  0  2  0  0  0  0  0  0  0  0  0
    9.7817  -18.3212   23.6485 C   0  0  0  0  0  0  0  0  0  0  0  0
   10.8965  -19.2542   24.0675 C   0  0  0  0  0  0  0  0  0  0  0  0
   10.5412  -20.6956   23.8958 C   0  0  0  0  0  0  0  0  0  0  0  0
   11.6973  -21.5588   24.2897 C   0  0  0  0  0  0  0  0  0  0  0  0
   11.4199  -23.0253   24.2270 N   0  0  0  0  0  0  0  0  0  0  0  0
   12.6340  -23.7036   24.7098 C   0  0  0  0  0  0  0  0  0  0  0  0
   10.0451  -17.0053   24.3270 O   0  0  0  0  0  0  0  0  0  0  0  0
   11.1767  -16.4627   24.2784 C   0  0  0  0  0  0  0  0  0  0  0  0
    6.1393  -11.6341   25.7001 S   0  0  0  0  0  0  0  0  0  0  0  0
    6.6994  -12.4009   27.2019 C   0  0  0  0  0  0  0  0  0  0  0  0
    8.1870  -13.3560   27.1255 C   0  0  0  0  0  0  0  0  0  0  0  0
    8.1401  -14.4047   26.0660 C   0  0  1  0  0  0  0  0  0  0  0  0
    9.3573  -15.2627   25.9614 N   0  0  0  0  0  0  0  0  0  0  0  0
    9.0129  -16.3538   25.0355 C   0  0  0  0  0  0  0  0  0  0  0  0
    9.7378  -15.8539   27.2587 O   0  0  0  0  0  0  0  0  0  0  0  0
   10.4265  -15.0530   28.1962 O   0  0  0  0  0  0  0  0  0  0  0  0
  2  3  2  0
  2  1  1  0
  4  2  1  0
  5  4  1  0
  6  7  1  0
  6  5  1  0
  7  8  1  0
  8 10  1  0
  8  9  1  6
 10 12  1  0
 11 10  2  0
 12 13  1  0
 13 19  1  0
 13 14  1  6
 15 14  1  0
 16 17  1  0
 16 15  1  0
 18 17  1  0
 19 20  2  0
 19 26  1  0
 22 21  1  0
 23 22  1  0
 24 23  1  0
 25 24  1  6
 25 27  1  0
 26 25  1  0
 27 28  1  0
 29 27  2  0
M  END
$$$$
