RKM.pdb
     RDKit          3D

 29 28  0  0  1  0  0  0  0  0999 V2000
    8.9779  -12.9776   17.7575 N   0  0  0  0  0  0  0  0  0  0  0  0
    8.2271  -12.5295   18.8765 C   0  0  0  0  0  0  0  0  0  0  0  0
    8.4119  -11.3540   19.3176 N   0  0  0  0  0  0  0  0  0  0  0  0
    7.2841  -13.3797   19.4939 N   0  0  0  0  0  0  0  0  0  0  0  0
    7.6975  -14.5798   20.1365 C   0  0  0  0  0  0  0  0  0  0  0  0
    7.3055  -15.8513   19.4087 C   0  0  0  0  0  0  0  0  0  0  0  0
    7.0009  -16.9239   20.4212 C   0  0  0  0  0  0  0  0  0  0  0  0
    8.2222  -17.2735   21.2560 C   0  0  2  0  0  0  0  0  0  0  0  0
    9.0151  -18.2910   20.6404 N   0  0  0  0  0  0  0  0  0  0  0  0
    7.7712  -17.7178   22.5873 C   0  0  0  0  0  0  0  0  0  0  0  0
    6.8891  -17.1049   23.2554 O   0  0  0  0  0  0  0  0  0  0  0  0
    7.9934  -10.9422   20.1786 N   0  0  0  0  0  0  0  0  0  0  0  0
    8.3298  -18.8726   23.1657 C   0  0  2  0  0  0  0  0  0  0  0  0
    7.9582  -19.3730   24.4727 C   0  0  0  0  0  0  0  0  0  0  0  0
    8.3574  -20.8302   24.5498 C   0  0  0  0  0  0  0  0  0  0  0  0
    7.9835  -21.4655   25.8497 C   0  0  0  0  0  0  0  0  0  0  0  0
    8.3880  -22.9054   25.8514 C   0  0  0  0  0  0  0  0  0  0  0  0
    8.1659  -23.6056   27.1522 N   0  0  0  0  0  0  0  0  0  0  0  0
    8.6563  -24.9826   26.9772 C   0  0  0  0  0  0  0  0  0  0  0  0
    8.8026  -18.6424   25.4801 O   0  0  0  0  0  0  0  0  0  0  0  0
    8.7039  -18.8827   26.7088 C   0  0  0  0  0  0  0  0  0  0  0  0
    9.5297  -12.7248   29.4659 S   0  0  0  0  0  0  0  0  0  0  0  0
    9.4355  -13.6460   27.9495 C   0  0  0  0  0  0  0  0  0  0  0  0
    9.8652  -15.3616   28.0083 C   0  0  0  0  0  0  0  0  0  0  0  0
    9.3848  -16.1132   26.8129 C   0  0  1  0  0  0  0  0  0  0  0  0
   10.4366  -16.8619   26.0633 N   0  0  0  0  0  0  0  0  0  0  0  0
    9.7285  -17.6661   25.0543 C   0  0  0  0  0  0  0  0  0  0  0  0
   11.2018  -17.7742   26.9347 O   0  0  0  0  0  0  0  0  0  0  0  0
   11.1030  -19.1662   26.7172 O   0  0  0  0  0  0  0  0  0  0  0  0
  2  3  2  0
  2  1  1  0
  4  2  1  0
  5  4  1  0
  6  7  1  0
  6  5  1  0
  7  8  1  0
  8 10  1  0
  8  9  1  6
 10 12  1  0
 11 10  2  0
 12 13  1  0
 13 19  1  0
 13 14  1  6
 15 14  1  0
 16 17  1  0
 16 15  1  0
 18 17  1  0
 19 20  2  0
 19 26  1  0
 22 21  1  0
 23 22  1  0
 24 23  1  0
 25 24  1  6
 25 27  1  0
 26 25  1  0
 27 28  1  0
 29 27  2  0
M  END
$$$$
