RKM.pdb
     RDKit          3D

 29 28  0  0  1  0  0  0  0  0999 V2000
    9.7218  -15.3051   15.4709 N   0  0  0  0  0  0  0  0  0  0  0  0
    8.7022  -14.3340   15.2866 C   0  0  0  0  0  0  0  0  0  0  0  0
    7.7828  -14.5522   14.4394 N   0  0  0  0  0  0  0  0  0  0  0  0
    8.7078  -13.1376   16.0363 N   0  0  0  0  0  0  0  0  0  0  0  0
    8.3862  -13.1459   17.4221 C   0  0  0  0  0  0  0  0  0  0  0  0
    7.1973  -14.0134   17.7879 C   0  0  0  0  0  0  0  0  0  0  0  0
    7.1774  -14.2172   19.2800 C   0  0  0  0  0  0  0  0  0  0  0  0
    8.4388  -14.9090   19.7707 C   0  0  2  0  0  0  0  0  0  0  0  0
    8.8728  -15.9290   18.8684 N   0  0  0  0  0  0  0  0  0  0  0  0
    8.1718  -15.4878   21.1000 C   0  0  0  0  0  0  0  0  0  0  0  0
    7.5308  -14.8746   22.0017 O   0  0  0  0  0  0  0  0  0  0  0  0
    7.0332  -13.8872   14.1532 N   0  0  0  0  0  0  0  0  0  0  0  0
    8.6394  -16.7789   21.4076 C   0  0  1  0  0  0  0  0  0  0  0  0
    8.4634  -17.4070   22.7003 C   0  0  0  0  0  0  0  0  0  0  0  0
    9.2038  -18.7262   22.6874 C   0  0  0  0  0  0  0  0  0  0  0  0
    9.1260  -19.4473   23.9941 C   0  0  0  0  0  0  0  0  0  0  0  0
    9.9357  -20.7034   23.9351 C   0  0  0  0  0  0  0  0  0  0  0  0
    9.8668  -21.5386   25.1718 N   0  0  0  0  0  0  0  0  0  0  0  0
   10.8212  -22.6440   24.9859 C   0  0  0  0  0  0  0  0  0  0  0  0
    9.1563  -16.5354   23.7111 O   0  0  0  0  0  0  0  0  0  0  0  0
   10.3275  -16.1235   23.5216 C   0  0  0  0  0  0  0  0  0  0  0  0
    5.6963  -12.1959   27.0145 S   0  0  0  0  0  0  0  0  0  0  0  0
    7.4128  -11.7878   27.2252 C   0  0  0  0  0  0  0  0  0  0  0  0
    8.5900  -13.0983   27.0589 C   0  0  0  0  0  0  0  0  0  0  0  0
    8.1877  -14.1022   26.0318 C   0  0  1  0  0  0  0  0  0  0  0  0
    9.1500  -15.2244   25.8234 N   0  0  0  0  0  0  0  0  0  0  0  0
    8.4929  -16.1633   24.8999 C   0  0  0  0  0  0  0  0  0  0  0  0
    9.4551  -15.9395   27.0775 O   0  0  0  0  0  0  0  0  0  0  0  0
   10.5321  -15.4903   27.8730 O   0  0  0  0  0  0  0  0  0  0  0  0
  2  3  2  0
  2  1  1  0
  4  2  1  0
  5  4  1  0
  6  7  1  0
  6  5  1  0
  7  8  1  0
  8 10  1  0
  8  9  1  6
 10 12  1  0
 11 10  2  0
 12 13  1  0
 13 19  1  0
 13 14  1  1
 15 14  1  0
 16 17  1  0
 16 15  1  0
 18 17  1  0
 19 20  2  0
 19 26  1  0
 22 21  1  0
 23 22  1  0
 24 23  1  0
 25 24  1  6
 25 27  1  0
 26 25  1  0
 27 28  1  0
 29 27  2  0
M  END
$$$$
