RKM.pdb
     RDKit          3D

 29 28  0  0  1  0  0  0  0  0999 V2000
   10.3285  -14.7900   15.6428 N   0  0  0  0  0  0  0  0  0  0  0  0
    8.9898  -14.6362   16.0911 C   0  0  0  0  0  0  0  0  0  0  0  0
    8.0749  -14.3989   15.2442 N   0  0  0  0  0  0  0  0  0  0  0  0
    8.6763  -14.7458   17.4633 N   0  0  0  0  0  0  0  0  0  0  0  0
    9.0734  -13.7358   18.3833 C   0  0  0  0  0  0  0  0  0  0  0  0
    7.9270  -13.0606   19.1111 C   0  0  0  0  0  0  0  0  0  0  0  0
    7.7175  -13.7415   20.4381 C   0  0  0  0  0  0  0  0  0  0  0  0
    7.0829  -15.1129   20.2733 C   0  0  2  0  0  0  0  0  0  0  0  0
    5.7464  -15.0253   19.7741 N   0  0  0  0  0  0  0  0  0  0  0  0
    7.0927  -15.7964   21.5794 C   0  0  0  0  0  0  0  0  0  0  0  0
    6.4591  -15.3664   22.5862 O   0  0  0  0  0  0  0  0  0  0  0  0
    7.0481  -14.4085   15.4220 N   0  0  0  0  0  0  0  0  0  0  0  0
    7.8317  -16.9827   21.7426 C   0  0  1  0  0  0  0  0  0  0  0  0
    7.8594  -17.7455   22.9730 C   0  0  0  0  0  0  0  0  0  0  0  0
    8.3064  -19.1530   22.6443 C   0  0  0  0  0  0  0  0  0  0  0  0
    8.4509  -20.0134   23.8576 C   0  0  0  0  0  0  0  0  0  0  0  0
    8.8271  -21.4045   23.4574 C   0  0  0  0  0  0  0  0  0  0  0  0
    8.9750  -22.3550   24.6003 N   0  0  0  0  0  0  0  0  0  0  0  0
    9.4652  -23.6217   24.0326 C   0  0  0  0  0  0  0  0  0  0  0  0
    8.9324  -17.1453   23.8390 O   0  0  0  0  0  0  0  0  0  0  0  0
   10.0632  -16.8618   23.3719 C   0  0  0  0  0  0  0  0  0  0  0  0
   10.1405  -11.8237   29.1840 S   0  0  0  0  0  0  0  0  0  0  0  0
    9.8659  -12.7889   27.7176 C   0  0  0  0  0  0  0  0  0  0  0  0
    9.8506  -14.5498   27.8901 C   0  0  0  0  0  0  0  0  0  0  0  0
    9.0108  -15.2191   26.8550 C   0  0  1  0  0  0  0  0  0  0  0  0
    9.7186  -16.2272   26.0115 N   0  0  0  0  0  0  0  0  0  0  0  0
    8.6810  -16.8885   25.2038 C   0  0  0  0  0  0  0  0  0  0  0  0
   10.4034  -17.2525   26.8220 O   0  0  0  0  0  0  0  0  0  0  0  0
   11.6590  -16.9445   27.3906 O   0  0  0  0  0  0  0  0  0  0  0  0
  2  3  2  0
  2  1  1  0
  4  2  1  0
  5  4  1  0
  6  7  1  0
  6  5  1  0
  7  8  1  0
  8 10  1  0
  8  9  1  1
 10 12  1  0
 11 10  2  0
 12 13  1  0
 13 19  1  0
 13 14  1  1
 15 14  1  0
 16 17  1  0
 16 15  1  0
 18 17  1  0
 19 20  2  0
 19 26  1  0
 22 21  1  0
 23 22  1  0
 24 23  1  0
 25 24  1  6
 25 27  1  0
 26 25  1  0
 27 28  1  0
 29 27  2  0
M  END
$$$$
