RKM.pdb
     RDKit          3D

 29 28  0  0  1  0  0  0  0  0999 V2000
   10.7654  -13.5320   20.5393 N   0  0  0  0  0  0  0  0  0  0  0  0
    9.7725  -12.8293   19.8065 C   0  0  0  0  0  0  0  0  0  0  0  0
    9.6029  -11.5901   20.0215 N   0  0  0  0  0  0  0  0  0  0  0  0
    8.9808  -13.4987   18.8482 N   0  0  0  0  0  0  0  0  0  0  0  0
    7.6193  -13.8106   19.1189 C   0  0  0  0  0  0  0  0  0  0  0  0
    7.4051  -14.6998   20.3285 C   0  0  0  0  0  0  0  0  0  0  0  0
    6.4187  -15.7817   19.9755 C   0  0  0  0  0  0  0  0  0  0  0  0
    7.0039  -17.1685   20.1878 C   0  0  2  0  0  0  0  0  0  0  0  0
    6.1222  -18.1953   19.7283 N   0  0  0  0  0  0  0  0  0  0  0  0
    7.2849  -17.3463   21.6240 C   0  0  0  0  0  0  0  0  0  0  0  0
    6.3811  -17.3345   22.5089 O   0  0  0  0  0  0  0  0  0  0  0  0
    8.8958  -10.9735   19.5679 N   0  0  0  0  0  0  0  0  0  0  0  0
    8.6091  -17.5396   22.0591 C   0  0  2  0  0  0  0  0  0  0  0  0
    8.9732  -17.7536   23.4441 C   0  0  0  0  0  0  0  0  0  0  0  0
   10.2002  -18.6381   23.4770 C   0  0  0  0  0  0  0  0  0  0  0  0
    9.8676  -20.0933   23.4061 C   0  0  0  0  0  0  0  0  0  0  0  0
   11.1219  -20.9010   23.3003 C   0  0  0  0  0  0  0  0  0  0  0  0
   10.8969  -22.3614   23.0806 N   0  0  0  0  0  0  0  0  0  0  0  0
   12.2280  -22.9768   22.9513 C   0  0  0  0  0  0  0  0  0  0  0  0
    9.3899  -16.4201   24.0007 O   0  0  0  0  0  0  0  0  0  0  0  0
   10.2138  -15.6907   23.3953 C   0  0  0  0  0  0  0  0  0  0  0  0
    5.4722  -11.9075   25.5343 S   0  0  0  0  0  0  0  0  0  0  0  0
    6.7655  -11.5909   26.7108 C   0  0  0  0  0  0  0  0  0  0  0  0
    8.2765  -12.4930   26.5257 C   0  0  0  0  0  0  0  0  0  0  0  0
    8.0723  -13.8276   25.8919 C   0  0  1  0  0  0  0  0  0  0  0  0
    9.2993  -14.6681   25.7622 N   0  0  0  0  0  0  0  0  0  0  0  0
    8.8548  -15.9641   25.2244 C   0  0  0  0  0  0  0  0  0  0  0  0
    9.9563  -14.9027   27.0624 O   0  0  0  0  0  0  0  0  0  0  0  0
   10.6789  -13.8469   27.6607 O   0  0  0  0  0  0  0  0  0  0  0  0
  2  3  2  0
  2  1  1  0
  4  2  1  0
  5  4  1  0
  6  7  1  0
  6  5  1  0
  7  8  1  0
  8 10  1  0
  8  9  1  1
 10 12  1  0
 11 10  2  0
 12 13  1  0
 13 19  1  0
 13 14  1  6
 15 14  1  0
 16 17  1  0
 16 15  1  0
 18 17  1  0
 19 20  2  0
 19 26  1  0
 22 21  1  0
 23 22  1  0
 24 23  1  0
 25 24  1  6
 25 27  1  0
 26 25  1  0
 27 28  1  0
 29 27  2  0
M  END
$$$$
