RKM.pdb
     RDKit          3D

 29 28  0  0  1  0  0  0  0  0999 V2000
    7.7940  -13.9247   15.7886 N   0  0  0  0  0  0  0  0  0  0  0  0
    9.0474  -14.0195   16.4495 C   0  0  0  0  0  0  0  0  0  0  0  0
   10.0051  -14.6270   15.8799 N   0  0  0  0  0  0  0  0  0  0  0  0
    9.2299  -13.4453   17.7262 N   0  0  0  0  0  0  0  0  0  0  0  0
    8.1134  -13.1441   18.5549 C   0  0  0  0  0  0  0  0  0  0  0  0
    7.0785  -14.2491   18.6437 C   0  0  0  0  0  0  0  0  0  0  0  0
    6.7734  -14.5224   20.0930 C   0  0  0  0  0  0  0  0  0  0  0  0
    7.7814  -15.4782   20.7101 C   0  0  2  0  0  0  0  0  0  0  0  0
    7.8818  -16.6974   19.9708 N   0  0  0  0  0  0  0  0  0  0  0  0
    7.3749  -15.7592   22.0990 C   0  0  0  0  0  0  0  0  0  0  0  0
    6.7472  -14.9262   22.8145 O   0  0  0  0  0  0  0  0  0  0  0  0
   10.9535  -14.7984   16.2763 N   0  0  0  0  0  0  0  0  0  0  0  0
    7.6857  -17.0021   22.6810 C   0  0  2  0  0  0  0  0  0  0  0  0
    7.4585  -17.3112   24.0772 C   0  0  0  0  0  0  0  0  0  0  0  0
    7.6849  -18.7941   24.2739 C   0  0  0  0  0  0  0  0  0  0  0  0
    7.4817  -19.2286   25.6893 C   0  0  0  0  0  0  0  0  0  0  0  0
    7.8067  -20.6816   25.8308 C   0  0  0  0  0  0  0  0  0  0  0  0
    7.6913  -21.2051   27.2252 N   0  0  0  0  0  0  0  0  0  0  0  0
    8.0778  -22.6247   27.1743 C   0  0  0  0  0  0  0  0  0  0  0  0
    8.5281  -16.6053   24.8640 O   0  0  0  0  0  0  0  0  0  0  0  0
    9.7200  -16.5838   24.4688 C   0  0  0  0  0  0  0  0  0  0  0  0
    6.3059  -11.7186   27.9691 S   0  0  0  0  0  0  0  0  0  0  0  0
    7.5224  -11.5109   26.6908 C   0  0  0  0  0  0  0  0  0  0  0  0
    8.3644  -12.9595   26.1219 C   0  0  0  0  0  0  0  0  0  0  0  0
    8.6499  -13.9249   27.2224 C   0  0  2  0  0  0  0  0  0  0  0  0
    9.2576  -15.2198   26.7951 N   0  0  0  0  0  0  0  0  0  0  0  0
    8.2041  -15.9492   26.0708 C   0  0  0  0  0  0  0  0  0  0  0  0
    9.6892  -16.0406   27.9428 O   0  0  0  0  0  0  0  0  0  0  0  0
   10.8288  -15.6415   28.6753 O   0  0  0  0  0  0  0  0  0  0  0  0
  2  3  2  0
  2  1  1  0
  4  2  1  0
  5  4  1  0
  6  7  1  0
  6  5  1  0
  7  8  1  0
  8 10  1  0
  8  9  1  6
 10 12  1  0
 11 10  2  0
 12 13  1  0
 13 19  1  0
 13 14  1  6
 15 14  1  0
 16 17  1  0
 16 15  1  0
 18 17  1  0
 19 20  2  0
 19 26  1  0
 22 21  1  0
 23 22  1  0
 24 23  1  0
 25 24  1  6
 25 27  1  0
 26 25  1  0
 27 28  1  0
 29 27  2  0
M  END
$$$$
