RKM.pdb
     RDKit          3D

 29 28  0  0  1  0  0  0  0  0999 V2000
    8.5848  -12.4251   17.5708 N   0  0  0  0  0  0  0  0  0  0  0  0
    8.6882  -13.7817   17.1635 C   0  0  0  0  0  0  0  0  0  0  0  0
    8.8166  -14.0514   15.9301 N   0  0  0  0  0  0  0  0  0  0  0  0
    8.6491  -14.8215   18.1175 N   0  0  0  0  0  0  0  0  0  0  0  0
    7.4394  -15.1437   18.7936 C   0  0  0  0  0  0  0  0  0  0  0  0
    7.1961  -14.3496   20.0624 C   0  0  0  0  0  0  0  0  0  0  0  0
    8.2777  -14.6717   21.0597 C   0  0  0  0  0  0  0  0  0  0  0  0
    8.4796  -16.1711   21.2068 C   0  0  2  0  0  0  0  0  0  0  0  0
    7.4574  -16.9146   20.5395 N   0  0  0  0  0  0  0  0  0  0  0  0
    8.4950  -16.5056   22.6424 C   0  0  0  0  0  0  0  0  0  0  0  0
    7.4511  -16.5229   23.3566 O   0  0  0  0  0  0  0  0  0  0  0  0
    8.8431  -15.0016   15.5029 N   0  0  0  0  0  0  0  0  0  0  0  0
    9.7118  -16.8242   23.2735 C   0  0  1  0  0  0  0  0  0  0  0  0
    9.8091  -17.2587   24.6512 C   0  0  0  0  0  0  0  0  0  0  0  0
   10.9954  -18.1903   24.7683 C   0  0  0  0  0  0  0  0  0  0  0  0
   11.1951  -18.7024   26.1580 C   0  0  0  0  0  0  0  0  0  0  0  0
   12.3486  -19.6538   26.1926 C   0  0  0  0  0  0  0  0  0  0  0  0
   12.6060  -20.2605   27.5332 N   0  0  0  0  0  0  0  0  0  0  0  0
   13.8269  -21.0721   27.3997 C   0  0  0  0  0  0  0  0  0  0  0  0
   10.1347  -16.0430   25.4743 O   0  0  0  0  0  0  0  0  0  0  0  0
   10.9944  -15.2104   25.0937 C   0  0  0  0  0  0  0  0  0  0  0  0
    6.1866  -11.2991   28.0370 S   0  0  0  0  0  0  0  0  0  0  0  0
    6.1722  -12.7605   27.0264 C   0  0  0  0  0  0  0  0  0  0  0  0
    7.7347  -13.4681   26.5918 C   0  0  0  0  0  0  0  0  0  0  0  0
    8.4974  -13.9457   27.7812 C   0  0  2  0  0  0  0  0  0  0  0  0
    9.7982  -14.6138   27.4805 N   0  0  0  0  0  0  0  0  0  0  0  0
    9.4711  -15.8176   26.6992 C   0  0  0  0  0  0  0  0  0  0  0  0
   10.5090  -15.0304   28.7045 O   0  0  0  0  0  0  0  0  0  0  0  0
   11.2285  -14.0611   29.4376 O   0  0  0  0  0  0  0  0  0  0  0  0
  2  3  2  0
  2  1  1  0
  4  2  1  0
  5  4  1  0
  6  7  1  0
  6  5  1  0
  7  8  1  0
  8 10  1  0
  8  9  1  6
 10 12  1  0
 11 10  2  0
 12 13  1  0
 13 19  1  0
 13 14  1  6
 15 14  1  0
 16 17  1  0
 16 15  1  0
 18 17  1  0
 19 20  2  0
 19 26  1  0
 22 21  1  0
 23 22  1  0
 24 23  1  0
 25 24  1  6
 25 27  1  0
 26 25  1  0
 27 28  1  0
 29 27  2  0
M  END
$$$$
