RKM.pdb
     RDKit          3D

 29 28  0  0  1  0  0  0  0  0999 V2000
   13.0855  -18.7661   16.2335 N   0  0  0  0  0  0  0  0  0  0  0  0
   14.3044  -19.4661   16.4360 C   0  0  0  0  0  0  0  0  0  0  0  0
   14.7730  -20.1809   15.4979 N   0  0  0  0  0  0  0  0  0  0  0  0
   14.9905  -19.3701   17.6662 N   0  0  0  0  0  0  0  0  0  0  0  0
   14.4480  -18.6177   18.7450 C   0  0  0  0  0  0  0  0  0  0  0  0
   13.1381  -19.1529   19.2904 C   0  0  0  0  0  0  0  0  0  0  0  0
   12.6679  -18.2584   20.4071 C   0  0  0  0  0  0  0  0  0  0  0  0
   11.2226  -17.8288   20.2139 C   0  0  2  0  0  0  0  0  0  0  0  0
   10.9137  -17.6012   18.8371 N   0  0  0  0  0  0  0  0  0  0  0  0
   10.9874  -16.6017   20.9963 C   0  0  0  0  0  0  0  0  0  0  0  0
   11.9123  -15.7985   21.3117 O   0  0  0  0  0  0  0  0  0  0  0  0
   15.6816  -20.6911   15.5020 N   0  0  0  0  0  0  0  0  0  0  0  0
    9.6853  -16.2842   21.4250 C   0  0  1  0  0  0  0  0  0  0  0  0
    9.3344  -15.0296   22.0570 C   0  0  0  0  0  0  0  0  0  0  0  0
    7.9340  -14.6585   21.6211 C   0  0  0  0  0  0  0  0  0  0  0  0
    7.6574  -15.0134   20.1960 C   0  0  0  0  0  0  0  0  0  0  0  0
    8.3453  -14.0475   19.2847 C   0  0  0  0  0  0  0  0  0  0  0  0
    8.1137  -14.3014   17.8308 N   0  0  0  0  0  0  0  0  0  0  0  0
    8.8967  -13.2927   17.0983 C   0  0  0  0  0  0  0  0  0  0  0  0
    9.2698  -15.2855   23.5375 O   0  0  0  0  0  0  0  0  0  0  0  0
   10.3089  -15.5152   24.2044 C   0  0  0  0  0  0  0  0  0  0  0  0
    6.9250  -10.2190   26.4828 S   0  0  0  0  0  0  0  0  0  0  0  0
    6.1241  -11.6378   27.1917 C   0  0  0  0  0  0  0  0  0  0  0  0
    6.9967  -13.1764   27.1446 C   0  0  0  0  0  0  0  0  0  0  0  0
    7.2298  -13.6599   25.7531 C   0  0  1  0  0  0  0  0  0  0  0  0
    7.9886  -14.9406   25.6399 N   0  0  0  0  0  0  0  0  0  0  0  0
    8.0270  -15.2704   24.2060 C   0  0  0  0  0  0  0  0  0  0  0  0
    7.3267  -16.0478   26.3562 O   0  0  0  0  0  0  0  0  0  0  0  0
    7.7339  -16.3455   27.6754 O   0  0  0  0  0  0  0  0  0  0  0  0
  2  3  2  0
  2  1  1  0
  4  2  1  0
  5  4  1  0
  6  7  1  0
  6  5  1  0
  7  8  1  0
  8 10  1  0
  8  9  1  6
 10 12  1  0
 11 10  2  0
 12 13  1  0
 13 19  1  0
 13 14  1  1
 15 14  1  0
 16 17  1  0
 16 15  1  0
 18 17  1  0
 19 20  2  0
 19 26  1  0
 22 21  1  0
 23 22  1  0
 24 23  1  0
 25 24  1  6
 25 27  1  0
 26 25  1  0
 27 28  1  0
 29 27  2  0
M  END
$$$$
