RKM.pdb
     RDKit          3D

 29 28  0  0  1  0  0  0  0  0999 V2000
    9.1285  -14.6957   14.3253 N   0  0  0  0  0  0  0  0  0  0  0  0
    8.2890  -13.9509   15.1954 C   0  0  0  0  0  0  0  0  0  0  0  0
    7.0378  -13.9308   14.9841 N   0  0  0  0  0  0  0  0  0  0  0  0
    8.8367  -13.2396   16.2850 N   0  0  0  0  0  0  0  0  0  0  0  0
    8.1447  -13.1631   17.5258 C   0  0  0  0  0  0  0  0  0  0  0  0
    7.1370  -14.2731   17.7545 C   0  0  0  0  0  0  0  0  0  0  0  0
    7.0261  -14.5402   19.2326 C   0  0  0  0  0  0  0  0  0  0  0  0
    8.3917  -14.7121   19.8777 C   0  0  2  0  0  0  0  0  0  0  0  0
    9.2554  -15.5319   19.0871 N   0  0  0  0  0  0  0  0  0  0  0  0
    8.2098  -15.3079   21.2138 C   0  0  0  0  0  0  0  0  0  0  0  0
    7.3121  -14.9287   22.0203 O   0  0  0  0  0  0  0  0  0  0  0  0
    6.3209  -13.4332   15.5538 N   0  0  0  0  0  0  0  0  0  0  0  0
    9.0585  -16.3472   21.6378 C   0  0  1  0  0  0  0  0  0  0  0  0
    8.8989  -17.0485   22.8945 C   0  0  0  0  0  0  0  0  0  0  0  0
    9.7646  -18.2886   22.8548 C   0  0  0  0  0  0  0  0  0  0  0  0
    9.6627  -19.1067   24.1011 C   0  0  0  0  0  0  0  0  0  0  0  0
   10.4894  -20.3461   23.9696 C   0  0  0  0  0  0  0  0  0  0  0  0
   10.4917  -21.2162   25.1839 N   0  0  0  0  0  0  0  0  0  0  0  0
   11.3310  -22.3825   24.8635 C   0  0  0  0  0  0  0  0  0  0  0  0
    9.4670  -16.1622   23.9684 O   0  0  0  0  0  0  0  0  0  0  0  0
   10.5733  -15.5867   23.8198 C   0  0  0  0  0  0  0  0  0  0  0  0
    6.3971  -10.5797   25.9520 S   0  0  0  0  0  0  0  0  0  0  0  0
    6.7986  -12.1096   26.7616 C   0  0  0  0  0  0  0  0  0  0  0  0
    8.0927  -13.0903   26.0585 C   0  0  0  0  0  0  0  0  0  0  0  0
    8.3642  -14.3283   26.8447 C   0  0  2  0  0  0  0  0  0  0  0  0
    9.4055  -15.2329   26.2735 N   0  0  0  0  0  0  0  0  0  0  0  0
    8.7570  -15.9620   25.1716 C   0  0  0  0  0  0  0  0  0  0  0  0
    9.8946  -16.2154   27.2596 O   0  0  0  0  0  0  0  0  0  0  0  0
   10.8287  -15.7966   28.2327 O   0  0  0  0  0  0  0  0  0  0  0  0
  2  3  2  0
  2  1  1  0
  4  2  1  0
  5  4  1  0
  6  7  1  0
  6  5  1  0
  7  8  1  0
  8 10  1  0
  8  9  1  6
 10 12  1  0
 11 10  2  0
 12 13  1  0
 13 19  1  0
 13 14  1  1
 15 14  1  0
 16 17  1  0
 16 15  1  0
 18 17  1  0
 19 20  2  0
 19 26  1  0
 22 21  1  0
 23 22  1  0
 24 23  1  0
 25 24  1  6
 25 27  1  0
 26 25  1  0
 27 28  1  0
 29 27  2  0
M  END
$$$$
