RKM.pdb
     RDKit          3D

 29 28  0  0  1  0  0  0  0  0999 V2000
    9.2506  -12.9782   17.1997 N   0  0  0  0  0  0  0  0  0  0  0  0
    9.5336  -12.7723   18.5761 C   0  0  0  0  0  0  0  0  0  0  0  0
   10.7108  -12.9746   19.0048 N   0  0  0  0  0  0  0  0  0  0  0  0
    8.5189  -12.3470   19.4608 N   0  0  0  0  0  0  0  0  0  0  0  0
    7.3044  -13.0782   19.5805 C   0  0  0  0  0  0  0  0  0  0  0  0
    7.4771  -14.5844   19.6191 C   0  0  0  0  0  0  0  0  0  0  0  0
    7.7732  -15.0098   21.0332 C   0  0  0  0  0  0  0  0  0  0  0  0
    7.8015  -16.5233   21.1717 C   0  0  2  0  0  0  0  0  0  0  0  0
    6.5507  -17.1149   20.8132 N   0  0  0  0  0  0  0  0  0  0  0  0
    8.1421  -16.8623   22.5653 C   0  0  0  0  0  0  0  0  0  0  0  0
    7.2687  -17.0848   23.4529 O   0  0  0  0  0  0  0  0  0  0  0  0
   11.0517  -12.8186   19.9771 N   0  0  0  0  0  0  0  0  0  0  0  0
    9.4916  -16.9494   22.9543 C   0  0  2  0  0  0  0  0  0  0  0  0
    9.9204  -17.4048   24.2603 C   0  0  0  0  0  0  0  0  0  0  0  0
   11.2198  -18.1610   24.0918 C   0  0  0  0  0  0  0  0  0  0  0  0
   11.0300  -19.5092   23.4756 C   0  0  0  0  0  0  0  0  0  0  0  0
   12.3352  -20.2378   23.4251 C   0  0  0  0  0  0  0  0  0  0  0  0
   12.2750  -21.5611   22.7345 N   0  0  0  0  0  0  0  0  0  0  0  0
   13.6190  -22.1523   22.8415 C   0  0  0  0  0  0  0  0  0  0  0  0
   10.2388  -16.1790   25.0712 O   0  0  0  0  0  0  0  0  0  0  0  0
   11.1313  -15.3729   24.7095 C   0  0  0  0  0  0  0  0  0  0  0  0
    5.9238  -11.2731   25.9766 S   0  0  0  0  0  0  0  0  0  0  0  0
    6.7271  -12.3865   27.1046 C   0  0  0  0  0  0  0  0  0  0  0  0
    8.1738  -13.2279   26.5300 C   0  0  0  0  0  0  0  0  0  0  0  0
    8.7918  -14.0867   27.5812 C   0  0  2  0  0  0  0  0  0  0  0  0
   10.0058  -14.8442   27.1556 N   0  0  0  0  0  0  0  0  0  0  0  0
    9.5309  -15.9139   26.2631 C   0  0  0  0  0  0  0  0  0  0  0  0
   10.7063  -15.4646   28.2965 O   0  0  0  0  0  0  0  0  0  0  0  0
   11.4506  -14.6401   29.1687 O   0  0  0  0  0  0  0  0  0  0  0  0
  2  3  2  0
  2  1  1  0
  4  2  1  0
  5  4  1  0
  6  7  1  0
  6  5  1  0
  7  8  1  0
  8 10  1  0
  8  9  1  1
 10 12  1  0
 11 10  2  0
 12 13  1  0
 13 19  1  0
 13 14  1  6
 15 14  1  0
 16 17  1  0
 16 15  1  0
 18 17  1  0
 19 20  2  0
 19 26  1  0
 22 21  1  0
 23 22  1  0
 24 23  1  0
 25 24  1  6
 25 27  1  0
 26 25  1  0
 27 28  1  0
 29 27  2  0
M  END
$$$$
