RKM.pdb
     RDKit          3D

 29 28  0  0  1  0  0  0  0  0999 V2000
   10.1328  -22.6681   24.3610 N   0  0  0  0  0  0  0  0  0  0  0  0
    8.9211  -22.9386   23.6716 C   0  0  0  0  0  0  0  0  0  0  0  0
    7.9335  -23.4107   24.3137 N   0  0  0  0  0  0  0  0  0  0  0  0
    8.8126  -22.6862   22.2868 N   0  0  0  0  0  0  0  0  0  0  0  0
    9.9353  -22.2330   21.5396 C   0  0  0  0  0  0  0  0  0  0  0  0
    9.6196  -21.1576   20.5179 C   0  0  0  0  0  0  0  0  0  0  0  0
    9.1902  -19.9061   21.2373 C   0  0  0  0  0  0  0  0  0  0  0  0
    8.7721  -18.8138   20.2664 C   0  0  2  0  0  0  0  0  0  0  0  0
    9.3116  -19.0267   18.9600 N   0  0  0  0  0  0  0  0  0  0  0  0
    9.2240  -17.5145   20.7963 C   0  0  0  0  0  0  0  0  0  0  0  0
   10.4407  -17.2448   21.0127 O   0  0  0  0  0  0  0  0  0  0  0  0
    7.0154  -23.6996   23.9142 N   0  0  0  0  0  0  0  0  0  0  0  0
    8.2813  -16.5100   21.0834 C   0  0  2  0  0  0  0  0  0  0  0  0
    8.6383  -15.1894   21.5580 C   0  0  0  0  0  0  0  0  0  0  0  0
    8.0540  -14.1721   20.6027 C   0  0  0  0  0  0  0  0  0  0  0  0
    8.5289  -14.3565   19.1979 C   0  0  0  0  0  0  0  0  0  0  0  0
    7.8724  -13.3571   18.2996 C   0  0  0  0  0  0  0  0  0  0  0  0
    8.1510  -13.5595   16.8460 N   0  0  0  0  0  0  0  0  0  0  0  0
    7.4477  -12.4828   16.1295 C   0  0  0  0  0  0  0  0  0  0  0  0
    7.9408  -14.9917   22.8755 O   0  0  0  0  0  0  0  0  0  0  0  0
    6.8981  -14.2971   22.9623 C   0  0  0  0  0  0  0  0  0  0  0  0
    7.3011  -11.0132   26.5194 S   0  0  0  0  0  0  0  0  0  0  0  0
    6.1548  -12.3108   26.9186 C   0  0  0  0  0  0  0  0  0  0  0  0
    6.7813  -13.9646   26.9762 C   0  0  0  0  0  0  0  0  0  0  0  0
    7.0311  -14.5296   25.6186 C   0  0  1  0  0  0  0  0  0  0  0  0
    8.4603  -14.8217   25.3008 N   0  0  0  0  0  0  0  0  0  0  0  0
    8.4534  -15.5909   24.0460 C   0  0  0  0  0  0  0  0  0  0  0  0
    9.1098  -15.6371   26.3449 O   0  0  0  0  0  0  0  0  0  0  0  0
    9.6747  -16.8805   25.9848 O   0  0  0  0  0  0  0  0  0  0  0  0
  2  3  2  0
  2  1  1  0
  4  2  1  0
  5  4  1  0
  6  7  1  0
  6  5  1  0
  7  8  1  0
  8 10  1  0
  8  9  1  6
 10 12  1  0
 11 10  2  0
 12 13  1  0
 13 19  1  0
 13 14  1  6
 15 14  1  0
 16 17  1  0
 16 15  1  0
 18 17  1  0
 19 20  2  0
 19 26  1  0
 22 21  1  0
 23 22  1  0
 24 23  1  0
 25 24  1  6
 25 27  1  0
 26 25  1  0
 27 28  1  0
 29 27  2  0
M  END
$$$$
