GAY.pdb
     RDKit          3D

 22 22  0  0  1  0  0  0  0  0999 V2000
    8.2973  -12.5335   18.0249 N   0  0  0  0  0  0  0  0  0  0  0  0
    8.4394  -13.9462   18.2646 C   0  0  0  0  0  0  0  0  0  0  0  0
    8.0877  -14.2743   19.6569 C   0  0  0  0  0  0  0  0  0  0  0  0
    8.3109  -13.4388   20.5704 O   0  0  0  0  0  0  0  0  0  0  0  0
    6.5153  -17.2330   21.4260 C   0  0  0  0  0  0  0  0  0  0  0  0
    7.1588  -15.8563   21.3151 C   0  0  2  0  0  0  0  0  0  0  0  0
    7.5005  -15.5244   19.9691 N   0  0  0  0  0  0  0  0  0  0  0  0
    8.3926  -15.9132   22.1896 C   0  0  0  0  0  0  0  0  0  0  0  0
    9.4880  -16.2320   21.6735 O   0  0  0  0  0  0  0  0  0  0  0  0
    5.0462  -11.6424   27.1262 O   0  0  0  0  0  0  0  0  0  0  0  0
    6.1810  -12.3068   26.6594 C   0  0  0  0  0  0  0  0  0  0  0  0
    7.0804  -12.9169   27.5131 C   0  0  0  0  0  0  0  0  0  0  0  0
    8.2077  -13.5744   27.0142 C   0  0  0  0  0  0  0  0  0  0  0  0
    8.4472  -13.6287   25.6583 C   0  0  0  0  0  0  0  0  0  0  0  0
    9.6396  -14.3263   25.1615 C   0  0  0  0  0  0  0  0  0  0  0  0
    9.4209  -15.6381   24.5056 C   0  0  2  0  0  0  0  0  0  0  0  0
    8.3279  -15.6159   23.5614 N   0  0  0  0  0  0  0  0  0  0  0  0
    9.4166  -16.8189   25.4018 C   0  0  0  0  0  0  0  0  0  0  0  0
    8.3042  -17.6847   25.4018 O   0  0  0  0  0  0  0  0  0  0  0  0
    7.5298  -13.0098   24.8376 C   0  0  0  0  0  0  0  0  0  0  0  0
    6.4136  -12.3566   25.3005 C   0  0  0  0  0  0  0  0  0  0  0  0
   10.3592  -17.0977   26.1750 O   0  0  0  0  0  0  0  0  0  0  0  0
  2  1  1  0
  3  4  2  0
  3  2  1  0
  6  5  1  6
  6  8  1  0
  6  7  1  0
  7  3  1  0
  8  9  2  0
 10 11  1  0
 11 21  2  0
 12 11  1  0
 12 13  2  0
 13 14  1  0
 14 20  2  0
 14 15  1  0
 16 15  1  1
 17 16  1  0
 17  8  1  0
 18 16  1  0
 19 18  1  0
 21 20  1  0
 22 18  2  0
M  END
$$$$
