GAY.pdb
     RDKit          3D

 22 22  0  0  1  0  0  0  0  0999 V2000
    5.1998  -19.7772   23.2423 N   0  0  0  0  0  0  0  0  0  0  0  0
    4.8160  -18.4015   23.0591 C   0  0  0  0  0  0  0  0  0  0  0  0
    5.9904  -17.5739   22.7340 C   0  0  0  0  0  0  0  0  0  0  0  0
    7.1408  -17.9710   23.0518 O   0  0  0  0  0  0  0  0  0  0  0  0
    6.5933  -14.3663   20.8220 C   0  0  0  0  0  0  0  0  0  0  0  0
    6.9593  -15.5296   21.7355 C   0  0  2  0  0  0  0  0  0  0  0  0
    5.8282  -16.3357   22.0665 N   0  0  0  0  0  0  0  0  0  0  0  0
    7.5578  -14.8999   22.9746 C   0  0  0  0  0  0  0  0  0  0  0  0
    6.9126  -14.0108   23.5755 O   0  0  0  0  0  0  0  0  0  0  0  0
   10.8269  -16.1768   30.7776 O   0  0  0  0  0  0  0  0  0  0  0  0
   10.2854  -15.8053   29.5464 C   0  0  0  0  0  0  0  0  0  0  0  0
    9.7207  -16.7248   28.6828 C   0  0  0  0  0  0  0  0  0  0  0  0
    9.1867  -16.3208   27.4565 C   0  0  0  0  0  0  0  0  0  0  0  0
    9.2115  -14.9952   27.0814 C   0  0  0  0  0  0  0  0  0  0  0  0
    8.6432  -14.5985   25.7873 C   0  0  0  0  0  0  0  0  0  0  0  0
    9.5166  -14.7530   24.5989 C   0  0  2  0  0  0  0  0  0  0  0  0
    8.8169  -15.2950   23.4573 N   0  0  0  0  0  0  0  0  0  0  0  0
   10.8401  -15.3745   24.8429 C   0  0  0  0  0  0  0  0  0  0  0  0
   11.1234  -16.6404   24.2913 O   0  0  0  0  0  0  0  0  0  0  0  0
    9.7819  -14.1069   27.9669 C   0  0  0  0  0  0  0  0  0  0  0  0
   10.3142  -14.4760   29.1782 C   0  0  0  0  0  0  0  0  0  0  0  0
   11.7381  -14.8328   25.5242 O   0  0  0  0  0  0  0  0  0  0  0  0
  2  1  1  0
  3  4  2  0
  3  2  1  0
  6  5  1  6
  6  8  1  0
  6  7  1  0
  7  3  1  0
  8  9  2  0
 10 11  1  0
 11 21  2  0
 12 11  1  0
 12 13  2  0
 13 14  1  0
 14 20  2  0
 14 15  1  0
 16 15  1  1
 17 16  1  0
 17  8  1  0
 18 16  1  0
 19 18  1  0
 21 20  1  0
 22 18  2  0
M  END
$$$$
