GAY.pdb
     RDKit          3D

 22 22  0  0  1  0  0  0  0  0999 V2000
    6.1363  -19.2666   20.2907 N   0  0  0  0  0  0  0  0  0  0  0  0
    5.9999  -18.2003   21.2487 C   0  0  0  0  0  0  0  0  0  0  0  0
    7.0809  -17.2133   21.0840 C   0  0  0  0  0  0  0  0  0  0  0  0
    8.2434  -17.6023   20.8018 O   0  0  0  0  0  0  0  0  0  0  0  0
    7.3217  -13.4398   21.0500 C   0  0  0  0  0  0  0  0  0  0  0  0
    7.8573  -14.8655   21.0972 C   0  0  2  0  0  0  0  0  0  0  0  0
    6.8158  -15.8314   21.2423 N   0  0  0  0  0  0  0  0  0  0  0  0
    8.8023  -14.9053   22.2785 C   0  0  0  0  0  0  0  0  0  0  0  0
    9.8609  -14.2382   22.2316 O   0  0  0  0  0  0  0  0  0  0  0  0
    5.6927  -10.9966   26.8730 O   0  0  0  0  0  0  0  0  0  0  0  0
    6.4144  -12.1649   26.6250 C   0  0  0  0  0  0  0  0  0  0  0  0
    7.7948  -12.2034   26.6805 C   0  0  0  0  0  0  0  0  0  0  0  0
    8.4884  -13.3894   26.4269 C   0  0  0  0  0  0  0  0  0  0  0  0
    7.8101  -14.5477   26.1156 C   0  0  0  0  0  0  0  0  0  0  0  0
    8.5642  -15.7797   25.8537 C   0  0  0  0  0  0  0  0  0  0  0  0
    9.3403  -15.8320   24.5912 C   0  0  2  0  0  0  0  0  0  0  0  0
    8.5118  -15.6736   23.4185 N   0  0  0  0  0  0  0  0  0  0  0  0
   10.3304  -16.9300   24.4834 C   0  0  0  0  0  0  0  0  0  0  0  0
   11.2963  -17.0939   25.4969 O   0  0  0  0  0  0  0  0  0  0  0  0
    6.4352  -14.4721   26.0693 C   0  0  0  0  0  0  0  0  0  0  0  0
    5.7278  -13.3203   26.3140 C   0  0  0  0  0  0  0  0  0  0  0  0
   10.3618  -17.7350   23.5268 O   0  0  0  0  0  0  0  0  0  0  0  0
  2  1  1  0
  3  4  2  0
  3  2  1  0
  6  5  1  1
  6  8  1  0
  6  7  1  0
  7  3  1  0
  8  9  2  0
 10 11  1  0
 11 21  2  0
 12 11  1  0
 12 13  2  0
 13 14  1  0
 14 20  2  0
 14 15  1  0
 16 15  1  1
 17 16  1  0
 17  8  1  0
 18 16  1  0
 19 18  1  0
 21 20  1  0
 22 18  2  0
M  END
$$$$
