GAY.pdb
     RDKit          3D

 22 22  0  0  1  0  0  0  0  0999 V2000
    5.1685  -19.2446   23.8262 N   0  0  0  0  0  0  0  0  0  0  0  0
    5.1547  -17.8047   23.8173 C   0  0  0  0  0  0  0  0  0  0  0  0
    6.2337  -17.2806   22.9625 C   0  0  0  0  0  0  0  0  0  0  0  0
    7.1568  -18.0462   22.5829 O   0  0  0  0  0  0  0  0  0  0  0  0
    7.0164  -14.0507   21.1877 C   0  0  0  0  0  0  0  0  0  0  0  0
    7.3608  -15.3549   21.8965 C   0  0  2  0  0  0  0  0  0  0  0  0
    6.2348  -15.9207   22.5679 N   0  0  0  0  0  0  0  0  0  0  0  0
    8.4584  -15.0058   22.8781 C   0  0  0  0  0  0  0  0  0  0  0  0
    8.1778  -14.3083   23.8793 O   0  0  0  0  0  0  0  0  0  0  0  0
    9.5176  -13.8976   29.7887 O   0  0  0  0  0  0  0  0  0  0  0  0
    9.6802  -14.5350   28.5581 C   0  0  0  0  0  0  0  0  0  0  0  0
    9.1866  -14.0025   27.3822 C   0  0  0  0  0  0  0  0  0  0  0  0
    9.3660  -14.6655   26.1655 C   0  0  0  0  0  0  0  0  0  0  0  0
   10.0398  -15.8663   26.1119 C   0  0  0  0  0  0  0  0  0  0  0  0
   10.2138  -16.5413   24.8199 C   0  0  0  0  0  0  0  0  0  0  0  0
   10.7585  -15.7252   23.7081 C   0  0  2  0  0  0  0  0  0  0  0  0
    9.7775  -15.4493   22.6842 N   0  0  0  0  0  0  0  0  0  0  0  0
   12.0770  -16.1479   23.1786 C   0  0  0  0  0  0  0  0  0  0  0  0
   12.1515  -17.2533   22.3071 O   0  0  0  0  0  0  0  0  0  0  0  0
   10.5178  -16.3670   27.3032 C   0  0  0  0  0  0  0  0  0  0  0  0
   10.3560  -15.7369   28.5130 C   0  0  0  0  0  0  0  0  0  0  0  0
   13.1492  -15.5718   23.4658 O   0  0  0  0  0  0  0  0  0  0  0  0
  2  1  1  0
  3  4  2  0
  3  2  1  0
  6  5  1  1
  6  8  1  0
  6  7  1  0
  7  3  1  0
  8  9  2  0
 10 11  1  0
 11 21  2  0
 12 11  1  0
 12 13  2  0
 13 14  1  0
 14 20  2  0
 14 15  1  0
 16 15  1  1
 17 16  1  0
 17  8  1  0
 18 16  1  0
 19 18  1  0
 21 20  1  0
 22 18  2  0
M  END
$$$$
