GAY.pdb
     RDKit          3D

 22 22  0  0  1  0  0  0  0  0999 V2000
    7.6558  -19.0277   19.6401 N   0  0  0  0  0  0  0  0  0  0  0  0
    6.9129  -17.9487   20.2379 C   0  0  0  0  0  0  0  0  0  0  0  0
    7.7543  -16.7463   20.3636 C   0  0  0  0  0  0  0  0  0  0  0  0
    8.9760  -16.8062   20.0700 O   0  0  0  0  0  0  0  0  0  0  0  0
    7.1637  -13.0794   20.6575 C   0  0  0  0  0  0  0  0  0  0  0  0
    7.9858  -14.3412   20.8896 C   0  0  2  0  0  0  0  0  0  0  0  0
    7.1933  -15.5264   20.8130 N   0  0  0  0  0  0  0  0  0  0  0  0
    8.5927  -14.1826   22.2669 C   0  0  0  0  0  0  0  0  0  0  0  0
    8.4410  -13.0991   22.8757 O   0  0  0  0  0  0  0  0  0  0  0  0
    6.4794  -10.6102   27.2587 O   0  0  0  0  0  0  0  0  0  0  0  0
    6.8576  -11.8198   26.6747 C   0  0  0  0  0  0  0  0  0  0  0  0
    8.1485  -12.3061   26.7584 C   0  0  0  0  0  0  0  0  0  0  0  0
    8.4956  -13.5212   26.1625 C   0  0  0  0  0  0  0  0  0  0  0  0
    7.5569  -14.2619   25.4777 C   0  0  0  0  0  0  0  0  0  0  0  0
    7.9490  -15.5352   24.8613 C   0  0  0  0  0  0  0  0  0  0  0  0
    9.3045  -15.5982   24.2635 C   0  0  2  0  0  0  0  0  0  0  0  0
    9.3181  -15.2250   22.8680 N   0  0  0  0  0  0  0  0  0  0  0  0
   10.0914  -16.8172   24.5671 C   0  0  0  0  0  0  0  0  0  0  0  0
   10.5737  -17.6122   23.5076 O   0  0  0  0  0  0  0  0  0  0  0  0
    6.2806  -13.7465   25.4147 C   0  0  0  0  0  0  0  0  0  0  0  0
    5.9117  -12.5553   25.9908 C   0  0  0  0  0  0  0  0  0  0  0  0
   10.3571  -17.1911   25.7305 O   0  0  0  0  0  0  0  0  0  0  0  0
  2  1  1  0
  3  4  2  0
  3  2  1  0
  6  5  1  1
  6  8  1  0
  6  7  1  0
  7  3  1  0
  8  9  2  0
 10 11  1  0
 11 21  2  0
 12 11  1  0
 12 13  2  0
 13 14  1  0
 14 20  2  0
 14 15  1  0
 16 15  1  6
 17 16  1  0
 17  8  1  0
 18 16  1  0
 19 18  1  0
 21 20  1  0
 22 18  2  0
M  END
$$$$
