GAY.pdb
     RDKit          3D

 22 22  0  0  1  0  0  0  0  0999 V2000
    7.6073  -12.1377   19.0118 N   0  0  0  0  0  0  0  0  0  0  0  0
    8.6906  -13.0709   19.1822 C   0  0  0  0  0  0  0  0  0  0  0  0
    8.3517  -14.0792   20.2012 C   0  0  0  0  0  0  0  0  0  0  0  0
    7.4068  -13.8629   21.0029 O   0  0  0  0  0  0  0  0  0  0  0  0
    9.2529  -17.6763   20.8098 C   0  0  0  0  0  0  0  0  0  0  0  0
    8.7153  -16.3077   21.2093 C   0  0  2  0  0  0  0  0  0  0  0  0
    9.0847  -15.2880   20.2806 N   0  0  0  0  0  0  0  0  0  0  0  0
    9.2935  -16.0286   22.5796 C   0  0  0  0  0  0  0  0  0  0  0  0
   10.3928  -15.4352   22.6650 O   0  0  0  0  0  0  0  0  0  0  0  0
    6.0587  -10.6913   26.3420 O   0  0  0  0  0  0  0  0  0  0  0  0
    6.5240  -12.0043   26.2599 C   0  0  0  0  0  0  0  0  0  0  0  0
    6.1406  -12.8591   25.2439 C   0  0  0  0  0  0  0  0  0  0  0  0
    6.6244  -14.1687   25.1897 C   0  0  0  0  0  0  0  0  0  0  0  0
    7.4954  -14.6367   26.1494 C   0  0  0  0  0  0  0  0  0  0  0  0
    7.9881  -16.0172   26.0680 C   0  0  0  0  0  0  0  0  0  0  0  0
    9.0876  -16.2782   25.1079 C   0  0  2  0  0  0  0  0  0  0  0  0
    8.6205  -16.4222   23.7485 N   0  0  0  0  0  0  0  0  0  0  0  0
   10.0748  -17.3060   25.5159 C   0  0  0  0  0  0  0  0  0  0  0  0
   11.0285  -16.9960   26.5065 O   0  0  0  0  0  0  0  0  0  0  0  0
    7.8558  -13.7571   27.1468 C   0  0  0  0  0  0  0  0  0  0  0  0
    7.3958  -12.4651   27.2247 C   0  0  0  0  0  0  0  0  0  0  0  0
   10.1141  -18.4546   25.0227 O   0  0  0  0  0  0  0  0  0  0  0  0
  2  1  1  0
  3  4  2  0
  3  2  1  0
  6  5  1  6
  6  8  1  0
  6  7  1  0
  7  3  1  0
  8  9  2  0
 10 11  1  0
 11 21  2  0
 12 11  1  0
 12 13  2  0
 13 14  1  0
 14 20  2  0
 14 15  1  0
 16 15  1  1
 17 16  1  0
 17  8  1  0
 18 16  1  0
 19 18  1  0
 21 20  1  0
 22 18  2  0
M  END
$$$$
