GAY.pdb
     RDKit          3D

 22 22  0  0  1  0  0  0  0  0999 V2000
    6.1947  -18.8058   20.2419 N   0  0  0  0  0  0  0  0  0  0  0  0
    5.8058  -17.4801   20.6476 C   0  0  0  0  0  0  0  0  0  0  0  0
    6.9790  -16.5916   20.7112 C   0  0  0  0  0  0  0  0  0  0  0  0
    8.1358  -17.0789   20.6300 O   0  0  0  0  0  0  0  0  0  0  0  0
    7.5481  -12.9058   20.3849 C   0  0  0  0  0  0  0  0  0  0  0  0
    7.9310  -14.3124   20.8283 C   0  0  2  0  0  0  0  0  0  0  0  0
    6.8085  -15.1942   20.8632 N   0  0  0  0  0  0  0  0  0  0  0  0
    8.5384  -14.1528   22.2051 C   0  0  0  0  0  0  0  0  0  0  0  0
    8.3024  -13.1091   22.8553 O   0  0  0  0  0  0  0  0  0  0  0  0
    6.1952  -10.8933   27.3194 O   0  0  0  0  0  0  0  0  0  0  0  0
    6.6496  -12.0569   26.6976 C   0  0  0  0  0  0  0  0  0  0  0  0
    5.7847  -12.9834   26.1469 C   0  0  0  0  0  0  0  0  0  0  0  0
    6.2714  -14.1392   25.5309 C   0  0  0  0  0  0  0  0  0  0  0  0
    7.6262  -14.3803   25.4592 C   0  0  0  0  0  0  0  0  0  0  0  0
    8.1101  -15.6028   24.8062 C   0  0  0  0  0  0  0  0  0  0  0  0
    9.4389  -15.5294   24.1522 C   0  0  2  0  0  0  0  0  0  0  0  0
    9.3570  -15.1507   22.7606 N   0  0  0  0  0  0  0  0  0  0  0  0
   10.3538  -16.6663   24.4126 C   0  0  0  0  0  0  0  0  0  0  0  0
   11.0723  -16.7139   25.6244 O   0  0  0  0  0  0  0  0  0  0  0  0
    8.4584  -13.4354   26.0187 C   0  0  0  0  0  0  0  0  0  0  0  0
    8.0076  -12.2909   26.6301 C   0  0  0  0  0  0  0  0  0  0  0  0
   10.5312  -17.6041   23.6044 O   0  0  0  0  0  0  0  0  0  0  0  0
  2  1  1  0
  3  4  2  0
  3  2  1  0
  6  5  1  1
  6  8  1  0
  6  7  1  0
  7  3  1  0
  8  9  2  0
 10 11  1  0
 11 21  2  0
 12 11  1  0
 12 13  2  0
 13 14  1  0
 14 20  2  0
 14 15  1  0
 16 15  1  6
 17 16  1  0
 17  8  1  0
 18 16  1  0
 19 18  1  0
 21 20  1  0
 22 18  2  0
M  END
$$$$
