GAY.pdb
     RDKit          3D

 22 22  0  0  1  0  0  0  0  0999 V2000
    7.0186  -18.7977   19.5613 N   0  0  0  0  0  0  0  0  0  0  0  0
    6.6528  -17.8599   20.5909 C   0  0  0  0  0  0  0  0  0  0  0  0
    7.6107  -16.7419   20.6388 C   0  0  0  0  0  0  0  0  0  0  0  0
    8.8406  -16.9677   20.5030 O   0  0  0  0  0  0  0  0  0  0  0  0
    7.4597  -12.9874   20.7148 C   0  0  0  0  0  0  0  0  0  0  0  0
    8.0746  -14.3450   21.0321 C   0  0  2  0  0  0  0  0  0  0  0  0
    7.1519  -15.4170   20.8368 N   0  0  0  0  0  0  0  0  0  0  0  0
    8.5135  -14.2639   22.4781 C   0  0  0  0  0  0  0  0  0  0  0  0
    8.2200  -13.2456   23.1451 O   0  0  0  0  0  0  0  0  0  0  0  0
    6.3164  -10.6522   27.3823 O   0  0  0  0  0  0  0  0  0  0  0  0
    6.7554  -11.8654   26.8508 C   0  0  0  0  0  0  0  0  0  0  0  0
    7.9610  -12.4351   27.2139 C   0  0  0  0  0  0  0  0  0  0  0  0
    8.3723  -13.6516   26.6633 C   0  0  0  0  0  0  0  0  0  0  0  0
    7.5837  -14.3102   25.7452 C   0  0  0  0  0  0  0  0  0  0  0  0
    8.0404  -15.5870   25.1827 C   0  0  0  0  0  0  0  0  0  0  0  0
    9.3528  -15.5811   24.4924 C   0  0  2  0  0  0  0  0  0  0  0  0
    9.2398  -15.3060   23.0788 N   0  0  0  0  0  0  0  0  0  0  0  0
   10.2601  -16.7083   24.8143 C   0  0  0  0  0  0  0  0  0  0  0  0
   10.8087  -17.4768   23.7677 O   0  0  0  0  0  0  0  0  0  0  0  0
    6.3890  -13.7130   25.4069 C   0  0  0  0  0  0  0  0  0  0  0  0
    5.9599  -12.5185   25.9321 C   0  0  0  0  0  0  0  0  0  0  0  0
   10.5733  -17.0257   25.9828 O   0  0  0  0  0  0  0  0  0  0  0  0
  2  1  1  0
  3  4  2  0
  3  2  1  0
  6  5  1  1
  6  8  1  0
  6  7  1  0
  7  3  1  0
  8  9  2  0
 10 11  1  0
 11 21  2  0
 12 11  1  0
 12 13  2  0
 13 14  1  0
 14 20  2  0
 14 15  1  0
 16 15  1  6
 17 16  1  0
 17  8  1  0
 18 16  1  0
 19 18  1  0
 21 20  1  0
 22 18  2  0
M  END
$$$$
