GAY.pdb
     RDKit          3D

 22 22  0  0  1  0  0  0  0  0999 V2000
    6.8207  -18.6782   18.3706 N   0  0  0  0  0  0  0  0  0  0  0  0
    6.4850  -17.8018   19.4626 C   0  0  0  0  0  0  0  0  0  0  0  0
    7.4633  -16.7056   19.5679 C   0  0  0  0  0  0  0  0  0  0  0  0
    8.6858  -16.9708   19.7004 O   0  0  0  0  0  0  0  0  0  0  0  0
    7.3042  -12.9210   19.4784 C   0  0  0  0  0  0  0  0  0  0  0  0
    7.9770  -14.2869   19.5361 C   0  0  2  0  0  0  0  0  0  0  0  0
    7.0325  -15.3576   19.5206 N   0  0  0  0  0  0  0  0  0  0  0  0
    8.7796  -14.2902   20.8191 C   0  0  0  0  0  0  0  0  0  0  0  0
    9.7663  -13.5260   20.9195 O   0  0  0  0  0  0  0  0  0  0  0  0
    6.9644  -11.5110   28.7148 O   0  0  0  0  0  0  0  0  0  0  0  0
    7.0829  -12.0290   27.4245 C   0  0  0  0  0  0  0  0  0  0  0  0
    8.1129  -12.8764   27.0630 C   0  0  0  0  0  0  0  0  0  0  0  0
    8.2036  -13.3784   25.7623 C   0  0  0  0  0  0  0  0  0  0  0  0
    7.2668  -13.0387   24.8107 C   0  0  0  0  0  0  0  0  0  0  0  0
    7.3864  -13.5806   23.4516 C   0  0  0  0  0  0  0  0  0  0  0  0
    8.2797  -14.7510   23.2756 C   0  0  2  0  0  0  0  0  0  0  0  0
    8.4367  -15.1315   21.8910 N   0  0  0  0  0  0  0  0  0  0  0  0
    8.0397  -15.8935   24.1891 C   0  0  0  0  0  0  0  0  0  0  0  0
    8.9740  -16.1756   25.2062 O   0  0  0  0  0  0  0  0  0  0  0  0
    6.2543  -12.1921   25.2065 C   0  0  0  0  0  0  0  0  0  0  0  0
    6.1407  -11.6840   26.4776 C   0  0  0  0  0  0  0  0  0  0  0  0
    7.0382  -16.6383   24.1088 O   0  0  0  0  0  0  0  0  0  0  0  0
  2  1  1  0
  3  4  2  0
  3  2  1  0
  6  5  1  1
  6  8  1  0
  6  7  1  0
  7  3  1  0
  8  9  2  0
 10 11  1  0
 11 21  2  0
 12 11  1  0
 12 13  2  0
 13 14  1  0
 14 20  2  0
 14 15  1  0
 16 15  1  6
 17 16  1  0
 17  8  1  0
 18 16  1  0
 19 18  1  0
 21 20  1  0
 22 18  2  0
M  END
$$$$
