GAY.pdb
     RDKit          3D

 22 22  0  0  1  0  0  0  0  0999 V2000
    6.2093  -19.9349   21.3714 N   0  0  0  0  0  0  0  0  0  0  0  0
    5.8007  -18.6375   21.8437 C   0  0  0  0  0  0  0  0  0  0  0  0
    6.7687  -17.6066   21.4314 C   0  0  0  0  0  0  0  0  0  0  0  0
    7.8395  -17.9467   20.8656 O   0  0  0  0  0  0  0  0  0  0  0  0
    6.8378  -13.8461   21.2466 C   0  0  0  0  0  0  0  0  0  0  0  0
    7.4596  -15.2339   21.3425 C   0  0  2  0  0  0  0  0  0  0  0  0
    6.4979  -16.2373   21.6696 N   0  0  0  0  0  0  0  0  0  0  0  0
    8.5213  -15.1298   22.4157 C   0  0  0  0  0  0  0  0  0  0  0  0
    9.4827  -14.3461   22.2442 O   0  0  0  0  0  0  0  0  0  0  0  0
    5.6374  -11.0862   26.8241 O   0  0  0  0  0  0  0  0  0  0  0  0
    6.4170  -12.2263   26.6250 C   0  0  0  0  0  0  0  0  0  0  0  0
    7.7982  -12.1829   26.6245 C   0  0  0  0  0  0  0  0  0  0  0  0
    8.5507  -13.3426   26.4222 C   0  0  0  0  0  0  0  0  0  0  0  0
    7.9307  -14.5562   26.2184 C   0  0  0  0  0  0  0  0  0  0  0  0
    8.7458  -15.7590   26.0084 C   0  0  0  0  0  0  0  0  0  0  0  0
    9.3935  -15.9035   24.6824 C   0  0  2  0  0  0  0  0  0  0  0  0
    8.4451  -15.8934   23.5927 N   0  0  0  0  0  0  0  0  0  0  0  0
   10.4210  -16.9665   24.5746 C   0  0  0  0  0  0  0  0  0  0  0  0
   11.4956  -16.9864   25.4867 O   0  0  0  0  0  0  0  0  0  0  0  0
    6.5529  -14.5618   26.2253 C   0  0  0  0  0  0  0  0  0  0  0  0
    5.7885  -13.4375   26.4217 C   0  0  0  0  0  0  0  0  0  0  0  0
   10.3919  -17.8642   23.7043 O   0  0  0  0  0  0  0  0  0  0  0  0
  2  1  1  0
  3  4  2  0
  3  2  1  0
  6  5  1  1
  6  8  1  0
  6  7  1  0
  7  3  1  0
  8  9  2  0
 10 11  1  0
 11 21  2  0
 12 11  1  0
 12 13  2  0
 13 14  1  0
 14 20  2  0
 14 15  1  0
 16 15  1  1
 17 16  1  0
 17  8  1  0
 18 16  1  0
 19 18  1  0
 21 20  1  0
 22 18  2  0
M  END
$$$$
