GAY.pdb
     RDKit          3D

 22 22  0  0  1  0  0  0  0  0999 V2000
    6.7265  -19.0131   20.1058 N   0  0  0  0  0  0  0  0  0  0  0  0
    6.2578  -17.7973   20.7186 C   0  0  0  0  0  0  0  0  0  0  0  0
    7.2850  -16.7448   20.6357 C   0  0  0  0  0  0  0  0  0  0  0  0
    8.4197  -17.0160   20.1653 O   0  0  0  0  0  0  0  0  0  0  0  0
    7.3330  -13.0412   20.6524 C   0  0  0  0  0  0  0  0  0  0  0  0
    7.9690  -14.3909   20.9615 C   0  0  2  0  0  0  0  0  0  0  0  0
    6.9994  -15.4320   21.0828 N   0  0  0  0  0  0  0  0  0  0  0  0
    8.7219  -14.1971   22.2598 C   0  0  0  0  0  0  0  0  0  0  0  0
    8.7233  -13.0662   22.7975 O   0  0  0  0  0  0  0  0  0  0  0  0
    6.2796  -10.8713   27.3391 O   0  0  0  0  0  0  0  0  0  0  0  0
    6.7111  -12.0441   26.7182 C   0  0  0  0  0  0  0  0  0  0  0  0
    8.0130  -12.4960   26.8219 C   0  0  0  0  0  0  0  0  0  0  0  0
    8.4140  -13.6748   26.1880 C   0  0  0  0  0  0  0  0  0  0  0  0
    7.5188  -14.4130   25.4449 C   0  0  0  0  0  0  0  0  0  0  0  0
    7.9672  -15.6477   24.7895 C   0  0  0  0  0  0  0  0  0  0  0  0
    9.3499  -15.6552   24.2538 C   0  0  2  0  0  0  0  0  0  0  0  0
    9.4142  -15.2588   22.8662 N   0  0  0  0  0  0  0  0  0  0  0  0
   10.1635  -16.8520   24.5750 C   0  0  0  0  0  0  0  0  0  0  0  0
   10.1697  -17.9449   23.6848 O   0  0  0  0  0  0  0  0  0  0  0  0
    6.2300  -13.9325   25.3635 C   0  0  0  0  0  0  0  0  0  0  0  0
    5.8086  -12.7775   25.9760 C   0  0  0  0  0  0  0  0  0  0  0  0
   10.8577  -16.9529   25.6104 O   0  0  0  0  0  0  0  0  0  0  0  0
  2  1  1  0
  3  4  2  0
  3  2  1  0
  6  5  1  1
  6  8  1  0
  6  7  1  0
  7  3  1  0
  8  9  2  0
 10 11  1  0
 11 21  2  0
 12 11  1  0
 12 13  2  0
 13 14  1  0
 14 20  2  0
 14 15  1  0
 16 15  1  6
 17 16  1  0
 17  8  1  0
 18 16  1  0
 19 18  1  0
 21 20  1  0
 22 18  2  0
M  END
$$$$
