FTQ.pdb
     RDKit          3D

 28 28  0  0  1  0  0  0  0  0999 V2000
    6.5133  -16.1732   25.9795 N   0  0  0  0  0  0  0  0  0  0  0  0
    6.9802  -15.3725   24.8572 C   0  0  1  0  0  0  0  0  0  0  0  0
    7.9399  -14.3284   25.4195 C   0  0  0  0  0  0  0  0  0  0  0  0
    7.2686  -13.2471   26.1431 C   0  0  0  0  0  0  0  0  0  0  0  0
    6.3652  -12.4452   25.4855 C   0  0  0  0  0  0  0  0  0  0  0  0
    5.6997  -11.4155   26.0989 C   0  0  0  0  0  0  0  0  0  0  0  0
    5.9342  -11.1579   27.4345 C   0  0  0  0  0  0  0  0  0  0  0  0
    6.8400  -11.9664   28.0825 C   0  0  0  0  0  0  0  0  0  0  0  0
    7.5142  -13.0043   27.4733 C   0  0  0  0  0  0  0  0  0  0  0  0
    7.6813  -16.1814   23.8520 C   0  0  0  0  0  0  0  0  0  0  0  0
    8.2130  -17.3029   24.1073 O   0  0  0  0  0  0  0  0  0  0  0  0
    6.9582  -15.5899   19.9048 C   0  0  0  0  0  0  0  0  0  0  0  0
    8.4325  -15.7361   20.1770 C   0  0  1  0  0  0  0  0  0  0  0  0
    8.9544  -14.4326   20.0595 O   0  0  0  0  0  0  0  0  0  0  0  0
    8.7345  -16.2958   21.5522 C   0  0  2  0  0  0  0  0  0  0  0  0
    7.7867  -15.7147   22.5252 N   0  0  0  0  0  0  0  0  0  0  0  0
   10.1097  -16.1173   22.0129 C   0  0  0  0  0  0  0  0  0  0  0  0
   10.3606  -15.1126   22.7795 O   0  0  0  0  0  0  0  0  0  0  0  0
    9.9236  -18.6879   26.2107 N   0  0  0  0  0  0  0  0  0  0  0  0
   11.3228  -18.6546   26.1308 C   0  0  0  0  0  0  0  0  0  0  0  0
   12.0010  -18.3613   27.1383 O   0  0  0  0  0  0  0  0  0  0  0  0
   12.0201  -18.9688   24.8424 C   0  0  0  0  0  0  0  0  0  0  0  0
   11.2395  -18.3817   23.6917 C   0  0  0  0  0  0  0  0  0  0  0  0
   12.0611  -17.5181   22.7826 C   0  0  2  0  0  0  0  0  0  0  0  0
   11.2326  -16.9225   21.7243 N   0  0  0  0  0  0  0  0  0  0  0  0
   13.2457  -18.1825   22.2051 C   0  0  0  0  0  0  0  0  0  0  0  0
   13.2190  -19.1146   21.1838 O   0  0  0  0  0  0  0  0  0  0  0  0
   14.3765  -17.8897   22.6680 O   0  0  0  0  0  0  0  0  0  0  0  0
  2  1  1  1
  2 10  1  0
  3  2  1  0
  4  3  1  0
  4  9  2  0
  5  4  1  0
  6  5  2  0
  6  7  1  0
  7  8  2  0
  8  9  1  0
 10 11  2  0
 13 12  1  1
 13 15  1  0
 14 13  1  0
 15 16  1  1
 16 10  1  0
 17 18  2  0
 17 15  1  0
 19 20  1  0
 20 22  1  0
 20 21  2  0
 22 23  1  0
 24 23  1  6
 24 25  1  0
 24 26  1  0
 25 17  1  0
 26 27  1  0
 28 26  2  0
M  END
$$$$
