FTQ.pdb
     RDKit          3D

 28 28  0  0  1  0  0  0  0  0999 V2000
    5.8912  -16.6018   25.5804 N   0  0  0  0  0  0  0  0  0  0  0  0
    6.8326  -15.7752   24.8392 C   0  0  1  0  0  0  0  0  0  0  0  0
    7.5209  -14.8628   25.8497 C   0  0  0  0  0  0  0  0  0  0  0  0
    6.8625  -13.5649   26.0087 C   0  0  0  0  0  0  0  0  0  0  0  0
    7.0938  -12.8175   27.1399 C   0  0  0  0  0  0  0  0  0  0  0  0
    6.5128  -11.5946   27.3554 C   0  0  0  0  0  0  0  0  0  0  0  0
    5.6556  -11.0753   26.4064 C   0  0  0  0  0  0  0  0  0  0  0  0
    5.4315  -11.8316   25.2786 C   0  0  0  0  0  0  0  0  0  0  0  0
    6.0114  -13.0628   25.0535 C   0  0  0  0  0  0  0  0  0  0  0  0
    7.8468  -16.5772   24.1431 C   0  0  0  0  0  0  0  0  0  0  0  0
    8.1042  -17.7825   24.4370 O   0  0  0  0  0  0  0  0  0  0  0  0
    8.2003  -16.1784   20.3250 C   0  0  0  0  0  0  0  0  0  0  0  0
    9.5906  -16.3101   20.8896 C   0  0  1  0  0  0  0  0  0  0  0  0
   10.1503  -15.0216   20.7806 O   0  0  0  0  0  0  0  0  0  0  0  0
    9.6091  -16.7652   22.3346 C   0  0  2  0  0  0  0  0  0  0  0  0
    8.5906  -16.0064   23.0894 N   0  0  0  0  0  0  0  0  0  0  0  0
   10.9061  -16.6785   23.0021 C   0  0  0  0  0  0  0  0  0  0  0  0
   11.3662  -15.5052   23.2703 O   0  0  0  0  0  0  0  0  0  0  0  0
   12.1103  -20.6094   26.5262 N   0  0  0  0  0  0  0  0  0  0  0  0
   11.6938  -19.3668   27.0238 C   0  0  0  0  0  0  0  0  0  0  0  0
   10.8858  -19.3120   27.9753 O   0  0  0  0  0  0  0  0  0  0  0  0
   12.2095  -18.0942   26.4244 C   0  0  0  0  0  0  0  0  0  0  0  0
   13.1538  -18.4178   25.2924 C   0  0  0  0  0  0  0  0  0  0  0  0
   13.0154  -17.5058   24.1106 C   0  0  2  0  0  0  0  0  0  0  0  0
   11.7462  -17.7384   23.4063 N   0  0  0  0  0  0  0  0  0  0  0  0
   14.1495  -17.5430   23.1668 C   0  0  0  0  0  0  0  0  0  0  0  0
   14.0512  -17.7979   21.8111 O   0  0  0  0  0  0  0  0  0  0  0  0
   15.3036  -17.3291   23.6153 O   0  0  0  0  0  0  0  0  0  0  0  0
  2  1  1  1
  2 10  1  0
  3  2  1  0
  4  3  1  0
  4  9  2  0
  5  4  1  0
  6  5  2  0
  6  7  1  0
  7  8  2  0
  8  9  1  0
 10 11  2  0
 13 12  1  1
 13 15  1  0
 14 13  1  0
 15 16  1  1
 16 10  1  0
 17 18  2  0
 17 15  1  0
 19 20  1  0
 20 22  1  0
 20 21  2  0
 22 23  1  0
 24 23  1  1
 24 25  1  0
 24 26  1  0
 25 17  1  0
 26 27  1  0
 28 26  2  0
M  END
$$$$
