FTQ.pdb
     RDKit          3D

 28 28  0  0  1  0  0  0  0  0999 V2000
    7.1834  -16.4973   26.3379 N   0  0  0  0  0  0  0  0  0  0  0  0
    6.3390  -16.6225   25.1589 C   0  0  1  0  0  0  0  0  0  0  0  0
    5.3792  -15.4368   25.1665 C   0  0  0  0  0  0  0  0  0  0  0  0
    6.0086  -14.1779   25.5693 C   0  0  0  0  0  0  0  0  0  0  0  0
    5.9770  -13.7919   26.8890 C   0  0  0  0  0  0  0  0  0  0  0  0
    6.5453  -12.6277   27.3376 C   0  0  0  0  0  0  0  0  0  0  0  0
    7.1812  -11.7944   26.4396 C   0  0  0  0  0  0  0  0  0  0  0  0
    7.2067  -12.1905   25.1218 C   0  0  0  0  0  0  0  0  0  0  0  0
    6.6374  -13.3597   24.6616 C   0  0  0  0  0  0  0  0  0  0  0  0
    7.1179  -16.6055   23.9141 C   0  0  0  0  0  0  0  0  0  0  0  0
    6.5957  -16.7037   22.7639 O   0  0  0  0  0  0  0  0  0  0  0  0
    7.3460  -15.3717   21.6919 C   0  0  0  0  0  0  0  0  0  0  0  0
    8.8473  -15.3837   21.8141 C   0  0  1  0  0  0  0  0  0  0  0  0
    9.1817  -14.1069   22.3072 O   0  0  0  0  0  0  0  0  0  0  0  0
    9.3628  -16.4557   22.7524 C   0  0  2  0  0  0  0  0  0  0  0  0
    8.5213  -16.4753   23.9667 N   0  0  0  0  0  0  0  0  0  0  0  0
   10.7745  -16.3459   23.1137 C   0  0  0  0  0  0  0  0  0  0  0  0
   11.0838  -15.5771   24.1004 O   0  0  0  0  0  0  0  0  0  0  0  0
   14.4751  -20.3994   25.0455 N   0  0  0  0  0  0  0  0  0  0  0  0
   14.1164  -20.5473   23.6985 C   0  0  0  0  0  0  0  0  0  0  0  0
   14.1957  -21.6663   23.1483 O   0  0  0  0  0  0  0  0  0  0  0  0
   13.6356  -19.3712   22.9045 C   0  0  0  0  0  0  0  0  0  0  0  0
   13.6248  -18.1428   23.7812 C   0  0  0  0  0  0  0  0  0  0  0  0
   13.2374  -16.8879   23.0583 C   0  0  2  0  0  0  0  0  0  0  0  0
   11.8768  -16.9892   22.5108 N   0  0  0  0  0  0  0  0  0  0  0  0
   14.1884  -16.4588   22.0145 C   0  0  0  0  0  0  0  0  0  0  0  0
   15.5160  -16.1361   22.2287 O   0  0  0  0  0  0  0  0  0  0  0  0
   13.7742  -16.3738   20.8313 O   0  0  0  0  0  0  0  0  0  0  0  0
  2  1  1  1
  2 10  1  0
  3  2  1  0
  4  3  1  0
  4  9  2  0
  5  4  1  0
  6  5  2  0
  6  7  1  0
  7  8  2  0
  8  9  1  0
 10 11  2  0
 13 12  1  1
 13 15  1  0
 14 13  1  0
 15 16  1  1
 16 10  1  0
 17 18  2  0
 17 15  1  0
 19 20  1  0
 20 22  1  0
 20 21  2  0
 22 23  1  0
 24 23  1  6
 24 25  1  0
 24 26  1  0
 25 17  1  0
 26 27  1  0
 28 26  2  0
M  END
$$$$
