FTQ.pdb
     RDKit          3D

 28 28  0  0  1  0  0  0  0  0999 V2000
    5.7017  -16.3537   23.5959 N   0  0  0  0  0  0  0  0  0  0  0  0
    6.9799  -15.6802   23.7730 C   0  0  1  0  0  0  0  0  0  0  0  0
    7.0727  -15.2725   25.2401 C   0  0  0  0  0  0  0  0  0  0  0  0
    6.6635  -13.8891   25.4894 C   0  0  0  0  0  0  0  0  0  0  0  0
    7.2800  -12.8634   24.8117 C   0  0  0  0  0  0  0  0  0  0  0  0
    6.9484  -11.5458   24.9940 C   0  0  0  0  0  0  0  0  0  0  0  0
    5.9544  -11.2157   25.8931 C   0  0  0  0  0  0  0  0  0  0  0  0
    5.3443  -12.2499   26.5656 C   0  0  0  0  0  0  0  0  0  0  0  0
    5.6717  -13.5782   26.3887 C   0  0  0  0  0  0  0  0  0  0  0  0
    8.1158  -16.5492   23.4402 C   0  0  0  0  0  0  0  0  0  0  0  0
    7.9931  -17.6545   22.8328 O   0  0  0  0  0  0  0  0  0  0  0  0
    9.1507  -17.3983   21.2796 C   0  0  0  0  0  0  0  0  0  0  0  0
   10.4909  -16.8821   21.7338 C   0  0  1  0  0  0  0  0  0  0  0  0
   10.5895  -15.5906   21.1793 O   0  0  0  0  0  0  0  0  0  0  0  0
   10.6262  -16.8133   23.2412 C   0  0  2  0  0  0  0  0  0  0  0  0
    9.4234  -16.1635   23.8015 N   0  0  0  0  0  0  0  0  0  0  0  0
   11.8351  -16.1553   23.7322 C   0  0  0  0  0  0  0  0  0  0  0  0
   11.8515  -14.8671   23.7526 O   0  0  0  0  0  0  0  0  0  0  0  0
   11.6383  -14.4705   28.4832 N   0  0  0  0  0  0  0  0  0  0  0  0
   11.4013  -15.8253   28.2125 C   0  0  0  0  0  0  0  0  0  0  0  0
   11.3547  -16.6523   29.1480 O   0  0  0  0  0  0  0  0  0  0  0  0
   11.2015  -16.2975   26.8046 C   0  0  0  0  0  0  0  0  0  0  0  0
   12.2579  -17.3195   26.4621 C   0  0  0  0  0  0  0  0  0  0  0  0
   13.3785  -16.7742   25.6289 C   0  0  2  0  0  0  0  0  0  0  0  0
   13.0210  -16.7590   24.2030 N   0  0  0  0  0  0  0  0  0  0  0  0
   14.6794  -17.4408   25.8327 C   0  0  0  0  0  0  0  0  0  0  0  0
   15.6892  -16.9838   26.6598 O   0  0  0  0  0  0  0  0  0  0  0  0
   14.9037  -18.5096   25.2114 O   0  0  0  0  0  0  0  0  0  0  0  0
  2  1  1  1
  2 10  1  0
  3  2  1  0
  4  3  1  0
  4  9  2  0
  5  4  1  0
  6  5  2  0
  6  7  1  0
  7  8  2  0
  8  9  1  0
 10 11  2  0
 13 12  1  1
 13 15  1  0
 14 13  1  0
 15 16  1  1
 16 10  1  0
 17 18  2  0
 17 15  1  0
 19 20  1  0
 20 22  1  0
 20 21  2  0
 22 23  1  0
 24 23  1  1
 24 25  1  0
 24 26  1  0
 25 17  1  0
 26 27  1  0
 28 26  2  0
M  END
$$$$
