FTQ.pdb
     RDKit          3D

 28 28  0  0  1  0  0  0  0  0999 V2000
    5.9748  -15.9874   25.6048 N   0  0  0  0  0  0  0  0  0  0  0  0
    6.7865  -15.2959   24.6140 C   0  0  1  0  0  0  0  0  0  0  0  0
    7.7095  -14.3475   25.3729 C   0  0  0  0  0  0  0  0  0  0  0  0
    7.0053  -13.2373   26.0170 C   0  0  0  0  0  0  0  0  0  0  0  0
    7.7205  -12.2801   26.6980 C   0  0  0  0  0  0  0  0  0  0  0  0
    7.1284  -11.2139   27.3240 C   0  0  0  0  0  0  0  0  0  0  0  0
    5.7554  -11.0792   27.2793 C   0  0  0  0  0  0  0  0  0  0  0  0
    5.0498  -12.0427   26.5953 C   0  0  0  0  0  0  0  0  0  0  0  0
    5.6371  -13.1188   25.9628 C   0  0  0  0  0  0  0  0  0  0  0  0
    7.5978  -16.2239   23.8158 C   0  0  0  0  0  0  0  0  0  0  0  0
    7.7870  -17.4355   24.1347 O   0  0  0  0  0  0  0  0  0  0  0  0
    7.9828  -15.6217   19.9011 C   0  0  0  0  0  0  0  0  0  0  0  0
    9.3047  -16.0654   20.4710 C   0  0  1  0  0  0  0  0  0  0  0  0
   10.1186  -14.9157   20.4377 O   0  0  0  0  0  0  0  0  0  0  0  0
    9.1998  -16.5882   21.8891 C   0  0  2  0  0  0  0  0  0  0  0  0
    8.2122  -15.7751   22.6282 N   0  0  0  0  0  0  0  0  0  0  0  0
   10.4592  -16.6535   22.6274 C   0  0  0  0  0  0  0  0  0  0  0  0
   10.8364  -15.5999   23.2658 O   0  0  0  0  0  0  0  0  0  0  0  0
   13.1318  -20.3733   27.8716 N   0  0  0  0  0  0  0  0  0  0  0  0
   12.5424  -19.2656   27.2465 C   0  0  0  0  0  0  0  0  0  0  0  0
   11.5352  -18.7244   27.7504 O   0  0  0  0  0  0  0  0  0  0  0  0
   13.1095  -18.7186   25.9721 C   0  0  0  0  0  0  0  0  0  0  0  0
   11.9957  -18.5070   24.9758 C   0  0  0  0  0  0  0  0  0  0  0  0
   12.4241  -17.7822   23.7355 C   0  0  2  0  0  0  0  0  0  0  0  0
   11.3429  -17.7485   22.7400 N   0  0  0  0  0  0  0  0  0  0  0  0
   13.6742  -18.2814   23.1302 C   0  0  0  0  0  0  0  0  0  0  0  0
   13.7799  -18.8555   21.8765 O   0  0  0  0  0  0  0  0  0  0  0  0
   14.7362  -18.1856   23.7947 O   0  0  0  0  0  0  0  0  0  0  0  0
  2  1  1  1
  2 10  1  0
  3  2  1  0
  4  3  1  0
  4  9  2  0
  5  4  1  0
  6  5  2  0
  6  7  1  0
  7  8  2  0
  8  9  1  0
 10 11  2  0
 13 12  1  1
 13 15  1  0
 14 13  1  0
 15 16  1  1
 16 10  1  0
 17 18  2  0
 17 15  1  0
 19 20  1  0
 20 22  1  0
 20 21  2  0
 22 23  1  0
 24 23  1  1
 24 25  1  0
 24 26  1  0
 25 17  1  0
 26 27  1  0
 28 26  2  0
M  END
$$$$
