FTQ.pdb
     RDKit          3D

 28 28  0  0  1  0  0  0  0  0999 V2000
    6.3084  -16.0185   25.8026 N   0  0  0  0  0  0  0  0  0  0  0  0
    7.0113  -15.3124   24.7414 C   0  0  1  0  0  0  0  0  0  0  0  0
    7.9866  -14.3501   25.4124 C   0  0  0  0  0  0  0  0  0  0  0  0
    7.3282  -13.2699   26.1492 C   0  0  0  0  0  0  0  0  0  0  0  0
    6.5526  -12.3576   25.4727 C   0  0  0  0  0  0  0  0  0  0  0  0
    5.9068  -11.3219   26.0969 C   0  0  0  0  0  0  0  0  0  0  0  0
    6.0292  -11.1728   27.4637 C   0  0  0  0  0  0  0  0  0  0  0  0
    6.8077  -12.0912   28.1304 C   0  0  0  0  0  0  0  0  0  0  0  0
    7.4612  -13.1360   27.5105 C   0  0  0  0  0  0  0  0  0  0  0  0
    7.7581  -16.2257   23.8671 C   0  0  0  0  0  0  0  0  0  0  0  0
    7.9497  -17.4486   24.1379 O   0  0  0  0  0  0  0  0  0  0  0  0
    7.2214  -16.1072   20.1054 C   0  0  0  0  0  0  0  0  0  0  0  0
    8.7047  -16.2691   20.3118 C   0  0  1  0  0  0  0  0  0  0  0  0
    9.2592  -15.0246   19.9527 O   0  0  0  0  0  0  0  0  0  0  0  0
    9.0763  -16.6120   21.7400 C   0  0  2  0  0  0  0  0  0  0  0  0
    8.3036  -15.7489   22.6570 N   0  0  0  0  0  0  0  0  0  0  0  0
   10.5020  -16.5372   22.0515 C   0  0  0  0  0  0  0  0  0  0  0  0
   11.0061  -15.3740   22.2821 O   0  0  0  0  0  0  0  0  0  0  0  0
   10.3141  -16.9986   26.8813 N   0  0  0  0  0  0  0  0  0  0  0  0
   11.5189  -17.7033   27.0106 C   0  0  0  0  0  0  0  0  0  0  0  0
   12.0404  -17.8513   28.1364 O   0  0  0  0  0  0  0  0  0  0  0  0
   12.1941  -18.2856   25.8066 C   0  0  0  0  0  0  0  0  0  0  0  0
   11.4151  -17.9197   24.5667 C   0  0  0  0  0  0  0  0  0  0  0  0
   12.2584  -17.8175   23.3315 C   0  0  2  0  0  0  0  0  0  0  0  0
   11.4279  -17.5991   22.1383 N   0  0  0  0  0  0  0  0  0  0  0  0
   13.1846  -18.9472   23.1220 C   0  0  0  0  0  0  0  0  0  0  0  0
   12.8393  -20.1724   22.5813 O   0  0  0  0  0  0  0  0  0  0  0  0
   14.3866  -18.8008   23.4575 O   0  0  0  0  0  0  0  0  0  0  0  0
  2  1  1  1
  2 10  1  0
  3  2  1  0
  4  3  1  0
  4  9  2  0
  5  4  1  0
  6  5  2  0
  6  7  1  0
  7  8  2  0
  8  9  1  0
 10 11  2  0
 13 12  1  1
 13 15  1  0
 14 13  1  0
 15 16  1  1
 16 10  1  0
 17 18  2  0
 17 15  1  0
 19 20  1  0
 20 22  1  0
 20 21  2  0
 22 23  1  0
 24 23  1  1
 24 25  1  0
 24 26  1  0
 25 17  1  0
 26 27  1  0
 28 26  2  0
M  END
$$$$
