FTQ.pdb
     RDKit          3D

 28 28  0  0  1  0  0  0  0  0999 V2000
    5.8185  -16.1175   25.2520 N   0  0  0  0  0  0  0  0  0  0  0  0
    7.1584  -15.8038   24.7775 C   0  0  1  0  0  0  0  0  0  0  0  0
    7.7326  -14.7500   25.7194 C   0  0  0  0  0  0  0  0  0  0  0  0
    7.0943  -13.4390   25.5885 C   0  0  0  0  0  0  0  0  0  0  0  0
    6.0416  -13.1087   26.4097 C   0  0  0  0  0  0  0  0  0  0  0  0
    5.3970  -11.9005   26.3437 C   0  0  0  0  0  0  0  0  0  0  0  0
    5.8092  -10.9626   25.4187 C   0  0  0  0  0  0  0  0  0  0  0  0
    6.8633  -11.3038   24.6023 C   0  0  0  0  0  0  0  0  0  0  0  0
    7.5174  -12.5169   24.6615 C   0  0  0  0  0  0  0  0  0  0  0  0
    8.0364  -16.9809   24.7766 C   0  0  0  0  0  0  0  0  0  0  0  0
    7.9740  -17.8975   25.6491 O   0  0  0  0  0  0  0  0  0  0  0  0
    9.1670  -18.7103   21.4073 C   0  0  0  0  0  0  0  0  0  0  0  0
   10.3563  -18.5495   22.3176 C   0  0  1  0  0  0  0  0  0  0  0  0
   11.0868  -17.4743   21.7741 O   0  0  0  0  0  0  0  0  0  0  0  0
    9.9752  -18.2474   23.7525 C   0  0  2  0  0  0  0  0  0  0  0  0
    9.0102  -17.1287   23.7671 N   0  0  0  0  0  0  0  0  0  0  0  0
   11.0924  -17.9669   24.6516 C   0  0  0  0  0  0  0  0  0  0  0  0
   11.3664  -16.7331   24.9023 O   0  0  0  0  0  0  0  0  0  0  0  0
   11.2345  -15.0097   28.3486 N   0  0  0  0  0  0  0  0  0  0  0  0
   10.9872  -16.1912   29.0612 C   0  0  0  0  0  0  0  0  0  0  0  0
   10.4055  -16.1463   30.1661 O   0  0  0  0  0  0  0  0  0  0  0  0
   11.4150  -17.5172   28.5101 C   0  0  0  0  0  0  0  0  0  0  0  0
   12.0798  -17.3143   27.1703 C   0  0  0  0  0  0  0  0  0  0  0  0
   12.6182  -18.5760   26.5657 C   0  0  2  0  0  0  0  0  0  0  0  0
   11.9352  -18.8931   25.3031 N   0  0  0  0  0  0  0  0  0  0  0  0
   12.6128  -19.7436   27.4685 C   0  0  0  0  0  0  0  0  0  0  0  0
   11.6544  -20.7406   27.4778 O   0  0  0  0  0  0  0  0  0  0  0  0
   13.5463  -19.8549   28.3021 O   0  0  0  0  0  0  0  0  0  0  0  0
  2  1  1  1
  2 10  1  0
  3  2  1  0
  4  3  1  0
  4  9  2  0
  5  4  1  0
  6  5  2  0
  6  7  1  0
  7  8  2  0
  8  9  1  0
 10 11  2  0
 13 12  1  6
 13 15  1  0
 14 13  1  0
 15 16  1  6
 16 10  1  0
 17 18  2  0
 17 15  1  0
 19 20  1  0
 20 22  1  0
 20 21  2  0
 22 23  1  0
 24 23  1  1
 24 25  1  0
 24 26  1  0
 25 17  1  0
 26 27  1  0
 28 26  2  0
M  END
$$$$
