FTQ.pdb
     RDKit          3D

 28 28  0  0  1  0  0  0  0  0999 V2000
    6.6094  -16.1726   25.8238 N   0  0  0  0  0  0  0  0  0  0  0  0
    6.9158  -15.2630   24.7294 C   0  0  1  0  0  0  0  0  0  0  0  0
    7.8551  -14.1958   25.2827 C   0  0  0  0  0  0  0  0  0  0  0  0
    7.2054  -13.2705   26.2128 C   0  0  0  0  0  0  0  0  0  0  0  0
    7.8775  -12.8501   27.3367 C   0  0  0  0  0  0  0  0  0  0  0  0
    7.3320  -11.9853   28.2499 C   0  0  0  0  0  0  0  0  0  0  0  0
    6.0536  -11.5054   28.0487 C   0  0  0  0  0  0  0  0  0  0  0  0
    5.3904  -11.9328   26.9211 C   0  0  0  0  0  0  0  0  0  0  0  0
    5.9312  -12.8027   25.9971 C   0  0  0  0  0  0  0  0  0  0  0  0
    7.5695  -15.9466   23.6062 C   0  0  0  0  0  0  0  0  0  0  0  0
    7.9303  -17.1607   23.6440 O   0  0  0  0  0  0  0  0  0  0  0  0
    6.5570  -14.6928   20.0554 C   0  0  0  0  0  0  0  0  0  0  0  0
    7.9870  -15.1603   19.9813 C   0  0  1  0  0  0  0  0  0  0  0  0
    8.7436  -13.9864   19.7947 O   0  0  0  0  0  0  0  0  0  0  0  0
    8.4462  -15.8825   21.2315 C   0  0  2  0  0  0  0  0  0  0  0  0
    7.8238  -15.2443   22.4098 N   0  0  0  0  0  0  0  0  0  0  0  0
    9.8941  -15.9720   21.4071 C   0  0  0  0  0  0  0  0  0  0  0  0
   10.5009  -14.9568   21.9183 O   0  0  0  0  0  0  0  0  0  0  0  0
   10.4450  -17.0739   25.8106 N   0  0  0  0  0  0  0  0  0  0  0  0
   11.5382  -17.9410   25.6763 C   0  0  0  0  0  0  0  0  0  0  0  0
   12.3116  -18.1278   26.6397 O   0  0  0  0  0  0  0  0  0  0  0  0
   11.7925  -18.6518   24.3821 C   0  0  0  0  0  0  0  0  0  0  0  0
   10.9070  -18.0709   23.3067 C   0  0  0  0  0  0  0  0  0  0  0  0
   11.6487  -17.6582   22.0710 C   0  0  2  0  0  0  0  0  0  0  0  0
   10.7418  -17.0536   21.0845 N   0  0  0  0  0  0  0  0  0  0  0  0
   12.4559  -18.7266   21.4505 C   0  0  0  0  0  0  0  0  0  0  0  0
   12.0473  -19.5271   20.3995 O   0  0  0  0  0  0  0  0  0  0  0  0
   13.6088  -18.9394   21.9025 O   0  0  0  0  0  0  0  0  0  0  0  0
  2  1  1  1
  2 10  1  0
  3  2  1  0
  4  3  1  0
  4  9  2  0
  5  4  1  0
  6  5  2  0
  6  7  1  0
  7  8  2  0
  8  9  1  0
 10 11  2  0
 13 12  1  1
 13 15  1  0
 14 13  1  0
 15 16  1  1
 16 10  1  0
 17 18  2  0
 17 15  1  0
 19 20  1  0
 20 22  1  0
 20 21  2  0
 22 23  1  0
 24 23  1  1
 24 25  1  0
 24 26  1  0
 25 17  1  0
 26 27  1  0
 28 26  2  0
M  END
$$$$
