FTQ.pdb
     RDKit          3D

 28 28  0  0  1  0  0  0  0  0999 V2000
    5.7478  -16.2529   25.2001 N   0  0  0  0  0  0  0  0  0  0  0  0
    6.6222  -15.4417   24.3658 C   0  0  1  0  0  0  0  0  0  0  0  0
    7.6045  -14.7378   25.2969 C   0  0  0  0  0  0  0  0  0  0  0  0
    7.0644  -13.5197   25.9034 C   0  0  0  0  0  0  0  0  0  0  0  0
    7.6352  -12.3027   25.6122 C   0  0  0  0  0  0  0  0  0  0  0  0
    7.1822  -11.1224   26.1424 C   0  0  0  0  0  0  0  0  0  0  0  0
    6.1073  -11.1372   27.0082 C   0  0  0  0  0  0  0  0  0  0  0  0
    5.5441  -12.3603   27.2925 C   0  0  0  0  0  0  0  0  0  0  0  0
    5.9934  -13.5526   26.7639 C   0  0  0  0  0  0  0  0  0  0  0  0
    7.3712  -16.2510   23.3959 C   0  0  0  0  0  0  0  0  0  0  0  0
    6.8787  -17.2526   22.7963 O   0  0  0  0  0  0  0  0  0  0  0  0
    6.9805  -16.2115   20.9513 C   0  0  0  0  0  0  0  0  0  0  0  0
    8.4306  -15.9114   20.6750 C   0  0  1  0  0  0  0  0  0  0  0  0
    8.4794  -14.5193   20.4633 O   0  0  0  0  0  0  0  0  0  0  0  0
    9.3495  -16.2971   21.8162 C   0  0  2  0  0  0  0  0  0  0  0  0
    8.7095  -15.9237   23.0944 N   0  0  0  0  0  0  0  0  0  0  0  0
   10.7016  -15.7474   21.7448 C   0  0  0  0  0  0  0  0  0  0  0  0
   10.8264  -14.4669   21.6757 O   0  0  0  0  0  0  0  0  0  0  0  0
   10.3780  -18.4051   26.0205 N   0  0  0  0  0  0  0  0  0  0  0  0
   11.7570  -18.3301   26.2605 C   0  0  0  0  0  0  0  0  0  0  0  0
   12.2402  -18.8295   27.2990 O   0  0  0  0  0  0  0  0  0  0  0  0
   12.6656  -17.6537   25.2797 C   0  0  0  0  0  0  0  0  0  0  0  0
   11.8758  -17.2485   24.0591 C   0  0  0  0  0  0  0  0  0  0  0  0
   12.7134  -16.6525   22.9679 C   0  0  2  0  0  0  0  0  0  0  0  0
   11.9251  -16.4513   21.7434 N   0  0  0  0  0  0  0  0  0  0  0  0
   13.9566  -17.3907   22.6718 C   0  0  0  0  0  0  0  0  0  0  0  0
   14.0209  -18.6481   22.0996 O   0  0  0  0  0  0  0  0  0  0  0  0
   15.0530  -16.8475   22.9574 O   0  0  0  0  0  0  0  0  0  0  0  0
  2  1  1  1
  2 10  1  0
  3  2  1  0
  4  3  1  0
  4  9  2  0
  5  4  1  0
  6  5  2  0
  6  7  1  0
  7  8  2  0
  8  9  1  0
 10 11  2  0
 13 12  1  1
 13 15  1  0
 14 13  1  0
 15 16  1  1
 16 10  1  0
 17 18  2  0
 17 15  1  0
 19 20  1  0
 20 22  1  0
 20 21  2  0
 22 23  1  0
 24 23  1  1
 24 25  1  0
 24 26  1  0
 25 17  1  0
 26 27  1  0
 28 26  2  0
M  END
$$$$
