FTQ.pdb
     RDKit          3D

 28 28  0  0  1  0  0  0  0  0999 V2000
    7.9972  -17.5245   19.4562 N   0  0  0  0  0  0  0  0  0  0  0  0
    8.8483  -16.7540   20.3510 C   0  0  1  0  0  0  0  0  0  0  0  0
    7.9286  -16.0031   21.3089 C   0  0  0  0  0  0  0  0  0  0  0  0
    7.6536  -14.6257   20.8961 C   0  0  0  0  0  0  0  0  0  0  0  0
    8.1811  -13.5799   21.6170 C   0  0  0  0  0  0  0  0  0  0  0  0
    7.9660  -12.2664   21.2887 C   0  0  0  0  0  0  0  0  0  0  0  0
    7.1885  -11.9615   20.1897 C   0  0  0  0  0  0  0  0  0  0  0  0
    6.6657  -13.0156   19.4758 C   0  0  0  0  0  0  0  0  0  0  0  0
    6.8767  -14.3400   19.7989 C   0  0  0  0  0  0  0  0  0  0  0  0
    9.7578  -17.6087   21.1247 C   0  0  0  0  0  0  0  0  0  0  0  0
    9.5968  -18.8587   21.2555 O   0  0  0  0  0  0  0  0  0  0  0  0
   11.4472  -19.3055   20.0831 C   0  0  0  0  0  0  0  0  0  0  0  0
   12.5359  -18.4477   20.6729 C   0  0  1  0  0  0  0  0  0  0  0  0
   12.7988  -17.4700   19.6930 O   0  0  0  0  0  0  0  0  0  0  0  0
   12.1362  -17.7850   21.9754 C   0  0  2  0  0  0  0  0  0  0  0  0
   10.8769  -17.0406   21.7681 N   0  0  0  0  0  0  0  0  0  0  0  0
   13.1481  -16.9162   22.5726 C   0  0  0  0  0  0  0  0  0  0  0  0
   13.8344  -16.1633   21.7838 O   0  0  0  0  0  0  0  0  0  0  0  0
   14.7168  -20.5990   26.0816 N   0  0  0  0  0  0  0  0  0  0  0  0
   14.0591  -19.5942   26.8046 C   0  0  0  0  0  0  0  0  0  0  0  0
   13.2971  -19.8973   27.7473 O   0  0  0  0  0  0  0  0  0  0  0  0
   14.2601  -18.1504   26.4584 C   0  0  0  0  0  0  0  0  0  0  0  0
   15.1369  -18.0439   25.2345 C   0  0  0  0  0  0  0  0  0  0  0  0
   14.8753  -16.8205   24.4084 C   0  0  2  0  0  0  0  0  0  0  0  0
   13.4830  -16.7857   23.9376 N   0  0  0  0  0  0  0  0  0  0  0  0
   15.8106  -16.6242   23.2838 C   0  0  0  0  0  0  0  0  0  0  0  0
   16.0725  -17.5523   22.2925 O   0  0  0  0  0  0  0  0  0  0  0  0
   16.4273  -15.5322   23.2071 O   0  0  0  0  0  0  0  0  0  0  0  0
  2  1  1  6
  2 10  1  0
  3  2  1  0
  4  3  1  0
  4  9  2  0
  5  4  1  0
  6  5  2  0
  6  7  1  0
  7  8  2  0
  8  9  1  0
 10 11  2  0
 13 12  1  6
 13 15  1  0
 14 13  1  0
 15 16  1  6
 16 10  1  0
 17 18  2  0
 17 15  1  0
 19 20  1  0
 20 22  1  0
 20 21  2  0
 22 23  1  0
 24 23  1  6
 24 25  1  0
 24 26  1  0
 25 17  1  0
 26 27  1  0
 28 26  2  0
M  END
$$$$
