FTQ.pdb
     RDKit          3D

 28 28  0  0  1  0  0  0  0  0999 V2000
    6.5375  -16.3075   25.7717 N   0  0  0  0  0  0  0  0  0  0  0  0
    7.0895  -15.4986   24.6948 C   0  0  1  0  0  0  0  0  0  0  0  0
    8.0042  -14.4603   25.3371 C   0  0  0  0  0  0  0  0  0  0  0  0
    7.2843  -13.4411   26.1029 C   0  0  0  0  0  0  0  0  0  0  0  0
    7.6241  -13.2082   27.4151 C   0  0  0  0  0  0  0  0  0  0  0  0
    6.9942  -12.2704   28.1917 C   0  0  0  0  0  0  0  0  0  0  0  0
    5.9722  -11.5177   27.6494 C   0  0  0  0  0  0  0  0  0  0  0  0
    5.6406  -11.7591   26.3357 C   0  0  0  0  0  0  0  0  0  0  0  0
    6.2686  -12.7007   25.5471 C   0  0  0  0  0  0  0  0  0  0  0  0
    7.8648  -16.3006   23.7397 C   0  0  0  0  0  0  0  0  0  0  0  0
    8.2035  -17.5028   23.9528 O   0  0  0  0  0  0  0  0  0  0  0  0
    7.0455  -15.9371   20.0223 C   0  0  0  0  0  0  0  0  0  0  0  0
    8.5423  -16.0772   20.1179 C   0  0  1  0  0  0  0  0  0  0  0  0
    9.0474  -14.8009   19.8000 O   0  0  0  0  0  0  0  0  0  0  0  0
    9.0174  -16.4974   21.4938 C   0  0  2  0  0  0  0  0  0  0  0  0
    8.2694  -15.7334   22.5134 N   0  0  0  0  0  0  0  0  0  0  0  0
   10.4557  -16.3787   21.7231 C   0  0  0  0  0  0  0  0  0  0  0  0
   10.9256  -15.2109   21.9978 O   0  0  0  0  0  0  0  0  0  0  0  0
   10.2121  -17.9656   26.8399 N   0  0  0  0  0  0  0  0  0  0  0  0
   11.5517  -17.7593   26.4821 C   0  0  0  0  0  0  0  0  0  0  0  0
   12.2723  -16.9997   27.1640 O   0  0  0  0  0  0  0  0  0  0  0  0
   12.1344  -18.4437   25.2834 C   0  0  0  0  0  0  0  0  0  0  0  0
   11.3654  -18.0384   24.0495 C   0  0  0  0  0  0  0  0  0  0  0  0
   12.2347  -17.7583   22.8607 C   0  0  2  0  0  0  0  0  0  0  0  0
   11.4274  -17.4018   21.6850 N   0  0  0  0  0  0  0  0  0  0  0  0
   13.1914  -18.8323   22.5296 C   0  0  0  0  0  0  0  0  0  0  0  0
   12.8654  -20.0332   21.9262 O   0  0  0  0  0  0  0  0  0  0  0  0
   14.4029  -18.6576   22.8133 O   0  0  0  0  0  0  0  0  0  0  0  0
  2  1  1  1
  2 10  1  0
  3  2  1  0
  4  3  1  0
  4  9  2  0
  5  4  1  0
  6  5  2  0
  6  7  1  0
  7  8  2  0
  8  9  1  0
 10 11  2  0
 13 12  1  1
 13 15  1  0
 14 13  1  0
 15 16  1  1
 16 10  1  0
 17 18  2  0
 17 15  1  0
 19 20  1  0
 20 22  1  0
 20 21  2  0
 22 23  1  0
 24 23  1  1
 24 25  1  0
 24 26  1  0
 25 17  1  0
 26 27  1  0
 28 26  2  0
M  END
$$$$
