FTQ.pdb
     RDKit          3D

 28 28  0  0  1  0  0  0  0  0999 V2000
    6.5292  -16.0550   25.7974 N   0  0  0  0  0  0  0  0  0  0  0  0
    7.1663  -15.3802   24.6760 C   0  0  1  0  0  0  0  0  0  0  0  0
    8.0382  -14.2710   25.2565 C   0  0  0  0  0  0  0  0  0  0  0  0
    7.2794  -13.2494   25.9803 C   0  0  0  0  0  0  0  0  0  0  0  0
    7.9039  -12.4910   26.9428 C   0  0  0  0  0  0  0  0  0  0  0  0
    7.2567  -11.5176   27.6590 C   0  0  0  0  0  0  0  0  0  0  0  0
    5.9197  -11.2744   27.4168 C   0  0  0  0  0  0  0  0  0  0  0  0
    5.3050  -12.0391   26.4517 C   0  0  0  0  0  0  0  0  0  0  0  0
    5.9482  -13.0206   25.7265 C   0  0  0  0  0  0  0  0  0  0  0  0
    8.0048  -16.2897   23.8848 C   0  0  0  0  0  0  0  0  0  0  0  0
    8.3005  -17.4647   24.2556 O   0  0  0  0  0  0  0  0  0  0  0  0
    7.6740  -16.2986   19.9945 C   0  0  0  0  0  0  0  0  0  0  0  0
    9.1356  -16.3922   20.3468 C   0  0  1  0  0  0  0  0  0  0  0  0
    9.6634  -15.1206   20.0474 O   0  0  0  0  0  0  0  0  0  0  0  0
    9.3797  -16.7274   21.8040 C   0  0  2  0  0  0  0  0  0  0  0  0
    8.5241  -15.8644   22.6444 N   0  0  0  0  0  0  0  0  0  0  0  0
   10.7715  -16.6439   22.2413 C   0  0  0  0  0  0  0  0  0  0  0  0
   11.3514  -15.4947   22.1831 O   0  0  0  0  0  0  0  0  0  0  0  0
    9.9454  -16.2470   27.1775 N   0  0  0  0  0  0  0  0  0  0  0  0
   11.2963  -16.4709   27.4774 C   0  0  0  0  0  0  0  0  0  0  0  0
   11.7191  -16.2865   28.6387 O   0  0  0  0  0  0  0  0  0  0  0  0
   12.2466  -16.9321   26.4148 C   0  0  0  0  0  0  0  0  0  0  0  0
   11.5101  -17.0634   25.1039 C   0  0  0  0  0  0  0  0  0  0  0  0
   12.3698  -17.5430   23.9733 C   0  0  2  0  0  0  0  0  0  0  0  0
   11.5893  -17.6829   22.7354 N   0  0  0  0  0  0  0  0  0  0  0  0
   13.1261  -18.7786   24.2548 C   0  0  0  0  0  0  0  0  0  0  0  0
   12.6705  -20.0635   24.0224 O   0  0  0  0  0  0  0  0  0  0  0  0
   14.2775  -18.6720   24.7464 O   0  0  0  0  0  0  0  0  0  0  0  0
  2  1  1  1
  2 10  1  0
  3  2  1  0
  4  3  1  0
  4  9  2  0
  5  4  1  0
  6  5  2  0
  6  7  1  0
  7  8  2  0
  8  9  1  0
 10 11  2  0
 13 12  1  1
 13 15  1  0
 14 13  1  0
 15 16  1  1
 16 10  1  0
 17 18  2  0
 17 15  1  0
 19 20  1  0
 20 22  1  0
 20 21  2  0
 22 23  1  0
 24 23  1  1
 24 25  1  0
 24 26  1  0
 25 17  1  0
 26 27  1  0
 28 26  2  0
M  END
$$$$
