YNH.pdb
     RDKit          3D

 31 32  0  0  1  0  0  0  0  0999 V2000
   31.1369  -21.3111   -9.5657 O   0  0  0  0  0  0  0  0  0  0  0  0
   30.1376  -21.0235  -10.4760 C   0  0  0  0  0  0  0  0  0  0  0  0
   28.8534  -21.4681  -10.2364 C   0  0  0  0  0  0  0  0  0  0  0  0
   27.8784  -21.1799  -11.1375 C   0  0  0  0  0  0  0  0  0  0  0  0
   28.1225  -20.4603  -12.2822 C   0  0  0  0  0  0  0  0  0  0  0  0
   27.0346  -20.1799  -13.2142 C   0  0  0  0  0  0  0  0  0  0  0  0
   27.0326  -21.0914  -14.4354 C   0  0  2  0  0  0  0  0  0  0  0  0
   28.1610  -20.7974  -15.3008 N   0  0  0  0  0  0  0  0  0  0  0  0
   25.7417  -20.8941  -15.1272 C   0  0  0  0  0  0  0  0  0  0  0  0
   25.6330  -19.9369  -15.9309 O   0  0  0  0  0  0  0  0  0  0  0  0
   29.3900  -20.0078  -12.5425 C   0  0  0  0  0  0  0  0  0  0  0  0
   30.3846  -20.3000  -11.6263 C   0  0  0  0  0  0  0  0  0  0  0  0
   24.8583  -24.3119  -17.3574 N   0  0  0  0  0  0  0  0  0  0  0  0
   24.0889  -23.1053  -17.4216 C   0  0  0  0  0  0  0  0  0  0  0  0
   24.3024  -22.3288  -18.3863 O   0  0  0  0  0  0  0  0  0  0  0  0
   23.0976  -22.8304  -16.3741 C   0  0  0  0  0  0  0  0  0  0  0  0
   23.3609  -21.6486  -15.5250 C   0  0  2  0  0  0  0  0  0  0  0  0
   24.6783  -21.7839  -14.8634 N   0  0  0  0  0  0  0  0  0  0  0  0
   22.3553  -21.4446  -14.4697 C   0  0  0  0  0  0  0  0  0  0  0  0
   22.3693  -22.1775  -13.4192 O   0  0  0  0  0  0  0  0  0  0  0  0
   21.3534  -20.4662  -14.5329 N   0  0  0  0  0  0  0  0  0  0  0  0
   20.3897  -20.3568  -13.4085 C   0  0  1  0  0  0  0  0  0  0  0  0
   20.9466  -19.2767  -12.5201 C   0  0  0  0  0  0  0  0  0  0  0  0
   21.9965  -19.8112  -11.6399 C   0  0  0  0  0  0  0  0  0  0  0  0
   21.7175  -20.2946  -10.3603 C   0  0  0  0  0  0  0  0  0  0  0  0
   22.9009  -20.7022   -9.8441 N   0  0  0  0  0  0  0  0  0  0  0  0
   23.8780  -20.5007  -10.7190 C   0  0  0  0  0  0  0  0  0  0  0  0
   23.2973  -19.9602  -11.7961 N   0  0  0  0  0  0  0  0  0  0  0  0
   19.1045  -19.9138  -14.0045 C   0  0  0  0  0  0  0  0  0  0  0  0
   19.0156  -19.4405  -15.1782 O   0  0  0  0  0  0  0  0  0  0  0  0
   17.9050  -19.9867  -13.3196 O   0  0  0  0  0  0  0  0  0  0  0  0
  2  1  1  0
  2 12  2  0
  3  2  1  0
  4  3  2  0
  4  5  1  0
  5  6  1  0
  5 11  2  0
  7  6  1  0
  7  8  1  6
  9 18  1  0
  9  7  1  0
 10  9  2  0
 11 12  1  0
 13 14  1  0
 14 16  1  0
 14 15  2  0
 17 16  1  1
 17 18  1  0
 19 17  1  0
 19 21  1  0
 20 19  2  0
 22 21  1  0
 22 23  1  1
 22 29  1  0
 24 23  1  0
 24 28  1  0
 25 24  2  0
 26 25  1  0
 26 27  1  0
 27 28  2  0
 29 30  2  0
 29 31  1  0
M  END
$$$$
