YNH.pdb
     RDKit          3D

 31 32  0  0  1  0  0  0  0  0999 V2000
   14.9756  -24.2832   -8.7816 O   0  0  0  0  0  0  0  0  0  0  0  0
   16.0285  -23.5686   -9.3210 C   0  0  0  0  0  0  0  0  0  0  0  0
   15.7926  -22.3264   -9.8734 C   0  0  0  0  0  0  0  0  0  0  0  0
   16.8345  -21.6322  -10.4009 C   0  0  0  0  0  0  0  0  0  0  0  0
   18.1185  -22.1210  -10.4055 C   0  0  0  0  0  0  0  0  0  0  0  0
   19.1990  -21.3294  -10.9856 C   0  0  0  0  0  0  0  0  0  0  0  0
   19.1945  -21.3225  -12.5095 C   0  0  2  0  0  0  0  0  0  0  0  0
   19.2884  -22.6741  -13.0321 N   0  0  0  0  0  0  0  0  0  0  0  0
   20.3291  -20.4826  -12.9471 C   0  0  0  0  0  0  0  0  0  0  0  0
   20.4194  -19.3155  -12.4957 O   0  0  0  0  0  0  0  0  0  0  0  0
   18.3781  -23.3527   -9.8626 C   0  0  0  0  0  0  0  0  0  0  0  0
   17.3187  -24.0616   -9.3248 C   0  0  0  0  0  0  0  0  0  0  0  0
   23.8490  -20.8620  -11.9949 N   0  0  0  0  0  0  0  0  0  0  0  0
   24.2948  -21.4479  -13.2236 C   0  0  0  0  0  0  0  0  0  0  0  0
   25.2637  -22.2464  -13.1705 O   0  0  0  0  0  0  0  0  0  0  0  0
   23.6114  -21.0972  -14.4747 C   0  0  0  0  0  0  0  0  0  0  0  0
   22.4222  -20.2279  -14.3434 C   0  0  2  0  0  0  0  0  0  0  0  0
   21.2697  -21.0173  -13.8535 N   0  0  0  0  0  0  0  0  0  0  0  0
   22.0159  -19.5894  -15.6058 C   0  0  0  0  0  0  0  0  0  0  0  0
   21.4395  -20.2797  -16.5180 O   0  0  0  0  0  0  0  0  0  0  0  0
   22.2161  -18.2306  -15.8863 N   0  0  0  0  0  0  0  0  0  0  0  0
   21.8024  -17.7064  -17.2126 C   0  0  1  0  0  0  0  0  0  0  0  0
   21.7409  -16.2122  -17.0405 C   0  0  0  0  0  0  0  0  0  0  0  0
   21.4053  -15.5514  -18.3108 C   0  0  0  0  0  0  0  0  0  0  0  0
   20.0996  -15.5075  -18.8025 C   0  0  0  0  0  0  0  0  0  0  0  0
   20.1593  -14.8302  -19.9732 N   0  0  0  0  0  0  0  0  0  0  0  0
   21.4081  -14.4599  -20.2271 C   0  0  0  0  0  0  0  0  0  0  0  0
   22.1380  -14.9119  -19.2011 N   0  0  0  0  0  0  0  0  0  0  0  0
   22.8884  -18.0657  -18.1585 C   0  0  0  0  0  0  0  0  0  0  0  0
   24.0590  -18.3744  -17.7793 O   0  0  0  0  0  0  0  0  0  0  0  0
   22.7004  -18.0911  -19.5287 O   0  0  0  0  0  0  0  0  0  0  0  0
  2  1  1  0
  2 12  2  0
  3  2  1  0
  4  3  2  0
  4  5  1  0
  5  6  1  0
  5 11  2  0
  7  6  1  0
  7  8  1  6
  9 18  1  0
  9  7  1  0
 10  9  2  0
 11 12  1  0
 13 14  1  0
 14 16  1  0
 14 15  2  0
 17 16  1  6
 17 18  1  0
 19 17  1  0
 19 21  1  0
 20 19  2  0
 22 21  1  0
 22 23  1  1
 22 29  1  0
 24 23  1  0
 24 28  1  0
 25 24  2  0
 26 25  1  0
 26 27  1  0
 27 28  2  0
 29 30  2  0
 29 31  1  0
M  END
$$$$
