YNH.pdb
     RDKit          3D

 31 32  0  0  1  0  0  0  0  0999 V2000
   25.9605  -34.7208  -22.4258 O   0  0  0  0  0  0  0  0  0  0  0  0
   26.2209  -33.8656  -21.3718 C   0  0  0  0  0  0  0  0  0  0  0  0
   26.1878  -32.5020  -21.5807 C   0  0  0  0  0  0  0  0  0  0  0  0
   26.4451  -31.6701  -20.5379 C   0  0  0  0  0  0  0  0  0  0  0  0
   26.7381  -32.1358  -19.2789 C   0  0  0  0  0  0  0  0  0  0  0  0
   27.0052  -31.1941  -18.1961 C   0  0  0  0  0  0  0  0  0  0  0  0
   28.4003  -30.5837  -18.2539 C   0  0  2  0  0  0  0  0  0  0  0  0
   29.4185  -31.6072  -18.0974 N   0  0  0  0  0  0  0  0  0  0  0  0
   28.4765  -29.5632  -17.1876 C   0  0  0  0  0  0  0  0  0  0  0  0
   29.5434  -29.4561  -16.5363 O   0  0  0  0  0  0  0  0  0  0  0  0
   26.7771  -33.4862  -19.0464 C   0  0  0  0  0  0  0  0  0  0  0  0
   26.5154  -34.3354  -20.1068 C   0  0  0  0  0  0  0  0  0  0  0  0
   29.7868  -26.7052  -15.4372 N   0  0  0  0  0  0  0  0  0  0  0  0
   29.8514  -26.5792  -16.8626 C   0  0  0  0  0  0  0  0  0  0  0  0
   30.9559  -26.2596  -17.3698 O   0  0  0  0  0  0  0  0  0  0  0  0
   28.6434  -26.8252  -17.6597 C   0  0  0  0  0  0  0  0  0  0  0  0
   27.4492  -27.2692  -16.9087 C   0  0  2  0  0  0  0  0  0  0  0  0
   27.3531  -28.7461  -16.9376 N   0  0  0  0  0  0  0  0  0  0  0  0
   26.1854  -26.7336  -17.4400 C   0  0  0  0  0  0  0  0  0  0  0  0
   25.9914  -25.4681  -17.4815 O   0  0  0  0  0  0  0  0  0  0  0  0
   25.1464  -27.5390  -17.9269 N   0  0  0  0  0  0  0  0  0  0  0  0
   23.8839  -26.8903  -18.3630 C   0  0  1  0  0  0  0  0  0  0  0  0
   23.0886  -27.9859  -19.0212 C   0  0  0  0  0  0  0  0  0  0  0  0
   21.8259  -27.4632  -19.5647 C   0  0  0  0  0  0  0  0  0  0  0  0
   21.7603  -26.2530  -20.2573 C   0  0  0  0  0  0  0  0  0  0  0  0
   20.4631  -26.0884  -20.6083 N   0  0  0  0  0  0  0  0  0  0  0  0
   19.7369  -27.1123  -20.1782 C   0  0  0  0  0  0  0  0  0  0  0  0
   20.5919  -27.9273  -19.5502 N   0  0  0  0  0  0  0  0  0  0  0  0
   23.2003  -26.4378  -17.1256 C   0  0  0  0  0  0  0  0  0  0  0  0
   22.9549  -27.2120  -16.1509 O   0  0  0  0  0  0  0  0  0  0  0  0
   22.7808  -25.1322  -16.9450 O   0  0  0  0  0  0  0  0  0  0  0  0
  2  1  1  0
  2 12  2  0
  3  2  1  0
  4  3  2  0
  4  5  1  0
  5  6  1  0
  5 11  2  0
  7  6  1  0
  7  8  1  1
  9 18  1  0
  9  7  1  0
 10  9  2  0
 11 12  1  0
 13 14  1  0
 14 16  1  0
 14 15  2  0
 17 16  1  6
 17 18  1  0
 19 17  1  0
 19 21  1  0
 20 19  2  0
 22 21  1  0
 22 23  1  1
 22 29  1  0
 24 23  1  0
 24 28  1  0
 25 24  2  0
 26 25  1  0
 26 27  1  0
 27 28  2  0
 29 30  2  0
 29 31  1  0
M  END
$$$$
