YNH.pdb
     RDKit          3D

 31 32  0  0  1  0  0  0  0  0999 V2000
   29.5047  -16.0247  -18.8894 O   0  0  0  0  0  0  0  0  0  0  0  0
   28.6376  -16.7636  -18.1069 C   0  0  0  0  0  0  0  0  0  0  0  0
   28.7126  -16.6648  -16.7326 C   0  0  0  0  0  0  0  0  0  0  0  0
   27.8557  -17.3953  -15.9726 C   0  0  0  0  0  0  0  0  0  0  0  0
   26.9139  -18.2316  -16.5215 C   0  0  0  0  0  0  0  0  0  0  0  0
   26.0185  -18.9916  -15.6547 C   0  0  0  0  0  0  0  0  0  0  0  0
   26.7101  -20.1351  -14.9222 C   0  0  2  0  0  0  0  0  0  0  0  0
   27.2341  -21.1090  -15.8634 N   0  0  0  0  0  0  0  0  0  0  0  0
   25.7163  -20.7334  -14.0065 C   0  0  0  0  0  0  0  0  0  0  0  0
   25.1090  -21.7677  -14.3747 O   0  0  0  0  0  0  0  0  0  0  0  0
   26.8198  -18.3469  -17.8842 C   0  0  0  0  0  0  0  0  0  0  0  0
   27.6914  -17.6040  -18.6603 C   0  0  0  0  0  0  0  0  0  0  0  0
   26.9616  -21.8899  -10.9110 N   0  0  0  0  0  0  0  0  0  0  0  0
   26.3255  -20.9543  -10.0323 C   0  0  0  0  0  0  0  0  0  0  0  0
   26.9334  -20.6386   -8.9788 O   0  0  0  0  0  0  0  0  0  0  0  0
   25.0103  -20.4112  -10.3938 C   0  0  0  0  0  0  0  0  0  0  0  0
   24.5429  -20.7015  -11.7665 C   0  0  2  0  0  0  0  0  0  0  0  0
   25.4835  -20.1258  -12.7540 N   0  0  0  0  0  0  0  0  0  0  0  0
   23.2064  -20.1600  -12.0614 C   0  0  0  0  0  0  0  0  0  0  0  0
   23.0696  -18.9277  -12.3833 O   0  0  0  0  0  0  0  0  0  0  0  0
   22.0335  -20.9265  -12.0201 N   0  0  0  0  0  0  0  0  0  0  0  0
   20.8891  -20.5283  -12.8785 C   0  0  1  0  0  0  0  0  0  0  0  0
   21.3502  -20.7850  -14.2883 C   0  0  0  0  0  0  0  0  0  0  0  0
   20.2803  -20.4870  -15.2524 C   0  0  0  0  0  0  0  0  0  0  0  0
   19.0354  -19.9984  -14.8522 C   0  0  0  0  0  0  0  0  0  0  0  0
   18.3102  -19.8394  -15.9844 N   0  0  0  0  0  0  0  0  0  0  0  0
   19.0262  -20.1966  -17.0430 C   0  0  0  0  0  0  0  0  0  0  0  0
   20.2144  -20.5838  -16.5657 N   0  0  0  0  0  0  0  0  0  0  0  0
   19.7726  -21.4435  -12.5333 C   0  0  0  0  0  0  0  0  0  0  0  0
   19.9437  -22.6744  -12.2782 O   0  0  0  0  0  0  0  0  0  0  0  0
   18.4586  -21.0171  -12.4634 O   0  0  0  0  0  0  0  0  0  0  0  0
  2  1  1  0
  2 12  2  0
  3  2  1  0
  4  3  2  0
  4  5  1  0
  5  6  1  0
  5 11  2  0
  7  6  1  0
  7  8  1  6
  9 18  1  0
  9  7  1  0
 10  9  2  0
 11 12  1  0
 13 14  1  0
 14 16  1  0
 14 15  2  0
 17 16  1  1
 17 18  1  0
 19 17  1  0
 19 21  1  0
 20 19  2  0
 22 21  1  0
 22 23  1  6
 22 29  1  0
 24 23  1  0
 24 28  1  0
 25 24  2  0
 26 25  1  0
 26 27  1  0
 27 28  2  0
 29 30  2  0
 29 31  1  0
M  END
$$$$
