YNH.pdb
     RDKit          3D

 31 32  0  0  1  0  0  0  0  0999 V2000
   30.8049  -21.5892  -10.4144 O   0  0  0  0  0  0  0  0  0  0  0  0
   29.8620  -20.9858  -11.2248 C   0  0  0  0  0  0  0  0  0  0  0  0
   30.1943  -19.8363  -11.9122 C   0  0  0  0  0  0  0  0  0  0  0  0
   29.2601  -19.2511  -12.7061 C   0  0  0  0  0  0  0  0  0  0  0  0
   27.9928  -19.7613  -12.8516 C   0  0  0  0  0  0  0  0  0  0  0  0
   27.0306  -19.0898  -13.7199 C   0  0  0  0  0  0  0  0  0  0  0  0
   26.9645  -19.6810  -15.1229 C   0  0  2  0  0  0  0  0  0  0  0  0
   28.2264  -19.5010  -15.8188 N   0  0  0  0  0  0  0  0  0  0  0  0
   25.8478  -19.0160  -15.8263 C   0  0  0  0  0  0  0  0  0  0  0  0
   26.1172  -18.1825  -16.7245 O   0  0  0  0  0  0  0  0  0  0  0  0
   27.6387  -20.9022  -12.1791 C   0  0  0  0  0  0  0  0  0  0  0  0
   28.5883  -21.5000  -11.3699 C   0  0  0  0  0  0  0  0  0  0  0  0
   22.5354  -17.2555  -19.0763 N   0  0  0  0  0  0  0  0  0  0  0  0
   22.3893  -18.5513  -18.4833 C   0  0  0  0  0  0  0  0  0  0  0  0
   21.3312  -19.1856  -18.7228 O   0  0  0  0  0  0  0  0  0  0  0  0
   23.4653  -19.0765  -17.6337 C   0  0  0  0  0  0  0  0  0  0  0  0
   23.3563  -18.7785  -16.1893 C   0  0  2  0  0  0  0  0  0  0  0  0
   24.5213  -19.3383  -15.4676 N   0  0  0  0  0  0  0  0  0  0  0  0
   22.1429  -19.3283  -15.5635 C   0  0  0  0  0  0  0  0  0  0  0  0
   21.9938  -20.5960  -15.4562 O   0  0  0  0  0  0  0  0  0  0  0  0
   21.1066  -18.5342  -15.0529 N   0  0  0  0  0  0  0  0  0  0  0  0
   20.1468  -19.1408  -14.0959 C   0  0  1  0  0  0  0  0  0  0  0  0
   20.4120  -18.4496  -12.7852 C   0  0  0  0  0  0  0  0  0  0  0  0
   21.2163  -19.3016  -11.8964 C   0  0  0  0  0  0  0  0  0  0  0  0
   21.7155  -20.5392  -12.3062 C   0  0  0  0  0  0  0  0  0  0  0  0
   22.3996  -21.0390  -11.2502 N   0  0  0  0  0  0  0  0  0  0  0  0
   22.3512  -20.1932  -10.2289 C   0  0  0  0  0  0  0  0  0  0  0  0
   21.6273  -19.1511  -10.6526 N   0  0  0  0  0  0  0  0  0  0  0  0
   18.7912  -18.7925  -14.5902 C   0  0  0  0  0  0  0  0  0  0  0  0
   18.5889  -17.9307  -15.4989 O   0  0  0  0  0  0  0  0  0  0  0  0
   17.6452  -19.3868  -14.0935 O   0  0  0  0  0  0  0  0  0  0  0  0
  2  1  1  0
  2 12  2  0
  3  2  1  0
  4  3  2  0
  4  5  1  0
  5  6  1  0
  5 11  2  0
  7  6  1  0
  7  8  1  6
  9 18  1  0
  9  7  1  0
 10  9  2  0
 11 12  1  0
 13 14  1  0
 14 16  1  0
 14 15  2  0
 17 16  1  6
 17 18  1  0
 19 17  1  0
 19 21  1  0
 20 19  2  0
 22 21  1  0
 22 23  1  1
 22 29  1  0
 24 23  1  0
 24 28  1  0
 25 24  2  0
 26 25  1  0
 26 27  1  0
 27 28  2  0
 29 30  2  0
 29 31  1  0
M  END
$$$$
