YNH.pdb
     RDKit          3D

 31 32  0  0  1  0  0  0  0  0999 V2000
   21.2641    0.9680  -14.9516 O   0  0  0  0  0  0  0  0  0  0  0  0
   21.4512   -0.3642  -15.2681 C   0  0  0  0  0  0  0  0  0  0  0  0
   21.3887   -0.7631  -16.5876 C   0  0  0  0  0  0  0  0  0  0  0  0
   21.5742   -2.0750  -16.8879 C   0  0  0  0  0  0  0  0  0  0  0  0
   21.8225   -3.0232  -15.9252 C   0  0  0  0  0  0  0  0  0  0  0  0
   22.0148   -4.4188  -16.3074 C   0  0  0  0  0  0  0  0  0  0  0  0
   23.4729   -4.7826  -16.5602 C   0  0  2  0  0  0  0  0  0  0  0  0
   24.0202   -3.9937  -17.6497 N   0  0  0  0  0  0  0  0  0  0  0  0
   23.5189   -6.2308  -16.8514 C   0  0  0  0  0  0  0  0  0  0  0  0
   23.4089   -6.6058  -18.0436 O   0  0  0  0  0  0  0  0  0  0  0  0
   21.8892   -2.6516  -14.6073 C   0  0  0  0  0  0  0  0  0  0  0  0
   21.7007   -1.3162  -14.2990 C   0  0  0  0  0  0  0  0  0  0  0  0
   23.9733  -11.4137  -15.9954 N   0  0  0  0  0  0  0  0  0  0  0  0
   24.7334  -10.6866  -15.0230 C   0  0  0  0  0  0  0  0  0  0  0  0
   25.4743  -11.3457  -14.2511 O   0  0  0  0  0  0  0  0  0  0  0  0
   24.6175   -9.2240  -14.9698 C   0  0  0  0  0  0  0  0  0  0  0  0
   23.7671   -8.6018  -16.0074 C   0  0  2  0  0  0  0  0  0  0  0  0
   23.6845   -7.1406  -15.7851 N   0  0  0  0  0  0  0  0  0  0  0  0
   22.3910   -9.1234  -16.0332 C   0  0  0  0  0  0  0  0  0  0  0  0
   21.4777   -8.5599  -15.3338 O   0  0  0  0  0  0  0  0  0  0  0  0
   21.9950  -10.2271  -16.8013 N   0  0  0  0  0  0  0  0  0  0  0  0
   20.5447  -10.5022  -16.9622 C   0  0  1  0  0  0  0  0  0  0  0  0
   20.0124   -9.3404  -17.7579 C   0  0  0  0  0  0  0  0  0  0  0  0
   18.5802   -9.5133  -18.0441 C   0  0  0  0  0  0  0  0  0  0  0  0
   17.6326   -9.6582  -17.0294 C   0  0  0  0  0  0  0  0  0  0  0  0
   16.4352   -9.7915  -17.6470 N   0  0  0  0  0  0  0  0  0  0  0  0
   16.5885   -9.7378  -18.9640 C   0  0  0  0  0  0  0  0  0  0  0  0
   17.8991   -9.5686  -19.1718 N   0  0  0  0  0  0  0  0  0  0  0  0
   20.4445  -11.7520  -17.7566 C   0  0  0  0  0  0  0  0  0  0  0  0
   21.3831  -12.1749  -18.4981 O   0  0  0  0  0  0  0  0  0  0  0  0
   19.3149  -12.5502  -17.7443 O   0  0  0  0  0  0  0  0  0  0  0  0
  2  1  1  0
  2 12  2  0
  3  2  1  0
  4  3  2  0
  4  5  1  0
  5  6  1  0
  5 11  2  0
  7  6  1  0
  7  8  1  6
  9 18  1  0
  9  7  1  0
 10  9  2  0
 11 12  1  0
 13 14  1  0
 14 16  1  0
 14 15  2  0
 17 16  1  1
 17 18  1  0
 19 17  1  0
 19 21  1  0
 20 19  2  0
 22 21  1  0
 22 23  1  6
 22 29  1  0
 24 23  1  0
 24 28  1  0
 25 24  2  0
 26 25  1  0
 26 27  1  0
 27 28  2  0
 29 30  2  0
 29 31  1  0
M  END
$$$$
