YNH.pdb
     RDKit          3D

 31 32  0  0  1  0  0  0  0  0999 V2000
   43.9446  -18.5667   -8.8332 O   0  0  0  0  0  0  0  0  0  0  0  0
   43.5235  -17.2719   -9.0702 C   0  0  0  0  0  0  0  0  0  0  0  0
   42.7594  -17.0008  -10.1868 C   0  0  0  0  0  0  0  0  0  0  0  0
   42.3506  -15.7247  -10.4104 C   0  0  0  0  0  0  0  0  0  0  0  0
   42.6696  -14.6900   -9.5647 C   0  0  0  0  0  0  0  0  0  0  0  0
   42.2012  -13.3384   -9.8555 C   0  0  0  0  0  0  0  0  0  0  0  0
   42.9065  -12.6948  -11.0431 C   0  0  2  0  0  0  0  0  0  0  0  0
   44.3009  -12.4314  -10.7346 N   0  0  0  0  0  0  0  0  0  0  0  0
   42.1710  -11.4555  -11.3704 C   0  0  0  0  0  0  0  0  0  0  0  0
   42.6434  -10.3591  -10.9846 O   0  0  0  0  0  0  0  0  0  0  0  0
   43.4276  -14.9340   -8.4489 C   0  0  0  0  0  0  0  0  0  0  0  0
   43.8452  -16.2328   -8.2190 C   0  0  0  0  0  0  0  0  0  0  0  0
   38.6452   -8.2587  -13.5975 N   0  0  0  0  0  0  0  0  0  0  0  0
   38.4300   -9.5839  -14.0969 C   0  0  0  0  0  0  0  0  0  0  0  0
   37.5179   -9.7455  -14.9462 O   0  0  0  0  0  0  0  0  0  0  0  0
   39.2712  -10.6814  -13.6038 C   0  0  0  0  0  0  0  0  0  0  0  0
   40.2092  -10.3407  -12.5124 C   0  0  2  0  0  0  0  0  0  0  0  0
   40.9677  -11.5442  -12.1027 N   0  0  0  0  0  0  0  0  0  0  0  0
   39.5476   -9.8052  -11.3116 C   0  0  0  0  0  0  0  0  0  0  0  0
   39.1331  -10.6016  -10.3979 O   0  0  0  0  0  0  0  0  0  0  0  0
   39.3385   -8.4374  -11.0872 N   0  0  0  0  0  0  0  0  0  0  0  0
   38.7067   -8.0110   -9.8128 C   0  0  1  0  0  0  0  0  0  0  0  0
   39.7774   -8.1832   -8.7688 C   0  0  0  0  0  0  0  0  0  0  0  0
   39.5333   -9.3878   -7.9612 C   0  0  0  0  0  0  0  0  0  0  0  0
   40.5460  -10.3029   -7.6680 C   0  0  0  0  0  0  0  0  0  0  0  0
   39.9733  -11.2719   -6.9157 N   0  0  0  0  0  0  0  0  0  0  0  0
   38.6855  -11.0102   -6.7314 C   0  0  0  0  0  0  0  0  0  0  0  0
   38.4507   -9.8624   -7.3770 N   0  0  0  0  0  0  0  0  0  0  0  0
   38.3783   -6.5723   -9.9729 C   0  0  0  0  0  0  0  0  0  0  0  0
   38.7468   -5.8884  -10.9760 O   0  0  0  0  0  0  0  0  0  0  0  0
   37.6421   -5.8707   -9.0355 O   0  0  0  0  0  0  0  0  0  0  0  0
  2  1  1  0
  2 12  2  0
  3  2  1  0
  4  3  2  0
  4  5  1  0
  5  6  1  0
  5 11  2  0
  7  6  1  0
  7  8  1  1
  9 18  1  0
  9  7  1  0
 10  9  2  0
 11 12  1  0
 13 14  1  0
 14 16  1  0
 14 15  2  0
 17 16  1  6
 17 18  1  0
 19 17  1  0
 19 21  1  0
 20 19  2  0
 22 21  1  0
 22 23  1  1
 22 29  1  0
 24 23  1  0
 24 28  1  0
 25 24  2  0
 26 25  1  0
 26 27  1  0
 27 28  2  0
 29 30  2  0
 29 31  1  0
M  END
$$$$
