YNH.pdb
     RDKit          3D

 31 32  0  0  1  0  0  0  0  0999 V2000
   27.2291  -30.8456  -17.5505 O   0  0  0  0  0  0  0  0  0  0  0  0
   27.0148  -29.5248  -17.2047 C   0  0  0  0  0  0  0  0  0  0  0  0
   27.7829  -28.9502  -16.2127 C   0  0  0  0  0  0  0  0  0  0  0  0
   27.5642  -27.6512  -15.8804 C   0  0  0  0  0  0  0  0  0  0  0  0
   26.6044  -26.8848  -16.4961 C   0  0  0  0  0  0  0  0  0  0  0  0
   26.4150  -25.4933  -16.0979 C   0  0  0  0  0  0  0  0  0  0  0  0
   27.0761  -24.4971  -17.0427 C   0  0  2  0  0  0  0  0  0  0  0  0
   28.5180  -24.6693  -17.0478 N   0  0  0  0  0  0  0  0  0  0  0  0
   26.6845  -23.1438  -16.5964 C   0  0  0  0  0  0  0  0  0  0  0  0
   27.4654  -22.5116  -15.8450 O   0  0  0  0  0  0  0  0  0  0  0  0
   25.8286  -27.4330  -17.4844 C   0  0  0  0  0  0  0  0  0  0  0  0
   26.0495  -28.7557  -17.8246 C   0  0  0  0  0  0  0  0  0  0  0  0
   24.4203  -18.4727  -16.5457 N   0  0  0  0  0  0  0  0  0  0  0  0
   24.6639  -19.0091  -17.8514 C   0  0  0  0  0  0  0  0  0  0  0  0
   24.5946  -18.2205  -18.8274 O   0  0  0  0  0  0  0  0  0  0  0  0
   24.9800  -20.4358  -17.9930 C   0  0  0  0  0  0  0  0  0  0  0  0
   25.0593  -21.2112  -16.7363 C   0  0  2  0  0  0  0  0  0  0  0  0
   25.4517  -22.6086  -17.0275 N   0  0  0  0  0  0  0  0  0  0  0  0
   23.7922  -21.2545  -15.9888 C   0  0  0  0  0  0  0  0  0  0  0  0
   23.1504  -20.1720  -15.7498 O   0  0  0  0  0  0  0  0  0  0  0  0
   23.2153  -22.4390  -15.5099 N   0  0  0  0  0  0  0  0  0  0  0  0
   21.8136  -22.7538  -15.8856 C   0  0  1  0  0  0  0  0  0  0  0  0
   21.8255  -22.8586  -17.3873 C   0  0  0  0  0  0  0  0  0  0  0  0
   21.1160  -21.7242  -17.9977 C   0  0  0  0  0  0  0  0  0  0  0  0
   20.5601  -20.6976  -17.2324 C   0  0  0  0  0  0  0  0  0  0  0  0
   19.9956  -19.8352  -18.1103 N   0  0  0  0  0  0  0  0  0  0  0  0
   20.1692  -20.2652  -19.3536 C   0  0  0  0  0  0  0  0  0  0  0  0
   20.8514  -21.4113  -19.2510 N   0  0  0  0  0  0  0  0  0  0  0  0
   21.5096  -24.0767  -15.2851 C   0  0  0  0  0  0  0  0  0  0  0  0
   20.6727  -24.2310  -14.3442 O   0  0  0  0  0  0  0  0  0  0  0  0
   22.1195  -25.2427  -15.7116 O   0  0  0  0  0  0  0  0  0  0  0  0
  2  1  1  0
  2 12  2  0
  3  2  1  0
  4  3  2  0
  4  5  1  0
  5  6  1  0
  5 11  2  0
  7  6  1  0
  7  8  1  1
  9 18  1  0
  9  7  1  0
 10  9  2  0
 11 12  1  0
 13 14  1  0
 14 16  1  0
 14 15  2  0
 17 16  1  6
 17 18  1  0
 19 17  1  0
 19 21  1  0
 20 19  2  0
 22 21  1  0
 22 23  1  6
 22 29  1  0
 24 23  1  0
 24 28  1  0
 25 24  2  0
 26 25  1  0
 26 27  1  0
 27 28  2  0
 29 30  2  0
 29 31  1  0
M  END
$$$$
