YNH.pdb
     RDKit          3D

 31 32  0  0  1  0  0  0  0  0999 V2000
   35.4482  -12.1733  -18.0139 O   0  0  0  0  0  0  0  0  0  0  0  0
   34.0992  -12.2399  -18.3065 C   0  0  0  0  0  0  0  0  0  0  0  0
   33.6909  -12.8005  -19.4995 C   0  0  0  0  0  0  0  0  0  0  0  0
   32.3624  -12.8612  -19.7774 C   0  0  0  0  0  0  0  0  0  0  0  0
   31.4065  -12.3843  -18.9135 C   0  0  0  0  0  0  0  0  0  0  0  0
   29.9929  -12.4775  -19.2652 C   0  0  0  0  0  0  0  0  0  0  0  0
   29.3341  -13.7672  -18.7911 C   0  0  2  0  0  0  0  0  0  0  0  0
   30.0923  -14.9255  -19.2296 N   0  0  0  0  0  0  0  0  0  0  0  0
   27.9558  -13.7769  -19.3245 C   0  0  0  0  0  0  0  0  0  0  0  0
   27.2069  -12.8040  -19.0663 O   0  0  0  0  0  0  0  0  0  0  0  0
   31.7872  -11.8229  -17.7222 C   0  0  0  0  0  0  0  0  0  0  0  0
   33.1394  -11.7599  -17.4369 C   0  0  0  0  0  0  0  0  0  0  0  0
   24.5220  -14.6579  -23.7591 N   0  0  0  0  0  0  0  0  0  0  0  0
   25.0024  -15.6132  -22.8059 C   0  0  0  0  0  0  0  0  0  0  0  0
   24.3001  -16.6348  -22.6002 O   0  0  0  0  0  0  0  0  0  0  0  0
   26.2761  -15.3633  -22.1199 C   0  0  0  0  0  0  0  0  0  0  0  0
   26.1796  -14.9254  -20.7107 C   0  0  2  0  0  0  0  0  0  0  0  0
   27.5285  -14.8738  -20.1031 N   0  0  0  0  0  0  0  0  0  0  0  0
   25.3514  -15.8086  -19.8738 C   0  0  0  0  0  0  0  0  0  0  0  0
   25.8903  -16.7817  -19.2384 O   0  0  0  0  0  0  0  0  0  0  0  0
   23.9681  -15.6497  -19.7124 N   0  0  0  0  0  0  0  0  0  0  0  0
   23.2317  -16.6200  -18.8632 C   0  0  1  0  0  0  0  0  0  0  0  0
   22.7576  -15.8215  -17.6784 C   0  0  0  0  0  0  0  0  0  0  0  0
   21.9210  -16.6447  -16.7922 C   0  0  0  0  0  0  0  0  0  0  0  0
   21.7143  -18.0063  -17.0200 C   0  0  0  0  0  0  0  0  0  0  0  0
   20.9072  -18.4381  -16.0225 N   0  0  0  0  0  0  0  0  0  0  0  0
   20.6093  -17.4357  -15.2056 C   0  0  0  0  0  0  0  0  0  0  0  0
   21.2388  -16.3636  -15.6994 N   0  0  0  0  0  0  0  0  0  0  0  0
   22.0704  -17.0776  -19.6665 C   0  0  0  0  0  0  0  0  0  0  0  0
   21.5760  -16.3950  -20.6147 O   0  0  0  0  0  0  0  0  0  0  0  0
   21.4415  -18.2883  -19.4384 O   0  0  0  0  0  0  0  0  0  0  0  0
  2  1  1  0
  2 12  2  0
  3  2  1  0
  4  3  2  0
  4  5  1  0
  5  6  1  0
  5 11  2  0
  7  6  1  0
  7  8  1  6
  9 18  1  0
  9  7  1  0
 10  9  2  0
 11 12  1  0
 13 14  1  0
 14 16  1  0
 14 15  2  0
 17 16  1  6
 17 18  1  0
 19 17  1  0
 19 21  1  0
 20 19  2  0
 22 21  1  0
 22 23  1  1
 22 29  1  0
 24 23  1  0
 24 28  1  0
 25 24  2  0
 26 25  1  0
 26 27  1  0
 27 28  2  0
 29 30  2  0
 29 31  1  0
M  END
$$$$
