YNH.pdb
     RDKit          3D

 31 32  0  0  1  0  0  0  0  0999 V2000
   20.2855  -11.7607  -24.2413 O   0  0  0  0  0  0  0  0  0  0  0  0
   19.9199  -10.7711  -23.3486 C   0  0  0  0  0  0  0  0  0  0  0  0
   20.8629  -10.2569  -22.4823 C   0  0  0  0  0  0  0  0  0  0  0  0
   20.4932   -9.2843  -21.6089 C   0  0  0  0  0  0  0  0  0  0  0  0
   19.2120   -8.7912  -21.5545 C   0  0  0  0  0  0  0  0  0  0  0  0
   18.8726   -7.7446  -20.5953 C   0  0  0  0  0  0  0  0  0  0  0  0
   18.9731   -8.1970  -19.1436 C   0  0  2  0  0  0  0  0  0  0  0  0
   18.0463   -9.2826  -18.8760 N   0  0  0  0  0  0  0  0  0  0  0  0
   18.6987   -7.0172  -18.2970 C   0  0  0  0  0  0  0  0  0  0  0  0
   18.6005   -5.8944  -18.8481 O   0  0  0  0  0  0  0  0  0  0  0  0
   18.2572   -9.2860  -22.4047 C   0  0  0  0  0  0  0  0  0  0  0  0
   18.6314  -10.2764  -23.2952 C   0  0  0  0  0  0  0  0  0  0  0  0
   22.0339   -7.9363  -14.5052 N   0  0  0  0  0  0  0  0  0  0  0  0
   21.9262   -8.5026  -15.8166 C   0  0  0  0  0  0  0  0  0  0  0  0
   22.8831   -9.2057  -16.2280 O   0  0  0  0  0  0  0  0  0  0  0  0
   20.7208   -8.2424  -16.6132 C   0  0  0  0  0  0  0  0  0  0  0  0
   19.7267   -7.3303  -16.0076 C   0  0  2  0  0  0  0  0  0  0  0  0
   18.5565   -7.1901  -16.9034 N   0  0  0  0  0  0  0  0  0  0  0  0
   20.2479   -5.9788  -15.7468 C   0  0  0  0  0  0  0  0  0  0  0  0
   20.3932   -5.5681  -14.5421 O   0  0  0  0  0  0  0  0  0  0  0  0
   20.6155   -5.0814  -16.7590 N   0  0  0  0  0  0  0  0  0  0  0  0
   21.2011   -3.7720  -16.3749 C   0  0  1  0  0  0  0  0  0  0  0  0
   22.1894   -3.4511  -17.4642 C   0  0  0  0  0  0  0  0  0  0  0  0
   23.3218   -4.3891  -17.4376 C   0  0  0  0  0  0  0  0  0  0  0  0
   24.1315   -4.5436  -16.3110 C   0  0  0  0  0  0  0  0  0  0  0  0
   25.0583   -5.4753  -16.6368 N   0  0  0  0  0  0  0  0  0  0  0  0
   24.8688   -5.8972  -17.8805 C   0  0  0  0  0  0  0  0  0  0  0  0
   23.8095   -5.2201  -18.3377 N   0  0  0  0  0  0  0  0  0  0  0  0
   20.0840   -2.7948  -16.3969 C   0  0  0  0  0  0  0  0  0  0  0  0
   19.1592   -2.8241  -17.2649 O   0  0  0  0  0  0  0  0  0  0  0  0
   19.9700   -1.7775  -15.4667 O   0  0  0  0  0  0  0  0  0  0  0  0
  2  1  1  0
  2 12  2  0
  3  2  1  0
  4  3  2  0
  4  5  1  0
  5  6  1  0
  5 11  2  0
  7  6  1  0
  7  8  1  6
  9 18  1  0
  9  7  1  0
 10  9  2  0
 11 12  1  0
 13 14  1  0
 14 16  1  0
 14 15  2  0
 17 16  1  6
 17 18  1  0
 19 17  1  0
 19 21  1  0
 20 19  2  0
 22 21  1  0
 22 23  1  6
 22 29  1  0
 24 23  1  0
 24 28  1  0
 25 24  2  0
 26 25  1  0
 26 27  1  0
 27 28  2  0
 29 30  2  0
 29 31  1  0
M  END
$$$$
