YNH.pdb
     RDKit          3D

 31 32  0  0  1  0  0  0  0  0999 V2000
   31.1736   -9.2507  -20.0768 O   0  0  0  0  0  0  0  0  0  0  0  0
   29.9375   -9.4338  -19.4863 C   0  0  0  0  0  0  0  0  0  0  0  0
   29.2968   -8.3579  -18.9066 C   0  0  0  0  0  0  0  0  0  0  0  0
   28.0821   -8.5486  -18.3290 C   0  0  0  0  0  0  0  0  0  0  0  0
   27.4648   -9.7757  -18.2994 C   0  0  0  0  0  0  0  0  0  0  0  0
   26.1581   -9.9207  -17.6652 C   0  0  0  0  0  0  0  0  0  0  0  0
   26.2215   -9.9340  -16.1427 C   0  0  2  0  0  0  0  0  0  0  0  0
   27.0267  -11.0459  -15.6693 N   0  0  0  0  0  0  0  0  0  0  0  0
   24.8314  -10.0102  -15.6470 C   0  0  0  0  0  0  0  0  0  0  0  0
   24.3636  -11.1348  -15.3460 O   0  0  0  0  0  0  0  0  0  0  0  0
   28.0813  -10.8598  -18.8685 C   0  0  0  0  0  0  0  0  0  0  0  0
   29.3184  -10.6681  -19.4574 C   0  0  0  0  0  0  0  0  0  0  0  0
   20.0530   -8.4598  -14.0906 N   0  0  0  0  0  0  0  0  0  0  0  0
   20.8789   -7.2973  -14.2261 C   0  0  0  0  0  0  0  0  0  0  0  0
   20.3749   -6.1863  -13.9244 O   0  0  0  0  0  0  0  0  0  0  0  0
   22.2586   -7.4497  -14.7039 C   0  0  0  0  0  0  0  0  0  0  0  0
   22.6797   -8.8259  -15.0442 C   0  0  2  0  0  0  0  0  0  0  0  0
   24.0786   -8.8222  -15.5284 N   0  0  0  0  0  0  0  0  0  0  0  0
   21.8529   -9.4550  -16.0867 C   0  0  0  0  0  0  0  0  0  0  0  0
   21.8745   -9.0010  -17.2843 O   0  0  0  0  0  0  0  0  0  0  0  0
   21.0201  -10.5584  -15.8542 N   0  0  0  0  0  0  0  0  0  0  0  0
   20.2126  -11.0938  -16.9795 C   0  0  1  0  0  0  0  0  0  0  0  0
   20.6153  -12.5396  -17.0965 C   0  0  0  0  0  0  0  0  0  0  0  0
   19.8302  -13.2200  -18.1373 C   0  0  0  0  0  0  0  0  0  0  0  0
   18.8988  -12.5428  -18.9263 C   0  0  0  0  0  0  0  0  0  0  0  0
   18.3730  -13.4656  -19.7660 N   0  0  0  0  0  0  0  0  0  0  0  0
   18.9188  -14.6543  -19.5429 C   0  0  0  0  0  0  0  0  0  0  0  0
   19.7973  -14.4717  -18.5507 N   0  0  0  0  0  0  0  0  0  0  0  0
   18.7932  -10.9931  -16.5572 C   0  0  0  0  0  0  0  0  0  0  0  0
   18.4221  -11.1207  -15.3508 O   0  0  0  0  0  0  0  0  0  0  0  0
   17.7681  -10.7504  -17.4535 O   0  0  0  0  0  0  0  0  0  0  0  0
  2  1  1  0
  2 12  2  0
  3  2  1  0
  4  3  2  0
  4  5  1  0
  5  6  1  0
  5 11  2  0
  7  6  1  0
  7  8  1  6
  9 18  1  0
  9  7  1  0
 10  9  2  0
 11 12  1  0
 13 14  1  0
 14 16  1  0
 14 15  2  0
 17 16  1  6
 17 18  1  0
 19 17  1  0
 19 21  1  0
 20 19  2  0
 22 21  1  0
 22 23  1  1
 22 29  1  0
 24 23  1  0
 24 28  1  0
 25 24  2  0
 26 25  1  0
 26 27  1  0
 27 28  2  0
 29 30  2  0
 29 31  1  0
M  END
$$$$
