YNH.pdb
     RDKit          3D

 31 32  0  0  1  0  0  0  0  0999 V2000
   26.7383  -20.0083  -15.9436 O   0  0  0  0  0  0  0  0  0  0  0  0
   26.6493  -18.6441  -15.7411 C   0  0  0  0  0  0  0  0  0  0  0  0
   25.4064  -18.0500  -15.6603 C   0  0  0  0  0  0  0  0  0  0  0  0
   25.3300  -16.7084  -15.4609 C   0  0  0  0  0  0  0  0  0  0  0  0
   26.4465  -15.9174  -15.3362 C   0  0  0  0  0  0  0  0  0  0  0  0
   26.3031  -14.4806  -15.1220 C   0  0  0  0  0  0  0  0  0  0  0  0
   25.2503  -13.8366  -16.0160 C   0  0  2  0  0  0  0  0  0  0  0  0
   25.5224  -14.1130  -17.4154 N   0  0  0  0  0  0  0  0  0  0  0  0
   25.2592  -12.3869  -15.7289 C   0  0  0  0  0  0  0  0  0  0  0  0
   25.1603  -12.0120  -14.5357 O   0  0  0  0  0  0  0  0  0  0  0  0
   27.6923  -16.4841  -15.4130 C   0  0  0  0  0  0  0  0  0  0  0  0
   27.7727  -17.8502  -15.6160 C   0  0  0  0  0  0  0  0  0  0  0  0
   25.3432   -7.1955  -16.5105 N   0  0  0  0  0  0  0  0  0  0  0  0
   26.2075   -7.8490  -17.4474 C   0  0  0  0  0  0  0  0  0  0  0  0
   26.9233   -7.1243  -18.1833 O   0  0  0  0  0  0  0  0  0  0  0  0
   26.2212   -9.3158  -17.5078 C   0  0  0  0  0  0  0  0  0  0  0  0
   25.2864  -10.0120  -16.5977 C   0  0  2  0  0  0  0  0  0  0  0  0
   25.3785  -11.4756  -16.8001 N   0  0  0  0  0  0  0  0  0  0  0  0
   23.8789   -9.6269  -16.7902 C   0  0  0  0  0  0  0  0  0  0  0  0
   23.3262   -9.7664  -17.9373 O   0  0  0  0  0  0  0  0  0  0  0  0
   23.0714   -9.1068  -15.7692 N   0  0  0  0  0  0  0  0  0  0  0  0
   21.6777   -8.7096  -16.0929 C   0  0  1  0  0  0  0  0  0  0  0  0
   20.8393   -9.2860  -14.9834 C   0  0  0  0  0  0  0  0  0  0  0  0
   19.4228   -8.9308  -15.1579 C   0  0  0  0  0  0  0  0  0  0  0  0
   18.9742   -8.1803  -16.2461 C   0  0  0  0  0  0  0  0  0  0  0  0
   17.6364   -8.0467  -16.0871 N   0  0  0  0  0  0  0  0  0  0  0  0
   17.2411   -8.6625  -14.9801 C   0  0  0  0  0  0  0  0  0  0  0  0
   18.3467   -9.1878  -14.4405 N   0  0  0  0  0  0  0  0  0  0  0  0
   21.6450   -7.2267  -16.0383 C   0  0  0  0  0  0  0  0  0  0  0  0
   22.4752   -6.5430  -15.3654 O   0  0  0  0  0  0  0  0  0  0  0  0
   20.7025   -6.4798  -16.7218 O   0  0  0  0  0  0  0  0  0  0  0  0
  2  1  1  0
  2 12  2  0
  3  2  1  0
  4  3  2  0
  4  5  1  0
  5  6  1  0
  5 11  2  0
  7  6  1  0
  7  8  1  6
  9 18  1  0
  9  7  1  0
 10  9  2  0
 11 12  1  0
 13 14  1  0
 14 16  1  0
 14 15  2  0
 17 16  1  6
 17 18  1  0
 19 17  1  0
 19 21  1  0
 20 19  2  0
 22 21  1  0
 22 23  1  1
 22 29  1  0
 24 23  1  0
 24 28  1  0
 25 24  2  0
 26 25  1  0
 26 27  1  0
 27 28  2  0
 29 30  2  0
 29 31  1  0
M  END
$$$$
