YNH.pdb
     RDKit          3D

 31 32  0  0  1  0  0  0  0  0999 V2000
   31.5142  -16.8780  -24.9887 O   0  0  0  0  0  0  0  0  0  0  0  0
   30.6451  -16.2979  -24.0841 C   0  0  0  0  0  0  0  0  0  0  0  0
   29.2860  -16.3573  -24.3155 C   0  0  0  0  0  0  0  0  0  0  0  0
   28.4404  -15.7840  -23.4200 C   0  0  0  0  0  0  0  0  0  0  0  0
   28.8877  -15.1450  -22.2890 C   0  0  0  0  0  0  0  0  0  0  0  0
   27.9319  -14.5479  -21.3614 C   0  0  0  0  0  0  0  0  0  0  0  0
   27.2876  -13.2730  -21.8922 C   0  0  2  0  0  0  0  0  0  0  0  0
   28.2801  -12.2276  -22.0679 N   0  0  0  0  0  0  0  0  0  0  0  0
   26.2373  -12.8794  -20.9299 C   0  0  0  0  0  0  0  0  0  0  0  0
   26.2528  -11.7120  -20.4707 O   0  0  0  0  0  0  0  0  0  0  0  0
   30.2333  -15.0727  -22.0371 C   0  0  0  0  0  0  0  0  0  0  0  0
   31.0965  -15.6558  -22.9475 C   0  0  0  0  0  0  0  0  0  0  0  0
   21.7595  -12.6225  -18.3853 N   0  0  0  0  0  0  0  0  0  0  0  0
   22.1572  -11.9103  -19.5628 C   0  0  0  0  0  0  0  0  0  0  0  0
   21.4538  -10.9308  -19.9167 O   0  0  0  0  0  0  0  0  0  0  0  0
   23.3518  -12.3471  -20.2959 C   0  0  0  0  0  0  0  0  0  0  0  0
   24.1099  -13.4654  -19.6944 C   0  0  2  0  0  0  0  0  0  0  0  0
   25.2557  -13.8239  -20.5604 N   0  0  0  0  0  0  0  0  0  0  0  0
   23.3074  -14.6833  -19.4966 C   0  0  0  0  0  0  0  0  0  0  0  0
   22.8384  -15.3144  -20.5079 O   0  0  0  0  0  0  0  0  0  0  0  0
   23.0163  -15.2231  -18.2362 N   0  0  0  0  0  0  0  0  0  0  0  0
   22.2547  -16.4957  -18.1625 C   0  0  1  0  0  0  0  0  0  0  0  0
   22.7103  -17.1507  -16.8860 C   0  0  0  0  0  0  0  0  0  0  0  0
   21.9923  -18.4141  -16.6597 C   0  0  0  0  0  0  0  0  0  0  0  0
   20.7574  -18.4602  -16.0104 C   0  0  0  0  0  0  0  0  0  0  0  0
   20.3953  -19.7644  -15.9795 N   0  0  0  0  0  0  0  0  0  0  0  0
   21.3222  -20.5130  -16.5638 C   0  0  0  0  0  0  0  0  0  0  0  0
   22.2760  -19.6651  -16.9650 N   0  0  0  0  0  0  0  0  0  0  0  0
   20.8231  -16.1176  -18.0581 C   0  0  0  0  0  0  0  0  0  0  0  0
   20.4355  -15.0131  -17.5688 O   0  0  0  0  0  0  0  0  0  0  0  0
   19.8035  -16.9465  -18.4902 O   0  0  0  0  0  0  0  0  0  0  0  0
  2  1  1  0
  2 12  2  0
  3  2  1  0
  4  3  2  0
  4  5  1  0
  5  6  1  0
  5 11  2  0
  7  6  1  0
  7  8  1  1
  9 18  1  0
  9  7  1  0
 10  9  2  0
 11 12  1  0
 13 14  1  0
 14 16  1  0
 14 15  2  0
 17 16  1  6
 17 18  1  0
 19 17  1  0
 19 21  1  0
 20 19  2  0
 22 21  1  0
 22 23  1  1
 22 29  1  0
 24 23  1  0
 24 28  1  0
 25 24  2  0
 26 25  1  0
 26 27  1  0
 27 28  2  0
 29 30  2  0
 29 31  1  0
M  END
$$$$
