YNH.pdb
     RDKit          3D

 31 32  0  0  1  0  0  0  0  0999 V2000
   20.6747  -18.4262  -18.7579 O   0  0  0  0  0  0  0  0  0  0  0  0
   20.0944  -17.1912  -18.5391 C   0  0  0  0  0  0  0  0  0  0  0  0
   18.7948  -17.1242  -18.0799 C   0  0  0  0  0  0  0  0  0  0  0  0
   18.2338  -15.9052  -17.8681 C   0  0  0  0  0  0  0  0  0  0  0  0
   18.9127  -14.7324  -18.0942 C   0  0  0  0  0  0  0  0  0  0  0  0
   18.2586  -13.4510  -17.8477 C   0  0  0  0  0  0  0  0  0  0  0  0
   17.7988  -13.2726  -16.4058 C   0  0  2  0  0  0  0  0  0  0  0  0
   16.7889  -14.2574  -16.0605 N   0  0  0  0  0  0  0  0  0  0  0  0
   17.2886  -11.8916  -16.2763 C   0  0  0  0  0  0  0  0  0  0  0  0
   16.0522  -11.6989  -16.3675 O   0  0  0  0  0  0  0  0  0  0  0  0
   20.2047  -14.7728  -18.5505 C   0  0  0  0  0  0  0  0  0  0  0  0
   20.7783  -16.0130  -18.7670 C   0  0  0  0  0  0  0  0  0  0  0  0
   16.8216   -6.8620  -15.2401 N   0  0  0  0  0  0  0  0  0  0  0  0
   16.3512   -7.9652  -14.4568 C   0  0  0  0  0  0  0  0  0  0  0  0
   15.5707   -7.7129  -13.5048 O   0  0  0  0  0  0  0  0  0  0  0  0
   16.7933   -9.3240  -14.7939 C   0  0  0  0  0  0  0  0  0  0  0  0
   17.7608   -9.4348  -15.9068 C   0  0  2  0  0  0  0  0  0  0  0  0
   18.2032  -10.8397  -16.0551 N   0  0  0  0  0  0  0  0  0  0  0  0
   18.9655   -8.6089  -15.7256 C   0  0  0  0  0  0  0  0  0  0  0  0
   19.7566   -8.8341  -14.7436 O   0  0  0  0  0  0  0  0  0  0  0  0
   19.3236   -7.5617  -16.5860 N   0  0  0  0  0  0  0  0  0  0  0  0
   20.6131   -6.8608  -16.3603 C   0  0  1  0  0  0  0  0  0  0  0  0
   20.8162   -6.0116  -17.5865 C   0  0  0  0  0  0  0  0  0  0  0  0
   22.0360   -5.1990  -17.4654 C   0  0  0  0  0  0  0  0  0  0  0  0
   23.1706   -5.6585  -16.7944 C   0  0  0  0  0  0  0  0  0  0  0  0
   24.0879   -4.6665  -16.8801 N   0  0  0  0  0  0  0  0  0  0  0  0
   23.5911   -3.6378  -17.5552 C   0  0  0  0  0  0  0  0  0  0  0  0
   22.3468   -3.9920  -17.8957 N   0  0  0  0  0  0  0  0  0  0  0  0
   20.4137   -5.9969  -15.1699 C   0  0  0  0  0  0  0  0  0  0  0  0
   19.3694   -5.2989  -14.9917 O   0  0  0  0  0  0  0  0  0  0  0  0
   21.3567   -5.8915  -14.1635 O   0  0  0  0  0  0  0  0  0  0  0  0
  2  1  1  0
  2 12  2  0
  3  2  1  0
  4  3  2  0
  4  5  1  0
  5  6  1  0
  5 11  2  0
  7  6  1  0
  7  8  1  6
  9 18  1  0
  9  7  1  0
 10  9  2  0
 11 12  1  0
 13 14  1  0
 14 16  1  0
 14 15  2  0
 17 16  1  1
 17 18  1  0
 19 17  1  0
 19 21  1  0
 20 19  2  0
 22 21  1  0
 22 23  1  6
 22 29  1  0
 24 23  1  0
 24 28  1  0
 25 24  2  0
 26 25  1  0
 26 27  1  0
 27 28  2  0
 29 30  2  0
 29 31  1  0
M  END
$$$$
