AML.pdb
     RDKit          3D

 22 21  0  0  1  0  0  0  0  0999 V2000
    5.2338  -19.7405   23.8245 C   0  0  0  0  0  0  0  0  0  0  0  0
    5.5636  -19.3980   22.3658 C   0  0  2  0  0  0  0  0  0  0  0  0
    5.9365  -20.6330   21.7110 N   0  0  0  0  0  0  0  0  0  0  0  0
    6.6787  -18.4234   22.3074 C   0  0  0  0  0  0  0  0  0  0  0  0
    7.8257  -18.7976   22.6442 O   0  0  0  0  0  0  0  0  0  0  0  0
    7.8614  -11.4989   20.1737 C   0  0  0  0  0  0  0  0  0  0  0  0
    8.0550  -13.0419   19.2531 S   0  0  0  0  0  0  0  0  0  0  0  0
    8.4775  -14.3555   20.4392 C   0  0  0  0  0  0  0  0  0  0  0  0
    7.1807  -15.0102   20.8485 C   0  0  0  0  0  0  0  0  0  0  0  0
    7.4654  -16.0762   21.9020 C   0  0  2  0  0  0  0  0  0  0  0  0
    6.4548  -17.0932   21.8794 N   0  0  0  0  0  0  0  0  0  0  0  0
    7.5860  -15.4018   23.2222 C   0  0  0  0  0  0  0  0  0  0  0  0
    6.5488  -14.8527   23.6715 O   0  0  0  0  0  0  0  0  0  0  0  0
    5.7620  -12.8424   26.8488 C   0  0  0  0  0  0  0  0  0  0  0  0
    7.2095  -13.1966   26.6138 C   0  0  2  0  0  0  0  0  0  0  0  0
    8.0363  -11.9586   26.6775 C   0  0  0  0  0  0  0  0  0  0  0  0
    7.4573  -14.1495   25.5259 C   0  0  0  0  0  0  0  0  0  0  0  0
    8.8203  -14.6499   25.2634 C   0  0  2  0  0  0  0  0  0  0  0  0
    8.7897  -15.3617   23.9596 N   0  0  0  0  0  0  0  0  0  0  0  0
    9.4324  -15.5297   26.2619 C   0  0  0  0  0  0  0  0  0  0  0  0
    9.0203  -16.8094   26.5816 O   0  0  0  0  0  0  0  0  0  0  0  0
   10.4523  -15.1327   26.9443 O   0  0  0  0  0  0  0  0  0  0  0  0
  2  1  1  1
  2  3  1  0
  4  2  1  0
  5  4  2  0
  7  6  1  0
  8  7  1  0
  8  9  1  0
 10  9  1  6
 10 12  1  0
 10 11  1  0
 11  4  1  0
 12 19  1  0
 13 12  2  0
 15 14  1  6
 16 15  1  0
 17 15  1  0
 18 17  1  1
 18 20  1  0
 19 18  1  0
 20 21  1  0
 22 20  2  0
M  END
$$$$
