AML.pdb
     RDKit          3D

 22 21  0  0  1  0  0  0  0  0999 V2000
    9.7205  -18.9042   20.9821 C   0  0  0  0  0  0  0  0  0  0  0  0
    9.4110  -17.4490   20.6075 C   0  0  2  0  0  0  0  0  0  0  0  0
   10.2877  -17.0942   19.5127 N   0  0  0  0  0  0  0  0  0  0  0  0
    9.6467  -16.5592   21.7691 C   0  0  0  0  0  0  0  0  0  0  0  0
   10.8055  -16.1310   21.9762 O   0  0  0  0  0  0  0  0  0  0  0  0
    6.3083  -11.5018   26.7071 C   0  0  0  0  0  0  0  0  0  0  0  0
    6.0409  -12.8231   25.5036 S   0  0  0  0  0  0  0  0  0  0  0  0
    7.6386  -13.6391   25.1997 C   0  0  0  0  0  0  0  0  0  0  0  0
    7.4149  -14.6431   24.0952 C   0  0  0  0  0  0  0  0  0  0  0  0
    8.7401  -15.3154   23.7499 C   0  0  2  0  0  0  0  0  0  0  0  0
    8.5836  -16.1980   22.6307 N   0  0  0  0  0  0  0  0  0  0  0  0
    9.2424  -16.0021   24.9698 C   0  0  0  0  0  0  0  0  0  0  0  0
    8.7812  -17.1479   25.2020 O   0  0  0  0  0  0  0  0  0  0  0  0
    9.8682  -13.3798   27.5685 C   0  0  0  0  0  0  0  0  0  0  0  0
    9.8631  -14.6190   28.4288 C   0  0  2  0  0  0  0  0  0  0  0  0
    9.6580  -14.2296   29.8524 C   0  0  0  0  0  0  0  0  0  0  0  0
   10.8999  -15.6089   28.1156 C   0  0  0  0  0  0  0  0  0  0  0  0
   10.9128  -16.2933   26.8085 C   0  0  2  0  0  0  0  0  0  0  0  0
   10.1892  -15.4248   25.8442 N   0  0  0  0  0  0  0  0  0  0  0  0
   10.3494  -17.6434   26.7353 C   0  0  0  0  0  0  0  0  0  0  0  0
    9.2465  -18.0266   25.9960 O   0  0  0  0  0  0  0  0  0  0  0  0
   10.8825  -18.6104   27.4018 O   0  0  0  0  0  0  0  0  0  0  0  0
  2  1  1  1
  2  3  1  0
  4  2  1  0
  5  4  2  0
  7  6  1  0
  8  7  1  0
  8  9  1  0
 10  9  1  1
 10 12  1  0
 10 11  1  0
 11  4  1  0
 12 19  1  0
 13 12  2  0
 15 14  1  6
 16 15  1  0
 17 15  1  0
 18 17  1  1
 18 20  1  0
 19 18  1  0
 20 21  1  0
 22 20  2  0
M  END
$$$$
