AML.pdb
     RDKit          3D

 22 21  0  0  1  0  0  0  0  0999 V2000
    5.0585  -20.4688   25.4313 C   0  0  0  0  0  0  0  0  0  0  0  0
    6.4334  -19.9416   25.0005 C   0  0  2  0  0  0  0  0  0  0  0  0
    7.3229  -20.0946   26.1311 N   0  0  0  0  0  0  0  0  0  0  0  0
    6.3357  -18.5159   24.6074 C   0  0  0  0  0  0  0  0  0  0  0  0
    5.6555  -18.2127   23.6002 O   0  0  0  0  0  0  0  0  0  0  0  0
    6.9073  -13.2605   28.5637 C   0  0  0  0  0  0  0  0  0  0  0  0
    7.9801  -12.8397   27.1717 S   0  0  0  0  0  0  0  0  0  0  0  0
    7.4392  -13.8106   25.7310 C   0  0  0  0  0  0  0  0  0  0  0  0
    7.5353  -15.2653   26.1216 C   0  0  0  0  0  0  0  0  0  0  0  0
    7.0141  -16.1294   24.9775 C   0  0  2  0  0  0  0  0  0  0  0  0
    6.9979  -17.5127   25.3545 N   0  0  0  0  0  0  0  0  0  0  0  0
    7.8498  -15.8608   23.7768 C   0  0  0  0  0  0  0  0  0  0  0  0
    8.9171  -16.5164   23.6747 O   0  0  0  0  0  0  0  0  0  0  0  0
    8.0199  -11.7789   19.1074 C   0  0  0  0  0  0  0  0  0  0  0  0
    8.3208  -13.1790   19.5818 C   0  0  2  0  0  0  0  0  0  0  0  0
    7.8266  -14.1579   18.5729 C   0  0  0  0  0  0  0  0  0  0  0  0
    8.0483  -13.4368   21.0003 C   0  0  0  0  0  0  0  0  0  0  0  0
    8.3737  -14.7448   21.6007 C   0  0  2  0  0  0  0  0  0  0  0  0
    7.4917  -14.9237   22.7829 N   0  0  0  0  0  0  0  0  0  0  0  0
    9.7592  -14.9860   22.0105 C   0  0  0  0  0  0  0  0  0  0  0  0
   10.7303  -15.6239   21.2624 O   0  0  0  0  0  0  0  0  0  0  0  0
   10.1754  -14.5953   23.1670 O   0  0  0  0  0  0  0  0  0  0  0  0
  2  1  1  1
  2  3  1  0
  4  2  1  0
  5  4  2  0
  7  6  1  0
  8  7  1  0
  8  9  1  0
 10  9  1  1
 10 12  1  0
 10 11  1  0
 11  4  1  0
 12 19  1  0
 13 12  2  0
 15 14  1  6
 16 15  1  0
 17 15  1  0
 18 17  1  1
 18 20  1  0
 19 18  1  0
 20 21  1  0
 22 20  2  0
M  END
$$$$
