AML.pdb
     RDKit          3D

 22 21  0  0  1  0  0  0  0  0999 V2000
    9.2224  -18.1884   20.3709 C   0  0  0  0  0  0  0  0  0  0  0  0
    8.7784  -16.7365   20.1502 C   0  0  2  0  0  0  0  0  0  0  0  0
    9.5053  -16.2372   19.0034 N   0  0  0  0  0  0  0  0  0  0  0  0
    9.0797  -15.9202   21.3501 C   0  0  0  0  0  0  0  0  0  0  0  0
   10.2298  -15.4417   21.4814 O   0  0  0  0  0  0  0  0  0  0  0  0
    5.7274  -11.0876   25.6144 C   0  0  0  0  0  0  0  0  0  0  0  0
    5.6561  -12.8783   25.8474 S   0  0  0  0  0  0  0  0  0  0  0  0
    7.2495  -13.5785   25.3166 C   0  0  0  0  0  0  0  0  0  0  0  0
    6.9905  -14.3373   24.0378 C   0  0  0  0  0  0  0  0  0  0  0  0
    8.3096  -14.8842   23.5010 C   0  0  2  0  0  0  0  0  0  0  0  0
    8.0878  -15.6837   22.3315 N   0  0  0  0  0  0  0  0  0  0  0  0
    8.9829  -15.6287   24.5986 C   0  0  0  0  0  0  0  0  0  0  0  0
    8.6531  -16.8320   24.7486 O   0  0  0  0  0  0  0  0  0  0  0  0
   10.1946  -14.6446   30.2272 C   0  0  0  0  0  0  0  0  0  0  0  0
   10.8447  -15.4029   29.0966 C   0  0  2  0  0  0  0  0  0  0  0  0
   12.2575  -15.7097   29.4573 C   0  0  0  0  0  0  0  0  0  0  0  0
   10.5598  -14.8948   27.7499 C   0  0  0  0  0  0  0  0  0  0  0  0
   10.4652  -15.8195   26.6040 C   0  0  2  0  0  0  0  0  0  0  0  0
    9.9481  -15.0435   25.4473 N   0  0  0  0  0  0  0  0  0  0  0  0
    9.6481  -17.0251   26.7609 C   0  0  0  0  0  0  0  0  0  0  0  0
    8.2692  -17.0885   26.6945 O   0  0  0  0  0  0  0  0  0  0  0  0
   10.2047  -18.1661   26.9877 O   0  0  0  0  0  0  0  0  0  0  0  0
  2  1  1  1
  2  3  1  0
  4  2  1  0
  5  4  2  0
  7  6  1  0
  8  7  1  0
  8  9  1  0
 10  9  1  1
 10 12  1  0
 10 11  1  0
 11  4  1  0
 12 19  1  0
 13 12  2  0
 15 14  1  1
 16 15  1  0
 17 15  1  0
 18 17  1  1
 18 20  1  0
 19 18  1  0
 20 21  1  0
 22 20  2  0
M  END
$$$$
