AML.pdb
     RDKit          3D

 22 21  0  0  1  0  0  0  0  0999 V2000
    9.1705  -19.4570   22.0719 C   0  0  0  0  0  0  0  0  0  0  0  0
    8.5664  -18.2326   21.3721 C   0  0  2  0  0  0  0  0  0  0  0  0
    9.0753  -18.2204   20.0179 N   0  0  0  0  0  0  0  0  0  0  0  0
    8.9557  -16.9917   22.0831 C   0  0  0  0  0  0  0  0  0  0  0  0
   10.1452  -16.6052   22.0154 O   0  0  0  0  0  0  0  0  0  0  0  0
    6.3173  -11.1339   26.6842 C   0  0  0  0  0  0  0  0  0  0  0  0
    5.9543  -12.7209   25.8998 S   0  0  0  0  0  0  0  0  0  0  0  0
    7.4564  -13.2791   25.0379 C   0  0  0  0  0  0  0  0  0  0  0  0
    7.1044  -14.5665   24.3329 C   0  0  0  0  0  0  0  0  0  0  0  0
    8.3274  -15.0775   23.5776 C   0  0  2  0  0  0  0  0  0  0  0  0
    8.0028  -16.2546   22.8258 N   0  0  0  0  0  0  0  0  0  0  0  0
    9.4213  -15.2957   24.5615 C   0  0  0  0  0  0  0  0  0  0  0  0
   10.4350  -14.5615   24.4494 O   0  0  0  0  0  0  0  0  0  0  0  0
   10.3244  -14.5491   29.8715 C   0  0  0  0  0  0  0  0  0  0  0  0
   10.6528  -14.7798   28.4173 C   0  0  2  0  0  0  0  0  0  0  0  0
   10.4910  -13.5026   27.6670 C   0  0  0  0  0  0  0  0  0  0  0  0
   10.1044  -16.0094   27.8339 C   0  0  0  0  0  0  0  0  0  0  0  0
   10.5195  -16.4511   26.4888 C   0  0  2  0  0  0  0  0  0  0  0  0
    9.3565  -16.2696   25.5820 N   0  0  0  0  0  0  0  0  0  0  0  0
   11.0190  -17.8201   26.3398 C   0  0  0  0  0  0  0  0  0  0  0  0
   12.3288  -18.2308   26.4995 O   0  0  0  0  0  0  0  0  0  0  0  0
   10.2142  -18.7784   26.0280 O   0  0  0  0  0  0  0  0  0  0  0  0
  2  1  1  1
  2  3  1  0
  4  2  1  0
  5  4  2  0
  7  6  1  0
  8  7  1  0
  8  9  1  0
 10  9  1  1
 10 12  1  0
 10 11  1  0
 11  4  1  0
 12 19  1  0
 13 12  2  0
 15 14  1  1
 16 15  1  0
 17 15  1  0
 18 17  1  1
 18 20  1  0
 19 18  1  0
 20 21  1  0
 22 20  2  0
M  END
$$$$
