AML.pdb
     RDKit          3D

 22 21  0  0  1  0  0  0  0  0999 V2000
    6.4194  -17.4065   19.2672 C   0  0  0  0  0  0  0  0  0  0  0  0
    7.6545  -17.1616   20.1438 C   0  0  2  0  0  0  0  0  0  0  0  0
    8.4163  -18.3913   20.1614 N   0  0  0  0  0  0  0  0  0  0  0  0
    7.2424  -16.7878   21.5176 C   0  0  0  0  0  0  0  0  0  0  0  0
    6.5043  -15.7881   21.6753 O   0  0  0  0  0  0  0  0  0  0  0  0
    7.1492  -20.3982   27.1080 C   0  0  0  0  0  0  0  0  0  0  0  0
    6.3984  -20.9230   25.5502 S   0  0  0  0  0  0  0  0  0  0  0  0
    6.2277  -19.4571   24.4859 C   0  0  0  0  0  0  0  0  0  0  0  0
    7.3601  -18.5241   24.8400 C   0  0  0  0  0  0  0  0  0  0  0  0
    7.2654  -17.2680   23.9795 C   0  0  2  0  0  0  0  0  0  0  0  0
    7.6733  -17.5446   22.6330 N   0  0  0  0  0  0  0  0  0  0  0  0
    8.0741  -16.2010   24.6275 C   0  0  0  0  0  0  0  0  0  0  0  0
    9.2784  -16.1161   24.2784 O   0  0  0  0  0  0  0  0  0  0  0  0
    7.2894  -11.8604   24.5679 C   0  0  0  0  0  0  0  0  0  0  0  0
    6.6511  -12.4996   25.7762 C   0  0  2  0  0  0  0  0  0  0  0  0
    5.6479  -11.5632   26.3568 C   0  0  0  0  0  0  0  0  0  0  0  0
    7.5724  -13.1911   26.6850 C   0  0  0  0  0  0  0  0  0  0  0  0
    8.4336  -14.2829   26.1917 C   0  0  2  0  0  0  0  0  0  0  0  0
    7.5470  -15.3119   25.5897 N   0  0  0  0  0  0  0  0  0  0  0  0
    9.3269  -14.9384   27.1499 C   0  0  0  0  0  0  0  0  0  0  0  0
   10.5285  -14.4395   27.6158 O   0  0  0  0  0  0  0  0  0  0  0  0
    9.0247  -16.0923   27.6403 O   0  0  0  0  0  0  0  0  0  0  0  0
  2  1  1  6
  2  3  1  0
  4  2  1  0
  5  4  2  0
  7  6  1  0
  8  7  1  0
  8  9  1  0
 10  9  1  1
 10 12  1  0
 10 11  1  0
 11  4  1  0
 12 19  1  0
 13 12  2  0
 15 14  1  6
 16 15  1  0
 17 15  1  0
 18 17  1  1
 18 20  1  0
 19 18  1  0
 20 21  1  0
 22 20  2  0
M  END
$$$$
