AML.pdb
     RDKit          3D

 22 21  0  0  1  0  0  0  0  0999 V2000
    8.6286  -18.0305   19.6288 C   0  0  0  0  0  0  0  0  0  0  0  0
    8.8340  -18.2058   21.1391 C   0  0  2  0  0  0  0  0  0  0  0  0
    7.5965  -18.7233   21.6811 N   0  0  0  0  0  0  0  0  0  0  0  0
    9.1700  -16.9052   21.7653 C   0  0  0  0  0  0  0  0  0  0  0  0
   10.2394  -16.3383   21.4427 O   0  0  0  0  0  0  0  0  0  0  0  0
    6.3752  -12.2999   27.1690 C   0  0  0  0  0  0  0  0  0  0  0  0
    6.0645  -12.5959   25.4136 S   0  0  0  0  0  0  0  0  0  0  0  0
    7.6122  -13.1852   24.6598 C   0  0  0  0  0  0  0  0  0  0  0  0
    7.2841  -14.4634   23.9273 C   0  0  0  0  0  0  0  0  0  0  0  0
    8.5651  -15.0537   23.3460 C   0  0  2  0  0  0  0  0  0  0  0  0
    8.3003  -16.3117   22.7110 N   0  0  0  0  0  0  0  0  0  0  0  0
    9.5679  -15.1511   24.4402 C   0  0  0  0  0  0  0  0  0  0  0  0
   10.2360  -14.1155   24.6864 O   0  0  0  0  0  0  0  0  0  0  0  0
   10.0792  -14.9924   29.8826 C   0  0  0  0  0  0  0  0  0  0  0  0
   10.6210  -14.9201   28.4765 C   0  0  2  0  0  0  0  0  0  0  0  0
   10.8248  -13.4929   28.0998 C   0  0  0  0  0  0  0  0  0  0  0  0
    9.9809  -15.8162   27.5068 C   0  0  0  0  0  0  0  0  0  0  0  0
   10.7272  -16.3056   26.3319 C   0  0  2  0  0  0  0  0  0  0  0  0
    9.7837  -16.3317   25.1844 N   0  0  0  0  0  0  0  0  0  0  0  0
   11.3803  -17.6131   26.4298 C   0  0  0  0  0  0  0  0  0  0  0  0
   12.7061  -17.8394   26.7475 O   0  0  0  0  0  0  0  0  0  0  0  0
   10.7134  -18.6944   26.2072 O   0  0  0  0  0  0  0  0  0  0  0  0
  2  1  1  6
  2  3  1  0
  4  2  1  0
  5  4  2  0
  7  6  1  0
  8  7  1  0
  8  9  1  0
 10  9  1  1
 10 12  1  0
 10 11  1  0
 11  4  1  0
 12 19  1  0
 13 12  2  0
 15 14  1  1
 16 15  1  0
 17 15  1  0
 18 17  1  1
 18 20  1  0
 19 18  1  0
 20 21  1  0
 22 20  2  0
M  END
$$$$
