AML.pdb
     RDKit          3D

 22 21  0  0  1  0  0  0  0  0999 V2000
    8.5903  -18.5736   20.6784 C   0  0  0  0  0  0  0  0  0  0  0  0
    8.3847  -17.0625   20.5107 C   0  0  2  0  0  0  0  0  0  0  0  0
    9.1528  -16.6526   19.3553 N   0  0  0  0  0  0  0  0  0  0  0  0
    8.8476  -16.3445   21.7219 C   0  0  0  0  0  0  0  0  0  0  0  0
   10.0760  -16.1573   21.8800 O   0  0  0  0  0  0  0  0  0  0  0  0
    6.3339  -11.0056   25.5678 C   0  0  0  0  0  0  0  0  0  0  0  0
    6.1497  -12.6691   26.2496 S   0  0  0  0  0  0  0  0  0  0  0  0
    7.5650  -13.6664   25.6901 C   0  0  0  0  0  0  0  0  0  0  0  0
    7.1404  -14.3530   24.4148 C   0  0  0  0  0  0  0  0  0  0  0  0
    8.3051  -15.1773   23.8750 C   0  0  2  0  0  0  0  0  0  0  0  0
    7.9209  -15.8776   22.6842 N   0  0  0  0  0  0  0  0  0  0  0  0
    8.7739  -16.0815   24.9590 C   0  0  0  0  0  0  0  0  0  0  0  0
    7.8915  -16.7408   25.5639 O   0  0  0  0  0  0  0  0  0  0  0  0
   11.6525  -14.1995   28.3015 C   0  0  0  0  0  0  0  0  0  0  0  0
   10.1642  -14.2311   28.0569 C   0  0  2  0  0  0  0  0  0  0  0  0
    9.4629  -13.5844   29.2016 C   0  0  0  0  0  0  0  0  0  0  0  0
    9.6368  -15.4979   27.5374 C   0  0  0  0  0  0  0  0  0  0  0  0
   10.4955  -16.3989   26.7451 C   0  0  2  0  0  0  0  0  0  0  0  0
   10.1336  -16.2160   25.3158 N   0  0  0  0  0  0  0  0  0  0  0  0
   10.4605  -17.8298   27.0567 C   0  0  0  0  0  0  0  0  0  0  0  0
    9.4793  -18.7233   26.6713 O   0  0  0  0  0  0  0  0  0  0  0  0
   11.4010  -18.3691   27.7553 O   0  0  0  0  0  0  0  0  0  0  0  0
  2  1  1  1
  2  3  1  0
  4  2  1  0
  5  4  2  0
  7  6  1  0
  8  7  1  0
  8  9  1  0
 10  9  1  1
 10 12  1  0
 10 11  1  0
 11  4  1  0
 12 19  1  0
 13 12  2  0
 15 14  1  1
 16 15  1  0
 17 15  1  0
 18 17  1  1
 18 20  1  0
 19 18  1  0
 20 21  1  0
 22 20  2  0
M  END
$$$$
