AML.pdb
     RDKit          3D

 22 21  0  0  1  0  0  0  0  0999 V2000
    7.0222  -17.2324   20.4082 C   0  0  0  0  0  0  0  0  0  0  0  0
    7.4856  -15.7702   20.3708 C   0  0  2  0  0  0  0  0  0  0  0  0
    8.3669  -15.6306   19.2321 N   0  0  0  0  0  0  0  0  0  0  0  0
    8.1991  -15.4263   21.6235 C   0  0  0  0  0  0  0  0  0  0  0  0
    9.4323  -15.6352   21.6926 O   0  0  0  0  0  0  0  0  0  0  0  0
    6.1293  -11.1278   26.0393 C   0  0  0  0  0  0  0  0  0  0  0  0
    6.7404  -12.4230   27.1414 S   0  0  0  0  0  0  0  0  0  0  0  0
    7.8663  -13.4880   26.1880 C   0  0  0  0  0  0  0  0  0  0  0  0
    7.1659  -13.8174   24.8923 C   0  0  0  0  0  0  0  0  0  0  0  0
    8.1179  -14.5951   23.9889 C   0  0  2  0  0  0  0  0  0  0  0  0
    7.5026  -14.8717   22.7236 N   0  0  0  0  0  0  0  0  0  0  0  0
    8.5433  -15.8229   24.7125 C   0  0  0  0  0  0  0  0  0  0  0  0
    7.7700  -16.8115   24.6483 O   0  0  0  0  0  0  0  0  0  0  0  0
   12.3993  -19.3792   26.2427 C   0  0  0  0  0  0  0  0  0  0  0  0
   11.9075  -18.9587   24.8799 C   0  0  2  0  0  0  0  0  0  0  0  0
   12.9381  -19.2969   23.8582 C   0  0  0  0  0  0  0  0  0  0  0  0
   11.2671  -17.6399   24.8194 C   0  0  0  0  0  0  0  0  0  0  0  0
   10.2708  -17.2430   25.8326 C   0  0  2  0  0  0  0  0  0  0  0  0
    9.7483  -15.9075   25.4439 N   0  0  0  0  0  0  0  0  0  0  0  0
   10.6999  -17.1878   27.2321 C   0  0  0  0  0  0  0  0  0  0  0  0
   11.0771  -16.0525   27.9239 O   0  0  0  0  0  0  0  0  0  0  0  0
   10.7569  -18.2640   27.9405 O   0  0  0  0  0  0  0  0  0  0  0  0
  2  1  1  1
  2  3  1  0
  4  2  1  0
  5  4  2  0
  7  6  1  0
  8  7  1  0
  8  9  1  0
 10  9  1  1
 10 12  1  0
 10 11  1  0
 11  4  1  0
 12 19  1  0
 13 12  2  0
 15 14  1  1
 16 15  1  0
 17 15  1  0
 18 17  1  6
 18 20  1  0
 19 18  1  0
 20 21  1  0
 22 20  2  0
M  END
$$$$
