SLH.pdb
     RDKit          3D

 25 25  0  0  1  0  0  0  0  0999 V2000
    8.7423  -18.5275   20.6742 O   0  0  0  0  0  0  0  0  0  0  0  0
    8.6165  -17.7016   21.7877 C   0  0  0  0  0  0  0  0  0  0  0  0
    8.7787  -16.2433   21.4306 C   0  0  2  0  0  0  0  0  0  0  0  0
    9.7375  -16.0985   20.3816 N   0  0  0  0  0  0  0  0  0  0  0  0
    9.1154  -15.4052   22.5968 C   0  0  0  0  0  0  0  0  0  0  0  0
   10.2581  -14.9709   22.8426 O   0  0  0  0  0  0  0  0  0  0  0  0
    7.8091  -11.6824   26.2630 C   0  0  0  0  0  0  0  0  0  0  0  0
    6.9917  -12.9490   26.4046 C   0  0  1  0  0  0  0  0  0  0  0  0
    5.5502  -12.4863   26.6605 C   0  0  0  0  0  0  0  0  0  0  0  0
    6.9731  -13.7451   25.1290 C   0  0  0  0  0  0  0  0  0  0  0  0
    8.3243  -14.2834   24.7248 C   0  0  2  0  0  0  0  0  0  0  0  0
    8.0792  -15.0655   23.5037 N   0  0  0  0  0  0  0  0  0  0  0  0
    8.7765  -15.2367   25.7514 C   0  0  0  0  0  0  0  0  0  0  0  0
    9.1528  -14.8577   26.9128 O   0  0  0  0  0  0  0  0  0  0  0  0
    8.8290  -16.6409   25.5317 N   0  0  0  0  0  0  0  0  0  0  0  0
    9.2731  -17.5508   26.5971 C   0  0  1  0  0  0  0  0  0  0  0  0
    9.3089  -18.9670   26.0781 C   0  0  0  0  0  0  0  0  0  0  0  0
    8.0076  -19.3266   25.4819 C   0  0  0  0  0  0  0  0  0  0  0  0
    6.7811  -18.6805   25.6503 C   0  0  0  0  0  0  0  0  0  0  0  0
    5.8184  -19.3012   24.9462 N   0  0  0  0  0  0  0  0  0  0  0  0
    6.4282  -20.3314   24.3369 C   0  0  0  0  0  0  0  0  0  0  0  0
    7.7187  -20.3461   24.6529 N   0  0  0  0  0  0  0  0  0  0  0  0
   10.6392  -17.1631   27.0109 C   0  0  0  0  0  0  0  0  0  0  0  0
   10.9339  -17.2463   28.2514 O   0  0  0  0  0  0  0  0  0  0  0  0
   11.6220  -16.7202   26.1661 O   0  0  0  0  0  0  0  0  0  0  0  0
  2  1  1  0
  2  3  1  0
  3  4  1  6
  5  3  1  0
  5  6  2  0
  8  7  1  6
  8 10  1  0
  8  9  1  0
 11 10  1  1
 11 12  1  0
 12  5  1  0
 13 11  1  0
 14 13  2  0
 15 13  1  0
 16 15  1  0
 16 17  1  6
 18 17  1  0
 19 18  2  0
 20 21  1  0
 20 19  1  0
 21 22  2  0
 22 18  1  0
 23 16  1  0
 24 23  2  0
 25 23  1  0
M  END
$$$$
