SLH.pdb
     RDKit          3D

 25 25  0  0  1  0  0  0  0  0999 V2000
    8.5978  -18.1411   22.2605 O   0  0  0  0  0  0  0  0  0  0  0  0
    7.4123  -17.7099   21.6718 C   0  0  0  0  0  0  0  0  0  0  0  0
    7.5114  -16.2856   21.1798 C   0  0  2  0  0  0  0  0  0  0  0  0
    8.1804  -16.2476   19.9181 N   0  0  0  0  0  0  0  0  0  0  0  0
    8.1468  -15.3866   22.1615 C   0  0  0  0  0  0  0  0  0  0  0  0
    9.2595  -14.8471   22.0018 O   0  0  0  0  0  0  0  0  0  0  0  0
    7.6556  -11.5319   25.9146 C   0  0  0  0  0  0  0  0  0  0  0  0
    7.1476  -12.8830   26.3716 C   0  0  1  0  0  0  0  0  0  0  0  0
    5.8374  -12.6020   27.1212 C   0  0  0  0  0  0  0  0  0  0  0  0
    6.8012  -13.7703   25.2079 C   0  0  0  0  0  0  0  0  0  0  0  0
    7.9974  -14.2161   24.4020 C   0  0  2  0  0  0  0  0  0  0  0  0
    7.4555  -15.1114   23.3689 N   0  0  0  0  0  0  0  0  0  0  0  0
    8.8623  -15.0406   25.2619 C   0  0  0  0  0  0  0  0  0  0  0  0
    9.4068  -14.5782   26.3220 O   0  0  0  0  0  0  0  0  0  0  0  0
    9.1560  -16.4037   24.9814 N   0  0  0  0  0  0  0  0  0  0  0  0
   10.0935  -17.1580   25.8254 C   0  0  1  0  0  0  0  0  0  0  0  0
    9.7615  -18.6287   25.7702 C   0  0  0  0  0  0  0  0  0  0  0  0
    8.6096  -18.9265   26.6436 C   0  0  0  0  0  0  0  0  0  0  0  0
    8.1347  -18.1744   27.7201 C   0  0  0  0  0  0  0  0  0  0  0  0
    7.0627  -18.7666   28.2750 N   0  0  0  0  0  0  0  0  0  0  0  0
    6.8594  -19.8837   27.5575 C   0  0  0  0  0  0  0  0  0  0  0  0
    7.7714  -19.9778   26.5959 N   0  0  0  0  0  0  0  0  0  0  0  0
   11.4632  -16.9615   25.3029 C   0  0  0  0  0  0  0  0  0  0  0  0
   12.4241  -17.5433   25.9119 O   0  0  0  0  0  0  0  0  0  0  0  0
   11.7878  -16.2020   24.2104 O   0  0  0  0  0  0  0  0  0  0  0  0
  2  1  1  0
  2  3  1  0
  3  4  1  6
  5  3  1  0
  5  6  2  0
  8  7  1  6
  8 10  1  0
  8  9  1  0
 11 10  1  1
 11 12  1  0
 12  5  1  0
 13 11  1  0
 14 13  2  0
 15 13  1  0
 16 15  1  0
 16 17  1  6
 18 17  1  0
 19 18  2  0
 20 21  1  0
 20 19  1  0
 21 22  2  0
 22 18  1  0
 23 16  1  0
 24 23  2  0
 25 23  1  0
M  END
$$$$
