SLH.pdb
     RDKit          3D

 25 25  0  0  1  0  0  0  0  0999 V2000
    7.6219  -17.9647   21.1946 O   0  0  0  0  0  0  0  0  0  0  0  0
    6.8620  -16.8352   20.9034 C   0  0  0  0  0  0  0  0  0  0  0  0
    7.7178  -15.5987   20.7652 C   0  0  2  0  0  0  0  0  0  0  0  0
    8.6358  -15.7557   19.6819 N   0  0  0  0  0  0  0  0  0  0  0  0
    8.4089  -15.2412   22.0183 C   0  0  0  0  0  0  0  0  0  0  0  0
    9.6159  -15.4606   22.2414 O   0  0  0  0  0  0  0  0  0  0  0  0
    8.6890  -11.7878   26.2183 C   0  0  0  0  0  0  0  0  0  0  0  0
    7.6172  -12.8480   26.3571 C   0  0  1  0  0  0  0  0  0  0  0  0
    6.3974  -12.1297   26.9521 C   0  0  0  0  0  0  0  0  0  0  0  0
    7.1933  -13.3899   25.0199 C   0  0  0  0  0  0  0  0  0  0  0  0
    8.2643  -14.1884   24.3168 C   0  0  2  0  0  0  0  0  0  0  0  0
    7.6609  -14.6063   23.0425 N   0  0  0  0  0  0  0  0  0  0  0  0
    8.5153  -15.4178   25.0868 C   0  0  0  0  0  0  0  0  0  0  0  0
    7.6028  -16.2886   25.2941 O   0  0  0  0  0  0  0  0  0  0  0  0
    9.7819  -15.7283   25.6544 N   0  0  0  0  0  0  0  0  0  0  0  0
   10.0327  -17.0471   26.2528 C   0  0  1  0  0  0  0  0  0  0  0  0
   11.4684  -17.4489   26.0215 C   0  0  0  0  0  0  0  0  0  0  0  0
   11.6872  -17.7695   24.5975 C   0  0  0  0  0  0  0  0  0  0  0  0
   10.7255  -17.9161   23.5956 C   0  0  0  0  0  0  0  0  0  0  0  0
   11.3079  -18.2091   22.4197 N   0  0  0  0  0  0  0  0  0  0  0  0
   12.6264  -18.2481   22.6730 C   0  0  0  0  0  0  0  0  0  0  0  0
   12.8497  -17.9889   23.9569 N   0  0  0  0  0  0  0  0  0  0  0  0
    9.7943  -16.9582   27.7098 C   0  0  0  0  0  0  0  0  0  0  0  0
    9.7668  -15.7963   28.2408 O   0  0  0  0  0  0  0  0  0  0  0  0
    9.5977  -18.0278   28.5423 O   0  0  0  0  0  0  0  0  0  0  0  0
  2  1  1  0
  2  3  1  0
  3  4  1  6
  5  3  1  0
  5  6  2  0
  8  7  1  6
  8 10  1  0
  8  9  1  0
 11 10  1  1
 11 12  1  0
 12  5  1  0
 13 11  1  0
 14 13  2  0
 15 13  1  0
 16 15  1  0
 16 17  1  1
 18 17  1  0
 19 18  2  0
 20 21  1  0
 20 19  1  0
 21 22  2  0
 22 18  1  0
 23 16  1  0
 24 23  2  0
 25 23  1  0
M  END
$$$$
