SLH.pdb
     RDKit          3D

 25 25  0  0  1  0  0  0  0  0999 V2000
   10.6763  -18.4022   16.6503 O   0  0  0  0  0  0  0  0  0  0  0  0
    9.3047  -18.3162   16.8723 C   0  0  0  0  0  0  0  0  0  0  0  0
    8.9564  -18.4926   18.3311 C   0  0  2  0  0  0  0  0  0  0  0  0
    7.5379  -18.5335   18.4955 N   0  0  0  0  0  0  0  0  0  0  0  0
    9.5760  -17.4681   19.1926 C   0  0  0  0  0  0  0  0  0  0  0  0
   10.8029  -17.2560   19.2598 O   0  0  0  0  0  0  0  0  0  0  0  0
    6.5535  -13.0151   20.2129 C   0  0  0  0  0  0  0  0  0  0  0  0
    7.7545  -13.9014   19.9595 C   0  0  1  0  0  0  0  0  0  0  0  0
    8.9254  -12.9461   19.6877 C   0  0  0  0  0  0  0  0  0  0  0  0
    8.1214  -14.7036   21.1775 C   0  0  0  0  0  0  0  0  0  0  0  0
    9.2550  -15.6744   20.9511 C   0  0  2  0  0  0  0  0  0  0  0  0
    8.7301  -16.6668   20.0013 N   0  0  0  0  0  0  0  0  0  0  0  0
    9.5165  -16.3930   22.2090 C   0  0  0  0  0  0  0  0  0  0  0  0
    8.6580  -17.1824   22.7325 O   0  0  0  0  0  0  0  0  0  0  0  0
   10.7343  -16.2652   22.9326 N   0  0  0  0  0  0  0  0  0  0  0  0
   10.9675  -17.0499   24.1533 C   0  0  1  0  0  0  0  0  0  0  0  0
   12.3484  -17.6564   24.1152 C   0  0  0  0  0  0  0  0  0  0  0  0
   12.4213  -18.6983   23.0724 C   0  0  0  0  0  0  0  0  0  0  0  0
   11.5448  -19.7656   22.8661 C   0  0  0  0  0  0  0  0  0  0  0  0
   11.9391  -20.5055   21.8149 N   0  0  0  0  0  0  0  0  0  0  0  0
   13.0550  -19.9133   21.3586 C   0  0  0  0  0  0  0  0  0  0  0  0
   13.3390  -18.8479   22.1000 N   0  0  0  0  0  0  0  0  0  0  0  0
   10.8789  -16.1459   25.3206 C   0  0  0  0  0  0  0  0  0  0  0  0
   10.6952  -14.9010   25.0994 O   0  0  0  0  0  0  0  0  0  0  0  0
   10.9771  -16.5377   26.6292 O   0  0  0  0  0  0  0  0  0  0  0  0
  2  1  1  0
  2  3  1  0
  3  4  1  6
  5  3  1  0
  5  6  2  0
  8  7  1  1
  8 10  1  0
  8  9  1  0
 11 10  1  1
 11 12  1  0
 12  5  1  0
 13 11  1  0
 14 13  2  0
 15 13  1  0
 16 15  1  0
 16 17  1  6
 18 17  1  0
 19 18  2  0
 20 21  1  0
 20 19  1  0
 21 22  2  0
 22 18  1  0
 23 16  1  0
 24 23  2  0
 25 23  1  0
M  END
$$$$
