SLH.pdb
     RDKit          3D

 25 25  0  0  1  0  0  0  0  0999 V2000
    7.9860  -19.2490   24.5415 O   0  0  0  0  0  0  0  0  0  0  0  0
    6.7001  -18.7215   24.6205 C   0  0  0  0  0  0  0  0  0  0  0  0
    6.3998  -17.7901   23.4704 C   0  0  2  0  0  0  0  0  0  0  0  0
    6.3496  -18.5234   22.2453 N   0  0  0  0  0  0  0  0  0  0  0  0
    7.3440  -16.6598   23.3912 C   0  0  0  0  0  0  0  0  0  0  0  0
    8.1438  -16.4777   22.4521 O   0  0  0  0  0  0  0  0  0  0  0  0
    5.8865  -12.2036   26.2814 C   0  0  0  0  0  0  0  0  0  0  0  0
    6.4647  -13.0394   25.1591 C   0  0  1  0  0  0  0  0  0  0  0  0
    6.7575  -12.0554   24.0173 C   0  0  0  0  0  0  0  0  0  0  0  0
    7.7788  -13.6594   25.5467 C   0  0  0  0  0  0  0  0  0  0  0  0
    8.3295  -14.6173   24.5180 C   0  0  2  0  0  0  0  0  0  0  0  0
    7.3508  -15.7126   24.4469 N   0  0  0  0  0  0  0  0  0  0  0  0
    9.5766  -15.2004   25.0392 C   0  0  0  0  0  0  0  0  0  0  0  0
   10.6791  -14.5534   25.0459 O   0  0  0  0  0  0  0  0  0  0  0  0
    9.6500  -16.5175   25.5710 N   0  0  0  0  0  0  0  0  0  0  0  0
   10.9066  -17.0294   26.1359 C   0  0  1  0  0  0  0  0  0  0  0  0
   10.6696  -17.5306   27.5391 C   0  0  0  0  0  0  0  0  0  0  0  0
   10.4719  -16.3955   28.4614 C   0  0  0  0  0  0  0  0  0  0  0  0
   10.4767  -15.0330   28.1553 C   0  0  0  0  0  0  0  0  0  0  0  0
   10.2614  -14.2987   29.2609 N   0  0  0  0  0  0  0  0  0  0  0  0
   10.1213  -15.1867   30.2589 C   0  0  0  0  0  0  0  0  0  0  0  0
   10.2454  -16.4227   29.7873 N   0  0  0  0  0  0  0  0  0  0  0  0
   11.3745  -18.1581   25.3023 C   0  0  0  0  0  0  0  0  0  0  0  0
   10.6554  -18.5014   24.3035 O   0  0  0  0  0  0  0  0  0  0  0  0
   12.5254  -18.8696   25.5145 O   0  0  0  0  0  0  0  0  0  0  0  0
  2  1  1  0
  2  3  1  0
  3  4  1  6
  5  3  1  0
  5  6  2  0
  8  7  1  1
  8 10  1  0
  8  9  1  0
 11 10  1  1
 11 12  1  0
 12  5  1  0
 13 11  1  0
 14 13  2  0
 15 13  1  0
 16 15  1  0
 16 17  1  1
 18 17  1  0
 19 18  2  0
 20 21  1  0
 20 19  1  0
 21 22  2  0
 22 18  1  0
 23 16  1  0
 24 23  2  0
 25 23  1  0
M  END
$$$$
