SLH.pdb
     RDKit          3D

 25 25  0  0  1  0  0  0  0  0999 V2000
    8.0000  -20.4064   18.3356 O   0  0  0  0  0  0  0  0  0  0  0  0
    7.4701  -19.1653   18.6777 C   0  0  0  0  0  0  0  0  0  0  0  0
    8.1190  -18.0416   17.9052 C   0  0  2  0  0  0  0  0  0  0  0  0
    8.8221  -18.5638   16.7766 N   0  0  0  0  0  0  0  0  0  0  0  0
    8.9888  -17.1992   18.7476 C   0  0  0  0  0  0  0  0  0  0  0  0
   10.2345  -17.2026   18.6939 O   0  0  0  0  0  0  0  0  0  0  0  0
    6.5444  -12.6582   20.5748 C   0  0  0  0  0  0  0  0  0  0  0  0
    7.6264  -13.5734   20.0419 C   0  0  1  0  0  0  0  0  0  0  0  0
    8.7621  -12.6487   19.5806 C   0  0  0  0  0  0  0  0  0  0  0  0
    8.1933  -14.4531   21.1218 C   0  0  0  0  0  0  0  0  0  0  0  0
    9.1585  -15.4975   20.6152 C   0  0  2  0  0  0  0  0  0  0  0  0
    8.3784  -16.3248   19.6828 N   0  0  0  0  0  0  0  0  0  0  0  0
    9.5368  -16.3714   21.7379 C   0  0  0  0  0  0  0  0  0  0  0  0
    8.6858  -17.1098   22.3417 O   0  0  0  0  0  0  0  0  0  0  0  0
   10.8673  -16.4605   22.2327 N   0  0  0  0  0  0  0  0  0  0  0  0
   11.1815  -17.3087   23.3912 C   0  0  1  0  0  0  0  0  0  0  0  0
   12.4087  -18.1369   23.1008 C   0  0  0  0  0  0  0  0  0  0  0  0
   12.0996  -19.1759   22.0992 C   0  0  0  0  0  0  0  0  0  0  0  0
   10.8582  -19.4803   21.5367 C   0  0  0  0  0  0  0  0  0  0  0  0
   10.9718  -20.4919   20.6583 N   0  0  0  0  0  0  0  0  0  0  0  0
   12.2727  -20.8263   20.6635 C   0  0  0  0  0  0  0  0  0  0  0  0
   12.9374  -20.0503   21.5130 N   0  0  0  0  0  0  0  0  0  0  0  0
   11.4620  -16.4372   24.5529 C   0  0  0  0  0  0  0  0  0  0  0  0
   11.6978  -16.9974   25.6768 O   0  0  0  0  0  0  0  0  0  0  0  0
   11.4912  -15.0683   24.5215 O   0  0  0  0  0  0  0  0  0  0  0  0
  2  1  1  0
  2  3  1  0
  3  4  1  6
  5  3  1  0
  5  6  2  0
  8  7  1  1
  8 10  1  0
  8  9  1  0
 11 10  1  1
 11 12  1  0
 12  5  1  0
 13 11  1  0
 14 13  2  0
 15 13  1  0
 16 15  1  0
 16 17  1  6
 18 17  1  0
 19 18  2  0
 20 21  1  0
 20 19  1  0
 21 22  2  0
 22 18  1  0
 23 16  1  0
 24 23  2  0
 25 23  1  0
M  END
$$$$
