SLH.pdb
     RDKit          3D

 25 25  0  0  1  0  0  0  0  0999 V2000
    6.9971  -17.4902   22.6442 O   0  0  0  0  0  0  0  0  0  0  0  0
    6.3969  -16.4649   21.9187 C   0  0  0  0  0  0  0  0  0  0  0  0
    7.3124  -15.2744   21.7596 C   0  0  2  0  0  0  0  0  0  0  0  0
    8.1935  -15.4772   20.6536 N   0  0  0  0  0  0  0  0  0  0  0  0
    8.0523  -14.9557   22.9952 C   0  0  0  0  0  0  0  0  0  0  0  0
    9.2781  -15.1290   23.1438 O   0  0  0  0  0  0  0  0  0  0  0  0
    5.5242  -11.1226   26.0009 C   0  0  0  0  0  0  0  0  0  0  0  0
    6.5598  -11.9452   25.2641 C   0  0  1  0  0  0  0  0  0  0  0  0
    7.7929  -11.0397   25.1333 C   0  0  0  0  0  0  0  0  0  0  0  0
    6.9857  -13.1475   26.0608 C   0  0  0  0  0  0  0  0  0  0  0  0
    7.9850  -14.0285   25.3507 C   0  0  2  0  0  0  0  0  0  0  0  0
    7.3319  -14.4166   24.0915 N   0  0  0  0  0  0  0  0  0  0  0  0
    8.1607  -15.2638   26.1318 C   0  0  0  0  0  0  0  0  0  0  0  0
    8.5298  -15.2480   27.3556 O   0  0  0  0  0  0  0  0  0  0  0  0
    7.9351  -16.5591   25.5893 N   0  0  0  0  0  0  0  0  0  0  0  0
    8.0606  -17.7572   26.4313 C   0  0  1  0  0  0  0  0  0  0  0  0
    7.1508  -18.8437   25.9134 C   0  0  0  0  0  0  0  0  0  0  0  0
    7.3320  -20.0804   26.6983 C   0  0  0  0  0  0  0  0  0  0  0  0
    8.1367  -20.2696   27.8238 C   0  0  0  0  0  0  0  0  0  0  0  0
    8.0425  -21.5360   28.2656 N   0  0  0  0  0  0  0  0  0  0  0  0
    7.1862  -22.1445   27.4284 C   0  0  0  0  0  0  0  0  0  0  0  0
    6.7675  -21.2861   26.5046 N   0  0  0  0  0  0  0  0  0  0  0  0
    9.4579  -18.2376   26.3647 C   0  0  0  0  0  0  0  0  0  0  0  0
    9.7859  -19.2257   27.1054 O   0  0  0  0  0  0  0  0  0  0  0  0
   10.4360  -17.7063   25.5667 O   0  0  0  0  0  0  0  0  0  0  0  0
  2  1  1  0
  2  3  1  0
  3  4  1  6
  5  3  1  0
  5  6  2  0
  8  7  1  1
  8 10  1  0
  8  9  1  0
 11 10  1  1
 11 12  1  0
 12  5  1  0
 13 11  1  0
 14 13  2  0
 15 13  1  0
 16 15  1  0
 16 17  1  6
 18 17  1  0
 19 18  2  0
 20 21  1  0
 20 19  1  0
 21 22  2  0
 22 18  1  0
 23 16  1  0
 24 23  2  0
 25 23  1  0
M  END
$$$$
