SLH.pdb
     RDKit          3D

 25 25  0  0  1  0  0  0  0  0999 V2000
    9.0476  -18.3633   22.6015 O   0  0  0  0  0  0  0  0  0  0  0  0
    8.0415  -17.6457   21.9607 C   0  0  0  0  0  0  0  0  0  0  0  0
    8.4907  -16.2531   21.5874 C   0  0  2  0  0  0  0  0  0  0  0  0
    9.4683  -16.3149   20.5476 N   0  0  0  0  0  0  0  0  0  0  0  0
    8.9758  -15.4810   22.7469 C   0  0  0  0  0  0  0  0  0  0  0  0
   10.1786  -15.2568   22.9873 O   0  0  0  0  0  0  0  0  0  0  0  0
    8.1991  -11.5476   26.3742 C   0  0  0  0  0  0  0  0  0  0  0  0
    7.3139  -12.7533   26.6086 C   0  0  1  0  0  0  0  0  0  0  0  0
    5.9325  -12.1897   26.9714 C   0  0  0  0  0  0  0  0  0  0  0  0
    7.1367  -13.5661   25.3558 C   0  0  0  0  0  0  0  0  0  0  0  0
    8.4052  -14.2250   24.8704 C   0  0  2  0  0  0  0  0  0  0  0  0
    8.0201  -14.9552   23.6534 N   0  0  0  0  0  0  0  0  0  0  0  0
    8.8156  -15.2378   25.8567 C   0  0  0  0  0  0  0  0  0  0  0  0
    8.0297  -16.1693   26.2424 O   0  0  0  0  0  0  0  0  0  0  0  0
   10.1075  -15.2575   26.4514 N   0  0  0  0  0  0  0  0  0  0  0  0
   10.4506  -16.2633   27.4668 C   0  0  1  0  0  0  0  0  0  0  0  0
   11.8866  -16.6932   27.2957 C   0  0  0  0  0  0  0  0  0  0  0  0
   12.0299  -17.5307   26.0889 C   0  0  0  0  0  0  0  0  0  0  0  0
   11.0149  -18.0710   25.2966 C   0  0  0  0  0  0  0  0  0  0  0  0
   11.5351  -18.7801   24.2795 N   0  0  0  0  0  0  0  0  0  0  0  0
   12.8674  -18.6906   24.4252 C   0  0  0  0  0  0  0  0  0  0  0  0
   13.1588  -17.9540   25.4919 N   0  0  0  0  0  0  0  0  0  0  0  0
   10.2942  -15.6554   28.8061 C   0  0  0  0  0  0  0  0  0  0  0  0
   10.4904  -16.3993   29.8263 O   0  0  0  0  0  0  0  0  0  0  0  0
    9.9550  -14.3500   29.0436 O   0  0  0  0  0  0  0  0  0  0  0  0
  2  1  1  0
  2  3  1  0
  3  4  1  6
  5  3  1  0
  5  6  2  0
  8  7  1  6
  8 10  1  0
  8  9  1  0
 11 10  1  1
 11 12  1  0
 12  5  1  0
 13 11  1  0
 14 13  2  0
 15 13  1  0
 16 15  1  0
 16 17  1  6
 18 17  1  0
 19 18  2  0
 20 21  1  0
 20 19  1  0
 21 22  2  0
 22 18  1  0
 23 16  1  0
 24 23  2  0
 25 23  1  0
M  END
$$$$
