SLH.pdb
     RDKit          3D

 25 25  0  0  1  0  0  0  0  0999 V2000
    9.2904  -19.1823   18.2566 O   0  0  0  0  0  0  0  0  0  0  0  0
   10.0444  -18.8263   17.1419 C   0  0  0  0  0  0  0  0  0  0  0  0
   10.0477  -17.3332   16.9153 C   0  0  2  0  0  0  0  0  0  0  0  0
   10.9004  -17.0053   15.8171 N   0  0  0  0  0  0  0  0  0  0  0  0
   10.4043  -16.5737   18.1285 C   0  0  0  0  0  0  0  0  0  0  0  0
   11.5699  -16.4220   18.5443 O   0  0  0  0  0  0  0  0  0  0  0  0
    6.5037  -12.9986   19.7935 C   0  0  0  0  0  0  0  0  0  0  0  0
    7.9050  -13.5053   19.5255 C   0  0  1  0  0  0  0  0  0  0  0  0
    8.8363  -12.3166   19.8029 C   0  0  0  0  0  0  0  0  0  0  0  0
    8.2953  -14.5966   20.4838 C   0  0  0  0  0  0  0  0  0  0  0  0
    9.6044  -15.2678   20.1452 C   0  0  2  0  0  0  0  0  0  0  0  0
    9.3607  -15.9729   18.8779 N   0  0  0  0  0  0  0  0  0  0  0  0
    9.8774  -16.3020   21.1566 C   0  0  0  0  0  0  0  0  0  0  0  0
   10.0472  -17.5301   20.8449 O   0  0  0  0  0  0  0  0  0  0  0  0
    9.9726  -16.0166   22.5467 N   0  0  0  0  0  0  0  0  0  0  0  0
   11.0836  -16.5500   23.3477 C   0  0  1  0  0  0  0  0  0  0  0  0
   12.3903  -15.9826   22.8511 C   0  0  0  0  0  0  0  0  0  0  0  0
   13.0893  -16.9706   22.0063 C   0  0  0  0  0  0  0  0  0  0  0  0
   12.6394  -18.2337   21.6160 C   0  0  0  0  0  0  0  0  0  0  0  0
   13.5556  -18.8451   20.8449 N   0  0  0  0  0  0  0  0  0  0  0  0
   14.5769  -17.9782   20.7468 C   0  0  0  0  0  0  0  0  0  0  0  0
   14.3018  -16.8733   21.4315 N   0  0  0  0  0  0  0  0  0  0  0  0
   10.8923  -16.1377   24.7552 C   0  0  0  0  0  0  0  0  0  0  0  0
   11.7360  -16.5542   25.6196 O   0  0  0  0  0  0  0  0  0  0  0  0
    9.8775  -15.3386   25.2106 O   0  0  0  0  0  0  0  0  0  0  0  0
  2  1  1  0
  2  3  1  0
  3  4  1  6
  5  3  1  0
  5  6  2  0
  8  7  1  1
  8 10  1  0
  8  9  1  0
 11 10  1  1
 11 12  1  0
 12  5  1  0
 13 11  1  0
 14 13  2  0
 15 13  1  0
 16 15  1  0
 16 17  1  6
 18 17  1  0
 19 18  2  0
 20 21  1  0
 20 19  1  0
 21 22  2  0
 22 18  1  0
 23 16  1  0
 24 23  2  0
 25 23  1  0
M  END
$$$$
