SLH.pdb
     RDKit          3D

 25 25  0  0  1  0  0  0  0  0999 V2000
    8.0010  -18.7578   22.8254 O   0  0  0  0  0  0  0  0  0  0  0  0
    6.6714  -18.4066   22.6090 C   0  0  0  0  0  0  0  0  0  0  0  0
    6.5467  -17.1145   21.8375 C   0  0  2  0  0  0  0  0  0  0  0  0
    6.9039  -17.3229   20.4700 N   0  0  0  0  0  0  0  0  0  0  0  0
    7.3201  -16.0133   22.4416 C   0  0  0  0  0  0  0  0  0  0  0  0
    8.3101  -15.4754   21.9074 O   0  0  0  0  0  0  0  0  0  0  0  0
    7.4161  -11.5098   25.3954 C   0  0  0  0  0  0  0  0  0  0  0  0
    7.1426  -12.7478   26.2229 C   0  0  1  0  0  0  0  0  0  0  0  0
    6.0228  -12.3564   27.1977 C   0  0  0  0  0  0  0  0  0  0  0  0
    6.6117  -13.8746   25.3803 C   0  0  0  0  0  0  0  0  0  0  0  0
    7.6094  -14.4163   24.3854 C   0  0  2  0  0  0  0  0  0  0  0  0
    6.9200  -15.5275   23.7126 N   0  0  0  0  0  0  0  0  0  0  0  0
    8.7371  -15.0067   25.1249 C   0  0  0  0  0  0  0  0  0  0  0  0
    9.4616  -14.3193   25.9228 O   0  0  0  0  0  0  0  0  0  0  0  0
    9.1041  -16.3760   25.0092 N   0  0  0  0  0  0  0  0  0  0  0  0
   10.3113  -16.8877   25.6733 C   0  0  1  0  0  0  0  0  0  0  0  0
   10.2337  -18.3901   25.7882 C   0  0  0  0  0  0  0  0  0  0  0  0
    9.3141  -18.7734   26.8770 C   0  0  0  0  0  0  0  0  0  0  0  0
    8.8754  -17.9862   27.9438 C   0  0  0  0  0  0  0  0  0  0  0  0
    8.0409  -18.6833   28.7347 N   0  0  0  0  0  0  0  0  0  0  0  0
    7.9509  -19.9011   28.1751 C   0  0  0  0  0  0  0  0  0  0  0  0
    8.7016  -19.9539   27.0800 N   0  0  0  0  0  0  0  0  0  0  0  0
   11.4888  -16.5355   24.8506 C   0  0  0  0  0  0  0  0  0  0  0  0
   11.2869  -15.9063   23.7570 O   0  0  0  0  0  0  0  0  0  0  0  0
   12.7881  -16.8297   25.1685 O   0  0  0  0  0  0  0  0  0  0  0  0
  2  1  1  0
  2  3  1  0
  3  4  1  6
  5  3  1  0
  5  6  2  0
  8  7  1  6
  8 10  1  0
  8  9  1  0
 11 10  1  1
 11 12  1  0
 12  5  1  0
 13 11  1  0
 14 13  2  0
 15 13  1  0
 16 15  1  0
 16 17  1  6
 18 17  1  0
 19 18  2  0
 20 21  1  0
 20 19  1  0
 21 22  2  0
 22 18  1  0
 23 16  1  0
 24 23  2  0
 25 23  1  0
M  END
$$$$
