SLH.pdb
     RDKit          3D

 25 25  0  0  1  0  0  0  0  0999 V2000
    7.1093  -18.8560   23.7901 O   0  0  0  0  0  0  0  0  0  0  0  0
    6.0937  -17.9240   23.5954 C   0  0  0  0  0  0  0  0  0  0  0  0
    6.5677  -16.7293   22.8026 C   0  0  2  0  0  0  0  0  0  0  0  0
    6.9887  -17.1399   21.5007 N   0  0  0  0  0  0  0  0  0  0  0  0
    7.6183  -15.9636   23.4994 C   0  0  0  0  0  0  0  0  0  0  0  0
    8.8249  -15.9814   23.1855 O   0  0  0  0  0  0  0  0  0  0  0  0
    5.7574  -11.5534   26.2012 C   0  0  0  0  0  0  0  0  0  0  0  0
    6.5938  -12.4912   25.3566 C   0  0  1  0  0  0  0  0  0  0  0  0
    7.5793  -11.5948   24.5933 C   0  0  0  0  0  0  0  0  0  0  0  0
    7.4179  -13.4195   26.2054 C   0  0  0  0  0  0  0  0  0  0  0  0
    8.2250  -14.4185   25.4118 C   0  0  2  0  0  0  0  0  0  0  0  0
    7.2421  -15.1512   24.5995 N   0  0  0  0  0  0  0  0  0  0  0  0
    8.8120  -15.3948   26.3441 C   0  0  0  0  0  0  0  0  0  0  0  0
    8.1748  -15.8304   27.3631 O   0  0  0  0  0  0  0  0  0  0  0  0
   10.1224  -15.9241   26.1839 N   0  0  0  0  0  0  0  0  0  0  0  0
   10.5324  -17.1411   26.8988 C   0  0  1  0  0  0  0  0  0  0  0  0
    9.6499  -18.2951   26.4916 C   0  0  0  0  0  0  0  0  0  0  0  0
   10.1014  -19.5397   27.1437 C   0  0  0  0  0  0  0  0  0  0  0  0
   11.1191  -19.6908   28.0879 C   0  0  0  0  0  0  0  0  0  0  0  0
   11.2398  -20.9795   28.4518 N   0  0  0  0  0  0  0  0  0  0  0  0
   10.3077  -21.6398   27.7452 C   0  0  0  0  0  0  0  0  0  0  0  0
    9.6367  -20.7908   26.9742 N   0  0  0  0  0  0  0  0  0  0  0  0
   11.9288  -17.4589   26.5290 C   0  0  0  0  0  0  0  0  0  0  0  0
   12.3485  -17.0666   25.3877 O   0  0  0  0  0  0  0  0  0  0  0  0
   12.8158  -18.1433   27.3168 O   0  0  0  0  0  0  0  0  0  0  0  0
  2  1  1  0
  2  3  1  0
  3  4  1  6
  5  3  1  0
  5  6  2  0
  8  7  1  1
  8 10  1  0
  8  9  1  0
 11 10  1  1
 11 12  1  0
 12  5  1  0
 13 11  1  0
 14 13  2  0
 15 13  1  0
 16 15  1  0
 16 17  1  6
 18 17  1  0
 19 18  2  0
 20 21  1  0
 20 19  1  0
 21 22  2  0
 22 18  1  0
 23 16  1  0
 24 23  2  0
 25 23  1  0
M  END
$$$$
