SLH.pdb
     RDKit          3D

 25 25  0  0  1  0  0  0  0  0999 V2000
    7.1994  -17.5247   20.9380 O   0  0  0  0  0  0  0  0  0  0  0  0
    6.6222  -16.2596   21.0026 C   0  0  0  0  0  0  0  0  0  0  0  0
    7.6441  -15.1625   20.8218 C   0  0  2  0  0  0  0  0  0  0  0  0
    8.5777  -15.5244   19.8028 N   0  0  0  0  0  0  0  0  0  0  0  0
    8.3231  -14.8032   22.0810 C   0  0  0  0  0  0  0  0  0  0  0  0
    9.5359  -14.5280   22.1707 O   0  0  0  0  0  0  0  0  0  0  0  0
    6.6101  -11.2330   26.4759 C   0  0  0  0  0  0  0  0  0  0  0  0
    7.5481  -12.3815   26.1705 C   0  0  1  0  0  0  0  0  0  0  0  0
    7.3210  -13.4110   27.2867 C   0  0  0  0  0  0  0  0  0  0  0  0
    7.1953  -13.0593   24.8753 C   0  0  0  0  0  0  0  0  0  0  0  0
    8.0854  -14.2304   24.5362 C   0  0  2  0  0  0  0  0  0  0  0  0
    7.5555  -14.7656   23.2731 N   0  0  0  0  0  0  0  0  0  0  0  0
    7.8904  -15.2782   25.5518 C   0  0  0  0  0  0  0  0  0  0  0  0
    7.5689  -15.0044   26.7583 O   0  0  0  0  0  0  0  0  0  0  0  0
    8.0437  -16.6640   25.2708 N   0  0  0  0  0  0  0  0  0  0  0  0
    9.3810  -17.2651   25.1679 C   0  0  1  0  0  0  0  0  0  0  0  0
   10.1865  -16.5431   24.1162 C   0  0  0  0  0  0  0  0  0  0  0  0
   11.4877  -17.2114   23.9198 C   0  0  0  0  0  0  0  0  0  0  0  0
   11.9585  -18.3684   24.5440 C   0  0  0  0  0  0  0  0  0  0  0  0
   13.1931  -18.6730   24.1072 N   0  0  0  0  0  0  0  0  0  0  0  0
   13.5027  -17.7183   23.2144 C   0  0  0  0  0  0  0  0  0  0  0  0
   12.4972  -16.8569   23.1041 N   0  0  0  0  0  0  0  0  0  0  0  0
   10.0656  -17.1209   26.4711 C   0  0  0  0  0  0  0  0  0  0  0  0
   10.3335  -15.9396   26.8776 O   0  0  0  0  0  0  0  0  0  0  0  0
   10.4373  -18.1583   27.2843 O   0  0  0  0  0  0  0  0  0  0  0  0
  2  1  1  0
  2  3  1  0
  3  4  1  6
  5  3  1  0
  5  6  2  0
  8  7  1  1
  8 10  1  0
  8  9  1  0
 11 10  1  1
 11 12  1  0
 12  5  1  0
 13 11  1  0
 14 13  2  0
 15 13  1  0
 16 15  1  0
 16 17  1  6
 18 17  1  0
 19 18  2  0
 20 21  1  0
 20 19  1  0
 21 22  2  0
 22 18  1  0
 23 16  1  0
 24 23  2  0
 25 23  1  0
M  END
$$$$
