PWS.pdb
     RDKit          3D

 28 30  0  0  1  0  0  0  0  0999 V2000
    7.4163  -15.9840   21.1376 N   0  0  0  0  0  0  0  0  0  0  0  0
    6.6348  -15.5360   19.9871 C   0  0  0  0  0  0  0  0  0  0  0  0
    7.0782  -14.1022   19.7408 C   0  0  0  0  0  0  0  0  0  0  0  0
    8.3085  -13.9413   20.5774 C   0  0  0  0  0  0  0  0  0  0  0  0
    8.6992  -15.3764   20.8657 C   0  0  1  0  0  0  0  0  0  0  0  0
    9.5962  -15.3875   22.0313 C   0  0  0  0  0  0  0  0  0  0  0  0
   10.7753  -14.9718   21.9174 O   0  0  0  0  0  0  0  0  0  0  0  0
    9.2065  -15.8545   23.3308 N   0  0  0  0  0  0  0  0  0  0  0  0
   10.1377  -15.8213   24.4529 C   0  0  1  0  0  0  0  0  0  0  0  0
    9.6323  -15.0869   25.6411 C   0  0  0  0  0  0  0  0  0  0  0  0
    8.2291  -14.6988   25.6307 C   0  0  0  0  0  0  0  0  0  0  0  0
    7.1075  -15.4254   25.3626 C   0  0  0  0  0  0  0  0  0  0  0  0
    6.0018  -14.6378   25.4837 N   0  0  0  0  0  0  0  0  0  0  0  0
    6.4063  -13.4049   25.8295 C   0  0  0  0  0  0  0  0  0  0  0  0
    5.6744  -12.2625   26.0685 C   0  0  0  0  0  0  0  0  0  0  0  0
    6.3033  -11.0897   26.4146 C   0  0  0  0  0  0  0  0  0  0  0  0
    7.6682  -11.0698   26.5193 C   0  0  0  0  0  0  0  0  0  0  0  0
    8.3846  -12.2257   26.2758 C   0  0  0  0  0  0  0  0  0  0  0  0
    7.7914  -13.4204   25.9267 C   0  0  0  0  0  0  0  0  0  0  0  0
   10.6202  -17.2044   24.7445 C   0  0  0  0  0  0  0  0  0  0  0  0
    9.8116  -18.1769   24.7960 O   0  0  0  0  0  0  0  0  0  0  0  0
   14.6149  -17.9516   24.5196 O   0  0  0  0  0  0  0  0  0  0  0  0
   13.7799  -19.0695   24.4253 C   0  0  0  0  0  0  0  0  0  0  0  0
   12.4834  -18.8478   25.1786 C   0  0  2  0  0  0  0  0  0  0  0  0
   11.9804  -17.5042   24.9755 N   0  0  0  0  0  0  0  0  0  0  0  0
   12.5892  -19.2067   26.5967 C   0  0  0  0  0  0  0  0  0  0  0  0
   12.2567  -18.3713   27.4712 O   0  0  0  0  0  0  0  0  0  0  0  0
   13.0442  -20.4400   27.0393 O   0  0  0  0  0  0  0  0  0  0  0  0
  1  5  1  0
  2  3  1  0
  2  1  1  0
  3  4  1  0
  4  5  1  0
  5  6  1  1
  6  7  2  0
  8  9  1  0
  8  6  1  0
  9 20  1  0
 10 11  1  0
  9 10  1  1
 11 12  2  0
 12 13  1  0
 14 13  1  0
 15 14  2  0
 16 15  1  0
 17 18  1  0
 17 16  2  0
 18 19  2  0
 19 11  1  0
 19 14  1  0
 20 21  2  0
 23 22  1  0
 24 23  1  1
 24 26  1  0
 25 20  1  0
 25 24  1  0
 26 27  2  0
 26 28  1  0
M  END
$$$$
