PWS.pdb
     RDKit          3D

 28 30  0  0  1  0  0  0  0  0999 V2000
    7.4222  -15.6091   20.8296 N   0  0  0  0  0  0  0  0  0  0  0  0
    6.6960  -15.0379   19.6975 C   0  0  0  0  0  0  0  0  0  0  0  0
    6.9349  -13.5387   19.7890 C   0  0  0  0  0  0  0  0  0  0  0  0
    8.0390  -13.3955   20.7890 C   0  0  0  0  0  0  0  0  0  0  0  0
    8.6163  -14.7951   20.8431 C   0  0  1  0  0  0  0  0  0  0  0  0
    9.3873  -14.9308   22.0883 C   0  0  0  0  0  0  0  0  0  0  0  0
   10.4584  -14.2923   22.2339 O   0  0  0  0  0  0  0  0  0  0  0  0
    8.9890  -15.7678   23.1835 N   0  0  0  0  0  0  0  0  0  0  0  0
    9.7921  -15.8505   24.3983 C   0  0  1  0  0  0  0  0  0  0  0  0
    8.9965  -15.8835   25.6523 C   0  0  0  0  0  0  0  0  0  0  0  0
    7.7575  -15.1191   25.6692 C   0  0  0  0  0  0  0  0  0  0  0  0
    6.4852  -15.4803   25.3396 C   0  0  0  0  0  0  0  0  0  0  0  0
    5.6396  -14.4269   25.5210 N   0  0  0  0  0  0  0  0  0  0  0  0
    6.3623  -13.3868   25.9672 C   0  0  0  0  0  0  0  0  0  0  0  0
    5.9714  -12.1074   26.2961 C   0  0  0  0  0  0  0  0  0  0  0  0
    6.8928  -11.1874   26.7383 C   0  0  0  0  0  0  0  0  0  0  0  0
    8.2063  -11.5579   26.8484 C   0  0  0  0  0  0  0  0  0  0  0  0
    8.5786  -12.8455   26.5139 C   0  0  0  0  0  0  0  0  0  0  0  0
    7.6855  -13.7962   26.0669 C   0  0  0  0  0  0  0  0  0  0  0  0
   10.7826  -16.9610   24.2693 C   0  0  0  0  0  0  0  0  0  0  0  0
   10.4003  -18.1559   24.1012 O   0  0  0  0  0  0  0  0  0  0  0  0
   14.9355  -16.2026   24.3846 O   0  0  0  0  0  0  0  0  0  0  0  0
   14.4656  -17.2986   23.6537 C   0  0  0  0  0  0  0  0  0  0  0  0
   13.1564  -17.8115   24.2197 C   0  0  2  0  0  0  0  0  0  0  0  0
   12.1773  -16.7487   24.3260 N   0  0  0  0  0  0  0  0  0  0  0  0
   13.3368  -18.5458   25.4762 C   0  0  0  0  0  0  0  0  0  0  0  0
   12.6799  -18.2062   26.4894 O   0  0  0  0  0  0  0  0  0  0  0  0
   14.2081  -19.6160   25.6158 O   0  0  0  0  0  0  0  0  0  0  0  0
  1  5  1  0
  2  3  1  0
  2  1  1  0
  3  4  1  0
  4  5  1  0
  5  6  1  1
  6  7  2  0
  8  9  1  0
  8  6  1  0
  9 20  1  0
 10 11  1  0
  9 10  1  1
 11 12  2  0
 12 13  1  0
 14 13  1  0
 15 14  2  0
 16 15  1  0
 17 18  1  0
 17 16  2  0
 18 19  2  0
 19 11  1  0
 19 14  1  0
 20 21  2  0
 23 22  1  0
 24 23  1  1
 24 26  1  0
 25 20  1  0
 25 24  1  0
 26 27  2  0
 26 28  1  0
M  END
$$$$
