PWS.pdb
     RDKit          3D

 28 30  0  0  1  0  0  0  0  0999 V2000
    7.3854  -16.0313   21.2142 N   0  0  0  0  0  0  0  0  0  0  0  0
    6.5558  -15.5393   20.1166 C   0  0  0  0  0  0  0  0  0  0  0  0
    6.6567  -14.0237   20.1919 C   0  0  0  0  0  0  0  0  0  0  0  0
    7.7886  -13.7699   21.1374 C   0  0  0  0  0  0  0  0  0  0  0  0
    8.4970  -15.1087   21.1680 C   0  0  1  0  0  0  0  0  0  0  0  0
    9.3356  -15.1621   22.3752 C   0  0  0  0  0  0  0  0  0  0  0  0
   10.3455  -14.4223   22.4687 O   0  0  0  0  0  0  0  0  0  0  0  0
    9.0724  -16.0272   23.4891 N   0  0  0  0  0  0  0  0  0  0  0  0
    9.9284  -16.0151   24.6701 C   0  0  1  0  0  0  0  0  0  0  0  0
    9.1912  -15.8976   25.9543 C   0  0  0  0  0  0  0  0  0  0  0  0
    7.9129  -15.2016   25.9214 C   0  0  0  0  0  0  0  0  0  0  0  0
    6.6597  -15.6564   25.6376 C   0  0  0  0  0  0  0  0  0  0  0  0
    5.7598  -14.6380   25.7399 N   0  0  0  0  0  0  0  0  0  0  0  0
    6.4283  -13.5270   26.0892 C   0  0  0  0  0  0  0  0  0  0  0  0
    5.9712  -12.2471   26.3145 C   0  0  0  0  0  0  0  0  0  0  0  0
    6.8445  -11.2455   26.6676 C   0  0  0  0  0  0  0  0  0  0  0  0
    8.1768  -11.5349   26.7934 C   0  0  0  0  0  0  0  0  0  0  0  0
    8.6158  -12.8245   26.5635 C   0  0  0  0  0  0  0  0  0  0  0  0
    7.7723  -13.8556   26.2078 C   0  0  0  0  0  0  0  0  0  0  0  0
   10.8802  -17.1646   24.6106 C   0  0  0  0  0  0  0  0  0  0  0  0
   10.4572  -18.3572   24.5798 O   0  0  0  0  0  0  0  0  0  0  0  0
   15.0085  -16.4903   24.3436 O   0  0  0  0  0  0  0  0  0  0  0  0
   14.4999  -17.6798   23.8121 C   0  0  0  0  0  0  0  0  0  0  0  0
   13.2239  -18.0919   24.5187 C   0  0  2  0  0  0  0  0  0  0  0  0
   12.2815  -16.9933   24.5856 N   0  0  0  0  0  0  0  0  0  0  0  0
   13.4785  -18.7026   25.8275 C   0  0  0  0  0  0  0  0  0  0  0  0
   12.9306  -18.2238   26.8492 O   0  0  0  0  0  0  0  0  0  0  0  0
   14.3060  -19.8011   26.0085 O   0  0  0  0  0  0  0  0  0  0  0  0
  1  5  1  0
  2  3  1  0
  2  1  1  0
  3  4  1  0
  4  5  1  0
  5  6  1  1
  6  7  2  0
  8  9  1  0
  8  6  1  0
  9 20  1  0
 10 11  1  0
  9 10  1  1
 11 12  2  0
 12 13  1  0
 14 13  1  0
 15 14  2  0
 16 15  1  0
 17 18  1  0
 17 16  2  0
 18 19  2  0
 19 11  1  0
 19 14  1  0
 20 21  2  0
 23 22  1  0
 24 23  1  1
 24 26  1  0
 25 20  1  0
 25 24  1  0
 26 27  2  0
 26 28  1  0
M  END
$$$$
