PWS.pdb
     RDKit          3D

 28 30  0  0  1  0  0  0  0  0999 V2000
    7.2933  -15.8733   20.1512 N   0  0  0  0  0  0  0  0  0  0  0  0
    6.5486  -15.3881   18.9914 C   0  0  0  0  0  0  0  0  0  0  0  0
    7.0992  -13.9964   18.7207 C   0  0  0  0  0  0  0  0  0  0  0  0
    8.3377  -13.9141   19.5568 C   0  0  0  0  0  0  0  0  0  0  0  0
    8.6186  -15.3692   19.8712 C   0  0  1  0  0  0  0  0  0  0  0  0
    9.5114  -15.4274   21.0386 C   0  0  0  0  0  0  0  0  0  0  0  0
   10.7168  -15.0967   20.9215 O   0  0  0  0  0  0  0  0  0  0  0  0
    9.0886  -15.8485   22.3434 N   0  0  0  0  0  0  0  0  0  0  0  0
    9.9432  -15.6567   23.5097 C   0  0  1  0  0  0  0  0  0  0  0  0
    9.6062  -14.4582   24.3201 C   0  0  0  0  0  0  0  0  0  0  0  0
    8.2734  -14.4085   24.9039 C   0  0  0  0  0  0  0  0  0  0  0  0
    7.2910  -15.3518   24.9591 C   0  0  0  0  0  0  0  0  0  0  0  0
    6.2057  -14.8566   25.6182 N   0  0  0  0  0  0  0  0  0  0  0  0
    6.4846  -13.5964   25.9887 C   0  0  0  0  0  0  0  0  0  0  0  0
    5.7177  -12.6800   26.6743 C   0  0  0  0  0  0  0  0  0  0  0  0
    6.2088  -11.4257   26.9506 C   0  0  0  0  0  0  0  0  0  0  0  0
    7.4715  -11.0968   26.5359 C   0  0  0  0  0  0  0  0  0  0  0  0
    8.2250  -12.0295   25.8499 C   0  0  0  0  0  0  0  0  0  0  0  0
    7.7687  -13.2965   25.5536 C   0  0  0  0  0  0  0  0  0  0  0  0
   10.0158  -16.9271   24.2919 C   0  0  0  0  0  0  0  0  0  0  0  0
    8.9709  -17.5959   24.5428 O   0  0  0  0  0  0  0  0  0  0  0  0
   13.7426  -18.5615   25.3618 O   0  0  0  0  0  0  0  0  0  0  0  0
   12.6629  -19.4091   25.0941 C   0  0  0  0  0  0  0  0  0  0  0  0
   11.3460  -18.7400   25.4342 C   0  0  2  0  0  0  0  0  0  0  0  0
   11.2305  -17.4480   24.7885 N   0  0  0  0  0  0  0  0  0  0  0  0
   11.1048  -18.6766   26.8794 C   0  0  0  0  0  0  0  0  0  0  0  0
   10.8823  -17.5668   27.4199 O   0  0  0  0  0  0  0  0  0  0  0  0
   11.1076  -19.7929   27.7027 O   0  0  0  0  0  0  0  0  0  0  0  0
  1  5  1  0
  2  3  1  0
  2  1  1  0
  3  4  1  0
  4  5  1  0
  5  6  1  1
  6  7  2  0
  8  9  1  0
  8  6  1  0
  9 20  1  0
 10 11  1  0
  9 10  1  1
 11 12  2  0
 12 13  1  0
 14 13  1  0
 15 14  2  0
 16 15  1  0
 17 18  1  0
 17 16  2  0
 18 19  2  0
 19 11  1  0
 19 14  1  0
 20 21  2  0
 23 22  1  0
 24 23  1  1
 24 26  1  0
 25 20  1  0
 25 24  1  0
 26 27  2  0
 26 28  1  0
M  END
$$$$
