PWS.pdb
     RDKit          3D

 28 30  0  0  1  0  0  0  0  0999 V2000
    7.2825  -15.8562   20.8425 N   0  0  0  0  0  0  0  0  0  0  0  0
    6.5309  -15.3324   19.7042 C   0  0  0  0  0  0  0  0  0  0  0  0
    6.7788  -13.8319   19.7221 C   0  0  0  0  0  0  0  0  0  0  0  0
    7.9083  -13.6502   20.6869 C   0  0  0  0  0  0  0  0  0  0  0  0
    8.4804  -15.0492   20.7897 C   0  0  1  0  0  0  0  0  0  0  0  0
    9.2817  -15.1332   22.0202 C   0  0  0  0  0  0  0  0  0  0  0  0
   10.3701  -14.5129   22.1017 O   0  0  0  0  0  0  0  0  0  0  0  0
    8.8948  -15.8979   23.1709 N   0  0  0  0  0  0  0  0  0  0  0  0
    9.7376  -15.9464   24.3604 C   0  0  1  0  0  0  0  0  0  0  0  0
    8.9836  -16.0442   25.6365 C   0  0  0  0  0  0  0  0  0  0  0  0
    7.7511  -15.2757   25.7365 C   0  0  0  0  0  0  0  0  0  0  0  0
    6.4548  -15.6430   25.5293 C   0  0  0  0  0  0  0  0  0  0  0  0
    5.6286  -14.5818   25.7501 N   0  0  0  0  0  0  0  0  0  0  0  0
    6.3876  -13.5306   26.0995 C   0  0  0  0  0  0  0  0  0  0  0  0
    6.0272  -12.2403   26.4208 C   0  0  0  0  0  0  0  0  0  0  0  0
    6.9837  -11.3100   26.7528 C   0  0  0  0  0  0  0  0  0  0  0  0
    8.3016  -11.6810   26.7606 C   0  0  0  0  0  0  0  0  0  0  0  0
    8.6431  -12.9796   26.4356 C   0  0  0  0  0  0  0  0  0  0  0  0
    7.7143  -13.9408   26.0973 C   0  0  0  0  0  0  0  0  0  0  0  0
   10.7899  -16.9920   24.1865 C   0  0  0  0  0  0  0  0  0  0  0  0
   10.4793  -18.1834   23.8926 O   0  0  0  0  0  0  0  0  0  0  0  0
   14.8853  -16.0436   23.7739 O   0  0  0  0  0  0  0  0  0  0  0  0
   14.3127  -17.2148   23.2675 C   0  0  0  0  0  0  0  0  0  0  0  0
   13.2055  -17.7169   24.1728 C   0  0  2  0  0  0  0  0  0  0  0  0
   12.1672  -16.7197   24.3363 N   0  0  0  0  0  0  0  0  0  0  0  0
   13.7125  -18.2246   25.4518 C   0  0  0  0  0  0  0  0  0  0  0  0
   14.5939  -19.1169   25.4560 O   0  0  0  0  0  0  0  0  0  0  0  0
   13.2672  -17.7683   26.6838 O   0  0  0  0  0  0  0  0  0  0  0  0
  1  5  1  0
  2  3  1  0
  2  1  1  0
  3  4  1  0
  4  5  1  0
  5  6  1  1
  6  7  2  0
  8  9  1  0
  8  6  1  0
  9 20  1  0
 10 11  1  0
  9 10  1  1
 11 12  2  0
 12 13  1  0
 14 13  1  0
 15 14  2  0
 16 15  1  0
 17 18  1  0
 17 16  2  0
 18 19  2  0
 19 11  1  0
 19 14  1  0
 20 21  2  0
 23 22  1  0
 24 23  1  1
 24 26  1  0
 25 20  1  0
 25 24  1  0
 26 27  2  0
 26 28  1  0
M  END
$$$$
