PWS.pdb
     RDKit          3D

 28 30  0  0  1  0  0  0  0  0999 V2000
    7.4603  -15.5154   20.1150 N   0  0  0  0  0  0  0  0  0  0  0  0
    6.7426  -14.9878   18.9567 C   0  0  0  0  0  0  0  0  0  0  0  0
    7.1757  -13.5337   18.8508 C   0  0  0  0  0  0  0  0  0  0  0  0
    8.3501  -13.4243   19.7719 C   0  0  0  0  0  0  0  0  0  0  0  0
    8.7468  -14.8728   19.9712 C   0  0  1  0  0  0  0  0  0  0  0  0
    9.5714  -14.9648   21.1857 C   0  0  0  0  0  0  0  0  0  0  0  0
   10.7350  -14.4934   21.1891 O   0  0  0  0  0  0  0  0  0  0  0  0
    9.1257  -15.5742   22.4057 N   0  0  0  0  0  0  0  0  0  0  0  0
    9.9356  -15.5129   23.6172 C   0  0  1  0  0  0  0  0  0  0  0  0
    9.5983  -14.3806   24.5176 C   0  0  0  0  0  0  0  0  0  0  0  0
    8.2511  -14.3533   25.0689 C   0  0  0  0  0  0  0  0  0  0  0  0
    7.2735  -15.3031   25.0754 C   0  0  0  0  0  0  0  0  0  0  0  0
    6.1691  -14.8310   25.7195 N   0  0  0  0  0  0  0  0  0  0  0  0
    6.4309  -13.5792   26.1290 C   0  0  0  0  0  0  0  0  0  0  0  0
    5.6416  -12.6850   26.8184 C   0  0  0  0  0  0  0  0  0  0  0  0
    6.1179  -11.4356   27.1389 C   0  0  0  0  0  0  0  0  0  0  0  0
    7.3885  -11.0891   26.7645 C   0  0  0  0  0  0  0  0  0  0  0  0
    8.1646  -11.9997   26.0739 C   0  0  0  0  0  0  0  0  0  0  0  0
    7.7236  -13.2611   25.7340 C   0  0  0  0  0  0  0  0  0  0  0  0
    9.9401  -16.8490   24.2849 C   0  0  0  0  0  0  0  0  0  0  0  0
    8.8750  -17.5241   24.3938 O   0  0  0  0  0  0  0  0  0  0  0  0
   13.5373  -18.5999   25.6048 O   0  0  0  0  0  0  0  0  0  0  0  0
   12.4662  -19.4220   25.2404 C   0  0  0  0  0  0  0  0  0  0  0  0
   11.1401  -18.7247   25.4693 C   0  0  2  0  0  0  0  0  0  0  0  0
   11.1097  -17.4277   24.8239 N   0  0  0  0  0  0  0  0  0  0  0  0
   10.7760  -18.6618   26.8885 C   0  0  0  0  0  0  0  0  0  0  0  0
   10.5738  -17.5463   27.4251 O   0  0  0  0  0  0  0  0  0  0  0  0
   10.6385  -19.7849   27.6911 O   0  0  0  0  0  0  0  0  0  0  0  0
  1  5  1  0
  2  3  1  0
  2  1  1  0
  3  4  1  0
  4  5  1  0
  5  6  1  1
  6  7  2  0
  8  9  1  0
  8  6  1  0
  9 20  1  0
 10 11  1  0
  9 10  1  1
 11 12  2  0
 12 13  1  0
 14 13  1  0
 15 14  2  0
 16 15  1  0
 17 18  1  0
 17 16  2  0
 18 19  2  0
 19 11  1  0
 19 14  1  0
 20 21  2  0
 23 22  1  0
 24 23  1  1
 24 26  1  0
 25 20  1  0
 25 24  1  0
 26 27  2  0
 26 28  1  0
M  END
$$$$
