PWS.pdb
     RDKit          3D

 28 30  0  0  1  0  0  0  0  0999 V2000
    7.5135  -16.0876   20.9395 N   0  0  0  0  0  0  0  0  0  0  0  0
    6.8380  -15.5605   19.7559 C   0  0  0  0  0  0  0  0  0  0  0  0
    6.9254  -14.0481   19.8902 C   0  0  0  0  0  0  0  0  0  0  0  0
    7.9198  -13.8259   20.9863 C   0  0  0  0  0  0  0  0  0  0  0  0
    8.6198  -15.1668   21.0710 C   0  0  1  0  0  0  0  0  0  0  0  0
    9.2888  -15.2590   22.3777 C   0  0  0  0  0  0  0  0  0  0  0  0
   10.2572  -14.5042   22.6394 O   0  0  0  0  0  0  0  0  0  0  0  0
    8.9001  -16.1794   23.4074 N   0  0  0  0  0  0  0  0  0  0  0  0
    9.6162  -16.2346   24.6769 C   0  0  1  0  0  0  0  0  0  0  0  0
    8.7360  -16.2071   25.8732 C   0  0  0  0  0  0  0  0  0  0  0  0
    7.6171  -15.2759   25.8493 C   0  0  0  0  0  0  0  0  0  0  0  0
    6.3016  -15.4739   25.5526 C   0  0  0  0  0  0  0  0  0  0  0  0
    5.6153  -14.3024   25.6714 N   0  0  0  0  0  0  0  0  0  0  0  0
    6.4840  -13.3486   26.0442 C   0  0  0  0  0  0  0  0  0  0  0  0
    6.2820  -12.0087   26.2923 C   0  0  0  0  0  0  0  0  0  0  0  0
    7.3304  -11.2020   26.6675 C   0  0  0  0  0  0  0  0  0  0  0  0
    8.5804  -11.7464   26.7922 C   0  0  0  0  0  0  0  0  0  0  0  0
    8.7628  -13.0923   26.5392 C   0  0  0  0  0  0  0  0  0  0  0  0
    7.7380  -13.9336   26.1610 C   0  0  0  0  0  0  0  0  0  0  0  0
   10.5882  -17.3684   24.6549 C   0  0  0  0  0  0  0  0  0  0  0  0
   10.1958  -18.5567   24.4650 O   0  0  0  0  0  0  0  0  0  0  0  0
   14.7777  -16.8097   25.3615 O   0  0  0  0  0  0  0  0  0  0  0  0
   14.3166  -17.8247   24.5172 C   0  0  0  0  0  0  0  0  0  0  0  0
   12.9262  -18.2775   24.9164 C   0  0  2  0  0  0  0  0  0  0  0  0
   11.9760  -17.1863   24.8409 N   0  0  0  0  0  0  0  0  0  0  0  0
   12.9083  -18.9578   26.2155 C   0  0  0  0  0  0  0  0  0  0  0  0
   12.1858  -18.5089   27.1374 O   0  0  0  0  0  0  0  0  0  0  0  0
   13.6575  -20.0917   26.4930 O   0  0  0  0  0  0  0  0  0  0  0  0
  1  5  1  0
  2  3  1  0
  2  1  1  0
  3  4  1  0
  4  5  1  0
  5  6  1  1
  6  7  2  0
  8  9  1  0
  8  6  1  0
  9 20  1  0
 10 11  1  0
  9 10  1  1
 11 12  2  0
 12 13  1  0
 14 13  1  0
 15 14  2  0
 16 15  1  0
 17 18  1  0
 17 16  2  0
 18 19  2  0
 19 11  1  0
 19 14  1  0
 20 21  2  0
 23 22  1  0
 24 23  1  1
 24 26  1  0
 25 20  1  0
 25 24  1  0
 26 27  2  0
 26 28  1  0
M  END
$$$$
