PWS.pdb
     RDKit          3D

 28 30  0  0  1  0  0  0  0  0999 V2000
    7.2208  -15.2083   20.5394 N   0  0  0  0  0  0  0  0  0  0  0  0
    6.5477  -14.4807   19.4659 C   0  0  0  0  0  0  0  0  0  0  0  0
    6.9935  -13.0355   19.6265 C   0  0  0  0  0  0  0  0  0  0  0  0
    8.1355  -13.1005   20.5915 C   0  0  0  0  0  0  0  0  0  0  0  0
    8.5157  -14.5665   20.5516 C   0  0  1  0  0  0  0  0  0  0  0  0
    9.2965  -14.8760   21.7591 C   0  0  0  0  0  0  0  0  0  0  0  0
   10.4320  -14.3647   21.9181 O   0  0  0  0  0  0  0  0  0  0  0  0
    8.8374  -15.7485   22.8015 N   0  0  0  0  0  0  0  0  0  0  0  0
    9.5803  -15.8862   24.0491 C   0  0  1  0  0  0  0  0  0  0  0  0
    8.7238  -16.0119   25.2562 C   0  0  0  0  0  0  0  0  0  0  0  0
    7.5365  -15.1713   25.3147 C   0  0  0  0  0  0  0  0  0  0  0  0
    6.2386  -15.4425   24.9989 C   0  0  0  0  0  0  0  0  0  0  0  0
    5.4650  -14.3428   25.2220 N   0  0  0  0  0  0  0  0  0  0  0  0
    6.2597  -13.3626   25.6810 C   0  0  0  0  0  0  0  0  0  0  0  0
    5.9566  -12.0700   26.0490 C   0  0  0  0  0  0  0  0  0  0  0  0
    6.9418  -11.2222   26.4974 C   0  0  0  0  0  0  0  0  0  0  0  0
    8.2306  -11.6778   26.5746 C   0  0  0  0  0  0  0  0  0  0  0  0
    8.5146  -12.9772   26.2012 C   0  0  0  0  0  0  0  0  0  0  0  0
    7.5555  -13.8573   25.7467 C   0  0  0  0  0  0  0  0  0  0  0  0
   10.6035  -16.9650   23.9064 C   0  0  0  0  0  0  0  0  0  0  0  0
   10.2640  -18.1458   23.6023 O   0  0  0  0  0  0  0  0  0  0  0  0
   14.7524  -16.1888   24.4092 O   0  0  0  0  0  0  0  0  0  0  0  0
   14.3216  -17.1920   23.5351 C   0  0  0  0  0  0  0  0  0  0  0  0
   12.9926  -17.7697   23.9794 C   0  0  2  0  0  0  0  0  0  0  0  0
   11.9835  -16.7367   24.0981 N   0  0  0  0  0  0  0  0  0  0  0  0
   13.1126  -18.5887   25.1900 C   0  0  0  0  0  0  0  0  0  0  0  0
   13.8885  -19.5742   25.1941 O   0  0  0  0  0  0  0  0  0  0  0  0
   12.4055  -18.3345   26.3560 O   0  0  0  0  0  0  0  0  0  0  0  0
  1  5  1  0
  2  3  1  0
  2  1  1  0
  3  4  1  0
  4  5  1  0
  5  6  1  1
  6  7  2  0
  8  9  1  0
  8  6  1  0
  9 20  1  0
 10 11  1  0
  9 10  1  1
 11 12  2  0
 12 13  1  0
 14 13  1  0
 15 14  2  0
 16 15  1  0
 17 18  1  0
 17 16  2  0
 18 19  2  0
 19 11  1  0
 19 14  1  0
 20 21  2  0
 23 22  1  0
 24 23  1  1
 24 26  1  0
 25 20  1  0
 25 24  1  0
 26 27  2  0
 26 28  1  0
M  END
$$$$
