PWS.pdb
     RDKit          3D

 28 30  0  0  1  0  0  0  0  0999 V2000
    8.0569  -15.1515   18.1997 N   0  0  0  0  0  0  0  0  0  0  0  0
    7.8545  -14.5463   16.8852 C   0  0  0  0  0  0  0  0  0  0  0  0
    7.8058  -13.0480   17.1420 C   0  0  0  0  0  0  0  0  0  0  0  0
    8.2970  -12.8923   18.5470 C   0  0  0  0  0  0  0  0  0  0  0  0
    8.9812  -14.2193   18.8043 C   0  0  1  0  0  0  0  0  0  0  0  0
    9.1083  -14.4012   20.2583 C   0  0  0  0  0  0  0  0  0  0  0  0
   10.1110  -13.9453   20.8606 O   0  0  0  0  0  0  0  0  0  0  0  0
    8.1362  -15.0843   21.0627 N   0  0  0  0  0  0  0  0  0  0  0  0
    8.2294  -15.0835   22.5183 C   0  0  1  0  0  0  0  0  0  0  0  0
    6.9348  -14.8563   23.2104 C   0  0  0  0  0  0  0  0  0  0  0  0
    6.9552  -14.8536   24.6662 C   0  0  0  0  0  0  0  0  0  0  0  0
    6.8329  -15.8761   25.5592 C   0  0  0  0  0  0  0  0  0  0  0  0
    6.9220  -15.3968   26.8319 N   0  0  0  0  0  0  0  0  0  0  0  0
    7.1017  -14.0678   26.7632 C   0  0  0  0  0  0  0  0  0  0  0  0
    7.2468  -13.1363   27.7677 C   0  0  0  0  0  0  0  0  0  0  0  0
    7.4216  -11.8060   27.4668 C   0  0  0  0  0  0  0  0  0  0  0  0
    7.4499  -11.4164   26.1546 C   0  0  0  0  0  0  0  0  0  0  0  0
    7.3027  -12.3655   25.1615 C   0  0  0  0  0  0  0  0  0  0  0  0
    7.1255  -13.7077   25.4222 C   0  0  0  0  0  0  0  0  0  0  0  0
    8.9646  -16.3012   22.9739 C   0  0  0  0  0  0  0  0  0  0  0  0
    8.6238  -17.4529   22.5747 O   0  0  0  0  0  0  0  0  0  0  0  0
   12.8926  -16.3855   23.8257 O   0  0  0  0  0  0  0  0  0  0  0  0
   12.1257  -17.5421   23.6526 C   0  0  0  0  0  0  0  0  0  0  0  0
   10.7773  -17.4101   24.3323 C   0  0  2  0  0  0  0  0  0  0  0  0
   10.0625  -16.2417   23.8597 N   0  0  0  0  0  0  0  0  0  0  0  0
   10.8778  -17.4620   25.7945 C   0  0  0  0  0  0  0  0  0  0  0  0
   10.3786  -16.5382   26.4806 O   0  0  0  0  0  0  0  0  0  0  0  0
   11.5043  -18.4924   26.4798 O   0  0  0  0  0  0  0  0  0  0  0  0
  1  5  1  0
  2  3  1  0
  2  1  1  0
  3  4  1  0
  4  5  1  0
  5  6  1  1
  6  7  2  0
  8  9  1  0
  8  6  1  0
  9 20  1  0
 10 11  1  0
  9 10  1  1
 11 12  2  0
 12 13  1  0
 14 13  1  0
 15 14  2  0
 16 15  1  0
 17 18  1  0
 17 16  2  0
 18 19  2  0
 19 11  1  0
 19 14  1  0
 20 21  2  0
 23 22  1  0
 24 23  1  6
 24 26  1  0
 25 20  1  0
 25 24  1  0
 26 27  2  0
 26 28  1  0
M  END
$$$$
