PWS.pdb
     RDKit          3D

 28 30  0  0  1  0  0  0  0  0999 V2000
    7.2763  -15.5421   20.9064 N   0  0  0  0  0  0  0  0  0  0  0  0
    6.5222  -14.9142   19.8237 C   0  0  0  0  0  0  0  0  0  0  0  0
    6.8950  -13.4409   19.8834 C   0  0  0  0  0  0  0  0  0  0  0  0
    8.0765  -13.3902   20.8006 C   0  0  0  0  0  0  0  0  0  0  0  0
    8.5338  -14.8342   20.8268 C   0  0  1  0  0  0  0  0  0  0  0  0
    9.3780  -15.0318   22.0150 C   0  0  0  0  0  0  0  0  0  0  0  0
   10.4890  -14.4530   22.0964 O   0  0  0  0  0  0  0  0  0  0  0  0
    9.0095  -15.8654   23.1230 N   0  0  0  0  0  0  0  0  0  0  0  0
    9.8024  -15.8841   24.3471 C   0  0  1  0  0  0  0  0  0  0  0  0
    8.9960  -15.9380   25.5934 C   0  0  0  0  0  0  0  0  0  0  0  0
    7.7078  -15.2597   25.5769 C   0  0  0  0  0  0  0  0  0  0  0  0
    6.4581  -15.7309   25.3044 C   0  0  0  0  0  0  0  0  0  0  0  0
    5.5452  -14.7257   25.4206 N   0  0  0  0  0  0  0  0  0  0  0  0
    6.2018  -13.6069   25.7675 C   0  0  0  0  0  0  0  0  0  0  0  0
    5.7293  -12.3344   26.0029 C   0  0  0  0  0  0  0  0  0  0  0  0
    6.5923  -11.3221   26.3510 C   0  0  0  0  0  0  0  0  0  0  0  0
    7.9297  -11.5934   26.4615 C   0  0  0  0  0  0  0  0  0  0  0  0
    8.3842  -12.8757   26.2216 C   0  0  0  0  0  0  0  0  0  0  0  0
    7.5515  -13.9170   25.8705 C   0  0  0  0  0  0  0  0  0  0  0  0
   10.8520  -16.9422   24.2479 C   0  0  0  0  0  0  0  0  0  0  0  0
   10.5366  -18.1669   24.1954 O   0  0  0  0  0  0  0  0  0  0  0  0
   14.9916  -15.9782   24.1402 O   0  0  0  0  0  0  0  0  0  0  0  0
   14.5241  -17.1298   23.4990 C   0  0  0  0  0  0  0  0  0  0  0  0
   13.2696  -17.6559   24.1676 C   0  0  2  0  0  0  0  0  0  0  0  0
   12.2318  -16.6456   24.2075 N   0  0  0  0  0  0  0  0  0  0  0  0
   13.5394  -18.2457   25.4830 C   0  0  0  0  0  0  0  0  0  0  0  0
   13.0011  -17.7523   26.5028 O   0  0  0  0  0  0  0  0  0  0  0  0
   14.3711  -19.3395   25.6722 O   0  0  0  0  0  0  0  0  0  0  0  0
  1  5  1  0
  2  3  1  0
  2  1  1  0
  3  4  1  0
  4  5  1  0
  5  6  1  1
  6  7  2  0
  8  9  1  0
  8  6  1  0
  9 20  1  0
 10 11  1  0
  9 10  1  1
 11 12  2  0
 12 13  1  0
 14 13  1  0
 15 14  2  0
 16 15  1  0
 17 18  1  0
 17 16  2  0
 18 19  2  0
 19 11  1  0
 19 14  1  0
 20 21  2  0
 23 22  1  0
 24 23  1  1
 24 26  1  0
 25 20  1  0
 25 24  1  0
 26 27  2  0
 26 28  1  0
M  END
$$$$
