PWS.pdb
     RDKit          3D

 28 30  0  0  1  0  0  0  0  0999 V2000
    7.2878  -15.1705   20.5666 N   0  0  0  0  0  0  0  0  0  0  0  0
    6.6558  -14.4166   19.4862 C   0  0  0  0  0  0  0  0  0  0  0  0
    7.1758  -12.9954   19.6375 C   0  0  0  0  0  0  0  0  0  0  0  0
    8.3108  -13.1127   20.6059 C   0  0  0  0  0  0  0  0  0  0  0  0
    8.6143  -14.5967   20.5774 C   0  0  1  0  0  0  0  0  0  0  0  0
    9.3754  -14.9377   21.7890 C   0  0  0  0  0  0  0  0  0  0  0  0
   10.5501  -14.5176   21.9289 O   0  0  0  0  0  0  0  0  0  0  0  0
    8.8534  -15.7417   22.8565 N   0  0  0  0  0  0  0  0  0  0  0  0
    9.6022  -15.9271   24.0944 C   0  0  1  0  0  0  0  0  0  0  0  0
    8.7517  -16.0757   25.3032 C   0  0  0  0  0  0  0  0  0  0  0  0
    7.5726  -15.2261   25.3903 C   0  0  0  0  0  0  0  0  0  0  0  0
    6.2606  -15.4973   25.1396 C   0  0  0  0  0  0  0  0  0  0  0  0
    5.5034  -14.3869   25.3656 N   0  0  0  0  0  0  0  0  0  0  0  0
    6.3228  -13.3996   25.7618 C   0  0  0  0  0  0  0  0  0  0  0  0
    6.0430  -12.0954   26.1065 C   0  0  0  0  0  0  0  0  0  0  0  0
    7.0516  -11.2419   26.4874 C   0  0  0  0  0  0  0  0  0  0  0  0
    8.3401  -11.7036   26.5206 C   0  0  0  0  0  0  0  0  0  0  0  0
    8.6004  -13.0147   26.1715 C   0  0  0  0  0  0  0  0  0  0  0  0
    7.6176  -13.9008   25.7842 C   0  0  0  0  0  0  0  0  0  0  0  0
   10.6083  -17.0161   23.9131 C   0  0  0  0  0  0  0  0  0  0  0  0
   10.2460  -18.1920   23.6162 O   0  0  0  0  0  0  0  0  0  0  0  0
   14.8360  -16.3026   24.0155 O   0  0  0  0  0  0  0  0  0  0  0  0
   14.2431  -17.2847   23.2155 C   0  0  0  0  0  0  0  0  0  0  0  0
   12.9920  -17.8385   23.8679 C   0  0  2  0  0  0  0  0  0  0  0  0
   11.9964  -16.8033   24.0588 N   0  0  0  0  0  0  0  0  0  0  0  0
   13.2821  -18.5820   25.0983 C   0  0  0  0  0  0  0  0  0  0  0  0
   14.0235  -19.5924   25.0486 O   0  0  0  0  0  0  0  0  0  0  0  0
   12.7757  -18.2283   26.3403 O   0  0  0  0  0  0  0  0  0  0  0  0
  1  5  1  0
  2  3  1  0
  2  1  1  0
  3  4  1  0
  4  5  1  0
  5  6  1  1
  6  7  2  0
  8  9  1  0
  8  6  1  0
  9 20  1  0
 10 11  1  0
  9 10  1  1
 11 12  2  0
 12 13  1  0
 14 13  1  0
 15 14  2  0
 16 15  1  0
 17 18  1  0
 17 16  2  0
 18 19  2  0
 19 11  1  0
 19 14  1  0
 20 21  2  0
 23 22  1  0
 24 23  1  1
 24 26  1  0
 25 20  1  0
 25 24  1  0
 26 27  2  0
 26 28  1  0
M  END
$$$$
