PWS.pdb
     RDKit          3D

 28 30  0  0  1  0  0  0  0  0999 V2000
    7.9110  -15.2029   18.2814 N   0  0  0  0  0  0  0  0  0  0  0  0
    7.7385  -14.6411   16.9436 C   0  0  0  0  0  0  0  0  0  0  0  0
    7.8459  -13.1353   17.1292 C   0  0  0  0  0  0  0  0  0  0  0  0
    8.3840  -12.9659   18.5153 C   0  0  0  0  0  0  0  0  0  0  0  0
    8.9381  -14.3420   18.8227 C   0  0  1  0  0  0  0  0  0  0  0  0
    9.0814  -14.4692   20.2810 C   0  0  0  0  0  0  0  0  0  0  0  0
   10.0455  -13.9169   20.8655 O   0  0  0  0  0  0  0  0  0  0  0  0
    8.1679  -15.2027   21.1093 N   0  0  0  0  0  0  0  0  0  0  0  0
    8.2549  -15.1404   22.5639 C   0  0  1  0  0  0  0  0  0  0  0  0
    6.9532  -14.9109   23.2418 C   0  0  0  0  0  0  0  0  0  0  0  0
    6.9656  -14.8594   24.6967 C   0  0  0  0  0  0  0  0  0  0  0  0
    6.9281  -15.8593   25.6223 C   0  0  0  0  0  0  0  0  0  0  0  0
    6.9685  -15.3332   26.8789 N   0  0  0  0  0  0  0  0  0  0  0  0
    7.0322  -13.9966   26.7673 C   0  0  0  0  0  0  0  0  0  0  0  0
    7.0905  -13.0240   27.7413 C   0  0  0  0  0  0  0  0  0  0  0  0
    7.1505  -11.6940   27.3976 C   0  0  0  0  0  0  0  0  0  0  0  0
    7.1517  -11.3460   26.0734 C   0  0  0  0  0  0  0  0  0  0  0  0
    7.0928  -12.3358   25.1115 C   0  0  0  0  0  0  0  0  0  0  0  0
    7.0316  -13.6793   25.4154 C   0  0  0  0  0  0  0  0  0  0  0  0
    9.0121  -16.3235   23.0715 C   0  0  0  0  0  0  0  0  0  0  0  0
    8.6757  -17.4991   22.7443 O   0  0  0  0  0  0  0  0  0  0  0  0
   12.5945  -16.0128   23.3346 O   0  0  0  0  0  0  0  0  0  0  0  0
   12.3599  -17.2005   24.0348 C   0  0  0  0  0  0  0  0  0  0  0  0
   10.8969  -17.3343   24.4082 C   0  0  2  0  0  0  0  0  0  0  0  0
   10.1267  -16.2040   23.9299 N   0  0  0  0  0  0  0  0  0  0  0  0
   10.7035  -17.5891   25.8394 C   0  0  0  0  0  0  0  0  0  0  0  0
    9.9334  -16.8508   26.4992 O   0  0  0  0  0  0  0  0  0  0  0  0
   11.3335  -18.6187   26.5227 O   0  0  0  0  0  0  0  0  0  0  0  0
  1  5  1  0
  2  3  1  0
  2  1  1  0
  3  4  1  0
  4  5  1  0
  5  6  1  1
  6  7  2  0
  8  9  1  0
  8  6  1  0
  9 20  1  0
 10 11  1  0
  9 10  1  1
 11 12  2  0
 12 13  1  0
 14 13  1  0
 15 14  2  0
 16 15  1  0
 17 18  1  0
 17 16  2  0
 18 19  2  0
 19 11  1  0
 19 14  1  0
 20 21  2  0
 23 22  1  0
 24 23  1  1
 24 26  1  0
 25 20  1  0
 25 24  1  0
 26 27  2  0
 26 28  1  0
M  END
$$$$
