PWS.pdb
     RDKit          3D

 28 30  0  0  1  0  0  0  0  0999 V2000
    7.5565  -17.2360   20.0140 N   0  0  0  0  0  0  0  0  0  0  0  0
    6.9229  -17.2414   18.6974 C   0  0  0  0  0  0  0  0  0  0  0  0
    7.3818  -15.9535   18.0313 C   0  0  0  0  0  0  0  0  0  0  0  0
    8.4953  -15.4584   18.9001 C   0  0  0  0  0  0  0  0  0  0  0  0
    8.8583  -16.6911   19.7025 C   0  0  1  0  0  0  0  0  0  0  0  0
    9.6009  -16.2640   20.8981 C   0  0  0  0  0  0  0  0  0  0  0  0
   10.7851  -15.8616   20.7886 O   0  0  0  0  0  0  0  0  0  0  0  0
    9.0501  -16.2746   22.2229 N   0  0  0  0  0  0  0  0  0  0  0  0
    9.8082  -15.7593   23.3574 C   0  0  1  0  0  0  0  0  0  0  0  0
    9.3264  -14.4496   23.8664 C   0  0  0  0  0  0  0  0  0  0  0  0
    8.0175  -14.4292   24.5037 C   0  0  0  0  0  0  0  0  0  0  0  0
    6.9936  -15.3279   24.4609 C   0  0  0  0  0  0  0  0  0  0  0  0
    5.9555  -14.8888   25.2272 N   0  0  0  0  0  0  0  0  0  0  0  0
    6.3065  -13.7093   25.7648 C   0  0  0  0  0  0  0  0  0  0  0  0
    5.6074  -12.8713   26.6056 C   0  0  0  0  0  0  0  0  0  0  0  0
    6.1668  -11.6929   27.0406 C   0  0  0  0  0  0  0  0  0  0  0  0
    7.4293  -11.3608   26.6281 C   0  0  0  0  0  0  0  0  0  0  0  0
    8.1143  -12.2143   25.7850 C   0  0  0  0  0  0  0  0  0  0  0  0
    7.5884  -13.4037   25.3269 C   0  0  0  0  0  0  0  0  0  0  0  0
    9.9275  -16.8190   24.4031 C   0  0  0  0  0  0  0  0  0  0  0  0
    8.9462  -17.5675   24.6840 O   0  0  0  0  0  0  0  0  0  0  0  0
   13.1747  -18.8198   24.7005 O   0  0  0  0  0  0  0  0  0  0  0  0
   12.7263  -18.6625   26.0158 C   0  0  0  0  0  0  0  0  0  0  0  0
   11.3010  -18.1477   26.0490 C   0  0  2  0  0  0  0  0  0  0  0  0
   11.1186  -17.0452   25.1267 N   0  0  0  0  0  0  0  0  0  0  0  0
   10.8491  -17.8325   27.4081 C   0  0  0  0  0  0  0  0  0  0  0  0
   10.5077  -16.6584   27.6883 O   0  0  0  0  0  0  0  0  0  0  0  0
   10.7742  -18.7735   28.4244 O   0  0  0  0  0  0  0  0  0  0  0  0
  1  5  1  0
  2  3  1  0
  2  1  1  0
  3  4  1  0
  4  5  1  0
  5  6  1  1
  6  7  2  0
  8  9  1  0
  8  6  1  0
  9 20  1  0
 10 11  1  0
  9 10  1  1
 11 12  2  0
 12 13  1  0
 14 13  1  0
 15 14  2  0
 16 15  1  0
 17 18  1  0
 17 16  2  0
 18 19  2  0
 19 11  1  0
 19 14  1  0
 20 21  2  0
 23 22  1  0
 24 23  1  1
 24 26  1  0
 25 20  1  0
 25 24  1  0
 26 27  2  0
 26 28  1  0
M  END
$$$$
