PWS.pdb
     RDKit          3D

 28 30  0  0  1  0  0  0  0  0999 V2000
    7.5063  -15.6496   20.6288 N   0  0  0  0  0  0  0  0  0  0  0  0
    6.9529  -14.9999   19.4427 C   0  0  0  0  0  0  0  0  0  0  0  0
    7.2125  -13.5153   19.6466 C   0  0  0  0  0  0  0  0  0  0  0  0
    8.1749  -13.4567   20.7911 C   0  0  0  0  0  0  0  0  0  0  0  0
    8.7066  -14.8743   20.8456 C   0  0  1  0  0  0  0  0  0  0  0  0
    9.2994  -15.0965   22.1732 C   0  0  0  0  0  0  0  0  0  0  0  0
   10.3109  -14.4411   22.5244 O   0  0  0  0  0  0  0  0  0  0  0  0
    8.7868  -16.0390   23.1258 N   0  0  0  0  0  0  0  0  0  0  0  0
    9.3784  -16.1649   24.4531 C   0  0  1  0  0  0  0  0  0  0  0  0
    8.3876  -16.2075   25.5590 C   0  0  0  0  0  0  0  0  0  0  0  0
    7.3423  -15.1941   25.5492 C   0  0  0  0  0  0  0  0  0  0  0  0
    6.0184  -15.2851   25.2376 C   0  0  0  0  0  0  0  0  0  0  0  0
    5.4213  -14.0683   25.3797 N   0  0  0  0  0  0  0  0  0  0  0  0
    6.3557  -13.1920   25.7825 C   0  0  0  0  0  0  0  0  0  0  0  0
    6.2527  -11.8469   26.0618 C   0  0  0  0  0  0  0  0  0  0  0  0
    7.3553  -11.1309   26.4648 C   0  0  0  0  0  0  0  0  0  0  0  0
    8.5595  -11.7710   26.5858 C   0  0  0  0  0  0  0  0  0  0  0  0
    8.6424  -13.1203   26.3013 C   0  0  0  0  0  0  0  0  0  0  0  0
    7.5609  -13.8726   25.8946 C   0  0  0  0  0  0  0  0  0  0  0  0
   10.3567  -17.2935   24.4605 C   0  0  0  0  0  0  0  0  0  0  0  0
   10.0974  -18.3816   23.8682 O   0  0  0  0  0  0  0  0  0  0  0  0
   13.9591  -17.1767   23.7633 O   0  0  0  0  0  0  0  0  0  0  0  0
   13.9236  -17.9732   24.9124 C   0  0  0  0  0  0  0  0  0  0  0  0
   12.4996  -18.3442   25.2758 C   0  0  2  0  0  0  0  0  0  0  0  0
   11.6050  -17.2158   25.1157 N   0  0  0  0  0  0  0  0  0  0  0  0
   12.4014  -18.9637   26.6015 C   0  0  0  0  0  0  0  0  0  0  0  0
   11.6092  -18.4862   27.4487 O   0  0  0  0  0  0  0  0  0  0  0  0
   13.1468  -20.0692   26.9839 O   0  0  0  0  0  0  0  0  0  0  0  0
  1  5  1  0
  2  3  1  0
  2  1  1  0
  3  4  1  0
  4  5  1  0
  5  6  1  1
  6  7  2  0
  8  9  1  0
  8  6  1  0
  9 20  1  0
 10 11  1  0
  9 10  1  1
 11 12  2  0
 12 13  1  0
 14 13  1  0
 15 14  2  0
 16 15  1  0
 17 18  1  0
 17 16  2  0
 18 19  2  0
 19 11  1  0
 19 14  1  0
 20 21  2  0
 23 22  1  0
 24 23  1  1
 24 26  1  0
 25 20  1  0
 25 24  1  0
 26 27  2  0
 26 28  1  0
M  END
$$$$
