EAV.pdb
     RDKit          3D

 22 21  0  0  1  0  0  0  0  0999 V2000
   15.4690  -12.5014  -13.5343 N   0  0  0  0  0  0  0  0  0  0  0  0
   15.7207  -11.1235  -13.6951 C   0  0  1  0  0  0  0  0  0  0  0  0
   14.6854  -10.3388  -14.4181 C   0  0  0  0  0  0  0  0  0  0  0  0
   13.2926  -10.7523  -14.1762 C   0  0  0  0  0  0  0  0  0  0  0  0
   12.4897  -10.9538  -15.3818 C   0  0  0  0  0  0  0  0  0  0  0  0
   12.9614  -10.8453  -16.5207 O   0  0  0  0  0  0  0  0  0  0  0  0
   16.0683  -10.4504  -12.4046 C   0  0  0  0  0  0  0  0  0  0  0  0
   15.2719  -10.5154  -11.4116 O   0  0  0  0  0  0  0  0  0  0  0  0
   11.1253  -11.2841  -15.2062 O   0  0  0  0  0  0  0  0  0  0  0  0
   19.0122   -8.5468  -11.1760 C   0  0  0  0  0  0  0  0  0  0  0  0
   17.5919   -9.0419  -11.0097 C   0  0  2  0  0  0  0  0  0  0  0  0
   17.2542   -9.7437  -12.2580 N   0  0  0  0  0  0  0  0  0  0  0  0
   16.6755   -7.8778  -10.9389 C   0  0  0  0  0  0  0  0  0  0  0  0
   16.1197   -7.3608  -11.9437 O   0  0  0  0  0  0  0  0  0  0  0  0
   14.7654   -7.0162   -7.2957 C   0  0  0  0  0  0  0  0  0  0  0  0
   14.3567   -6.4685   -8.6211 C   0  0  1  0  0  0  0  0  0  0  0  0
   13.4564   -5.2720   -8.4467 C   0  0  0  0  0  0  0  0  0  0  0  0
   15.5429   -6.1551   -9.5100 C   0  0  2  0  0  0  0  0  0  0  0  0
   16.4025   -7.3059   -9.6657 N   0  0  0  0  0  0  0  0  0  0  0  0
   16.3311   -5.0155   -8.9934 C   0  0  0  0  0  0  0  0  0  0  0  0
   16.0777   -3.6884   -9.2988 O   0  0  0  0  0  0  0  0  0  0  0  0
   17.2947   -5.2452   -8.2280 O   0  0  0  0  0  0  0  0  0  0  0  0
  2  1  1  1
  3  2  1  0
  4  3  1  0
  4  5  1  0
  5  9  1  0
  5  6  2  0
  7  2  1  0
  8  7  2  0
 11 10  1  6
 11 13  1  0
 11 12  1  0
 12  7  1  0
 13 19  1  0
 14 13  2  0
 16 15  1  1
 16 17  1  0
 18 16  1  0
 18 20  1  0
 18 19  1  1
 20 22  2  0
 20 21  1  0
M  END
$$$$
