EAV.pdb
     RDKit          3D

 22 21  0  0  1  0  0  0  0  0999 V2000
   15.1516  -10.3452  -15.0591 N   0  0  0  0  0  0  0  0  0  0  0  0
   16.3652  -11.0429  -14.8908 C   0  0  1  0  0  0  0  0  0  0  0  0
   16.3918  -12.4531  -15.3608 C   0  0  0  0  0  0  0  0  0  0  0  0
   15.0739  -13.0740  -15.5778 C   0  0  0  0  0  0  0  0  0  0  0  0
   15.1126  -14.4367  -16.1073 C   0  0  0  0  0  0  0  0  0  0  0  0
   14.7265  -14.7176  -17.2491 O   0  0  0  0  0  0  0  0  0  0  0  0
   17.5374  -10.2944  -15.4432 C   0  0  0  0  0  0  0  0  0  0  0  0
   18.6962  -10.8252  -15.4429 O   0  0  0  0  0  0  0  0  0  0  0  0
   15.6156  -15.4499  -15.2578 O   0  0  0  0  0  0  0  0  0  0  0  0
   17.9656   -7.0154  -17.1330 C   0  0  0  0  0  0  0  0  0  0  0  0
   18.5418   -8.2538  -16.4813 C   0  0  2  0  0  0  0  0  0  0  0  0
   17.3944   -9.0152  -15.9631 N   0  0  0  0  0  0  0  0  0  0  0  0
   19.3335   -7.8549  -15.2923 C   0  0  0  0  0  0  0  0  0  0  0  0
   18.8327   -7.6355  -14.1578 O   0  0  0  0  0  0  0  0  0  0  0  0
   22.1617   -9.6807  -13.6991 C   0  0  0  0  0  0  0  0  0  0  0  0
   22.6893   -8.3442  -14.0980 C   0  0  1  0  0  0  0  0  0  0  0  0
   23.5929   -8.4666  -15.2985 C   0  0  0  0  0  0  0  0  0  0  0  0
   21.5873   -7.3295  -14.3245 C   0  0  2  0  0  0  0  0  0  0  0  0
   20.7413   -7.7097  -15.4323 N   0  0  0  0  0  0  0  0  0  0  0  0
   22.1282   -5.9732  -14.5581 C   0  0  0  0  0  0  0  0  0  0  0  0
   22.6618   -5.1640  -13.5686 O   0  0  0  0  0  0  0  0  0  0  0  0
   22.1117   -5.5084  -15.7203 O   0  0  0  0  0  0  0  0  0  0  0  0
  2  1  1  6
  3  2  1  0
  4  3  1  0
  4  5  1  0
  5  9  1  0
  5  6  2  0
  7  2  1  0
  8  7  2  0
 11 10  1  1
 11 13  1  0
 11 12  1  0
 12  7  1  0
 13 19  1  0
 14 13  2  0
 16 15  1  6
 16 17  1  0
 18 16  1  0
 18 20  1  0
 18 19  1  6
 20 22  2  0
 20 21  1  0
M  END
$$$$
