EAV.pdb
     RDKit          3D

 22 21  0  0  1  0  0  0  0  0999 V2000
   18.7199  -13.5514  -18.7338 N   0  0  0  0  0  0  0  0  0  0  0  0
   18.2830  -12.2328  -18.4923 C   0  0  1  0  0  0  0  0  0  0  0  0
   17.1605  -12.0701  -17.5312 C   0  0  0  0  0  0  0  0  0  0  0  0
   15.9444  -12.8413  -17.8403 C   0  0  0  0  0  0  0  0  0  0  0  0
   14.8203  -12.6124  -16.9332 C   0  0  0  0  0  0  0  0  0  0  0  0
   13.8213  -11.9609  -17.2635 O   0  0  0  0  0  0  0  0  0  0  0  0
   19.4075  -11.3143  -18.1302 C   0  0  0  0  0  0  0  0  0  0  0  0
   20.2501  -11.6522  -17.2356 O   0  0  0  0  0  0  0  0  0  0  0  0
   14.9084  -13.1695  -15.6358 O   0  0  0  0  0  0  0  0  0  0  0  0
   20.6613   -8.1013  -19.4966 C   0  0  0  0  0  0  0  0  0  0  0  0
   20.6905   -9.1920  -18.4480 C   0  0  2  0  0  0  0  0  0  0  0  0
   19.5590  -10.0822  -18.7518 N   0  0  0  0  0  0  0  0  0  0  0  0
   20.3949   -8.5998  -17.1208 C   0  0  0  0  0  0  0  0  0  0  0  0
   19.2334   -8.3285  -16.7170 O   0  0  0  0  0  0  0  0  0  0  0  0
   21.0512  -10.1845  -13.9729 C   0  0  0  0  0  0  0  0  0  0  0  0
   21.7824   -8.8877  -13.8877 C   0  0  1  0  0  0  0  0  0  0  0  0
   23.2685   -9.1064  -14.0150 C   0  0  0  0  0  0  0  0  0  0  0  0
   21.2759   -7.8693  -14.8886 C   0  0  2  0  0  0  0  0  0  0  0  0
   21.4808   -8.3189  -16.2463 N   0  0  0  0  0  0  0  0  0  0  0  0
   21.9169   -6.5497  -14.7026 C   0  0  0  0  0  0  0  0  0  0  0  0
   21.6006   -5.6642  -13.6856 O   0  0  0  0  0  0  0  0  0  0  0  0
   22.8065   -6.1916  -15.5073 O   0  0  0  0  0  0  0  0  0  0  0  0
  2  1  1  1
  3  2  1  0
  4  3  1  0
  4  5  1  0
  5  9  1  0
  5  6  2  0
  7  2  1  0
  8  7  2  0
 11 10  1  6
 11 13  1  0
 11 12  1  0
 12  7  1  0
 13 19  1  0
 14 13  2  0
 16 15  1  6
 16 17  1  0
 18 16  1  0
 18 20  1  0
 18 19  1  6
 20 22  2  0
 20 21  1  0
M  END
$$$$
