EAV.pdb
     RDKit          3D

 22 21  0  0  1  0  0  0  0  0999 V2000
   19.1109  -12.5399  -17.2369 N   0  0  0  0  0  0  0  0  0  0  0  0
   19.9289  -11.4428  -17.5764 C   0  0  1  0  0  0  0  0  0  0  0  0
   19.4311  -10.5522  -18.6578 C   0  0  0  0  0  0  0  0  0  0  0  0
   19.2264  -11.1970  -19.9661 C   0  0  0  0  0  0  0  0  0  0  0  0
   20.4494  -11.6391  -20.6351 C   0  0  0  0  0  0  0  0  0  0  0  0
   21.4766  -10.9495  -20.6668 O   0  0  0  0  0  0  0  0  0  0  0  0
   20.3232  -10.6313  -16.3825 C   0  0  0  0  0  0  0  0  0  0  0  0
   19.4304  -10.1334  -15.6212 O   0  0  0  0  0  0  0  0  0  0  0  0
   20.4257  -12.9078  -21.2607 O   0  0  0  0  0  0  0  0  0  0  0  0
   23.4557  -10.1496  -14.5291 C   0  0  0  0  0  0  0  0  0  0  0  0
   22.0638   -9.6640  -14.8706 C   0  0  2  0  0  0  0  0  0  0  0  0
   21.6578  -10.4009  -16.0777 N   0  0  0  0  0  0  0  0  0  0  0  0
   22.1301   -8.2372  -15.2703 C   0  0  0  0  0  0  0  0  0  0  0  0
   22.4512   -7.8463  -16.4235 O   0  0  0  0  0  0  0  0  0  0  0  0
   19.8932   -6.0394  -16.2218 C   0  0  0  0  0  0  0  0  0  0  0  0
   20.4109   -5.3677  -14.9952 C   0  0  1  0  0  0  0  0  0  0  0  0
   19.4399   -5.5259  -13.8530 C   0  0  0  0  0  0  0  0  0  0  0  0
   21.8018   -5.8369  -14.6202 C   0  0  2  0  0  0  0  0  0  0  0  0
   21.8137   -7.2459  -14.3009 N   0  0  0  0  0  0  0  0  0  0  0  0
   22.3539   -5.0677  -13.4843 C   0  0  0  0  0  0  0  0  0  0  0  0
   22.9104   -3.8040  -13.5937 O   0  0  0  0  0  0  0  0  0  0  0  0
   22.3251   -5.5753  -12.3403 O   0  0  0  0  0  0  0  0  0  0  0  0
  2  1  1  1
  3  2  1  0
  4  3  1  0
  4  5  1  0
  5  9  1  0
  5  6  2  0
  7  2  1  0
  8  7  2  0
 11 10  1  6
 11 13  1  0
 11 12  1  0
 12  7  1  0
 13 19  1  0
 14 13  2  0
 16 15  1  6
 16 17  1  0
 18 16  1  0
 18 20  1  0
 18 19  1  1
 20 22  2  0
 20 21  1  0
M  END
$$$$
