EAV.pdb
     RDKit          3D

 22 21  0  0  1  0  0  0  0  0999 V2000
   27.5122  -20.4571  -16.1503 N   0  0  0  0  0  0  0  0  0  0  0  0
   26.3060  -20.1858  -16.8281 C   0  0  1  0  0  0  0  0  0  0  0  0
   25.8475  -21.2092  -17.8042 C   0  0  0  0  0  0  0  0  0  0  0  0
   24.6261  -20.8684  -18.5535 C   0  0  0  0  0  0  0  0  0  0  0  0
   23.6533  -21.9536  -18.6758 C   0  0  0  0  0  0  0  0  0  0  0  0
   23.8882  -23.1042  -18.2854 O   0  0  0  0  0  0  0  0  0  0  0  0
   25.1920  -19.8300  -15.8945 C   0  0  0  0  0  0  0  0  0  0  0  0
   25.0382  -20.4719  -14.8041 O   0  0  0  0  0  0  0  0  0  0  0  0
   22.4060  -21.6444  -19.2673 O   0  0  0  0  0  0  0  0  0  0  0  0
   22.8142  -17.0172  -15.6607 C   0  0  0  0  0  0  0  0  0  0  0  0
   23.2247  -18.4198  -15.2680 C   0  0  2  0  0  0  0  0  0  0  0  0
   24.3055  -18.8033  -16.1899 N   0  0  0  0  0  0  0  0  0  0  0  0
   22.1048  -19.3513  -15.5472 C   0  0  0  0  0  0  0  0  0  0  0  0
   21.9311  -19.9275  -16.6534 O   0  0  0  0  0  0  0  0  0  0  0  0
   18.8215  -22.4516  -13.6856 C   0  0  0  0  0  0  0  0  0  0  0  0
   20.0095  -21.5566  -13.5792 C   0  0  1  0  0  0  0  0  0  0  0  0
   21.2793  -22.3659  -13.5057 C   0  0  0  0  0  0  0  0  0  0  0  0
   20.0618  -20.5276  -14.6900 C   0  0  2  0  0  0  0  0  0  0  0  0
   21.1676  -19.6152  -14.5105 N   0  0  0  0  0  0  0  0  0  0  0  0
   18.8004  -19.7622  -14.7902 C   0  0  0  0  0  0  0  0  0  0  0  0
   17.7409  -20.1071  -15.6131 O   0  0  0  0  0  0  0  0  0  0  0  0
   18.6622  -18.7318  -14.0930 O   0  0  0  0  0  0  0  0  0  0  0  0
  2  1  1  1
  3  2  1  0
  4  3  1  0
  4  5  1  0
  5  9  1  0
  5  6  2  0
  7  2  1  0
  8  7  2  0
 11 10  1  6
 11 13  1  0
 11 12  1  0
 12  7  1  0
 13 19  1  0
 14 13  2  0
 16 15  1  6
 16 17  1  0
 18 16  1  0
 18 20  1  0
 18 19  1  1
 20 22  2  0
 20 21  1  0
M  END
$$$$
