EAV.pdb
     RDKit          3D

 22 21  0  0  1  0  0  0  0  0999 V2000
   19.1464  -12.5479  -16.7277 N   0  0  0  0  0  0  0  0  0  0  0  0
   19.9783  -11.4873  -17.1414 C   0  0  1  0  0  0  0  0  0  0  0  0
   19.5164  -10.6990  -18.3142 C   0  0  0  0  0  0  0  0  0  0  0  0
   19.3473  -11.4608  -19.5634 C   0  0  0  0  0  0  0  0  0  0  0  0
   18.9241  -10.6687  -20.7176 C   0  0  0  0  0  0  0  0  0  0  0  0
   17.8034  -10.7855  -21.2294 O   0  0  0  0  0  0  0  0  0  0  0  0
   20.3399  -10.5705  -16.0155 C   0  0  0  0  0  0  0  0  0  0  0  0
   19.4271  -10.0307  -15.3084 O   0  0  0  0  0  0  0  0  0  0  0  0
   19.8538   -9.7426  -21.2464 O   0  0  0  0  0  0  0  0  0  0  0  0
   23.4689   -9.8371  -14.2198 C   0  0  0  0  0  0  0  0  0  0  0  0
   22.0413   -9.4637  -14.5556 C   0  0  2  0  0  0  0  0  0  0  0  0
   21.6654  -10.2857  -15.7165 N   0  0  0  0  0  0  0  0  0  0  0  0
   22.0034   -8.0575  -15.0257 C   0  0  0  0  0  0  0  0  0  0  0  0
   22.2923   -7.7024  -16.1988 O   0  0  0  0  0  0  0  0  0  0  0  0
   19.6420   -5.7592  -15.9659 C   0  0  0  0  0  0  0  0  0  0  0  0
   20.2337   -5.1354  -14.7475 C   0  0  1  0  0  0  0  0  0  0  0  0
   19.3169   -5.3087  -13.5634 C   0  0  0  0  0  0  0  0  0  0  0  0
   21.6310   -5.6432  -14.4561 C   0  0  2  0  0  0  0  0  0  0  0  0
   21.6191   -7.0445  -14.1044 N   0  0  0  0  0  0  0  0  0  0  0  0
   22.2840   -4.8685  -13.3789 C   0  0  0  0  0  0  0  0  0  0  0  0
   22.8765   -3.6293  -13.5570 O   0  0  0  0  0  0  0  0  0  0  0  0
   22.3132   -5.3478  -12.2228 O   0  0  0  0  0  0  0  0  0  0  0  0
  2  1  1  1
  3  2  1  0
  4  3  1  0
  4  5  1  0
  5  9  1  0
  5  6  2  0
  7  2  1  0
  8  7  2  0
 11 10  1  6
 11 13  1  0
 11 12  1  0
 12  7  1  0
 13 19  1  0
 14 13  2  0
 16 15  1  6
 16 17  1  0
 18 16  1  0
 18 20  1  0
 18 19  1  1
 20 22  2  0
 20 21  1  0
M  END
$$$$
