EAV.pdb
     RDKit          3D

 22 21  0  0  1  0  0  0  0  0999 V2000
   17.0068  -12.1602  -15.6137 N   0  0  0  0  0  0  0  0  0  0  0  0
   17.0809  -10.8587  -16.1509 C   0  0  1  0  0  0  0  0  0  0  0  0
   15.9033   -9.9793  -15.9270 C   0  0  0  0  0  0  0  0  0  0  0  0
   14.6204  -10.4963  -16.4332 C   0  0  0  0  0  0  0  0  0  0  0  0
   13.4828   -9.5915  -16.2722 C   0  0  0  0  0  0  0  0  0  0  0  0
   13.0025   -8.9526  -17.2169 O   0  0  0  0  0  0  0  0  0  0  0  0
   18.3367  -10.1471  -15.7566 C   0  0  0  0  0  0  0  0  0  0  0  0
   18.7669  -10.2194  -14.5590 O   0  0  0  0  0  0  0  0  0  0  0  0
   12.9331   -9.4632  -14.9750 O   0  0  0  0  0  0  0  0  0  0  0  0
   21.0208   -8.4572  -17.6535 C   0  0  0  0  0  0  0  0  0  0  0  0
   20.3528   -8.7867  -16.3362 C   0  0  2  0  0  0  0  0  0  0  0  0
   19.0572   -9.3960  -16.6754 N   0  0  0  0  0  0  0  0  0  0  0  0
   20.0332   -7.5259  -15.6234 C   0  0  0  0  0  0  0  0  0  0  0  0
   19.0009   -6.8388  -15.8426 O   0  0  0  0  0  0  0  0  0  0  0  0
   20.0563   -7.1624  -11.8231 C   0  0  0  0  0  0  0  0  0  0  0  0
   20.9304   -6.0935  -12.3861 C   0  0  1  0  0  0  0  0  0  0  0  0
   22.3808   -6.3870  -12.0982 C   0  0  0  0  0  0  0  0  0  0  0  0
   20.6857   -5.8621  -13.8633 C   0  0  2  0  0  0  0  0  0  0  0  0
   20.9400   -7.0584  -14.6325 N   0  0  0  0  0  0  0  0  0  0  0  0
   21.5084   -4.7516  -14.3895 C   0  0  0  0  0  0  0  0  0  0  0  0
   21.2219   -3.4097  -14.2004 O   0  0  0  0  0  0  0  0  0  0  0  0
   22.5356   -5.0222  -15.0519 O   0  0  0  0  0  0  0  0  0  0  0  0
  2  1  1  1
  3  2  1  0
  4  3  1  0
  4  5  1  0
  5  9  1  0
  5  6  2  0
  7  2  1  0
  8  7  2  0
 11 10  1  6
 11 13  1  0
 11 12  1  0
 12  7  1  0
 13 19  1  0
 14 13  2  0
 16 15  1  6
 16 17  1  0
 18 16  1  0
 18 20  1  0
 18 19  1  6
 20 22  2  0
 20 21  1  0
M  END
$$$$
