EAV.pdb
     RDKit          3D

 22 21  0  0  1  0  0  0  0  0999 V2000
   23.3369  -17.4664  -17.3530 N   0  0  0  0  0  0  0  0  0  0  0  0
   24.1914  -18.4307  -16.7804 C   0  0  1  0  0  0  0  0  0  0  0  0
   25.6190  -18.3821  -17.1924 C   0  0  0  0  0  0  0  0  0  0  0  0
   25.8686  -18.5473  -18.6346 C   0  0  0  0  0  0  0  0  0  0  0  0
   25.3628  -19.7928  -19.2104 C   0  0  0  0  0  0  0  0  0  0  0  0
   24.7985  -19.8355  -20.3110 O   0  0  0  0  0  0  0  0  0  0  0  0
   24.0879  -18.4736  -15.2882 C   0  0  0  0  0  0  0  0  0  0  0  0
   24.6754  -17.5932  -14.5781 O   0  0  0  0  0  0  0  0  0  0  0  0
   25.5405  -20.9766  -18.4565 O   0  0  0  0  0  0  0  0  0  0  0  0
   21.8716  -20.2096  -12.9341 C   0  0  0  0  0  0  0  0  0  0  0  0
   23.1648  -19.4654  -13.1869 C   0  0  2  0  0  0  0  0  0  0  0  0
   23.3582  -19.4645  -14.6455 N   0  0  0  0  0  0  0  0  0  0  0  0
   24.2943  -20.2482  -12.6291 C   0  0  0  0  0  0  0  0  0  0  0  0
   24.7764  -21.2732  -13.1795 O   0  0  0  0  0  0  0  0  0  0  0  0
   26.1604  -18.9076   -8.8944 C   0  0  0  0  0  0  0  0  0  0  0  0
   26.8728  -19.5867  -10.0147 C   0  0  1  0  0  0  0  0  0  0  0  0
   28.1127  -20.2815   -9.5121 C   0  0  0  0  0  0  0  0  0  0  0  0
   25.9732  -20.5301  -10.7869 C   0  0  2  0  0  0  0  0  0  0  0  0
   24.8731  -19.8233  -11.4015 N   0  0  0  0  0  0  0  0  0  0  0  0
   25.4472  -21.6137   -9.9290 C   0  0  0  0  0  0  0  0  0  0  0  0
   26.0517  -22.8502   -9.7738 O   0  0  0  0  0  0  0  0  0  0  0  0
   24.3866  -21.4194   -9.2928 O   0  0  0  0  0  0  0  0  0  0  0  0
  2  1  1  1
  3  2  1  0
  4  3  1  0
  4  5  1  0
  5  9  1  0
  5  6  2  0
  7  2  1  0
  8  7  2  0
 11 10  1  6
 11 13  1  0
 11 12  1  0
 12  7  1  0
 13 19  1  0
 14 13  2  0
 16 15  1  1
 16 17  1  0
 18 16  1  0
 18 20  1  0
 18 19  1  1
 20 22  2  0
 20 21  1  0
M  END
$$$$
