EAV.pdb
     RDKit          3D

 22 21  0  0  1  0  0  0  0  0999 V2000
   25.4988  -19.5240  -13.9556 N   0  0  0  0  0  0  0  0  0  0  0  0
   26.2583  -20.2484  -13.0141 C   0  0  1  0  0  0  0  0  0  0  0  0
   27.7049  -20.4145  -13.3137 C   0  0  0  0  0  0  0  0  0  0  0  0
   28.0172  -20.9885  -14.6337 C   0  0  0  0  0  0  0  0  0  0  0  0
   27.3345  -22.2456  -14.9380 C   0  0  0  0  0  0  0  0  0  0  0  0
   27.1339  -23.1172  -14.0827 O   0  0  0  0  0  0  0  0  0  0  0  0
   26.0771  -19.7393  -11.6187 C   0  0  0  0  0  0  0  0  0  0  0  0
   26.3674  -18.5315  -11.3329 O   0  0  0  0  0  0  0  0  0  0  0  0
   26.8992  -22.4428  -16.2695 O   0  0  0  0  0  0  0  0  0  0  0  0
   23.9550  -20.6933   -8.8809 C   0  0  0  0  0  0  0  0  0  0  0  0
   25.2624  -20.0405   -9.2741 C   0  0  2  0  0  0  0  0  0  0  0  0
   25.5948  -20.5615  -10.6094 N   0  0  0  0  0  0  0  0  0  0  0  0
   26.3375  -20.5214   -8.3726 C   0  0  0  0  0  0  0  0  0  0  0  0
   27.0567  -21.5268   -8.6130 O   0  0  0  0  0  0  0  0  0  0  0  0
   29.3283  -19.3857   -4.6252 C   0  0  0  0  0  0  0  0  0  0  0  0
   28.4141  -19.0342   -5.7497 C   0  0  1  0  0  0  0  0  0  0  0  0
   29.1819  -18.3953   -6.8787 C   0  0  0  0  0  0  0  0  0  0  0  0
   27.5967  -20.2183   -6.2245 C   0  0  2  0  0  0  0  0  0  0  0  0
   26.5773  -19.8113   -7.1639 N   0  0  0  0  0  0  0  0  0  0  0  0
   26.9699  -20.9412   -5.0969 C   0  0  0  0  0  0  0  0  0  0  0  0
   27.6652  -21.7135   -4.1811 O   0  0  0  0  0  0  0  0  0  0  0  0
   25.7300  -20.8620   -4.9434 O   0  0  0  0  0  0  0  0  0  0  0  0
  2  1  1  6
  3  2  1  0
  4  3  1  0
  4  5  1  0
  5  9  1  0
  5  6  2  0
  7  2  1  0
  8  7  2  0
 11 10  1  1
 11 13  1  0
 11 12  1  0
 12  7  1  0
 13 19  1  0
 14 13  2  0
 16 15  1  1
 16 17  1  0
 18 16  1  0
 18 20  1  0
 18 19  1  6
 20 22  2  0
 20 21  1  0
M  END
$$$$
