EAV.pdb
     RDKit          3D

 22 21  0  0  1  0  0  0  0  0999 V2000
   15.9417  -13.9641  -15.6848 N   0  0  0  0  0  0  0  0  0  0  0  0
   17.2577  -14.2464  -16.1047 C   0  0  1  0  0  0  0  0  0  0  0  0
   17.4128  -15.3021  -17.1400 C   0  0  0  0  0  0  0  0  0  0  0  0
   16.6504  -15.0890  -18.3820 C   0  0  0  0  0  0  0  0  0  0  0  0
   16.8668  -16.0959  -19.4203 C   0  0  0  0  0  0  0  0  0  0  0  0
   16.2918  -16.0560  -20.5154 O   0  0  0  0  0  0  0  0  0  0  0  0
   18.0063  -13.0155  -16.5091 C   0  0  0  0  0  0  0  0  0  0  0  0
   19.2303  -13.0932  -16.8559 O   0  0  0  0  0  0  0  0  0  0  0  0
   17.7737  -17.1427  -19.1315 O   0  0  0  0  0  0  0  0  0  0  0  0
   17.0877   -9.4595  -17.0280 C   0  0  0  0  0  0  0  0  0  0  0  0
   18.1305  -10.5423  -16.8541 C   0  0  2  0  0  0  0  0  0  0  0  0
   17.3935  -11.7698  -16.5150 N   0  0  0  0  0  0  0  0  0  0  0  0
   18.9641  -10.2297  -15.6678 C   0  0  0  0  0  0  0  0  0  0  0  0
   18.6422  -10.5260  -14.4869 O   0  0  0  0  0  0  0  0  0  0  0  0
   23.1527   -9.3379  -16.2285 C   0  0  0  0  0  0  0  0  0  0  0  0
   22.4718   -9.9228  -15.0377 C   0  0  1  0  0  0  0  0  0  0  0  0
   23.3640   -9.8465  -13.8249 C   0  0  0  0  0  0  0  0  0  0  0  0
   21.1164   -9.2971  -14.7790 C   0  0  2  0  0  0  0  0  0  0  0  0
   20.2010   -9.5564  -15.8663 N   0  0  0  0  0  0  0  0  0  0  0  0
   21.2177   -7.8389  -14.5549 C   0  0  0  0  0  0  0  0  0  0  0  0
   21.4679   -7.2533  -13.3248 O   0  0  0  0  0  0  0  0  0  0  0  0
   21.0707   -7.0665  -15.5290 O   0  0  0  0  0  0  0  0  0  0  0  0
  2  1  1  6
  3  2  1  0
  4  3  1  0
  4  5  1  0
  5  9  1  0
  5  6  2  0
  7  2  1  0
  8  7  2  0
 11 10  1  1
 11 13  1  0
 11 12  1  0
 12  7  1  0
 13 19  1  0
 14 13  2  0
 16 15  1  6
 16 17  1  0
 18 16  1  0
 18 20  1  0
 18 19  1  6
 20 22  2  0
 20 21  1  0
M  END
$$$$
