EAV.pdb
     RDKit          3D

 22 21  0  0  1  0  0  0  0  0999 V2000
   21.0004  -16.3237  -17.8722 N   0  0  0  0  0  0  0  0  0  0  0  0
   20.2393  -15.1747  -18.1696 C   0  0  1  0  0  0  0  0  0  0  0  0
   18.8584  -15.1318  -17.6203 C   0  0  0  0  0  0  0  0  0  0  0  0
   18.1459  -16.4205  -17.5947 C   0  0  0  0  0  0  0  0  0  0  0  0
   17.3276  -16.6506  -16.4047 C   0  0  0  0  0  0  0  0  0  0  0  0
   17.3105  -15.8661  -15.4476 O   0  0  0  0  0  0  0  0  0  0  0  0
   20.9634  -13.9072  -17.8407 C   0  0  0  0  0  0  0  0  0  0  0  0
   21.6930  -13.8364  -16.7980 O   0  0  0  0  0  0  0  0  0  0  0  0
   16.5367  -17.8232  -16.3766 O   0  0  0  0  0  0  0  0  0  0  0  0
   21.4407  -10.6841  -19.6202 C   0  0  0  0  0  0  0  0  0  0  0  0
   21.6657  -11.5787  -18.4206 C   0  0  2  0  0  0  0  0  0  0  0  0
   20.8586  -12.7867  -18.6536 N   0  0  0  0  0  0  0  0  0  0  0  0
   21.0894  -10.9327  -17.2163 C   0  0  0  0  0  0  0  0  0  0  0  0
   19.8940  -11.0770  -16.8474 O   0  0  0  0  0  0  0  0  0  0  0  0
   22.6464  -11.1541  -13.7869 C   0  0  0  0  0  0  0  0  0  0  0  0
   22.4275   -9.7055  -14.0650 C   0  0  1  0  0  0  0  0  0  0  0  0
   23.7424   -9.0034  -14.2903 C   0  0  0  0  0  0  0  0  0  0  0  0
   21.4628   -9.4740  -15.2100 C   0  0  2  0  0  0  0  0  0  0  0  0
   21.9289  -10.1002  -16.4258 N   0  0  0  0  0  0  0  0  0  0  0  0
   21.2328   -8.0335  -15.4525 C   0  0  0  0  0  0  0  0  0  0  0  0
   20.4449   -7.2228  -14.6522 O   0  0  0  0  0  0  0  0  0  0  0  0
   21.7779   -7.4929  -16.4413 O   0  0  0  0  0  0  0  0  0  0  0  0
  2  1  1  1
  3  2  1  0
  4  3  1  0
  4  5  1  0
  5  9  1  0
  5  6  2  0
  7  2  1  0
  8  7  2  0
 11 10  1  6
 11 13  1  0
 11 12  1  0
 12  7  1  0
 13 19  1  0
 14 13  2  0
 16 15  1  6
 16 17  1  0
 18 16  1  0
 18 20  1  0
 18 19  1  6
 20 22  2  0
 20 21  1  0
M  END
$$$$
