EAV.pdb
     RDKit          3D

 22 21  0  0  1  0  0  0  0  0999 V2000
   20.7923  -15.3701  -18.3988 N   0  0  0  0  0  0  0  0  0  0  0  0
   19.9943  -14.2149  -18.2698 C   0  0  1  0  0  0  0  0  0  0  0  0
   18.8189  -14.3168  -17.3652 C   0  0  0  0  0  0  0  0  0  0  0  0
   17.9215  -15.4570  -17.6177 C   0  0  0  0  0  0  0  0  0  0  0  0
   16.8264  -15.6053  -16.6598 C   0  0  0  0  0  0  0  0  0  0  0  0
   16.6729  -14.8377  -15.7012 O   0  0  0  0  0  0  0  0  0  0  0  0
   20.7981  -12.9983  -17.9337 C   0  0  0  0  0  0  0  0  0  0  0  0
   21.5156  -12.9734  -16.8805 O   0  0  0  0  0  0  0  0  0  0  0  0
   15.9252  -16.6767  -16.8638 O   0  0  0  0  0  0  0  0  0  0  0  0
   21.4606   -9.7777  -19.6616 C   0  0  0  0  0  0  0  0  0  0  0  0
   21.6140  -10.6963  -18.4688 C   0  0  2  0  0  0  0  0  0  0  0  0
   20.7817  -11.8764  -18.7512 N   0  0  0  0  0  0  0  0  0  0  0  0
   21.0112  -10.0515  -17.2768 C   0  0  0  0  0  0  0  0  0  0  0  0
   19.7858  -10.1095  -16.9927 O   0  0  0  0  0  0  0  0  0  0  0  0
   21.4158  -10.7447  -13.8156 C   0  0  0  0  0  0  0  0  0  0  0  0
   21.8793   -9.3341  -13.9528 C   0  0  1  0  0  0  0  0  0  0  0  0
   23.3823   -9.2578  -13.8637 C   0  0  0  0  0  0  0  0  0  0  0  0
   21.3561   -8.6714  -15.2108 C   0  0  2  0  0  0  0  0  0  0  0  0
   21.8596   -9.3235  -16.3976 N   0  0  0  0  0  0  0  0  0  0  0  0
   21.6945   -7.2325  -15.2558 C   0  0  0  0  0  0  0  0  0  0  0  0
   22.5993   -6.6704  -16.1411 O   0  0  0  0  0  0  0  0  0  0  0  0
   21.1366   -6.4553  -14.4484 O   0  0  0  0  0  0  0  0  0  0  0  0
  2  1  1  1
  3  2  1  0
  4  3  1  0
  4  5  1  0
  5  9  1  0
  5  6  2  0
  7  2  1  0
  8  7  2  0
 11 10  1  6
 11 13  1  0
 11 12  1  0
 12  7  1  0
 13 19  1  0
 14 13  2  0
 16 15  1  6
 16 17  1  0
 18 16  1  0
 18 20  1  0
 18 19  1  6
 20 22  2  0
 20 21  1  0
M  END
$$$$
