EAV.pdb
     RDKit          3D

 22 21  0  0  1  0  0  0  0  0999 V2000
   16.4543  -12.8937  -13.9229 N   0  0  0  0  0  0  0  0  0  0  0  0
   15.7759  -11.6579  -13.9468 C   0  0  1  0  0  0  0  0  0  0  0  0
   14.3012  -11.7057  -13.7647 C   0  0  0  0  0  0  0  0  0  0  0  0
   13.5703  -12.5466  -14.7279 C   0  0  0  0  0  0  0  0  0  0  0  0
   13.4076  -11.9628  -16.0589 C   0  0  0  0  0  0  0  0  0  0  0  0
   13.9114  -10.8775  -16.3750 O   0  0  0  0  0  0  0  0  0  0  0  0
   16.3775  -10.6563  -13.0119 C   0  0  0  0  0  0  0  0  0  0  0  0
   16.4454  -10.9030  -11.7633 O   0  0  0  0  0  0  0  0  0  0  0  0
   12.6396  -12.6903  -16.9982 O   0  0  0  0  0  0  0  0  0  0  0  0
   18.2532   -7.4995  -13.4536 C   0  0  0  0  0  0  0  0  0  0  0  0
   17.4790   -8.4553  -12.5719 C   0  0  2  0  0  0  0  0  0  0  0  0
   16.8705   -9.4442  -13.4757 N   0  0  0  0  0  0  0  0  0  0  0  0
   16.3476   -7.7306  -11.9438 C   0  0  0  0  0  0  0  0  0  0  0  0
   15.2249   -7.5731  -12.4921 O   0  0  0  0  0  0  0  0  0  0  0  0
   14.6003   -5.6258   -7.8028 C   0  0  0  0  0  0  0  0  0  0  0  0
   15.5669   -6.5240   -8.4975 C   0  0  1  0  0  0  0  0  0  0  0  0
   15.3613   -7.9557   -8.0725 C   0  0  0  0  0  0  0  0  0  0  0  0
   15.5199   -6.3722  -10.0042 C   0  0  2  0  0  0  0  0  0  0  0  0
   16.5325   -7.1784  -10.6463 N   0  0  0  0  0  0  0  0  0  0  0  0
   15.6741   -4.9613  -10.4198 C   0  0  0  0  0  0  0  0  0  0  0  0
   14.6191   -4.0869  -10.6219 O   0  0  0  0  0  0  0  0  0  0  0  0
   16.8265   -4.5091  -10.6058 O   0  0  0  0  0  0  0  0  0  0  0  0
  2  1  1  1
  3  2  1  0
  4  3  1  0
  4  5  1  0
  5  9  1  0
  5  6  2  0
  7  2  1  0
  8  7  2  0
 11 10  1  6
 11 13  1  0
 11 12  1  0
 12  7  1  0
 13 19  1  0
 14 13  2  0
 16 15  1  1
 16 17  1  0
 18 16  1  0
 18 20  1  0
 18 19  1  6
 20 22  2  0
 20 21  1  0
M  END
$$$$
