EAV.pdb
     RDKit          3D

 22 21  0  0  1  0  0  0  0  0999 V2000
   18.5864  -15.3193  -15.6929 N   0  0  0  0  0  0  0  0  0  0  0  0
   17.5965  -14.3158  -15.6603 C   0  0  1  0  0  0  0  0  0  0  0  0
   16.3049  -14.6771  -15.0188 C   0  0  0  0  0  0  0  0  0  0  0  0
   15.7217  -15.9603  -15.4462 C   0  0  0  0  0  0  0  0  0  0  0  0
   14.3914  -16.2438  -14.9089 C   0  0  0  0  0  0  0  0  0  0  0  0
   13.7758  -17.2846  -15.1724 O   0  0  0  0  0  0  0  0  0  0  0  0
   18.1067  -13.0261  -15.0988 C   0  0  0  0  0  0  0  0  0  0  0  0
   18.4811  -12.9587  -13.8823 O   0  0  0  0  0  0  0  0  0  0  0  0
   13.8132  -15.2719  -14.0589 O   0  0  0  0  0  0  0  0  0  0  0  0
   18.9688   -9.7270  -16.5406 C   0  0  0  0  0  0  0  0  0  0  0  0
   18.6787  -10.6043  -15.3422 C   0  0  2  0  0  0  0  0  0  0  0  0
   18.1829  -11.8810  -15.8800 N   0  0  0  0  0  0  0  0  0  0  0  0
   17.5506  -10.0229  -14.5746 C   0  0  0  0  0  0  0  0  0  0  0  0
   16.3382  -10.2221  -14.8506 O   0  0  0  0  0  0  0  0  0  0  0  0
   16.0561   -7.8456  -10.4267 C   0  0  0  0  0  0  0  0  0  0  0  0
   17.0139   -8.6669  -11.2214 C   0  0  1  0  0  0  0  0  0  0  0  0
   16.9536  -10.1122  -10.7971 C   0  0  0  0  0  0  0  0  0  0  0  0
   16.8123   -8.5102  -12.7148 C   0  0  2  0  0  0  0  0  0  0  0  0
   17.8464   -9.1908  -13.4598 N   0  0  0  0  0  0  0  0  0  0  0  0
   16.7674   -7.0879  -13.1173 C   0  0  0  0  0  0  0  0  0  0  0  0
   17.8428   -6.3905  -13.6423 O   0  0  0  0  0  0  0  0  0  0  0  0
   15.6954   -6.4556  -12.9824 O   0  0  0  0  0  0  0  0  0  0  0  0
  2  1  1  1
  3  2  1  0
  4  3  1  0
  4  5  1  0
  5  9  1  0
  5  6  2  0
  7  2  1  0
  8  7  2  0
 11 10  1  6
 11 13  1  0
 11 12  1  0
 12  7  1  0
 13 19  1  0
 14 13  2  0
 16 15  1  1
 16 17  1  0
 18 16  1  0
 18 20  1  0
 18 19  1  6
 20 22  2  0
 20 21  1  0
M  END
$$$$
