EAV.pdb
     RDKit          3D

 22 21  0  0  1  0  0  0  0  0999 V2000
   15.3486  -13.9620  -14.8864 N   0  0  0  0  0  0  0  0  0  0  0  0
   16.4646  -13.1483  -15.1699 C   0  0  1  0  0  0  0  0  0  0  0  0
   17.4233  -13.6644  -16.1823 C   0  0  0  0  0  0  0  0  0  0  0  0
   18.0951  -14.9277  -15.8331 C   0  0  0  0  0  0  0  0  0  0  0  0
   19.0591  -15.4088  -16.8222 C   0  0  0  0  0  0  0  0  0  0  0  0
   20.1999  -14.9395  -16.9217 O   0  0  0  0  0  0  0  0  0  0  0  0
   16.0782  -11.7405  -15.4982 C   0  0  0  0  0  0  0  0  0  0  0  0
   15.8524  -11.4014  -16.7059 O   0  0  0  0  0  0  0  0  0  0  0  0
   18.6415  -16.4506  -17.6834 O   0  0  0  0  0  0  0  0  0  0  0  0
   14.5552   -9.0854  -13.5767 C   0  0  0  0  0  0  0  0  0  0  0  0
   15.4002   -9.4436  -14.7800 C   0  0  2  0  0  0  0  0  0  0  0  0
   15.9586  -10.7769  -14.5059 N   0  0  0  0  0  0  0  0  0  0  0  0
   16.5621   -8.5245  -14.8502 C   0  0  0  0  0  0  0  0  0  0  0  0
   17.6442   -8.7139  -14.2345 O   0  0  0  0  0  0  0  0  0  0  0  0
   18.6194   -4.7901  -17.3801 C   0  0  0  0  0  0  0  0  0  0  0  0
   17.5029   -5.7587  -17.1824 C   0  0  1  0  0  0  0  0  0  0  0  0
   17.4564   -6.7537  -18.3140 C   0  0  0  0  0  0  0  0  0  0  0  0
   17.5618   -6.4442  -15.8326 C   0  0  2  0  0  0  0  0  0  0  0  0
   16.4570   -7.3587  -15.6581 N   0  0  0  0  0  0  0  0  0  0  0  0
   17.5768   -5.4690  -14.7209 C   0  0  0  0  0  0  0  0  0  0  0  0
   16.4560   -5.0855  -14.0032 O   0  0  0  0  0  0  0  0  0  0  0  0
   18.6651   -4.9449  -14.3920 O   0  0  0  0  0  0  0  0  0  0  0  0
  2  1  1  6
  3  2  1  0
  4  3  1  0
  4  5  1  0
  5  9  1  0
  5  6  2  0
  7  2  1  0
  8  7  2  0
 11 10  1  1
 11 13  1  0
 11 12  1  0
 12  7  1  0
 13 19  1  0
 14 13  2  0
 16 15  1  6
 16 17  1  0
 18 16  1  0
 18 20  1  0
 18 19  1  1
 20 22  2  0
 20 21  1  0
M  END
$$$$
