EAV.pdb
     RDKit          3D

 22 21  0  0  1  0  0  0  0  0999 V2000
   19.3099  -12.2621  -17.6103 N   0  0  0  0  0  0  0  0  0  0  0  0
   19.9182  -11.0013  -17.7789 C   0  0  1  0  0  0  0  0  0  0  0  0
   19.1667  -10.0034  -18.5849 C   0  0  0  0  0  0  0  0  0  0  0  0
   18.8359  -10.4178  -19.9590 C   0  0  0  0  0  0  0  0  0  0  0  0
   18.1153   -9.4199  -20.7488 C   0  0  0  0  0  0  0  0  0  0  0  0
   17.7939   -8.3158  -20.2916 O   0  0  0  0  0  0  0  0  0  0  0  0
   20.3483  -10.3948  -16.4803 C   0  0  0  0  0  0  0  0  0  0  0  0
   19.5056  -10.2292  -15.5385 O   0  0  0  0  0  0  0  0  0  0  0  0
   17.7875   -9.7598  -22.0824 O   0  0  0  0  0  0  0  0  0  0  0  0
   23.6136   -9.5256  -14.9814 C   0  0  0  0  0  0  0  0  0  0  0  0
   22.1045   -9.4139  -14.9954 C   0  0  2  0  0  0  0  0  0  0  0  0
   21.6625   -9.9994  -16.2709 N   0  0  0  0  0  0  0  0  0  0  0  0
   21.7225   -7.9819  -15.0533 C   0  0  0  0  0  0  0  0  0  0  0  0
   21.5579   -7.3429  -16.1259 O   0  0  0  0  0  0  0  0  0  0  0  0
   19.5936   -6.3782  -11.8291 C   0  0  0  0  0  0  0  0  0  0  0  0
   19.6722   -5.8172  -13.2085 C   0  0  1  0  0  0  0  0  0  0  0  0
   19.1492   -4.4036  -13.2376 C   0  0  0  0  0  0  0  0  0  0  0  0
   21.0657   -5.9136  -13.7953 C   0  0  2  0  0  0  0  0  0  0  0  0
   21.5284   -7.2818  -13.8307 N   0  0  0  0  0  0  0  0  0  0  0  0
   22.0352   -5.0828  -13.0491 C   0  0  0  0  0  0  0  0  0  0  0  0
   22.3874   -3.7896  -13.3986 O   0  0  0  0  0  0  0  0  0  0  0  0
   22.5841   -5.5625  -12.0314 O   0  0  0  0  0  0  0  0  0  0  0  0
  2  1  1  1
  3  2  1  0
  4  3  1  0
  4  5  1  0
  5  9  1  0
  5  6  2  0
  7  2  1  0
  8  7  2  0
 11 10  1  6
 11 13  1  0
 11 12  1  0
 12  7  1  0
 13 19  1  0
 14 13  2  0
 16 15  1  1
 16 17  1  0
 18 16  1  0
 18 20  1  0
 18 19  1  1
 20 22  2  0
 20 21  1  0
M  END
$$$$
