EAV.pdb
     RDKit          3D

 22 21  0  0  1  0  0  0  0  0999 V2000
   19.5387  -12.9316  -17.8608 N   0  0  0  0  0  0  0  0  0  0  0  0
   20.0039  -11.6395  -18.1804 C   0  0  1  0  0  0  0  0  0  0  0  0
   19.0462  -10.7424  -18.8792 C   0  0  0  0  0  0  0  0  0  0  0  0
   17.6797  -10.7225  -18.3298 C   0  0  0  0  0  0  0  0  0  0  0  0
   17.1730   -9.3955  -17.9818 C   0  0  0  0  0  0  0  0  0  0  0  0
   17.1857   -8.4488  -18.7788 O   0  0  0  0  0  0  0  0  0  0  0  0
   20.5995  -10.9374  -17.0009 C   0  0  0  0  0  0  0  0  0  0  0  0
   19.9854  -10.9237  -15.8841 O   0  0  0  0  0  0  0  0  0  0  0  0
   16.6552   -9.2192  -16.6771 O   0  0  0  0  0  0  0  0  0  0  0  0
   23.9064   -9.4359  -16.2999 C   0  0  0  0  0  0  0  0  0  0  0  0
   22.4568   -9.6553  -15.9248 C   0  0  2  0  0  0  0  0  0  0  0  0
   21.8231  -10.2878  -17.0923 N   0  0  0  0  0  0  0  0  0  0  0  0
   21.7905   -8.3399  -15.7654 C   0  0  0  0  0  0  0  0  0  0  0  0
   21.3447   -7.6587  -16.7262 O   0  0  0  0  0  0  0  0  0  0  0  0
   18.6880   -7.5428  -14.3316 C   0  0  0  0  0  0  0  0  0  0  0  0
   19.6493   -6.7533  -13.5093 C   0  0  1  0  0  0  0  0  0  0  0  0
   19.8216   -7.3775  -12.1480 C   0  0  0  0  0  0  0  0  0  0  0  0
   20.9787   -6.5497  -14.2071 C   0  0  2  0  0  0  0  0  0  0  0  0
   21.6417   -7.8093  -14.4543 N   0  0  0  0  0  0  0  0  0  0  0  0
   21.8748   -5.6623  -13.4348 C   0  0  0  0  0  0  0  0  0  0  0  0
   21.8185   -4.2786  -13.4638 O   0  0  0  0  0  0  0  0  0  0  0  0
   22.7482   -6.1771  -12.7004 O   0  0  0  0  0  0  0  0  0  0  0  0
  2  1  1  1
  3  2  1  0
  4  3  1  0
  4  5  1  0
  5  9  1  0
  5  6  2  0
  7  2  1  0
  8  7  2  0
 11 10  1  6
 11 13  1  0
 11 12  1  0
 12  7  1  0
 13 19  1  0
 14 13  2  0
 16 15  1  6
 16 17  1  0
 18 16  1  0
 18 20  1  0
 18 19  1  1
 20 22  2  0
 20 21  1  0
M  END
$$$$
