INV.pdb
     RDKit          3D

 24 23  0  0  1  0  0  0  0  0999 V2000
   31.9192  -28.5517  -18.6055 C   0  0  0  0  0  0  0  0  0  0  0  0
   30.9307  -29.2699  -19.4934 C   0  0  0  0  0  0  0  0  0  0  0  0
   29.5632  -29.3694  -18.9178 C   0  0  2  0  0  0  0  0  0  0  0  0
   29.6727  -30.0616  -17.5748 C   0  0  0  0  0  0  0  0  0  0  0  0
   28.5846  -30.0936  -19.8040 C   0  0  2  0  0  0  0  0  0  0  0  0
   28.3413  -29.4372  -21.0450 N   0  0  0  0  0  0  0  0  0  0  0  0
   27.3196  -30.4017  -19.1042 C   0  0  0  0  0  0  0  0  0  0  0  0
   26.2705  -29.8470  -19.4753 O   0  0  0  0  0  0  0  0  0  0  0  0
   23.1217  -31.7080  -16.7839 N   0  0  0  0  0  0  0  0  0  0  0  0
   23.7975  -32.6056  -17.6456 C   0  0  0  0  0  0  0  0  0  0  0  0
   23.3313  -33.7508  -17.8290 O   0  0  0  0  0  0  0  0  0  0  0  0
   25.0372  -32.1927  -18.3185 C   0  0  0  0  0  0  0  0  0  0  0  0
   26.0797  -31.6950  -17.3489 C   0  0  2  0  0  0  0  0  0  0  0  0
   27.3191  -31.3160  -18.0304 N   0  0  0  0  0  0  0  0  0  0  0  0
   26.4299  -32.7357  -16.3457 C   0  0  0  0  0  0  0  0  0  0  0  0
   27.3924  -33.5353  -16.5245 O   0  0  0  0  0  0  0  0  0  0  0  0
   24.3839  -32.6808  -12.6536 C   0  0  0  0  0  0  0  0  0  0  0  0
   25.8601  -32.9984  -12.7585 C   0  0  1  0  0  0  0  0  0  0  0  0
   26.3541  -33.7561  -11.5479 C   0  0  0  0  0  0  0  0  0  0  0  0
   26.1453  -33.7515  -14.0487 C   0  0  2  0  0  0  0  0  0  0  0  0
   25.7041  -32.8907  -15.1311 N   0  0  0  0  0  0  0  0  0  0  0  0
   25.3580  -35.0093  -14.1185 C   0  0  0  0  0  0  0  0  0  0  0  0
   25.9001  -36.2397  -13.7392 O   0  0  0  0  0  0  0  0  0  0  0  0
   24.1720  -35.0269  -14.5204 O   0  0  0  0  0  0  0  0  0  0  0  0
  2  1  1  0
  3  2  1  0
  3  4  1  1
  5  7  1  0
  5  3  1  0
  5  6  1  6
  7  8  2  0
 10  9  1  0
 11 10  2  0
 13 12  1  6
 12 10  1  0
 14 13  1  0
 14  7  1  0
 15 21  1  0
 15 13  1  0
 16 15  2  0
 18 17  1  1
 19 18  1  0
 20 18  1  0
 20 21  1  6
 22 23  1  0
 22 20  1  0
 24 22  2  0
M  END
$$$$
