INV.pdb
     RDKit          3D

 24 23  0  0  1  0  0  0  0  0999 V2000
   27.2539  -19.9923  -16.5701 C   0  0  0  0  0  0  0  0  0  0  0  0
   28.0543  -20.2593  -15.3173 C   0  0  0  0  0  0  0  0  0  0  0  0
   27.4708  -19.6589  -14.0884 C   0  0  2  0  0  0  0  0  0  0  0  0
   28.5903  -18.9836  -13.3234 C   0  0  0  0  0  0  0  0  0  0  0  0
   26.7579  -20.6521  -13.2092 C   0  0  2  0  0  0  0  0  0  0  0  0
   25.7267  -21.3727  -13.8782 N   0  0  0  0  0  0  0  0  0  0  0  0
   26.2582  -20.0360  -11.9619 C   0  0  0  0  0  0  0  0  0  0  0  0
   25.3506  -19.1886  -12.0255 O   0  0  0  0  0  0  0  0  0  0  0  0
   23.6104  -19.3573  -10.3462 N   0  0  0  0  0  0  0  0  0  0  0  0
   23.6310  -20.7377  -10.0316 C   0  0  0  0  0  0  0  0  0  0  0  0
   22.5882  -21.4142  -10.1632 O   0  0  0  0  0  0  0  0  0  0  0  0
   24.8694  -21.3689   -9.5541 C   0  0  0  0  0  0  0  0  0  0  0  0
   26.0224  -20.3987   -9.4914 C   0  0  2  0  0  0  0  0  0  0  0  0
   26.8146  -20.4153  -10.7228 N   0  0  0  0  0  0  0  0  0  0  0  0
   26.9449  -20.7226   -8.3706 C   0  0  0  0  0  0  0  0  0  0  0  0
   28.0609  -21.2823   -8.5677 O   0  0  0  0  0  0  0  0  0  0  0  0
   29.5515  -19.4873   -4.9119 C   0  0  0  0  0  0  0  0  0  0  0  0
   28.6610  -19.5610   -6.1336 C   0  0  1  0  0  0  0  0  0  0  0  0
   29.4578  -19.8380   -7.3875 C   0  0  0  0  0  0  0  0  0  0  0  0
   27.5651  -20.5942   -5.9235 C   0  0  2  0  0  0  0  0  0  0  0  0
   26.6254  -20.4221   -7.0164 N   0  0  0  0  0  0  0  0  0  0  0  0
   26.8350  -20.3484   -4.6533 C   0  0  0  0  0  0  0  0  0  0  0  0
   27.3268  -20.7920   -3.4233 O   0  0  0  0  0  0  0  0  0  0  0  0
   25.7449  -19.7324   -4.6244 O   0  0  0  0  0  0  0  0  0  0  0  0
  2  1  1  0
  3  2  1  0
  3  4  1  1
  5  7  1  0
  5  3  1  0
  5  6  1  6
  7  8  2  0
 10  9  1  0
 11 10  2  0
 13 12  1  6
 12 10  1  0
 14 13  1  0
 14  7  1  0
 15 21  1  0
 15 13  1  0
 16 15  2  0
 18 17  1  1
 19 18  1  0
 20 18  1  0
 20 21  1  6
 22 23  1  0
 22 20  1  0
 24 22  2  0
M  END
$$$$
