INV.pdb
     RDKit          3D

 24 23  0  0  1  0  0  0  0  0999 V2000
   27.6721  -20.3008  -15.9803 C   0  0  0  0  0  0  0  0  0  0  0  0
   27.0348  -21.3455  -15.0950 C   0  0  0  0  0  0  0  0  0  0  0  0
   25.5488  -21.3569  -15.1478 C   0  0  2  0  0  0  0  0  0  0  0  0
   25.0543  -20.0219  -14.6303 C   0  0  0  0  0  0  0  0  0  0  0  0
   24.9241  -22.4857  -14.3711 C   0  0  2  0  0  0  0  0  0  0  0  0
   25.3991  -23.7742  -14.7511 N   0  0  0  0  0  0  0  0  0  0  0  0
   23.4472  -22.4305  -14.3961 C   0  0  0  0  0  0  0  0  0  0  0  0
   22.8462  -22.7444  -15.4383 O   0  0  0  0  0  0  0  0  0  0  0  0
   18.5554  -22.4159  -10.6174 N   0  0  0  0  0  0  0  0  0  0  0  0
   19.2540  -22.2829  -11.8418 C   0  0  0  0  0  0  0  0  0  0  0  0
   18.6111  -22.1903  -12.9098 O   0  0  0  0  0  0  0  0  0  0  0  0
   20.7233  -22.2541  -11.8554 C   0  0  0  0  0  0  0  0  0  0  0  0
   21.2802  -21.9572  -13.2252 C   0  0  2  0  0  0  0  0  0  0  0  0
   22.7428  -22.0246  -13.2437 N   0  0  0  0  0  0  0  0  0  0  0  0
   20.8967  -20.5957  -13.6845 C   0  0  0  0  0  0  0  0  0  0  0  0
   21.2369  -19.5581  -13.0478 O   0  0  0  0  0  0  0  0  0  0  0  0
   21.5877  -18.8001  -16.8923 C   0  0  0  0  0  0  0  0  0  0  0  0
   20.0872  -18.9522  -16.7645 C   0  0  1  0  0  0  0  0  0  0  0  0
   19.5748  -20.1196  -17.5759 C   0  0  0  0  0  0  0  0  0  0  0  0
   19.6936  -19.0687  -15.3001 C   0  0  2  0  0  0  0  0  0  0  0  0
   20.1275  -20.3833  -14.8632 N   0  0  0  0  0  0  0  0  0  0  0  0
   18.2188  -18.9989  -15.1359 C   0  0  0  0  0  0  0  0  0  0  0  0
   17.4591  -20.1267  -14.8160 O   0  0  0  0  0  0  0  0  0  0  0  0
   17.5868  -17.9269  -15.2761 O   0  0  0  0  0  0  0  0  0  0  0  0
  2  1  1  0
  3  2  1  0
  3  4  1  1
  5  7  1  0
  5  3  1  0
  5  6  1  6
  7  8  2  0
 10  9  1  0
 11 10  2  0
 13 12  1  1
 12 10  1  0
 14 13  1  0
 14  7  1  0
 15 21  1  0
 15 13  1  0
 16 15  2  0
 18 17  1  1
 19 18  1  0
 20 18  1  0
 20 21  1  6
 22 23  1  0
 22 20  1  0
 24 22  2  0
M  END
$$$$
