INV.pdb
     RDKit          3D

 24 23  0  0  1  0  0  0  0  0999 V2000
   15.9288  -16.7676  -17.8236 C   0  0  0  0  0  0  0  0  0  0  0  0
   16.4596  -15.9730  -16.6538 C   0  0  0  0  0  0  0  0  0  0  0  0
   16.9482  -14.6165  -17.0172 C   0  0  2  0  0  0  0  0  0  0  0  0
   18.0732  -14.7795  -18.0185 C   0  0  0  0  0  0  0  0  0  0  0  0
   17.4090  -13.8027  -15.8369 C   0  0  2  0  0  0  0  0  0  0  0  0
   16.4043  -13.6130  -14.8446 N   0  0  0  0  0  0  0  0  0  0  0  0
   18.0076  -12.5146  -16.2462 C   0  0  0  0  0  0  0  0  0  0  0  0
   18.9768  -12.5166  -17.0250 O   0  0  0  0  0  0  0  0  0  0  0  0
   18.1602   -8.4864  -18.4723 N   0  0  0  0  0  0  0  0  0  0  0  0
   17.0548   -8.2407  -17.6221 C   0  0  0  0  0  0  0  0  0  0  0  0
   16.2094   -7.3790  -17.9461 O   0  0  0  0  0  0  0  0  0  0  0  0
   16.9041   -8.9936  -16.3690 C   0  0  0  0  0  0  0  0  0  0  0  0
   18.0028  -10.0076  -16.1713 C   0  0  2  0  0  0  0  0  0  0  0  0
   17.4744  -11.3068  -15.7504 N   0  0  0  0  0  0  0  0  0  0  0  0
   18.9681   -9.5669  -15.1292 C   0  0  0  0  0  0  0  0  0  0  0  0
   18.7053   -9.6604  -13.8963 O   0  0  0  0  0  0  0  0  0  0  0  0
   22.2072  -10.8605  -14.3371 C   0  0  0  0  0  0  0  0  0  0  0  0
   22.4575   -9.4107  -14.6927 C   0  0  1  0  0  0  0  0  0  0  0  0
   22.9666   -9.2643  -16.1080 C   0  0  0  0  0  0  0  0  0  0  0  0
   21.2000   -8.5877  -14.4591 C   0  0  2  0  0  0  0  0  0  0  0  0
   20.2387   -9.0165  -15.4588 N   0  0  0  0  0  0  0  0  0  0  0  0
   21.4612   -7.1407  -14.6710 C   0  0  0  0  0  0  0  0  0  0  0  0
   20.9362   -6.4500  -15.7659 O   0  0  0  0  0  0  0  0  0  0  0  0
   22.1638   -6.4716  -13.8791 O   0  0  0  0  0  0  0  0  0  0  0  0
  2  1  1  0
  3  2  1  0
  3  4  1  6
  5  7  1  0
  5  3  1  0
  5  6  1  1
  7  8  2  0
 10  9  1  0
 11 10  2  0
 13 12  1  1
 12 10  1  0
 14 13  1  0
 14  7  1  0
 15 21  1  0
 15 13  1  0
 16 15  2  0
 18 17  1  6
 19 18  1  0
 20 18  1  0
 20 21  1  6
 22 23  1  0
 22 20  1  0
 24 22  2  0
M  END
$$$$
