INV.pdb
     RDKit          3D

 24 23  0  0  1  0  0  0  0  0999 V2000
   16.4788  -25.4857   -7.6364 C   0  0  0  0  0  0  0  0  0  0  0  0
   17.8624  -25.0745   -8.0811 C   0  0  0  0  0  0  0  0  0  0  0  0
   17.9672  -24.7812   -9.5351 C   0  0  2  0  0  0  0  0  0  0  0  0
   17.6462  -26.0541  -10.2911 C   0  0  0  0  0  0  0  0  0  0  0  0
   19.3134  -24.2490   -9.9498 C   0  0  2  0  0  0  0  0  0  0  0  0
   19.8038  -23.2110   -9.1058 N   0  0  0  0  0  0  0  0  0  0  0  0
   19.3393  -23.8414  -11.3704 C   0  0  0  0  0  0  0  0  0  0  0  0
   19.1140  -24.6914  -12.2494 O   0  0  0  0  0  0  0  0  0  0  0  0
   18.1345  -19.3070  -14.9999 N   0  0  0  0  0  0  0  0  0  0  0  0
   18.3573  -20.6849  -14.7617 C   0  0  0  0  0  0  0  0  0  0  0  0
   18.5443  -21.4539  -15.7292 O   0  0  0  0  0  0  0  0  0  0  0  0
   18.3682  -21.2054  -13.3874 C   0  0  0  0  0  0  0  0  0  0  0  0
   19.5903  -22.0407  -13.0982 C   0  0  2  0  0  0  0  0  0  0  0  0
   19.6179  -22.5008  -11.7084 N   0  0  0  0  0  0  0  0  0  0  0  0
   20.8418  -21.2720  -13.3320 C   0  0  0  0  0  0  0  0  0  0  0  0
   21.2752  -20.4340  -12.4908 O   0  0  0  0  0  0  0  0  0  0  0  0
   25.1999  -21.0469  -15.4826 C   0  0  0  0  0  0  0  0  0  0  0  0
   23.9231  -21.7286  -15.0398 C   0  0  1  0  0  0  0  0  0  0  0  0
   24.1561  -22.6261  -13.8465 C   0  0  0  0  0  0  0  0  0  0  0  0
   22.8435  -20.6938  -14.7633 C   0  0  2  0  0  0  0  0  0  0  0  0
   21.6208  -21.4350  -14.5121 N   0  0  0  0  0  0  0  0  0  0  0  0
   22.6153  -19.8292  -15.9496 C   0  0  0  0  0  0  0  0  0  0  0  0
   23.2304  -18.5818  -16.0812 O   0  0  0  0  0  0  0  0  0  0  0  0
   21.8616  -20.1768  -16.8874 O   0  0  0  0  0  0  0  0  0  0  0  0
  2  1  1  0
  3  2  1  0
  3  4  1  6
  5  7  1  0
  5  3  1  0
  5  6  1  1
  7  8  2  0
 10  9  1  0
 11 10  2  0
 13 12  1  1
 12 10  1  0
 14 13  1  0
 14  7  1  0
 15 21  1  0
 15 13  1  0
 16 15  2  0
 18 17  1  1
 19 18  1  0
 20 18  1  0
 20 21  1  6
 22 23  1  0
 22 20  1  0
 24 22  2  0
M  END
$$$$
