INV.pdb
     RDKit          3D

 24 23  0  0  1  0  0  0  0  0999 V2000
   13.0017  -11.1822  -16.0245 C   0  0  0  0  0  0  0  0  0  0  0  0
   13.9096   -9.9798  -15.9191 C   0  0  0  0  0  0  0  0  0  0  0  0
   13.8433   -9.2862  -14.6054 C   0  0  2  0  0  0  0  0  0  0  0  0
   12.4014   -8.8928  -14.3590 C   0  0  0  0  0  0  0  0  0  0  0  0
   14.7404   -8.0805  -14.5114 C   0  0  2  0  0  0  0  0  0  0  0  0
   16.1148   -8.3689  -14.7526 N   0  0  0  0  0  0  0  0  0  0  0  0
   14.5619   -7.3493  -13.2392 C   0  0  0  0  0  0  0  0  0  0  0  0
   13.4184   -7.0046  -12.8932 O   0  0  0  0  0  0  0  0  0  0  0  0
   15.5098   -4.9932   -8.7537 N   0  0  0  0  0  0  0  0  0  0  0  0
   16.5300   -5.9589   -8.9317 C   0  0  0  0  0  0  0  0  0  0  0  0
   17.3216   -6.1972   -7.9941 O   0  0  0  0  0  0  0  0  0  0  0  0
   16.6560   -6.6746  -10.2091 C   0  0  0  0  0  0  0  0  0  0  0  0
   15.5536   -6.3233  -11.1765 C   0  0  2  0  0  0  0  0  0  0  0  0
   15.6848   -7.0538  -12.4388 N   0  0  0  0  0  0  0  0  0  0  0  0
   15.5603   -4.8728  -11.5050 C   0  0  0  0  0  0  0  0  0  0  0  0
   16.3961   -4.3774  -12.3135 O   0  0  0  0  0  0  0  0  0  0  0  0
   13.0628   -2.9187  -13.2335 C   0  0  0  0  0  0  0  0  0  0  0  0
   13.1799   -2.3145  -11.8508 C   0  0  1  0  0  0  0  0  0  0  0  0
   12.1040   -2.8317  -10.9241 C   0  0  0  0  0  0  0  0  0  0  0  0
   14.5718   -2.5566  -11.2876 C   0  0  2  0  0  0  0  0  0  0  0  0
   14.6296   -3.9623  -10.9298 N   0  0  0  0  0  0  0  0  0  0  0  0
   14.7936   -1.7634  -10.0513 C   0  0  0  0  0  0  0  0  0  0  0  0
   15.1839   -0.4228  -10.0965 O   0  0  0  0  0  0  0  0  0  0  0  0
   14.6416   -2.2579   -8.9108 O   0  0  0  0  0  0  0  0  0  0  0  0
  2  1  1  0
  3  2  1  0
  3  4  1  6
  5  7  1  0
  5  3  1  0
  5  6  1  1
  7  8  2  0
 10  9  1  0
 11 10  2  0
 13 12  1  1
 12 10  1  0
 14 13  1  0
 14  7  1  0
 15 21  1  0
 15 13  1  0
 16 15  2  0
 18 17  1  6
 19 18  1  0
 20 18  1  0
 20 21  1  1
 22 23  1  0
 22 20  1  0
 24 22  2  0
M  END
$$$$
