INV.pdb
     RDKit          3D

 24 23  0  0  1  0  0  0  0  0999 V2000
   18.3160  -12.9455  -21.5771 C   0  0  0  0  0  0  0  0  0  0  0  0
   19.3610  -12.9527  -20.4866 C   0  0  0  0  0  0  0  0  0  0  0  0
   19.1182  -11.9551  -19.4109 C   0  0  2  0  0  0  0  0  0  0  0  0
   19.2028  -10.5745  -20.0286 C   0  0  0  0  0  0  0  0  0  0  0  0
   20.0716  -12.0713  -18.2511 C   0  0  2  0  0  0  0  0  0  0  0  0
   20.1335  -13.3792  -17.6893 N   0  0  0  0  0  0  0  0  0  0  0  0
   19.8125  -11.0534  -17.2111 C   0  0  0  0  0  0  0  0  0  0  0  0
   18.9738  -11.2919  -16.3246 O   0  0  0  0  0  0  0  0  0  0  0  0
   20.2334   -6.8080  -14.2954 N   0  0  0  0  0  0  0  0  0  0  0  0
   21.1845   -7.8400  -14.1071 C   0  0  0  0  0  0  0  0  0  0  0  0
   21.8688   -7.8624  -13.0614 O   0  0  0  0  0  0  0  0  0  0  0  0
   21.3645   -8.8759  -15.1339 C   0  0  0  0  0  0  0  0  0  0  0  0
   20.3108   -8.8079  -16.2108 C   0  0  2  0  0  0  0  0  0  0  0  0
   20.5161   -9.8314  -17.2377 N   0  0  0  0  0  0  0  0  0  0  0  0
   20.3193   -7.4885  -16.8970 C   0  0  0  0  0  0  0  0  0  0  0  0
   21.2806   -7.1278  -17.6342 O   0  0  0  0  0  0  0  0  0  0  0  0
   17.6255   -6.2182  -19.1614 C   0  0  0  0  0  0  0  0  0  0  0  0
   17.8101   -5.1857  -18.0702 C   0  0  1  0  0  0  0  0  0  0  0  0
   16.7390   -5.2985  -17.0100 C   0  0  0  0  0  0  0  0  0  0  0  0
   19.2052   -5.2942  -17.4744 C   0  0  2  0  0  0  0  0  0  0  0  0
   19.2493   -6.5592  -16.7637 N   0  0  0  0  0  0  0  0  0  0  0  0
   19.4514   -4.2103  -16.4889 C   0  0  0  0  0  0  0  0  0  0  0  0
   19.4903   -4.4590  -15.1148 O   0  0  0  0  0  0  0  0  0  0  0  0
   19.6356   -3.0230  -16.8423 O   0  0  0  0  0  0  0  0  0  0  0  0
  2  1  1  0
  3  2  1  0
  3  4  1  6
  5  7  1  0
  5  3  1  0
  5  6  1  1
  7  8  2  0
 10  9  1  0
 11 10  2  0
 13 12  1  1
 12 10  1  0
 14 13  1  0
 14  7  1  0
 15 21  1  0
 15 13  1  0
 16 15  2  0
 18 17  1  6
 19 18  1  0
 20 18  1  0
 20 21  1  1
 22 23  1  0
 22 20  1  0
 24 22  2  0
M  END
$$$$
