INV.pdb
     RDKit          3D

 24 23  0  0  1  0  0  0  0  0999 V2000
   17.3829  -16.7478  -17.4047 C   0  0  0  0  0  0  0  0  0  0  0  0
   18.0092  -16.2916  -18.7012 C   0  0  0  0  0  0  0  0  0  0  0  0
   19.0441  -15.2369  -18.5338 C   0  0  2  0  0  0  0  0  0  0  0  0
   20.1558  -15.8073  -17.6775 C   0  0  0  0  0  0  0  0  0  0  0  0
   18.5170  -13.9621  -17.9299 C   0  0  2  0  0  0  0  0  0  0  0  0
   17.4025  -13.4151  -18.6291 N   0  0  0  0  0  0  0  0  0  0  0  0
   19.5798  -12.9521  -17.7421 C   0  0  0  0  0  0  0  0  0  0  0  0
   20.5547  -13.2246  -17.0201 O   0  0  0  0  0  0  0  0  0  0  0  0
   21.1977  -11.1304  -21.7360 N   0  0  0  0  0  0  0  0  0  0  0  0
   21.6339  -10.8644  -20.4155 C   0  0  0  0  0  0  0  0  0  0  0  0
   22.7025  -11.3684  -20.0075 O   0  0  0  0  0  0  0  0  0  0  0  0
   20.8357  -10.0022  -19.5326 C   0  0  0  0  0  0  0  0  0  0  0  0
   20.5045  -10.6705  -18.2218 C   0  0  2  0  0  0  0  0  0  0  0  0
   19.4746  -11.6991  -18.3808 N   0  0  0  0  0  0  0  0  0  0  0  0
   19.9971   -9.6903  -17.2249 C   0  0  0  0  0  0  0  0  0  0  0  0
   18.7887   -9.6832  -16.8541 O   0  0  0  0  0  0  0  0  0  0  0  0
   21.7670   -9.6544  -14.1202 C   0  0  0  0  0  0  0  0  0  0  0  0
   20.4159   -8.9989  -14.3093 C   0  0  1  0  0  0  0  0  0  0  0  0
   19.9090   -8.3872  -13.0237 C   0  0  0  0  0  0  0  0  0  0  0  0
   20.4810   -7.9752  -15.4322 C   0  0  2  0  0  0  0  0  0  0  0  0
   20.8397   -8.7075  -16.6332 N   0  0  0  0  0  0  0  0  0  0  0  0
   21.5446   -6.9698  -15.1780 C   0  0  0  0  0  0  0  0  0  0  0  0
   21.2869   -5.7836  -14.4867 O   0  0  0  0  0  0  0  0  0  0  0  0
   22.7219   -7.1374  -15.5709 O   0  0  0  0  0  0  0  0  0  0  0  0
  2  1  1  0
  3  2  1  0
  3  4  1  1
  5  7  1  0
  5  3  1  0
  5  6  1  6
  7  8  2  0
 10  9  1  0
 11 10  2  0
 13 12  1  6
 12 10  1  0
 14 13  1  0
 14  7  1  0
 15 21  1  0
 15 13  1  0
 16 15  2  0
 18 17  1  1
 19 18  1  0
 20 18  1  0
 20 21  1  6
 22 23  1  0
 22 20  1  0
 24 22  2  0
M  END
$$$$
