INV.pdb
     RDKit          3D

 24 23  0  0  1  0  0  0  0  0999 V2000
   11.7358  -10.5155  -15.2839 C   0  0  0  0  0  0  0  0  0  0  0  0
   13.2126  -10.8319  -15.3024 C   0  0  0  0  0  0  0  0  0  0  0  0
   13.9514  -10.3369  -14.1107 C   0  0  2  0  0  0  0  0  0  0  0  0
   13.8073   -8.8296  -14.0665 C   0  0  0  0  0  0  0  0  0  0  0  0
   15.4058  -10.7265  -14.0951 C   0  0  2  0  0  0  0  0  0  0  0  0
   15.6228  -12.1332  -14.1619 N   0  0  0  0  0  0  0  0  0  0  0  0
   16.1327  -10.1260  -12.9567 C   0  0  0  0  0  0  0  0  0  0  0  0
   16.1224  -10.7058  -11.8569 O   0  0  0  0  0  0  0  0  0  0  0  0
   20.2743   -8.4289  -14.1869 N   0  0  0  0  0  0  0  0  0  0  0  0
   19.8083   -8.4145  -12.8499 C   0  0  0  0  0  0  0  0  0  0  0  0
   20.3242   -9.1837  -12.0105 O   0  0  0  0  0  0  0  0  0  0  0  0
   18.7265   -7.5020  -12.4537 C   0  0  0  0  0  0  0  0  0  0  0  0
   17.4862   -8.2376  -12.0118 C   0  0  2  0  0  0  0  0  0  0  0  0
   16.8246   -8.9096  -13.1320 N   0  0  0  0  0  0  0  0  0  0  0  0
   16.4925   -7.3122  -11.4051 C   0  0  0  0  0  0  0  0  0  0  0  0
   15.7975   -6.5266  -12.1104 O   0  0  0  0  0  0  0  0  0  0  0  0
   13.6629   -6.2340   -7.5328 C   0  0  0  0  0  0  0  0  0  0  0  0
   14.6140   -7.1327   -8.2935 C   0  0  1  0  0  0  0  0  0  0  0  0
   13.9074   -8.3468   -8.8506 C   0  0  0  0  0  0  0  0  0  0  0  0
   15.3230   -6.3445   -9.3840 C   0  0  2  0  0  0  0  0  0  0  0  0
   16.2678   -7.2579  -10.0006 N   0  0  0  0  0  0  0  0  0  0  0  0
   16.0942   -5.2122   -8.8097 C   0  0  0  0  0  0  0  0  0  0  0  0
   15.5665   -3.9204   -8.7427 O   0  0  0  0  0  0  0  0  0  0  0  0
   17.2529   -5.3612   -8.3586 O   0  0  0  0  0  0  0  0  0  0  0  0
  2  1  1  0
  3  2  1  0
  3  4  1  6
  5  7  1  0
  5  3  1  0
  5  6  1  1
  7  8  2  0
 10  9  1  0
 11 10  2  0
 13 12  1  6
 12 10  1  0
 14 13  1  0
 14  7  1  0
 15 21  1  0
 15 13  1  0
 16 15  2  0
 18 17  1  6
 19 18  1  0
 20 18  1  0
 20 21  1  1
 22 23  1  0
 22 20  1  0
 24 22  2  0
M  END
$$$$
