INV.pdb
     RDKit          3D

 24 23  0  0  1  0  0  0  0  0999 V2000
   16.1670  -15.0119  -15.9877 C   0  0  0  0  0  0  0  0  0  0  0  0
   17.4658  -14.3120  -16.3108 C   0  0  0  0  0  0  0  0  0  0  0  0
   17.3003  -12.8948  -16.7295 C   0  0  2  0  0  0  0  0  0  0  0  0
   18.3683  -12.5854  -17.7582 C   0  0  0  0  0  0  0  0  0  0  0  0
   17.3698  -11.9144  -15.5887 C   0  0  2  0  0  0  0  0  0  0  0  0
   16.4467  -12.1906  -14.5390 N   0  0  0  0  0  0  0  0  0  0  0  0
   17.2553  -10.5141  -16.0479 C   0  0  0  0  0  0  0  0  0  0  0  0
   16.6078  -10.2653  -17.0798 O   0  0  0  0  0  0  0  0  0  0  0  0
   15.3481   -5.3415  -15.7508 N   0  0  0  0  0  0  0  0  0  0  0  0
   16.3199   -6.2014  -16.3175 C   0  0  0  0  0  0  0  0  0  0  0  0
   17.1114   -5.7543  -17.1755 O   0  0  0  0  0  0  0  0  0  0  0  0
   16.3964   -7.6082  -15.8993 C   0  0  0  0  0  0  0  0  0  0  0  0
   17.8186   -8.0880  -15.7515 C   0  0  2  0  0  0  0  0  0  0  0  0
   17.8787   -9.4840  -15.3136 N   0  0  0  0  0  0  0  0  0  0  0  0
   18.5635   -7.2802  -14.7493 C   0  0  0  0  0  0  0  0  0  0  0  0
   18.2299   -7.2597  -13.5303 O   0  0  0  0  0  0  0  0  0  0  0  0
   22.7930   -5.4550  -13.3073 C   0  0  0  0  0  0  0  0  0  0  0  0
   21.8805   -6.2725  -14.1962 C   0  0  1  0  0  0  0  0  0  0  0  0
   21.9312   -7.7415  -13.8451 C   0  0  0  0  0  0  0  0  0  0  0  0
   20.4618   -5.7281  -14.1355 C   0  0  2  0  0  0  0  0  0  0  0  0
   19.6907   -6.4865  -15.1037 N   0  0  0  0  0  0  0  0  0  0  0  0
   20.4198   -4.2992  -14.5397 C   0  0  0  0  0  0  0  0  0  0  0  0
   20.6092   -3.2670  -13.6177 O   0  0  0  0  0  0  0  0  0  0  0  0
   20.2129   -3.9520  -15.7251 O   0  0  0  0  0  0  0  0  0  0  0  0
  2  1  1  0
  3  2  1  0
  3  4  1  6
  5  7  1  0
  5  3  1  0
  5  6  1  1
  7  8  2  0
 10  9  1  0
 11 10  2  0
 13 12  1  1
 12 10  1  0
 14 13  1  0
 14  7  1  0
 15 21  1  0
 15 13  1  0
 16 15  2  0
 18 17  1  1
 19 18  1  0
 20 18  1  0
 20 21  1  6
 22 23  1  0
 22 20  1  0
 24 22  2  0
M  END
$$$$
