APQ.pdb
     RDKit          3D

 22 22  0  0  1  0  0  0  0  0999 V2000
    7.5919  -11.4753   26.2693 C   0  0  0  0  0  0  0  0  0  0  0  0
    6.4868  -12.2805   25.6027 C   0  0  2  0  0  0  0  0  0  0  0  0
    5.3368  -12.4198   26.4184 N   0  0  0  0  0  0  0  0  0  0  0  0
    7.0104  -13.5479   25.0414 C   0  0  0  0  0  0  0  0  0  0  0  0
    7.4380  -14.3511   25.9573 O   0  0  0  0  0  0  0  0  0  0  0  0
    7.0671  -13.9041   23.6916 N   0  0  0  0  0  0  0  0  0  0  0  0
    6.1756  -13.6257   22.5721 C   0  0  0  0  0  0  0  0  0  0  0  0
    7.1962  -13.1429   21.5406 C   0  0  0  0  0  0  0  0  0  0  0  0
    8.5692  -13.6567   22.0322 C   0  0  0  0  0  0  0  0  0  0  0  0
    8.1007  -14.6737   23.0330 C   0  0  1  0  0  0  0  0  0  0  0  0
    9.0800  -15.3627   23.8193 C   0  0  0  0  0  0  0  0  0  0  0  0
    9.7802  -14.8178   24.7411 O   0  0  0  0  0  0  0  0  0  0  0  0
    9.7295  -19.3109   27.9716 N   0  0  0  0  0  0  0  0  0  0  0  0
    8.5182  -19.0113   27.3240 C   0  0  0  0  0  0  0  0  0  0  0  0
    7.4507  -19.5148   27.7500 O   0  0  0  0  0  0  0  0  0  0  0  0
    8.4467  -18.1133   26.1427 C   0  0  0  0  0  0  0  0  0  0  0  0
    9.7734  -17.4667   25.9032 C   0  0  0  0  0  0  0  0  0  0  0  0
   10.2502  -17.4998   24.4895 C   0  0  2  0  0  0  0  0  0  0  0  0
    9.3443  -16.7477   23.6025 N   0  0  0  0  0  0  0  0  0  0  0  0
   10.4715  -18.8590   23.9460 C   0  0  0  0  0  0  0  0  0  0  0  0
   11.4974  -19.6756   24.3754 O   0  0  0  0  0  0  0  0  0  0  0  0
    9.7181  -19.3502   23.0429 O   0  0  0  0  0  0  0  0  0  0  0  0
  2  1  1  1
  2  3  1  0
  4  2  1  0
  5  4  2  0
  6  4  1  0
  6  7  1  0
  8  7  1  0
  9 10  1  0
  9  8  1  0
 10  6  1  0
 10 11  1  1
 11 19  1  0
 12 11  2  0
 14 16  1  0
 14 13  1  0
 15 14  2  0
 17 16  1  0
 18 20  1  0
 18 17  1  1
 19 18  1  0
 20 21  1  0
 22 20  2  0
M  END
$$$$
