APQ.pdb
     RDKit          3D

 22 22  0  0  1  0  0  0  0  0999 V2000
    7.9279  -16.3516   15.7358 C   0  0  0  0  0  0  0  0  0  0  0  0
    8.7233  -15.0552   15.7582 C   0  0  2  0  0  0  0  0  0  0  0  0
    9.6086  -14.9319   14.6589 N   0  0  0  0  0  0  0  0  0  0  0  0
    9.3417  -14.8280   17.0854 C   0  0  0  0  0  0  0  0  0  0  0  0
   10.3836  -15.5666   17.2747 O   0  0  0  0  0  0  0  0  0  0  0  0
    8.9064  -13.9364   18.0690 N   0  0  0  0  0  0  0  0  0  0  0  0
    8.3016  -12.6124   17.9852 C   0  0  0  0  0  0  0  0  0  0  0  0
    7.1201  -12.8055   18.9369 C   0  0  0  0  0  0  0  0  0  0  0  0
    7.4708  -14.0390   19.8008 C   0  0  0  0  0  0  0  0  0  0  0  0
    8.9397  -14.1314   19.5026 C   0  0  1  0  0  0  0  0  0  0  0  0
    9.6825  -15.2265   20.0511 C   0  0  0  0  0  0  0  0  0  0  0  0
    9.3431  -16.4555   19.9440 O   0  0  0  0  0  0  0  0  0  0  0  0
   15.3901  -16.4117   19.0909 N   0  0  0  0  0  0  0  0  0  0  0  0
   14.9402  -15.1285   19.4478 C   0  0  0  0  0  0  0  0  0  0  0  0
   15.6096  -14.1236   19.1062 O   0  0  0  0  0  0  0  0  0  0  0  0
   13.6912  -14.9082   20.2214 C   0  0  0  0  0  0  0  0  0  0  0  0
   12.9859  -16.2073   20.4462 C   0  0  0  0  0  0  0  0  0  0  0  0
   11.7262  -16.1170   21.2412 C   0  0  2  0  0  0  0  0  0  0  0  0
   10.8849  -14.9964   20.7833 N   0  0  0  0  0  0  0  0  0  0  0  0
   11.9271  -16.0289   22.7053 C   0  0  0  0  0  0  0  0  0  0  0  0
   11.3211  -15.0644   23.4841 O   0  0  0  0  0  0  0  0  0  0  0  0
   12.6789  -16.8476   23.3289 O   0  0  0  0  0  0  0  0  0  0  0  0
  2  1  1  1
  2  3  1  0
  4  2  1  0
  5  4  2  0
  6  4  1  0
  6  7  1  0
  8  7  1  0
  9 10  1  0
  9  8  1  0
 10  6  1  0
 10 11  1  6
 11 19  1  0
 12 11  2  0
 14 16  1  0
 14 13  1  0
 15 14  2  0
 17 16  1  0
 18 20  1  0
 18 17  1  6
 19 18  1  0
 20 21  1  0
 22 20  2  0
M  END
$$$$
