APQ.pdb
     RDKit          3D

 22 22  0  0  1  0  0  0  0  0999 V2000
    6.7951  -17.3716   18.1671 C   0  0  0  0  0  0  0  0  0  0  0  0
    7.9121  -16.4468   17.7080 C   0  0  2  0  0  0  0  0  0  0  0  0
    8.6667  -16.9830   16.6355 N   0  0  0  0  0  0  0  0  0  0  0  0
    8.7154  -15.9648   18.8560 C   0  0  0  0  0  0  0  0  0  0  0  0
    9.5394  -16.8594   19.2889 O   0  0  0  0  0  0  0  0  0  0  0  0
    8.6462  -14.7041   19.4542 N   0  0  0  0  0  0  0  0  0  0  0  0
    8.5271  -13.3641   18.8922 C   0  0  0  0  0  0  0  0  0  0  0  0
    7.3856  -12.8214   19.7532 C   0  0  0  0  0  0  0  0  0  0  0  0
    7.3248  -13.7353   20.9989 C   0  0  0  0  0  0  0  0  0  0  0  0
    8.6623  -14.4061   20.8703 C   0  0  1  0  0  0  0  0  0  0  0  0
    9.0057  -15.4345   21.8064 C   0  0  0  0  0  0  0  0  0  0  0  0
    8.2715  -16.4497   22.0661 O   0  0  0  0  0  0  0  0  0  0  0  0
   10.4766  -21.3566   22.8818 N   0  0  0  0  0  0  0  0  0  0  0  0
   11.1790  -20.1732   22.5944 C   0  0  0  0  0  0  0  0  0  0  0  0
   11.9029  -20.1193   21.5709 O   0  0  0  0  0  0  0  0  0  0  0  0
   11.1002  -18.9691   23.4608 C   0  0  0  0  0  0  0  0  0  0  0  0
   10.7295  -17.7700   22.6481 C   0  0  0  0  0  0  0  0  0  0  0  0
   10.6542  -16.4870   23.4065 C   0  0  2  0  0  0  0  0  0  0  0  0
   10.2304  -15.3758   22.5355 N   0  0  0  0  0  0  0  0  0  0  0  0
   11.8983  -16.1197   24.1201 C   0  0  0  0  0  0  0  0  0  0  0  0
   12.8022  -15.2050   23.6198 O   0  0  0  0  0  0  0  0  0  0  0  0
   12.2025  -16.6353   25.2452 O   0  0  0  0  0  0  0  0  0  0  0  0
  2  1  1  1
  2  3  1  0
  4  2  1  0
  5  4  2  0
  6  4  1  0
  6  7  1  0
  8  7  1  0
  9 10  1  0
  9  8  1  0
 10  6  1  0
 10 11  1  1
 11 19  1  0
 12 11  2  0
 14 16  1  0
 14 13  1  0
 15 14  2  0
 17 16  1  0
 18 20  1  0
 18 17  1  6
 19 18  1  0
 20 21  1  0
 22 20  2  0
M  END
$$$$
