APQ.pdb
     RDKit          3D

 22 22  0  0  1  0  0  0  0  0999 V2000
    7.6096  -18.3058   19.7072 C   0  0  0  0  0  0  0  0  0  0  0  0
    8.5261  -17.2253   19.1538 C   0  0  2  0  0  0  0  0  0  0  0  0
    9.6491  -17.7517   18.4689 N   0  0  0  0  0  0  0  0  0  0  0  0
    8.8444  -16.2113   20.1863 C   0  0  0  0  0  0  0  0  0  0  0  0
    9.4093  -16.7290   21.2254 O   0  0  0  0  0  0  0  0  0  0  0  0
    8.5939  -14.8386   20.1153 N   0  0  0  0  0  0  0  0  0  0  0  0
    8.6079  -13.9021   18.9980 C   0  0  0  0  0  0  0  0  0  0  0  0
    7.2667  -13.2038   19.2271 C   0  0  0  0  0  0  0  0  0  0  0  0
    6.8871  -13.4904   20.6983 C   0  0  0  0  0  0  0  0  0  0  0  0
    8.2211  -13.9604   21.2034 C   0  0  1  0  0  0  0  0  0  0  0  0
    8.3164  -14.4270   22.5543 C   0  0  0  0  0  0  0  0  0  0  0  0
    7.4478  -14.1905   23.4634 O   0  0  0  0  0  0  0  0  0  0  0  0
    5.9824  -18.9998   24.0382 N   0  0  0  0  0  0  0  0  0  0  0  0
    7.1850  -18.7605   24.7260 C   0  0  0  0  0  0  0  0  0  0  0  0
    7.3338  -19.2179   25.8849 O   0  0  0  0  0  0  0  0  0  0  0  0
    8.3009  -17.9799   24.1324 C   0  0  0  0  0  0  0  0  0  0  0  0
    8.2821  -16.5763   24.6476 C   0  0  0  0  0  0  0  0  0  0  0  0
    9.4991  -15.7698   24.3387 C   0  0  2  0  0  0  0  0  0  0  0  0
    9.4343  -15.2050   22.9786 N   0  0  0  0  0  0  0  0  0  0  0  0
   10.7788  -16.4911   24.5227 C   0  0  0  0  0  0  0  0  0  0  0  0
   11.6208  -16.7950   23.4727 O   0  0  0  0  0  0  0  0  0  0  0  0
   11.1730  -16.8734   25.6729 O   0  0  0  0  0  0  0  0  0  0  0  0
  2  1  1  1
  2  3  1  0
  4  2  1  0
  5  4  2  0
  6  4  1  0
  6  7  1  0
  8  7  1  0
  9 10  1  0
  9  8  1  0
 10  6  1  0
 10 11  1  1
 11 19  1  0
 12 11  2  0
 14 16  1  0
 14 13  1  0
 15 14  2  0
 17 16  1  0
 18 20  1  0
 18 17  1  6
 19 18  1  0
 20 21  1  0
 22 20  2  0
M  END
$$$$
