APQ.pdb
     RDKit          3D

 22 22  0  0  1  0  0  0  0  0999 V2000
    7.0121  -17.9373   19.2197 C   0  0  0  0  0  0  0  0  0  0  0  0
    8.2270  -17.0501   18.9947 C   0  0  2  0  0  0  0  0  0  0  0  0
    9.3387  -17.7583   18.4751 N   0  0  0  0  0  0  0  0  0  0  0  0
    8.5172  -16.2243   20.1902 C   0  0  0  0  0  0  0  0  0  0  0  0
    8.7973  -16.9417   21.2264 O   0  0  0  0  0  0  0  0  0  0  0  0
    8.5089  -14.8292   20.2647 N   0  0  0  0  0  0  0  0  0  0  0  0
    8.9779  -13.8014   19.3431 C   0  0  0  0  0  0  0  0  0  0  0  0
    7.7490  -12.8913   19.3213 C   0  0  0  0  0  0  0  0  0  0  0  0
    6.9335  -13.2522   20.5845 C   0  0  0  0  0  0  0  0  0  0  0  0
    7.9848  -14.0140   21.3394 C   0  0  1  0  0  0  0  0  0  0  0  0
    7.6256  -14.6275   22.5830 C   0  0  0  0  0  0  0  0  0  0  0  0
    6.4235  -14.8644   22.9512 O   0  0  0  0  0  0  0  0  0  0  0  0
    5.5395  -18.8842   24.3240 N   0  0  0  0  0  0  0  0  0  0  0  0
    6.8948  -19.1214   24.0354 C   0  0  0  0  0  0  0  0  0  0  0  0
    7.2624  -20.2757   23.7081 O   0  0  0  0  0  0  0  0  0  0  0  0
    7.9231  -18.0514   24.1021 C   0  0  0  0  0  0  0  0  0  0  0  0
    7.3139  -16.7782   24.5956 C   0  0  0  0  0  0  0  0  0  0  0  0
    8.2723  -15.6528   24.8003 C   0  0  2  0  0  0  0  0  0  0  0  0
    8.6290  -15.0155   23.5198 N   0  0  0  0  0  0  0  0  0  0  0  0
    9.5019  -16.0180   25.5395 C   0  0  0  0  0  0  0  0  0  0  0  0
   10.7605  -15.9340   24.9802 O   0  0  0  0  0  0  0  0  0  0  0  0
    9.4612  -16.4343   26.7435 O   0  0  0  0  0  0  0  0  0  0  0  0
  2  1  1  1
  2  3  1  0
  4  2  1  0
  5  4  2  0
  6  4  1  0
  6  7  1  0
  8  7  1  0
  9 10  1  0
  9  8  1  0
 10  6  1  0
 10 11  1  1
 11 19  1  0
 12 11  2  0
 14 16  1  0
 14 13  1  0
 15 14  2  0
 17 16  1  0
 18 20  1  0
 18 17  1  6
 19 18  1  0
 20 21  1  0
 22 20  2  0
M  END
$$$$
