APQ.pdb
     RDKit          3D

 22 22  0  0  1  0  0  0  0  0999 V2000
    7.2106  -17.1097   17.4941 C   0  0  0  0  0  0  0  0  0  0  0  0
    8.3373  -16.1067   17.2989 C   0  0  2  0  0  0  0  0  0  0  0  0
    9.2363  -16.4800   16.2695 N   0  0  0  0  0  0  0  0  0  0  0  0
    8.9768  -15.7602   18.5899 C   0  0  0  0  0  0  0  0  0  0  0  0
    9.7624  -16.6925   19.0146 O   0  0  0  0  0  0  0  0  0  0  0  0
    8.8003  -14.5828   19.3210 N   0  0  0  0  0  0  0  0  0  0  0  0
    8.6884  -13.1884   18.9103 C   0  0  0  0  0  0  0  0  0  0  0  0
    7.4462  -12.7822   19.7045 C   0  0  0  0  0  0  0  0  0  0  0  0
    7.2942  -13.8405   20.8214 C   0  0  0  0  0  0  0  0  0  0  0  0
    8.6620  -14.4570   20.7560 C   0  0  1  0  0  0  0  0  0  0  0  0
    8.9474  -15.5815   21.5961 C   0  0  0  0  0  0  0  0  0  0  0  0
    8.4809  -16.7584   21.4112 O   0  0  0  0  0  0  0  0  0  0  0  0
   12.3928  -19.2533   20.8578 N   0  0  0  0  0  0  0  0  0  0  0  0
   12.3280  -19.5940   22.2202 C   0  0  0  0  0  0  0  0  0  0  0  0
   12.8948  -20.6389   22.6219 O   0  0  0  0  0  0  0  0  0  0  0  0
   11.6085  -18.7599   23.2170 C   0  0  0  0  0  0  0  0  0  0  0  0
   11.0335  -17.5470   22.5584 C   0  0  0  0  0  0  0  0  0  0  0  0
   10.2917  -16.6229   23.4654 C   0  0  2  0  0  0  0  0  0  0  0  0
    9.7947  -15.4426   22.7353 N   0  0  0  0  0  0  0  0  0  0  0  0
   11.0518  -16.1913   24.6603 C   0  0  0  0  0  0  0  0  0  0  0  0
   11.0092  -16.8750   25.8580 O   0  0  0  0  0  0  0  0  0  0  0  0
   11.7923  -15.1540   24.6446 O   0  0  0  0  0  0  0  0  0  0  0  0
  2  1  1  1
  2  3  1  0
  4  2  1  0
  5  4  2  0
  6  4  1  0
  6  7  1  0
  8  7  1  0
  9 10  1  0
  9  8  1  0
 10  6  1  0
 10 11  1  1
 11 19  1  0
 12 11  2  0
 14 16  1  0
 14 13  1  0
 15 14  2  0
 17 16  1  0
 18 20  1  0
 18 17  1  6
 19 18  1  0
 20 21  1  0
 22 20  2  0
M  END
$$$$
