APQ.pdb
     RDKit          3D

 22 22  0  0  1  0  0  0  0  0999 V2000
    7.8629  -17.1381   16.8549 C   0  0  0  0  0  0  0  0  0  0  0  0
    8.6343  -15.8347   16.7131 C   0  0  2  0  0  0  0  0  0  0  0  0
    9.5279  -15.8392   15.6136 N   0  0  0  0  0  0  0  0  0  0  0  0
    9.2355  -15.4240   18.0036 C   0  0  0  0  0  0  0  0  0  0  0  0
   10.2193  -16.1844   18.3511 O   0  0  0  0  0  0  0  0  0  0  0  0
    8.8396  -14.3515   18.8066 N   0  0  0  0  0  0  0  0  0  0  0  0
    8.3527  -13.0168   18.4792 C   0  0  0  0  0  0  0  0  0  0  0  0
    7.1232  -12.9585   19.3869 C   0  0  0  0  0  0  0  0  0  0  0  0
    7.3346  -14.0560   20.4554 C   0  0  0  0  0  0  0  0  0  0  0  0
    8.8009  -14.3095   20.2526 C   0  0  1  0  0  0  0  0  0  0  0  0
    9.4265  -15.3532   21.0083 C   0  0  0  0  0  0  0  0  0  0  0  0
    9.0879  -16.5859   20.9558 O   0  0  0  0  0  0  0  0  0  0  0  0
   15.7724  -17.3349   24.3016 N   0  0  0  0  0  0  0  0  0  0  0  0
   14.8257  -16.5585   23.6107 C   0  0  0  0  0  0  0  0  0  0  0  0
   15.1966  -15.5144   23.0218 O   0  0  0  0  0  0  0  0  0  0  0  0
   13.3876  -16.9253   23.5471 C   0  0  0  0  0  0  0  0  0  0  0  0
   12.6366  -15.9333   22.7178 C   0  0  0  0  0  0  0  0  0  0  0  0
   11.1577  -16.1286   22.6780 C   0  0  2  0  0  0  0  0  0  0  0  0
   10.4988  -15.0617   21.9029 N   0  0  0  0  0  0  0  0  0  0  0  0
   10.5170  -16.2531   24.0068 C   0  0  0  0  0  0  0  0  0  0  0  0
   10.6552  -17.3745   24.7989 O   0  0  0  0  0  0  0  0  0  0  0  0
    9.7962  -15.3211   24.4931 O   0  0  0  0  0  0  0  0  0  0  0  0
  2  1  1  1
  2  3  1  0
  4  2  1  0
  5  4  2  0
  6  4  1  0
  6  7  1  0
  8  7  1  0
  9 10  1  0
  9  8  1  0
 10  6  1  0
 10 11  1  1
 11 19  1  0
 12 11  2  0
 14 16  1  0
 14 13  1  0
 15 14  2  0
 17 16  1  0
 18 20  1  0
 18 17  1  1
 19 18  1  0
 20 21  1  0
 22 20  2  0
M  END
$$$$
