APQ.pdb
     RDKit          3D

 22 22  0  0  1  0  0  0  0  0999 V2000
    6.4101  -17.6279   19.5379 C   0  0  0  0  0  0  0  0  0  0  0  0
    7.7752  -17.0511   19.1947 C   0  0  2  0  0  0  0  0  0  0  0  0
    8.6812  -18.0275   18.7119 N   0  0  0  0  0  0  0  0  0  0  0  0
    8.2948  -16.2097   20.2981 C   0  0  0  0  0  0  0  0  0  0  0  0
    8.6514  -16.9092   21.3231 O   0  0  0  0  0  0  0  0  0  0  0  0
    8.4158  -14.8178   20.3025 N   0  0  0  0  0  0  0  0  0  0  0  0
    8.8253  -13.8722   19.2712 C   0  0  0  0  0  0  0  0  0  0  0  0
    7.6886  -12.8554   19.3845 C   0  0  0  0  0  0  0  0  0  0  0  0
    7.0457  -13.0931   20.7705 C   0  0  0  0  0  0  0  0  0  0  0  0
    8.1307  -13.9188   21.4001 C   0  0  1  0  0  0  0  0  0  0  0  0
    7.9130  -14.4502   22.7123 C   0  0  0  0  0  0  0  0  0  0  0  0
    6.7742  -14.4954   23.2938 O   0  0  0  0  0  0  0  0  0  0  0  0
    5.7711  -18.5976   24.3478 N   0  0  0  0  0  0  0  0  0  0  0  0
    6.9391  -18.9330   25.0548 C   0  0  0  0  0  0  0  0  0  0  0  0
    7.0315  -20.0635   25.5913 O   0  0  0  0  0  0  0  0  0  0  0  0
    8.0825  -17.9951   25.1957 C   0  0  0  0  0  0  0  0  0  0  0  0
    7.6965  -16.6327   24.7156 C   0  0  0  0  0  0  0  0  0  0  0  0
    8.7753  -15.6042   24.7886 C   0  0  2  0  0  0  0  0  0  0  0  0
    8.9993  -14.9711   23.4762 N   0  0  0  0  0  0  0  0  0  0  0  0
   10.0602  -16.0971   25.3344 C   0  0  0  0  0  0  0  0  0  0  0  0
   10.3011  -16.2084   26.6885 O   0  0  0  0  0  0  0  0  0  0  0  0
   11.0209  -16.4473   24.5737 O   0  0  0  0  0  0  0  0  0  0  0  0
  2  1  1  1
  2  3  1  0
  4  2  1  0
  5  4  2  0
  6  4  1  0
  6  7  1  0
  8  7  1  0
  9 10  1  0
  9  8  1  0
 10  6  1  0
 10 11  1  1
 11 19  1  0
 12 11  2  0
 14 16  1  0
 14 13  1  0
 15 14  2  0
 17 16  1  0
 18 20  1  0
 18 17  1  6
 19 18  1  0
 20 21  1  0
 22 20  2  0
M  END
$$$$
