APQ.pdb
     RDKit          3D

 22 22  0  0  1  0  0  0  0  0999 V2000
    7.9422  -16.4818   16.0980 C   0  0  0  0  0  0  0  0  0  0  0  0
    8.5420  -15.0863   16.0152 C   0  0  2  0  0  0  0  0  0  0  0  0
    9.3156  -14.8868   14.8450 N   0  0  0  0  0  0  0  0  0  0  0  0
    9.2189  -14.7173   17.2806 C   0  0  0  0  0  0  0  0  0  0  0  0
   10.3419  -15.3351   17.4351 O   0  0  0  0  0  0  0  0  0  0  0  0
    8.7585  -13.8148   18.2426 N   0  0  0  0  0  0  0  0  0  0  0  0
    8.0119  -12.5675   18.1303 C   0  0  0  0  0  0  0  0  0  0  0  0
    6.9247  -12.8202   19.1757 C   0  0  0  0  0  0  0  0  0  0  0  0
    7.4621  -13.9546   20.0785 C   0  0  0  0  0  0  0  0  0  0  0  0
    8.9091  -13.9149   19.6784 C   0  0  1  0  0  0  0  0  0  0  0  0
    9.7995  -14.8917   20.2306 C   0  0  0  0  0  0  0  0  0  0  0  0
    9.6940  -16.1530   20.0439 O   0  0  0  0  0  0  0  0  0  0  0  0
   16.7597  -15.4445   22.4638 N   0  0  0  0  0  0  0  0  0  0  0  0
   15.6879  -15.2964   21.5662 C   0  0  0  0  0  0  0  0  0  0  0  0
   15.8521  -14.6319   20.5145 O   0  0  0  0  0  0  0  0  0  0  0  0
   14.3530  -15.9001   21.8121 C   0  0  0  0  0  0  0  0  0  0  0  0
   13.2751  -14.9978   21.3026 C   0  0  0  0  0  0  0  0  0  0  0  0
   11.8815  -15.4772   21.5376 C   0  0  2  0  0  0  0  0  0  0  0  0
   10.8913  -14.4956   21.0589 N   0  0  0  0  0  0  0  0  0  0  0  0
   11.5856  -15.8461   22.9405 C   0  0  0  0  0  0  0  0  0  0  0  0
   12.1597  -16.9365   23.5615 O   0  0  0  0  0  0  0  0  0  0  0  0
   10.7759  -15.1690   23.6548 O   0  0  0  0  0  0  0  0  0  0  0  0
  2  1  1  1
  2  3  1  0
  4  2  1  0
  5  4  2  0
  6  4  1  0
  6  7  1  0
  8  7  1  0
  9 10  1  0
  9  8  1  0
 10  6  1  0
 10 11  1  6
 11 19  1  0
 12 11  2  0
 14 16  1  0
 14 13  1  0
 15 14  2  0
 17 16  1  0
 18 20  1  0
 18 17  1  1
 19 18  1  0
 20 21  1  0
 22 20  2  0
M  END
$$$$
