APQ.pdb
     RDKit          3D

 22 22  0  0  1  0  0  0  0  0999 V2000
    7.9865  -18.0504   19.3199 C   0  0  0  0  0  0  0  0  0  0  0  0
    9.1055  -17.0352   19.1435 C   0  0  2  0  0  0  0  0  0  0  0  0
   10.3318  -17.6280   18.7535 N   0  0  0  0  0  0  0  0  0  0  0  0
    9.1953  -16.1274   20.3111 C   0  0  0  0  0  0  0  0  0  0  0  0
    9.6631  -16.7194   21.3587 O   0  0  0  0  0  0  0  0  0  0  0  0
    8.8358  -14.7779   20.3505 N   0  0  0  0  0  0  0  0  0  0  0  0
    8.7230  -13.7687   19.3043 C   0  0  0  0  0  0  0  0  0  0  0  0
    7.3443  -13.1986   19.6405 C   0  0  0  0  0  0  0  0  0  0  0  0
    7.0597  -13.6154   21.1020 C   0  0  0  0  0  0  0  0  0  0  0  0
    8.4489  -14.0096   21.5142 C   0  0  1  0  0  0  0  0  0  0  0  0
    8.6453  -14.5588   22.8225 C   0  0  0  0  0  0  0  0  0  0  0  0
    9.7108  -14.4117   23.5154 O   0  0  0  0  0  0  0  0  0  0  0  0
    7.6850  -12.3300   27.4869 N   0  0  0  0  0  0  0  0  0  0  0  0
    6.5160  -12.5926   26.7514 C   0  0  0  0  0  0  0  0  0  0  0  0
    5.5146  -11.8512   26.9002 O   0  0  0  0  0  0  0  0  0  0  0  0
    6.4140  -13.7238   25.7938 C   0  0  0  0  0  0  0  0  0  0  0  0
    7.7093  -14.4683   25.7325 C   0  0  0  0  0  0  0  0  0  0  0  0
    7.7000  -15.6897   24.8752 C   0  0  2  0  0  0  0  0  0  0  0  0
    7.6257  -15.3382   23.4455 N   0  0  0  0  0  0  0  0  0  0  0  0
    6.6392  -16.6674   25.2078 C   0  0  0  0  0  0  0  0  0  0  0  0
    6.6464  -17.4077   26.3723 O   0  0  0  0  0  0  0  0  0  0  0  0
    5.6542  -16.8789   24.4271 O   0  0  0  0  0  0  0  0  0  0  0  0
  2  1  1  1
  2  3  1  0
  4  2  1  0
  5  4  2  0
  6  4  1  0
  6  7  1  0
  8  7  1  0
  9 10  1  0
  9  8  1  0
 10  6  1  0
 10 11  1  1
 11 19  1  0
 12 11  2  0
 14 16  1  0
 14 13  1  0
 15 14  2  0
 17 16  1  0
 18 20  1  0
 18 17  1  1
 19 18  1  0
 20 21  1  0
 22 20  2  0
M  END
$$$$
