APQ.pdb
     RDKit          3D

 22 22  0  0  1  0  0  0  0  0999 V2000
    8.2059  -16.2778   15.9929 C   0  0  0  0  0  0  0  0  0  0  0  0
    9.0071  -14.9899   16.1073 C   0  0  2  0  0  0  0  0  0  0  0  0
    9.9539  -14.8345   15.0648 N   0  0  0  0  0  0  0  0  0  0  0  0
    9.5509  -14.8160   17.4746 C   0  0  0  0  0  0  0  0  0  0  0  0
   10.5603  -15.5876   17.7035 O   0  0  0  0  0  0  0  0  0  0  0  0
    9.0807  -13.9400   18.4562 N   0  0  0  0  0  0  0  0  0  0  0  0
    8.4648  -12.6212   18.3712 C   0  0  0  0  0  0  0  0  0  0  0  0
    7.2607  -12.8368   19.2890 C   0  0  0  0  0  0  0  0  0  0  0  0
    7.6009  -14.0766   20.1481 C   0  0  0  0  0  0  0  0  0  0  0  0
    9.0781  -14.1510   19.8879 C   0  0  1  0  0  0  0  0  0  0  0  0
    9.8173  -15.2449   20.4436 C   0  0  0  0  0  0  0  0  0  0  0  0
    9.9819  -16.3740   19.8647 O   0  0  0  0  0  0  0  0  0  0  0  0
   14.8673  -14.6483   19.1130 N   0  0  0  0  0  0  0  0  0  0  0  0
   14.4901  -15.4076   20.2345 C   0  0  0  0  0  0  0  0  0  0  0  0
   15.1927  -16.3883   20.5795 O   0  0  0  0  0  0  0  0  0  0  0  0
   13.2806  -15.0950   21.0385 C   0  0  0  0  0  0  0  0  0  0  0  0
   12.5167  -16.3463   21.3322 C   0  0  0  0  0  0  0  0  0  0  0  0
   11.3396  -16.1753   22.2333 C   0  0  2  0  0  0  0  0  0  0  0  0
   10.4273  -15.1333   21.7283 N   0  0  0  0  0  0  0  0  0  0  0  0
   11.6813  -15.9015   23.6475 C   0  0  0  0  0  0  0  0  0  0  0  0
   12.4241  -16.7733   24.4172 O   0  0  0  0  0  0  0  0  0  0  0  0
   11.3024  -14.8352   24.2340 O   0  0  0  0  0  0  0  0  0  0  0  0
  2  1  1  1
  2  3  1  0
  4  2  1  0
  5  4  2  0
  6  4  1  0
  6  7  1  0
  8  7  1  0
  9 10  1  0
  9  8  1  0
 10  6  1  0
 10 11  1  6
 11 19  1  0
 12 11  2  0
 14 16  1  0
 14 13  1  0
 15 14  2  0
 17 16  1  0
 18 20  1  0
 18 17  1  6
 19 18  1  0
 20 21  1  0
 22 20  2  0
M  END
$$$$
