APQ.pdb
     RDKit          3D

 22 22  0  0  1  0  0  0  0  0999 V2000
    7.8324  -18.1522   19.6301 C   0  0  0  0  0  0  0  0  0  0  0  0
    8.8237  -17.1253   19.1041 C   0  0  2  0  0  0  0  0  0  0  0  0
    9.9827  -17.7149   18.5414 N   0  0  0  0  0  0  0  0  0  0  0  0
    9.0868  -16.0694   20.1098 C   0  0  0  0  0  0  0  0  0  0  0  0
    9.8037  -16.4970   21.0947 O   0  0  0  0  0  0  0  0  0  0  0  0
    8.6455  -14.7446   20.0661 N   0  0  0  0  0  0  0  0  0  0  0  0
    8.5512  -13.7845   18.9730 C   0  0  0  0  0  0  0  0  0  0  0  0
    7.1197  -13.2897   19.1841 C   0  0  0  0  0  0  0  0  0  0  0  0
    6.7519  -13.6682   20.6375 C   0  0  0  0  0  0  0  0  0  0  0  0
    8.1275  -13.9588   21.1654 C   0  0  1  0  0  0  0  0  0  0  0  0
    8.2579  -14.4450   22.5065 C   0  0  0  0  0  0  0  0  0  0  0  0
    7.4217  -14.2081   23.4454 O   0  0  0  0  0  0  0  0  0  0  0  0
    5.9751  -19.0918   24.3178 N   0  0  0  0  0  0  0  0  0  0  0  0
    7.2449  -18.7543   24.8179 C   0  0  0  0  0  0  0  0  0  0  0  0
    7.5895  -19.1649   25.9525 O   0  0  0  0  0  0  0  0  0  0  0  0
    8.2080  -17.9223   24.0518 C   0  0  0  0  0  0  0  0  0  0  0  0
    8.3042  -16.5564   24.6525 C   0  0  0  0  0  0  0  0  0  0  0  0
    9.5097  -15.7713   24.2557 C   0  0  2  0  0  0  0  0  0  0  0  0
    9.3768  -15.2448   22.8852 N   0  0  0  0  0  0  0  0  0  0  0  0
   10.7912  -16.4998   24.3919 C   0  0  0  0  0  0  0  0  0  0  0  0
   11.5590  -16.8670   23.3058 O   0  0  0  0  0  0  0  0  0  0  0  0
   11.2564  -16.8299   25.5317 O   0  0  0  0  0  0  0  0  0  0  0  0
  2  1  1  1
  2  3  1  0
  4  2  1  0
  5  4  2  0
  6  4  1  0
  6  7  1  0
  8  7  1  0
  9 10  1  0
  9  8  1  0
 10  6  1  0
 10 11  1  1
 11 19  1  0
 12 11  2  0
 14 16  1  0
 14 13  1  0
 15 14  2  0
 17 16  1  0
 18 20  1  0
 18 17  1  6
 19 18  1  0
 20 21  1  0
 22 20  2  0
M  END
$$$$
