EVV.pdb
     RDKit          3D

 24 23  0  0  1  0  0  0  0  0999 V2000
   23.1121  -20.0126  -17.4196 N   0  0  0  0  0  0  0  0  0  0  0  0
   23.7343  -19.1459  -16.4658 C   0  0  1  0  0  0  0  0  0  0  0  0
   22.7401  -18.3190  -15.7151 C   0  0  0  0  0  0  0  0  0  0  0  0
   21.8372  -17.5061  -16.5718 C   0  0  0  0  0  0  0  0  0  0  0  0
   20.4026  -17.6444  -16.2771 C   0  0  0  0  0  0  0  0  0  0  0  0
   19.8890  -18.4046  -15.4279 O   0  0  0  0  0  0  0  0  0  0  0  0
   24.6559  -19.8768  -15.5548 C   0  0  0  0  0  0  0  0  0  0  0  0
   24.2918  -20.9931  -15.1048 O   0  0  0  0  0  0  0  0  0  0  0  0
   19.5088  -16.8503  -17.0144 O   0  0  0  0  0  0  0  0  0  0  0  0
   28.6310  -20.3174  -15.7621 C   0  0  0  0  0  0  0  0  0  0  0  0
   28.1877  -19.7193  -14.4417 C   0  0  2  0  0  0  0  0  0  0  0  0
   29.0032  -20.3796  -13.3478 C   0  0  0  0  0  0  0  0  0  0  0  0
   26.7141  -20.0538  -14.1829 C   0  0  2  0  0  0  0  0  0  0  0  0
   25.9173  -19.3838  -15.1688 N   0  0  0  0  0  0  0  0  0  0  0  0
   26.3543  -19.6652  -12.7993 C   0  0  0  0  0  0  0  0  0  0  0  0
   26.3534  -18.4568  -12.4592 O   0  0  0  0  0  0  0  0  0  0  0  0
   23.3253  -19.8784  -10.9677 C   0  0  0  0  0  0  0  0  0  0  0  0
   24.3020  -20.5396  -10.0334 C   0  0  1  0  0  0  0  0  0  0  0  0
   24.0316  -22.0280  -10.0560 C   0  0  0  0  0  0  0  0  0  0  0  0
   25.7547  -20.2589  -10.4266 C   0  0  2  0  0  0  0  0  0  0  0  0
   25.9985  -20.6141  -11.8023 N   0  0  0  0  0  0  0  0  0  0  0  0
   26.7198  -20.8378   -9.4910 C   0  0  0  0  0  0  0  0  0  0  0  0
   27.4170  -21.8159   -9.8620 O   0  0  0  0  0  0  0  0  0  0  0  0
   26.9299  -20.3813   -8.1976 O   0  0  0  0  0  0  0  0  0  0  0  0
  2  1  1  1
  2  3  1  0
  3  4  1  0
  4  5  1  0
  5  6  2  0
  5  9  1  0
  7  8  2  0
  7  2  1  0
 11 10  1  6
 11 13  1  0
 12 11  1  0
 13 14  1  6
 14  7  1  0
 15 13  1  0
 15 21  1  0
 16 15  2  0
 18 20  1  0
 18 17  1  6
 19 18  1  0
 20 21  1  6
 20 22  1  0
 22 23  2  0
 22 24  1  0
M  END
$$$$
