EVV.pdb
     RDKit          3D

 24 23  0  0  1  0  0  0  0  0999 V2000
   23.3334  -21.8491  -11.6877 N   0  0  0  0  0  0  0  0  0  0  0  0
   23.8869  -20.6899  -11.0568 C   0  0  1  0  0  0  0  0  0  0  0  0
   22.8356  -19.8131  -10.4553 C   0  0  0  0  0  0  0  0  0  0  0  0
   22.0143  -19.0637  -11.4422 C   0  0  0  0  0  0  0  0  0  0  0  0
   21.2605  -19.8977  -12.3910 C   0  0  0  0  0  0  0  0  0  0  0  0
   21.5304  -20.0776  -13.5983 O   0  0  0  0  0  0  0  0  0  0  0  0
   24.9549  -21.0339  -10.0797 C   0  0  0  0  0  0  0  0  0  0  0  0
   24.6777  -21.8280   -9.1451 O   0  0  0  0  0  0  0  0  0  0  0  0
   20.1226  -20.5644  -11.9077 O   0  0  0  0  0  0  0  0  0  0  0  0
   28.6678  -21.7953  -10.9966 C   0  0  0  0  0  0  0  0  0  0  0  0
   28.6310  -20.8192   -9.8375 C   0  0  2  0  0  0  0  0  0  0  0  0
   29.6472  -21.2897   -8.8157 C   0  0  0  0  0  0  0  0  0  0  0  0
   27.2533  -20.8538   -9.1662 C   0  0  2  0  0  0  0  0  0  0  0  0
   26.2629  -20.5162  -10.1464 N   0  0  0  0  0  0  0  0  0  0  0  0
   27.2447  -19.9320   -8.0065 C   0  0  0  0  0  0  0  0  0  0  0  0
   26.9252  -18.7272   -8.1556 O   0  0  0  0  0  0  0  0  0  0  0  0
   26.4636  -21.0838   -4.1287 C   0  0  0  0  0  0  0  0  0  0  0  0
   27.6672  -20.1886   -4.2458 C   0  0  1  0  0  0  0  0  0  0  0  0
   28.9026  -21.0501   -4.1013 C   0  0  0  0  0  0  0  0  0  0  0  0
   27.6982  -19.4371   -5.5792 C   0  0  2  0  0  0  0  0  0  0  0  0
   27.5895  -20.3479   -6.6915 N   0  0  0  0  0  0  0  0  0  0  0  0
   28.8277  -18.5127   -5.6858 C   0  0  0  0  0  0  0  0  0  0  0  0
   29.7783  -18.7982   -6.4575 O   0  0  0  0  0  0  0  0  0  0  0  0
   28.9338  -17.3193   -4.9859 O   0  0  0  0  0  0  0  0  0  0  0  0
  2  1  1  1
  2  3  1  0
  3  4  1  0
  4  5  1  0
  5  6  2  0
  5  9  1  0
  7  8  2  0
  7  2  1  0
 11 10  1  6
 11 13  1  0
 12 11  1  0
 13 14  1  6
 14  7  1  0
 15 13  1  0
 15 21  1  0
 16 15  2  0
 18 20  1  0
 18 17  1  6
 19 18  1  0
 20 21  1  6
 20 22  1  0
 22 23  2  0
 22 24  1  0
M  END
$$$$
