EVV.pdb
     RDKit          3D

 24 23  0  0  1  0  0  0  0  0999 V2000
   20.0898  -22.1813  -14.4524 N   0  0  0  0  0  0  0  0  0  0  0  0
   19.1683  -21.8817  -13.3992 C   0  0  1  0  0  0  0  0  0  0  0  0
   17.7701  -22.2940  -13.7323 C   0  0  0  0  0  0  0  0  0  0  0  0
   16.9380  -21.2253  -14.3450 C   0  0  0  0  0  0  0  0  0  0  0  0
   17.3618  -20.7932  -15.6857 C   0  0  0  0  0  0  0  0  0  0  0  0
   17.6273  -19.6239  -16.0395 O   0  0  0  0  0  0  0  0  0  0  0  0
   19.6139  -22.4235  -12.0872 C   0  0  0  0  0  0  0  0  0  0  0  0
   20.0084  -23.6162  -12.0351 O   0  0  0  0  0  0  0  0  0  0  0  0
   17.4852  -21.7804  -16.6773 O   0  0  0  0  0  0  0  0  0  0  0  0
   21.9185  -20.5849   -9.5557 C   0  0  0  0  0  0  0  0  0  0  0  0
   20.7108  -21.1322   -8.8213 C   0  0  2  0  0  0  0  0  0  0  0  0
   21.2092  -21.7663   -7.5378 C   0  0  0  0  0  0  0  0  0  0  0  0
   20.0472  -22.2361   -9.6527 C   0  0  2  0  0  0  0  0  0  0  0  0
   19.6176  -21.6695  -10.8978 N   0  0  0  0  0  0  0  0  0  0  0  0
   18.9309  -22.8321   -8.8825 C   0  0  0  0  0  0  0  0  0  0  0  0
   17.8198  -22.2510   -8.8222 O   0  0  0  0  0  0  0  0  0  0  0  0
   17.4111  -26.1192   -9.4249 C   0  0  0  0  0  0  0  0  0  0  0  0
   17.6759  -26.0813   -7.9442 C   0  0  1  0  0  0  0  0  0  0  0  0
   18.8545  -26.9863   -7.6599 C   0  0  0  0  0  0  0  0  0  0  0  0
   17.9653  -24.6625   -7.4474 C   0  0  2  0  0  0  0  0  0  0  0  0
   19.0505  -24.0650   -8.1848 N   0  0  0  0  0  0  0  0  0  0  0  0
   18.1327  -24.5907   -5.9953 C   0  0  0  0  0  0  0  0  0  0  0  0
   19.2943  -24.5999   -5.5145 O   0  0  0  0  0  0  0  0  0  0  0  0
   17.0862  -24.5118   -5.0876 O   0  0  0  0  0  0  0  0  0  0  0  0
  2  1  1  6
  2  3  1  0
  3  4  1  0
  4  5  1  0
  5  6  2  0
  5  9  1  0
  7  8  2  0
  7  2  1  0
 11 10  1  6
 11 13  1  0
 12 11  1  0
 13 14  1  6
 14  7  1  0
 15 13  1  0
 15 21  1  0
 16 15  2  0
 18 20  1  0
 18 17  1  6
 19 18  1  0
 20 21  1  6
 20 22  1  0
 22 23  2  0
 22 24  1  0
M  END
$$$$
