EVV.pdb
     RDKit          3D

 24 23  0  0  1  0  0  0  0  0999 V2000
   24.0055  -22.0246  -13.2787 N   0  0  0  0  0  0  0  0  0  0  0  0
   23.9738  -21.0988  -12.1878 C   0  0  1  0  0  0  0  0  0  0  0  0
   22.6251  -21.0207  -11.5470 C   0  0  0  0  0  0  0  0  0  0  0  0
   21.5300  -20.5944  -12.4575 C   0  0  0  0  0  0  0  0  0  0  0  0
   21.5861  -19.1892  -12.8890 C   0  0  0  0  0  0  0  0  0  0  0  0
   21.3075  -18.7499  -14.0258 O   0  0  0  0  0  0  0  0  0  0  0  0
   25.0509  -21.3583  -11.1949 C   0  0  0  0  0  0  0  0  0  0  0  0
   25.0806  -22.4776  -10.6229 O   0  0  0  0  0  0  0  0  0  0  0  0
   21.9908  -18.2346  -11.9414 O   0  0  0  0  0  0  0  0  0  0  0  0
   28.5801  -21.4279  -11.8549 C   0  0  0  0  0  0  0  0  0  0  0  0
   28.4407  -20.4856  -10.6759 C   0  0  2  0  0  0  0  0  0  0  0  0
   29.5521  -20.8139   -9.6987 C   0  0  0  0  0  0  0  0  0  0  0  0
   27.1089  -20.7357   -9.9591 C   0  0  2  0  0  0  0  0  0  0  0  0
   26.0415  -20.4145  -10.8609 N   0  0  0  0  0  0  0  0  0  0  0  0
   27.0607  -19.9377   -8.7119 C   0  0  0  0  0  0  0  0  0  0  0  0
   26.6654  -18.7465   -8.7354 O   0  0  0  0  0  0  0  0  0  0  0  0
   26.1972  -21.5319   -5.1114 C   0  0  0  0  0  0  0  0  0  0  0  0
   27.3446  -20.5647   -5.0011 C   0  0  1  0  0  0  0  0  0  0  0  0
   28.6116  -21.3677   -4.8042 C   0  0  0  0  0  0  0  0  0  0  0  0
   27.4684  -19.6749   -6.2407 C   0  0  2  0  0  0  0  0  0  0  0  0
   27.4497  -20.4614   -7.4488 N   0  0  0  0  0  0  0  0  0  0  0  0
   28.5953  -18.7444   -6.1634 C   0  0  0  0  0  0  0  0  0  0  0  0
   29.6221  -18.9721   -6.8523 O   0  0  0  0  0  0  0  0  0  0  0  0
   28.6197  -17.6054   -5.3713 O   0  0  0  0  0  0  0  0  0  0  0  0
  2  1  1  6
  2  3  1  0
  3  4  1  0
  4  5  1  0
  5  6  2  0
  5  9  1  0
  7  8  2  0
  7  2  1  0
 11 10  1  6
 11 13  1  0
 12 11  1  0
 13 14  1  6
 14  7  1  0
 15 13  1  0
 15 21  1  0
 16 15  2  0
 18 20  1  0
 18 17  1  6
 19 18  1  0
 20 21  1  6
 20 22  1  0
 22 23  2  0
 22 24  1  0
M  END
$$$$
