EVV.pdb
     RDKit          3D

 24 23  0  0  1  0  0  0  0  0999 V2000
   18.8595  -17.1710  -16.7597 N   0  0  0  0  0  0  0  0  0  0  0  0
   19.8534  -16.1476  -16.6461 C   0  0  1  0  0  0  0  0  0  0  0  0
   21.0735  -16.4471  -17.4570 C   0  0  0  0  0  0  0  0  0  0  0  0
   21.7371  -17.7355  -17.1257 C   0  0  0  0  0  0  0  0  0  0  0  0
   22.8113  -18.1409  -18.0453 C   0  0  0  0  0  0  0  0  0  0  0  0
   23.5037  -19.1787  -17.9665 O   0  0  0  0  0  0  0  0  0  0  0  0
   19.3071  -14.7945  -16.9361 C   0  0  0  0  0  0  0  0  0  0  0  0
   18.4942  -14.6684  -17.8871 O   0  0  0  0  0  0  0  0  0  0  0  0
   23.0992  -17.2880  -19.1236 O   0  0  0  0  0  0  0  0  0  0  0  0
   16.8515  -13.2014  -17.2633 C   0  0  0  0  0  0  0  0  0  0  0  0
   17.5761  -12.4268  -16.1806 C   0  0  2  0  0  0  0  0  0  0  0  0
   17.0470  -11.0065  -16.2074 C   0  0  0  0  0  0  0  0  0  0  0  0
   19.0755  -12.3654  -16.4938 C   0  0  2  0  0  0  0  0  0  0  0  0
   19.6526  -13.6446  -16.2001 N   0  0  0  0  0  0  0  0  0  0  0  0
   19.6984  -11.2676  -15.7182 C   0  0  0  0  0  0  0  0  0  0  0  0
   19.6803  -11.2874  -14.4632 O   0  0  0  0  0  0  0  0  0  0  0  0
   22.9988   -7.5263  -15.7563 C   0  0  0  0  0  0  0  0  0  0  0  0
   22.2104   -8.5824  -16.4821 C   0  0  1  0  0  0  0  0  0  0  0  0
   23.1759   -9.6585  -16.9280 C   0  0  0  0  0  0  0  0  0  0  0  0
   21.1124   -9.1869  -15.6030 C   0  0  2  0  0  0  0  0  0  0  0  0
   20.3360  -10.1565  -16.3347 N   0  0  0  0  0  0  0  0  0  0  0  0
   20.3005   -8.1732  -14.9285 C   0  0  0  0  0  0  0  0  0  0  0  0
   19.3638   -7.6225  -15.5610 O   0  0  0  0  0  0  0  0  0  0  0  0
   20.4882   -7.7630  -13.6162 O   0  0  0  0  0  0  0  0  0  0  0  0
  2  1  1  6
  2  3  1  0
  3  4  1  0
  4  5  1  0
  5  6  2  0
  5  9  1  0
  7  8  2  0
  7  2  1  0
 11 10  1  6
 11 13  1  0
 12 11  1  0
 13 14  1  1
 14  7  1  0
 15 13  1  0
 15 21  1  0
 16 15  2  0
 18 20  1  0
 18 17  1  1
 19 18  1  0
 20 21  1  6
 20 22  1  0
 22 23  2  0
 22 24  1  0
M  END
$$$$
