EVV.pdb
     RDKit          3D

 24 23  0  0  1  0  0  0  0  0999 V2000
   49.5948   10.3856  -39.8483 N   0  0  0  0  0  0  0  0  0  0  0  0
   48.2289   10.1975  -40.2320 C   0  0  1  0  0  0  0  0  0  0  0  0
   47.8242   11.0984  -41.3547 C   0  0  0  0  0  0  0  0  0  0  0  0
   46.7359   12.0545  -41.0208 C   0  0  0  0  0  0  0  0  0  0  0  0
   47.1669   13.4456  -40.8131 C   0  0  0  0  0  0  0  0  0  0  0  0
   48.3420   13.8439  -40.6609 O   0  0  0  0  0  0  0  0  0  0  0  0
   47.9129    8.7719  -40.5167 C   0  0  0  0  0  0  0  0  0  0  0  0
   48.7960    7.9062  -40.2890 O   0  0  0  0  0  0  0  0  0  0  0  0
   46.1711   14.4357  -40.7800 O   0  0  0  0  0  0  0  0  0  0  0  0
   46.9959    5.8756  -41.3624 C   0  0  0  0  0  0  0  0  0  0  0  0
   46.6325    6.5694  -42.6601 C   0  0  2  0  0  0  0  0  0  0  0  0
   47.7850    6.3635  -43.6230 C   0  0  0  0  0  0  0  0  0  0  0  0
   46.4916    8.0779  -42.4267 C   0  0  2  0  0  0  0  0  0  0  0  0
   46.6744    8.3394  -41.0289 N   0  0  0  0  0  0  0  0  0  0  0  0
   45.1729    8.5345  -42.9241 C   0  0  0  0  0  0  0  0  0  0  0  0
   45.0829    9.5739  -43.6221 O   0  0  0  0  0  0  0  0  0  0  0  0
   41.6420    5.7927  -41.1368 C   0  0  0  0  0  0  0  0  0  0  0  0
   43.1121    5.8792  -41.4450 C   0  0  1  0  0  0  0  0  0  0  0  0
   43.3264    5.3395  -42.8421 C   0  0  0  0  0  0  0  0  0  0  0  0
   43.6380    7.3134  -41.3445 C   0  0  2  0  0  0  0  0  0  0  0  0
   43.9641    7.8396  -42.6464 N   0  0  0  0  0  0  0  0  0  0  0  0
   44.7169    7.4570  -40.3662 C   0  0  0  0  0  0  0  0  0  0  0  0
   45.7744    6.7955  -40.5235 O   0  0  0  0  0  0  0  0  0  0  0  0
   44.6626    8.2846  -39.2537 O   0  0  0  0  0  0  0  0  0  0  0  0
  2  1  1  6
  2  3  1  0
  3  4  1  0
  4  5  1  0
  5  6  2  0
  5  9  1  0
  7  8  2  0
  7  2  1  0
 11 10  1  1
 11 13  1  0
 12 11  1  0
 13 14  1  1
 14  7  1  0
 15 13  1  0
 15 21  1  0
 16 15  2  0
 18 20  1  0
 18 17  1  6
 19 18  1  0
 20 21  1  6
 20 22  1  0
 22 23  2  0
 22 24  1  0
M  END
$$$$
