EVV.pdb
     RDKit          3D

 24 23  0  0  1  0  0  0  0  0999 V2000
   21.5073  -22.0850  -15.6100 N   0  0  0  0  0  0  0  0  0  0  0  0
   21.7003  -21.1125  -14.5780 C   0  0  1  0  0  0  0  0  0  0  0  0
   20.7154  -21.2630  -13.4631 C   0  0  0  0  0  0  0  0  0  0  0  0
   19.3604  -20.7262  -13.7562 C   0  0  0  0  0  0  0  0  0  0  0  0
   18.5810  -21.4962  -14.7378 C   0  0  0  0  0  0  0  0  0  0  0  0
   17.9419  -22.5478  -14.5180 O   0  0  0  0  0  0  0  0  0  0  0  0
   23.1036  -21.0826  -14.0847 C   0  0  0  0  0  0  0  0  0  0  0  0
   23.5949  -22.1398  -13.6136 O   0  0  0  0  0  0  0  0  0  0  0  0
   18.5412  -21.0149  -16.0568 O   0  0  0  0  0  0  0  0  0  0  0  0
   26.1115  -18.9137  -15.6034 C   0  0  0  0  0  0  0  0  0  0  0  0
   26.0090  -18.7467  -14.1004 C   0  0  2  0  0  0  0  0  0  0  0  0
   27.4144  -18.8268  -13.5380 C   0  0  0  0  0  0  0  0  0  0  0  0
   25.2054  -19.9046  -13.4975 C   0  0  2  0  0  0  0  0  0  0  0  0
   23.9129  -19.9306  -14.1177 N   0  0  0  0  0  0  0  0  0  0  0  0
   25.1286  -19.7409  -12.0272 C   0  0  0  0  0  0  0  0  0  0  0  0
   24.0143  -19.6845  -11.4520 O   0  0  0  0  0  0  0  0  0  0  0  0
   25.4206  -21.1364   -7.8326 C   0  0  0  0  0  0  0  0  0  0  0  0
   25.4965  -21.0131   -9.3302 C   0  0  1  0  0  0  0  0  0  0  0  0
   24.0822  -21.0026   -9.8676 C   0  0  0  0  0  0  0  0  0  0  0  0
   26.2387  -19.7474   -9.7667 C   0  0  2  0  0  0  0  0  0  0  0  0
   26.2831  -19.6405  -11.2037 N   0  0  0  0  0  0  0  0  0  0  0  0
   27.5472  -19.6053   -9.1268 C   0  0  0  0  0  0  0  0  0  0  0  0
   27.6385  -18.9318   -8.0691 O   0  0  0  0  0  0  0  0  0  0  0  0
   28.7210  -20.1682   -9.6070 O   0  0  0  0  0  0  0  0  0  0  0  0
  2  1  1  6
  2  3  1  0
  3  4  1  0
  4  5  1  0
  5  6  2  0
  5  9  1  0
  7  8  2  0
  7  2  1  0
 11 10  1  6
 11 13  1  0
 12 11  1  0
 13 14  1  6
 14  7  1  0
 15 13  1  0
 15 21  1  0
 16 15  2  0
 18 20  1  0
 18 17  1  1
 19 18  1  0
 20 21  1  6
 20 22  1  0
 22 23  2  0
 22 24  1  0
M  END
$$$$
