EVV.pdb
     RDKit          3D

 24 23  0  0  1  0  0  0  0  0999 V2000
   29.3691  -21.9197  -18.4525 N   0  0  0  0  0  0  0  0  0  0  0  0
   28.1408  -22.0354  -17.7273 C   0  0  1  0  0  0  0  0  0  0  0  0
   27.8176  -23.4531  -17.3785 C   0  0  0  0  0  0  0  0  0  0  0  0
   27.5174  -24.3253  -18.5443 C   0  0  0  0  0  0  0  0  0  0  0  0
   28.5641  -25.3027  -18.8806 C   0  0  0  0  0  0  0  0  0  0  0  0
   28.5279  -26.1395  -19.8087 O   0  0  0  0  0  0  0  0  0  0  0  0
   28.1006  -21.1432  -16.5374 C   0  0  0  0  0  0  0  0  0  0  0  0
   28.9031  -20.1765  -16.4870 O   0  0  0  0  0  0  0  0  0  0  0  0
   29.7252  -25.3086  -18.0901 O   0  0  0  0  0  0  0  0  0  0  0  0
   25.3517  -19.2156  -16.0023 C   0  0  0  0  0  0  0  0  0  0  0  0
   26.6197  -19.0051  -15.1990 C   0  0  2  0  0  0  0  0  0  0  0  0
   27.7298  -18.6825  -16.1796 C   0  0  0  0  0  0  0  0  0  0  0  0
   27.0051  -20.3019  -14.4779 C   0  0  2  0  0  0  0  0  0  0  0  0
   27.2094  -21.3243  -15.4621 N   0  0  0  0  0  0  0  0  0  0  0  0
   25.9509  -20.6558  -13.4991 C   0  0  0  0  0  0  0  0  0  0  0  0
   24.9617  -21.3432  -13.8522 O   0  0  0  0  0  0  0  0  0  0  0  0
   25.8841  -19.1652   -9.3708 C   0  0  0  0  0  0  0  0  0  0  0  0
   25.8215  -20.6269   -9.7220 C   0  0  1  0  0  0  0  0  0  0  0  0
   25.0047  -21.3258   -8.6574 C   0  0  0  0  0  0  0  0  0  0  0  0
   25.2036  -20.8611  -11.1030 C   0  0  2  0  0  0  0  0  0  0  0  0
   25.9972  -20.2473  -12.1382 N   0  0  0  0  0  0  0  0  0  0  0  0
   23.7857  -20.5034  -11.1604 C   0  0  0  0  0  0  0  0  0  0  0  0
   23.4538  -19.4095  -11.6839 O   0  0  0  0  0  0  0  0  0  0  0  0
   22.7562  -21.2947  -10.6712 O   0  0  0  0  0  0  0  0  0  0  0  0
  2  1  1  1
  2  3  1  0
  3  4  1  0
  4  5  1  0
  5  6  2  0
  5  9  1  0
  7  8  2  0
  7  2  1  0
 11 10  1  6
 11 13  1  0
 12 11  1  0
 13 14  1  6
 14  7  1  0
 15 13  1  0
 15 21  1  0
 16 15  2  0
 18 20  1  0
 18 17  1  1
 19 18  1  0
 20 21  1  6
 20 22  1  0
 22 23  2  0
 22 24  1  0
M  END
$$$$
