EVV.pdb
     RDKit          3D

 24 23  0  0  1  0  0  0  0  0999 V2000
   17.5423  -12.3210  -16.5699 N   0  0  0  0  0  0  0  0  0  0  0  0
   18.3582  -11.2695  -17.0959 C   0  0  1  0  0  0  0  0  0  0  0  0
   17.5484  -10.1839  -17.7294 C   0  0  0  0  0  0  0  0  0  0  0  0
   16.8225  -10.5905  -18.9614 C   0  0  0  0  0  0  0  0  0  0  0  0
   17.6774  -10.9081  -20.1156 C   0  0  0  0  0  0  0  0  0  0  0  0
   18.6424  -10.2319  -20.5331 O   0  0  0  0  0  0  0  0  0  0  0  0
   19.3149  -10.7383  -16.0879 C   0  0  0  0  0  0  0  0  0  0  0  0
   18.9157  -10.5878  -14.9051 O   0  0  0  0  0  0  0  0  0  0  0  0
   17.3942  -12.0843  -20.8293 O   0  0  0  0  0  0  0  0  0  0  0  0
   22.7665  -11.9193  -15.0968 C   0  0  0  0  0  0  0  0  0  0  0  0
   22.8792  -10.4597  -15.4894 C   0  0  2  0  0  0  0  0  0  0  0  0
   23.7741   -9.7833  -14.4698 C   0  0  0  0  0  0  0  0  0  0  0  0
   21.5034   -9.7879  -15.4118 C   0  0  2  0  0  0  0  0  0  0  0  0
   20.6470  -10.3945  -16.3888 N   0  0  0  0  0  0  0  0  0  0  0  0
   21.6536   -8.3280  -15.6136 C   0  0  0  0  0  0  0  0  0  0  0  0
   22.0793   -7.8786  -16.7057 O   0  0  0  0  0  0  0  0  0  0  0  0
   20.1698   -3.8033  -15.0874 C   0  0  0  0  0  0  0  0  0  0  0  0
   20.0723   -5.2936  -14.9047 C   0  0  1  0  0  0  0  0  0  0  0  0
   19.3084   -5.8570  -16.0829 C   0  0  0  0  0  0  0  0  0  0  0  0
   21.4504   -5.9524  -14.8027 C   0  0  2  0  0  0  0  0  0  0  0  0
   21.3327   -7.3760  -14.6078 N   0  0  0  0  0  0  0  0  0  0  0  0
   22.3242   -5.2969  -13.8289 C   0  0  0  0  0  0  0  0  0  0  0  0
   22.3052   -5.6865  -12.6336 O   0  0  0  0  0  0  0  0  0  0  0  0
   23.1912   -4.2557  -14.1282 O   0  0  0  0  0  0  0  0  0  0  0  0
  2  1  1  1
  2  3  1  0
  3  4  1  0
  4  5  1  0
  5  6  2  0
  5  9  1  0
  7  8  2  0
  7  2  1  0
 11 10  1  1
 11 13  1  0
 12 11  1  0
 13 14  1  6
 14  7  1  0
 15 13  1  0
 15 21  1  0
 16 15  2  0
 18 20  1  0
 18 17  1  6
 19 18  1  0
 20 21  1  1
 20 22  1  0
 22 23  2  0
 22 24  1  0
M  END
$$$$
