EVV.pdb
     RDKit          3D

 24 23  0  0  1  0  0  0  0  0999 V2000
   14.3944  -13.9604  -15.8736 N   0  0  0  0  0  0  0  0  0  0  0  0
   15.8090  -13.7484  -15.8279 C   0  0  1  0  0  0  0  0  0  0  0  0
   16.5669  -14.8086  -16.5609 C   0  0  0  0  0  0  0  0  0  0  0  0
   16.7368  -16.0805  -15.8103 C   0  0  0  0  0  0  0  0  0  0  0  0
   18.0276  -16.7573  -16.0095 C   0  0  0  0  0  0  0  0  0  0  0  0
   19.0627  -16.5976  -15.3270 O   0  0  0  0  0  0  0  0  0  0  0  0
   16.1902  -12.3803  -16.2710 C   0  0  0  0  0  0  0  0  0  0  0  0
   15.8263  -11.9978  -17.4122 O   0  0  0  0  0  0  0  0  0  0  0  0
   18.1222  -17.6769  -17.0671 O   0  0  0  0  0  0  0  0  0  0  0  0
   16.3894   -7.9544  -16.5890 C   0  0  0  0  0  0  0  0  0  0  0  0
   16.0433   -9.3288  -16.0516 C   0  0  2  0  0  0  0  0  0  0  0  0
   15.5125   -9.1451  -14.6437 C   0  0  0  0  0  0  0  0  0  0  0  0
   17.3086  -10.1892  -15.9579 C   0  0  2  0  0  0  0  0  0  0  0  0
   16.9385  -11.4887  -15.4783 N   0  0  0  0  0  0  0  0  0  0  0  0
   18.2986   -9.5195  -15.0827 C   0  0  0  0  0  0  0  0  0  0  0  0
   18.1542   -9.5312  -13.8358 O   0  0  0  0  0  0  0  0  0  0  0  0
   22.2278   -8.9662  -16.8168 C   0  0  0  0  0  0  0  0  0  0  0  0
   21.7904   -9.5345  -15.4941 C   0  0  1  0  0  0  0  0  0  0  0  0
   22.9981   -9.5749  -14.5837 C   0  0  0  0  0  0  0  0  0  0  0  0
   20.6718   -8.7082  -14.8542 C   0  0  2  0  0  0  0  0  0  0  0  0
   19.4402   -8.8419  -15.5915 N   0  0  0  0  0  0  0  0  0  0  0  0
   21.0601   -7.3190  -14.6071 C   0  0  0  0  0  0  0  0  0  0  0  0
   20.7264   -6.4360  -15.4374 O   0  0  0  0  0  0  0  0  0  0  0  0
   21.7840   -6.8909  -13.5034 O   0  0  0  0  0  0  0  0  0  0  0  0
  2  1  1  6
  2  3  1  0
  3  4  1  0
  4  5  1  0
  5  6  2  0
  5  9  1  0
  7  8  2  0
  7  2  1  0
 11 10  1  1
 11 13  1  0
 12 11  1  0
 13 14  1  1
 14  7  1  0
 15 13  1  0
 15 21  1  0
 16 15  2  0
 18 20  1  0
 18 17  1  6
 19 18  1  0
 20 21  1  6
 20 22  1  0
 22 23  2  0
 22 24  1  0
M  END
$$$$
