NQL.pdb
     RDKit          3D

 26 25  0  0  1  0  0  0  0  0999 V2000
    6.9787  -13.2923   16.7191 N   0  0  0  0  0  0  0  0  0  0  0  0
    8.0310  -13.3535   17.6577 C   0  0  0  0  0  0  0  0  0  0  0  0
    9.2124  -13.2984   17.2497 O   0  0  0  0  0  0  0  0  0  0  0  0
    7.7567  -13.4803   19.0989 C   0  0  0  0  0  0  0  0  0  0  0  0
    8.9179  -14.1282   19.8397 C   0  0  2  0  0  0  0  0  0  0  0  0
    9.5171  -15.1341   18.9985 N   0  0  0  0  0  0  0  0  0  0  0  0
    8.4723  -14.7505   21.0955 C   0  0  0  0  0  0  0  0  0  0  0  0
    7.5413  -14.2451   21.7458 O   0  0  0  0  0  0  0  0  0  0  0  0
    6.6218  -20.4534   21.9084 N   0  0  0  0  0  0  0  0  0  0  0  0
    7.9582  -20.1178   22.2289 C   0  0  0  0  0  0  0  0  0  0  0  0
    8.6537  -20.9359   22.8655 O   0  0  0  0  0  0  0  0  0  0  0  0
    8.5105  -18.8349   21.8132 C   0  0  0  0  0  0  0  0  0  0  0  0
    8.8975  -17.9821   22.9501 C   0  0  0  0  0  0  0  0  0  0  0  0
    8.6605  -16.5228   22.8731 C   0  0  2  0  0  0  0  0  0  0  0  0
    9.0611  -15.9366   21.6310 N   0  0  0  0  0  0  0  0  0  0  0  0
    9.1728  -15.7756   24.0517 C   0  0  0  0  0  0  0  0  0  0  0  0
   10.4075  -15.5422   24.1854 O   0  0  0  0  0  0  0  0  0  0  0  0
    7.8249  -11.7576   25.1690 C   0  0  0  0  0  0  0  0  0  0  0  0
    6.9632  -12.8311   25.8046 C   0  0  2  0  0  0  0  0  0  0  0  0
    5.6562  -12.2770   26.2125 C   0  0  0  0  0  0  0  0  0  0  0  0
    7.6843  -13.7186   26.7362 C   0  0  0  0  0  0  0  0  0  0  0  0
    8.7983  -14.5557   26.2380 C   0  0  2  0  0  0  0  0  0  0  0  0
    8.3052  -15.3029   25.0573 N   0  0  0  0  0  0  0  0  0  0  0  0
    9.2329  -15.5913   27.1883 C   0  0  0  0  0  0  0  0  0  0  0  0
    9.0865  -16.9634   27.0116 O   0  0  0  0  0  0  0  0  0  0  0  0
    9.8014  -15.2887   28.3040 O   0  0  0  0  0  0  0  0  0  0  0  0
  2  4  1  0
  2  1  1  0
  3  2  2  0
  5  7  1  0
  5  4  1  0
  5  6  1  6
  7  8  2  0
 10  9  1  0
 10 12  1  0
 11 10  2  0
 13 12  1  0
 14 13  1  6
 15 14  1  0
 15  7  1  0
 16 14  1  0
 17 16  2  0
 19 18  1  1
 19 21  1  0
 20 19  1  0
 22 21  1  1
 22 23  1  0
 22 24  1  0
 23 16  1  0
 24 25  1  0
 26 24  2  0
M  END
$$$$
