NQL.pdb
     RDKit          3D

 26 25  0  0  1  0  0  0  0  0999 V2000
    7.9124  -12.2557   17.2800 N   0  0  0  0  0  0  0  0  0  0  0  0
    7.6913  -13.6386   17.4565 C   0  0  0  0  0  0  0  0  0  0  0  0
    7.6987  -14.3873   16.4543 O   0  0  0  0  0  0  0  0  0  0  0  0
    7.4542  -14.2049   18.7949 C   0  0  0  0  0  0  0  0  0  0  0  0
    8.7019  -14.1400   19.6644 C   0  0  2  0  0  0  0  0  0  0  0  0
    9.8025  -14.7541   18.9643 N   0  0  0  0  0  0  0  0  0  0  0  0
    8.4984  -14.8312   20.9465 C   0  0  0  0  0  0  0  0  0  0  0  0
    7.5401  -14.5230   21.6758 O   0  0  0  0  0  0  0  0  0  0  0  0
   10.8229  -20.4540   22.4854 N   0  0  0  0  0  0  0  0  0  0  0  0
   10.1967  -20.0951   23.7021 C   0  0  0  0  0  0  0  0  0  0  0  0
   10.1873  -20.9136   24.6446 O   0  0  0  0  0  0  0  0  0  0  0  0
    9.5782  -18.7837   23.8479 C   0  0  0  0  0  0  0  0  0  0  0  0
    9.7322  -17.9409   22.6497 C   0  0  0  0  0  0  0  0  0  0  0  0
    9.1302  -16.5885   22.6344 C   0  0  2  0  0  0  0  0  0  0  0  0
    9.3603  -15.8669   21.4207 N   0  0  0  0  0  0  0  0  0  0  0  0
    9.4423  -15.7865   23.8466 C   0  0  0  0  0  0  0  0  0  0  0  0
   10.6144  -15.3665   24.0626 O   0  0  0  0  0  0  0  0  0  0  0  0
    7.8556  -11.8095   25.4318 C   0  0  0  0  0  0  0  0  0  0  0  0
    6.9049  -12.9608   25.6952 C   0  0  2  0  0  0  0  0  0  0  0  0
    5.5650  -12.4577   26.0601 C   0  0  0  0  0  0  0  0  0  0  0  0
    7.4893  -14.0666   26.4770 C   0  0  0  0  0  0  0  0  0  0  0  0
    8.7484  -14.6994   26.0249 C   0  0  2  0  0  0  0  0  0  0  0  0
    8.4481  -15.4672   24.7937 N   0  0  0  0  0  0  0  0  0  0  0  0
    9.2859  -15.6914   26.9691 C   0  0  0  0  0  0  0  0  0  0  0  0
    9.2440  -17.0719   26.8024 O   0  0  0  0  0  0  0  0  0  0  0  0
    9.8554  -15.3377   28.0691 O   0  0  0  0  0  0  0  0  0  0  0  0
  2  4  1  0
  2  1  1  0
  3  2  2  0
  5  7  1  0
  5  4  1  0
  5  6  1  6
  7  8  2  0
 10  9  1  0
 10 12  1  0
 11 10  2  0
 13 12  1  0
 14 13  1  6
 15 14  1  0
 15  7  1  0
 16 14  1  0
 17 16  2  0
 19 18  1  1
 19 21  1  0
 20 19  1  0
 22 21  1  1
 22 23  1  0
 22 24  1  0
 23 16  1  0
 24 25  1  0
 26 24  2  0
M  END
$$$$
