NQL.pdb
     RDKit          3D

 26 25  0  0  1  0  0  0  0  0999 V2000
    8.0766  -12.3545   16.9341 N   0  0  0  0  0  0  0  0  0  0  0  0
    8.1181  -13.7584   17.0748 C   0  0  0  0  0  0  0  0  0  0  0  0
    8.4867  -14.4552   16.1034 O   0  0  0  0  0  0  0  0  0  0  0  0
    7.7358  -14.4062   18.3407 C   0  0  0  0  0  0  0  0  0  0  0  0
    8.7489  -14.1326   19.4433 C   0  0  2  0  0  0  0  0  0  0  0  0
   10.0411  -14.6247   19.0351 N   0  0  0  0  0  0  0  0  0  0  0  0
    8.3592  -14.7840   20.7030 C   0  0  0  0  0  0  0  0  0  0  0  0
    7.2592  -14.5290   21.2225 O   0  0  0  0  0  0  0  0  0  0  0  0
    9.7221  -20.4956   22.7413 N   0  0  0  0  0  0  0  0  0  0  0  0
   10.8242  -19.6110   22.8051 C   0  0  0  0  0  0  0  0  0  0  0  0
   11.9761  -20.0822   22.9024 O   0  0  0  0  0  0  0  0  0  0  0  0
   10.6106  -18.1705   22.7515 C   0  0  0  0  0  0  0  0  0  0  0  0
    9.1868  -17.8054   22.6544 C   0  0  0  0  0  0  0  0  0  0  0  0
    8.8089  -16.3750   22.6011 C   0  0  2  0  0  0  0  0  0  0  0  0
    9.1923  -15.7205   21.3880 N   0  0  0  0  0  0  0  0  0  0  0  0
    9.2032  -15.6117   23.8142 C   0  0  0  0  0  0  0  0  0  0  0  0
   10.3793  -15.1694   23.9486 O   0  0  0  0  0  0  0  0  0  0  0  0
    7.9120  -11.6906   25.5779 C   0  0  0  0  0  0  0  0  0  0  0  0
    6.9172  -12.8006   25.8554 C   0  0  2  0  0  0  0  0  0  0  0  0
    5.6142  -12.2416   26.2693 C   0  0  0  0  0  0  0  0  0  0  0  0
    7.4732  -13.9439   26.6032 C   0  0  0  0  0  0  0  0  0  0  0  0
    8.6741  -14.6410   26.0915 C   0  0  2  0  0  0  0  0  0  0  0  0
    8.2851  -15.3548   24.8527 N   0  0  0  0  0  0  0  0  0  0  0  0
    9.1795  -15.6897   26.9911 C   0  0  0  0  0  0  0  0  0  0  0  0
   10.0039  -15.4820   28.0923 O   0  0  0  0  0  0  0  0  0  0  0  0
    8.8857  -16.9313   26.8136 O   0  0  0  0  0  0  0  0  0  0  0  0
  2  4  1  0
  2  1  1  0
  3  2  2  0
  5  7  1  0
  5  4  1  0
  5  6  1  6
  7  8  2  0
 10  9  1  0
 10 12  1  0
 11 10  2  0
 13 12  1  0
 14 13  1  1
 15 14  1  0
 15  7  1  0
 16 14  1  0
 17 16  2  0
 19 18  1  1
 19 21  1  0
 20 19  1  0
 22 21  1  1
 22 23  1  0
 22 24  1  0
 23 16  1  0
 24 25  1  0
 26 24  2  0
M  END
$$$$
