NQL.pdb
     RDKit          3D

 26 25  0  0  1  0  0  0  0  0999 V2000
    8.7731  -12.9480   17.1242 N   0  0  0  0  0  0  0  0  0  0  0  0
    7.5994  -13.6991   17.3491 C   0  0  0  0  0  0  0  0  0  0  0  0
    6.7283  -13.7473   16.4526 O   0  0  0  0  0  0  0  0  0  0  0  0
    7.3906  -14.4204   18.6158 C   0  0  0  0  0  0  0  0  0  0  0  0
    8.3972  -14.0000   19.6774 C   0  0  2  0  0  0  0  0  0  0  0  0
    9.7320  -14.2473   19.1919 N   0  0  0  0  0  0  0  0  0  0  0  0
    8.1940  -14.7402   20.9318 C   0  0  0  0  0  0  0  0  0  0  0  0
    7.1449  -14.5901   21.5815 O   0  0  0  0  0  0  0  0  0  0  0  0
    8.1379  -18.9482   19.4482 N   0  0  0  0  0  0  0  0  0  0  0  0
    9.1283  -18.9280   20.4581 C   0  0  0  0  0  0  0  0  0  0  0  0
   10.3312  -18.9905   20.1301 O   0  0  0  0  0  0  0  0  0  0  0  0
    8.7424  -18.8294   21.8598 C   0  0  0  0  0  0  0  0  0  0  0  0
    9.4898  -17.7899   22.5883 C   0  0  0  0  0  0  0  0  0  0  0  0
    8.9406  -16.4167   22.6547 C   0  0  2  0  0  0  0  0  0  0  0  0
    9.1572  -15.6493   21.4669 N   0  0  0  0  0  0  0  0  0  0  0  0
    9.3245  -15.6833   23.8895 C   0  0  0  0  0  0  0  0  0  0  0  0
   10.4684  -15.1584   24.0032 O   0  0  0  0  0  0  0  0  0  0  0  0
    7.9961  -11.8826   25.9210 C   0  0  0  0  0  0  0  0  0  0  0  0
    7.0312  -13.0400   26.0889 C   0  0  2  0  0  0  0  0  0  0  0  0
    5.6979  -12.5525   26.4966 C   0  0  0  0  0  0  0  0  0  0  0  0
    7.6022  -14.2144   26.7746 C   0  0  0  0  0  0  0  0  0  0  0  0
    8.8151  -14.8642   26.2300 C   0  0  2  0  0  0  0  0  0  0  0  0
    8.4320  -15.5475   24.9723 N   0  0  0  0  0  0  0  0  0  0  0  0
    9.3552  -15.9281   27.0907 C   0  0  0  0  0  0  0  0  0  0  0  0
    9.2484  -17.2943   26.8509 O   0  0  0  0  0  0  0  0  0  0  0  0
    9.9902  -15.6596   28.1788 O   0  0  0  0  0  0  0  0  0  0  0  0
  2  4  1  0
  2  1  1  0
  3  2  2  0
  5  7  1  0
  5  4  1  0
  5  6  1  6
  7  8  2  0
 10  9  1  0
 10 12  1  0
 11 10  2  0
 13 12  1  0
 14 13  1  6
 15 14  1  0
 15  7  1  0
 16 14  1  0
 17 16  2  0
 19 18  1  1
 19 21  1  0
 20 19  1  0
 22 21  1  1
 22 23  1  0
 22 24  1  0
 23 16  1  0
 24 25  1  0
 26 24  2  0
M  END
$$$$
