NQL.pdb
     RDKit          3D

 26 25  0  0  1  0  0  0  0  0999 V2000
    9.0074  -12.8244   17.1097 N   0  0  0  0  0  0  0  0  0  0  0  0
    7.8624  -13.6471   17.1770 C   0  0  0  0  0  0  0  0  0  0  0  0
    7.2111  -13.8677   16.1320 O   0  0  0  0  0  0  0  0  0  0  0  0
    7.4297  -14.2433   18.4520 C   0  0  0  0  0  0  0  0  0  0  0  0
    8.3087  -13.7961   19.6114 C   0  0  2  0  0  0  0  0  0  0  0  0
    9.6934  -13.8812   19.2193 N   0  0  0  0  0  0  0  0  0  0  0  0
    8.0911  -14.6311   20.8023 C   0  0  0  0  0  0  0  0  0  0  0  0
    6.9638  -14.6942   21.3222 O   0  0  0  0  0  0  0  0  0  0  0  0
   10.7719  -19.9953   22.4389 N   0  0  0  0  0  0  0  0  0  0  0  0
    9.8313  -19.7210   21.4185 C   0  0  0  0  0  0  0  0  0  0  0  0
    9.5927  -20.5965   20.5613 O   0  0  0  0  0  0  0  0  0  0  0  0
    9.1495  -18.4337   21.3784 C   0  0  0  0  0  0  0  0  0  0  0  0
    9.5271  -17.5501   22.4949 C   0  0  0  0  0  0  0  0  0  0  0  0
    8.9247  -16.2008   22.5850 C   0  0  2  0  0  0  0  0  0  0  0  0
    9.1269  -15.3982   21.4180 N   0  0  0  0  0  0  0  0  0  0  0  0
    9.2642  -15.4823   23.8413 C   0  0  0  0  0  0  0  0  0  0  0  0
   10.3441  -14.8347   23.9468 O   0  0  0  0  0  0  0  0  0  0  0  0
    8.3881  -11.8116   26.0269 C   0  0  0  0  0  0  0  0  0  0  0  0
    7.2669  -12.8318   26.0556 C   0  0  2  0  0  0  0  0  0  0  0  0
    5.9792  -12.1827   26.3750 C   0  0  0  0  0  0  0  0  0  0  0  0
    7.6133  -14.0987   26.7267 C   0  0  0  0  0  0  0  0  0  0  0  0
    8.7721  -14.8874   26.2522 C   0  0  2  0  0  0  0  0  0  0  0  0
    8.3989  -15.4970   24.9542 N   0  0  0  0  0  0  0  0  0  0  0  0
    9.1117  -16.0244   27.1218 C   0  0  0  0  0  0  0  0  0  0  0  0
    9.8738  -15.9544   28.2836 O   0  0  0  0  0  0  0  0  0  0  0  0
    8.7140  -17.2206   26.8562 O   0  0  0  0  0  0  0  0  0  0  0  0
  2  4  1  0
  2  1  1  0
  3  2  2  0
  5  7  1  0
  5  4  1  0
  5  6  1  6
  7  8  2  0
 10  9  1  0
 10 12  1  0
 11 10  2  0
 13 12  1  0
 14 13  1  6
 15 14  1  0
 15  7  1  0
 16 14  1  0
 17 16  2  0
 19 18  1  1
 19 21  1  0
 20 19  1  0
 22 21  1  1
 22 23  1  0
 22 24  1  0
 23 16  1  0
 24 25  1  0
 26 24  2  0
M  END
$$$$
