NQL.pdb
     RDKit          3D

 26 25  0  0  1  0  0  0  0  0999 V2000
    7.4795  -11.9250   17.7613 N   0  0  0  0  0  0  0  0  0  0  0  0
    8.0345  -13.1490   18.1925 C   0  0  0  0  0  0  0  0  0  0  0  0
    8.7476  -13.8046   17.4008 O   0  0  0  0  0  0  0  0  0  0  0  0
    7.7861  -13.6586   19.5515 C   0  0  0  0  0  0  0  0  0  0  0  0
    8.6114  -14.9028   19.8476 C   0  0  2  0  0  0  0  0  0  0  0  0
    8.2627  -15.9397   18.9086 N   0  0  0  0  0  0  0  0  0  0  0  0
    8.3758  -15.3895   21.2152 C   0  0  0  0  0  0  0  0  0  0  0  0
    7.2795  -15.1925   21.7670 O   0  0  0  0  0  0  0  0  0  0  0  0
   10.6158  -20.5419   23.9280 N   0  0  0  0  0  0  0  0  0  0  0  0
   11.3814  -19.7121   23.0756 C   0  0  0  0  0  0  0  0  0  0  0  0
   12.4526  -20.1480   22.6058 O   0  0  0  0  0  0  0  0  0  0  0  0
   10.9166  -18.3699   22.7500 C   0  0  0  0  0  0  0  0  0  0  0  0
    9.6776  -18.0049   23.4583 C   0  0  0  0  0  0  0  0  0  0  0  0
    9.1064  -16.6527   23.2663 C   0  0  2  0  0  0  0  0  0  0  0  0
    9.3591  -16.0965   21.9726 N   0  0  0  0  0  0  0  0  0  0  0  0
    9.4300  -15.7099   24.3692 C   0  0  0  0  0  0  0  0  0  0  0  0
   10.4851  -15.0151   24.3402 O   0  0  0  0  0  0  0  0  0  0  0  0
    8.2359  -11.8737   25.4045 C   0  0  0  0  0  0  0  0  0  0  0  0
    7.2265  -12.9069   25.8656 C   0  0  2  0  0  0  0  0  0  0  0  0
    5.8950  -12.2927   26.0422 C   0  0  0  0  0  0  0  0  0  0  0  0
    7.7294  -13.8303   26.9000 C   0  0  0  0  0  0  0  0  0  0  0  0
    8.9145  -14.6711   26.6194 C   0  0  2  0  0  0  0  0  0  0  0  0
    8.5768  -15.5575   25.4811 N   0  0  0  0  0  0  0  0  0  0  0  0
    9.2684  -15.5828   27.7185 C   0  0  0  0  0  0  0  0  0  0  0  0
    9.2081  -16.9718   27.6680 O   0  0  0  0  0  0  0  0  0  0  0  0
    9.6734  -15.1411   28.8588 O   0  0  0  0  0  0  0  0  0  0  0  0
  2  4  1  0
  2  1  1  0
  3  2  2  0
  5  7  1  0
  5  4  1  0
  5  6  1  6
  7  8  2  0
 10  9  1  0
 10 12  1  0
 11 10  2  0
 13 12  1  0
 14 13  1  1
 15 14  1  0
 15  7  1  0
 16 14  1  0
 17 16  2  0
 19 18  1  1
 19 21  1  0
 20 19  1  0
 22 21  1  1
 22 23  1  0
 22 24  1  0
 23 16  1  0
 24 25  1  0
 26 24  2  0
M  END
$$$$
