NQL.pdb
     RDKit          3D

 26 25  0  0  1  0  0  0  0  0999 V2000
    9.0061  -12.8849   17.0561 N   0  0  0  0  0  0  0  0  0  0  0  0
    7.9201  -13.7760   17.1924 C   0  0  0  0  0  0  0  0  0  0  0  0
    7.2424  -14.0663   16.1817 O   0  0  0  0  0  0  0  0  0  0  0  0
    7.5785  -14.3626   18.4991 C   0  0  0  0  0  0  0  0  0  0  0  0
    8.5038  -13.8650   19.6005 C   0  0  2  0  0  0  0  0  0  0  0  0
    9.8725  -13.9913   19.1654 N   0  0  0  0  0  0  0  0  0  0  0  0
    8.3186  -14.6301   20.8427 C   0  0  0  0  0  0  0  0  0  0  0  0
    7.1975  -14.6912   21.3762 O   0  0  0  0  0  0  0  0  0  0  0  0
   11.8285  -19.3586   22.2159 N   0  0  0  0  0  0  0  0  0  0  0  0
   10.7438  -19.3296   21.3082 C   0  0  0  0  0  0  0  0  0  0  0  0
   10.7054  -20.1646   20.3811 O   0  0  0  0  0  0  0  0  0  0  0  0
    9.6861  -18.3391   21.4631 C   0  0  0  0  0  0  0  0  0  0  0  0
    9.9097  -17.4358   22.6050 C   0  0  0  0  0  0  0  0  0  0  0  0
    9.1901  -16.1430   22.6561 C   0  0  2  0  0  0  0  0  0  0  0  0
    9.3799  -15.3293   21.4948 N   0  0  0  0  0  0  0  0  0  0  0  0
    9.4044  -15.3944   23.9224 C   0  0  0  0  0  0  0  0  0  0  0  0
   10.5244  -14.8715   24.1854 O   0  0  0  0  0  0  0  0  0  0  0  0
    7.8035  -11.6814   25.6899 C   0  0  0  0  0  0  0  0  0  0  0  0
    6.8381  -12.8414   25.8355 C   0  0  2  0  0  0  0  0  0  0  0  0
    5.4711  -12.3515   26.1055 C   0  0  0  0  0  0  0  0  0  0  0  0
    7.3599  -13.9726   26.6252 C   0  0  0  0  0  0  0  0  0  0  0  0
    8.6095  -14.6454   26.2061 C   0  0  2  0  0  0  0  0  0  0  0  0
    8.3723  -15.2414   24.8705 N   0  0  0  0  0  0  0  0  0  0  0  0
    8.9902  -15.7777   27.0649 C   0  0  0  0  0  0  0  0  0  0  0  0
    8.9679  -17.1180   26.6927 O   0  0  0  0  0  0  0  0  0  0  0  0
    9.3849  -15.6023   28.2785 O   0  0  0  0  0  0  0  0  0  0  0  0
  2  4  1  0
  2  1  1  0
  3  2  2  0
  5  7  1  0
  5  4  1  0
  5  6  1  6
  7  8  2  0
 10  9  1  0
 10 12  1  0
 11 10  2  0
 13 12  1  0
 14 13  1  6
 15 14  1  0
 15  7  1  0
 16 14  1  0
 17 16  2  0
 19 18  1  1
 19 21  1  0
 20 19  1  0
 22 21  1  1
 22 23  1  0
 22 24  1  0
 23 16  1  0
 24 25  1  0
 26 24  2  0
M  END
$$$$
