NQL.pdb
     RDKit          3D

 26 25  0  0  1  0  0  0  0  0999 V2000
    9.0731  -13.1097   16.1804 N   0  0  0  0  0  0  0  0  0  0  0  0
    7.7683  -13.5921   16.4189 C   0  0  0  0  0  0  0  0  0  0  0  0
    6.8978  -13.4529   15.5313 O   0  0  0  0  0  0  0  0  0  0  0  0
    7.4230  -14.2517   17.6894 C   0  0  0  0  0  0  0  0  0  0  0  0
    8.5924  -14.2472   18.6638 C   0  0  2  0  0  0  0  0  0  0  0  0
    9.6743  -15.0243   18.1124 N   0  0  0  0  0  0  0  0  0  0  0  0
    8.2070  -14.8109   19.9664 C   0  0  0  0  0  0  0  0  0  0  0  0
    7.3216  -14.2631   20.6455 O   0  0  0  0  0  0  0  0  0  0  0  0
    9.3088  -20.6523   22.1598 N   0  0  0  0  0  0  0  0  0  0  0  0
   10.4225  -19.7826   22.0939 C   0  0  0  0  0  0  0  0  0  0  0  0
   11.5728  -20.2632   22.1580 O   0  0  0  0  0  0  0  0  0  0  0  0
   10.2221  -18.3466   21.9474 C   0  0  0  0  0  0  0  0  0  0  0  0
    8.7998  -17.9638   21.9437 C   0  0  0  0  0  0  0  0  0  0  0  0
    8.4349  -16.5380   21.7834 C   0  0  2  0  0  0  0  0  0  0  0  0
    8.8054  -15.9853   20.5168 N   0  0  0  0  0  0  0  0  0  0  0  0
    8.8556  -15.6858   22.9264 C   0  0  0  0  0  0  0  0  0  0  0  0
    9.9887  -15.1265   22.9361 O   0  0  0  0  0  0  0  0  0  0  0  0
    5.8229  -12.0072   26.6722 C   0  0  0  0  0  0  0  0  0  0  0  0
    7.1862  -12.5697   26.3202 C   0  0  2  0  0  0  0  0  0  0  0  0
    8.1872  -11.4881   26.2227 C   0  0  0  0  0  0  0  0  0  0  0  0
    7.1633  -13.6168   25.2817 C   0  0  0  0  0  0  0  0  0  0  0  0
    8.3396  -14.4964   25.1007 C   0  0  2  0  0  0  0  0  0  0  0  0
    8.0110  -15.4717   24.0347 N   0  0  0  0  0  0  0  0  0  0  0  0
    8.6544  -15.3161   26.2811 C   0  0  0  0  0  0  0  0  0  0  0  0
    8.2489  -16.6314   26.4837 O   0  0  0  0  0  0  0  0  0  0  0  0
    9.3555  -14.8531   27.2576 O   0  0  0  0  0  0  0  0  0  0  0  0
  2  4  1  0
  2  1  1  0
  3  2  2  0
  5  7  1  0
  5  4  1  0
  5  6  1  6
  7  8  2  0
 10  9  1  0
 10 12  1  0
 11 10  2  0
 13 12  1  0
 14 13  1  1
 15 14  1  0
 15  7  1  0
 16 14  1  0
 17 16  2  0
 19 18  1  6
 19 21  1  0
 20 19  1  0
 22 21  1  1
 22 23  1  0
 22 24  1  0
 23 16  1  0
 24 25  1  0
 26 24  2  0
M  END
$$$$
