NQL.pdb
     RDKit          3D

 26 25  0  0  1  0  0  0  0  0999 V2000
    7.8793  -12.4077   17.4842 N   0  0  0  0  0  0  0  0  0  0  0  0
    7.4565  -13.7380   17.2747 C   0  0  0  0  0  0  0  0  0  0  0  0
    7.0065  -14.0626   16.1535 O   0  0  0  0  0  0  0  0  0  0  0  0
    7.5381  -14.7392   18.3514 C   0  0  0  0  0  0  0  0  0  0  0  0
    7.9517  -14.1120   19.6753 C   0  0  2  0  0  0  0  0  0  0  0  0
    9.1851  -13.3878   19.4941 N   0  0  0  0  0  0  0  0  0  0  0  0
    8.1390  -15.1331   20.7169 C   0  0  0  0  0  0  0  0  0  0  0  0
    7.1543  -15.7136   21.2053 O   0  0  0  0  0  0  0  0  0  0  0  0
   10.1096  -19.7684   21.8162 N   0  0  0  0  0  0  0  0  0  0  0  0
   10.7795  -19.4835   23.0291 C   0  0  0  0  0  0  0  0  0  0  0  0
   11.0040  -20.4130   23.8316 O   0  0  0  0  0  0  0  0  0  0  0  0
   11.2042  -18.1220   23.3284 C   0  0  0  0  0  0  0  0  0  0  0  0
   10.8810  -17.1709   22.2511 C   0  0  0  0  0  0  0  0  0  0  0  0
    9.6053  -16.4218   22.3062 C   0  0  2  0  0  0  0  0  0  0  0  0
    9.4221  -15.5111   21.2181 N   0  0  0  0  0  0  0  0  0  0  0  0
    9.3414  -15.7961   23.6286 C   0  0  0  0  0  0  0  0  0  0  0  0
    9.4563  -16.4624   24.6961 O   0  0  0  0  0  0  0  0  0  0  0  0
    6.5651  -12.8044   27.0167 C   0  0  0  0  0  0  0  0  0  0  0  0
    7.1896  -11.9307   25.9463 C   0  0  2  0  0  0  0  0  0  0  0  0
    6.3475  -10.7462   25.6831 C   0  0  0  0  0  0  0  0  0  0  0  0
    7.7513  -12.6752   24.8037 C   0  0  0  0  0  0  0  0  0  0  0  0
    8.6689  -13.8104   25.0473 C   0  0  2  0  0  0  0  0  0  0  0  0
    8.9556  -14.4447   23.7393 N   0  0  0  0  0  0  0  0  0  0  0  0
    8.0825  -14.8813   25.8681 C   0  0  0  0  0  0  0  0  0  0  0  0
    8.5182  -15.2605   27.1338 O   0  0  0  0  0  0  0  0  0  0  0  0
    7.0819  -15.5789   25.4540 O   0  0  0  0  0  0  0  0  0  0  0  0
  2  4  1  0
  2  1  1  0
  3  2  2  0
  5  7  1  0
  5  4  1  0
  5  6  1  6
  7  8  2  0
 10  9  1  0
 10 12  1  0
 11 10  2  0
 13 12  1  0
 14 13  1  1
 15 14  1  0
 15  7  1  0
 16 14  1  0
 17 16  2  0
 19 18  1  6
 19 21  1  0
 20 19  1  0
 22 21  1  6
 22 23  1  0
 22 24  1  0
 23 16  1  0
 24 25  1  0
 26 24  2  0
M  END
$$$$
