NQL.pdb
     RDKit          3D

 26 25  0  0  1  0  0  0  0  0999 V2000
    8.1314  -12.2292   17.2434 N   0  0  0  0  0  0  0  0  0  0  0  0
    7.7735  -13.5939   17.2858 C   0  0  0  0  0  0  0  0  0  0  0  0
    7.6950  -14.2346   16.2142 O   0  0  0  0  0  0  0  0  0  0  0  0
    7.4939  -14.2662   18.5658 C   0  0  0  0  0  0  0  0  0  0  0  0
    8.6562  -14.1322   19.5395 C   0  0  2  0  0  0  0  0  0  0  0  0
    9.8374  -14.7154   18.9537 N   0  0  0  0  0  0  0  0  0  0  0  0
    8.3669  -14.8040   20.8153 C   0  0  0  0  0  0  0  0  0  0  0  0
    7.3508  -14.5002   21.4637 O   0  0  0  0  0  0  0  0  0  0  0  0
   10.3858  -20.4350   22.8804 N   0  0  0  0  0  0  0  0  0  0  0  0
    9.4976  -20.1726   21.8111 C   0  0  0  0  0  0  0  0  0  0  0  0
    9.1945  -21.0998   21.0322 O   0  0  0  0  0  0  0  0  0  0  0  0
    8.9434  -18.8370   21.6309 C   0  0  0  0  0  0  0  0  0  0  0  0
    9.4042  -17.8824   22.6538 C   0  0  0  0  0  0  0  0  0  0  0  0
    8.9231  -16.4832   22.6063 C   0  0  2  0  0  0  0  0  0  0  0  0
    9.2070  -15.8156   21.3732 N   0  0  0  0  0  0  0  0  0  0  0  0
    9.3127  -15.6812   23.7958 C   0  0  0  0  0  0  0  0  0  0  0  0
   10.4613  -15.1610   23.8797 O   0  0  0  0  0  0  0  0  0  0  0  0
    7.8327  -11.8751   25.6239 C   0  0  0  0  0  0  0  0  0  0  0  0
    6.9372  -13.0515   25.9600 C   0  0  2  0  0  0  0  0  0  0  0  0
    5.6206  -12.5844   26.4395 C   0  0  0  0  0  0  0  0  0  0  0  0
    7.6135  -14.1446   26.6834 C   0  0  0  0  0  0  0  0  0  0  0  0
    8.8253  -14.7672   26.1056 C   0  0  2  0  0  0  0  0  0  0  0  0
    8.4205  -15.4729   24.8673 N   0  0  0  0  0  0  0  0  0  0  0  0
    9.4213  -15.8077   26.9580 C   0  0  0  0  0  0  0  0  0  0  0  0
   10.2681  -15.5809   28.0383 O   0  0  0  0  0  0  0  0  0  0  0  0
    9.1957  -17.0594   26.7538 O   0  0  0  0  0  0  0  0  0  0  0  0
  2  4  1  0
  2  1  1  0
  3  2  2  0
  5  7  1  0
  5  4  1  0
  5  6  1  6
  7  8  2  0
 10  9  1  0
 10 12  1  0
 11 10  2  0
 13 12  1  0
 14 13  1  6
 15 14  1  0
 15  7  1  0
 16 14  1  0
 17 16  2  0
 19 18  1  1
 19 21  1  0
 20 19  1  0
 22 21  1  1
 22 23  1  0
 22 24  1  0
 23 16  1  0
 24 25  1  0
 26 24  2  0
M  END
$$$$
