NQL.pdb
     RDKit          3D

 26 25  0  0  1  0  0  0  0  0999 V2000
    9.0935  -13.8679   16.8822 N   0  0  0  0  0  0  0  0  0  0  0  0
    7.9760  -13.3643   17.5820 C   0  0  0  0  0  0  0  0  0  0  0  0
    7.1924  -12.5857   16.9949 O   0  0  0  0  0  0  0  0  0  0  0  0
    7.7242  -13.7417   18.9829 C   0  0  0  0  0  0  0  0  0  0  0  0
    8.7909  -14.6895   19.5127 C   0  0  2  0  0  0  0  0  0  0  0  0
    8.7930  -15.8942   18.7207 N   0  0  0  0  0  0  0  0  0  0  0  0
    8.5478  -15.0369   20.9209 C   0  0  0  0  0  0  0  0  0  0  0  0
    7.4121  -14.9048   21.4086 O   0  0  0  0  0  0  0  0  0  0  0  0
   11.1837  -20.0017   23.1083 N   0  0  0  0  0  0  0  0  0  0  0  0
   10.3519  -19.6930   24.2101 C   0  0  0  0  0  0  0  0  0  0  0  0
   10.2549  -20.5132   25.1461 O   0  0  0  0  0  0  0  0  0  0  0  0
    9.6258  -18.4301   24.2478 C   0  0  0  0  0  0  0  0  0  0  0  0
    9.8941  -17.5794   23.0756 C   0  0  0  0  0  0  0  0  0  0  0  0
    9.2925  -16.2284   23.0095 C   0  0  2  0  0  0  0  0  0  0  0  0
    9.5673  -15.5321   21.7902 N   0  0  0  0  0  0  0  0  0  0  0  0
    9.5589  -15.4007   24.2153 C   0  0  0  0  0  0  0  0  0  0  0  0
   10.6779  -14.8377   24.3815 O   0  0  0  0  0  0  0  0  0  0  0  0
    7.4999  -11.7706   25.5655 C   0  0  0  0  0  0  0  0  0  0  0  0
    6.7603  -13.0078   26.0358 C   0  0  2  0  0  0  0  0  0  0  0  0
    5.3734  -12.6727   26.4174 C   0  0  0  0  0  0  0  0  0  0  0  0
    7.5488  -13.8914   26.9149 C   0  0  0  0  0  0  0  0  0  0  0  0
    8.8424  -14.4325   26.4418 C   0  0  2  0  0  0  0  0  0  0  0  0
    8.5788  -15.2148   25.2114 N   0  0  0  0  0  0  0  0  0  0  0  0
    9.4621  -15.3876   27.3735 C   0  0  0  0  0  0  0  0  0  0  0  0
   10.1589  -15.0527   28.5301 O   0  0  0  0  0  0  0  0  0  0  0  0
    9.4055  -16.6591   27.1744 O   0  0  0  0  0  0  0  0  0  0  0  0
  2  4  1  0
  2  1  1  0
  3  2  2  0
  5  7  1  0
  5  4  1  0
  5  6  1  6
  7  8  2  0
 10  9  1  0
 10 12  1  0
 11 10  2  0
 13 12  1  0
 14 13  1  1
 15 14  1  0
 15  7  1  0
 16 14  1  0
 17 16  2  0
 19 18  1  1
 19 21  1  0
 20 19  1  0
 22 21  1  1
 22 23  1  0
 22 24  1  0
 23 16  1  0
 24 25  1  0
 26 24  2  0
M  END
$$$$
