NQL.pdb
     RDKit          3D

 26 25  0  0  1  0  0  0  0  0999 V2000
    8.2910  -13.6194   19.4782 N   0  0  0  0  0  0  0  0  0  0  0  0
    7.8279  -14.1917   18.2740 C   0  0  0  0  0  0  0  0  0  0  0  0
    7.9885  -13.5654   17.2030 O   0  0  0  0  0  0  0  0  0  0  0  0
    7.1637  -15.5059   18.2640 C   0  0  0  0  0  0  0  0  0  0  0  0
    7.0809  -16.1071   19.6599 C   0  0  2  0  0  0  0  0  0  0  0  0
    6.3028  -15.2380   20.5070 N   0  0  0  0  0  0  0  0  0  0  0  0
    8.4175  -16.2851   20.2471 C   0  0  0  0  0  0  0  0  0  0  0  0
    9.3161  -16.8431   19.5942 O   0  0  0  0  0  0  0  0  0  0  0  0
   14.3465  -13.8377   21.3141 N   0  0  0  0  0  0  0  0  0  0  0  0
   13.4388  -14.7589   20.7408 C   0  0  0  0  0  0  0  0  0  0  0  0
   13.4268  -14.9082   19.5015 O   0  0  0  0  0  0  0  0  0  0  0  0
   12.5368  -15.5239   21.5921 C   0  0  0  0  0  0  0  0  0  0  0  0
   11.1166  -15.2892   21.2795 C   0  0  0  0  0  0  0  0  0  0  0  0
   10.0765  -15.9394   22.1084 C   0  0  2  0  0  0  0  0  0  0  0  0
    8.7578  -15.8429   21.5620 N   0  0  0  0  0  0  0  0  0  0  0  0
   10.1330  -15.5522   23.5425 C   0  0  0  0  0  0  0  0  0  0  0  0
   11.2391  -15.4601   24.1466 O   0  0  0  0  0  0  0  0  0  0  0  0
    8.2432  -12.1592   26.2707 C   0  0  0  0  0  0  0  0  0  0  0  0
    7.3336  -13.2428   25.7255 C   0  0  2  0  0  0  0  0  0  0  0  0
    5.9227  -12.8077   25.7643 C   0  0  0  0  0  0  0  0  0  0  0  0
    7.6727  -14.6060   26.1752 C   0  0  0  0  0  0  0  0  0  0  0  0
    8.9531  -15.2192   25.7573 C   0  0  2  0  0  0  0  0  0  0  0  0
    8.9618  -15.2753   24.2766 N   0  0  0  0  0  0  0  0  0  0  0  0
    9.1111  -16.6161   26.1910 C   0  0  0  0  0  0  0  0  0  0  0  0
    9.1035  -17.7281   25.3550 O   0  0  0  0  0  0  0  0  0  0  0  0
    9.2704  -16.9244   27.4315 O   0  0  0  0  0  0  0  0  0  0  0  0
  2  4  1  0
  2  1  1  0
  3  2  2  0
  5  7  1  0
  5  4  1  0
  5  6  1  1
  7  8  2  0
 10  9  1  0
 10 12  1  0
 11 10  2  0
 13 12  1  0
 14 13  1  6
 15 14  1  0
 15  7  1  0
 16 14  1  0
 17 16  2  0
 19 18  1  1
 19 21  1  0
 20 19  1  0
 22 21  1  6
 22 23  1  0
 22 24  1  0
 23 16  1  0
 24 25  1  0
 26 24  2  0
M  END
$$$$
