QWA.pdb
     RDKit          3D

 29 30  0  0  1  0  0  0  0  0999 V2000
   11.9331  -18.6795   18.5890 N   0  0  0  0  0  0  0  0  0  0  0  0
   12.1259  -19.3079   19.8446 C   0  0  0  0  0  0  0  0  0  0  0  0
   12.8811  -20.2967   19.9377 O   0  0  0  0  0  0  0  0  0  0  0  0
   11.4208  -18.7719   21.0274 C   0  0  0  0  0  0  0  0  0  0  0  0
   10.5851  -17.6053   20.6159 C   0  0  0  0  0  0  0  0  0  0  0  0
    9.8714  -16.9843   21.8023 C   0  0  2  0  0  0  0  0  0  0  0  0
    9.0718  -15.8550   21.4054 N   0  0  0  0  0  0  0  0  0  0  0  0
   10.7757  -16.6598   22.9111 C   0  0  0  0  0  0  0  0  0  0  0  0
   11.8795  -17.2507   23.0432 O   0  0  0  0  0  0  0  0  0  0  0  0
   10.4340  -15.6640   23.8771 N   0  0  0  0  0  0  0  0  0  0  0  0
    9.5989  -15.9571   25.0210 C   0  0  1  0  0  0  0  0  0  0  0  0
    8.1709  -16.2405   24.6070 C   0  0  0  0  0  0  0  0  0  0  0  0
    7.2599  -15.1021   24.8437 C   0  0  0  0  0  0  0  0  0  0  0  0
    5.9866  -15.0033   24.3335 C   0  0  0  0  0  0  0  0  0  0  0  0
    5.4630  -13.8347   24.7630 N   0  0  0  0  0  0  0  0  0  0  0  0
    6.3603  -13.1787   25.5337 C   0  0  0  0  0  0  0  0  0  0  0  0
    6.3292  -11.9700   26.2053 C   0  0  0  0  0  0  0  0  0  0  0  0
    7.4043  -11.5102   26.9440 C   0  0  0  0  0  0  0  0  0  0  0  0
    8.5309  -12.3169   26.9875 C   0  0  0  0  0  0  0  0  0  0  0  0
    8.5905  -13.5242   26.3295 C   0  0  0  0  0  0  0  0  0  0  0  0
    7.5083  -13.9733   25.5937 C   0  0  0  0  0  0  0  0  0  0  0  0
   10.1168  -17.2261   25.6308 C   0  0  0  0  0  0  0  0  0  0  0  0
    9.3365  -18.1480   26.0160 O   0  0  0  0  0  0  0  0  0  0  0  0
   13.4655  -18.9148   26.1604 C   0  0  0  0  0  0  0  0  0  0  0  0
   12.0105  -18.6666   26.4551 C   0  0  2  0  0  0  0  0  0  0  0  0
   11.5084  -17.4640   25.8098 N   0  0  0  0  0  0  0  0  0  0  0  0
   11.7753  -18.6356   27.9170 C   0  0  0  0  0  0  0  0  0  0  0  0
   11.2386  -17.4775   28.4586 O   0  0  0  0  0  0  0  0  0  0  0  0
   12.0314  -19.5912   28.6939 O   0  0  0  0  0  0  0  0  0  0  0  0
  1  2  1  0
  2  3  2  0
  4  5  1  0
  4  2  1  0
  5  6  1  0
  6  7  1  6
  8  6  1  0
  9  8  2  0
 10  8  1  0
 11 10  1  0
 12 13  1  0
 11 12  1  6
 13 21  1  0
 13 14  2  0
 14 15  1  0
 16 15  1  0
 16 17  2  0
 18 17  1  0
 19 18  2  0
 20 19  1  0
 20 21  2  0
 21 16  1  0
 22 26  1  0
 22 11  1  0
 23 22  2  0
 25 24  1  1
 25 26  1  0
 25 27  1  0
 27 28  1  0
 29 27  2  0
M  END
$$$$
