QWA.pdb
     RDKit          3D

 29 30  0  0  1  0  0  0  0  0999 V2000
    9.2430  -15.2427   14.8621 N   0  0  0  0  0  0  0  0  0  0  0  0
    8.3098  -15.8327   15.7507 C   0  0  0  0  0  0  0  0  0  0  0  0
    7.6628  -16.8394   15.3975 O   0  0  0  0  0  0  0  0  0  0  0  0
    8.1225  -15.2361   17.0895 C   0  0  0  0  0  0  0  0  0  0  0  0
    9.4206  -15.2621   17.8264 C   0  0  0  0  0  0  0  0  0  0  0  0
    9.4430  -16.3552   18.8785 C   0  0  2  0  0  0  0  0  0  0  0  0
    8.4272  -17.3452   18.6330 N   0  0  0  0  0  0  0  0  0  0  0  0
    9.3885  -15.8345   20.2490 C   0  0  0  0  0  0  0  0  0  0  0  0
   10.1849  -14.9394   20.6360 O   0  0  0  0  0  0  0  0  0  0  0  0
    8.4313  -16.3254   21.1893 N   0  0  0  0  0  0  0  0  0  0  0  0
    8.4074  -15.8808   22.5654 C   0  0  1  0  0  0  0  0  0  0  0  0
    6.9952  -15.8317   23.1079 C   0  0  0  0  0  0  0  0  0  0  0  0
    6.9152  -15.2699   24.4717 C   0  0  0  0  0  0  0  0  0  0  0  0
    6.5508  -15.9842   25.5890 C   0  0  0  0  0  0  0  0  0  0  0  0
    6.5952  -15.1433   26.6449 N   0  0  0  0  0  0  0  0  0  0  0  0
    6.9769  -13.9101   26.2413 C   0  0  0  0  0  0  0  0  0  0  0  0
    7.1761  -12.7139   26.9066 C   0  0  0  0  0  0  0  0  0  0  0  0
    7.5775  -11.5643   26.2505 C   0  0  0  0  0  0  0  0  0  0  0  0
    7.7757  -11.6561   24.8815 C   0  0  0  0  0  0  0  0  0  0  0  0
    7.5854  -12.8325   24.1931 C   0  0  0  0  0  0  0  0  0  0  0  0
    7.1838  -13.9758   24.8608 C   0  0  0  0  0  0  0  0  0  0  0  0
    9.1303  -16.9159   23.3754 C   0  0  0  0  0  0  0  0  0  0  0  0
    8.9430  -18.1564   23.1928 O   0  0  0  0  0  0  0  0  0  0  0  0
   12.2569  -17.5524   24.9086 C   0  0  0  0  0  0  0  0  0  0  0  0
   10.7745  -17.5649   25.1689 C   0  0  2  0  0  0  0  0  0  0  0  0
   10.0634  -16.5633   24.3904 N   0  0  0  0  0  0  0  0  0  0  0  0
   10.5008  -17.4202   26.6171 C   0  0  0  0  0  0  0  0  0  0  0  0
   11.0667  -18.3504   27.4757 O   0  0  0  0  0  0  0  0  0  0  0  0
    9.7896  -16.5092   27.1138 O   0  0  0  0  0  0  0  0  0  0  0  0
  1  2  1  0
  2  3  2  0
  4  5  1  0
  4  2  1  0
  5  6  1  0
  6  7  1  6
  8  6  1  0
  9  8  2  0
 10  8  1  0
 11 10  1  0
 12 13  1  0
 11 12  1  1
 13 21  1  0
 13 14  2  0
 14 15  1  0
 16 15  1  0
 16 17  2  0
 18 17  1  0
 19 18  2  0
 20 19  1  0
 20 21  2  0
 21 16  1  0
 22 26  1  0
 22 11  1  0
 23 22  2  0
 25 24  1  1
 25 26  1  0
 25 27  1  0
 27 28  1  0
 29 27  2  0
M  END
$$$$
