QWA.pdb
     RDKit          3D

 29 30  0  0  1  0  0  0  0  0999 V2000
    8.4655  -12.5314   19.2041 N   0  0  0  0  0  0  0  0  0  0  0  0
    8.1434  -13.7224   18.5068 C   0  0  0  0  0  0  0  0  0  0  0  0
    7.7496  -13.6656   17.3242 O   0  0  0  0  0  0  0  0  0  0  0  0
    8.2830  -15.0180   19.2034 C   0  0  0  0  0  0  0  0  0  0  0  0
    8.6876  -14.7747   20.6197 C   0  0  0  0  0  0  0  0  0  0  0  0
    9.1644  -16.0495   21.2905 C   0  0  2  0  0  0  0  0  0  0  0  0
    8.2152  -17.1192   21.1265 N   0  0  0  0  0  0  0  0  0  0  0  0
    9.5402  -15.8535   22.6950 C   0  0  0  0  0  0  0  0  0  0  0  0
   10.3106  -14.9182   23.0370 O   0  0  0  0  0  0  0  0  0  0  0  0
    9.0454  -16.7167   23.7205 N   0  0  0  0  0  0  0  0  0  0  0  0
    9.4351  -16.5675   25.1054 C   0  0  1  0  0  0  0  0  0  0  0  0
    8.2348  -16.6071   26.0266 C   0  0  0  0  0  0  0  0  0  0  0  0
    7.2927  -15.4916   25.8028 C   0  0  0  0  0  0  0  0  0  0  0  0
    6.0872  -15.6081   25.1513 C   0  0  0  0  0  0  0  0  0  0  0  0
    5.5071  -14.3884   25.1428 N   0  0  0  0  0  0  0  0  0  0  0  0
    6.3022  -13.4910   25.7687 C   0  0  0  0  0  0  0  0  0  0  0  0
    6.1825  -12.1382   26.0306 C   0  0  0  0  0  0  0  0  0  0  0  0
    7.1597  -11.4295   26.7057 C   0  0  0  0  0  0  0  0  0  0  0  0
    8.2803  -12.1350   27.1164 C   0  0  0  0  0  0  0  0  0  0  0  0
    8.4268  -13.4810   26.8701 C   0  0  0  0  0  0  0  0  0  0  0  0
    7.4420  -14.1790   26.1937 C   0  0  0  0  0  0  0  0  0  0  0  0
   10.2723  -17.7611   25.4584 C   0  0  0  0  0  0  0  0  0  0  0  0
   10.1200  -18.8780   24.8782 O   0  0  0  0  0  0  0  0  0  0  0  0
   13.4834  -18.6883   26.9506 C   0  0  0  0  0  0  0  0  0  0  0  0
   11.9927  -18.8920   26.9084 C   0  0  2  0  0  0  0  0  0  0  0  0
   11.2806  -17.7054   26.4612 N   0  0  0  0  0  0  0  0  0  0  0  0
   11.4955  -19.3590   28.2228 C   0  0  0  0  0  0  0  0  0  0  0  0
   12.0542  -20.5135   28.7497 O   0  0  0  0  0  0  0  0  0  0  0  0
   10.6013  -18.7752   28.8877 O   0  0  0  0  0  0  0  0  0  0  0  0
  1  2  1  0
  2  3  2  0
  4  5  1  0
  4  2  1  0
  5  6  1  0
  6  7  1  1
  8  6  1  0
  9  8  2  0
 10  8  1  0
 11 10  1  0
 12 13  1  0
 11 12  1  1
 13 21  1  0
 13 14  2  0
 14 15  1  0
 16 15  1  0
 16 17  2  0
 18 17  1  0
 19 18  2  0
 20 19  1  0
 20 21  2  0
 21 16  1  0
 22 26  1  0
 22 11  1  0
 23 22  2  0
 25 24  1  1
 25 26  1  0
 25 27  1  0
 27 28  1  0
 29 27  2  0
M  END
$$$$
