QWA.pdb
     RDKit          3D

 29 30  0  0  1  0  0  0  0  0999 V2000
    7.4275  -14.0716   18.9566 N   0  0  0  0  0  0  0  0  0  0  0  0
    8.8344  -14.0621   18.7861 C   0  0  0  0  0  0  0  0  0  0  0  0
    9.3342  -13.5715   17.7535 O   0  0  0  0  0  0  0  0  0  0  0  0
    9.6863  -14.6394   19.8464 C   0  0  0  0  0  0  0  0  0  0  0  0
    9.2710  -16.0510   20.0981 C   0  0  0  0  0  0  0  0  0  0  0  0
   10.1473  -16.7121   21.1458 C   0  0  2  0  0  0  0  0  0  0  0  0
    9.8763  -18.1221   21.2473 N   0  0  0  0  0  0  0  0  0  0  0  0
   10.0887  -16.0419   22.4495 C   0  0  0  0  0  0  0  0  0  0  0  0
   10.6939  -14.9561   22.6496 O   0  0  0  0  0  0  0  0  0  0  0  0
    9.3441  -16.5985   23.5346 N   0  0  0  0  0  0  0  0  0  0  0  0
    9.1165  -15.8713   24.7639 C   0  0  1  0  0  0  0  0  0  0  0  0
    7.7905  -16.2441   25.3913 C   0  0  0  0  0  0  0  0  0  0  0  0
    6.7964  -15.1527   25.3419 C   0  0  0  0  0  0  0  0  0  0  0  0
    5.5601  -15.2505   24.7472 C   0  0  0  0  0  0  0  0  0  0  0  0
    4.9357  -14.0632   24.9034 N   0  0  0  0  0  0  0  0  0  0  0  0
    5.7321  -13.2045   25.5801 C   0  0  0  0  0  0  0  0  0  0  0  0
    5.5778  -11.8940   25.9945 C   0  0  0  0  0  0  0  0  0  0  0  0
    6.5655  -11.2202   26.6897 C   0  0  0  0  0  0  0  0  0  0  0  0
    7.7334  -11.9167   26.9600 C   0  0  0  0  0  0  0  0  0  0  0  0
    7.9152  -13.2210   26.5603 C   0  0  0  0  0  0  0  0  0  0  0  0
    6.9194  -13.8843   25.8655 C   0  0  0  0  0  0  0  0  0  0  0  0
   10.1747  -16.3051   25.7346 C   0  0  0  0  0  0  0  0  0  0  0  0
   10.8826  -17.3373   25.5326 O   0  0  0  0  0  0  0  0  0  0  0  0
   11.4806  -15.1474   29.1201 C   0  0  0  0  0  0  0  0  0  0  0  0
   11.3876  -16.0613   27.9279 C   0  0  2  0  0  0  0  0  0  0  0  0
   10.4412  -15.5840   26.9322 N   0  0  0  0  0  0  0  0  0  0  0  0
   11.0718  -17.4432   28.3569 C   0  0  0  0  0  0  0  0  0  0  0  0
   12.0016  -18.1003   29.1483 O   0  0  0  0  0  0  0  0  0  0  0  0
   10.0164  -18.0545   28.0488 O   0  0  0  0  0  0  0  0  0  0  0  0
  1  2  1  0
  2  3  2  0
  4  5  1  0
  4  2  1  0
  5  6  1  0
  6  7  1  1
  8  6  1  0
  9  8  2  0
 10  8  1  0
 11 10  1  0
 12 13  1  0
 11 12  1  1
 13 21  1  0
 13 14  2  0
 14 15  1  0
 16 15  1  0
 16 17  2  0
 18 17  1  0
 19 18  2  0
 20 19  1  0
 20 21  2  0
 21 16  1  0
 22 26  1  0
 22 11  1  0
 23 22  2  0
 25 24  1  1
 25 26  1  0
 25 27  1  0
 27 28  1  0
 29 27  2  0
M  END
$$$$
