QWA.pdb
     RDKit          3D

 29 30  0  0  1  0  0  0  0  0999 V2000
    9.0152  -12.8245   18.9327 N   0  0  0  0  0  0  0  0  0  0  0  0
    8.2621  -14.0218   18.8439 C   0  0  0  0  0  0  0  0  0  0  0  0
    7.3210  -14.1077   18.0292 O   0  0  0  0  0  0  0  0  0  0  0  0
    8.6124  -15.1531   19.7274 C   0  0  0  0  0  0  0  0  0  0  0  0
    9.7224  -14.7423   20.6372 C   0  0  0  0  0  0  0  0  0  0  0  0
   10.1039  -15.8588   21.5914 C   0  0  2  0  0  0  0  0  0  0  0  0
    9.3304  -17.0482   21.3485 N   0  0  0  0  0  0  0  0  0  0  0  0
   10.0627  -15.4498   22.9998 C   0  0  0  0  0  0  0  0  0  0  0  0
   10.6131  -14.3844   23.3832 O   0  0  0  0  0  0  0  0  0  0  0  0
    9.3977  -16.2462   23.9821 N   0  0  0  0  0  0  0  0  0  0  0  0
    9.2936  -15.8336   25.3644 C   0  0  1  0  0  0  0  0  0  0  0  0
    7.9686  -16.2468   25.9682 C   0  0  0  0  0  0  0  0  0  0  0  0
    6.8913  -15.2634   25.7352 C   0  0  0  0  0  0  0  0  0  0  0  0
    5.6924  -15.5501   25.1254 C   0  0  0  0  0  0  0  0  0  0  0  0
    4.9671  -14.4112   25.0928 N   0  0  0  0  0  0  0  0  0  0  0  0
    5.6624  -13.4008   25.6628 C   0  0  0  0  0  0  0  0  0  0  0  0
    5.3846  -12.0636   25.8815 C   0  0  0  0  0  0  0  0  0  0  0  0
    6.2849  -11.2162   26.5016 C   0  0  0  0  0  0  0  0  0  0  0  0
    7.4939  -11.7642   26.9017 C   0  0  0  0  0  0  0  0  0  0  0  0
    7.7979  -13.0908   26.6974 C   0  0  0  0  0  0  0  0  0  0  0  0
    6.8887  -13.9284   26.0760 C   0  0  0  0  0  0  0  0  0  0  0  0
   10.3501  -16.5772   26.1268 C   0  0  0  0  0  0  0  0  0  0  0  0
   11.0097  -17.5241   25.6019 O   0  0  0  0  0  0  0  0  0  0  0  0
   11.8066  -16.5187   29.6447 C   0  0  0  0  0  0  0  0  0  0  0  0
   11.5415  -17.1012   28.2825 C   0  0  2  0  0  0  0  0  0  0  0  0
   10.6690  -16.2614   27.4773 N   0  0  0  0  0  0  0  0  0  0  0  0
   11.0093  -18.4781   28.4016 C   0  0  0  0  0  0  0  0  0  0  0  0
   11.8415  -19.4457   28.9437 O   0  0  0  0  0  0  0  0  0  0  0  0
    9.8537  -18.8221   28.0428 O   0  0  0  0  0  0  0  0  0  0  0  0
  1  2  1  0
  2  3  2  0
  4  5  1  0
  4  2  1  0
  5  6  1  0
  6  7  1  1
  8  6  1  0
  9  8  2  0
 10  8  1  0
 11 10  1  0
 12 13  1  0
 11 12  1  1
 13 21  1  0
 13 14  2  0
 14 15  1  0
 16 15  1  0
 16 17  2  0
 18 17  1  0
 19 18  2  0
 20 19  1  0
 20 21  2  0
 21 16  1  0
 22 26  1  0
 22 11  1  0
 23 22  2  0
 25 24  1  1
 25 26  1  0
 25 27  1  0
 27 28  1  0
 29 27  2  0
M  END
$$$$
