QWA.pdb
     RDKit          3D

 29 30  0  0  1  0  0  0  0  0999 V2000
    8.0151  -12.8989   16.8314 N   0  0  0  0  0  0  0  0  0  0  0  0
    8.0830  -14.2809   16.5251 C   0  0  0  0  0  0  0  0  0  0  0  0
    7.5908  -14.7089   15.4615 O   0  0  0  0  0  0  0  0  0  0  0  0
    8.7423  -15.1932   17.4824 C   0  0  0  0  0  0  0  0  0  0  0  0
    9.2251  -14.4091   18.6575 C   0  0  0  0  0  0  0  0  0  0  0  0
    9.8526  -15.3069   19.7075 C   0  0  2  0  0  0  0  0  0  0  0  0
    9.5106  -16.6887   19.4934 N   0  0  0  0  0  0  0  0  0  0  0  0
    9.5674  -14.8723   21.0795 C   0  0  0  0  0  0  0  0  0  0  0  0
    9.8420  -13.7045   21.4613 O   0  0  0  0  0  0  0  0  0  0  0  0
    8.9697  -15.7590   22.0271 N   0  0  0  0  0  0  0  0  0  0  0  0
    8.6372  -15.3383   23.3703 C   0  0  1  0  0  0  0  0  0  0  0  0
    7.1914  -15.6380   23.7034 C   0  0  0  0  0  0  0  0  0  0  0  0
    6.7500  -15.0316   24.9759 C   0  0  0  0  0  0  0  0  0  0  0  0
    6.2036  -15.7326   26.0254 C   0  0  0  0  0  0  0  0  0  0  0  0
    5.9285  -14.8488   27.0089 N   0  0  0  0  0  0  0  0  0  0  0  0
    6.2811  -13.6009   26.6245 C   0  0  0  0  0  0  0  0  0  0  0  0
    6.2143  -12.3644   27.2406 C   0  0  0  0  0  0  0  0  0  0  0  0
    6.6515  -11.2080   26.6204 C   0  0  0  0  0  0  0  0  0  0  0  0
    7.1668  -11.3354   25.3397 C   0  0  0  0  0  0  0  0  0  0  0  0
    7.2458  -12.5524   24.7019 C   0  0  0  0  0  0  0  0  0  0  0  0
    6.8052  -13.7021   25.3330 C   0  0  0  0  0  0  0  0  0  0  0  0
    9.4627  -16.1678   24.3088 C   0  0  0  0  0  0  0  0  0  0  0  0
    9.9054  -17.3086   23.9774 O   0  0  0  0  0  0  0  0  0  0  0  0
   11.1153  -15.6885   27.6947 C   0  0  0  0  0  0  0  0  0  0  0  0
   10.6635  -16.4839   26.4995 C   0  0  2  0  0  0  0  0  0  0  0  0
    9.7932  -15.7210   25.6189 N   0  0  0  0  0  0  0  0  0  0  0  0
   10.0246  -17.7489   26.9296 C   0  0  0  0  0  0  0  0  0  0  0  0
   10.8099  -18.6694   27.6068 O   0  0  0  0  0  0  0  0  0  0  0  0
    8.8187  -18.0382   26.7191 O   0  0  0  0  0  0  0  0  0  0  0  0
  1  2  1  0
  2  3  2  0
  4  5  1  0
  4  2  1  0
  5  6  1  0
  6  7  1  1
  8  6  1  0
  9  8  2  0
 10  8  1  0
 11 10  1  0
 12 13  1  0
 11 12  1  1
 13 21  1  0
 13 14  2  0
 14 15  1  0
 16 15  1  0
 16 17  2  0
 18 17  1  0
 19 18  2  0
 20 19  1  0
 20 21  2  0
 21 16  1  0
 22 26  1  0
 22 11  1  0
 23 22  2  0
 25 24  1  1
 25 26  1  0
 25 27  1  0
 27 28  1  0
 29 27  2  0
M  END
$$$$
