QWA.pdb
     RDKit          3D

 29 30  0  0  1  0  0  0  0  0999 V2000
    8.9850  -12.4855   18.6592 N   0  0  0  0  0  0  0  0  0  0  0  0
    8.0901  -13.4514   18.1351 C   0  0  0  0  0  0  0  0  0  0  0  0
    7.7761  -13.4206   16.9279 O   0  0  0  0  0  0  0  0  0  0  0  0
    7.5436  -14.4840   19.0398 C   0  0  0  0  0  0  0  0  0  0  0  0
    8.1182  -14.2970   20.4049 C   0  0  0  0  0  0  0  0  0  0  0  0
    8.6812  -15.5940   20.9557 C   0  0  2  0  0  0  0  0  0  0  0  0
    7.7359  -16.6730   20.8354 N   0  0  0  0  0  0  0  0  0  0  0  0
    9.1986  -15.4612   22.3221 C   0  0  0  0  0  0  0  0  0  0  0  0
    9.9547  -14.5062   22.6404 O   0  0  0  0  0  0  0  0  0  0  0  0
    8.8624  -16.4103   23.3358 N   0  0  0  0  0  0  0  0  0  0  0  0
    9.3646  -16.3014   24.6878 C   0  0  1  0  0  0  0  0  0  0  0  0
    8.2445  -16.3756   25.7031 C   0  0  0  0  0  0  0  0  0  0  0  0
    7.2828  -15.2600   25.5907 C   0  0  0  0  0  0  0  0  0  0  0  0
    6.0287  -15.3646   25.0361 C   0  0  0  0  0  0  0  0  0  0  0  0
    5.4449  -14.1491   25.1119 N   0  0  0  0  0  0  0  0  0  0  0  0
    6.2848  -13.2658   25.6983 C   0  0  0  0  0  0  0  0  0  0  0  0
    6.1813  -11.9222   26.0102 C   0  0  0  0  0  0  0  0  0  0  0  0
    7.2073  -11.2278   26.6250 C   0  0  0  0  0  0  0  0  0  0  0  0
    8.3604  -11.9380   26.9216 C   0  0  0  0  0  0  0  0  0  0  0  0
    8.4918  -13.2751   26.6232 C   0  0  0  0  0  0  0  0  0  0  0  0
    7.4581  -13.9587   26.0081 C   0  0  0  0  0  0  0  0  0  0  0  0
   10.2313  -17.5009   24.9336 C   0  0  0  0  0  0  0  0  0  0  0  0
    9.8322  -18.6764   24.6764 O   0  0  0  0  0  0  0  0  0  0  0  0
   13.8511  -18.2356   25.6044 C   0  0  0  0  0  0  0  0  0  0  0  0
   12.3831  -18.5476   25.7180 C   0  0  2  0  0  0  0  0  0  0  0  0
   11.5454  -17.3855   25.4676 N   0  0  0  0  0  0  0  0  0  0  0  0
   12.0829  -19.1586   27.0332 C   0  0  0  0  0  0  0  0  0  0  0  0
   11.1707  -18.5098   27.8517 O   0  0  0  0  0  0  0  0  0  0  0  0
   12.6023  -20.2252   27.4515 O   0  0  0  0  0  0  0  0  0  0  0  0
  1  2  1  0
  2  3  2  0
  4  5  1  0
  4  2  1  0
  5  6  1  0
  6  7  1  1
  8  6  1  0
  9  8  2  0
 10  8  1  0
 11 10  1  0
 12 13  1  0
 11 12  1  1
 13 21  1  0
 13 14  2  0
 14 15  1  0
 16 15  1  0
 16 17  2  0
 18 17  1  0
 19 18  2  0
 20 19  1  0
 20 21  2  0
 21 16  1  0
 22 26  1  0
 22 11  1  0
 23 22  2  0
 25 24  1  1
 25 26  1  0
 25 27  1  0
 27 28  1  0
 29 27  2  0
M  END
$$$$
