QWA.pdb
     RDKit          3D

 29 30  0  0  1  0  0  0  0  0999 V2000
   13.2353  -15.2405   19.1360 N   0  0  0  0  0  0  0  0  0  0  0  0
   12.3533  -16.1874   18.5581 C   0  0  0  0  0  0  0  0  0  0  0  0
   12.6245  -16.6990   17.4529 O   0  0  0  0  0  0  0  0  0  0  0  0
   11.1196  -16.5512   19.2855 C   0  0  0  0  0  0  0  0  0  0  0  0
   11.0960  -15.8439   20.6000 C   0  0  0  0  0  0  0  0  0  0  0  0
   10.4522  -16.6941   21.6795 C   0  0  2  0  0  0  0  0  0  0  0  0
    9.2122  -17.2697   21.2287 N   0  0  0  0  0  0  0  0  0  0  0  0
   10.3021  -15.9855   22.9553 C   0  0  0  0  0  0  0  0  0  0  0  0
   10.5350  -14.7515   23.0443 O   0  0  0  0  0  0  0  0  0  0  0  0
    9.8875  -16.6716   24.1381 N   0  0  0  0  0  0  0  0  0  0  0  0
    9.5360  -15.9679   25.3518 C   0  0  1  0  0  0  0  0  0  0  0  0
    8.1609  -16.3644   25.8444 C   0  0  0  0  0  0  0  0  0  0  0  0
    7.0927  -15.4550   25.3819 C   0  0  0  0  0  0  0  0  0  0  0  0
    6.0733  -15.8177   24.5329 C   0  0  0  0  0  0  0  0  0  0  0  0
    5.2951  -14.7309   24.3401 N   0  0  0  0  0  0  0  0  0  0  0  0
    5.7824  -13.6802   25.0387 C   0  0  0  0  0  0  0  0  0  0  0  0
    5.3733  -12.3672   25.1854 C   0  0  0  0  0  0  0  0  0  0  0  0
    6.0609  -11.4657   25.9775 C   0  0  0  0  0  0  0  0  0  0  0  0
    7.1921  -11.9331   26.6288 C   0  0  0  0  0  0  0  0  0  0  0  0
    7.6228  -13.2340   26.5017 C   0  0  0  0  0  0  0  0  0  0  0  0
    6.9262  -14.1264   25.7063 C   0  0  0  0  0  0  0  0  0  0  0  0
   10.5023  -16.4078   26.4115 C   0  0  0  0  0  0  0  0  0  0  0  0
   11.2485  -17.4208   26.2550 O   0  0  0  0  0  0  0  0  0  0  0  0
   11.4083  -15.3385   29.9532 C   0  0  0  0  0  0  0  0  0  0  0  0
   11.3856  -16.2624   28.7652 C   0  0  2  0  0  0  0  0  0  0  0  0
   10.6341  -15.7143   27.6472 N   0  0  0  0  0  0  0  0  0  0  0  0
   10.8784  -17.5977   29.1562 C   0  0  0  0  0  0  0  0  0  0  0  0
   11.6325  -18.3348   30.0566 O   0  0  0  0  0  0  0  0  0  0  0  0
    9.8103  -18.1020   28.7234 O   0  0  0  0  0  0  0  0  0  0  0  0
  1  2  1  0
  2  3  2  0
  4  5  1  0
  4  2  1  0
  5  6  1  0
  6  7  1  6
  8  6  1  0
  9  8  2  0
 10  8  1  0
 11 10  1  0
 12 13  1  0
 11 12  1  1
 13 21  1  0
 13 14  2  0
 14 15  1  0
 16 15  1  0
 16 17  2  0
 18 17  1  0
 19 18  2  0
 20 19  1  0
 20 21  2  0
 21 16  1  0
 22 26  1  0
 22 11  1  0
 23 22  2  0
 25 24  1  1
 25 26  1  0
 25 27  1  0
 27 28  1  0
 29 27  2  0
M  END
$$$$
