QWA.pdb
     RDKit          3D

 29 30  0  0  1  0  0  0  0  0999 V2000
    9.1255  -13.1654   18.3434 N   0  0  0  0  0  0  0  0  0  0  0  0
    7.9915  -13.9836   18.1131 C   0  0  0  0  0  0  0  0  0  0  0  0
    7.6227  -14.2241   16.9457 O   0  0  0  0  0  0  0  0  0  0  0  0
    7.2641  -14.5391   19.2732 C   0  0  0  0  0  0  0  0  0  0  0  0
    8.0154  -14.2219   20.5236 C   0  0  0  0  0  0  0  0  0  0  0  0
    8.6227  -15.4681   21.1408 C   0  0  2  0  0  0  0  0  0  0  0  0
    7.6566  -16.5300   21.2453 N   0  0  0  0  0  0  0  0  0  0  0  0
    9.2977  -15.2064   22.4169 C   0  0  0  0  0  0  0  0  0  0  0  0
   10.0729  -14.2236   22.5522 O   0  0  0  0  0  0  0  0  0  0  0  0
    9.0985  -16.0574   23.5472 N   0  0  0  0  0  0  0  0  0  0  0  0
    9.8133  -15.8653   24.7897 C   0  0  1  0  0  0  0  0  0  0  0  0
    8.9064  -16.0556   25.9865 C   0  0  0  0  0  0  0  0  0  0  0  0
    7.6733  -15.2454   25.9164 C   0  0  0  0  0  0  0  0  0  0  0  0
    6.4307  -15.7427   25.6000 C   0  0  0  0  0  0  0  0  0  0  0  0
    5.5563  -14.7140   25.6383 N   0  0  0  0  0  0  0  0  0  0  0  0
    6.1981  -13.5704   25.9695 C   0  0  0  0  0  0  0  0  0  0  0  0
    5.7791  -12.2637   26.1423 C   0  0  0  0  0  0  0  0  0  0  0  0
    6.6531  -11.2500   26.4906 C   0  0  0  0  0  0  0  0  0  0  0  0
    7.9844  -11.5966   26.6629 C   0  0  0  0  0  0  0  0  0  0  0  0
    8.4301  -12.8881   26.4979 C   0  0  0  0  0  0  0  0  0  0  0  0
    7.5458  -13.8935   26.1493 C   0  0  0  0  0  0  0  0  0  0  0  0
   10.8488  -16.9474   24.8740 C   0  0  0  0  0  0  0  0  0  0  0  0
   11.3535  -17.3031   25.9812 O   0  0  0  0  0  0  0  0  0  0  0  0
   12.4453  -19.4744   22.5364 C   0  0  0  0  0  0  0  0  0  0  0  0
   12.3567  -18.6496   23.7923 C   0  0  2  0  0  0  0  0  0  0  0  0
   11.3201  -17.6322   23.7189 N   0  0  0  0  0  0  0  0  0  0  0  0
   13.6745  -18.0578   24.1183 C   0  0  0  0  0  0  0  0  0  0  0  0
   14.7286  -18.9258   24.3593 O   0  0  0  0  0  0  0  0  0  0  0  0
   13.8953  -16.8214   24.1898 O   0  0  0  0  0  0  0  0  0  0  0  0
  1  2  1  0
  2  3  2  0
  4  5  1  0
  4  2  1  0
  5  6  1  0
  6  7  1  1
  8  6  1  0
  9  8  2  0
 10  8  1  0
 11 10  1  0
 12 13  1  0
 11 12  1  1
 13 21  1  0
 13 14  2  0
 14 15  1  0
 16 15  1  0
 16 17  2  0
 18 17  1  0
 19 18  2  0
 20 19  1  0
 20 21  2  0
 21 16  1  0
 22 26  1  0
 22 11  1  0
 23 22  2  0
 25 24  1  6
 25 26  1  0
 25 27  1  0
 27 28  1  0
 29 27  2  0
M  END
$$$$
