QWA.pdb
     RDKit          3D

 29 30  0  0  1  0  0  0  0  0999 V2000
    7.9697  -12.5224   18.9292 N   0  0  0  0  0  0  0  0  0  0  0  0
    7.7843  -13.7712   18.2851 C   0  0  0  0  0  0  0  0  0  0  0  0
    7.3827  -13.8104   17.1045 O   0  0  0  0  0  0  0  0  0  0  0  0
    8.0740  -15.0113   19.0344 C   0  0  0  0  0  0  0  0  0  0  0  0
    8.4326  -14.6643   20.4414 C   0  0  0  0  0  0  0  0  0  0  0  0
    8.8258  -15.8953   21.2368 C   0  0  2  0  0  0  0  0  0  0  0  0
    7.6998  -16.7655   21.4537 N   0  0  0  0  0  0  0  0  0  0  0  0
    9.5250  -15.5731   22.4856 C   0  0  0  0  0  0  0  0  0  0  0  0
   10.4520  -14.7216   22.5100 O   0  0  0  0  0  0  0  0  0  0  0  0
    9.1781  -16.2146   23.7143 N   0  0  0  0  0  0  0  0  0  0  0  0
    9.8415  -15.8994   24.9602 C   0  0  1  0  0  0  0  0  0  0  0  0
    8.8938  -16.0058   26.1356 C   0  0  0  0  0  0  0  0  0  0  0  0
    7.6585  -15.2151   25.9601 C   0  0  0  0  0  0  0  0  0  0  0  0
    6.4288  -15.7481   25.6519 C   0  0  0  0  0  0  0  0  0  0  0  0
    5.5476  -14.7274   25.5759 N   0  0  0  0  0  0  0  0  0  0  0  0
    6.1726  -13.5542   25.8257 C   0  0  0  0  0  0  0  0  0  0  0  0
    5.7409  -12.2410   25.8729 C   0  0  0  0  0  0  0  0  0  0  0  0
    6.5983  -11.1937   26.1577 C   0  0  0  0  0  0  0  0  0  0  0  0
    7.9259  -11.5130   26.3977 C   0  0  0  0  0  0  0  0  0  0  0  0
    8.3839  -12.8102   26.3578 C   0  0  0  0  0  0  0  0  0  0  0  0
    7.5162  -13.8492   26.0718 C   0  0  0  0  0  0  0  0  0  0  0  0
   10.8938  -16.9464   25.1760 C   0  0  0  0  0  0  0  0  0  0  0  0
   11.5090  -17.0567   26.2790 O   0  0  0  0  0  0  0  0  0  0  0  0
   12.2362  -19.9507   23.2761 C   0  0  0  0  0  0  0  0  0  0  0  0
   12.2200  -18.9371   24.3887 C   0  0  2  0  0  0  0  0  0  0  0  0
   11.2584  -17.8709   24.1573 N   0  0  0  0  0  0  0  0  0  0  0  0
   13.5802  -18.3990   24.6201 C   0  0  0  0  0  0  0  0  0  0  0  0
   13.7761  -17.0395   24.4302 O   0  0  0  0  0  0  0  0  0  0  0  0
   14.5644  -19.0966   24.9767 O   0  0  0  0  0  0  0  0  0  0  0  0
  1  2  1  0
  2  3  2  0
  4  5  1  0
  4  2  1  0
  5  6  1  0
  6  7  1  1
  8  6  1  0
  9  8  2  0
 10  8  1  0
 11 10  1  0
 12 13  1  0
 11 12  1  1
 13 21  1  0
 13 14  2  0
 14 15  1  0
 16 15  1  0
 16 17  2  0
 18 17  1  0
 19 18  2  0
 20 19  1  0
 20 21  2  0
 21 16  1  0
 22 26  1  0
 22 11  1  0
 23 22  2  0
 25 24  1  6
 25 26  1  0
 25 27  1  0
 27 28  1  0
 29 27  2  0
M  END
$$$$
