QWA.pdb
     RDKit          3D

 29 30  0  0  1  0  0  0  0  0999 V2000
    8.2250  -12.1972   19.0374 N   0  0  0  0  0  0  0  0  0  0  0  0
    7.7230  -13.2804   18.2738 C   0  0  0  0  0  0  0  0  0  0  0  0
    7.5217  -13.1408   17.0504 O   0  0  0  0  0  0  0  0  0  0  0  0
    7.4467  -14.5643   18.9512 C   0  0  0  0  0  0  0  0  0  0  0  0
    7.8303  -14.4549   20.3897 C   0  0  0  0  0  0  0  0  0  0  0  0
    8.4022  -15.7585   20.9153 C   0  0  2  0  0  0  0  0  0  0  0  0
    7.4052  -16.7962   20.9503 N   0  0  0  0  0  0  0  0  0  0  0  0
    9.0886  -15.6067   22.2030 C   0  0  0  0  0  0  0  0  0  0  0  0
    9.9777  -14.7303   22.3659 O   0  0  0  0  0  0  0  0  0  0  0  0
    8.7717  -16.4477   23.3138 N   0  0  0  0  0  0  0  0  0  0  0  0
    9.4251  -16.3063   24.5963 C   0  0  1  0  0  0  0  0  0  0  0  0
    8.4291  -16.3579   25.7348 C   0  0  0  0  0  0  0  0  0  0  0  0
    7.4307  -15.2704   25.6839 C   0  0  0  0  0  0  0  0  0  0  0  0
    6.1190  -15.4334   25.3040 C   0  0  0  0  0  0  0  0  0  0  0  0
    5.5167  -14.2273   25.3845 N   0  0  0  0  0  0  0  0  0  0  0  0
    6.4003  -13.2935   25.8045 C   0  0  0  0  0  0  0  0  0  0  0  0
    6.3009  -11.9357   26.0489 C   0  0  0  0  0  0  0  0  0  0  0  0
    7.3780  -11.1849   26.4838 C   0  0  0  0  0  0  0  0  0  0  0  0
    8.5788  -11.8528   26.6687 C   0  0  0  0  0  0  0  0  0  0  0  0
    8.7074  -13.2027   26.4337 C   0  0  0  0  0  0  0  0  0  0  0  0
    7.6224  -13.9429   25.9989 C   0  0  0  0  0  0  0  0  0  0  0  0
   10.3191  -17.4984   24.7690 C   0  0  0  0  0  0  0  0  0  0  0  0
    9.9069  -18.6781   24.5551 O   0  0  0  0  0  0  0  0  0  0  0  0
   13.9760  -18.2145   25.4116 C   0  0  0  0  0  0  0  0  0  0  0  0
   12.5053  -18.5279   25.4774 C   0  0  2  0  0  0  0  0  0  0  0  0
   11.6753  -17.3710   25.1813 N   0  0  0  0  0  0  0  0  0  0  0  0
   12.1596  -19.1211   26.7895 C   0  0  0  0  0  0  0  0  0  0  0  0
   12.7171  -20.3502   27.1077 O   0  0  0  0  0  0  0  0  0  0  0  0
   11.3945  -18.5809   27.6293 O   0  0  0  0  0  0  0  0  0  0  0  0
  1  2  1  0
  2  3  2  0
  4  5  1  0
  4  2  1  0
  5  6  1  0
  6  7  1  1
  8  6  1  0
  9  8  2  0
 10  8  1  0
 11 10  1  0
 12 13  1  0
 11 12  1  1
 13 21  1  0
 13 14  2  0
 14 15  1  0
 16 15  1  0
 16 17  2  0
 18 17  1  0
 19 18  2  0
 20 19  1  0
 20 21  2  0
 21 16  1  0
 22 26  1  0
 22 11  1  0
 23 22  2  0
 25 24  1  1
 25 26  1  0
 25 27  1  0
 27 28  1  0
 29 27  2  0
M  END
$$$$
