NIA.pdb
     RDKit          3D

 22 21  0  0  1  0  0  0  0  0999 V2000
    8.0638  -18.2034   19.8297 N   0  0  0  0  0  0  0  0  0  0  0  0
    8.2892  -16.8032   19.6818 C   0  0  0  0  0  0  0  0  0  0  0  0
    7.9309  -16.2759   18.6060 O   0  0  0  0  0  0  0  0  0  0  0  0
    8.9172  -15.9661   20.7285 C   0  0  0  0  0  0  0  0  0  0  0  0
    8.0604  -15.9722   21.9467 C   0  0  2  0  0  0  0  0  0  0  0  0
    6.7642  -15.4577   21.6253 N   0  0  0  0  0  0  0  0  0  0  0  0
    8.6827  -15.3092   23.1111 C   0  0  0  0  0  0  0  0  0  0  0  0
    9.8717  -14.9133   22.9960 O   0  0  0  0  0  0  0  0  0  0  0  0
    6.0868  -11.8252   25.7386 C   0  0  0  0  0  0  0  0  0  0  0  0
    7.2532  -12.6037   25.1887 C   0  0  0  0  0  0  0  0  0  0  0  0
    7.6521  -13.6924   26.1640 C   0  0  2  0  0  0  0  0  0  0  0  0
    7.9731  -13.0258   27.4662 C   0  0  0  0  0  0  0  0  0  0  0  0
    8.7063  -14.4979   25.5231 C   0  0  2  0  0  0  0  0  0  0  0  0
    8.0479  -15.0860   24.3401 N   0  0  0  0  0  0  0  0  0  0  0  0
    9.2685  -15.6035   26.2775 C   0  0  0  0  0  0  0  0  0  0  0  0
    8.5472  -16.5546   26.6713 O   0  0  0  0  0  0  0  0  0  0  0  0
   12.6925  -16.8539   26.9112 C   0  0  0  0  0  0  0  0  0  0  0  0
   11.2204  -16.8003   27.3383 C   0  0  2  0  0  0  0  0  0  0  0  0
   10.6467  -15.6729   26.6090 N   0  0  0  0  0  0  0  0  0  0  0  0
   11.0862  -16.6065   28.7860 C   0  0  0  0  0  0  0  0  0  0  0  0
   11.3282  -17.5357   29.6020 O   0  0  0  0  0  0  0  0  0  0  0  0
   10.6878  -15.3889   29.2890 O   0  0  0  0  0  0  0  0  0  0  0  0
  1  2  1  0
  2  4  1  0
  3  2  2  0
  4  5  1  0
  5  7  1  0
  5  6  1  6
  7  8  2  0
  9 10  1  0
 10 11  1  0
 11 12  1  1
 11 13  1  0
 13 14  1  6
 14  7  1  0
 15 13  1  0
 15 19  1  0
 16 15  2  0
 18 19  1  0
 18 17  1  1
 20 18  1  0
 21 20  2  0
 22 20  1  0
M  END
$$$$
