NIA.pdb
     RDKit          3D

 22 21  0  0  1  0  0  0  0  0999 V2000
    7.4572  -18.4489   20.9192 N   0  0  0  0  0  0  0  0  0  0  0  0
    8.8198  -18.4792   21.3385 C   0  0  0  0  0  0  0  0  0  0  0  0
    9.4773  -19.5097   21.0752 O   0  0  0  0  0  0  0  0  0  0  0  0
    9.4737  -17.3632   22.0580 C   0  0  0  0  0  0  0  0  0  0  0  0
    8.4589  -16.3231   22.3843 C   0  0  2  0  0  0  0  0  0  0  0  0
    8.0651  -15.6436   21.1878 N   0  0  0  0  0  0  0  0  0  0  0  0
    8.8754  -15.4093   23.4679 C   0  0  0  0  0  0  0  0  0  0  0  0
    9.9743  -14.8093   23.3408 O   0  0  0  0  0  0  0  0  0  0  0  0
    5.6370  -11.9343   25.0270 C   0  0  0  0  0  0  0  0  0  0  0  0
    6.9290  -12.6679   24.7788 C   0  0  0  0  0  0  0  0  0  0  0  0
    7.3111  -13.4689   26.0069 C   0  0  2  0  0  0  0  0  0  0  0  0
    7.3435  -12.5187   27.1641 C   0  0  0  0  0  0  0  0  0  0  0  0
    8.5442  -14.2094   25.6876 C   0  0  2  0  0  0  0  0  0  0  0  0
    8.1376  -15.1580   24.6322 N   0  0  0  0  0  0  0  0  0  0  0  0
    9.1539  -14.9989   26.7424 C   0  0  0  0  0  0  0  0  0  0  0  0
    8.4886  -15.8515   27.3830 O   0  0  0  0  0  0  0  0  0  0  0  0
   10.3405  -14.2597   29.4046 C   0  0  0  0  0  0  0  0  0  0  0  0
   11.0198  -15.2258   28.4260 C   0  0  2  0  0  0  0  0  0  0  0  0
   10.5183  -14.8552   27.1057 N   0  0  0  0  0  0  0  0  0  0  0  0
   10.6934  -16.6223   28.7339 C   0  0  0  0  0  0  0  0  0  0  0  0
    9.8920  -17.2855   28.0227 O   0  0  0  0  0  0  0  0  0  0  0  0
   11.2640  -17.2447   29.8207 O   0  0  0  0  0  0  0  0  0  0  0  0
  1  2  1  0
  2  4  1  0
  3  2  2  0
  4  5  1  0
  5  7  1  0
  5  6  1  6
  7  8  2  0
  9 10  1  0
 10 11  1  0
 11 12  1  1
 11 13  1  0
 13 14  1  6
 14  7  1  0
 15 13  1  0
 15 19  1  0
 16 15  2  0
 18 19  1  0
 18 17  1  1
 20 18  1  0
 21 20  2  0
 22 20  1  0
M  END
$$$$
