NIA.pdb
     RDKit          3D

 22 21  0  0  1  0  0  0  0  0999 V2000
    9.2629  -17.7433   19.0545 N   0  0  0  0  0  0  0  0  0  0  0  0
    8.8605  -16.3922   19.2686 C   0  0  0  0  0  0  0  0  0  0  0  0
    8.1159  -15.8731   18.4085 O   0  0  0  0  0  0  0  0  0  0  0  0
    9.2797  -15.5958   20.4437 C   0  0  0  0  0  0  0  0  0  0  0  0
    8.4278  -15.9523   21.6121 C   0  0  2  0  0  0  0  0  0  0  0  0
    7.0697  -15.5878   21.3458 N   0  0  0  0  0  0  0  0  0  0  0  0
    8.9351  -15.4271   22.8965 C   0  0  0  0  0  0  0  0  0  0  0  0
   10.1187  -15.0011   22.9309 O   0  0  0  0  0  0  0  0  0  0  0  0
    6.4239  -12.0653   25.6414 C   0  0  0  0  0  0  0  0  0  0  0  0
    7.5677  -12.9075   25.1402 C   0  0  0  0  0  0  0  0  0  0  0  0
    7.7188  -14.1406   26.0076 C   0  0  2  0  0  0  0  0  0  0  0  0
    7.9340  -13.6706   27.4133 C   0  0  0  0  0  0  0  0  0  0  0  0
    8.7579  -14.9881   25.3970 C   0  0  2  0  0  0  0  0  0  0  0  0
    8.1961  -15.3664   24.0854 N   0  0  0  0  0  0  0  0  0  0  0  0
    9.1070  -16.2254   26.0713 C   0  0  0  0  0  0  0  0  0  0  0  0
    8.2231  -17.0524   26.4101 O   0  0  0  0  0  0  0  0  0  0  0  0
   12.2230  -18.1228   26.7062 C   0  0  0  0  0  0  0  0  0  0  0  0
   10.7951  -17.7675   27.1389 C   0  0  2  0  0  0  0  0  0  0  0  0
   10.4488  -16.5678   26.3821 N   0  0  0  0  0  0  0  0  0  0  0  0
   10.7167  -17.5140   28.5814 C   0  0  0  0  0  0  0  0  0  0  0  0
   10.6652  -16.3431   29.0443 O   0  0  0  0  0  0  0  0  0  0  0  0
   10.6974  -18.5644   29.4705 O   0  0  0  0  0  0  0  0  0  0  0  0
  1  2  1  0
  2  4  1  0
  3  2  2  0
  4  5  1  0
  5  7  1  0
  5  6  1  6
  7  8  2  0
  9 10  1  0
 10 11  1  0
 11 12  1  1
 11 13  1  0
 13 14  1  6
 14  7  1  0
 15 13  1  0
 15 19  1  0
 16 15  2  0
 18 19  1  0
 18 17  1  1
 20 18  1  0
 21 20  2  0
 22 20  1  0
M  END
$$$$
