NIA.pdb
     RDKit          3D

 22 21  0  0  1  0  0  0  0  0999 V2000
    6.5541  -20.0656   18.1250 N   0  0  0  0  0  0  0  0  0  0  0  0
    7.8402  -20.0988   17.5101 C   0  0  0  0  0  0  0  0  0  0  0  0
    7.9639  -20.7943   16.4782 O   0  0  0  0  0  0  0  0  0  0  0  0
    9.0105  -19.3587   18.0330 C   0  0  0  0  0  0  0  0  0  0  0  0
    8.8648  -17.9119   17.7107 C   0  0  2  0  0  0  0  0  0  0  0  0
    9.4032  -17.6525   16.4103 N   0  0  0  0  0  0  0  0  0  0  0  0
    9.3998  -17.0160   18.7566 C   0  0  0  0  0  0  0  0  0  0  0  0
   10.6470  -16.8593   18.8147 O   0  0  0  0  0  0  0  0  0  0  0  0
    7.0075  -12.5192   19.6733 C   0  0  0  0  0  0  0  0  0  0  0  0
    8.1355  -13.5162   19.6213 C   0  0  0  0  0  0  0  0  0  0  0  0
    8.1217  -14.3758   20.8691 C   0  0  2  0  0  0  0  0  0  0  0  0
    8.2180  -13.4529   22.0447 C   0  0  0  0  0  0  0  0  0  0  0  0
    9.1657  -15.4034   20.7115 C   0  0  2  0  0  0  0  0  0  0  0  0
    8.6214  -16.3237   19.6938 N   0  0  0  0  0  0  0  0  0  0  0  0
    9.4993  -16.2146   21.8683 C   0  0  0  0  0  0  0  0  0  0  0  0
    8.6648  -17.0130   22.3643 O   0  0  0  0  0  0  0  0  0  0  0  0
   12.6934  -17.0538   23.5751 C   0  0  0  0  0  0  0  0  0  0  0  0
   11.1597  -17.0695   23.5652 C   0  0  2  0  0  0  0  0  0  0  0  0
   10.7703  -16.1536   22.4968 N   0  0  0  0  0  0  0  0  0  0  0  0
   10.6083  -16.6328   24.8523 C   0  0  0  0  0  0  0  0  0  0  0  0
   10.0623  -15.5053   24.9884 O   0  0  0  0  0  0  0  0  0  0  0  0
   10.6771  -17.4572   25.9522 O   0  0  0  0  0  0  0  0  0  0  0  0
  1  2  1  0
  2  4  1  0
  3  2  2  0
  4  5  1  0
  5  7  1  0
  5  6  1  6
  7  8  2  0
  9 10  1  0
 10 11  1  0
 11 12  1  1
 11 13  1  0
 13 14  1  6
 14  7  1  0
 15 13  1  0
 15 19  1  0
 16 15  2  0
 18 19  1  0
 18 17  1  1
 20 18  1  0
 21 20  2  0
 22 20  1  0
M  END
$$$$
