NIA.pdb
     RDKit          3D

 22 21  0  0  1  0  0  0  0  0999 V2000
    9.9222  -16.3070   18.3856 N   0  0  0  0  0  0  0  0  0  0  0  0
    8.8308  -15.8235   19.1656 C   0  0  0  0  0  0  0  0  0  0  0  0
    7.6786  -16.0142   18.7187 O   0  0  0  0  0  0  0  0  0  0  0  0
    9.0031  -15.1195   20.4561 C   0  0  0  0  0  0  0  0  0  0  0  0
    8.6730  -16.0473   21.5734 C   0  0  2  0  0  0  0  0  0  0  0  0
    7.2866  -16.3971   21.5141 N   0  0  0  0  0  0  0  0  0  0  0  0
    9.0968  -15.5515   22.8991 C   0  0  0  0  0  0  0  0  0  0  0  0
   10.3206  -15.3174   23.0753 O   0  0  0  0  0  0  0  0  0  0  0  0
    6.3062  -12.0987   25.3840 C   0  0  0  0  0  0  0  0  0  0  0  0
    7.4817  -12.9412   24.9630 C   0  0  0  0  0  0  0  0  0  0  0  0
    7.6186  -14.1339   25.8874 C   0  0  2  0  0  0  0  0  0  0  0  0
    7.7819  -13.6013   27.2777 C   0  0  0  0  0  0  0  0  0  0  0  0
    8.6869  -14.9931   25.3479 C   0  0  2  0  0  0  0  0  0  0  0  0
    8.2367  -15.3206   23.9808 N   0  0  0  0  0  0  0  0  0  0  0  0
    8.9425  -16.2572   26.0145 C   0  0  0  0  0  0  0  0  0  0  0  0
    8.0186  -17.0865   26.2110 O   0  0  0  0  0  0  0  0  0  0  0  0
   11.7422  -18.4667   26.4530 C   0  0  0  0  0  0  0  0  0  0  0  0
   10.4941  -17.8985   27.1398 C   0  0  2  0  0  0  0  0  0  0  0  0
   10.2335  -16.6244   26.4759 N   0  0  0  0  0  0  0  0  0  0  0  0
   10.7125  -17.7019   28.5768 C   0  0  0  0  0  0  0  0  0  0  0  0
   10.7632  -18.6746   29.3763 O   0  0  0  0  0  0  0  0  0  0  0  0
   10.8684  -16.4335   29.0878 O   0  0  0  0  0  0  0  0  0  0  0  0
  1  2  1  0
  2  4  1  0
  3  2  2  0
  4  5  1  0
  5  7  1  0
  5  6  1  1
  7  8  2  0
  9 10  1  0
 10 11  1  0
 11 12  1  1
 11 13  1  0
 13 14  1  6
 14  7  1  0
 15 13  1  0
 15 19  1  0
 16 15  2  0
 18 19  1  0
 18 17  1  6
 20 18  1  0
 21 20  2  0
 22 20  1  0
M  END
$$$$
