NIA.pdb
     RDKit          3D

 22 21  0  0  1  0  0  0  0  0999 V2000
   14.8107  -15.5446   15.1293 N   0  0  0  0  0  0  0  0  0  0  0  0
   13.4846  -15.5236   15.6529 C   0  0  0  0  0  0  0  0  0  0  0  0
   12.5818  -16.0229   14.9462 O   0  0  0  0  0  0  0  0  0  0  0  0
   13.1406  -14.9467   16.9718 C   0  0  0  0  0  0  0  0  0  0  0  0
   12.2108  -15.8651   17.6860 C   0  0  2  0  0  0  0  0  0  0  0  0
   11.1195  -16.2084   16.8261 N   0  0  0  0  0  0  0  0  0  0  0  0
   11.7810  -15.3622   19.0071 C   0  0  0  0  0  0  0  0  0  0  0  0
   12.6745  -15.0636   19.8414 O   0  0  0  0  0  0  0  0  0  0  0  0
    7.7368  -12.1430   19.3393 C   0  0  0  0  0  0  0  0  0  0  0  0
    9.0308  -12.8162   19.7153 C   0  0  0  0  0  0  0  0  0  0  0  0
    8.7461  -14.0641   20.5260 C   0  0  2  0  0  0  0  0  0  0  0  0
    7.9575  -13.6425   21.7274 C   0  0  0  0  0  0  0  0  0  0  0  0
   10.0305  -14.7503   20.7500 C   0  0  2  0  0  0  0  0  0  0  0  0
   10.4484  -15.1913   19.4047 N   0  0  0  0  0  0  0  0  0  0  0  0
   10.0304  -15.9324   21.5927 C   0  0  0  0  0  0  0  0  0  0  0  0
    9.3276  -16.9344   21.3061 O   0  0  0  0  0  0  0  0  0  0  0  0
   12.1012  -17.8445   23.6075 C   0  0  0  0  0  0  0  0  0  0  0  0
   10.7294  -17.1627   23.6820 C   0  0  2  0  0  0  0  0  0  0  0  0
   10.8137  -16.0234   22.7727 N   0  0  0  0  0  0  0  0  0  0  0  0
   10.4218  -16.7189   25.0458 C   0  0  0  0  0  0  0  0  0  0  0  0
   10.3040  -15.4974   25.3320 O   0  0  0  0  0  0  0  0  0  0  0  0
   10.2536  -17.6405   26.0540 O   0  0  0  0  0  0  0  0  0  0  0  0
  1  2  1  0
  2  4  1  0
  3  2  2  0
  4  5  1  0
  5  7  1  0
  5  6  1  6
  7  8  2  0
  9 10  1  0
 10 11  1  0
 11 12  1  1
 11 13  1  0
 13 14  1  6
 14  7  1  0
 15 13  1  0
 15 19  1  0
 16 15  2  0
 18 19  1  0
 18 17  1  1
 20 18  1  0
 21 20  2  0
 22 20  1  0
M  END
$$$$
