NIA.pdb
     RDKit          3D

 22 21  0  0  1  0  0  0  0  0999 V2000
    7.9792  -18.6284   19.8201 N   0  0  0  0  0  0  0  0  0  0  0  0
    8.3720  -17.2614   19.9215 C   0  0  0  0  0  0  0  0  0  0  0  0
    8.0437  -16.5002   18.9853 O   0  0  0  0  0  0  0  0  0  0  0  0
    9.1367  -16.7183   21.0665 C   0  0  0  0  0  0  0  0  0  0  0  0
    8.2707  -15.7879   21.8428 C   0  0  2  0  0  0  0  0  0  0  0  0
    7.8331  -14.7198   20.9967 N   0  0  0  0  0  0  0  0  0  0  0  0
    8.8831  -15.3236   23.1046 C   0  0  0  0  0  0  0  0  0  0  0  0
   10.1164  -15.0740   23.1024 O   0  0  0  0  0  0  0  0  0  0  0  0
    6.4956  -11.7750   25.9642 C   0  0  0  0  0  0  0  0  0  0  0  0
    7.5967  -12.6224   25.3824 C   0  0  0  0  0  0  0  0  0  0  0  0
    7.7842  -13.8707   26.2205 C   0  0  2  0  0  0  0  0  0  0  0  0
    8.0254  -13.4265   27.6303 C   0  0  0  0  0  0  0  0  0  0  0  0
    8.8200  -14.6911   25.5689 C   0  0  2  0  0  0  0  0  0  0  0  0
    8.1928  -15.1388   24.3099 N   0  0  0  0  0  0  0  0  0  0  0  0
    9.2698  -15.8879   26.2567 C   0  0  0  0  0  0  0  0  0  0  0  0
    8.4555  -16.7753   26.6164 O   0  0  0  0  0  0  0  0  0  0  0  0
   12.5955  -17.4264   26.9213 C   0  0  0  0  0  0  0  0  0  0  0  0
   11.0947  -17.3372   27.2246 C   0  0  2  0  0  0  0  0  0  0  0  0
   10.6369  -16.1214   26.5581 N   0  0  0  0  0  0  0  0  0  0  0  0
   10.8399  -17.2676   28.6674 C   0  0  0  0  0  0  0  0  0  0  0  0
   10.6234  -16.1702   29.2476 O   0  0  0  0  0  0  0  0  0  0  0  0
   10.8321  -18.4154   29.4267 O   0  0  0  0  0  0  0  0  0  0  0  0
  1  2  1  0
  2  4  1  0
  3  2  2  0
  4  5  1  0
  5  7  1  0
  5  6  1  6
  7  8  2  0
  9 10  1  0
 10 11  1  0
 11 12  1  1
 11 13  1  0
 13 14  1  6
 14  7  1  0
 15 13  1  0
 15 19  1  0
 16 15  2  0
 18 19  1  0
 18 17  1  1
 20 18  1  0
 21 20  2  0
 22 20  1  0
M  END
$$$$
