NIA.pdb
     RDKit          3D

 22 21  0  0  1  0  0  0  0  0999 V2000
    9.6914  -17.6765   13.6675 N   0  0  0  0  0  0  0  0  0  0  0  0
   10.4529  -17.6497   14.8727 C   0  0  0  0  0  0  0  0  0  0  0  0
   11.3405  -18.5200   15.0089 O   0  0  0  0  0  0  0  0  0  0  0  0
   10.2396  -16.6541   15.9469 C   0  0  0  0  0  0  0  0  0  0  0  0
    9.9470  -17.3605   17.2250 C   0  0  2  0  0  0  0  0  0  0  0  0
    8.6317  -17.9223   17.1735 N   0  0  0  0  0  0  0  0  0  0  0  0
   10.1853  -16.5338   18.4261 C   0  0  0  0  0  0  0  0  0  0  0  0
   11.3699  -16.1934   18.6797 O   0  0  0  0  0  0  0  0  0  0  0  0
    6.9449  -12.7058   19.5507 C   0  0  0  0  0  0  0  0  0  0  0  0
    8.2430  -13.4699   19.5553 C   0  0  0  0  0  0  0  0  0  0  0  0
    8.2455  -14.4752   20.6891 C   0  0  2  0  0  0  0  0  0  0  0  0
    8.0875  -13.7060   21.9644 C   0  0  0  0  0  0  0  0  0  0  0  0
    9.4458  -15.3154   20.5345 C   0  0  2  0  0  0  0  0  0  0  0  0
    9.1888  -16.0973   19.3091 N   0  0  0  0  0  0  0  0  0  0  0  0
    9.7429  -16.2739   21.5836 C   0  0  0  0  0  0  0  0  0  0  0  0
    8.9581  -17.2221   21.8384 O   0  0  0  0  0  0  0  0  0  0  0  0
   12.7614  -17.3398   23.3593 C   0  0  0  0  0  0  0  0  0  0  0  0
   11.2370  -17.1773   23.4053 C   0  0  2  0  0  0  0  0  0  0  0  0
   10.9211  -16.1963   22.3709 N   0  0  0  0  0  0  0  0  0  0  0  0
   10.7844  -16.7114   24.7204 C   0  0  0  0  0  0  0  0  0  0  0  0
   10.3023  -15.5586   24.8827 O   0  0  0  0  0  0  0  0  0  0  0  0
   10.8785  -17.5356   25.8186 O   0  0  0  0  0  0  0  0  0  0  0  0
  1  2  1  0
  2  4  1  0
  3  2  2  0
  4  5  1  0
  5  7  1  0
  5  6  1  6
  7  8  2  0
  9 10  1  0
 10 11  1  0
 11 12  1  1
 11 13  1  0
 13 14  1  6
 14  7  1  0
 15 13  1  0
 15 19  1  0
 16 15  2  0
 18 19  1  0
 18 17  1  1
 20 18  1  0
 21 20  2  0
 22 20  1  0
M  END
$$$$
