NIA.pdb
     RDKit          3D

 22 21  0  0  1  0  0  0  0  0999 V2000
    7.6878  -19.2942   22.6704 N   0  0  0  0  0  0  0  0  0  0  0  0
    7.2824  -18.1026   22.0003 C   0  0  0  0  0  0  0  0  0  0  0  0
    6.1795  -17.6104   22.3241 O   0  0  0  0  0  0  0  0  0  0  0  0
    8.0975  -17.4386   20.9585 C   0  0  0  0  0  0  0  0  0  0  0  0
    8.1306  -15.9722   21.2164 C   0  0  2  0  0  0  0  0  0  0  0  0
    8.8101  -15.3108   20.1445 N   0  0  0  0  0  0  0  0  0  0  0  0
    8.6556  -15.6179   22.5512 C   0  0  0  0  0  0  0  0  0  0  0  0
    9.8837  -15.7905   22.7646 O   0  0  0  0  0  0  0  0  0  0  0  0
    7.2184  -11.8489   27.0644 C   0  0  0  0  0  0  0  0  0  0  0  0
    8.1255  -12.9420   26.5631 C   0  0  0  0  0  0  0  0  0  0  0  0
    7.5089  -13.6075   25.3495 C   0  0  2  0  0  0  0  0  0  0  0  0
    6.1193  -14.0191   25.7272 C   0  0  0  0  0  0  0  0  0  0  0  0
    8.4401  -14.6560   24.8975 C   0  0  2  0  0  0  0  0  0  0  0  0
    7.8874  -15.1019   23.6034 N   0  0  0  0  0  0  0  0  0  0  0  0
    8.5766  -15.8435   25.7215 C   0  0  0  0  0  0  0  0  0  0  0  0
    7.5973  -16.6019   25.9353 O   0  0  0  0  0  0  0  0  0  0  0  0
   11.0662  -18.2297   26.4376 C   0  0  0  0  0  0  0  0  0  0  0  0
    9.9558  -17.4243   27.1236 C   0  0  2  0  0  0  0  0  0  0  0  0
    9.8075  -16.2113   26.3245 N   0  0  0  0  0  0  0  0  0  0  0  0
   10.3064  -17.0954   28.5094 C   0  0  0  0  0  0  0  0  0  0  0  0
   10.4922  -15.9051   28.8789 O   0  0  0  0  0  0  0  0  0  0  0  0
   10.4414  -18.0941   29.4466 O   0  0  0  0  0  0  0  0  0  0  0  0
  1  2  1  0
  2  4  1  0
  3  2  2  0
  4  5  1  0
  5  7  1  0
  5  6  1  6
  7  8  2  0
  9 10  1  0
 10 11  1  0
 11 12  1  1
 11 13  1  0
 13 14  1  6
 14  7  1  0
 15 13  1  0
 15 19  1  0
 16 15  2  0
 18 19  1  0
 18 17  1  6
 20 18  1  0
 21 20  2  0
 22 20  1  0
M  END
$$$$
