NIA.pdb
     RDKit          3D

 22 21  0  0  1  0  0  0  0  0999 V2000
    7.6682  -15.2732   18.2200 N   0  0  0  0  0  0  0  0  0  0  0  0
    8.3936  -15.8619   19.2973 C   0  0  0  0  0  0  0  0  0  0  0  0
    8.7284  -17.0605   19.1750 O   0  0  0  0  0  0  0  0  0  0  0  0
    8.7589  -15.1266   20.5288 C   0  0  0  0  0  0  0  0  0  0  0  0
    8.4538  -15.9706   21.7174 C   0  0  2  0  0  0  0  0  0  0  0  0
    7.0518  -16.2554   21.7576 N   0  0  0  0  0  0  0  0  0  0  0  0
    8.9771  -15.4195   22.9844 C   0  0  0  0  0  0  0  0  0  0  0  0
   10.2018  -15.1361   23.0407 O   0  0  0  0  0  0  0  0  0  0  0  0
    6.2216  -12.1206   25.5094 C   0  0  0  0  0  0  0  0  0  0  0  0
    7.3927  -12.9330   25.0220 C   0  0  0  0  0  0  0  0  0  0  0  0
    7.7777  -13.9607   26.0667 C   0  0  2  0  0  0  0  0  0  0  0  0
    8.1707  -13.2115   27.3025 C   0  0  0  0  0  0  0  0  0  0  0  0
    8.7743  -14.8595   25.4587 C   0  0  2  0  0  0  0  0  0  0  0  0
    8.2108  -15.1870   24.1343 N   0  0  0  0  0  0  0  0  0  0  0  0
    9.0407  -16.1240   26.1204 C   0  0  0  0  0  0  0  0  0  0  0  0
    8.1203  -16.9539   26.3301 O   0  0  0  0  0  0  0  0  0  0  0  0
   11.9254  -18.2642   26.6505 C   0  0  0  0  0  0  0  0  0  0  0  0
   10.6055  -17.7546   27.2427 C   0  0  2  0  0  0  0  0  0  0  0  0
   10.3386  -16.4907   26.5621 N   0  0  0  0  0  0  0  0  0  0  0  0
   10.7072  -17.5543   28.6921 C   0  0  0  0  0  0  0  0  0  0  0  0
   10.7795  -18.5271   29.4898 O   0  0  0  0  0  0  0  0  0  0  0  0
   10.7259  -16.2822   29.2171 O   0  0  0  0  0  0  0  0  0  0  0  0
  1  2  1  0
  2  4  1  0
  3  2  2  0
  4  5  1  0
  5  7  1  0
  5  6  1  1
  7  8  2  0
  9 10  1  0
 10 11  1  0
 11 12  1  1
 11 13  1  0
 13 14  1  6
 14  7  1  0
 15 13  1  0
 15 19  1  0
 16 15  2  0
 18 19  1  0
 18 17  1  6
 20 18  1  0
 21 20  2  0
 22 20  1  0
M  END
$$$$
