NIA.pdb
     RDKit          3D

 22 21  0  0  1  0  0  0  0  0999 V2000
    9.2285  -21.3106   16.5625 N   0  0  0  0  0  0  0  0  0  0  0  0
    8.6479  -20.2379   17.3011 C   0  0  0  0  0  0  0  0  0  0  0  0
    7.4310  -20.0124   17.1228 O   0  0  0  0  0  0  0  0  0  0  0  0
    9.4118  -19.3981   18.2508 C   0  0  0  0  0  0  0  0  0  0  0  0
    9.3414  -17.9744   17.8190 C   0  0  2  0  0  0  0  0  0  0  0  0
   10.0659  -17.8065   16.5963 N   0  0  0  0  0  0  0  0  0  0  0  0
    9.7373  -17.0165   18.8719 C   0  0  0  0  0  0  0  0  0  0  0  0
   10.9633  -16.7687   19.0102 O   0  0  0  0  0  0  0  0  0  0  0  0
    6.9177  -12.6991   19.7268 C   0  0  0  0  0  0  0  0  0  0  0  0
    8.1003  -13.6309   19.6818 C   0  0  0  0  0  0  0  0  0  0  0  0
    8.1235  -14.4950   20.9263 C   0  0  2  0  0  0  0  0  0  0  0  0
    8.1003  -13.5735   22.1067 C   0  0  0  0  0  0  0  0  0  0  0  0
    9.2590  -15.4252   20.7994 C   0  0  2  0  0  0  0  0  0  0  0  0
    8.8484  -16.3593   19.7328 N   0  0  0  0  0  0  0  0  0  0  0  0
    9.6028  -16.2374   21.9525 C   0  0  0  0  0  0  0  0  0  0  0  0
    8.8083  -17.1045   22.3965 O   0  0  0  0  0  0  0  0  0  0  0  0
   12.7726  -16.8958   23.7766 C   0  0  0  0  0  0  0  0  0  0  0  0
   11.2441  -17.0037   23.7093 C   0  0  2  0  0  0  0  0  0  0  0  0
   10.8394  -16.1010   22.6354 N   0  0  0  0  0  0  0  0  0  0  0  0
   10.6202  -16.6155   24.9787 C   0  0  0  0  0  0  0  0  0  0  0  0
   10.0046  -15.5233   25.1052 O   0  0  0  0  0  0  0  0  0  0  0  0
   10.6958  -17.4479   26.0722 O   0  0  0  0  0  0  0  0  0  0  0  0
  1  2  1  0
  2  4  1  0
  3  2  2  0
  4  5  1  0
  5  7  1  0
  5  6  1  6
  7  8  2  0
  9 10  1  0
 10 11  1  0
 11 12  1  1
 11 13  1  0
 13 14  1  6
 14  7  1  0
 15 13  1  0
 15 19  1  0
 16 15  2  0
 18 19  1  0
 18 17  1  1
 20 18  1  0
 21 20  2  0
 22 20  1  0
M  END
$$$$
