NIA.pdb
     RDKit          3D

 22 21  0  0  1  0  0  0  0  0999 V2000
    5.9032  -20.1299   17.6642 N   0  0  0  0  0  0  0  0  0  0  0  0
    7.3226  -20.0541   17.5516 C   0  0  0  0  0  0  0  0  0  0  0  0
    7.8483  -20.6006   16.5572 O   0  0  0  0  0  0  0  0  0  0  0  0
    8.1812  -19.3688   18.5435 C   0  0  0  0  0  0  0  0  0  0  0  0
    8.4577  -17.9799   18.0825 C   0  0  2  0  0  0  0  0  0  0  0  0
    9.2609  -18.0173   16.8985 N   0  0  0  0  0  0  0  0  0  0  0  0
    9.0087  -17.1048   19.1377 C   0  0  0  0  0  0  0  0  0  0  0  0
   10.2517  -17.1300   19.3325 O   0  0  0  0  0  0  0  0  0  0  0  0
    6.9637  -12.3454   19.8794 C   0  0  0  0  0  0  0  0  0  0  0  0
    8.0029  -13.4359   19.8821 C   0  0  0  0  0  0  0  0  0  0  0  0
    7.8608  -14.2802   21.1322 C   0  0  2  0  0  0  0  0  0  0  0  0
    7.9996  -13.3611   22.3066 C   0  0  0  0  0  0  0  0  0  0  0  0
    8.8080  -15.4031   21.0193 C   0  0  2  0  0  0  0  0  0  0  0  0
    8.2501  -16.2445   19.9425 N   0  0  0  0  0  0  0  0  0  0  0  0
    8.9781  -16.2661   22.1742 C   0  0  0  0  0  0  0  0  0  0  0  0
    7.9887  -16.7943   22.7418 O   0  0  0  0  0  0  0  0  0  0  0  0
   11.4831  -18.4865   23.3898 C   0  0  0  0  0  0  0  0  0  0  0  0
   10.4322  -17.4684   23.8498 C   0  0  2  0  0  0  0  0  0  0  0  0
   10.2545  -16.5592   22.7212 N   0  0  0  0  0  0  0  0  0  0  0  0
   10.8754  -16.7380   25.0421 C   0  0  0  0  0  0  0  0  0  0  0  0
   11.0518  -17.3203   26.1456 O   0  0  0  0  0  0  0  0  0  0  0  0
   11.1107  -15.3835   24.9784 O   0  0  0  0  0  0  0  0  0  0  0  0
  1  2  1  0
  2  4  1  0
  3  2  2  0
  4  5  1  0
  5  7  1  0
  5  6  1  6
  7  8  2  0
  9 10  1  0
 10 11  1  0
 11 12  1  1
 11 13  1  0
 13 14  1  6
 14  7  1  0
 15 13  1  0
 15 19  1  0
 16 15  2  0
 18 19  1  0
 18 17  1  6
 20 18  1  0
 21 20  2  0
 22 20  1  0
M  END
$$$$
