NIA.pdb
     RDKit          3D

 22 21  0  0  1  0  0  0  0  0999 V2000
   11.4999  -20.7305   16.4828 N   0  0  0  0  0  0  0  0  0  0  0  0
   10.5908  -19.8688   17.1643 C   0  0  0  0  0  0  0  0  0  0  0  0
    9.3783  -19.9729   16.8770 O   0  0  0  0  0  0  0  0  0  0  0  0
   11.0158  -18.8767   18.1772 C   0  0  0  0  0  0  0  0  0  0  0  0
   10.1476  -17.6704   18.0825 C   0  0  2  0  0  0  0  0  0  0  0  0
   10.3687  -17.0163   16.8289 N   0  0  0  0  0  0  0  0  0  0  0  0
   10.2630  -16.7655   19.2447 C   0  0  0  0  0  0  0  0  0  0  0  0
   11.4175  -16.4281   19.6146 O   0  0  0  0  0  0  0  0  0  0  0  0
    7.1570  -12.6703   19.7170 C   0  0  0  0  0  0  0  0  0  0  0  0
    8.3854  -13.5124   19.9426 C   0  0  0  0  0  0  0  0  0  0  0  0
    8.1420  -14.4852   21.0786 C   0  0  2  0  0  0  0  0  0  0  0  0
    7.7989  -13.6751   22.2907 C   0  0  0  0  0  0  0  0  0  0  0  0
    9.3103  -15.3797   21.1547 C   0  0  2  0  0  0  0  0  0  0  0  0
    9.1804  -16.2515   19.9707 N   0  0  0  0  0  0  0  0  0  0  0  0
    9.4190  -16.2572   22.3061 C   0  0  0  0  0  0  0  0  0  0  0  0
    8.5205  -17.0953   22.5713 O   0  0  0  0  0  0  0  0  0  0  0  0
   12.1490  -17.2923   24.5665 C   0  0  0  0  0  0  0  0  0  0  0  0
   10.6434  -17.1023   24.3443 C   0  0  2  0  0  0  0  0  0  0  0  0
   10.5316  -16.2198   23.1864 N   0  0  0  0  0  0  0  0  0  0  0  0
    9.9967  -16.5060   25.5179 C   0  0  0  0  0  0  0  0  0  0  0  0
    9.9147  -17.1248   26.6125 O   0  0  0  0  0  0  0  0  0  0  0  0
    9.4590  -15.2411   25.4460 O   0  0  0  0  0  0  0  0  0  0  0  0
  1  2  1  0
  2  4  1  0
  3  2  2  0
  4  5  1  0
  5  7  1  0
  5  6  1  6
  7  8  2  0
  9 10  1  0
 10 11  1  0
 11 12  1  1
 11 13  1  0
 13 14  1  6
 14  7  1  0
 15 13  1  0
 15 19  1  0
 16 15  2  0
 18 19  1  0
 18 17  1  1
 20 18  1  0
 21 20  2  0
 22 20  1  0
M  END
$$$$
