YLI.pdb
     RDKit          3D

 29 29  0  0  1  0  0  0  0  0999 V2000
   21.0506  -18.6458  -16.1437 O   0  0  0  0  0  0  0  0  0  0  0  0
   21.6896  -19.1073  -14.9826 C   0  0  0  0  0  0  0  0  0  0  0  0
   21.1045  -20.0200  -14.1325 C   0  0  0  0  0  0  0  0  0  0  0  0
   21.7766  -20.4483  -12.9935 C   0  0  0  0  0  0  0  0  0  0  0  0
   23.0339  -19.9880  -12.6701 C   0  0  0  0  0  0  0  0  0  0  0  0
   23.7594  -20.4405  -11.4565 C   0  0  0  0  0  0  0  0  0  0  0  0
   25.0881  -21.0540  -11.8890 C   0  0  2  0  0  0  0  0  0  0  0  0
   24.7828  -22.3186  -12.5293 N   0  0  0  0  0  0  0  0  0  0  0  0
   25.9137  -21.3394  -10.6882 C   0  0  0  0  0  0  0  0  0  0  0  0
   25.5849  -22.2506   -9.8622 O   0  0  0  0  0  0  0  0  0  0  0  0
   23.6215  -19.0706  -13.5247 C   0  0  0  0  0  0  0  0  0  0  0  0
   22.9472  -18.6419  -14.6662 C   0  0  0  0  0  0  0  0  0  0  0  0
   31.4554  -21.4085  -10.8148 C   0  0  0  0  0  0  0  0  0  0  0  0
   29.9909  -21.5660  -10.5473 C   0  0  1  0  0  0  0  0  0  0  0  0
   29.7606  -22.9716   -9.9614 C   0  0  0  0  0  0  0  0  0  0  0  0
   29.3849  -20.6056   -9.5981 C   0  0  0  0  0  0  0  0  0  0  0  0
   27.9387  -20.7517   -9.2936 C   0  0  2  0  0  0  0  0  0  0  0  0
   27.0916  -20.5771  -10.4631 N   0  0  0  0  0  0  0  0  0  0  0  0
   27.4474  -20.0300   -8.1077 C   0  0  0  0  0  0  0  0  0  0  0  0
   26.7465  -18.9954   -8.2203 O   0  0  0  0  0  0  0  0  0  0  0  0
   30.2955  -20.9639   -3.2946 C   0  0  0  0  0  0  0  0  0  0  0  0
   29.6085  -20.2842   -4.4323 C   0  0  0  0  0  0  0  0  0  0  0  0
   28.1065  -20.4852   -4.4394 C   0  0  2  0  0  0  0  0  0  0  0  0
   27.7268  -21.9311   -4.4651 C   0  0  0  0  0  0  0  0  0  0  0  0
   27.5257  -19.7126   -5.6123 C   0  0  2  0  0  0  0  0  0  0  0  0
   27.7603  -20.4966   -6.8123 N   0  0  0  0  0  0  0  0  0  0  0  0
   28.2049  -18.4042   -5.7787 C   0  0  0  0  0  0  0  0  0  0  0  0
   27.9510  -17.4598   -4.9825 O   0  0  0  0  0  0  0  0  0  0  0  0
   29.1282  -18.1325   -6.7763 O   0  0  0  0  0  0  0  0  0  0  0  0
  2 12  2  0
  2  1  1  0
  3  2  1  0
  4  3  2  0
  4  5  1  0
  5 11  2  0
  6  5  1  0
  7  6  1  0
  7  8  1  1
  9  7  1  0
  9 18  1  0
 10  9  2  0
 11 12  1  0
 14 13  1  1
 14 16  1  0
 14 15  1  0
 17 18  1  0
 17 16  1  6
 19 17  1  0
 19 26  1  0
 20 19  2  0
 21 22  1  0
 23 22  1  0
 23 24  1  6
 25 26  1  6
 25 23  1  0
 27 25  1  0
 28 27  2  0
 29 27  1  0
M  END
$$$$
