YLI.pdb
     RDKit          3D

 29 29  0  0  1  0  0  0  0  0999 V2000
   20.1519  -18.9477  -20.8001 O   0  0  0  0  0  0  0  0  0  0  0  0
   20.2645  -17.7713  -20.0432 C   0  0  0  0  0  0  0  0  0  0  0  0
   19.6701  -17.6296  -18.8085 C   0  0  0  0  0  0  0  0  0  0  0  0
   19.8098  -16.4447  -18.0951 C   0  0  0  0  0  0  0  0  0  0  0  0
   20.5349  -15.3794  -18.5816 C   0  0  0  0  0  0  0  0  0  0  0  0
   20.6901  -14.1109  -17.8262 C   0  0  0  0  0  0  0  0  0  0  0  0
   22.0832  -14.0870  -17.2037 C   0  0  2  0  0  0  0  0  0  0  0  0
   22.1228  -15.1445  -16.2124 N   0  0  0  0  0  0  0  0  0  0  0  0
   22.2868  -12.7955  -16.4998 C   0  0  0  0  0  0  0  0  0  0  0  0
   21.5754  -12.4718  -15.4949 O   0  0  0  0  0  0  0  0  0  0  0  0
   21.1320  -15.5223  -19.8226 C   0  0  0  0  0  0  0  0  0  0  0  0
   20.9917  -16.7103  -20.5371 C   0  0  0  0  0  0  0  0  0  0  0  0
   27.3836  -10.5533  -16.1493 C   0  0  0  0  0  0  0  0  0  0  0  0
   25.9683  -10.9958  -15.9434 C   0  0  1  0  0  0  0  0  0  0  0  0
   25.7090  -11.0776  -14.4275 C   0  0  0  0  0  0  0  0  0  0  0  0
   24.9140  -10.1240  -16.5083 C   0  0  0  0  0  0  0  0  0  0  0  0
   23.5055  -10.5827  -16.4024 C   0  0  2  0  0  0  0  0  0  0  0  0
   23.2966  -11.9089  -16.9620 N   0  0  0  0  0  0  0  0  0  0  0  0
   22.4734   -9.6130  -16.8057 C   0  0  0  0  0  0  0  0  0  0  0  0
   22.2856   -9.3277  -18.0131 O   0  0  0  0  0  0  0  0  0  0  0  0
   17.4015   -7.7034  -16.7848 C   0  0  0  0  0  0  0  0  0  0  0  0
   18.3464   -7.3003  -15.7017 C   0  0  0  0  0  0  0  0  0  0  0  0
   19.3993   -8.3466  -15.3969 C   0  0  2  0  0  0  0  0  0  0  0  0
   19.6393   -8.5007  -13.9292 C   0  0  0  0  0  0  0  0  0  0  0  0
   20.6657   -7.9868  -16.1565 C   0  0  2  0  0  0  0  0  0  0  0  0
   21.6705   -8.9833  -15.8297 N   0  0  0  0  0  0  0  0  0  0  0  0
   21.1811   -6.6603  -15.7371 C   0  0  0  0  0  0  0  0  0  0  0  0
   22.0989   -6.5879  -14.8753 O   0  0  0  0  0  0  0  0  0  0  0  0
   20.7147   -5.4548  -16.2377 O   0  0  0  0  0  0  0  0  0  0  0  0
  2 12  2  0
  2  1  1  0
  3  2  1  0
  4  3  2  0
  4  5  1  0
  5 11  2  0
  6  5  1  0
  7  6  1  0
  7  8  1  1
  9  7  1  0
  9 18  1  0
 10  9  2  0
 11 12  1  0
 14 13  1  1
 14 16  1  0
 14 15  1  0
 17 18  1  0
 17 16  1  6
 19 17  1  0
 19 26  1  0
 20 19  2  0
 21 22  1  0
 23 22  1  0
 23 24  1  1
 25 26  1  1
 25 23  1  0
 27 25  1  0
 28 27  2  0
 29 27  1  0
M  END
$$$$
