YLI.pdb
     RDKit          3D

 29 29  0  0  1  0  0  0  0  0999 V2000
   31.0344  -16.5044  -19.2381 O   0  0  0  0  0  0  0  0  0  0  0  0
   30.0488  -17.1887  -18.5102 C   0  0  0  0  0  0  0  0  0  0  0  0
   28.8790  -17.6304  -19.0884 C   0  0  0  0  0  0  0  0  0  0  0  0
   27.9313  -18.3044  -18.3267 C   0  0  0  0  0  0  0  0  0  0  0  0
   28.1161  -18.5560  -16.9851 C   0  0  0  0  0  0  0  0  0  0  0  0
   27.1101  -19.2757  -16.1643 C   0  0  0  0  0  0  0  0  0  0  0  0
   27.7981  -20.4541  -15.4811 C   0  0  2  0  0  0  0  0  0  0  0  0
   28.0986  -21.4265  -16.5139 N   0  0  0  0  0  0  0  0  0  0  0  0
   26.8575  -21.0856  -14.5212 C   0  0  0  0  0  0  0  0  0  0  0  0
   25.8715  -21.7826  -14.9244 O   0  0  0  0  0  0  0  0  0  0  0  0
   29.2919  -18.1117  -16.4044 C   0  0  0  0  0  0  0  0  0  0  0  0
   30.2413  -17.4362  -17.1685 C   0  0  0  0  0  0  0  0  0  0  0  0
   24.7124  -21.8315   -9.3968 C   0  0  0  0  0  0  0  0  0  0  0  0
   25.4165  -20.5479   -9.7100 C   0  0  1  0  0  0  0  0  0  0  0  0
   26.1338  -20.0723   -8.4328 C   0  0  0  0  0  0  0  0  0  0  0  0
   26.4397  -20.5985  -10.7782 C   0  0  0  0  0  0  0  0  0  0  0  0
   25.9926  -20.9525  -12.1494 C   0  0  2  0  0  0  0  0  0  0  0  0
   27.0681  -20.9042  -13.1277 N   0  0  0  0  0  0  0  0  0  0  0  0
   24.7535  -20.3083  -12.6164 C   0  0  0  0  0  0  0  0  0  0  0  0
   24.7055  -19.0738  -12.8361 O   0  0  0  0  0  0  0  0  0  0  0  0
   20.5162  -20.5953  -16.6280 C   0  0  0  0  0  0  0  0  0  0  0  0
   20.8103  -20.3148  -15.1916 C   0  0  0  0  0  0  0  0  0  0  0  0
   22.1539  -20.8457  -14.7342 C   0  0  2  0  0  0  0  0  0  0  0  0
   22.3068  -22.3092  -14.9992 C   0  0  0  0  0  0  0  0  0  0  0  0
   22.3294  -20.5015  -13.2642 C   0  0  2  0  0  0  0  0  0  0  0  0
   23.5887  -21.0780  -12.8268 N   0  0  0  0  0  0  0  0  0  0  0  0
   21.2440  -21.0935  -12.4440 C   0  0  0  0  0  0  0  0  0  0  0  0
   20.1077  -20.5473  -12.4186 O   0  0  0  0  0  0  0  0  0  0  0  0
   21.3896  -22.2398  -11.6784 O   0  0  0  0  0  0  0  0  0  0  0  0
  2 12  2  0
  2  1  1  0
  3  2  1  0
  4  3  2  0
  4  5  1  0
  5 11  2  0
  6  5  1  0
  7  6  1  0
  7  8  1  6
  9  7  1  0
  9 18  1  0
 10  9  2  0
 11 12  1  0
 14 13  1  1
 14 16  1  0
 14 15  1  0
 17 18  1  0
 17 16  1  1
 19 17  1  0
 19 26  1  0
 20 19  2  0
 21 22  1  0
 23 22  1  0
 23 24  1  1
 25 26  1  1
 25 23  1  0
 27 25  1  0
 28 27  2  0
 29 27  1  0
M  END
$$$$
