YLI.pdb
     RDKit          3D

 29 29  0  0  1  0  0  0  0  0999 V2000
   21.3173  -18.2064  -16.0040 O   0  0  0  0  0  0  0  0  0  0  0  0
   22.0194  -18.6680  -14.8800 C   0  0  0  0  0  0  0  0  0  0  0  0
   23.3325  -18.3272  -14.6401 C   0  0  0  0  0  0  0  0  0  0  0  0
   23.9870  -18.8090  -13.5123 C   0  0  0  0  0  0  0  0  0  0  0  0
   23.3637  -19.6332  -12.6015 C   0  0  0  0  0  0  0  0  0  0  0  0
   24.0546  -20.1516  -11.3941 C   0  0  0  0  0  0  0  0  0  0  0  0
   25.1981  -21.0568  -11.8435 C   0  0  2  0  0  0  0  0  0  0  0  0
   24.6014  -22.2912  -12.3152 N   0  0  0  0  0  0  0  0  0  0  0  0
   26.0566  -21.3831  -10.6766 C   0  0  0  0  0  0  0  0  0  0  0  0
   25.6040  -22.0462   -9.6887 O   0  0  0  0  0  0  0  0  0  0  0  0
   22.0441  -19.9756  -12.8432 C   0  0  0  0  0  0  0  0  0  0  0  0
   21.3886  -19.4921  -13.9738 C   0  0  0  0  0  0  0  0  0  0  0  0
   30.6597  -22.8765   -8.3079 C   0  0  0  0  0  0  0  0  0  0  0  0
   30.7022  -21.4755   -8.8340 C   0  0  1  0  0  0  0  0  0  0  0  0
   32.1012  -21.2311   -9.4299 C   0  0  0  0  0  0  0  0  0  0  0  0
   29.7246  -21.1364   -9.8923 C   0  0  0  0  0  0  0  0  0  0  0  0
   28.2871  -21.0993   -9.5211 C   0  0  2  0  0  0  0  0  0  0  0  0
   27.4079  -20.9436  -10.6694 N   0  0  0  0  0  0  0  0  0  0  0  0
   27.9290  -20.2238   -8.3925 C   0  0  0  0  0  0  0  0  0  0  0  0
   27.4522  -19.0790   -8.5835 O   0  0  0  0  0  0  0  0  0  0  0  0
   28.3156  -19.4750   -2.6877 C   0  0  0  0  0  0  0  0  0  0  0  0
   27.1687  -19.9015   -3.5429 C   0  0  0  0  0  0  0  0  0  0  0  0
   27.5810  -20.7500   -4.7288 C   0  0  2  0  0  0  0  0  0  0  0  0
   28.7510  -21.6282   -4.4198 C   0  0  0  0  0  0  0  0  0  0  0  0
   27.8438  -19.8285   -5.9086 C   0  0  2  0  0  0  0  0  0  0  0  0
   28.1182  -20.6641   -7.0644 N   0  0  0  0  0  0  0  0  0  0  0  0
   29.0335  -18.9761   -5.6656 C   0  0  0  0  0  0  0  0  0  0  0  0
   30.1838  -19.4094   -5.9471 O   0  0  0  0  0  0  0  0  0  0  0  0
   28.9740  -17.6969   -5.1350 O   0  0  0  0  0  0  0  0  0  0  0  0
  2 12  2  0
  2  1  1  0
  3  2  1  0
  4  3  2  0
  4  5  1  0
  5 11  2  0
  6  5  1  0
  7  6  1  0
  7  8  1  1
  9  7  1  0
  9 18  1  0
 10  9  2  0
 11 12  1  0
 14 13  1  6
 14 16  1  0
 14 15  1  0
 17 18  1  0
 17 16  1  6
 19 17  1  0
 19 26  1  0
 20 19  2  0
 21 22  1  0
 23 22  1  0
 23 24  1  1
 25 26  1  6
 25 23  1  0
 27 25  1  0
 28 27  2  0
 29 27  1  0
M  END
$$$$
