YLI.pdb
     RDKit          3D

 29 29  0  0  1  0  0  0  0  0999 V2000
   25.1538  -21.2662   -7.7800 O   0  0  0  0  0  0  0  0  0  0  0  0
   25.0047  -20.9268   -9.1335 C   0  0  0  0  0  0  0  0  0  0  0  0
   23.7971  -21.0259   -9.7894 C   0  0  0  0  0  0  0  0  0  0  0  0
   23.6978  -20.6778  -11.1316 C   0  0  0  0  0  0  0  0  0  0  0  0
   24.7817  -20.2269  -11.8522 C   0  0  0  0  0  0  0  0  0  0  0  0
   24.6845  -19.8523  -13.2854 C   0  0  0  0  0  0  0  0  0  0  0  0
   24.5110  -21.1266  -14.1068 C   0  0  2  0  0  0  0  0  0  0  0  0
   25.7784  -21.8301  -14.0709 N   0  0  0  0  0  0  0  0  0  0  0  0
   24.2293  -20.7680  -15.5200 C   0  0  0  0  0  0  0  0  0  0  0  0
   25.0178  -20.0181  -16.1807 O   0  0  0  0  0  0  0  0  0  0  0  0
   25.9950  -20.1277  -11.1926 C   0  0  0  0  0  0  0  0  0  0  0  0
   26.0938  -20.4766   -9.8472 C   0  0  0  0  0  0  0  0  0  0  0  0
   23.6917  -21.0379  -20.5571 C   0  0  0  0  0  0  0  0  0  0  0  0
   22.5964  -21.8039  -19.8827 C   0  0  1  0  0  0  0  0  0  0  0  0
   22.4705  -23.1715  -20.5797 C   0  0  0  0  0  0  0  0  0  0  0  0
   22.7728  -22.0775  -18.4389 C   0  0  0  0  0  0  0  0  0  0  0  0
   22.6647  -20.9329  -17.4988 C   0  0  2  0  0  0  0  0  0  0  0  0
   23.0556  -21.2750  -16.1402 N   0  0  0  0  0  0  0  0  0  0  0  0
   21.4180  -20.1520  -17.5651 C   0  0  0  0  0  0  0  0  0  0  0  0
   21.4350  -18.9180  -17.7918 O   0  0  0  0  0  0  0  0  0  0  0  0
   16.2025  -19.7255  -19.6576 C   0  0  0  0  0  0  0  0  0  0  0  0
   16.6082  -20.2180  -18.3080 C   0  0  0  0  0  0  0  0  0  0  0  0
   17.9604  -20.9020  -18.2948 C   0  0  2  0  0  0  0  0  0  0  0  0
   17.8733  -22.3241  -17.8415 C   0  0  0  0  0  0  0  0  0  0  0  0
   18.9057  -20.0771  -17.4368 C   0  0  2  0  0  0  0  0  0  0  0  0
   20.1714  -20.7867  -17.3734 N   0  0  0  0  0  0  0  0  0  0  0  0
   18.3875  -19.9382  -16.0536 C   0  0  0  0  0  0  0  0  0  0  0  0
   17.3840  -19.2080  -15.8299 O   0  0  0  0  0  0  0  0  0  0  0  0
   18.9415  -20.5716  -14.9521 O   0  0  0  0  0  0  0  0  0  0  0  0
  2 12  2  0
  2  1  1  0
  3  2  1  0
  4  3  2  0
  4  5  1  0
  5 11  2  0
  6  5  1  0
  7  6  1  0
  7  8  1  6
  9  7  1  0
  9 18  1  0
 10  9  2  0
 11 12  1  0
 14 13  1  6
 14 16  1  0
 14 15  1  0
 17 18  1  0
 17 16  1  6
 19 17  1  0
 19 26  1  0
 20 19  2  0
 21 22  1  0
 23 22  1  0
 23 24  1  1
 25 26  1  1
 25 23  1  0
 27 25  1  0
 28 27  2  0
 29 27  1  0
M  END
$$$$
