YLI.pdb
     RDKit          3D

 29 29  0  0  1  0  0  0  0  0999 V2000
   17.2639  -15.8980  -22.4229 O   0  0  0  0  0  0  0  0  0  0  0  0
   17.4715  -14.9259  -21.4323 C   0  0  0  0  0  0  0  0  0  0  0  0
   18.5331  -14.0486  -21.4716 C   0  0  0  0  0  0  0  0  0  0  0  0
   18.6977  -13.1018  -20.4670 C   0  0  0  0  0  0  0  0  0  0  0  0
   17.8234  -13.0005  -19.4075 C   0  0  0  0  0  0  0  0  0  0  0  0
   17.9909  -11.9920  -18.3310 C   0  0  0  0  0  0  0  0  0  0  0  0
   19.2162  -12.3688  -17.5030 C   0  0  2  0  0  0  0  0  0  0  0  0
   18.8547  -13.5315  -16.7158 N   0  0  0  0  0  0  0  0  0  0  0  0
   19.5352  -11.2641  -16.5634 C   0  0  0  0  0  0  0  0  0  0  0  0
   18.8545  -11.0817  -15.5032 O   0  0  0  0  0  0  0  0  0  0  0  0
   16.7568  -13.8824  -19.3684 C   0  0  0  0  0  0  0  0  0  0  0  0
   16.5923  -14.8311  -20.3757 C   0  0  0  0  0  0  0  0  0  0  0  0
   24.4616  -10.2498  -14.6845 C   0  0  0  0  0  0  0  0  0  0  0  0
   22.9735  -10.2389  -14.8483 C   0  0  1  0  0  0  0  0  0  0  0  0
   22.3408  -10.0578  -13.4559 C   0  0  0  0  0  0  0  0  0  0  0  0
   22.4110   -9.1767  -15.7120 C   0  0  0  0  0  0  0  0  0  0  0  0
   20.9645   -9.2453  -16.0412 C   0  0  2  0  0  0  0  0  0  0  0  0
   20.6223  -10.3981  -16.8595 N   0  0  0  0  0  0  0  0  0  0  0  0
   20.3441   -7.9951  -16.5108 C   0  0  0  0  0  0  0  0  0  0  0  0
   20.6888   -7.4655  -17.5949 O   0  0  0  0  0  0  0  0  0  0  0  0
   15.9530   -4.8626  -17.4516 C   0  0  0  0  0  0  0  0  0  0  0  0
   16.5996   -4.8673  -16.1060 C   0  0  0  0  0  0  0  0  0  0  0  0
   17.2526   -6.1885  -15.7532 C   0  0  2  0  0  0  0  0  0  0  0  0
   17.0431   -6.5612  -14.3204 C   0  0  0  0  0  0  0  0  0  0  0  0
   18.7250   -6.1081  -16.1217 C   0  0  2  0  0  0  0  0  0  0  0  0
   19.3411   -7.3670  -15.7407 N   0  0  0  0  0  0  0  0  0  0  0  0
   19.4036   -5.0204  -15.3750 C   0  0  0  0  0  0  0  0  0  0  0  0
   19.2566   -3.8224  -15.7400 O   0  0  0  0  0  0  0  0  0  0  0  0
   20.2139   -5.2287  -14.2698 O   0  0  0  0  0  0  0  0  0  0  0  0
  2 12  2  0
  2  1  1  0
  3  2  1  0
  4  3  2  0
  4  5  1  0
  5 11  2  0
  6  5  1  0
  7  6  1  0
  7  8  1  1
  9  7  1  0
  9 18  1  0
 10  9  2  0
 11 12  1  0
 14 13  1  1
 14 16  1  0
 14 15  1  0
 17 18  1  0
 17 16  1  6
 19 17  1  0
 19 26  1  0
 20 19  2  0
 21 22  1  0
 23 22  1  0
 23 24  1  1
 25 26  1  1
 25 23  1  0
 27 25  1  0
 28 27  2  0
 29 27  1  0
M  END
$$$$
