YLI.pdb
     RDKit          3D

 29 29  0  0  1  0  0  0  0  0999 V2000
   28.6986  -31.4332  -17.7844 O   0  0  0  0  0  0  0  0  0  0  0  0
   27.9927  -30.2441  -17.5457 C   0  0  0  0  0  0  0  0  0  0  0  0
   27.0781  -29.7372  -18.4428 C   0  0  0  0  0  0  0  0  0  0  0  0
   26.4025  -28.5550  -18.1626 C   0  0  0  0  0  0  0  0  0  0  0  0
   26.6133  -27.8508  -16.9977 C   0  0  0  0  0  0  0  0  0  0  0  0
   25.8957  -26.5882  -16.6900 C   0  0  0  0  0  0  0  0  0  0  0  0
   26.6253  -25.4381  -17.3784 C   0  0  2  0  0  0  0  0  0  0  0  0
   27.8442  -25.2008  -16.6298 N   0  0  0  0  0  0  0  0  0  0  0  0
   25.7955  -24.2094  -17.2983 C   0  0  0  0  0  0  0  0  0  0  0  0
   25.8358  -23.4507  -16.2769 O   0  0  0  0  0  0  0  0  0  0  0  0
   27.5327  -28.3606  -16.0966 C   0  0  0  0  0  0  0  0  0  0  0  0
   28.2094  -29.5457  -16.3780 C   0  0  0  0  0  0  0  0  0  0  0  0
   24.3654  -19.4169  -20.5122 C   0  0  0  0  0  0  0  0  0  0  0  0
   23.8345  -20.4178  -19.5335 C   0  0  1  0  0  0  0  0  0  0  0  0
   22.3758  -20.7319  -19.9150 C   0  0  0  0  0  0  0  0  0  0  0  0
   24.5440  -21.7149  -19.4635 C   0  0  0  0  0  0  0  0  0  0  0  0
   24.1218  -22.6796  -18.4164 C   0  0  2  0  0  0  0  0  0  0  0  0
   24.9425  -23.8802  -18.3862 N   0  0  0  0  0  0  0  0  0  0  0  0
   22.6786  -22.9605  -18.3344 C   0  0  0  0  0  0  0  0  0  0  0  0
   22.1009  -23.6551  -19.2051 O   0  0  0  0  0  0  0  0  0  0  0  0
   20.4727  -23.4974  -13.3633 C   0  0  0  0  0  0  0  0  0  0  0  0
   20.6859  -22.7725  -14.6507 C   0  0  0  0  0  0  0  0  0  0  0  0
   20.3322  -23.5943  -15.8737 C   0  0  2  0  0  0  0  0  0  0  0  0
   21.1310  -24.8551  -15.9616 C   0  0  0  0  0  0  0  0  0  0  0  0
   20.4968  -22.7171  -17.1040 C   0  0  2  0  0  0  0  0  0  0  0  0
   21.9151  -22.4477  -17.2631 N   0  0  0  0  0  0  0  0  0  0  0  0
   19.7995  -21.4190  -16.9312 C   0  0  0  0  0  0  0  0  0  0  0  0
   18.5404  -21.3717  -16.9808 O   0  0  0  0  0  0  0  0  0  0  0  0
   20.4493  -20.2143  -16.7121 O   0  0  0  0  0  0  0  0  0  0  0  0
  2 12  2  0
  2  1  1  0
  3  2  1  0
  4  3  2  0
  4  5  1  0
  5 11  2  0
  6  5  1  0
  7  6  1  0
  7  8  1  1
  9  7  1  0
  9 18  1  0
 10  9  2  0
 11 12  1  0
 14 13  1  6
 14 16  1  0
 14 15  1  0
 17 18  1  0
 17 16  1  6
 19 17  1  0
 19 26  1  0
 20 19  2  0
 21 22  1  0
 23 22  1  0
 23 24  1  6
 25 26  1  1
 25 23  1  0
 27 25  1  0
 28 27  2  0
 29 27  1  0
M  END
$$$$
