YLI.pdb
     RDKit          3D

 29 29  0  0  1  0  0  0  0  0999 V2000
   19.0075  -18.5249  -15.1234 O   0  0  0  0  0  0  0  0  0  0  0  0
   19.9542  -19.0107  -14.2085 C   0  0  0  0  0  0  0  0  0  0  0  0
   21.1685  -18.3922  -14.0061 C   0  0  0  0  0  0  0  0  0  0  0  0
   22.0749  -18.9106  -13.0883 C   0  0  0  0  0  0  0  0  0  0  0  0
   21.8046  -20.0443  -12.3542 C   0  0  0  0  0  0  0  0  0  0  0  0
   22.7662  -20.6042  -11.3714 C   0  0  0  0  0  0  0  0  0  0  0  0
   24.0358  -21.0091  -12.1151 C   0  0  2  0  0  0  0  0  0  0  0  0
   23.7101  -22.1825  -12.9022 N   0  0  0  0  0  0  0  0  0  0  0  0
   25.0806  -21.3953  -11.1331 C   0  0  0  0  0  0  0  0  0  0  0  0
   24.9529  -22.4329  -10.4068 O   0  0  0  0  0  0  0  0  0  0  0  0
   20.5841  -20.6655  -12.5581 C   0  0  0  0  0  0  0  0  0  0  0  0
   19.6761  -20.1454  -13.4781 C   0  0  0  0  0  0  0  0  0  0  0  0
   29.7736  -22.7260   -9.5098 C   0  0  0  0  0  0  0  0  0  0  0  0
   29.7837  -21.2573   -9.8000 C   0  0  1  0  0  0  0  0  0  0  0  0
   31.0699  -20.9338  -10.5830 C   0  0  0  0  0  0  0  0  0  0  0  0
   28.6552  -20.7338  -10.6018 C   0  0  0  0  0  0  0  0  0  0  0  0
   27.2888  -20.8472  -10.0311 C   0  0  2  0  0  0  0  0  0  0  0  0
   26.2422  -20.5866  -11.0071 N   0  0  0  0  0  0  0  0  0  0  0  0
   27.0634  -20.1698   -8.7432 C   0  0  0  0  0  0  0  0  0  0  0  0
   26.4898  -19.0553   -8.6863 O   0  0  0  0  0  0  0  0  0  0  0  0
   28.6158  -21.1117   -2.7703 C   0  0  0  0  0  0  0  0  0  0  0  0
   27.8718  -20.4010   -3.8519 C   0  0  0  0  0  0  0  0  0  0  0  0
   28.0794  -21.0044   -5.2264 C   0  0  2  0  0  0  0  0  0  0  0  0
   29.5251  -21.2239   -5.5381 C   0  0  0  0  0  0  0  0  0  0  0  0
   27.3949  -20.1123   -6.2491 C   0  0  2  0  0  0  0  0  0  0  0  0
   27.4933  -20.7707   -7.5400 N   0  0  0  0  0  0  0  0  0  0  0  0
   28.0751  -18.7978   -6.3512 C   0  0  0  0  0  0  0  0  0  0  0  0
   28.9695  -18.6202   -7.2222 O   0  0  0  0  0  0  0  0  0  0  0  0
   27.7922  -17.7142   -5.5344 O   0  0  0  0  0  0  0  0  0  0  0  0
  2 12  2  0
  2  1  1  0
  3  2  1  0
  4  3  2  0
  4  5  1  0
  5 11  2  0
  6  5  1  0
  7  6  1  0
  7  8  1  6
  9  7  1  0
  9 18  1  0
 10  9  2  0
 11 12  1  0
 14 13  1  6
 14 16  1  0
 14 15  1  0
 17 18  1  0
 17 16  1  6
 19 17  1  0
 19 26  1  0
 20 19  2  0
 21 22  1  0
 23 22  1  0
 23 24  1  6
 25 26  1  6
 25 23  1  0
 27 25  1  0
 28 27  2  0
 29 27  1  0
M  END
$$$$
