YLI.pdb
     RDKit          3D

 29 29  0  0  1  0  0  0  0  0999 V2000
   23.3294  -17.8509  -16.7609 O   0  0  0  0  0  0  0  0  0  0  0  0
   23.6788  -18.4691  -15.5505 C   0  0  0  0  0  0  0  0  0  0  0  0
   24.9347  -18.3489  -14.9971 C   0  0  0  0  0  0  0  0  0  0  0  0
   25.2345  -18.9798  -13.7951 C   0  0  0  0  0  0  0  0  0  0  0  0
   24.3068  -19.7391  -13.1167 C   0  0  0  0  0  0  0  0  0  0  0  0
   24.6180  -20.4155  -11.8323 C   0  0  0  0  0  0  0  0  0  0  0  0
   26.1332  -20.4352  -11.6518 C   0  0  2  0  0  0  0  0  0  0  0  0
   26.6537  -21.4496  -12.5475 N   0  0  0  0  0  0  0  0  0  0  0  0
   26.4590  -20.8445  -10.2621 C   0  0  0  0  0  0  0  0  0  0  0  0
   26.4849  -22.0715   -9.9240 O   0  0  0  0  0  0  0  0  0  0  0  0
   23.0449  -19.8597  -13.6734 C   0  0  0  0  0  0  0  0  0  0  0  0
   22.7450  -19.2269  -14.8781 C   0  0  0  0  0  0  0  0  0  0  0  0
   27.6765  -18.7604   -4.7952 C   0  0  0  0  0  0  0  0  0  0  0  0
   28.4548  -19.3621   -5.9237 C   0  0  1  0  0  0  0  0  0  0  0  0
   28.4651  -20.8907   -5.7355 C   0  0  0  0  0  0  0  0  0  0  0  0
   27.9450  -19.1057   -7.2894 C   0  0  0  0  0  0  0  0  0  0  0  0
   27.0892  -20.1452   -7.9158 C   0  0  2  0  0  0  0  0  0  0  0  0
   26.7463  -19.8423   -9.2966 N   0  0  0  0  0  0  0  0  0  0  0  0
   25.9397  -20.6078   -7.1201 C   0  0  0  0  0  0  0  0  0  0  0  0
   26.0100  -20.7038   -5.8710 O   0  0  0  0  0  0  0  0  0  0  0  0
   19.9762  -19.9662   -8.5059 C   0  0  0  0  0  0  0  0  0  0  0  0
   21.0585  -20.3318   -7.5449 C   0  0  0  0  0  0  0  0  0  0  0  0
   22.4106  -20.5249   -8.2012 C   0  0  2  0  0  0  0  0  0  0  0  0
   22.3828  -21.5802   -9.2600 C   0  0  0  0  0  0  0  0  0  0  0  0
   23.4320  -20.8205   -7.1151 C   0  0  2  0  0  0  0  0  0  0  0  0
   24.7280  -20.9534   -7.7572 N   0  0  0  0  0  0  0  0  0  0  0  0
   23.1265  -22.0997   -6.4287 C   0  0  0  0  0  0  0  0  0  0  0  0
   22.0592  -22.2176   -5.7675 O   0  0  0  0  0  0  0  0  0  0  0  0
   23.9530  -23.2121   -6.4605 O   0  0  0  0  0  0  0  0  0  0  0  0
  2 12  2  0
  2  1  1  0
  3  2  1  0
  4  3  2  0
  4  5  1  0
  5 11  2  0
  6  5  1  0
  7  6  1  0
  7  8  1  6
  9  7  1  0
  9 18  1  0
 10  9  2  0
 11 12  1  0
 14 13  1  1
 14 16  1  0
 14 15  1  0
 17 18  1  0
 17 16  1  1
 19 17  1  0
 19 26  1  0
 20 19  2  0
 21 22  1  0
 23 22  1  0
 23 24  1  6
 25 26  1  6
 25 23  1  0
 27 25  1  0
 28 27  2  0
 29 27  1  0
M  END
$$$$
