YLI.pdb
     RDKit          3D

 29 29  0  0  1  0  0  0  0  0999 V2000
   24.7511  -15.0224  -20.9599 O   0  0  0  0  0  0  0  0  0  0  0  0
   24.8412  -15.8165  -19.8064 C   0  0  0  0  0  0  0  0  0  0  0  0
   25.8383  -15.6469  -18.8709 C   0  0  0  0  0  0  0  0  0  0  0  0
   25.8867  -16.4581  -17.7430 C   0  0  0  0  0  0  0  0  0  0  0  0
   24.9575  -17.4489  -17.5146 C   0  0  0  0  0  0  0  0  0  0  0  0
   25.0010  -18.3190  -16.3125 C   0  0  0  0  0  0  0  0  0  0  0  0
   26.2962  -19.1252  -16.3467 C   0  0  2  0  0  0  0  0  0  0  0  0
   26.1875  -20.0555  -17.4536 N   0  0  0  0  0  0  0  0  0  0  0  0
   26.4172  -19.9174  -15.0966 C   0  0  0  0  0  0  0  0  0  0  0  0
   25.7250  -20.9697  -14.9120 O   0  0  0  0  0  0  0  0  0  0  0  0
   23.9557  -17.6190  -18.4551 C   0  0  0  0  0  0  0  0  0  0  0  0
   23.9078  -16.8055  -19.5854 C   0  0  0  0  0  0  0  0  0  0  0  0
   31.2277  -20.3414  -12.3123 C   0  0  0  0  0  0  0  0  0  0  0  0
   29.8622  -20.6016  -12.8681 C   0  0  1  0  0  0  0  0  0  0  0  0
   29.6243  -22.1232  -12.8585 C   0  0  0  0  0  0  0  0  0  0  0  0
   28.7257  -19.9894  -12.1440 C   0  0  0  0  0  0  0  0  0  0  0  0
   27.3795  -20.0798  -12.7645 C   0  0  2  0  0  0  0  0  0  0  0  0
   27.3250  -19.4869  -14.0917 N   0  0  0  0  0  0  0  0  0  0  0  0
   26.2424  -19.6975  -11.9105 C   0  0  0  0  0  0  0  0  0  0  0  0
   26.0301  -18.4982  -11.6090 O   0  0  0  0  0  0  0  0  0  0  0  0
   21.5460  -22.3542  -12.3397 C   0  0  0  0  0  0  0  0  0  0  0  0
   22.8412  -22.0237  -11.6752 C   0  0  0  0  0  0  0  0  0  0  0  0
   22.9721  -20.5619  -11.2979 C   0  0  2  0  0  0  0  0  0  0  0  0
   22.8965  -19.6591  -12.4874 C   0  0  0  0  0  0  0  0  0  0  0  0
   24.2630  -20.3831  -10.5158 C   0  0  2  0  0  0  0  0  0  0  0  0
   25.3642  -20.6850  -11.4134 N   0  0  0  0  0  0  0  0  0  0  0  0
   24.3300  -21.3270   -9.3732 C   0  0  0  0  0  0  0  0  0  0  0  0
   25.2380  -22.2012   -9.3341 O   0  0  0  0  0  0  0  0  0  0  0  0
   23.4405  -21.3202   -8.3101 O   0  0  0  0  0  0  0  0  0  0  0  0
  2 12  2  0
  2  1  1  0
  3  2  1  0
  4  3  2  0
  4  5  1  0
  5 11  2  0
  6  5  1  0
  7  6  1  0
  7  8  1  6
  9  7  1  0
  9 18  1  0
 10  9  2  0
 11 12  1  0
 14 13  1  1
 14 16  1  0
 14 15  1  0
 17 18  1  0
 17 16  1  1
 19 17  1  0
 19 26  1  0
 20 19  2  0
 21 22  1  0
 23 22  1  0
 23 24  1  6
 25 26  1  6
 25 23  1  0
 27 25  1  0
 28 27  2  0
 29 27  1  0
M  END
$$$$
