AIY.pdb
     RDKit          3D

 26 26  0  0  1  0  0  0  0  0999 V2000
    6.3533  -18.9660   25.6040 C   0  0  0  0  0  0  0  0  0  0  0  0
    5.6199  -17.9196   24.7908 C   0  0  2  0  0  0  0  0  0  0  0  0
    5.1074  -18.5513   23.5888 N   0  0  0  0  0  0  0  0  0  0  0  0
    6.4997  -16.7722   24.4677 C   0  0  0  0  0  0  0  0  0  0  0  0
    7.1608  -16.8247   23.4024 O   0  0  0  0  0  0  0  0  0  0  0  0
    5.4079  -11.7790   26.3850 C   0  0  0  0  0  0  0  0  0  0  0  0
    5.8938  -12.8239   25.4293 C   0  0  0  0  0  0  0  0  0  0  0  0
    7.2896  -13.3357   25.7717 C   0  0  2  0  0  0  0  0  0  0  0  0
    8.2550  -12.2281   25.5171 C   0  0  0  0  0  0  0  0  0  0  0  0
    7.6138  -14.5628   24.9452 C   0  0  2  0  0  0  0  0  0  0  0  0
    6.6413  -15.6212   25.2846 N   0  0  0  0  0  0  0  0  0  0  0  0
    8.9806  -15.0582   25.2240 C   0  0  0  0  0  0  0  0  0  0  0  0
    9.3269  -15.2131   26.4386 O   0  0  0  0  0  0  0  0  0  0  0  0
    9.7379  -18.8899   30.3046 O   0  0  0  0  0  0  0  0  0  0  0  0
    9.9953  -18.5526   28.9770 C   0  0  0  0  0  0  0  0  0  0  0  0
   11.1428  -17.8877   28.5989 C   0  0  0  0  0  0  0  0  0  0  0  0
   11.3913  -17.5557   27.2763 C   0  0  0  0  0  0  0  0  0  0  0  0
   10.4952  -17.8785   26.2740 C   0  0  0  0  0  0  0  0  0  0  0  0
   10.7244  -17.5403   24.8616 C   0  0  0  0  0  0  0  0  0  0  0  0
   11.1671  -16.1394   24.6038 C   0  0  2  0  0  0  0  0  0  0  0  0
    9.9493  -15.3836   24.2719 N   0  0  0  0  0  0  0  0  0  0  0  0
   12.1770  -15.9998   23.5334 C   0  0  0  0  0  0  0  0  0  0  0  0
   11.7874  -15.6618   22.2479 O   0  0  0  0  0  0  0  0  0  0  0  0
    9.3483  -18.5443   26.6607 C   0  0  0  0  0  0  0  0  0  0  0  0
    9.0994  -18.8758   27.9789 C   0  0  0  0  0  0  0  0  0  0  0  0
   13.4201  -16.1765   23.7258 O   0  0  0  0  0  0  0  0  0  0  0  0
  2  1  1  6
  2  3  1  0
  4  2  1  0
  5  4  2  0
  6  7  1  0
  7  8  1  0
  8  9  1  6
 10  8  1  0
 10 11  1  1
 11  4  1  0
 12 10  1  0
 12 13  2  0
 15 14  1  0
 16 15  2  0
 17 16  1  0
 18 24  1  0
 18 17  2  0
 19 18  1  0
 20 19  1  6
 20 22  1  0
 20 21  1  0
 21 12  1  0
 22 23  1  0
 24 25  2  0
 25 15  1  0
 26 22  2  0
M  END
$$$$
