AIY.pdb
     RDKit          3D

 26 26  0  0  1  0  0  0  0  0999 V2000
   10.7073  -17.7251   15.6581 C   0  0  0  0  0  0  0  0  0  0  0  0
   10.1357  -16.3394   15.4407 C   0  0  2  0  0  0  0  0  0  0  0  0
   10.7372  -15.7793   14.2446 N   0  0  0  0  0  0  0  0  0  0  0  0
   10.3618  -15.4708   16.6195 C   0  0  0  0  0  0  0  0  0  0  0  0
   11.4593  -14.8676   16.6988 O   0  0  0  0  0  0  0  0  0  0  0  0
    6.4057  -12.7347   19.2169 C   0  0  0  0  0  0  0  0  0  0  0  0
    7.7435  -13.1158   18.6633 C   0  0  0  0  0  0  0  0  0  0  0  0
    8.5016  -14.0866   19.5636 C   0  0  2  0  0  0  0  0  0  0  0  0
    8.7767  -13.3902   20.8532 C   0  0  0  0  0  0  0  0  0  0  0  0
    9.7792  -14.5381   18.8869 C   0  0  2  0  0  0  0  0  0  0  0  0
    9.4183  -15.2786   17.6611 N   0  0  0  0  0  0  0  0  0  0  0  0
   10.5747  -15.4235   19.7669 C   0  0  0  0  0  0  0  0  0  0  0  0
   10.2363  -16.6472   19.8515 O   0  0  0  0  0  0  0  0  0  0  0  0
   16.3801  -15.1801   16.2439 O   0  0  0  0  0  0  0  0  0  0  0  0
   15.7662  -15.2765   17.4913 C   0  0  0  0  0  0  0  0  0  0  0  0
   15.5951  -16.4854   18.1325 C   0  0  0  0  0  0  0  0  0  0  0  0
   14.9834  -16.5729   19.3733 C   0  0  0  0  0  0  0  0  0  0  0  0
   14.5160  -15.4465   20.0248 C   0  0  0  0  0  0  0  0  0  0  0  0
   13.8601  -15.5016   21.3396 C   0  0  0  0  0  0  0  0  0  0  0  0
   12.4567  -16.0068   21.3328 C   0  0  2  0  0  0  0  0  0  0  0  0
   11.6841  -15.0479   20.5279 N   0  0  0  0  0  0  0  0  0  0  0  0
   11.8542  -16.1693   22.6729 C   0  0  0  0  0  0  0  0  0  0  0  0
   12.3369  -17.1343   23.5414 O   0  0  0  0  0  0  0  0  0  0  0  0
   14.6909  -14.2395   19.3761 C   0  0  0  0  0  0  0  0  0  0  0  0
   15.3006  -14.1510   18.1392 C   0  0  0  0  0  0  0  0  0  0  0  0
   10.8899  -15.4558   23.0907 O   0  0  0  0  0  0  0  0  0  0  0  0
  2  1  1  1
  2  3  1  0
  4  2  1  0
  5  4  2  0
  6  7  1  0
  7  8  1  0
  8  9  1  1
 10  8  1  0
 10 11  1  6
 11  4  1  0
 12 10  1  0
 12 13  2  0
 15 14  1  0
 16 15  2  0
 17 16  1  0
 18 24  1  0
 18 17  2  0
 19 18  1  0
 20 19  1  1
 20 22  1  0
 20 21  1  0
 21 12  1  0
 22 23  1  0
 24 25  2  0
 25 15  1  0
 26 22  2  0
M  END
$$$$
