AIY.pdb
     RDKit          3D

 26 26  0  0  1  0  0  0  0  0999 V2000
    5.6132  -18.9462   22.3586 C   0  0  0  0  0  0  0  0  0  0  0  0
    5.8719  -18.2854   21.0206 C   0  0  2  0  0  0  0  0  0  0  0  0
    6.0380  -19.3251   20.0217 N   0  0  0  0  0  0  0  0  0  0  0  0
    7.0542  -17.3943   21.0779 C   0  0  0  0  0  0  0  0  0  0  0  0
    8.1827  -17.9076   20.8838 O   0  0  0  0  0  0  0  0  0  0  0  0
    7.5024  -12.5031   18.9041 C   0  0  0  0  0  0  0  0  0  0  0  0
    7.7884  -13.8512   19.4892 C   0  0  0  0  0  0  0  0  0  0  0  0
    7.9774  -13.8114   21.0025 C   0  0  2  0  0  0  0  0  0  0  0  0
    9.1229  -12.9022   21.2938 C   0  0  0  0  0  0  0  0  0  0  0  0
    8.2207  -15.2080   21.5358 C   0  0  2  0  0  0  0  0  0  0  0  0
    6.9908  -16.0012   21.3375 N   0  0  0  0  0  0  0  0  0  0  0  0
    8.5519  -15.1869   22.9784 C   0  0  0  0  0  0  0  0  0  0  0  0
    7.8870  -14.4102   23.7359 O   0  0  0  0  0  0  0  0  0  0  0  0
    5.7357  -11.2617   27.1467 O   0  0  0  0  0  0  0  0  0  0  0  0
    6.4138  -12.4277   26.7959 C   0  0  0  0  0  0  0  0  0  0  0  0
    7.7905  -12.4872   26.7427 C   0  0  0  0  0  0  0  0  0  0  0  0
    8.4573  -13.6509   26.3928 C   0  0  0  0  0  0  0  0  0  0  0  0
    7.7678  -14.8079   26.0807 C   0  0  0  0  0  0  0  0  0  0  0  0
    8.4413  -16.0591   25.7030 C   0  0  0  0  0  0  0  0  0  0  0  0
    9.7770  -15.8966   25.0593 C   0  0  2  0  0  0  0  0  0  0  0  0
    9.5375  -15.9499   23.6087 N   0  0  0  0  0  0  0  0  0  0  0  0
   10.7809  -16.9046   25.4608 C   0  0  0  0  0  0  0  0  0  0  0  0
   11.5905  -16.6811   26.5622 O   0  0  0  0  0  0  0  0  0  0  0  0
    6.3891  -14.7403   26.1362 C   0  0  0  0  0  0  0  0  0  0  0  0
    5.7232  -13.5808   26.4848 C   0  0  0  0  0  0  0  0  0  0  0  0
   10.9527  -17.9983   24.8380 O   0  0  0  0  0  0  0  0  0  0  0  0
  2  1  1  1
  2  3  1  0
  4  2  1  0
  5  4  2  0
  6  7  1  0
  7  8  1  0
  8  9  1  6
 10  8  1  0
 10 11  1  1
 11  4  1  0
 12 10  1  0
 12 13  2  0
 15 14  1  0
 16 15  2  0
 17 16  1  0
 18 24  1  0
 18 17  2  0
 19 18  1  0
 20 19  1  1
 20 22  1  0
 20 21  1  0
 21 12  1  0
 22 23  1  0
 24 25  2  0
 25 15  1  0
 26 22  2  0
M  END
$$$$
