AIY.pdb
     RDKit          3D

 26 26  0  0  1  0  0  0  0  0999 V2000
    7.0520  -19.6508   21.9730 C   0  0  0  0  0  0  0  0  0  0  0  0
    6.8837  -18.7217   20.7887 C   0  0  2  0  0  0  0  0  0  0  0  0
    7.0599  -19.4944   19.5728 N   0  0  0  0  0  0  0  0  0  0  0  0
    7.8342  -17.5871   20.8530 C   0  0  0  0  0  0  0  0  0  0  0  0
    8.9875  -17.7642   20.3912 O   0  0  0  0  0  0  0  0  0  0  0  0
    6.6684  -12.4693   19.8019 C   0  0  0  0  0  0  0  0  0  0  0  0
    7.4950  -13.7048   19.9797 C   0  0  0  0  0  0  0  0  0  0  0  0
    7.9257  -13.9254   21.4265 C   0  0  2  0  0  0  0  0  0  0  0  0
    8.8661  -12.8277   21.7933 C   0  0  0  0  0  0  0  0  0  0  0  0
    8.5686  -15.2882   21.5787 C   0  0  2  0  0  0  0  0  0  0  0  0
    7.5234  -16.3167   21.4021 N   0  0  0  0  0  0  0  0  0  0  0  0
    9.1827  -15.4514   22.9157 C   0  0  0  0  0  0  0  0  0  0  0  0
   10.2496  -14.8060   23.1691 O   0  0  0  0  0  0  0  0  0  0  0  0
    5.9433  -10.9167   26.6771 O   0  0  0  0  0  0  0  0  0  0  0  0
    6.5098  -12.1864   26.5795 C   0  0  0  0  0  0  0  0  0  0  0  0
    7.8544  -12.4074   26.7916 C   0  0  0  0  0  0  0  0  0  0  0  0
    8.4101  -13.6734   26.6926 C   0  0  0  0  0  0  0  0  0  0  0  0
    7.6366  -14.7747   26.3754 C   0  0  0  0  0  0  0  0  0  0  0  0
    8.1919  -16.1311   26.2592 C   0  0  0  0  0  0  0  0  0  0  0  0
    9.3142  -16.2810   25.2882 C   0  0  2  0  0  0  0  0  0  0  0  0
    8.7004  -16.2549   23.9514 N   0  0  0  0  0  0  0  0  0  0  0  0
   10.1244  -17.5043   25.4675 C   0  0  0  0  0  0  0  0  0  0  0  0
   10.9196  -17.6547   26.5916 O   0  0  0  0  0  0  0  0  0  0  0  0
    6.2908  -14.5451   26.1642 C   0  0  0  0  0  0  0  0  0  0  0  0
    5.7357  -13.2836   26.2627 C   0  0  0  0  0  0  0  0  0  0  0  0
   10.1371  -18.4570   24.6273 O   0  0  0  0  0  0  0  0  0  0  0  0
  2  1  1  1
  2  3  1  0
  4  2  1  0
  5  4  2  0
  6  7  1  0
  7  8  1  0
  8  9  1  6
 10  8  1  0
 10 11  1  1
 11  4  1  0
 12 10  1  0
 12 13  2  0
 15 14  1  0
 16 15  2  0
 17 16  1  0
 18 24  1  0
 18 17  2  0
 19 18  1  0
 20 19  1  1
 20 22  1  0
 20 21  1  0
 21 12  1  0
 22 23  1  0
 24 25  2  0
 25 15  1  0
 26 22  2  0
M  END
$$$$
