AIY.pdb
     RDKit          3D

 26 26  0  0  1  0  0  0  0  0999 V2000
   11.8048  -17.2989   15.9068 C   0  0  0  0  0  0  0  0  0  0  0  0
   11.6970  -15.7950   16.0504 C   0  0  2  0  0  0  0  0  0  0  0  0
   12.9010  -15.1961   15.5045 N   0  0  0  0  0  0  0  0  0  0  0  0
   11.4876  -15.4009   17.4632 C   0  0  0  0  0  0  0  0  0  0  0  0
   12.5036  -15.2466   18.1834 O   0  0  0  0  0  0  0  0  0  0  0  0
    6.8912  -12.7394   18.8508 C   0  0  0  0  0  0  0  0  0  0  0  0
    8.3151  -13.1858   18.7297 C   0  0  0  0  0  0  0  0  0  0  0  0
    8.6673  -14.3098   19.6993 C   0  0  2  0  0  0  0  0  0  0  0  0
    8.4790  -13.7908   21.0846 C   0  0  0  0  0  0  0  0  0  0  0  0
   10.0887  -14.7768   19.4642 C   0  0  2  0  0  0  0  0  0  0  0  0
   10.2145  -15.1877   18.0512 N   0  0  0  0  0  0  0  0  0  0  0  0
   10.4318  -15.9262   20.3316 C   0  0  0  0  0  0  0  0  0  0  0  0
   10.6954  -17.0402   19.7758 O   0  0  0  0  0  0  0  0  0  0  0  0
   17.3680  -16.2702   19.2533 O   0  0  0  0  0  0  0  0  0  0  0  0
   16.2097  -15.9126   19.9409 C   0  0  0  0  0  0  0  0  0  0  0  0
   16.1664  -14.8254   20.7882 C   0  0  0  0  0  0  0  0  0  0  0  0
   15.0102  -14.4764   21.4685 C   0  0  0  0  0  0  0  0  0  0  0  0
   13.8448  -15.2066   21.3262 C   0  0  0  0  0  0  0  0  0  0  0  0
   12.6011  -14.8675   22.0336 C   0  0  0  0  0  0  0  0  0  0  0  0
   11.7710  -16.0311   22.4599 C   0  0  2  0  0  0  0  0  0  0  0  0
   10.5011  -15.9140   21.7265 N   0  0  0  0  0  0  0  0  0  0  0  0
   11.5282  -16.1139   23.9157 C   0  0  0  0  0  0  0  0  0  0  0  0
   12.4636  -16.7102   24.7451 O   0  0  0  0  0  0  0  0  0  0  0  0
   13.8961  -16.2941   20.4759 C   0  0  0  0  0  0  0  0  0  0  0  0
   15.0481  -16.6431   19.7972 C   0  0  0  0  0  0  0  0  0  0  0  0
   10.4809  -15.6574   24.4710 O   0  0  0  0  0  0  0  0  0  0  0  0
  2  1  1  1
  2  3  1  0
  4  2  1  0
  5  4  2  0
  6  7  1  0
  7  8  1  0
  8  9  1  1
 10  8  1  0
 10 11  1  6
 11  4  1  0
 12 10  1  0
 12 13  2  0
 15 14  1  0
 16 15  2  0
 17 16  1  0
 18 24  1  0
 18 17  2  0
 19 18  1  0
 20 19  1  1
 20 22  1  0
 20 21  1  0
 21 12  1  0
 22 23  1  0
 24 25  2  0
 25 15  1  0
 26 22  2  0
M  END
$$$$
