AIY.pdb
     RDKit          3D

 26 26  0  0  1  0  0  0  0  0999 V2000
    8.9375  -19.9100   19.9618 C   0  0  0  0  0  0  0  0  0  0  0  0
    8.8739  -18.7265   19.0187 C   0  0  2  0  0  0  0  0  0  0  0  0
    9.6849  -19.0269   17.8531 N   0  0  0  0  0  0  0  0  0  0  0  0
    9.3212  -17.4807   19.6843 C   0  0  0  0  0  0  0  0  0  0  0  0
   10.5419  -17.1953   19.6303 O   0  0  0  0  0  0  0  0  0  0  0  0
    6.4714  -12.9863   19.2573 C   0  0  0  0  0  0  0  0  0  0  0  0
    7.6359  -13.9120   19.4255 C   0  0  0  0  0  0  0  0  0  0  0  0
    7.8845  -14.2915   20.8820 C   0  0  2  0  0  0  0  0  0  0  0  0
    8.2561  -13.0492   21.6185 C   0  0  0  0  0  0  0  0  0  0  0  0
    8.9722  -15.3418   20.9703 C   0  0  2  0  0  0  0  0  0  0  0  0
    8.4585  -16.5929   20.3768 N   0  0  0  0  0  0  0  0  0  0  0  0
    9.3628  -15.6007   22.3744 C   0  0  0  0  0  0  0  0  0  0  0  0
    8.5232  -16.1818   23.1338 O   0  0  0  0  0  0  0  0  0  0  0  0
   10.2868  -14.9701   30.8013 O   0  0  0  0  0  0  0  0  0  0  0  0
   10.1332  -15.0292   29.4173 C   0  0  0  0  0  0  0  0  0  0  0  0
    9.9081  -16.2177   28.7550 C   0  0  0  0  0  0  0  0  0  0  0  0
    9.7565  -16.2680   27.3781 C   0  0  0  0  0  0  0  0  0  0  0  0
    9.8246  -15.1234   26.6055 C   0  0  0  0  0  0  0  0  0  0  0  0
    9.6711  -15.1393   25.1433 C   0  0  0  0  0  0  0  0  0  0  0  0
   10.8853  -15.5449   24.3778 C   0  0  2  0  0  0  0  0  0  0  0  0
   10.5847  -15.2692   22.9643 N   0  0  0  0  0  0  0  0  0  0  0  0
   11.2861  -16.9559   24.5614 C   0  0  0  0  0  0  0  0  0  0  0  0
   12.4301  -17.2675   25.2774 O   0  0  0  0  0  0  0  0  0  0  0  0
   10.0504  -13.9370   27.2762 C   0  0  0  0  0  0  0  0  0  0  0  0
   10.2018  -13.8856   28.6488 C   0  0  0  0  0  0  0  0  0  0  0  0
   10.6251  -17.9317   24.0877 O   0  0  0  0  0  0  0  0  0  0  0  0
  2  1  1  1
  2  3  1  0
  4  2  1  0
  5  4  2  0
  6  7  1  0
  7  8  1  0
  8  9  1  1
 10  8  1  0
 10 11  1  1
 11  4  1  0
 12 10  1  0
 12 13  2  0
 15 14  1  0
 16 15  2  0
 17 16  1  0
 18 24  1  0
 18 17  2  0
 19 18  1  0
 20 19  1  1
 20 22  1  0
 20 21  1  0
 21 12  1  0
 22 23  1  0
 24 25  2  0
 25 15  1  0
 26 22  2  0
M  END
$$$$
