AIY.pdb
     RDKit          3D

 26 26  0  0  1  0  0  0  0  0999 V2000
    6.8105  -19.7778   21.2431 C   0  0  0  0  0  0  0  0  0  0  0  0
    6.9276  -18.7648   20.1232 C   0  0  2  0  0  0  0  0  0  0  0  0
    7.3857  -19.4531   18.9303 N   0  0  0  0  0  0  0  0  0  0  0  0
    7.8369  -17.6547   20.4919 C   0  0  0  0  0  0  0  0  0  0  0  0
    9.0722  -17.8683   20.4365 O   0  0  0  0  0  0  0  0  0  0  0  0
    7.2182  -12.5142   19.0944 C   0  0  0  0  0  0  0  0  0  0  0  0
    7.7947  -13.8281   19.5220 C   0  0  0  0  0  0  0  0  0  0  0  0
    7.8410  -13.9884   21.0385 C   0  0  2  0  0  0  0  0  0  0  0  0
    8.7127  -12.9081   21.5834 C   0  0  0  0  0  0  0  0  0  0  0  0
    8.3592  -15.3640   21.4032 C   0  0  2  0  0  0  0  0  0  0  0  0
    7.4000  -16.3691   20.9023 N   0  0  0  0  0  0  0  0  0  0  0  0
    8.4976  -15.5199   22.8687 C   0  0  0  0  0  0  0  0  0  0  0  0
    7.4386  -15.6600   23.5602 O   0  0  0  0  0  0  0  0  0  0  0  0
    5.9226  -10.9361   27.1364 O   0  0  0  0  0  0  0  0  0  0  0  0
    6.5281  -12.1270   26.7392 C   0  0  0  0  0  0  0  0  0  0  0  0
    7.8962  -12.2981   26.7658 C   0  0  0  0  0  0  0  0  0  0  0  0
    8.4907  -13.4858   26.3690 C   0  0  0  0  0  0  0  0  0  0  0  0
    7.7341  -14.5553   25.9272 C   0  0  0  0  0  0  0  0  0  0  0  0
    8.3301  -15.8285   25.4964 C   0  0  0  0  0  0  0  0  0  0  0  0
    9.7482  -15.7483   25.0409 C   0  0  2  0  0  0  0  0  0  0  0  0
    9.6957  -15.5329   23.5865 N   0  0  0  0  0  0  0  0  0  0  0  0
   10.5669  -16.9358   25.3642 C   0  0  0  0  0  0  0  0  0  0  0  0
   11.2093  -17.0268   26.5879 O   0  0  0  0  0  0  0  0  0  0  0  0
    6.3645  -14.3761   25.9033 C   0  0  0  0  0  0  0  0  0  0  0  0
    5.7707  -13.1927   26.2986 C   0  0  0  0  0  0  0  0  0  0  0  0
   10.7230  -17.9093   24.5633 O   0  0  0  0  0  0  0  0  0  0  0  0
  2  1  1  1
  2  3  1  0
  4  2  1  0
  5  4  2  0
  6  7  1  0
  7  8  1  0
  8  9  1  1
 10  8  1  0
 10 11  1  1
 11  4  1  0
 12 10  1  0
 12 13  2  0
 15 14  1  0
 16 15  2  0
 17 16  1  0
 18 24  1  0
 18 17  2  0
 19 18  1  0
 20 19  1  6
 20 22  1  0
 20 21  1  0
 21 12  1  0
 22 23  1  0
 24 25  2  0
 25 15  1  0
 26 22  2  0
M  END
$$$$
