AIY.pdb
     RDKit          3D

 26 26  0  0  1  0  0  0  0  0999 V2000
    5.1102  -18.6887   22.9094 C   0  0  0  0  0  0  0  0  0  0  0  0
    5.3773  -18.1213   21.5307 C   0  0  2  0  0  0  0  0  0  0  0  0
    5.4611  -19.2242   20.5910 N   0  0  0  0  0  0  0  0  0  0  0  0
    6.6101  -17.2997   21.5142 C   0  0  0  0  0  0  0  0  0  0  0  0
    7.7040  -17.8909   21.3454 O   0  0  0  0  0  0  0  0  0  0  0  0
    6.7582  -12.3915   19.3655 C   0  0  0  0  0  0  0  0  0  0  0  0
    7.1376  -13.7540   19.8566 C   0  0  0  0  0  0  0  0  0  0  0  0
    7.6790  -13.7394   21.2827 C   0  0  2  0  0  0  0  0  0  0  0  0
    8.9408  -12.9447   21.2819 C   0  0  0  0  0  0  0  0  0  0  0  0
    7.9088  -15.1552   21.7692 C   0  0  2  0  0  0  0  0  0  0  0  0
    6.6314  -15.8907   21.6768 N   0  0  0  0  0  0  0  0  0  0  0  0
    8.3754  -15.1764   23.1739 C   0  0  0  0  0  0  0  0  0  0  0  0
    7.9402  -14.2795   23.9647 O   0  0  0  0  0  0  0  0  0  0  0  0
    5.9072  -11.2018   26.9321 O   0  0  0  0  0  0  0  0  0  0  0  0
    6.6274  -12.3753   26.7158 C   0  0  0  0  0  0  0  0  0  0  0  0
    6.0226  -13.5377   26.2858 C   0  0  0  0  0  0  0  0  0  0  0  0
    6.7460  -14.7008   26.0730 C   0  0  0  0  0  0  0  0  0  0  0  0
    8.1117  -14.7461   26.2836 C   0  0  0  0  0  0  0  0  0  0  0  0
    8.9105  -15.9620   26.0707 C   0  0  0  0  0  0  0  0  0  0  0  0
    9.9541  -15.8633   25.0097 C   0  0  2  0  0  0  0  0  0  0  0  0
    9.2601  -16.1005   23.7344 N   0  0  0  0  0  0  0  0  0  0  0  0
   11.0865  -16.7997   25.1707 C   0  0  0  0  0  0  0  0  0  0  0  0
   11.3374  -17.7617   24.2063 O   0  0  0  0  0  0  0  0  0  0  0  0
    8.7102  -13.5778   26.7142 C   0  0  0  0  0  0  0  0  0  0  0  0
    7.9901  -12.4178   26.9267 C   0  0  0  0  0  0  0  0  0  0  0  0
   11.8689  -16.7761   26.1711 O   0  0  0  0  0  0  0  0  0  0  0  0
  2  1  1  1
  2  3  1  0
  4  2  1  0
  5  4  2  0
  6  7  1  0
  7  8  1  0
  8  9  1  6
 10  8  1  0
 10 11  1  1
 11  4  1  0
 12 10  1  0
 12 13  2  0
 15 14  1  0
 16 15  2  0
 17 16  1  0
 18 24  1  0
 18 17  2  0
 19 18  1  0
 20 19  1  1
 20 22  1  0
 20 21  1  0
 21 12  1  0
 22 23  1  0
 24 25  2  0
 25 15  1  0
 26 22  2  0
M  END
$$$$
