AIY.pdb
     RDKit          3D

 26 26  0  0  1  0  0  0  0  0999 V2000
    8.1792  -18.6699   18.4134 C   0  0  0  0  0  0  0  0  0  0  0  0
    8.3109  -18.6544   19.9222 C   0  0  2  0  0  0  0  0  0  0  0  0
    6.9985  -18.8840   20.4980 N   0  0  0  0  0  0  0  0  0  0  0  0
    8.8977  -17.3808   20.4002 C   0  0  0  0  0  0  0  0  0  0  0  0
   10.1045  -17.1586   20.1375 O   0  0  0  0  0  0  0  0  0  0  0  0
    7.0327  -12.3778   19.7920 C   0  0  0  0  0  0  0  0  0  0  0  0
    7.9640  -13.5239   20.0379 C   0  0  0  0  0  0  0  0  0  0  0  0
    7.9320  -14.0128   21.4827 C   0  0  2  0  0  0  0  0  0  0  0  0
    8.3238  -12.8708   22.3579 C   0  0  0  0  0  0  0  0  0  0  0  0
    8.8620  -15.1957   21.6551 C   0  0  2  0  0  0  0  0  0  0  0  0
    8.1832  -16.3995   21.1341 N   0  0  0  0  0  0  0  0  0  0  0  0
    9.2025  -15.4142   23.0790 C   0  0  0  0  0  0  0  0  0  0  0  0
   10.1321  -14.7105   23.5888 O   0  0  0  0  0  0  0  0  0  0  0  0
    6.5032  -10.8014   27.1506 O   0  0  0  0  0  0  0  0  0  0  0  0
    6.8376  -12.1337   26.9146 C   0  0  0  0  0  0  0  0  0  0  0  0
    8.1304  -12.5978   27.0377 C   0  0  0  0  0  0  0  0  0  0  0  0
    8.4547  -13.9245   26.8011 C   0  0  0  0  0  0  0  0  0  0  0  0
    7.4916  -14.8444   26.4298 C   0  0  0  0  0  0  0  0  0  0  0  0
    7.7994  -16.2581   26.1684 C   0  0  0  0  0  0  0  0  0  0  0  0
    9.0147  -16.5047   25.3395 C   0  0  2  0  0  0  0  0  0  0  0  0
    8.5942  -16.3298   23.9407 N   0  0  0  0  0  0  0  0  0  0  0  0
    9.6358  -17.8316   25.5367 C   0  0  0  0  0  0  0  0  0  0  0  0
   10.1629  -18.1777   26.7699 O   0  0  0  0  0  0  0  0  0  0  0  0
    6.1992  -14.3718   26.3085 C   0  0  0  0  0  0  0  0  0  0  0  0
    5.8746  -13.0495   26.5441 C   0  0  0  0  0  0  0  0  0  0  0  0
    9.7188  -18.7021   24.6153 O   0  0  0  0  0  0  0  0  0  0  0  0
  2  1  1  6
  2  3  1  0
  4  2  1  0
  5  4  2  0
  6  7  1  0
  7  8  1  0
  8  9  1  1
 10  8  1  0
 10 11  1  1
 11  4  1  0
 12 10  1  0
 12 13  2  0
 15 14  1  0
 16 15  2  0
 17 16  1  0
 18 24  1  0
 18 17  2  0
 19 18  1  0
 20 19  1  1
 20 22  1  0
 20 21  1  0
 21 12  1  0
 22 23  1  0
 24 25  2  0
 25 15  1  0
 26 22  2  0
M  END
$$$$
