AIY.pdb
     RDKit          3D

 26 26  0  0  1  0  0  0  0  0999 V2000
    8.5025  -19.8797   20.4465 C   0  0  0  0  0  0  0  0  0  0  0  0
    8.5998  -18.7174   19.4802 C   0  0  2  0  0  0  0  0  0  0  0  0
    9.5308  -19.0761   18.4260 N   0  0  0  0  0  0  0  0  0  0  0  0
    9.0150  -17.4741   20.1707 C   0  0  0  0  0  0  0  0  0  0  0  0
   10.2385  -17.3131   20.3989 O   0  0  0  0  0  0  0  0  0  0  0  0
    6.8467  -12.5794   19.3641 C   0  0  0  0  0  0  0  0  0  0  0  0
    7.7973  -13.6839   19.7073 C   0  0  0  0  0  0  0  0  0  0  0  0
    7.6733  -14.1421   21.1572 C   0  0  2  0  0  0  0  0  0  0  0  0
    8.0140  -12.9828   22.0311 C   0  0  0  0  0  0  0  0  0  0  0  0
    8.5863  -15.3234   21.4121 C   0  0  2  0  0  0  0  0  0  0  0  0
    8.1190  -16.4571   20.5890 N   0  0  0  0  0  0  0  0  0  0  0  0
    8.5687  -15.7242   22.8370 C   0  0  0  0  0  0  0  0  0  0  0  0
    7.5392  -16.3279   23.2782 O   0  0  0  0  0  0  0  0  0  0  0  0
    6.3272  -10.5914   27.0909 O   0  0  0  0  0  0  0  0  0  0  0  0
    6.7657  -11.8592   26.7130 C   0  0  0  0  0  0  0  0  0  0  0  0
    8.1042  -12.1600   26.5721 C   0  0  0  0  0  0  0  0  0  0  0  0
    8.5321  -13.4236   26.1958 C   0  0  0  0  0  0  0  0  0  0  0  0
    7.6313  -14.4419   25.9443 C   0  0  0  0  0  0  0  0  0  0  0  0
    8.0487  -15.7928   25.5410 C   0  0  0  0  0  0  0  0  0  0  0  0
    9.4868  -15.9334   25.1710 C   0  0  2  0  0  0  0  0  0  0  0  0
    9.5882  -15.5068   23.7667 N   0  0  0  0  0  0  0  0  0  0  0  0
   10.0373  -17.2943   25.3449 C   0  0  0  0  0  0  0  0  0  0  0  0
   11.2312  -17.4816   26.0217 O   0  0  0  0  0  0  0  0  0  0  0  0
    6.2926  -14.1328   26.0875 C   0  0  0  0  0  0  0  0  0  0  0  0
    5.8647  -12.8736   26.4626 C   0  0  0  0  0  0  0  0  0  0  0  0
    9.4647  -18.3362   24.8975 O   0  0  0  0  0  0  0  0  0  0  0  0
  2  1  1  1
  2  3  1  0
  4  2  1  0
  5  4  2  0
  6  7  1  0
  7  8  1  0
  8  9  1  1
 10  8  1  0
 10 11  1  6
 11  4  1  0
 12 10  1  0
 12 13  2  0
 15 14  1  0
 16 15  2  0
 17 16  1  0
 18 24  1  0
 18 17  2  0
 19 18  1  0
 20 19  1  6
 20 22  1  0
 20 21  1  0
 21 12  1  0
 22 23  1  0
 24 25  2  0
 25 15  1  0
 26 22  2  0
M  END
$$$$
