AIY.pdb
     RDKit          3D

 26 26  0  0  1  0  0  0  0  0999 V2000
    7.8590  -18.2905   21.8085 C   0  0  0  0  0  0  0  0  0  0  0  0
    7.1159  -17.0655   21.3176 C   0  0  2  0  0  0  0  0  0  0  0  0
    7.2123  -17.0219   19.8701 N   0  0  0  0  0  0  0  0  0  0  0  0
    7.6479  -15.8278   21.9342 C   0  0  0  0  0  0  0  0  0  0  0  0
    8.5952  -15.2457   21.3524 O   0  0  0  0  0  0  0  0  0  0  0  0
    6.4901  -11.4586   26.2241 C   0  0  0  0  0  0  0  0  0  0  0  0
    7.3440  -12.0771   25.1613 C   0  0  0  0  0  0  0  0  0  0  0  0
    6.8005  -13.4152   24.6699 C   0  0  2  0  0  0  0  0  0  0  0  0
    6.5243  -14.2609   25.8668 C   0  0  0  0  0  0  0  0  0  0  0  0
    7.7958  -14.0729   23.7367 C   0  0  2  0  0  0  0  0  0  0  0  0
    7.1550  -15.2610   23.1375 N   0  0  0  0  0  0  0  0  0  0  0  0
    9.0164  -14.4975   24.4584 C   0  0  0  0  0  0  0  0  0  0  0  0
    9.7274  -13.6009   25.0149 O   0  0  0  0  0  0  0  0  0  0  0  0
   11.0428  -15.1862   31.8561 O   0  0  0  0  0  0  0  0  0  0  0  0
   10.7976  -15.6159   30.5531 C   0  0  0  0  0  0  0  0  0  0  0  0
   10.2323  -14.7910   29.6034 C   0  0  0  0  0  0  0  0  0  0  0  0
    9.9916  -15.2261   28.3096 C   0  0  0  0  0  0  0  0  0  0  0  0
   10.3094  -16.5120   27.9132 C   0  0  0  0  0  0  0  0  0  0  0  0
   10.0662  -17.0084   26.5508 C   0  0  0  0  0  0  0  0  0  0  0  0
   10.6199  -16.1624   25.4542 C   0  0  2  0  0  0  0  0  0  0  0  0
    9.4770  -15.8088   24.5980 N   0  0  0  0  0  0  0  0  0  0  0  0
   11.6886  -16.8050   24.6604 C   0  0  0  0  0  0  0  0  0  0  0  0
   11.3880  -17.4198   23.4561 O   0  0  0  0  0  0  0  0  0  0  0  0
   10.8752  -17.3321   28.8701 C   0  0  0  0  0  0  0  0  0  0  0  0
   11.1156  -16.8996   30.1603 C   0  0  0  0  0  0  0  0  0  0  0  0
   12.9048  -16.8293   25.0263 O   0  0  0  0  0  0  0  0  0  0  0  0
  2  1  1  1
  2  3  1  0
  4  2  1  0
  5  4  2  0
  6  7  1  0
  7  8  1  0
  8  9  1  1
 10  8  1  0
 10 11  1  1
 11  4  1  0
 12 10  1  0
 12 13  2  0
 15 14  1  0
 16 15  2  0
 17 16  1  0
 18 24  1  0
 18 17  2  0
 19 18  1  0
 20 19  1  1
 20 22  1  0
 20 21  1  0
 21 12  1  0
 22 23  1  0
 24 25  2  0
 25 15  1  0
 26 22  2  0
M  END
$$$$
