AIY.pdb
     RDKit          3D

 26 26  0  0  1  0  0  0  0  0999 V2000
    8.3104  -12.0142   19.4300 C   0  0  0  0  0  0  0  0  0  0  0  0
    7.9196  -13.2957   18.7237 C   0  0  2  0  0  0  0  0  0  0  0  0
    6.6729  -13.0663   18.0169 N   0  0  0  0  0  0  0  0  0  0  0  0
    7.8032  -14.4240   19.6769 C   0  0  0  0  0  0  0  0  0  0  0  0
    6.6858  -14.6238   20.2120 O   0  0  0  0  0  0  0  0  0  0  0  0
    8.8687  -19.3438   18.6072 C   0  0  0  0  0  0  0  0  0  0  0  0
    8.3785  -18.0803   19.2435 C   0  0  0  0  0  0  0  0  0  0  0  0
    9.2248  -17.6528   20.4387 C   0  0  2  0  0  0  0  0  0  0  0  0
    9.1968  -18.7616   21.4355 C   0  0  0  0  0  0  0  0  0  0  0  0
    8.6909  -16.3612   21.0221 C   0  0  2  0  0  0  0  0  0  0  0  0
    8.8723  -15.2901   20.0216 N   0  0  0  0  0  0  0  0  0  0  0  0
    9.4097  -15.9884   22.2613 C   0  0  0  0  0  0  0  0  0  0  0  0
   10.6500  -15.7165   22.1772 O   0  0  0  0  0  0  0  0  0  0  0  0
   10.9272  -14.7538   31.0281 O   0  0  0  0  0  0  0  0  0  0  0  0
   10.3911  -14.8454   29.7449 C   0  0  0  0  0  0  0  0  0  0  0  0
   10.2951  -13.7514   28.9107 C   0  0  0  0  0  0  0  0  0  0  0  0
    9.7605  -13.8510   27.6357 C   0  0  0  0  0  0  0  0  0  0  0  0
    9.2983  -15.0572   27.1427 C   0  0  0  0  0  0  0  0  0  0  0  0
    8.7231  -15.1997   25.7971 C   0  0  0  0  0  0  0  0  0  0  0  0
    9.6692  -15.6706   24.7444 C   0  0  2  0  0  0  0  0  0  0  0  0
    8.8555  -15.8988   23.5402 N   0  0  0  0  0  0  0  0  0  0  0  0
   10.4297  -16.8873   25.0997 C   0  0  0  0  0  0  0  0  0  0  0  0
   11.7446  -16.7879   25.5238 O   0  0  0  0  0  0  0  0  0  0  0  0
    9.3978  -16.1483   27.9842 C   0  0  0  0  0  0  0  0  0  0  0  0
    9.9305  -16.0503   29.2554 C   0  0  0  0  0  0  0  0  0  0  0  0
    9.9362  -18.0562   25.0380 O   0  0  0  0  0  0  0  0  0  0  0  0
  2  1  1  1
  2  3  1  0
  4  2  1  0
  5  4  2  0
  6  7  1  0
  7  8  1  0
  8  9  1  1
 10  8  1  0
 10 11  1  6
 11  4  1  0
 12 10  1  0
 12 13  2  0
 15 14  1  0
 16 15  2  0
 17 16  1  0
 18 24  1  0
 18 17  2  0
 19 18  1  0
 20 19  1  1
 20 22  1  0
 20 21  1  0
 21 12  1  0
 22 23  1  0
 24 25  2  0
 25 15  1  0
 26 22  2  0
M  END
$$$$
