AIY.pdb
     RDKit          3D

 26 26  0  0  1  0  0  0  0  0999 V2000
    9.5887  -19.0518   23.3052 C   0  0  0  0  0  0  0  0  0  0  0  0
    9.8645  -18.1488   22.1208 C   0  0  2  0  0  0  0  0  0  0  0  0
   11.2341  -18.3634   21.6914 N   0  0  0  0  0  0  0  0  0  0  0  0
    9.6176  -16.7270   22.4566 C   0  0  0  0  0  0  0  0  0  0  0  0
   10.5293  -16.0996   23.0481 O   0  0  0  0  0  0  0  0  0  0  0  0
    6.9712  -13.2526   19.1933 C   0  0  0  0  0  0  0  0  0  0  0  0
    7.8989  -13.8468   20.2070 C   0  0  0  0  0  0  0  0  0  0  0  0
    7.2621  -13.9774   21.5872 C   0  0  2  0  0  0  0  0  0  0  0  0
    6.8642  -12.6118   22.0352 C   0  0  0  0  0  0  0  0  0  0  0  0
    8.2342  -14.6229   22.5526 C   0  0  2  0  0  0  0  0  0  0  0  0
    8.4189  -16.0324   22.1522 N   0  0  0  0  0  0  0  0  0  0  0  0
    7.7263  -14.5804   23.9424 C   0  0  0  0  0  0  0  0  0  0  0  0
    6.8302  -15.4183   24.2800 O   0  0  0  0  0  0  0  0  0  0  0  0
   11.8039  -17.7168   28.8692 O   0  0  0  0  0  0  0  0  0  0  0  0
   11.0091  -16.6381   28.4855 C   0  0  0  0  0  0  0  0  0  0  0  0
   10.0690  -16.0839   29.3286 C   0  0  0  0  0  0  0  0  0  0  0  0
    9.2823  -15.0111   28.9393 C   0  0  0  0  0  0  0  0  0  0  0  0
    9.4069  -14.4475   27.6829 C   0  0  0  0  0  0  0  0  0  0  0  0
    8.5882  -13.3112   27.2351 C   0  0  0  0  0  0  0  0  0  0  0  0
    7.5025  -13.6474   26.2692 C   0  0  2  0  0  0  0  0  0  0  0  0
    8.1399  -13.6994   24.9443 N   0  0  0  0  0  0  0  0  0  0  0  0
    6.3664  -12.7017   26.2659 C   0  0  0  0  0  0  0  0  0  0  0  0
    6.3215  -11.6699   25.3430 O   0  0  0  0  0  0  0  0  0  0  0  0
   10.3506  -15.0082   26.8443 C   0  0  0  0  0  0  0  0  0  0  0  0
   11.1354  -16.0777   27.2312 C   0  0  0  0  0  0  0  0  0  0  0  0
    5.3975  -12.7791   27.0838 O   0  0  0  0  0  0  0  0  0  0  0  0
  2  1  1  1
  2  3  1  0
  4  2  1  0
  5  4  2  0
  6  7  1  0
  7  8  1  0
  8  9  1  1
 10  8  1  0
 10 11  1  6
 11  4  1  0
 12 10  1  0
 12 13  2  0
 15 14  1  0
 16 15  2  0
 17 16  1  0
 18 24  1  0
 18 17  2  0
 19 18  1  0
 20 19  1  1
 20 22  1  0
 20 21  1  0
 21 12  1  0
 22 23  1  0
 24 25  2  0
 25 15  1  0
 26 22  2  0
M  END
$$$$
