DHI.pdb
     RDKit          3D

 27 27  0  0  1  0  0  0  0  0999 V2000
    9.5377  -17.6443   19.7664 N   0  0  0  0  0  0  0  0  0  0  0  0
    8.4811  -16.6816   19.6572 C   0  0  1  0  0  0  0  0  0  0  0  0
    7.5320  -17.1835   18.5617 C   0  0  0  0  0  0  0  0  0  0  0  0
    8.2493  -17.2224   17.2524 C   0  0  0  0  0  0  0  0  0  0  0  0
    9.5013  -17.3360   17.2053 O   0  0  0  0  0  0  0  0  0  0  0  0
    7.7687  -16.6013   20.9580 C   0  0  0  0  0  0  0  0  0  0  0  0
    6.7036  -15.9489   21.1149 O   0  0  0  0  0  0  0  0  0  0  0  0
    7.5766  -17.1363   16.0437 O   0  0  0  0  0  0  0  0  0  0  0  0
    8.2677  -17.2769   22.1265 N   0  0  0  0  0  0  0  0  0  0  0  0
    7.6143  -17.2601   23.3983 C   0  0  1  0  0  0  0  0  0  0  0  0
    7.5140  -18.6422   24.0027 C   0  0  0  0  0  0  0  0  0  0  0  0
    6.5683  -19.4890   23.2348 C   0  0  0  0  0  0  0  0  0  0  0  0
    5.1709  -19.4702   23.3080 C   0  0  0  0  0  0  0  0  0  0  0  0
    4.6795  -20.3858   22.4562 N   0  0  0  0  0  0  0  0  0  0  0  0
    5.7153  -20.9847   21.8453 C   0  0  0  0  0  0  0  0  0  0  0  0
    6.8602  -20.4332   22.3247 N   0  0  0  0  0  0  0  0  0  0  0  0
    8.3038  -16.3049   24.2879 C   0  0  0  0  0  0  0  0  0  0  0  0
    9.5543  -16.2118   24.2145 O   0  0  0  0  0  0  0  0  0  0  0  0
    5.8030  -11.8111   26.2548 C   0  0  0  0  0  0  0  0  0  0  0  0
    6.8836  -12.7045   25.6403 C   0  0  0  0  0  0  0  0  0  0  0  0
    7.5058  -13.5594   26.7042 C   0  0  2  0  0  0  0  0  0  0  0  0
    8.2607  -12.6163   27.6289 C   0  0  0  0  0  0  0  0  0  0  0  0
    8.3894  -14.5966   26.1059 C   0  0  2  0  0  0  0  0  0  0  0  0
    7.6184  -15.4836   25.2258 N   0  0  0  0  0  0  0  0  0  0  0  0
    9.0251  -15.4429   27.1208 C   0  0  0  0  0  0  0  0  0  0  0  0
    8.4079  -16.4724   27.5616 O   0  0  0  0  0  0  0  0  0  0  0  0
   10.2865  -15.1580   27.6163 O   0  0  0  0  0  0  0  0  0  0  0  0
  2  1  1  1
  2  3  1  0
  2  6  1  0
  3  4  1  0
  4  8  1  0
  4  5  2  0
  6  9  1  0
  7  6  2  0
  9 10  1  0
 10 11  1  1
 11 12  1  0
 12 16  1  0
 12 13  2  0
 13 14  1  0
 15 14  1  0
 16 15  2  0
 17 10  1  0
 17 24  1  0
 18 17  2  0
 19 20  1  0
 20 21  1  0
 21 23  1  0
 21 22  1  1
 23 24  1  6
 23 25  1  0
 25 26  2  0
 25 27  1  0
M  END
$$$$
