DHI.pdb
     RDKit          3D

 27 27  0  0  1  0  0  0  0  0999 V2000
    9.0517  -15.9718   19.0501 N   0  0  0  0  0  0  0  0  0  0  0  0
    8.4718  -14.7263   19.4596 C   0  0  1  0  0  0  0  0  0  0  0  0
    7.3985  -14.3716   18.4227 C   0  0  0  0  0  0  0  0  0  0  0  0
    8.0016  -14.3611   17.0565 C   0  0  0  0  0  0  0  0  0  0  0  0
    8.7920  -15.2698   16.6928 O   0  0  0  0  0  0  0  0  0  0  0  0
    7.8549  -14.9017   20.7993 C   0  0  0  0  0  0  0  0  0  0  0  0
    7.0607  -14.0637   21.3011 O   0  0  0  0  0  0  0  0  0  0  0  0
    7.7215  -13.3619   16.1378 O   0  0  0  0  0  0  0  0  0  0  0  0
    8.1379  -16.0586   21.6068 N   0  0  0  0  0  0  0  0  0  0  0  0
    7.5269  -16.3167   22.8737 C   0  0  1  0  0  0  0  0  0  0  0  0
    7.3815  -17.7973   23.1421 C   0  0  0  0  0  0  0  0  0  0  0  0
    6.3301  -18.3914   22.2804 C   0  0  0  0  0  0  0  0  0  0  0  0
    5.4423  -17.7075   21.4422 C   0  0  0  0  0  0  0  0  0  0  0  0
    4.6469  -18.6014   20.8311 N   0  0  0  0  0  0  0  0  0  0  0  0
    4.9983  -19.8279   21.2517 C   0  0  0  0  0  0  0  0  0  0  0  0
    6.0228  -19.6909   22.1329 N   0  0  0  0  0  0  0  0  0  0  0  0
    8.2882  -15.6243   23.9321 C   0  0  0  0  0  0  0  0  0  0  0  0
    9.5431  -15.6578   23.8883 O   0  0  0  0  0  0  0  0  0  0  0  0
    6.2778  -11.3717   27.1662 C   0  0  0  0  0  0  0  0  0  0  0  0
    6.6118  -12.7686   26.6364 C   0  0  0  0  0  0  0  0  0  0  0  0
    8.0238  -12.7994   26.1312 C   0  0  2  0  0  0  0  0  0  0  0  0
    8.0296  -12.0293   24.8192 C   0  0  0  0  0  0  0  0  0  0  0  0
    8.5022  -14.1994   25.9704 C   0  0  2  0  0  0  0  0  0  0  0  0
    7.6675  -14.9199   25.0009 N   0  0  0  0  0  0  0  0  0  0  0  0
    8.4534  -14.9548   27.2262 C   0  0  0  0  0  0  0  0  0  0  0  0
    7.5850  -15.8820   27.3724 O   0  0  0  0  0  0  0  0  0  0  0  0
    9.3309  -14.6924   28.2650 O   0  0  0  0  0  0  0  0  0  0  0  0
  2  1  1  6
  2  3  1  0
  2  6  1  0
  3  4  1  0
  4  8  1  0
  4  5  2  0
  6  9  1  0
  7  6  2  0
  9 10  1  0
 10 11  1  1
 11 12  1  0
 12 16  1  0
 12 13  2  0
 13 14  1  0
 15 14  1  0
 16 15  2  0
 17 10  1  0
 17 24  1  0
 18 17  2  0
 19 20  1  0
 20 21  1  0
 21 23  1  0
 21 22  1  6
 23 24  1  6
 23 25  1  0
 25 26  2  0
 25 27  1  0
M  END
$$$$
