DHI.pdb
     RDKit          3D

 27 27  0  0  1  0  0  0  0  0999 V2000
   10.0913  -13.7958   18.8575 N   0  0  0  0  0  0  0  0  0  0  0  0
    8.8947  -13.1483   19.3093 C   0  0  1  0  0  0  0  0  0  0  0  0
    7.9032  -13.1766   18.1392 C   0  0  0  0  0  0  0  0  0  0  0  0
    8.1177  -14.4111   17.3267 C   0  0  0  0  0  0  0  0  0  0  0  0
    7.8794  -15.5494   17.8066 O   0  0  0  0  0  0  0  0  0  0  0  0
    8.3477  -13.9033   20.4655 C   0  0  0  0  0  0  0  0  0  0  0  0
    7.2810  -13.5797   21.0502 O   0  0  0  0  0  0  0  0  0  0  0  0
    8.5836  -14.3601   16.0223 O   0  0  0  0  0  0  0  0  0  0  0  0
    9.0206  -15.0640   20.9859 N   0  0  0  0  0  0  0  0  0  0  0  0
    8.5470  -15.8302   22.0965 C   0  0  1  0  0  0  0  0  0  0  0  0
    9.0905  -17.2409   22.0854 C   0  0  0  0  0  0  0  0  0  0  0  0
    8.3145  -18.1005   21.1581 C   0  0  0  0  0  0  0  0  0  0  0  0
    7.1449  -17.7568   20.4709 C   0  0  0  0  0  0  0  0  0  0  0  0
    6.7506  -18.8080   19.7329 N   0  0  0  0  0  0  0  0  0  0  0  0
    7.6283  -19.8063   19.9273 C   0  0  0  0  0  0  0  0  0  0  0  0
    8.5762  -19.3674   20.7954 N   0  0  0  0  0  0  0  0  0  0  0  0
    8.8594  -15.1160   23.3501 C   0  0  0  0  0  0  0  0  0  0  0  0
    9.9565  -14.5108   23.4385 O   0  0  0  0  0  0  0  0  0  0  0  0
    6.4407  -11.2389   27.1102 C   0  0  0  0  0  0  0  0  0  0  0  0
    7.5164  -12.3202   26.9794 C   0  0  0  0  0  0  0  0  0  0  0  0
    7.2222  -13.1933   25.7958 C   0  0  2  0  0  0  0  0  0  0  0  0
    5.8597  -13.8203   26.0501 C   0  0  0  0  0  0  0  0  0  0  0  0
    8.2901  -14.2123   25.6062 C   0  0  2  0  0  0  0  0  0  0  0  0
    7.9758  -15.0803   24.4644 N   0  0  0  0  0  0  0  0  0  0  0  0
    8.4485  -15.0808   26.7770 C   0  0  0  0  0  0  0  0  0  0  0  0
    7.9828  -16.2714   26.7479 O   0  0  0  0  0  0  0  0  0  0  0  0
    9.0966  -14.6454   27.9208 O   0  0  0  0  0  0  0  0  0  0  0  0
  2  1  1  6
  2  3  1  0
  2  6  1  0
  3  4  1  0
  4  8  1  0
  4  5  2  0
  6  9  1  0
  7  6  2  0
  9 10  1  0
 10 11  1  1
 11 12  1  0
 12 16  1  0
 12 13  2  0
 13 14  1  0
 15 14  1  0
 16 15  2  0
 17 10  1  0
 17 24  1  0
 18 17  2  0
 19 20  1  0
 20 21  1  0
 21 23  1  0
 21 22  1  1
 23 24  1  6
 23 25  1  0
 25 26  2  0
 25 27  1  0
M  END
$$$$
