DHI.pdb
     RDKit          3D

 27 27  0  0  1  0  0  0  0  0999 V2000
   10.0084  -14.2702   18.9973 N   0  0  0  0  0  0  0  0  0  0  0  0
    8.6577  -13.8787   19.2760 C   0  0  1  0  0  0  0  0  0  0  0  0
    7.8104  -14.3126   18.0732 C   0  0  0  0  0  0  0  0  0  0  0  0
    8.4940  -13.9161   16.8059 C   0  0  0  0  0  0  0  0  0  0  0  0
    9.4204  -14.6184   16.3251 O   0  0  0  0  0  0  0  0  0  0  0  0
    8.2002  -14.5750   20.5056 C   0  0  0  0  0  0  0  0  0  0  0  0
    7.0353  -14.4530   20.9669 O   0  0  0  0  0  0  0  0  0  0  0  0
    8.1433  -12.7700   16.1099 O   0  0  0  0  0  0  0  0  0  0  0  0
    9.0801  -15.4402   21.2458 N   0  0  0  0  0  0  0  0  0  0  0  0
    8.6793  -16.1938   22.3931 C   0  0  1  0  0  0  0  0  0  0  0  0
    9.3363  -17.5547   22.4357 C   0  0  0  0  0  0  0  0  0  0  0  0
    8.7856  -18.4423   21.3823 C   0  0  0  0  0  0  0  0  0  0  0  0
    7.4364  -18.6375   21.0662 C   0  0  0  0  0  0  0  0  0  0  0  0
    7.3509  -19.5168   20.0538 N   0  0  0  0  0  0  0  0  0  0  0  0
    8.5976  -19.8863   19.7165 C   0  0  0  0  0  0  0  0  0  0  0  0
    9.4640  -19.2281   20.5295 N   0  0  0  0  0  0  0  0  0  0  0  0
    8.9417  -15.4030   23.6117 C   0  0  0  0  0  0  0  0  0  0  0  0
   10.0452  -14.8124   23.7177 O   0  0  0  0  0  0  0  0  0  0  0  0
    5.3675  -12.0339   25.4407 C   0  0  0  0  0  0  0  0  0  0  0  0
    6.6631  -12.7547   25.0594 C   0  0  0  0  0  0  0  0  0  0  0  0
    7.1305  -13.6049   26.2034 C   0  0  2  0  0  0  0  0  0  0  0  0
    7.4233  -12.6553   27.3553 C   0  0  0  0  0  0  0  0  0  0  0  0
    8.3191  -14.4126   25.8167 C   0  0  2  0  0  0  0  0  0  0  0  0
    8.0031  -15.2779   24.6733 N   0  0  0  0  0  0  0  0  0  0  0  0
    8.7801  -15.2842   26.9021 C   0  0  0  0  0  0  0  0  0  0  0  0
    8.3113  -16.4696   27.0028 O   0  0  0  0  0  0  0  0  0  0  0  0
    9.7190  -14.8571   27.8262 O   0  0  0  0  0  0  0  0  0  0  0  0
  2  1  1  6
  2  3  1  0
  2  6  1  0
  3  4  1  0
  4  8  1  0
  4  5  2  0
  6  9  1  0
  7  6  2  0
  9 10  1  0
 10 11  1  1
 11 12  1  0
 12 16  1  0
 12 13  2  0
 13 14  1  0
 15 14  1  0
 16 15  2  0
 17 10  1  0
 17 24  1  0
 18 17  2  0
 19 20  1  0
 20 21  1  0
 21 23  1  0
 21 22  1  1
 23 24  1  6
 23 25  1  0
 25 26  2  0
 25 27  1  0
M  END
$$$$
