DHI.pdb
     RDKit          3D

 27 27  0  0  1  0  0  0  0  0999 V2000
    9.3342  -17.5230   19.6576 N   0  0  0  0  0  0  0  0  0  0  0  0
    8.2221  -16.6199   19.6038 C   0  0  1  0  0  0  0  0  0  0  0  0
    7.2306  -17.1938   18.5837 C   0  0  0  0  0  0  0  0  0  0  0  0
    7.9257  -17.4303   17.2833 C   0  0  0  0  0  0  0  0  0  0  0  0
    8.6576  -18.4399   17.1167 O   0  0  0  0  0  0  0  0  0  0  0  0
    7.5946  -16.5506   20.9483 C   0  0  0  0  0  0  0  0  0  0  0  0
    6.5030  -15.9619   21.1636 O   0  0  0  0  0  0  0  0  0  0  0  0
    7.7979  -16.5589   16.2131 O   0  0  0  0  0  0  0  0  0  0  0  0
    8.2128  -17.1637   22.0940 N   0  0  0  0  0  0  0  0  0  0  0  0
    7.6280  -17.1887   23.3988 C   0  0  1  0  0  0  0  0  0  0  0  0
    7.6920  -18.5642   24.0227 C   0  0  0  0  0  0  0  0  0  0  0  0
    6.7579  -19.4971   23.3459 C   0  0  0  0  0  0  0  0  0  0  0  0
    5.3593  -19.4575   23.3755 C   0  0  0  0  0  0  0  0  0  0  0  0
    4.8809  -20.4733   22.6377 N   0  0  0  0  0  0  0  0  0  0  0  0
    5.9259  -21.1560   22.1412 C   0  0  0  0  0  0  0  0  0  0  0  0
    7.0636  -20.5555   22.5768 N   0  0  0  0  0  0  0  0  0  0  0  0
    8.2684  -16.1582   24.2397 C   0  0  0  0  0  0  0  0  0  0  0  0
    9.4886  -15.9156   24.0666 O   0  0  0  0  0  0  0  0  0  0  0  0
    5.6860  -11.6934   25.8540 C   0  0  0  0  0  0  0  0  0  0  0  0
    6.8050  -12.6187   25.3690 C   0  0  0  0  0  0  0  0  0  0  0  0
    7.3804  -13.3762   26.5287 C   0  0  2  0  0  0  0  0  0  0  0  0
    8.0863  -12.3525   27.4052 C   0  0  0  0  0  0  0  0  0  0  0  0
    8.2964  -14.4519   26.0614 C   0  0  2  0  0  0  0  0  0  0  0  0
    7.5683  -15.4257   25.2383 N   0  0  0  0  0  0  0  0  0  0  0  0
    8.9009  -15.1935   27.1726 C   0  0  0  0  0  0  0  0  0  0  0  0
    9.8266  -14.6486   27.8663 O   0  0  0  0  0  0  0  0  0  0  0  0
    8.4915  -16.4762   27.4964 O   0  0  0  0  0  0  0  0  0  0  0  0
  2  1  1  1
  2  3  1  0
  2  6  1  0
  3  4  1  0
  4  8  1  0
  4  5  2  0
  6  9  1  0
  7  6  2  0
  9 10  1  0
 10 11  1  1
 11 12  1  0
 12 16  1  0
 12 13  2  0
 13 14  1  0
 15 14  1  0
 16 15  2  0
 17 10  1  0
 17 24  1  0
 18 17  2  0
 19 20  1  0
 20 21  1  0
 21 23  1  0
 21 22  1  1
 23 24  1  6
 23 25  1  0
 25 26  2  0
 25 27  1  0
M  END
$$$$
