DHI.pdb
     RDKit          3D

 27 27  0  0  1  0  0  0  0  0999 V2000
   11.1259  -15.5627   18.2603 N   0  0  0  0  0  0  0  0  0  0  0  0
   11.5592  -15.6297   19.6252 C   0  0  1  0  0  0  0  0  0  0  0  0
   12.4841  -14.4285   19.8590 C   0  0  0  0  0  0  0  0  0  0  0  0
   13.8976  -14.8178   19.5749 C   0  0  0  0  0  0  0  0  0  0  0  0
   14.2833  -16.0055   19.7280 O   0  0  0  0  0  0  0  0  0  0  0  0
   10.3702  -15.5436   20.5110 C   0  0  0  0  0  0  0  0  0  0  0  0
    9.3705  -14.8261   20.2455 O   0  0  0  0  0  0  0  0  0  0  0  0
   14.8379  -13.8997   19.1348 O   0  0  0  0  0  0  0  0  0  0  0  0
   10.2981  -16.2888   21.7399 N   0  0  0  0  0  0  0  0  0  0  0  0
    9.1147  -16.4061   22.5341 C   0  0  1  0  0  0  0  0  0  0  0  0
    8.6736  -17.8441   22.6857 C   0  0  0  0  0  0  0  0  0  0  0  0
    8.0781  -18.3515   21.4252 C   0  0  0  0  0  0  0  0  0  0  0  0
    7.0357  -17.7718   20.6932 C   0  0  0  0  0  0  0  0  0  0  0  0
    6.7874  -18.5333   19.6145 N   0  0  0  0  0  0  0  0  0  0  0  0
    7.6349  -19.5753   19.6360 C   0  0  0  0  0  0  0  0  0  0  0  0
    8.4163  -19.4569   20.7406 N   0  0  0  0  0  0  0  0  0  0  0  0
    9.3333  -15.7437   23.8351 C   0  0  0  0  0  0  0  0  0  0  0  0
   10.4902  -15.7486   24.3241 O   0  0  0  0  0  0  0  0  0  0  0  0
    5.7943  -11.9367   25.7821 C   0  0  0  0  0  0  0  0  0  0  0  0
    7.1010  -12.6218   25.3741 C   0  0  0  0  0  0  0  0  0  0  0  0
    7.4399  -13.7028   26.3573 C   0  0  2  0  0  0  0  0  0  0  0  0
    7.7315  -13.0080   27.6789 C   0  0  0  0  0  0  0  0  0  0  0  0
    8.5891  -14.5181   25.8784 C   0  0  2  0  0  0  0  0  0  0  0  0
    8.2944  -15.0991   24.5625 N   0  0  0  0  0  0  0  0  0  0  0  0
    8.8997  -15.6312   26.7811 C   0  0  0  0  0  0  0  0  0  0  0  0
    9.8428  -15.5070   27.6357 O   0  0  0  0  0  0  0  0  0  0  0  0
    8.1924  -16.8209   26.7358 O   0  0  0  0  0  0  0  0  0  0  0  0
  2  1  1  6
  2  3  1  0
  2  6  1  0
  3  4  1  0
  4  8  1  0
  4  5  2  0
  6  9  1  0
  7  6  2  0
  9 10  1  0
 10 11  1  1
 11 12  1  0
 12 16  1  0
 12 13  2  0
 13 14  1  0
 15 14  1  0
 16 15  2  0
 17 10  1  0
 17 24  1  0
 18 17  2  0
 19 20  1  0
 20 21  1  0
 21 23  1  0
 21 22  1  1
 23 24  1  6
 23 25  1  0
 25 26  2  0
 25 27  1  0
M  END
$$$$
