DHI.pdb
     RDKit          3D

 27 27  0  0  1  0  0  0  0  0999 V2000
   11.2098  -19.7071   22.6308 N   0  0  0  0  0  0  0  0  0  0  0  0
   12.2188  -18.7288   22.9134 C   0  0  1  0  0  0  0  0  0  0  0  0
   13.3757  -18.9872   21.9398 C   0  0  0  0  0  0  0  0  0  0  0  0
   14.0885  -20.2415   22.3258 C   0  0  0  0  0  0  0  0  0  0  0  0
   14.5064  -21.0422   21.4500 O   0  0  0  0  0  0  0  0  0  0  0  0
   11.6507  -17.3749   22.6893 C   0  0  0  0  0  0  0  0  0  0  0  0
   12.3097  -16.3181   22.8727 O   0  0  0  0  0  0  0  0  0  0  0  0
   14.3196  -20.5770   23.6506 O   0  0  0  0  0  0  0  0  0  0  0  0
   10.2940  -17.1981   22.2432 N   0  0  0  0  0  0  0  0  0  0  0  0
    9.6873  -15.9228   22.0187 C   0  0  1  0  0  0  0  0  0  0  0  0
    8.3531  -16.0448   21.3184 C   0  0  0  0  0  0  0  0  0  0  0  0
    7.8222  -14.7086   20.9530 C   0  0  0  0  0  0  0  0  0  0  0  0
    8.5136  -13.6738   20.3131 C   0  0  0  0  0  0  0  0  0  0  0  0
    7.6845  -12.6276   20.1604 N   0  0  0  0  0  0  0  0  0  0  0  0
    6.4918  -12.9618   20.6804 C   0  0  0  0  0  0  0  0  0  0  0  0
    6.5844  -14.2290   21.1603 N   0  0  0  0  0  0  0  0  0  0  0  0
    9.5864  -15.1985   23.3011 C   0  0  0  0  0  0  0  0  0  0  0  0
    9.9261  -13.9898   23.3360 O   0  0  0  0  0  0  0  0  0  0  0  0
    7.0814  -11.8419   24.7752 C   0  0  0  0  0  0  0  0  0  0  0  0
    8.2361  -12.8468   24.7883 C   0  0  0  0  0  0  0  0  0  0  0  0
    7.8591  -14.0477   25.6043 C   0  0  2  0  0  0  0  0  0  0  0  0
    7.4007  -13.5237   26.9569 C   0  0  0  0  0  0  0  0  0  0  0  0
    9.0016  -14.9944   25.7192 C   0  0  2  0  0  0  0  0  0  0  0  0
    9.1221  -15.8053   24.5011 N   0  0  0  0  0  0  0  0  0  0  0  0
    8.8466  -15.9242   26.8423 C   0  0  0  0  0  0  0  0  0  0  0  0
    8.4528  -17.1207   26.6221 O   0  0  0  0  0  0  0  0  0  0  0  0
    9.1204  -15.5408   28.1446 O   0  0  0  0  0  0  0  0  0  0  0  0
  2  1  1  6
  2  3  1  0
  2  6  1  0
  3  4  1  0
  4  8  1  0
  4  5  2  0
  6  9  1  0
  7  6  2  0
  9 10  1  0
 10 11  1  1
 11 12  1  0
 12 16  1  0
 12 13  2  0
 13 14  1  0
 15 14  1  0
 16 15  2  0
 17 10  1  0
 17 24  1  0
 18 17  2  0
 19 20  1  0
 20 21  1  0
 21 23  1  0
 21 22  1  1
 23 24  1  6
 23 25  1  0
 25 26  2  0
 25 27  1  0
M  END
$$$$
