DHI.pdb
     RDKit          3D

 27 27  0  0  1  0  0  0  0  0999 V2000
   11.8048  -16.5474   19.8416 N   0  0  0  0  0  0  0  0  0  0  0  0
   12.3371  -15.3763   20.4744 C   0  0  1  0  0  0  0  0  0  0  0  0
   12.9426  -14.5064   19.3655 C   0  0  0  0  0  0  0  0  0  0  0  0
   14.2872  -15.0353   18.9877 C   0  0  0  0  0  0  0  0  0  0  0  0
   14.3990  -16.0827   18.2998 O   0  0  0  0  0  0  0  0  0  0  0  0
   11.2310  -14.6514   21.1506 C   0  0  0  0  0  0  0  0  0  0  0  0
   11.3984  -13.5611   21.7570 O   0  0  0  0  0  0  0  0  0  0  0  0
   15.4594  -14.4042   19.3731 O   0  0  0  0  0  0  0  0  0  0  0  0
    9.8875  -15.1670   21.1474 N   0  0  0  0  0  0  0  0  0  0  0  0
    8.7684  -14.4823   21.7162 C   0  0  1  0  0  0  0  0  0  0  0  0
    7.5021  -14.7074   20.9216 C   0  0  0  0  0  0  0  0  0  0  0  0
    7.6909  -14.3190   19.5023 C   0  0  0  0  0  0  0  0  0  0  0  0
    7.7412  -13.0199   18.9842 C   0  0  0  0  0  0  0  0  0  0  0  0
    7.9254  -13.0898   17.6552 N   0  0  0  0  0  0  0  0  0  0  0  0
    7.9938  -14.3867   17.3116 C   0  0  0  0  0  0  0  0  0  0  0  0
    7.8503  -15.1273   18.4411 N   0  0  0  0  0  0  0  0  0  0  0  0
    8.6233  -14.8771   23.1312 C   0  0  0  0  0  0  0  0  0  0  0  0
    9.3816  -15.7692   23.5861 O   0  0  0  0  0  0  0  0  0  0  0  0
    6.1251  -11.1681   26.2449 C   0  0  0  0  0  0  0  0  0  0  0  0
    7.2640  -12.0962   25.8148 C   0  0  0  0  0  0  0  0  0  0  0  0
    6.9380  -13.5121   26.1876 C   0  0  2  0  0  0  0  0  0  0  0  0
    7.1049  -13.6104   27.6966 C   0  0  0  0  0  0  0  0  0  0  0  0
    7.8100  -14.4706   25.4559 C   0  0  2  0  0  0  0  0  0  0  0  0
    7.6641  -14.2945   24.0055 N   0  0  0  0  0  0  0  0  0  0  0  0
    7.4803  -15.8676   25.7556 C   0  0  0  0  0  0  0  0  0  0  0  0
    6.5205  -16.4379   25.1323 O   0  0  0  0  0  0  0  0  0  0  0  0
    8.1874  -16.5932   26.6998 O   0  0  0  0  0  0  0  0  0  0  0  0
  2  1  1  6
  2  3  1  0
  2  6  1  0
  3  4  1  0
  4  8  1  0
  4  5  2  0
  6  9  1  0
  7  6  2  0
  9 10  1  0
 10 11  1  6
 11 12  1  0
 12 16  1  0
 12 13  2  0
 13 14  1  0
 15 14  1  0
 16 15  2  0
 17 10  1  0
 17 24  1  0
 18 17  2  0
 19 20  1  0
 20 21  1  0
 21 23  1  0
 21 22  1  1
 23 24  1  6
 23 25  1  0
 25 26  2  0
 25 27  1  0
M  END
$$$$
