DHI.pdb
     RDKit          3D

 27 27  0  0  1  0  0  0  0  0999 V2000
   12.1683  -16.3654   19.6447 N   0  0  0  0  0  0  0  0  0  0  0  0
   12.5685  -15.1163   20.2235 C   0  0  1  0  0  0  0  0  0  0  0  0
   13.1183  -14.2517   19.0820 C   0  0  0  0  0  0  0  0  0  0  0  0
   14.4098  -14.8219   18.5949 C   0  0  0  0  0  0  0  0  0  0  0  0
   15.1337  -15.5194   19.3514 O   0  0  0  0  0  0  0  0  0  0  0  0
   11.3799  -14.4674   20.8337 C   0  0  0  0  0  0  0  0  0  0  0  0
   11.4295  -13.3442   21.3998 O   0  0  0  0  0  0  0  0  0  0  0  0
   14.8645  -14.6115   17.3027 O   0  0  0  0  0  0  0  0  0  0  0  0
   10.0877  -15.1003   20.8089 N   0  0  0  0  0  0  0  0  0  0  0  0
    8.9026  -14.5171   21.3569 C   0  0  1  0  0  0  0  0  0  0  0  0
    7.6623  -14.9367   20.6012 C   0  0  0  0  0  0  0  0  0  0  0  0
    7.7204  -14.4786   19.1913 C   0  0  0  0  0  0  0  0  0  0  0  0
    7.7402  -13.1555   18.7358 C   0  0  0  0  0  0  0  0  0  0  0  0
    7.7955  -13.1597   17.3934 N   0  0  0  0  0  0  0  0  0  0  0  0
    7.8117  -14.4381   16.9810 C   0  0  0  0  0  0  0  0  0  0  0  0
    7.7657  -15.2336   18.0809 N   0  0  0  0  0  0  0  0  0  0  0  0
    8.8216  -14.8384   22.7954 C   0  0  0  0  0  0  0  0  0  0  0  0
    9.6005  -15.7067   23.2611 O   0  0  0  0  0  0  0  0  0  0  0  0
    7.5414  -11.4522   27.7080 C   0  0  0  0  0  0  0  0  0  0  0  0
    8.0190  -12.8005   27.1625 C   0  0  0  0  0  0  0  0  0  0  0  0
    7.5757  -12.9616   25.7386 C   0  0  2  0  0  0  0  0  0  0  0  0
    6.0573  -13.0520   25.7671 C   0  0  0  0  0  0  0  0  0  0  0  0
    8.2044  -14.1584   25.1165 C   0  0  2  0  0  0  0  0  0  0  0  0
    7.9019  -14.2105   23.6807 N   0  0  0  0  0  0  0  0  0  0  0  0
    7.7225  -15.4125   25.7042 C   0  0  0  0  0  0  0  0  0  0  0  0
    6.8394  -16.1010   25.0869 O   0  0  0  0  0  0  0  0  0  0  0  0
    8.2037  -15.8773   26.9167 O   0  0  0  0  0  0  0  0  0  0  0  0
  2  1  1  6
  2  3  1  0
  2  6  1  0
  3  4  1  0
  4  8  1  0
  4  5  2  0
  6  9  1  0
  7  6  2  0
  9 10  1  0
 10 11  1  6
 11 12  1  0
 12 16  1  0
 12 13  2  0
 13 14  1  0
 15 14  1  0
 16 15  2  0
 17 10  1  0
 17 24  1  0
 18 17  2  0
 19 20  1  0
 20 21  1  0
 21 23  1  0
 21 22  1  1
 23 24  1  6
 23 25  1  0
 25 26  2  0
 25 27  1  0
M  END
$$$$
