DHI.pdb
     RDKit          3D

 27 27  0  0  1  0  0  0  0  0999 V2000
   10.8334  -18.3316   20.6836 N   0  0  0  0  0  0  0  0  0  0  0  0
   11.7579  -17.3059   21.0690 C   0  0  1  0  0  0  0  0  0  0  0  0
   12.5401  -16.9141   19.8089 C   0  0  0  0  0  0  0  0  0  0  0  0
   13.5857  -17.9419   19.5249 C   0  0  0  0  0  0  0  0  0  0  0  0
   13.8613  -18.2729   18.3428 O   0  0  0  0  0  0  0  0  0  0  0  0
   10.9946  -16.1404   21.5837 C   0  0  0  0  0  0  0  0  0  0  0  0
   11.5325  -15.0331   21.8467 O   0  0  0  0  0  0  0  0  0  0  0  0
   14.2918  -18.5708   20.5382 O   0  0  0  0  0  0  0  0  0  0  0  0
    9.5759  -16.2180   21.8122 N   0  0  0  0  0  0  0  0  0  0  0  0
    8.7879  -15.1357   22.3146 C   0  0  1  0  0  0  0  0  0  0  0  0
    7.5024  -14.9620   21.5383 C   0  0  0  0  0  0  0  0  0  0  0  0
    7.7803  -14.5865   20.1302 C   0  0  0  0  0  0  0  0  0  0  0  0
    8.0471  -13.3041   19.6375 C   0  0  0  0  0  0  0  0  0  0  0  0
    8.2457  -13.3817   18.3109 N   0  0  0  0  0  0  0  0  0  0  0  0
    8.1145  -14.6675   17.9445 C   0  0  0  0  0  0  0  0  0  0  0  0
    7.8314  -15.3933   19.0571 N   0  0  0  0  0  0  0  0  0  0  0  0
    8.5519  -15.3338   23.7583 C   0  0  0  0  0  0  0  0  0  0  0  0
    8.8854  -16.4284   24.2762 O   0  0  0  0  0  0  0  0  0  0  0  0
    5.5652  -11.6962   27.0338 C   0  0  0  0  0  0  0  0  0  0  0  0
    6.0626  -12.8738   26.1917 C   0  0  0  0  0  0  0  0  0  0  0  0
    7.3629  -13.3815   26.7408 C   0  0  2  0  0  0  0  0  0  0  0  0
    8.3633  -12.2437   26.6028 C   0  0  0  0  0  0  0  0  0  0  0  0
    7.7995  -14.6117   26.0262 C   0  0  2  0  0  0  0  0  0  0  0  0
    7.9637  -14.3426   24.5922 N   0  0  0  0  0  0  0  0  0  0  0  0
    6.8302  -15.7049   26.1513 C   0  0  0  0  0  0  0  0  0  0  0  0
    6.6396  -16.2528   27.2908 O   0  0  0  0  0  0  0  0  0  0  0  0
    6.1073  -16.1614   25.0618 O   0  0  0  0  0  0  0  0  0  0  0  0
  2  1  1  6
  2  3  1  0
  2  6  1  0
  3  4  1  0
  4  8  1  0
  4  5  2  0
  6  9  1  0
  7  6  2  0
  9 10  1  0
 10 11  1  6
 11 12  1  0
 12 16  1  0
 12 13  2  0
 13 14  1  0
 15 14  1  0
 16 15  2  0
 17 10  1  0
 17 24  1  0
 18 17  2  0
 19 20  1  0
 20 21  1  0
 21 23  1  0
 21 22  1  6
 23 24  1  6
 23 25  1  0
 25 26  2  0
 25 27  1  0
M  END
$$$$
