DHI.pdb
     RDKit          3D

 27 27  0  0  1  0  0  0  0  0999 V2000
   11.5099  -15.6027   18.2597 N   0  0  0  0  0  0  0  0  0  0  0  0
   11.7624  -15.4991   19.6671 C   0  0  1  0  0  0  0  0  0  0  0  0
   12.6066  -14.2357   19.8769 C   0  0  0  0  0  0  0  0  0  0  0  0
   14.0194  -14.5005   19.4716 C   0  0  0  0  0  0  0  0  0  0  0  0
   14.6360  -15.5094   19.9014 O   0  0  0  0  0  0  0  0  0  0  0  0
   10.4650  -15.3751   20.3795 C   0  0  0  0  0  0  0  0  0  0  0  0
    9.5606  -14.5773   20.0187 O   0  0  0  0  0  0  0  0  0  0  0  0
   14.7077  -13.6571   18.6138 O   0  0  0  0  0  0  0  0  0  0  0  0
   10.1698  -16.1744   21.5392 N   0  0  0  0  0  0  0  0  0  0  0  0
    8.9204  -16.1418   22.2341 C   0  0  1  0  0  0  0  0  0  0  0  0
    8.3666  -17.5285   22.4705 C   0  0  0  0  0  0  0  0  0  0  0  0
    7.6892  -18.0429   21.2550 C   0  0  0  0  0  0  0  0  0  0  0  0
    7.4774  -17.3559   20.0543 C   0  0  0  0  0  0  0  0  0  0  0  0
    6.8301  -18.1656   19.1996 N   0  0  0  0  0  0  0  0  0  0  0  0
    6.6236  -19.3417   19.8151 C   0  0  0  0  0  0  0  0  0  0  0  0
    7.1493  -19.2584   21.0647 N   0  0  0  0  0  0  0  0  0  0  0  0
    9.0794  -15.3775   23.4870 C   0  0  0  0  0  0  0  0  0  0  0  0
   10.2000  -15.3817   24.0544 O   0  0  0  0  0  0  0  0  0  0  0  0
    6.6863  -10.8827   26.9368 C   0  0  0  0  0  0  0  0  0  0  0  0
    7.5202  -12.1649   26.8755 C   0  0  0  0  0  0  0  0  0  0  0  0
    7.2659  -12.8786   25.5809 C   0  0  2  0  0  0  0  0  0  0  0  0
    5.8286  -13.3741   25.6365 C   0  0  0  0  0  0  0  0  0  0  0  0
    8.2410  -13.9849   25.3813 C   0  0  2  0  0  0  0  0  0  0  0  0
    8.0223  -14.6352   24.0832 N   0  0  0  0  0  0  0  0  0  0  0  0
    8.1252  -15.0245   26.4090 C   0  0  0  0  0  0  0  0  0  0  0  0
    8.5157  -14.7799   27.6018 O   0  0  0  0  0  0  0  0  0  0  0  0
    7.5973  -16.2723   26.1221 O   0  0  0  0  0  0  0  0  0  0  0  0
  2  1  1  6
  2  3  1  0
  2  6  1  0
  3  4  1  0
  4  8  1  0
  4  5  2  0
  6  9  1  0
  7  6  2  0
  9 10  1  0
 10 11  1  1
 11 12  1  0
 12 16  1  0
 12 13  2  0
 13 14  1  0
 15 14  1  0
 16 15  2  0
 17 10  1  0
 17 24  1  0
 18 17  2  0
 19 20  1  0
 20 21  1  0
 21 23  1  0
 21 22  1  1
 23 24  1  6
 23 25  1  0
 25 26  2  0
 25 27  1  0
M  END
$$$$
