DHI.pdb
     RDKit          3D

 27 27  0  0  1  0  0  0  0  0999 V2000
    8.7966  -16.9411   18.5412 N   0  0  0  0  0  0  0  0  0  0  0  0
    8.6415  -15.6355   19.1128 C   0  0  1  0  0  0  0  0  0  0  0  0
    7.9000  -14.7805   18.0773 C   0  0  0  0  0  0  0  0  0  0  0  0
    8.7584  -14.5947   16.8695 C   0  0  0  0  0  0  0  0  0  0  0  0
    9.8689  -15.1777   16.7707 O   0  0  0  0  0  0  0  0  0  0  0  0
    7.8380  -15.7487   20.3568 C   0  0  0  0  0  0  0  0  0  0  0  0
    6.6578  -15.3208   20.4496 O   0  0  0  0  0  0  0  0  0  0  0  0
    8.3757  -13.7813   15.8146 O   0  0  0  0  0  0  0  0  0  0  0  0
    8.3765  -16.3640   21.5410 N   0  0  0  0  0  0  0  0  0  0  0  0
    7.6266  -16.5815   22.7390 C   0  0  1  0  0  0  0  0  0  0  0  0
    7.4358  -18.0527   23.0294 C   0  0  0  0  0  0  0  0  0  0  0  0
    6.3670  -18.6271   22.1758 C   0  0  0  0  0  0  0  0  0  0  0  0
    6.5322  -19.3150   20.9683 C   0  0  0  0  0  0  0  0  0  0  0  0
    5.3233  -19.6741   20.5048 N   0  0  0  0  0  0  0  0  0  0  0  0
    4.3971  -19.2386   21.3750 C   0  0  0  0  0  0  0  0  0  0  0  0
    5.0406  -18.6030   22.3882 N   0  0  0  0  0  0  0  0  0  0  0  0
    8.2744  -15.8661   23.8561 C   0  0  0  0  0  0  0  0  0  0  0  0
    9.5291  -15.8515   23.9122 O   0  0  0  0  0  0  0  0  0  0  0  0
    5.6508  -11.6816   26.1873 C   0  0  0  0  0  0  0  0  0  0  0  0
    6.7275  -12.5437   25.5235 C   0  0  0  0  0  0  0  0  0  0  0  0
    7.3684  -13.4366   26.5443 C   0  0  2  0  0  0  0  0  0  0  0  0
    8.1076  -12.5247   27.5120 C   0  0  0  0  0  0  0  0  0  0  0  0
    8.2702  -14.4269   25.8956 C   0  0  2  0  0  0  0  0  0  0  0  0
    7.5442  -15.1913   24.8736 N   0  0  0  0  0  0  0  0  0  0  0  0
    8.8165  -15.3958   26.8511 C   0  0  0  0  0  0  0  0  0  0  0  0
    8.1346  -16.4329   27.1588 O   0  0  0  0  0  0  0  0  0  0  0  0
   10.0615  -15.2193   27.4313 O   0  0  0  0  0  0  0  0  0  0  0  0
  2  1  1  6
  2  3  1  0
  2  6  1  0
  3  4  1  0
  4  8  1  0
  4  5  2  0
  6  9  1  0
  7  6  2  0
  9 10  1  0
 10 11  1  1
 11 12  1  0
 12 16  1  0
 12 13  2  0
 13 14  1  0
 15 14  1  0
 16 15  2  0
 17 10  1  0
 17 24  1  0
 18 17  2  0
 19 20  1  0
 20 21  1  0
 21 23  1  0
 21 22  1  1
 23 24  1  6
 23 25  1  0
 25 26  2  0
 25 27  1  0
M  END
$$$$
