DHI.pdb
     RDKit          3D

 27 27  0  0  1  0  0  0  0  0999 V2000
   10.7098  -15.4134   18.5396 N   0  0  0  0  0  0  0  0  0  0  0  0
   11.2875  -15.6331   19.8331 C   0  0  1  0  0  0  0  0  0  0  0  0
   12.1720  -14.4177   20.1388 C   0  0  0  0  0  0  0  0  0  0  0  0
   13.4555  -14.5257   19.3829 C   0  0  0  0  0  0  0  0  0  0  0  0
   14.0922  -15.6100   19.3434 O   0  0  0  0  0  0  0  0  0  0  0  0
   10.1957  -15.7396   20.8345 C   0  0  0  0  0  0  0  0  0  0  0  0
    9.1498  -15.0411   20.7823 O   0  0  0  0  0  0  0  0  0  0  0  0
   13.9976  -13.4492   18.6986 O   0  0  0  0  0  0  0  0  0  0  0  0
   10.2785  -16.6629   21.9351 N   0  0  0  0  0  0  0  0  0  0  0  0
    9.2113  -16.9057   22.8554 C   0  0  1  0  0  0  0  0  0  0  0  0
    9.0778  -18.3728   23.1949 C   0  0  0  0  0  0  0  0  0  0  0  0
    8.0282  -18.5860   24.2214 C   0  0  0  0  0  0  0  0  0  0  0  0
    7.1965  -17.6146   24.7898 C   0  0  0  0  0  0  0  0  0  0  0  0
    6.3814  -18.2074   25.6783 N   0  0  0  0  0  0  0  0  0  0  0  0
    6.6662  -19.5201   25.6938 C   0  0  0  0  0  0  0  0  0  0  0  0
    7.6689  -19.7416   24.8048 N   0  0  0  0  0  0  0  0  0  0  0  0
    9.4005  -16.0650   24.0540 C   0  0  0  0  0  0  0  0  0  0  0  0
   10.5718  -15.8089   24.4285 O   0  0  0  0  0  0  0  0  0  0  0  0
    5.7149  -12.2898   25.6986 C   0  0  0  0  0  0  0  0  0  0  0  0
    7.0221  -12.9964   25.3308 C   0  0  0  0  0  0  0  0  0  0  0  0
    7.4072  -13.9565   26.4171 C   0  0  2  0  0  0  0  0  0  0  0  0
    7.6564  -13.1206   27.6635 C   0  0  0  0  0  0  0  0  0  0  0  0
    8.5977  -14.7579   26.0232 C   0  0  2  0  0  0  0  0  0  0  0  0
    8.3179  -15.5304   24.8063 N   0  0  0  0  0  0  0  0  0  0  0  0
    8.9949  -15.7159   27.0598 C   0  0  0  0  0  0  0  0  0  0  0  0
    8.4144  -16.8535   27.1245 O   0  0  0  0  0  0  0  0  0  0  0  0
    9.9913  -15.4221   27.9756 O   0  0  0  0  0  0  0  0  0  0  0  0
  2  1  1  6
  2  3  1  0
  2  6  1  0
  3  4  1  0
  4  8  1  0
  4  5  2  0
  6  9  1  0
  7  6  2  0
  9 10  1  0
 10 11  1  1
 11 12  1  0
 12 16  1  0
 12 13  2  0
 13 14  1  0
 15 14  1  0
 16 15  2  0
 17 10  1  0
 17 24  1  0
 18 17  2  0
 19 20  1  0
 20 21  1  0
 21 23  1  0
 21 22  1  1
 23 24  1  6
 23 25  1  0
 25 26  2  0
 25 27  1  0
M  END
$$$$
