DHI.pdb
     RDKit          3D

 27 27  0  0  1  0  0  0  0  0999 V2000
   11.6333  -17.8495   19.0686 N   0  0  0  0  0  0  0  0  0  0  0  0
   11.7938  -17.5505   20.4614 C   0  0  1  0  0  0  0  0  0  0  0  0
   13.0430  -16.6692   20.5874 C   0  0  0  0  0  0  0  0  0  0  0  0
   14.2666  -17.4929   20.3534 C   0  0  0  0  0  0  0  0  0  0  0  0
   14.3853  -18.6337   20.8702 O   0  0  0  0  0  0  0  0  0  0  0  0
   10.5945  -16.8136   20.9354 C   0  0  0  0  0  0  0  0  0  0  0  0
   10.2945  -15.6613   20.5269 O   0  0  0  0  0  0  0  0  0  0  0  0
   15.3148  -17.0436   19.5658 O   0  0  0  0  0  0  0  0  0  0  0  0
    9.6978  -17.3888   21.9028 N   0  0  0  0  0  0  0  0  0  0  0  0
    8.4982  -16.7552   22.3550 C   0  0  1  0  0  0  0  0  0  0  0  0
    7.3722  -17.7452   22.5486 C   0  0  0  0  0  0  0  0  0  0  0  0
    6.7730  -18.1275   21.2464 C   0  0  0  0  0  0  0  0  0  0  0  0
    7.0810  -17.5958   19.9891 C   0  0  0  0  0  0  0  0  0  0  0  0
    6.3228  -18.2057   19.0626 N   0  0  0  0  0  0  0  0  0  0  0  0
    5.5449  -19.1053   19.6872 C   0  0  0  0  0  0  0  0  0  0  0  0
    5.8252  -19.0512   21.0151 N   0  0  0  0  0  0  0  0  0  0  0  0
    8.7867  -15.9834   23.5799 C   0  0  0  0  0  0  0  0  0  0  0  0
    9.8111  -16.2750   24.2456 O   0  0  0  0  0  0  0  0  0  0  0  0
    7.0693  -10.9985   26.8565 C   0  0  0  0  0  0  0  0  0  0  0  0
    7.7900  -12.3468   26.7790 C   0  0  0  0  0  0  0  0  0  0  0  0
    7.5158  -12.9975   25.4557 C   0  0  2  0  0  0  0  0  0  0  0  0
    6.0094  -13.1949   25.3758 C   0  0  0  0  0  0  0  0  0  0  0  0
    8.2641  -14.2772   25.3254 C   0  0  2  0  0  0  0  0  0  0  0  0
    7.9583  -14.9236   24.0430 N   0  0  0  0  0  0  0  0  0  0  0  0
    7.9232  -15.2345   26.3825 C   0  0  0  0  0  0  0  0  0  0  0  0
    7.0109  -16.1063   26.1751 O   0  0  0  0  0  0  0  0  0  0  0  0
    8.5693  -15.2231   27.6073 O   0  0  0  0  0  0  0  0  0  0  0  0
  2  1  1  6
  2  3  1  0
  2  6  1  0
  3  4  1  0
  4  8  1  0
  4  5  2  0
  6  9  1  0
  7  6  2  0
  9 10  1  0
 10 11  1  1
 11 12  1  0
 12 16  1  0
 12 13  2  0
 13 14  1  0
 15 14  1  0
 16 15  2  0
 17 10  1  0
 17 24  1  0
 18 17  2  0
 19 20  1  0
 20 21  1  0
 21 23  1  0
 21 22  1  1
 23 24  1  6
 23 25  1  0
 25 26  2  0
 25 27  1  0
M  END
$$$$
