DWG.pdb
     RDKit          3D

 27 28  0  0  1  0  0  0  0  0999 V2000
   28.4596  -21.2328  -14.6650 N   0  0  0  0  0  0  0  0  0  0  0  0
   27.7019  -20.2165  -13.9859 C   0  0  1  0  0  0  0  0  0  0  0  0
   26.6925  -19.6105  -14.9583 C   0  0  0  0  0  0  0  0  0  0  0  0
   27.4079  -18.8439  -15.9813 C   0  0  0  0  0  0  0  0  0  0  0  0
   27.4364  -19.2535  -17.1758 O   0  0  0  0  0  0  0  0  0  0  0  0
   26.9243  -20.8223  -12.8273 C   0  0  0  0  0  0  0  0  0  0  0  0
   26.1131  -21.7222  -13.0819 O   0  0  0  0  0  0  0  0  0  0  0  0
   28.0823  -17.6594  -15.7440 O   0  0  0  0  0  0  0  0  0  0  0  0
   27.1406  -20.3554  -11.5284 N   0  0  0  0  0  0  0  0  0  0  0  0
   26.4809  -20.7229  -10.3144 C   0  0  1  0  0  0  0  0  0  0  0  0
   27.1616  -20.0904   -9.1007 C   0  0  0  0  0  0  0  0  0  0  0  0
   26.6105  -20.4770   -7.8009 C   0  0  0  0  0  0  0  0  0  0  0  0
   25.5173  -21.2063   -7.4326 C   0  0  0  0  0  0  0  0  0  0  0  0
   25.4767  -21.3269   -6.0790 N   0  0  0  0  0  0  0  0  0  0  0  0
   26.5454  -20.6747   -5.5892 C   0  0  0  0  0  0  0  0  0  0  0  0
   26.9785  -20.5133   -4.2655 C   0  0  0  0  0  0  0  0  0  0  0  0
   28.1338  -19.8148   -3.9641 C   0  0  0  0  0  0  0  0  0  0  0  0
   28.8636  -19.2704   -5.0154 C   0  0  0  0  0  0  0  0  0  0  0  0
   28.4154  -19.4429   -6.3070 C   0  0  0  0  0  0  0  0  0  0  0  0
   27.2712  -20.1350   -6.6182 C   0  0  0  0  0  0  0  0  0  0  0  0
   25.0691  -20.4080  -10.3871 C   0  0  0  0  0  0  0  0  0  0  0  0
   24.5533  -19.2532  -10.4622 O   0  0  0  0  0  0  0  0  0  0  0  0
   24.0756  -21.4651  -10.3862 N   0  0  0  0  0  0  0  0  0  0  0  0
   22.8020  -21.2050  -11.0620 C   0  0  0  0  0  0  0  0  0  0  0  0
   21.8599  -20.7288  -10.0177 C   0  0  0  0  0  0  0  0  0  0  0  0
   21.8584  -21.1927   -8.8429 O   0  0  0  0  0  0  0  0  0  0  0  0
   20.9006  -19.7303  -10.2509 O   0  0  0  0  0  0  0  0  0  0  0  0
  2  1  1  6
  2  3  1  0
  3  4  1  0
  4  8  1  0
  5  4  2  0
  6  2  1  0
  7  6  2  0
  9  6  1  0
 10  9  1  0
 10 11  1  1
 11 12  1  0
 12 20  1  0
 13 12  2  0
 13 14  1  0
 14 15  1  0
 15 16  2  0
 16 17  1  0
 18 17  2  0
 19 18  1  0
 20 19  2  0
 20 15  1  0
 21 23  1  0
 21 10  1  0
 22 21  2  0
 24 23  1  0
 25 24  1  0
 25 27  1  0
 26 25  2  0
M  END
$$$$
