DWG.pdb
     RDKit          3D

 27 28  0  0  1  0  0  0  0  0999 V2000
   16.0210  -18.6723    3.0260 N   0  0  0  0  0  0  0  0  0  0  0  0
   16.4221  -19.1114    4.3354 C   0  0  1  0  0  0  0  0  0  0  0  0
   16.7498  -20.6019    4.2854 C   0  0  0  0  0  0  0  0  0  0  0  0
   15.5105  -21.3631    4.1102 C   0  0  0  0  0  0  0  0  0  0  0  0
   14.4042  -20.8609    4.4555 O   0  0  0  0  0  0  0  0  0  0  0  0
   17.6770  -18.3747    4.7786 C   0  0  0  0  0  0  0  0  0  0  0  0
   18.5334  -18.1218    3.9210 O   0  0  0  0  0  0  0  0  0  0  0  0
   15.4426  -22.6372    3.5752 O   0  0  0  0  0  0  0  0  0  0  0  0
   17.8294  -18.0097    6.1186 N   0  0  0  0  0  0  0  0  0  0  0  0
   18.8450  -17.2081    6.7271 C   0  0  1  0  0  0  0  0  0  0  0  0
   18.2718  -15.8912    7.2501 C   0  0  0  0  0  0  0  0  0  0  0  0
   18.3220  -14.7692    6.3113 C   0  0  0  0  0  0  0  0  0  0  0  0
   17.4719  -14.3309    5.3377 C   0  0  0  0  0  0  0  0  0  0  0  0
   17.9590  -13.1919    4.7772 N   0  0  0  0  0  0  0  0  0  0  0  0
   19.1177  -12.9075    5.3968 C   0  0  0  0  0  0  0  0  0  0  0  0
   20.0031  -11.8362    5.2126 C   0  0  0  0  0  0  0  0  0  0  0  0
   21.1493  -11.7075    5.9763 C   0  0  0  0  0  0  0  0  0  0  0  0
   21.4061  -12.6757    6.9410 C   0  0  0  0  0  0  0  0  0  0  0  0
   20.5202  -13.7189    7.1010 C   0  0  0  0  0  0  0  0  0  0  0  0
   19.3790  -13.8564    6.3500 C   0  0  0  0  0  0  0  0  0  0  0  0
   19.5391  -17.9589    7.7527 C   0  0  0  0  0  0  0  0  0  0  0  0
   19.0121  -18.6797    8.6517 O   0  0  0  0  0  0  0  0  0  0  0  0
   20.9879  -17.9445    7.8257 N   0  0  0  0  0  0  0  0  0  0  0  0
   21.6288  -18.7931    8.8335 C   0  0  0  0  0  0  0  0  0  0  0  0
   21.5344  -18.0619   10.1223 C   0  0  0  0  0  0  0  0  0  0  0  0
   20.8896  -16.9827   10.2444 O   0  0  0  0  0  0  0  0  0  0  0  0
   22.1506  -18.5088   11.3023 O   0  0  0  0  0  0  0  0  0  0  0  0
  2  1  1  6
  2  3  1  0
  3  4  1  0
  4  8  1  0
  5  4  2  0
  6  2  1  0
  7  6  2  0
  9  6  1  0
 10  9  1  0
 10 11  1  1
 11 12  1  0
 12 20  1  0
 13 12  2  0
 13 14  1  0
 14 15  1  0
 15 16  2  0
 16 17  1  0
 18 17  2  0
 19 18  1  0
 20 19  2  0
 20 15  1  0
 21 23  1  0
 21 10  1  0
 22 21  2  0
 24 23  1  0
 25 24  1  0
 25 27  1  0
 26 25  2  0
M  END
$$$$
