DWG.pdb
     RDKit          3D

 27 28  0  0  1  0  0  0  0  0999 V2000
   28.1780  -21.2743  -13.8048 N   0  0  0  0  0  0  0  0  0  0  0  0
   27.2352  -20.3840  -13.1828 C   0  0  1  0  0  0  0  0  0  0  0  0
   26.1587  -20.0059  -14.1977 C   0  0  0  0  0  0  0  0  0  0  0  0
   26.7686  -19.2347  -15.2836 C   0  0  0  0  0  0  0  0  0  0  0  0
   27.0834  -18.0249  -15.1026 O   0  0  0  0  0  0  0  0  0  0  0  0
   26.5490  -21.0736  -12.0135 C   0  0  0  0  0  0  0  0  0  0  0  0
   26.2397  -22.2653  -12.1444 O   0  0  0  0  0  0  0  0  0  0  0  0
   27.0432  -19.7372  -16.5431 O   0  0  0  0  0  0  0  0  0  0  0  0
   26.2888  -20.3574  -10.8425 N   0  0  0  0  0  0  0  0  0  0  0  0
   25.7213  -20.8128   -9.6117 C   0  0  1  0  0  0  0  0  0  0  0  0
   26.2796  -20.0320   -8.4220 C   0  0  0  0  0  0  0  0  0  0  0  0
   27.6527  -20.3671   -8.0414 C   0  0  0  0  0  0  0  0  0  0  0  0
   28.6792  -20.9782   -8.7013 C   0  0  0  0  0  0  0  0  0  0  0  0
   29.7876  -20.9989   -7.9140 N   0  0  0  0  0  0  0  0  0  0  0  0
   29.4637  -20.3994   -6.7551 C   0  0  0  0  0  0  0  0  0  0  0  0
   30.2452  -20.1430   -5.6197 C   0  0  0  0  0  0  0  0  0  0  0  0
   29.7259  -19.4844   -4.5197 C   0  0  0  0  0  0  0  0  0  0  0  0
   28.3967  -19.0783   -4.5662 C   0  0  0  0  0  0  0  0  0  0  0  0
   27.6503  -19.3436   -5.6938 C   0  0  0  0  0  0  0  0  0  0  0  0
   28.1551  -19.9953   -6.7918 C   0  0  0  0  0  0  0  0  0  0  0  0
   24.2749  -20.7736   -9.6733 C   0  0  0  0  0  0  0  0  0  0  0  0
   23.4684  -21.0821   -8.7462 O   0  0  0  0  0  0  0  0  0  0  0  0
   23.5986  -20.3419  -10.8820 N   0  0  0  0  0  0  0  0  0  0  0  0
   22.1455  -20.1640  -10.8243 C   0  0  0  0  0  0  0  0  0  0  0  0
   21.5805  -20.9382  -11.9583 C   0  0  0  0  0  0  0  0  0  0  0  0
   22.2836  -21.7078  -12.6716 O   0  0  0  0  0  0  0  0  0  0  0  0
   20.2268  -20.8776  -12.3267 O   0  0  0  0  0  0  0  0  0  0  0  0
  2  1  1  6
  2  3  1  0
  3  4  1  0
  4  8  1  0
  5  4  2  0
  6  2  1  0
  7  6  2  0
  9  6  1  0
 10  9  1  0
 10 11  1  1
 11 12  1  0
 12 20  1  0
 13 12  2  0
 13 14  1  0
 14 15  1  0
 15 16  2  0
 16 17  1  0
 18 17  2  0
 19 18  1  0
 20 19  2  0
 20 15  1  0
 21 23  1  0
 21 10  1  0
 22 21  2  0
 24 23  1  0
 25 24  1  0
 25 27  1  0
 26 25  2  0
M  END
$$$$
