DWG.pdb
     RDKit          3D

 27 28  0  0  1  0  0  0  0  0999 V2000
   29.1450  -11.5378  -19.2990 N   0  0  0  0  0  0  0  0  0  0  0  0
   28.4885  -10.5118  -20.0637 C   0  0  1  0  0  0  0  0  0  0  0  0
   27.0381  -10.9211  -20.3095 C   0  0  0  0  0  0  0  0  0  0  0  0
   27.0083  -12.0747  -21.2119 C   0  0  0  0  0  0  0  0  0  0  0  0
   28.0080  -12.3373  -21.9379 O   0  0  0  0  0  0  0  0  0  0  0  0
   28.4765   -9.2020  -19.2903 C   0  0  0  0  0  0  0  0  0  0  0  0
   28.3369   -9.2563  -18.0613 O   0  0  0  0  0  0  0  0  0  0  0  0
   25.9363  -12.9396  -21.3428 O   0  0  0  0  0  0  0  0  0  0  0  0
   28.6196   -7.9922  -19.9743 N   0  0  0  0  0  0  0  0  0  0  0  0
   28.6756   -6.6613  -19.4548 C   0  0  1  0  0  0  0  0  0  0  0  0
   30.1164   -6.1567  -19.3783 C   0  0  0  0  0  0  0  0  0  0  0  0
   30.8420   -6.5154  -18.1587 C   0  0  0  0  0  0  0  0  0  0  0  0
   31.4605   -7.6597  -17.7455 C   0  0  0  0  0  0  0  0  0  0  0  0
   32.0463   -7.4575  -16.5353 N   0  0  0  0  0  0  0  0  0  0  0  0
   31.8000   -6.1839  -16.1819 C   0  0  0  0  0  0  0  0  0  0  0  0
   32.1952   -5.4684  -15.0428 C   0  0  0  0  0  0  0  0  0  0  0  0
   31.8538   -4.1390  -14.8710 C   0  0  0  0  0  0  0  0  0  0  0  0
   31.1015   -3.5219  -15.8646 C   0  0  0  0  0  0  0  0  0  0  0  0
   30.7253   -4.2480  -16.9737 C   0  0  0  0  0  0  0  0  0  0  0  0
   31.0592   -5.5674  -17.1556 C   0  0  0  0  0  0  0  0  0  0  0  0
   27.8176   -5.7803  -20.2197 C   0  0  0  0  0  0  0  0  0  0  0  0
   27.9990   -5.3936  -21.4125 O   0  0  0  0  0  0  0  0  0  0  0  0
   26.6012   -5.2454  -19.6375 N   0  0  0  0  0  0  0  0  0  0  0  0
   25.7916   -4.3420  -20.4589 C   0  0  0  0  0  0  0  0  0  0  0  0
   25.6619   -3.0771  -19.6922 C   0  0  0  0  0  0  0  0  0  0  0  0
   26.2714   -2.8779  -18.6039 O   0  0  0  0  0  0  0  0  0  0  0  0
   24.8562   -2.0067  -20.1128 O   0  0  0  0  0  0  0  0  0  0  0  0
  2  1  1  1
  2  3  1  0
  3  4  1  0
  4  8  1  0
  5  4  2  0
  6  2  1  0
  7  6  2  0
  9  6  1  0
 10  9  1  0
 10 11  1  6
 11 12  1  0
 12 20  1  0
 13 12  2  0
 13 14  1  0
 14 15  1  0
 15 16  2  0
 16 17  1  0
 18 17  2  0
 19 18  1  0
 20 19  2  0
 20 15  1  0
 21 23  1  0
 21 10  1  0
 22 21  2  0
 24 23  1  0
 25 24  1  0
 25 27  1  0
 26 25  2  0
M  END
$$$$
