DWG.pdb
     RDKit          3D

 27 28  0  0  1  0  0  0  0  0999 V2000
   28.6075  -20.9463  -13.2414 N   0  0  0  0  0  0  0  0  0  0  0  0
   27.4817  -20.1899  -12.7631 C   0  0  1  0  0  0  0  0  0  0  0  0
   26.4912  -19.9883  -13.9075 C   0  0  0  0  0  0  0  0  0  0  0  0
   27.1083  -19.1501  -14.9382 C   0  0  0  0  0  0  0  0  0  0  0  0
   27.3742  -19.6348  -16.0739 O   0  0  0  0  0  0  0  0  0  0  0  0
   26.7653  -20.9501  -11.6574 C   0  0  0  0  0  0  0  0  0  0  0  0
   26.7212  -22.1848  -11.7381 O   0  0  0  0  0  0  0  0  0  0  0  0
   27.4379  -17.8169  -14.7702 O   0  0  0  0  0  0  0  0  0  0  0  0
   26.1844  -20.2484  -10.5981 N   0  0  0  0  0  0  0  0  0  0  0  0
   25.4185  -20.7445   -9.4974 C   0  0  1  0  0  0  0  0  0  0  0  0
   25.9053  -20.1552   -8.1737 C   0  0  0  0  0  0  0  0  0  0  0  0
   27.2819  -20.4915   -7.8067 C   0  0  0  0  0  0  0  0  0  0  0  0
   28.2685  -21.1934   -8.4363 C   0  0  0  0  0  0  0  0  0  0  0  0
   29.4029  -21.1697   -7.6871 N   0  0  0  0  0  0  0  0  0  0  0  0
   29.1354  -20.4511   -6.5828 C   0  0  0  0  0  0  0  0  0  0  0  0
   29.9627  -20.1083   -5.5040 C   0  0  0  0  0  0  0  0  0  0  0  0
   29.4995  -19.3310   -4.4577 C   0  0  0  0  0  0  0  0  0  0  0  0
   28.1803  -18.8929   -4.5008 C   0  0  0  0  0  0  0  0  0  0  0  0
   27.3883  -19.2448   -5.5721 C   0  0  0  0  0  0  0  0  0  0  0  0
   27.8372  -20.0146   -6.6166 C   0  0  0  0  0  0  0  0  0  0  0  0
   24.0050  -20.5207   -9.7194 C   0  0  0  0  0  0  0  0  0  0  0  0
   23.0713  -20.6795   -8.8778 O   0  0  0  0  0  0  0  0  0  0  0  0
   23.5236  -20.0604  -11.0082 N   0  0  0  0  0  0  0  0  0  0  0  0
   22.0957  -19.7581  -11.1349 C   0  0  0  0  0  0  0  0  0  0  0  0
   21.5057  -20.8451  -11.9565 C   0  0  0  0  0  0  0  0  0  0  0  0
   22.0383  -21.2516  -13.0272 O   0  0  0  0  0  0  0  0  0  0  0  0
   20.3152  -21.5048  -11.6112 O   0  0  0  0  0  0  0  0  0  0  0  0
  2  1  1  6
  2  3  1  0
  3  4  1  0
  4  8  1  0
  5  4  2  0
  6  2  1  0
  7  6  2  0
  9  6  1  0
 10  9  1  0
 10 11  1  1
 11 12  1  0
 12 20  1  0
 13 12  2  0
 13 14  1  0
 14 15  1  0
 15 16  2  0
 16 17  1  0
 18 17  2  0
 19 18  1  0
 20 19  2  0
 20 15  1  0
 21 23  1  0
 21 10  1  0
 22 21  2  0
 24 23  1  0
 25 24  1  0
 25 27  1  0
 26 25  2  0
M  END
$$$$
