DWG.pdb
     RDKit          3D

 27 28  0  0  1  0  0  0  0  0999 V2000
   16.4088  -18.9192    2.6691 N   0  0  0  0  0  0  0  0  0  0  0  0
   16.1314  -18.9759    4.0792 C   0  0  1  0  0  0  0  0  0  0  0  0
   16.2775  -20.4176    4.5608 C   0  0  0  0  0  0  0  0  0  0  0  0
   15.3117  -21.2627    3.8545 C   0  0  0  0  0  0  0  0  0  0  0  0
   14.0974  -20.9208    3.7915 O   0  0  0  0  0  0  0  0  0  0  0  0
   17.1305  -18.1257    4.8491 C   0  0  0  0  0  0  0  0  0  0  0  0
   18.2914  -18.0676    4.4228 O   0  0  0  0  0  0  0  0  0  0  0  0
   15.6268  -22.4522    3.2220 O   0  0  0  0  0  0  0  0  0  0  0  0
   16.7205  -17.4449    5.9982 N   0  0  0  0  0  0  0  0  0  0  0  0
   17.4773  -16.5949    6.8635 C   0  0  1  0  0  0  0  0  0  0  0  0
   16.8377  -15.2114    6.9790 C   0  0  0  0  0  0  0  0  0  0  0  0
   17.3882  -14.1901    6.0864 C   0  0  0  0  0  0  0  0  0  0  0  0
   16.9047  -13.5691    4.9715 C   0  0  0  0  0  0  0  0  0  0  0  0
   17.7968  -12.6400    4.5362 N   0  0  0  0  0  0  0  0  0  0  0  0
   18.8458  -12.6713    5.3765 C   0  0  0  0  0  0  0  0  0  0  0  0
   20.0195  -11.9045    5.3875 C   0  0  0  0  0  0  0  0  0  0  0  0
   20.9842  -12.0754    6.3641 C   0  0  0  0  0  0  0  0  0  0  0  0
   20.7608  -13.0355    7.3449 C   0  0  0  0  0  0  0  0  0  0  0  0
   19.5993  -13.7762    7.3106 C   0  0  0  0  0  0  0  0  0  0  0  0
   18.6344  -13.6147    6.3472 C   0  0  0  0  0  0  0  0  0  0  0  0
   17.6738  -17.2260    8.1522 C   0  0  0  0  0  0  0  0  0  0  0  0
   16.7742  -17.5388    8.9877 O   0  0  0  0  0  0  0  0  0  0  0  0
   19.0059  -17.5761    8.6076 N   0  0  0  0  0  0  0  0  0  0  0  0
   19.1400  -18.1460    9.9506 C   0  0  0  0  0  0  0  0  0  0  0  0
   20.5837  -18.4336   10.1446 C   0  0  0  0  0  0  0  0  0  0  0  0
   21.3943  -18.5182    9.1796 O   0  0  0  0  0  0  0  0  0  0  0  0
   21.1608  -18.6332   11.4091 O   0  0  0  0  0  0  0  0  0  0  0  0
  2  1  1  6
  2  3  1  0
  3  4  1  0
  4  8  1  0
  5  4  2  0
  6  2  1  0
  7  6  2  0
  9  6  1  0
 10  9  1  0
 10 11  1  1
 11 12  1  0
 12 20  1  0
 13 12  2  0
 13 14  1  0
 14 15  1  0
 15 16  2  0
 16 17  1  0
 18 17  2  0
 19 18  1  0
 20 19  2  0
 20 15  1  0
 21 23  1  0
 21 10  1  0
 22 21  2  0
 24 23  1  0
 25 24  1  0
 25 27  1  0
 26 25  2  0
M  END
$$$$
