DWG.pdb
     RDKit          3D

 27 28  0  0  1  0  0  0  0  0999 V2000
   28.0807  -21.1504  -14.1481 N   0  0  0  0  0  0  0  0  0  0  0  0
   26.8477  -20.4806  -13.8329 C   0  0  1  0  0  0  0  0  0  0  0  0
   25.9239  -20.5341  -15.0475 C   0  0  0  0  0  0  0  0  0  0  0  0
   26.5472  -19.8136  -16.1603 C   0  0  0  0  0  0  0  0  0  0  0  0
   26.7543  -18.5706  -16.0737 O   0  0  0  0  0  0  0  0  0  0  0  0
   26.1433  -21.1837  -12.6825 C   0  0  0  0  0  0  0  0  0  0  0  0
   25.7827  -22.3556  -12.8538 O   0  0  0  0  0  0  0  0  0  0  0  0
   26.9477  -20.4006  -17.3475 O   0  0  0  0  0  0  0  0  0  0  0  0
   25.9238  -20.5009  -11.4835 N   0  0  0  0  0  0  0  0  0  0  0  0
   25.2604  -20.9468  -10.2980 C   0  0  1  0  0  0  0  0  0  0  0  0
   25.8513  -20.2879   -9.0517 C   0  0  0  0  0  0  0  0  0  0  0  0
   27.2249  -20.6772   -8.7285 C   0  0  0  0  0  0  0  0  0  0  0  0
   28.1520  -21.4430   -9.3739 C   0  0  0  0  0  0  0  0  0  0  0  0
   29.3158  -21.4502   -8.6710 N   0  0  0  0  0  0  0  0  0  0  0  0
   29.1266  -20.6874   -7.5802 C   0  0  0  0  0  0  0  0  0  0  0  0
   30.0118  -20.3518   -6.5461 C   0  0  0  0  0  0  0  0  0  0  0  0
   29.6274  -19.5228   -5.5075 C   0  0  0  0  0  0  0  0  0  0  0  0
   28.3290  -19.0249   -5.5126 C   0  0  0  0  0  0  0  0  0  0  0  0
   27.4788  -19.3710   -6.5403 C   0  0  0  0  0  0  0  0  0  0  0  0
   27.8493  -20.1917   -7.5768 C   0  0  0  0  0  0  0  0  0  0  0  0
   23.8306  -20.7452  -10.4088 C   0  0  0  0  0  0  0  0  0  0  0  0
   22.9639  -20.9540   -9.5085 O   0  0  0  0  0  0  0  0  0  0  0  0
   23.2480  -20.2489  -11.6413 N   0  0  0  0  0  0  0  0  0  0  0  0
   21.8170  -19.9348  -11.6415 C   0  0  0  0  0  0  0  0  0  0  0  0
   21.1387  -21.0584  -12.3359 C   0  0  0  0  0  0  0  0  0  0  0  0
   21.7661  -22.0643  -12.7718 O   0  0  0  0  0  0  0  0  0  0  0  0
   19.7533  -21.0930  -12.5624 O   0  0  0  0  0  0  0  0  0  0  0  0
  2  1  1  6
  2  3  1  0
  3  4  1  0
  4  8  1  0
  5  4  2  0
  6  2  1  0
  7  6  2  0
  9  6  1  0
 10  9  1  0
 10 11  1  1
 11 12  1  0
 12 20  1  0
 13 12  2  0
 13 14  1  0
 14 15  1  0
 15 16  2  0
 16 17  1  0
 18 17  2  0
 19 18  1  0
 20 19  2  0
 20 15  1  0
 21 23  1  0
 21 10  1  0
 22 21  2  0
 24 23  1  0
 25 24  1  0
 25 27  1  0
 26 25  2  0
M  END
$$$$
