DWG.pdb
     RDKit          3D

 27 28  0  0  1  0  0  0  0  0999 V2000
   27.1884  -22.2341  -15.0385 N   0  0  0  0  0  0  0  0  0  0  0  0
   26.5448  -21.1198  -14.3964 C   0  0  1  0  0  0  0  0  0  0  0  0
   25.5819  -20.4616  -15.3819 C   0  0  0  0  0  0  0  0  0  0  0  0
   26.3477  -19.8573  -16.4747 C   0  0  0  0  0  0  0  0  0  0  0  0
   27.6020  -19.7412  -16.3810 O   0  0  0  0  0  0  0  0  0  0  0  0
   25.7329  -21.5951  -13.2011 C   0  0  0  0  0  0  0  0  0  0  0  0
   25.1845  -22.7025  -13.2770 O   0  0  0  0  0  0  0  0  0  0  0  0
   25.7943  -19.3840  -17.6511 O   0  0  0  0  0  0  0  0  0  0  0  0
   25.6274  -20.7840  -12.0685 N   0  0  0  0  0  0  0  0  0  0  0  0
   24.7991  -20.9464  -10.9145 C   0  0  1  0  0  0  0  0  0  0  0  0
   25.4391  -20.3123   -9.6796 C   0  0  0  0  0  0  0  0  0  0  0  0
   26.8306  -20.6920   -9.4302 C   0  0  0  0  0  0  0  0  0  0  0  0
   27.7571  -21.3707  -10.1674 C   0  0  0  0  0  0  0  0  0  0  0  0
   28.9407  -21.4101   -9.4993 N   0  0  0  0  0  0  0  0  0  0  0  0
   28.7645  -20.7549   -8.3387 C   0  0  0  0  0  0  0  0  0  0  0  0
   29.6708  -20.4907   -7.3022 C   0  0  0  0  0  0  0  0  0  0  0  0
   29.2965  -19.7701   -6.1823 C   0  0  0  0  0  0  0  0  0  0  0  0
   27.9867  -19.3092   -6.1072 C   0  0  0  0  0  0  0  0  0  0  0  0
   27.1158  -19.5834   -7.1392 C   0  0  0  0  0  0  0  0  0  0  0  0
   27.4761  -20.2963   -8.2559 C   0  0  0  0  0  0  0  0  0  0  0  0
   23.4656  -20.4426  -11.1706 C   0  0  0  0  0  0  0  0  0  0  0  0
   23.0808  -19.2386  -11.0835 O   0  0  0  0  0  0  0  0  0  0  0  0
   22.4028  -21.3409  -11.5802 N   0  0  0  0  0  0  0  0  0  0  0  0
   21.0732  -20.7677  -11.8038 C   0  0  0  0  0  0  0  0  0  0  0  0
   20.1819  -21.8984  -12.1669 C   0  0  0  0  0  0  0  0  0  0  0  0
   20.6110  -23.0752  -12.3296 O   0  0  0  0  0  0  0  0  0  0  0  0
   18.7985  -21.7513  -12.3573 O   0  0  0  0  0  0  0  0  0  0  0  0
  2  1  1  6
  2  3  1  0
  3  4  1  0
  4  8  1  0
  5  4  2  0
  6  2  1  0
  7  6  2  0
  9  6  1  0
 10  9  1  0
 10 11  1  1
 11 12  1  0
 12 20  1  0
 13 12  2  0
 13 14  1  0
 14 15  1  0
 15 16  2  0
 16 17  1  0
 18 17  2  0
 19 18  1  0
 20 19  2  0
 20 15  1  0
 21 23  1  0
 21 10  1  0
 22 21  2  0
 24 23  1  0
 25 24  1  0
 25 27  1  0
 26 25  2  0
M  END
$$$$
