DWG.pdb
     RDKit          3D

 27 28  0  0  1  0  0  0  0  0999 V2000
   27.9375  -19.2814  -13.6294 N   0  0  0  0  0  0  0  0  0  0  0  0
   26.9398  -20.1056  -14.2567 C   0  0  1  0  0  0  0  0  0  0  0  0
   27.6222  -21.0668  -15.2274 C   0  0  0  0  0  0  0  0  0  0  0  0
   28.1702  -20.3073  -16.3537 C   0  0  0  0  0  0  0  0  0  0  0  0
   27.7611  -19.1352  -16.5866 O   0  0  0  0  0  0  0  0  0  0  0  0
   26.2104  -20.9389  -13.2139 C   0  0  0  0  0  0  0  0  0  0  0  0
   26.1271  -22.1596  -13.4029 O   0  0  0  0  0  0  0  0  0  0  0  0
   29.1392  -20.7807  -17.2205 O   0  0  0  0  0  0  0  0  0  0  0  0
   25.6618  -20.3167  -12.0898 N   0  0  0  0  0  0  0  0  0  0  0  0
   24.8856  -20.8838  -11.0314 C   0  0  1  0  0  0  0  0  0  0  0  0
   25.4117  -20.4482   -9.6640 C   0  0  0  0  0  0  0  0  0  0  0  0
   26.7931  -20.8346   -9.3719 C   0  0  0  0  0  0  0  0  0  0  0  0
   27.6964  -21.6243  -10.0222 C   0  0  0  0  0  0  0  0  0  0  0  0
   28.8816  -21.6162   -9.3558 N   0  0  0  0  0  0  0  0  0  0  0  0
   28.7296  -20.8198   -8.2834 C   0  0  0  0  0  0  0  0  0  0  0  0
   29.6480  -20.4576   -7.2879 C   0  0  0  0  0  0  0  0  0  0  0  0
   29.2997  -19.5957   -6.2635 C   0  0  0  0  0  0  0  0  0  0  0  0
   28.0038  -19.0915   -6.2435 C   0  0  0  0  0  0  0  0  0  0  0  0
   27.1205  -19.4642   -7.2333 C   0  0  0  0  0  0  0  0  0  0  0  0
   27.4551  -20.3177   -8.2554 C   0  0  0  0  0  0  0  0  0  0  0  0
   23.4813  -20.5780  -11.2103 C   0  0  0  0  0  0  0  0  0  0  0  0
   22.5488  -20.7852  -10.3780 O   0  0  0  0  0  0  0  0  0  0  0  0
   23.0096  -19.9638  -12.4370 N   0  0  0  0  0  0  0  0  0  0  0  0
   21.5764  -19.6825  -12.5519 C   0  0  0  0  0  0  0  0  0  0  0  0
   20.9820  -20.8194  -13.2994 C   0  0  0  0  0  0  0  0  0  0  0  0
   21.1733  -20.9924  -14.5359 O   0  0  0  0  0  0  0  0  0  0  0  0
   20.1644  -21.7881  -12.6954 O   0  0  0  0  0  0  0  0  0  0  0  0
  2  1  1  1
  2  3  1  0
  3  4  1  0
  4  8  1  0
  5  4  2  0
  6  2  1  0
  7  6  2  0
  9  6  1  0
 10  9  1  0
 10 11  1  1
 11 12  1  0
 12 20  1  0
 13 12  2  0
 13 14  1  0
 14 15  1  0
 15 16  2  0
 16 17  1  0
 18 17  2  0
 19 18  1  0
 20 19  2  0
 20 15  1  0
 21 23  1  0
 21 10  1  0
 22 21  2  0
 24 23  1  0
 25 24  1  0
 25 27  1  0
 26 25  2  0
M  END
$$$$
