IEG.pdb
     RDKit          3D

 22 21  0  0  1  0  0  0  0  0999 V2000
    6.2923  -11.4120   26.7098 C   0  0  0  0  0  0  0  0  0  0  0  0
    6.9886  -11.8897   25.4544 C   0  0  0  0  0  0  0  0  0  0  0  0
    6.9901  -13.4079   25.4484 C   0  0  2  0  0  0  0  0  0  0  0  0
    7.8278  -13.8637   26.6355 C   0  0  0  0  0  0  0  0  0  0  0  0
    7.6347  -13.9583   24.2109 C   0  0  2  0  0  0  0  0  0  0  0  0
    7.1732  -13.3541   22.9929 N   0  0  0  0  0  0  0  0  0  0  0  0
    7.5285  -15.4255   24.1996 C   0  0  0  0  0  0  0  0  0  0  0  0
    6.4004  -15.9378   23.9773 O   0  0  0  0  0  0  0  0  0  0  0  0
    8.6229  -16.2989   24.4247 N   0  0  0  0  0  0  0  0  0  0  0  0
    8.4314  -17.7203   24.3475 C   0  0  1  0  0  0  0  0  0  0  0  0
    9.3512  -18.3555   23.3292 C   0  0  0  0  0  0  0  0  0  0  0  0
    9.9290  -17.3513   22.3634 C   0  0  0  0  0  0  0  0  0  0  0  0
   11.0685  -17.9727   21.6665 C   0  0  0  0  0  0  0  0  0  0  0  0
   12.2249  -17.8175   22.1046 O   0  0  0  0  0  0  0  0  0  0  0  0
    8.6489  -18.3005   25.7080 C   0  0  0  0  0  0  0  0  0  0  0  0
    8.4272  -19.5175   25.9314 O   0  0  0  0  0  0  0  0  0  0  0  0
   10.8624  -18.7241   20.5333 O   0  0  0  0  0  0  0  0  0  0  0  0
    9.1122  -17.5247   26.8135 N   0  0  0  0  0  0  0  0  0  0  0  0
    9.2659  -18.0442   28.1352 C   0  0  0  0  0  0  0  0  0  0  0  0
   10.5555  -18.7285   28.3633 C   0  0  0  0  0  0  0  0  0  0  0  0
   10.8166  -19.2011   29.6409 O   0  0  0  0  0  0  0  0  0  0  0  0
   11.4360  -18.9151   27.4856 O   0  0  0  0  0  0  0  0  0  0  0  0
  2  1  1  0
  3  5  1  0
  3  2  1  0
  3  4  1  1
  5  7  1  0
  5  6  1  6
  7  8  2  0
  9  7  1  0
  9 10  1  0
 10 15  1  0
 10 11  1  6
 11 12  1  0
 12 13  1  0
 13 14  2  0
 13 17  1  0
 15 16  2  0
 18 19  1  0
 18 15  1  0
 20 19  1  0
 21 20  1  0
 22 20  2  0
M  END
$$$$
