IEG.pdb
     RDKit          3D

 22 21  0  0  1  0  0  0  0  0999 V2000
    9.3765  -19.5452   18.3015 C   0  0  0  0  0  0  0  0  0  0  0  0
    8.8022  -20.5056   19.3197 C   0  0  0  0  0  0  0  0  0  0  0  0
    9.3200  -20.1220   20.6943 C   0  0  2  0  0  0  0  0  0  0  0  0
   10.8352  -20.2715   20.6645 C   0  0  0  0  0  0  0  0  0  0  0  0
    8.8026  -21.0420   21.7600 C   0  0  2  0  0  0  0  0  0  0  0  0
    7.3726  -21.0430   21.8880 N   0  0  0  0  0  0  0  0  0  0  0  0
    9.4923  -20.7752   23.0318 C   0  0  0  0  0  0  0  0  0  0  0  0
    9.1641  -19.7485   23.6817 O   0  0  0  0  0  0  0  0  0  0  0  0
   10.5068  -21.6071   23.5704 N   0  0  0  0  0  0  0  0  0  0  0  0
   11.1931  -21.2136   24.7691 C   0  0  1  0  0  0  0  0  0  0  0  0
   11.0238  -22.2334   25.8726 C   0  0  0  0  0  0  0  0  0  0  0  0
    9.7115  -22.0868   26.6016 C   0  0  0  0  0  0  0  0  0  0  0  0
    9.6472  -23.1075   27.6617 C   0  0  0  0  0  0  0  0  0  0  0  0
    8.7055  -23.9237   27.6828 O   0  0  0  0  0  0  0  0  0  0  0  0
   12.6369  -21.0079   24.4406 C   0  0  0  0  0  0  0  0  0  0  0  0
   13.3623  -21.9747   24.0952 O   0  0  0  0  0  0  0  0  0  0  0  0
   10.6223  -23.1646   28.6298 O   0  0  0  0  0  0  0  0  0  0  0  0
   13.2672  -19.7280   24.4975 N   0  0  0  0  0  0  0  0  0  0  0  0
   14.3196  -19.4043   25.4076 C   0  0  0  0  0  0  0  0  0  0  0  0
   15.6297  -19.9778   25.0362 C   0  0  0  0  0  0  0  0  0  0  0  0
   16.5962  -19.1120   24.5463 O   0  0  0  0  0  0  0  0  0  0  0  0
   15.9356  -21.1936   25.1307 O   0  0  0  0  0  0  0  0  0  0  0  0
  2  1  1  0
  3  5  1  0
  3  2  1  0
  3  4  1  6
  5  7  1  0
  5  6  1  1
  7  8  2  0
  9  7  1  0
  9 10  1  0
 10 15  1  0
 10 11  1  1
 11 12  1  0
 12 13  1  0
 13 14  2  0
 13 17  1  0
 15 16  2  0
 18 19  1  0
 18 15  1  0
 20 19  1  0
 21 20  1  0
 22 20  2  0
M  END
$$$$
