IEG.pdb
     RDKit          3D

 22 21  0  0  1  0  0  0  0  0999 V2000
    7.1804  -11.7561   26.9974 C   0  0  0  0  0  0  0  0  0  0  0  0
    6.3278  -12.7183   26.1999 C   0  0  0  0  0  0  0  0  0  0  0  0
    7.1657  -13.9358   25.8528 C   0  0  2  0  0  0  0  0  0  0  0  0
    8.3323  -13.4537   25.0010 C   0  0  0  0  0  0  0  0  0  0  0  0
    6.3942  -14.9262   25.0320 C   0  0  2  0  0  0  0  0  0  0  0  0
    5.1558  -15.3413   25.6283 N   0  0  0  0  0  0  0  0  0  0  0  0
    7.2609  -16.0564   24.6637 C   0  0  0  0  0  0  0  0  0  0  0  0
    7.2107  -17.0980   25.3686 O   0  0  0  0  0  0  0  0  0  0  0  0
    8.1512  -16.0426   23.5599 N   0  0  0  0  0  0  0  0  0  0  0  0
    8.7713  -17.2632   23.1257 C   0  0  1  0  0  0  0  0  0  0  0  0
    8.9545  -17.2962   21.6251 C   0  0  0  0  0  0  0  0  0  0  0  0
    7.6973  -16.9251   20.8790 C   0  0  0  0  0  0  0  0  0  0  0  0
    7.7466  -17.5407   19.5416 C   0  0  0  0  0  0  0  0  0  0  0  0
    8.4454  -17.0275   18.6462 O   0  0  0  0  0  0  0  0  0  0  0  0
   10.0806  -17.4051   23.8330 C   0  0  0  0  0  0  0  0  0  0  0  0
   10.8406  -18.3769   23.5912 O   0  0  0  0  0  0  0  0  0  0  0  0
    7.0245  -18.6804   19.2755 O   0  0  0  0  0  0  0  0  0  0  0  0
   10.5389  -16.4656   24.8057 N   0  0  0  0  0  0  0  0  0  0  0  0
   10.7430  -16.7882   26.1822 C   0  0  0  0  0  0  0  0  0  0  0  0
   11.8012  -17.7936   26.4110 C   0  0  0  0  0  0  0  0  0  0  0  0
   12.3429  -17.8800   27.6849 O   0  0  0  0  0  0  0  0  0  0  0  0
   12.2491  -18.5783   25.5368 O   0  0  0  0  0  0  0  0  0  0  0  0
  2  1  1  0
  3  5  1  0
  3  2  1  0
  3  4  1  6
  5  7  1  0
  5  6  1  1
  7  8  2  0
  9  7  1  0
  9 10  1  0
 10 15  1  0
 10 11  1  6
 11 12  1  0
 12 13  1  0
 13 14  2  0
 13 17  1  0
 15 16  2  0
 18 19  1  0
 18 15  1  0
 20 19  1  0
 21 20  1  0
 22 20  2  0
M  END
$$$$
