IEG.pdb
     RDKit          3D

 22 21  0  0  1  0  0  0  0  0999 V2000
    7.1985  -11.7150   27.3192 C   0  0  0  0  0  0  0  0  0  0  0  0
    6.4032  -12.9022   26.8223 C   0  0  0  0  0  0  0  0  0  0  0  0
    7.3166  -13.7838   25.9897 C   0  0  2  0  0  0  0  0  0  0  0  0
    7.8599  -12.9268   24.8542 C   0  0  0  0  0  0  0  0  0  0  0  0
    6.5706  -14.9267   25.3676 C   0  0  2  0  0  0  0  0  0  0  0  0
    5.9363  -15.7971   26.3171 N   0  0  0  0  0  0  0  0  0  0  0  0
    7.4448  -15.6439   24.4265 C   0  0  0  0  0  0  0  0  0  0  0  0
    8.0023  -16.7011   24.8213 O   0  0  0  0  0  0  0  0  0  0  0  0
    7.6976  -15.2146   23.0987 N   0  0  0  0  0  0  0  0  0  0  0  0
    8.3522  -16.0973   22.1739 C   0  0  1  0  0  0  0  0  0  0  0  0
    7.9494  -15.8111   20.7448 C   0  0  0  0  0  0  0  0  0  0  0  0
    6.4905  -16.0931   20.4857 C   0  0  0  0  0  0  0  0  0  0  0  0
    6.3280  -17.5367   20.2417 C   0  0  0  0  0  0  0  0  0  0  0  0
    5.2817  -18.1135   20.5967 O   0  0  0  0  0  0  0  0  0  0  0  0
    9.8296  -15.9610   22.3563 C   0  0  0  0  0  0  0  0  0  0  0  0
   10.6301  -16.5352   21.5753 O   0  0  0  0  0  0  0  0  0  0  0  0
    7.3262  -18.2523   19.6231 O   0  0  0  0  0  0  0  0  0  0  0  0
   10.4101  -15.1867   23.4062 N   0  0  0  0  0  0  0  0  0  0  0  0
   11.8127  -14.9452   23.5283 C   0  0  0  0  0  0  0  0  0  0  0  0
   12.5798  -16.1082   24.0205 C   0  0  0  0  0  0  0  0  0  0  0  0
   13.9432  -15.9444   24.2157 O   0  0  0  0  0  0  0  0  0  0  0  0
   12.0897  -17.2373   24.2762 O   0  0  0  0  0  0  0  0  0  0  0  0
  2  1  1  0
  3  5  1  0
  3  2  1  0
  3  4  1  6
  5  7  1  0
  5  6  1  1
  7  8  2  0
  9  7  1  0
  9 10  1  0
 10 15  1  0
 10 11  1  6
 11 12  1  0
 12 13  1  0
 13 14  2  0
 13 17  1  0
 15 16  2  0
 18 19  1  0
 18 15  1  0
 20 19  1  0
 21 20  1  0
 22 20  2  0
M  END
$$$$
