IEG.pdb
     RDKit          3D

 22 21  0  0  1  0  0  0  0  0999 V2000
    7.0702  -11.2201   26.9485 C   0  0  0  0  0  0  0  0  0  0  0  0
    6.2110  -12.2747   26.2861 C   0  0  0  0  0  0  0  0  0  0  0  0
    7.0344  -13.5398   26.1240 C   0  0  2  0  0  0  0  0  0  0  0  0
    8.1847  -13.2125   25.1812 C   0  0  0  0  0  0  0  0  0  0  0  0
    6.2398  -14.6431   25.4908 C   0  0  2  0  0  0  0  0  0  0  0  0
    5.0302  -14.9694   26.1922 N   0  0  0  0  0  0  0  0  0  0  0  0
    7.1013  -15.8125   25.2580 C   0  0  0  0  0  0  0  0  0  0  0  0
    7.3802  -16.5498   26.2393 O   0  0  0  0  0  0  0  0  0  0  0  0
    7.6376  -16.1596   23.9918 N   0  0  0  0  0  0  0  0  0  0  0  0
    8.5250  -17.2828   23.8742 C   0  0  1  0  0  0  0  0  0  0  0  0
    8.4654  -17.9027   22.4963 C   0  0  0  0  0  0  0  0  0  0  0  0
    9.3993  -19.0779   22.3480 C   0  0  0  0  0  0  0  0  0  0  0  0
    9.1819  -19.6856   21.0238 C   0  0  0  0  0  0  0  0  0  0  0  0
   10.0121  -19.5037   20.1123 O   0  0  0  0  0  0  0  0  0  0  0  0
    9.9103  -16.8263   24.2017 C   0  0  0  0  0  0  0  0  0  0  0  0
   10.5996  -16.2034   23.3548 O   0  0  0  0  0  0  0  0  0  0  0  0
    8.0658  -20.4537   20.7880 O   0  0  0  0  0  0  0  0  0  0  0  0
   10.5226  -17.0643   25.4694 N   0  0  0  0  0  0  0  0  0  0  0  0
   11.1316  -18.3041   25.8334 C   0  0  0  0  0  0  0  0  0  0  0  0
   12.5063  -18.4701   25.3177 C   0  0  0  0  0  0  0  0  0  0  0  0
   13.4712  -18.9402   26.1961 O   0  0  0  0  0  0  0  0  0  0  0  0
   12.8686  -18.2169   24.1408 O   0  0  0  0  0  0  0  0  0  0  0  0
  2  1  1  0
  3  5  1  0
  3  2  1  0
  3  4  1  6
  5  7  1  0
  5  6  1  1
  7  8  2  0
  9  7  1  0
  9 10  1  0
 10 15  1  0
 10 11  1  6
 11 12  1  0
 12 13  1  0
 13 14  2  0
 13 17  1  0
 15 16  2  0
 18 19  1  0
 18 15  1  0
 20 19  1  0
 21 20  1  0
 22 20  2  0
M  END
$$$$
