IEG.pdb
     RDKit          3D

 22 21  0  0  1  0  0  0  0  0999 V2000
    6.0858  -11.4821   26.7804 C   0  0  0  0  0  0  0  0  0  0  0  0
    5.7412  -12.7174   25.9776 C   0  0  0  0  0  0  0  0  0  0  0  0
    6.9153  -13.6781   26.0377 C   0  0  2  0  0  0  0  0  0  0  0  0
    8.1103  -12.9710   25.4125 C   0  0  0  0  0  0  0  0  0  0  0  0
    6.6607  -14.9182   25.2333 C   0  0  2  0  0  0  0  0  0  0  0  0
    5.4127  -15.5626   25.5313 N   0  0  0  0  0  0  0  0  0  0  0  0
    7.8136  -15.8265   25.3326 C   0  0  0  0  0  0  0  0  0  0  0  0
    7.7716  -16.7485   26.1886 O   0  0  0  0  0  0  0  0  0  0  0  0
    8.9717  -15.7255   24.5203 N   0  0  0  0  0  0  0  0  0  0  0  0
    9.9916  -16.7335   24.6001 C   0  0  1  0  0  0  0  0  0  0  0  0
   10.8257  -16.7881   23.3400 C   0  0  0  0  0  0  0  0  0  0  0  0
   10.2302  -15.9794   22.2147 C   0  0  0  0  0  0  0  0  0  0  0  0
   11.0725  -16.1493   21.0181 C   0  0  0  0  0  0  0  0  0  0  0  0
   10.8109  -15.5141   19.9782 O   0  0  0  0  0  0  0  0  0  0  0  0
   10.8405  -16.4526   25.7980 C   0  0  0  0  0  0  0  0  0  0  0  0
   11.8916  -17.1087   26.0101 O   0  0  0  0  0  0  0  0  0  0  0  0
   12.1475  -17.0065   21.0427 O   0  0  0  0  0  0  0  0  0  0  0  0
   10.5168  -15.4431   26.7545 N   0  0  0  0  0  0  0  0  0  0  0  0
   11.2793  -15.2010   27.9379 C   0  0  0  0  0  0  0  0  0  0  0  0
   11.1861  -16.2812   28.9417 C   0  0  0  0  0  0  0  0  0  0  0  0
   11.4152  -17.5802   28.5130 O   0  0  0  0  0  0  0  0  0  0  0  0
   10.9141  -16.1120   30.1574 O   0  0  0  0  0  0  0  0  0  0  0  0
  2  1  1  0
  3  5  1  0
  3  2  1  0
  3  4  1  6
  5  7  1  0
  5  6  1  1
  7  8  2  0
  9  7  1  0
  9 10  1  0
 10 15  1  0
 10 11  1  6
 11 12  1  0
 12 13  1  0
 13 14  2  0
 13 17  1  0
 15 16  2  0
 18 19  1  0
 18 15  1  0
 20 19  1  0
 21 20  1  0
 22 20  2  0
M  END
$$$$
