IEG.pdb
     RDKit          3D

 22 21  0  0  1  0  0  0  0  0999 V2000
    8.1144  -11.7258   19.5867 C   0  0  0  0  0  0  0  0  0  0  0  0
    7.4764  -13.0659   19.8802 C   0  0  0  0  0  0  0  0  0  0  0  0
    8.4871  -13.9358   20.6059 C   0  0  2  0  0  0  0  0  0  0  0  0
    9.6726  -14.1280   19.6697 C   0  0  0  0  0  0  0  0  0  0  0  0
    7.9335  -15.2966   20.9088 C   0  0  2  0  0  0  0  0  0  0  0  0
    6.6517  -15.2758   21.5553 N   0  0  0  0  0  0  0  0  0  0  0  0
    8.9316  -16.0934   21.6389 C   0  0  0  0  0  0  0  0  0  0  0  0
    8.9370  -16.0315   22.8961 O   0  0  0  0  0  0  0  0  0  0  0  0
    9.8898  -16.9287   21.0101 N   0  0  0  0  0  0  0  0  0  0  0  0
   10.7273  -17.7817   21.8060 C   0  0  1  0  0  0  0  0  0  0  0  0
   10.6131  -19.2298   21.3859 C   0  0  0  0  0  0  0  0  0  0  0  0
    9.2114  -19.7674   21.5322 C   0  0  0  0  0  0  0  0  0  0  0  0
    9.2392  -21.2208   21.2939 C   0  0  0  0  0  0  0  0  0  0  0  0
   10.2938  -21.7696   20.9197 O   0  0  0  0  0  0  0  0  0  0  0  0
   12.1369  -17.2966   21.6947 C   0  0  0  0  0  0  0  0  0  0  0  0
   13.0949  -18.0054   22.0950 O   0  0  0  0  0  0  0  0  0  0  0  0
    8.1058  -21.9765   21.4825 O   0  0  0  0  0  0  0  0  0  0  0  0
   12.4747  -16.0256   21.1386 N   0  0  0  0  0  0  0  0  0  0  0  0
   13.8173  -15.5882   20.9229 C   0  0  0  0  0  0  0  0  0  0  0  0
   14.5977  -15.4157   22.1656 C   0  0  0  0  0  0  0  0  0  0  0  0
   15.8380  -14.8026   22.0674 O   0  0  0  0  0  0  0  0  0  0  0  0
   14.2222  -15.7833   23.3078 O   0  0  0  0  0  0  0  0  0  0  0  0
  2  1  1  0
  3  5  1  0
  3  2  1  0
  3  4  1  6
  5  7  1  0
  5  6  1  1
  7  8  2  0
  9  7  1  0
  9 10  1  0
 10 15  1  0
 10 11  1  6
 11 12  1  0
 12 13  1  0
 13 14  2  0
 13 17  1  0
 15 16  2  0
 18 19  1  0
 18 15  1  0
 20 19  1  0
 21 20  1  0
 22 20  2  0
M  END
$$$$
