IEG.pdb
     RDKit          3D

 22 21  0  0  1  0  0  0  0  0999 V2000
    6.4300  -11.6131   26.9903 C   0  0  0  0  0  0  0  0  0  0  0  0
    6.0650  -12.6515   25.9522 C   0  0  0  0  0  0  0  0  0  0  0  0
    7.0171  -13.8264   26.0856 C   0  0  2  0  0  0  0  0  0  0  0  0
    8.4174  -13.3101   25.7831 C   0  0  0  0  0  0  0  0  0  0  0  0
    6.7142  -14.9037   25.0869 C   0  0  2  0  0  0  0  0  0  0  0  0
    5.3654  -15.3924   25.1448 N   0  0  0  0  0  0  0  0  0  0  0  0
    7.7174  -15.9752   25.1844 C   0  0  0  0  0  0  0  0  0  0  0  0
    7.5308  -16.8886   26.0302 O   0  0  0  0  0  0  0  0  0  0  0  0
    8.8843  -16.0409   24.3812 N   0  0  0  0  0  0  0  0  0  0  0  0
    9.7984  -17.1379   24.5358 C   0  0  1  0  0  0  0  0  0  0  0  0
   10.8581  -17.1410   23.4572 C   0  0  0  0  0  0  0  0  0  0  0  0
   10.2739  -17.2425   22.0703 C   0  0  0  0  0  0  0  0  0  0  0  0
   11.3735  -17.1777   21.0922 C   0  0  0  0  0  0  0  0  0  0  0  0
   11.1647  -16.7223   19.9510 O   0  0  0  0  0  0  0  0  0  0  0  0
   10.4124  -17.0527   25.8961 C   0  0  0  0  0  0  0  0  0  0  0  0
   11.0420  -16.0254   26.2547 O   0  0  0  0  0  0  0  0  0  0  0  0
   12.6311  -17.6179   21.4323 O   0  0  0  0  0  0  0  0  0  0  0  0
   10.3233  -18.1102   26.8514 N   0  0  0  0  0  0  0  0  0  0  0  0
   10.8519  -18.0262   28.1758 C   0  0  0  0  0  0  0  0  0  0  0  0
   12.1363  -18.7345   28.3539 C   0  0  0  0  0  0  0  0  0  0  0  0
   12.7329  -19.2796   27.2266 O   0  0  0  0  0  0  0  0  0  0  0  0
   12.7308  -18.8811   29.4519 O   0  0  0  0  0  0  0  0  0  0  0  0
  2  1  1  0
  3  5  1  0
  3  2  1  0
  3  4  1  6
  5  7  1  0
  5  6  1  1
  7  8  2  0
  9  7  1  0
  9 10  1  0
 10 15  1  0
 10 11  1  6
 11 12  1  0
 12 13  1  0
 13 14  2  0
 13 17  1  0
 15 16  2  0
 18 19  1  0
 18 15  1  0
 20 19  1  0
 21 20  1  0
 22 20  2  0
M  END
$$$$
