IEG.pdb
     RDKit          3D

 22 21  0  0  1  0  0  0  0  0999 V2000
    6.6455  -11.5241   26.9930 C   0  0  0  0  0  0  0  0  0  0  0  0
    6.0054  -12.5928   26.1343 C   0  0  0  0  0  0  0  0  0  0  0  0
    7.0199  -13.6971   25.8977 C   0  0  2  0  0  0  0  0  0  0  0  0
    8.1165  -13.1213   25.0119 C   0  0  0  0  0  0  0  0  0  0  0  0
    6.4173  -14.8576   25.1630 C   0  0  2  0  0  0  0  0  0  0  0  0
    5.2846  -15.4432   25.8230 N   0  0  0  0  0  0  0  0  0  0  0  0
    7.4613  -15.8406   24.8344 C   0  0  0  0  0  0  0  0  0  0  0  0
    7.6479  -16.7977   25.6303 O   0  0  0  0  0  0  0  0  0  0  0  0
    8.2717  -15.7743   23.6724 N   0  0  0  0  0  0  0  0  0  0  0  0
    9.2088  -16.8262   23.3928 C   0  0  1  0  0  0  0  0  0  0  0  0
    9.7033  -16.7717   21.9649 C   0  0  0  0  0  0  0  0  0  0  0  0
   10.6967  -17.8630   21.6530 C   0  0  0  0  0  0  0  0  0  0  0  0
   11.0598  -17.7736   20.2282 C   0  0  0  0  0  0  0  0  0  0  0  0
   12.2588  -17.8026   19.8890 O   0  0  0  0  0  0  0  0  0  0  0  0
   10.3423  -16.7184   24.3615 C   0  0  0  0  0  0  0  0  0  0  0  0
   10.8275  -15.5984   24.6621 O   0  0  0  0  0  0  0  0  0  0  0  0
   10.0813  -17.6580   19.2689 O   0  0  0  0  0  0  0  0  0  0  0  0
   10.9308  -17.8566   24.9915 N   0  0  0  0  0  0  0  0  0  0  0  0
   11.9704  -17.7712   25.9673 C   0  0  0  0  0  0  0  0  0  0  0  0
   11.5830  -18.2762   27.3007 C   0  0  0  0  0  0  0  0  0  0  0  0
   12.5472  -18.2676   28.2978 O   0  0  0  0  0  0  0  0  0  0  0  0
   10.4435  -18.7143   27.6008 O   0  0  0  0  0  0  0  0  0  0  0  0
  2  1  1  0
  3  5  1  0
  3  2  1  0
  3  4  1  6
  5  7  1  0
  5  6  1  1
  7  8  2  0
  9  7  1  0
  9 10  1  0
 10 15  1  0
 10 11  1  6
 11 12  1  0
 12 13  1  0
 13 14  2  0
 13 17  1  0
 15 16  2  0
 18 19  1  0
 18 15  1  0
 20 19  1  0
 21 20  1  0
 22 20  2  0
M  END
$$$$
