IEG.pdb
     RDKit          3D

 22 21  0  0  1  0  0  0  0  0999 V2000
    7.5009  -11.9112   19.5033 C   0  0  0  0  0  0  0  0  0  0  0  0
    7.5346  -13.4227   19.4459 C   0  0  0  0  0  0  0  0  0  0  0  0
    8.0394  -13.9477   20.7779 C   0  0  2  0  0  0  0  0  0  0  0  0
    9.4853  -13.4927   20.9244 C   0  0  0  0  0  0  0  0  0  0  0  0
    8.0377  -15.4469   20.8214 C   0  0  2  0  0  0  0  0  0  0  0  0
    6.7772  -16.0406   20.4750 N   0  0  0  0  0  0  0  0  0  0  0  0
    8.5541  -15.9122   22.1180 C   0  0  0  0  0  0  0  0  0  0  0  0
    7.8677  -15.6826   23.1478 O   0  0  0  0  0  0  0  0  0  0  0  0
    9.7812  -16.6051   22.2774 N   0  0  0  0  0  0  0  0  0  0  0  0
   10.2229  -16.9848   23.5903 C   0  0  1  0  0  0  0  0  0  0  0  0
   10.2349  -18.4868   23.7652 C   0  0  0  0  0  0  0  0  0  0  0  0
   11.1337  -19.1794   22.7714 C   0  0  0  0  0  0  0  0  0  0  0  0
   11.0402  -20.6334   22.9882 C   0  0  0  0  0  0  0  0  0  0  0  0
   12.0347  -21.2672   23.3913 O   0  0  0  0  0  0  0  0  0  0  0  0
   11.5812  -16.4037   23.8178 C   0  0  0  0  0  0  0  0  0  0  0  0
   12.1649  -16.5452   24.9222 O   0  0  0  0  0  0  0  0  0  0  0  0
    9.8594  -21.2960   22.7478 O   0  0  0  0  0  0  0  0  0  0  0  0
   12.2844  -15.6682   22.8162 N   0  0  0  0  0  0  0  0  0  0  0  0
   13.5821  -15.1047   23.0135 C   0  0  0  0  0  0  0  0  0  0  0  0
   14.6818  -16.0874   22.9224 C   0  0  0  0  0  0  0  0  0  0  0  0
   15.8822  -15.6616   22.3735 O   0  0  0  0  0  0  0  0  0  0  0  0
   14.6118  -17.2829   23.3052 O   0  0  0  0  0  0  0  0  0  0  0  0
  2  1  1  0
  3  5  1  0
  3  2  1  0
  3  4  1  6
  5  7  1  0
  5  6  1  1
  7  8  2  0
  9  7  1  0
  9 10  1  0
 10 15  1  0
 10 11  1  6
 11 12  1  0
 12 13  1  0
 13 14  2  0
 13 17  1  0
 15 16  2  0
 18 19  1  0
 18 15  1  0
 20 19  1  0
 21 20  1  0
 22 20  2  0
M  END
$$$$
