LMP.pdb
     RDKit          3D

 24 24  0  0  1  0  0  0  0  0999 V2000
   27.9654  -21.9922  -14.1871 C   0  0  0  0  0  0  0  0  0  0  0  0
   27.1775  -20.7291  -14.3766 C   0  0  2  0  0  0  0  0  0  0  0  0
   27.9349  -19.8632  -15.3641 C   0  0  0  0  0  0  0  0  0  0  0  0
   26.8963  -19.9940  -13.0984 C   0  0  0  0  0  0  0  0  0  0  0  0
   26.2291  -20.9240  -12.0974 C   0  0  2  0  0  0  0  0  0  0  0  0
   24.8964  -21.1933  -12.6044 N   0  0  0  0  0  0  0  0  0  0  0  0
   26.0616  -20.2208  -10.7887 C   0  0  0  0  0  0  0  0  0  0  0  0
   25.5654  -19.0449  -10.7160 O   0  0  0  0  0  0  0  0  0  0  0  0
   22.5804  -22.3073   -6.9905 C   0  0  0  0  0  0  0  0  0  0  0  0
   22.2929  -20.6486   -7.6729 S   0  0  0  0  0  0  0  0  0  0  0  0
   23.7980  -20.0597   -8.5567 C   0  0  0  0  0  0  0  0  0  0  0  0
   24.9558  -20.5308   -7.7768 C   0  0  0  0  0  0  0  0  0  0  0  0
   26.3317  -20.0749   -8.2639 C   0  0  2  0  0  0  0  0  0  0  0  0
   26.4376  -20.8058   -9.5591 N   0  0  0  0  0  0  0  0  0  0  0  0
   27.4231  -20.4545   -7.3755 C   0  0  0  0  0  0  0  0  0  0  0  0
   27.9809  -21.5870   -7.5845 O   0  0  0  0  0  0  0  0  0  0  0  0
   27.8961  -19.6667   -6.3278 N   0  0  0  0  0  0  0  0  0  0  0  0
   27.5912  -18.2773   -6.0559 C   0  0  0  0  0  0  0  0  0  0  0  0
   28.9545  -17.7796   -5.5224 C   0  0  0  0  0  0  0  0  0  0  0  0
   29.2482  -18.8897   -4.5366 C   0  0  0  0  0  0  0  0  0  0  0  0
   28.8357  -20.1283   -5.2943 C   0  0  1  0  0  0  0  0  0  0  0  0
   28.1214  -21.0222   -4.3467 C   0  0  0  0  0  0  0  0  0  0  0  0
   26.8741  -21.1514   -4.4181 O   0  0  0  0  0  0  0  0  0  0  0  0
   28.7733  -21.7429   -3.3592 O   0  0  0  0  0  0  0  0  0  0  0  0
  2  1  1  1
  2  3  1  0
  4  2  1  0
  4  5  1  0
  5  6  1  6
  7  5  1  0
  7  8  2  0
 10 11  1  0
 10  9  1  0
 11 12  1  0
 13 12  1  1
 14 13  1  0
 14  7  1  0
 15 16  2  0
 15 13  1  0
 17 15  1  0
 18 17  1  0
 19 18  1  0
 19 20  1  0
 20 21  1  0
 21 17  1  0
 21 22  1  1
 23 22  2  0
 24 22  1  0
M  END
$$$$
