LMP.pdb
     RDKit          3D

 24 24  0  0  1  0  0  0  0  0999 V2000
   19.6733  -22.1192  -16.7117 C   0  0  0  0  0  0  0  0  0  0  0  0
   19.9300  -20.8816  -17.5207 C   0  0  2  0  0  0  0  0  0  0  0  0
   20.0125  -21.2974  -18.9763 C   0  0  0  0  0  0  0  0  0  0  0  0
   21.1515  -20.1216  -17.0923 C   0  0  0  0  0  0  0  0  0  0  0  0
   21.1006  -19.8517  -15.5968 C   0  0  2  0  0  0  0  0  0  0  0  0
   20.2249  -18.7097  -15.4101 N   0  0  0  0  0  0  0  0  0  0  0  0
   22.4545  -19.4443  -15.1108 C   0  0  0  0  0  0  0  0  0  0  0  0
   22.9767  -18.3238  -15.4366 O   0  0  0  0  0  0  0  0  0  0  0  0
   24.4307  -20.6135   -9.3657 C   0  0  0  0  0  0  0  0  0  0  0  0
   25.8675  -21.3342  -10.2118 S   0  0  0  0  0  0  0  0  0  0  0  0
   26.0678  -20.5722  -11.8768 C   0  0  0  0  0  0  0  0  0  0  0  0
   24.7360  -20.5807  -12.5069 C   0  0  0  0  0  0  0  0  0  0  0  0
   24.6287  -19.9037  -13.8737 C   0  0  2  0  0  0  0  0  0  0  0  0
   23.2367  -20.2645  -14.2676 N   0  0  0  0  0  0  0  0  0  0  0  0
   25.5815  -20.4092  -14.8542 C   0  0  0  0  0  0  0  0  0  0  0  0
   25.2983  -21.5172  -15.4282 O   0  0  0  0  0  0  0  0  0  0  0  0
   26.7658  -19.7647  -15.2065 N   0  0  0  0  0  0  0  0  0  0  0  0
   27.3158  -18.5500  -14.6414 C   0  0  0  0  0  0  0  0  0  0  0  0
   27.9344  -17.8982  -15.8999 C   0  0  0  0  0  0  0  0  0  0  0  0
   28.6725  -19.0971  -16.4551 C   0  0  0  0  0  0  0  0  0  0  0  0
   27.6802  -20.2185  -16.2657 C   0  0  1  0  0  0  0  0  0  0  0  0
   28.4287  -21.4102  -15.7895 C   0  0  0  0  0  0  0  0  0  0  0  0
   28.3745  -21.7492  -14.5813 O   0  0  0  0  0  0  0  0  0  0  0  0
   29.2064  -22.1920  -16.6282 O   0  0  0  0  0  0  0  0  0  0  0  0
  2  1  1  1
  2  3  1  0
  4  2  1  0
  4  5  1  0
  5  6  1  6
  7  5  1  0
  7  8  2  0
 10 11  1  0
 10  9  1  0
 11 12  1  0
 13 12  1  1
 14 13  1  0
 14  7  1  0
 15 16  2  0
 15 13  1  0
 17 15  1  0
 18 17  1  0
 19 18  1  0
 19 20  1  0
 20 21  1  0
 21 17  1  0
 21 22  1  1
 23 22  2  0
 24 22  1  0
M  END
$$$$
