LMP.pdb
     RDKit          3D

 24 24  0  0  1  0  0  0  0  0999 V2000
   18.6098  -21.4595  -16.2368 C   0  0  0  0  0  0  0  0  0  0  0  0
   18.5314  -20.8913  -14.8500 C   0  0  2  0  0  0  0  0  0  0  0  0
   17.3450  -19.9481  -14.8102 C   0  0  0  0  0  0  0  0  0  0  0  0
   19.7930  -20.2123  -14.4023 C   0  0  0  0  0  0  0  0  0  0  0  0
   20.9934  -21.1012  -14.6870 C   0  0  2  0  0  0  0  0  0  0  0  0
   20.8194  -22.3023  -13.8915 N   0  0  0  0  0  0  0  0  0  0  0  0
   22.2410  -20.4359  -14.2011 C   0  0  0  0  0  0  0  0  0  0  0  0
   22.5660  -19.2586  -14.5789 O   0  0  0  0  0  0  0  0  0  0  0  0
   26.8110  -20.0515   -8.0017 C   0  0  0  0  0  0  0  0  0  0  0  0
   25.4453  -20.7354   -8.9851 S   0  0  0  0  0  0  0  0  0  0  0  0
   25.8355  -20.6099  -10.7810 C   0  0  0  0  0  0  0  0  0  0  0  0
   24.6242  -21.0323  -11.5057 C   0  0  0  0  0  0  0  0  0  0  0  0
   24.4262  -20.4362  -12.8998 C   0  0  2  0  0  0  0  0  0  0  0  0
   23.1331  -21.0602  -13.3012 N   0  0  0  0  0  0  0  0  0  0  0  0
   25.4775  -20.7931  -13.8443 C   0  0  0  0  0  0  0  0  0  0  0  0
   25.4415  -21.9713  -14.3422 O   0  0  0  0  0  0  0  0  0  0  0  0
   26.5046  -19.9383  -14.2396 N   0  0  0  0  0  0  0  0  0  0  0  0
   26.8449  -18.6450  -13.6836 C   0  0  0  0  0  0  0  0  0  0  0  0
   27.2744  -17.8841  -14.9594 C   0  0  0  0  0  0  0  0  0  0  0  0
   28.1962  -18.9225  -15.5614 C   0  0  0  0  0  0  0  0  0  0  0  0
   27.4386  -20.2096  -15.3432 C   0  0  1  0  0  0  0  0  0  0  0  0
   28.4158  -21.2436  -14.9152 C   0  0  0  0  0  0  0  0  0  0  0  0
   28.5233  -21.5473  -13.7013 O   0  0  0  0  0  0  0  0  0  0  0  0
   29.2398  -21.9115  -15.8065 O   0  0  0  0  0  0  0  0  0  0  0  0
  2  1  1  6
  2  3  1  0
  4  2  1  0
  4  5  1  0
  5  6  1  1
  7  5  1  0
  7  8  2  0
 10 11  1  0
 10  9  1  0
 11 12  1  0
 13 12  1  1
 14 13  1  0
 14  7  1  0
 15 16  2  0
 15 13  1  0
 17 15  1  0
 18 17  1  0
 19 18  1  0
 19 20  1  0
 20 21  1  0
 21 17  1  0
 21 22  1  1
 23 22  2  0
 24 22  1  0
M  END
$$$$
