LMP.pdb
     RDKit          3D

 24 24  0  0  1  0  0  0  0  0999 V2000
   18.6920  -11.1093  -19.9186 C   0  0  0  0  0  0  0  0  0  0  0  0
   17.3961  -10.9918  -19.1709 C   0  0  2  0  0  0  0  0  0  0  0  0
   16.3692  -10.4160  -20.1261 C   0  0  0  0  0  0  0  0  0  0  0  0
   17.4959  -10.1811  -17.9115 C   0  0  0  0  0  0  0  0  0  0  0  0
   18.5706  -10.7576  -17.0034 C   0  0  2  0  0  0  0  0  0  0  0  0
   17.9891  -11.9191  -16.3564 N   0  0  0  0  0  0  0  0  0  0  0  0
   18.8979   -9.7775  -15.9229 C   0  0  0  0  0  0  0  0  0  0  0  0
   18.0982   -9.5575  -14.9500 O   0  0  0  0  0  0  0  0  0  0  0  0
   23.7057  -11.3913  -14.0934 C   0  0  0  0  0  0  0  0  0  0  0  0
   23.1727  -10.2099  -12.8207 S   0  0  0  0  0  0  0  0  0  0  0  0
   21.4894   -9.5738  -13.2145 C   0  0  0  0  0  0  0  0  0  0  0  0
   21.6620   -8.5364  -14.2463 C   0  0  0  0  0  0  0  0  0  0  0  0
   20.3817   -7.9933  -14.8818 C   0  0  2  0  0  0  0  0  0  0  0  0
   20.1014   -9.0380  -15.9080 N   0  0  0  0  0  0  0  0  0  0  0  0
   20.5487   -6.6910  -15.5149 C   0  0  0  0  0  0  0  0  0  0  0  0
   21.2000   -6.6547  -16.6158 O   0  0  0  0  0  0  0  0  0  0  0  0
   20.0432   -5.4967  -15.0048 N   0  0  0  0  0  0  0  0  0  0  0  0
   19.1272   -5.3234  -13.8965 C   0  0  0  0  0  0  0  0  0  0  0  0
   18.2845   -4.1287  -14.4001 C   0  0  0  0  0  0  0  0  0  0  0  0
   19.4043   -3.2147  -14.8481 C   0  0  0  0  0  0  0  0  0  0  0  0
   20.3533   -4.1623  -15.5408 C   0  0  1  0  0  0  0  0  0  0  0  0
   21.7360   -3.7859  -15.1487 C   0  0  0  0  0  0  0  0  0  0  0  0
   22.3572   -4.4647  -14.2938 O   0  0  0  0  0  0  0  0  0  0  0  0
   22.3984   -2.6956  -15.6891 O   0  0  0  0  0  0  0  0  0  0  0  0
  2  1  1  6
  2  3  1  0
  4  2  1  0
  4  5  1  0
  5  6  1  1
  7  5  1  0
  7  8  2  0
 10 11  1  0
 10  9  1  0
 11 12  1  0
 13 12  1  6
 14 13  1  0
 14  7  1  0
 15 16  2  0
 15 13  1  0
 17 15  1  0
 18 17  1  0
 19 18  1  0
 19 20  1  0
 20 21  1  0
 21 17  1  0
 21 22  1  1
 23 22  2  0
 24 22  1  0
M  END
$$$$
