LMP.pdb
     RDKit          3D

 24 24  0  0  1  0  0  0  0  0999 V2000
   20.1154  -21.7262  -17.2389 C   0  0  0  0  0  0  0  0  0  0  0  0
   19.3694  -20.4453  -17.0044 C   0  0  2  0  0  0  0  0  0  0  0  0
   19.1003  -19.8200  -18.3591 C   0  0  0  0  0  0  0  0  0  0  0  0
   20.0776  -19.4923  -16.0860 C   0  0  0  0  0  0  0  0  0  0  0  0
   20.6551  -20.2446  -14.8975 C   0  0  2  0  0  0  0  0  0  0  0  0
   19.7350  -20.0461  -13.7930 N   0  0  0  0  0  0  0  0  0  0  0  0
   21.9565  -19.6291  -14.4942 C   0  0  0  0  0  0  0  0  0  0  0  0
   22.0238  -18.4357  -14.0407 O   0  0  0  0  0  0  0  0  0  0  0  0
   25.1564  -21.1297   -9.8672 C   0  0  0  0  0  0  0  0  0  0  0  0
   26.4597  -21.5219  -11.0703 S   0  0  0  0  0  0  0  0  0  0  0  0
   26.2950  -20.4427  -12.5541 C   0  0  0  0  0  0  0  0  0  0  0  0
   24.9357  -20.6557  -13.0811 C   0  0  0  0  0  0  0  0  0  0  0  0
   24.4800  -19.7018  -14.1857 C   0  0  2  0  0  0  0  0  0  0  0  0
   23.1846  -20.3208  -14.5876 N   0  0  0  0  0  0  0  0  0  0  0  0
   25.3903  -19.6446  -15.3228 C   0  0  0  0  0  0  0  0  0  0  0  0
   25.3097  -20.5869  -16.1848 O   0  0  0  0  0  0  0  0  0  0  0  0
   26.3284  -18.6353  -15.5307 N   0  0  0  0  0  0  0  0  0  0  0  0
   26.7057  -17.5745  -14.6198 C   0  0  0  0  0  0  0  0  0  0  0  0
   26.9330  -16.4086  -15.6098 C   0  0  0  0  0  0  0  0  0  0  0  0
   27.7916  -17.1226  -16.6313 C   0  0  0  0  0  0  0  0  0  0  0  0
   27.1079  -18.4615  -16.7661 C   0  0  1  0  0  0  0  0  0  0  0  0
   28.1637  -19.5049  -16.8301 C   0  0  0  0  0  0  0  0  0  0  0  0
   28.3818  -20.2447  -15.8389 O   0  0  0  0  0  0  0  0  0  0  0  0
   28.9445  -19.7138  -17.9554 O   0  0  0  0  0  0  0  0  0  0  0  0
  2  1  1  6
  2  3  1  0
  4  2  1  0
  4  5  1  0
  5  6  1  1
  7  5  1  0
  7  8  2  0
 10 11  1  0
 10  9  1  0
 11 12  1  0
 13 12  1  1
 14 13  1  0
 14  7  1  0
 15 16  2  0
 15 13  1  0
 17 15  1  0
 18 17  1  0
 19 18  1  0
 19 20  1  0
 20 21  1  0
 21 17  1  0
 21 22  1  1
 23 22  2  0
 24 22  1  0
M  END
$$$$
