LMP.pdb
     RDKit          3D

 24 24  0  0  1  0  0  0  0  0999 V2000
   18.0367  -28.3362   -1.4623 C   0  0  0  0  0  0  0  0  0  0  0  0
   16.9587  -27.5948   -2.1974 C   0  0  2  0  0  0  0  0  0  0  0  0
   16.1970  -28.6063   -3.0312 C   0  0  0  0  0  0  0  0  0  0  0  0
   17.4694  -26.4591   -3.0356 C   0  0  0  0  0  0  0  0  0  0  0  0
   16.3043  -25.6893   -3.6371 C   0  0  2  0  0  0  0  0  0  0  0  0
   16.7399  -25.2289   -4.9425 N   0  0  0  0  0  0  0  0  0  0  0  0
   16.0275  -24.4701   -2.8172 C   0  0  0  0  0  0  0  0  0  0  0  0
   16.8366  -23.4806   -2.7895 O   0  0  0  0  0  0  0  0  0  0  0  0
   10.4822  -20.9720   -0.7865 C   0  0  0  0  0  0  0  0  0  0  0  0
   10.9769  -21.6971   -2.3769 S   0  0  0  0  0  0  0  0  0  0  0  0
   12.8051  -21.9163   -2.4298 C   0  0  0  0  0  0  0  0  0  0  0  0
   13.1422  -22.8968   -1.3830 C   0  0  0  0  0  0  0  0  0  0  0  0
   14.6313  -23.1528   -1.1487 C   0  0  2  0  0  0  0  0  0  0  0  0
   14.8643  -24.3346   -2.0272 N   0  0  0  0  0  0  0  0  0  0  0  0
   14.9599  -23.4751    0.2344 C   0  0  0  0  0  0  0  0  0  0  0  0
   14.8389  -24.6968    0.5951 O   0  0  0  0  0  0  0  0  0  0  0  0
   15.3989  -22.5468    1.1765 N   0  0  0  0  0  0  0  0  0  0  0  0
   15.7473  -21.1583    0.9572 C   0  0  0  0  0  0  0  0  0  0  0  0
   16.9294  -20.9965    1.9408 C   0  0  0  0  0  0  0  0  0  0  0  0
   16.3110  -21.6298    3.1683 C   0  0  0  0  0  0  0  0  0  0  0  0
   15.6082  -22.8399    2.6028 C   0  0  1  0  0  0  0  0  0  0  0  0
   14.2897  -22.9547    3.2780 C   0  0  0  0  0  0  0  0  0  0  0  0
   13.2439  -22.5845    2.6892 O   0  0  0  0  0  0  0  0  0  0  0  0
   14.1447  -23.4624    4.5589 O   0  0  0  0  0  0  0  0  0  0  0  0
  2  1  1  6
  2  3  1  0
  4  2  1  0
  4  5  1  0
  5  6  1  6
  7  5  1  0
  7  8  2  0
 10 11  1  0
 10  9  1  0
 11 12  1  0
 13 12  1  1
 14 13  1  0
 14  7  1  0
 15 16  2  0
 15 13  1  0
 17 15  1  0
 18 17  1  0
 19 18  1  0
 19 20  1  0
 20 21  1  0
 21 17  1  0
 21 22  1  1
 23 22  2  0
 24 22  1  0
M  END
$$$$
