LMP.pdb
     RDKit          3D

 24 24  0  0  1  0  0  0  0  0999 V2000
   28.5586  -16.3449  -15.8587 C   0  0  0  0  0  0  0  0  0  0  0  0
   28.0252  -17.2819  -16.9026 C   0  0  2  0  0  0  0  0  0  0  0  0
   27.1291  -16.4766  -17.8230 C   0  0  0  0  0  0  0  0  0  0  0  0
   27.3091  -18.4735  -16.3366 C   0  0  0  0  0  0  0  0  0  0  0  0
   28.2324  -19.2440  -15.4061 C   0  0  2  0  0  0  0  0  0  0  0  0
   29.1604  -19.9727  -16.2509 N   0  0  0  0  0  0  0  0  0  0  0  0
   27.4466  -20.2630  -14.6450 C   0  0  0  0  0  0  0  0  0  0  0  0
   27.1284  -21.3888  -15.1603 O   0  0  0  0  0  0  0  0  0  0  0  0
   27.4887  -20.5676   -8.3176 C   0  0  0  0  0  0  0  0  0  0  0  0
   25.6930  -20.4447   -8.5626 S   0  0  0  0  0  0  0  0  0  0  0  0
   25.2361  -21.0966  -10.2238 C   0  0  0  0  0  0  0  0  0  0  0  0
   26.1862  -20.5075  -11.1834 C   0  0  0  0  0  0  0  0  0  0  0  0
   26.0595  -20.9722  -12.6346 C   0  0  2  0  0  0  0  0  0  0  0  0
   27.0092  -20.0488  -13.3189 N   0  0  0  0  0  0  0  0  0  0  0  0
   24.7179  -20.8197  -13.1836 C   0  0  0  0  0  0  0  0  0  0  0  0
   24.3334  -19.6328  -13.4679 O   0  0  0  0  0  0  0  0  0  0  0  0
   23.8395  -21.8752  -13.4214 N   0  0  0  0  0  0  0  0  0  0  0  0
   24.0724  -23.2881  -13.2049 C   0  0  0  0  0  0  0  0  0  0  0  0
   23.3105  -23.8955  -14.4056 C   0  0  0  0  0  0  0  0  0  0  0  0
   22.0135  -23.1252  -14.2837 C   0  0  0  0  0  0  0  0  0  0  0  0
   22.4836  -21.7252  -13.9717 C   0  0  1  0  0  0  0  0  0  0  0  0
   21.5883  -21.1696  -12.9243 C   0  0  0  0  0  0  0  0  0  0  0  0
   21.9454  -21.1748  -11.7202 O   0  0  0  0  0  0  0  0  0  0  0  0
   20.3446  -20.6298  -13.2097 O   0  0  0  0  0  0  0  0  0  0  0  0
  2  1  1  1
  2  3  1  0
  4  2  1  0
  4  5  1  0
  5  6  1  6
  7  5  1  0
  7  8  2  0
 10 11  1  0
 10  9  1  0
 11 12  1  0
 13 12  1  1
 14 13  1  0
 14  7  1  0
 15 16  2  0
 15 13  1  0
 17 15  1  0
 18 17  1  0
 19 18  1  0
 19 20  1  0
 20 21  1  0
 21 17  1  0
 21 22  1  1
 23 22  2  0
 24 22  1  0
M  END
$$$$
