LMP.pdb
     RDKit          3D

 24 24  0  0  1  0  0  0  0  0999 V2000
   20.8347  -24.0522  -15.9393 C   0  0  0  0  0  0  0  0  0  0  0  0
   20.1345  -22.7975  -15.5063 C   0  0  2  0  0  0  0  0  0  0  0  0
   19.0578  -22.4994  -16.5313 C   0  0  0  0  0  0  0  0  0  0  0  0
   21.0544  -21.6271  -15.3140 C   0  0  0  0  0  0  0  0  0  0  0  0
   21.1468  -21.2728  -13.8382 C   0  0  2  0  0  0  0  0  0  0  0  0
   20.1227  -20.2763  -13.5849 N   0  0  0  0  0  0  0  0  0  0  0  0
   22.4634  -20.6231  -13.5562 C   0  0  0  0  0  0  0  0  0  0  0  0
   22.7334  -19.4438  -13.9695 O   0  0  0  0  0  0  0  0  0  0  0  0
   26.2731  -19.7231   -8.1344 C   0  0  0  0  0  0  0  0  0  0  0  0
   26.6275  -21.2677   -9.0224 S   0  0  0  0  0  0  0  0  0  0  0  0
   26.6214  -20.9671  -10.8398 C   0  0  0  0  0  0  0  0  0  0  0  0
   25.2702  -21.3073  -11.3185 C   0  0  0  0  0  0  0  0  0  0  0  0
   24.8322  -20.6560  -12.6307 C   0  0  2  0  0  0  0  0  0  0  0  0
   23.4848  -21.2652  -12.8214 N   0  0  0  0  0  0  0  0  0  0  0  0
   25.6977  -20.9734  -13.7598 C   0  0  0  0  0  0  0  0  0  0  0  0
   25.5228  -22.1048  -14.3314 O   0  0  0  0  0  0  0  0  0  0  0  0
   26.6890  -20.1279  -14.2543 N   0  0  0  0  0  0  0  0  0  0  0  0
   27.1647  -18.8874  -13.6778 C   0  0  0  0  0  0  0  0  0  0  0  0
   27.4286  -18.0560  -14.9546 C   0  0  0  0  0  0  0  0  0  0  0  0
   28.2032  -19.0808  -15.7546 C   0  0  0  0  0  0  0  0  0  0  0  0
   27.4327  -20.3541  -15.5032 C   0  0  1  0  0  0  0  0  0  0  0  0
   28.4181  -21.4465  -15.2958 C   0  0  0  0  0  0  0  0  0  0  0  0
   28.6804  -21.8489  -14.1354 O   0  0  0  0  0  0  0  0  0  0  0  0
   29.0838  -22.0647  -16.3419 O   0  0  0  0  0  0  0  0  0  0  0  0
  2  1  1  6
  2  3  1  0
  4  2  1  0
  4  5  1  0
  5  6  1  6
  7  5  1  0
  7  8  2  0
 10 11  1  0
 10  9  1  0
 11 12  1  0
 13 12  1  1
 14 13  1  0
 14  7  1  0
 15 16  2  0
 15 13  1  0
 17 15  1  0
 18 17  1  0
 19 18  1  0
 19 20  1  0
 20 21  1  0
 21 17  1  0
 21 22  1  1
 23 22  2  0
 24 22  1  0
M  END
$$$$
