LMP.pdb
     RDKit          3D

 24 24  0  0  1  0  0  0  0  0999 V2000
   25.1812  -14.8818  -16.1846 C   0  0  0  0  0  0  0  0  0  0  0  0
   25.4854  -15.8062  -17.3271 C   0  0  2  0  0  0  0  0  0  0  0  0
   24.4582  -15.5445  -18.4111 C   0  0  0  0  0  0  0  0  0  0  0  0
   25.5229  -17.2557  -16.9389 C   0  0  0  0  0  0  0  0  0  0  0  0
   26.4513  -17.4540  -15.7511 C   0  0  2  0  0  0  0  0  0  0  0  0
   27.8060  -17.3912  -16.2672 N   0  0  0  0  0  0  0  0  0  0  0  0
   26.2647  -18.8264  -15.1880 C   0  0  0  0  0  0  0  0  0  0  0  0
   26.6647  -19.8687  -15.8108 O   0  0  0  0  0  0  0  0  0  0  0  0
   25.2551  -21.2394   -8.8261 C   0  0  0  0  0  0  0  0  0  0  0  0
   25.9890  -19.6829   -9.4080 S   0  0  0  0  0  0  0  0  0  0  0  0
   26.4646  -19.8330  -11.1813 C   0  0  0  0  0  0  0  0  0  0  0  0
   25.2321  -20.1533  -11.9223 C   0  0  0  0  0  0  0  0  0  0  0  0
   25.3930  -20.4307  -13.4174 C   0  0  2  0  0  0  0  0  0  0  0  0
   25.6397  -19.0572  -13.9423 N   0  0  0  0  0  0  0  0  0  0  0  0
   24.2061  -21.0061  -14.0376 C   0  0  0  0  0  0  0  0  0  0  0  0
   23.3138  -20.1922  -14.4603 O   0  0  0  0  0  0  0  0  0  0  0  0
   23.9877  -22.3725  -14.2028 N   0  0  0  0  0  0  0  0  0  0  0  0
   24.8710  -23.4615  -13.8406 C   0  0  0  0  0  0  0  0  0  0  0  0
   24.6090  -24.4471  -15.0030 C   0  0  0  0  0  0  0  0  0  0  0  0
   23.0959  -24.4225  -15.0046 C   0  0  0  0  0  0  0  0  0  0  0  0
   22.7846  -22.9578  -14.8143 C   0  0  1  0  0  0  0  0  0  0  0  0
   21.6507  -22.8559  -13.8597 C   0  0  0  0  0  0  0  0  0  0  0  0
   21.8639  -22.5856  -12.6519 O   0  0  0  0  0  0  0  0  0  0  0  0
   20.3319  -23.0481  -14.2383 O   0  0  0  0  0  0  0  0  0  0  0  0
  2  1  1  1
  2  3  1  0
  4  2  1  0
  4  5  1  0
  5  6  1  6
  7  5  1  0
  7  8  2  0
 10 11  1  0
 10  9  1  0
 11 12  1  0
 13 12  1  1
 14 13  1  0
 14  7  1  0
 15 16  2  0
 15 13  1  0
 17 15  1  0
 18 17  1  0
 19 18  1  0
 19 20  1  0
 20 21  1  0
 21 17  1  0
 21 22  1  1
 23 22  2  0
 24 22  1  0
M  END
$$$$
