LMP.pdb
     RDKit          3D

 24 24  0  0  1  0  0  0  0  0999 V2000
   19.6775  -21.6937  -17.6170 C   0  0  0  0  0  0  0  0  0  0  0  0
   20.1865  -20.4433  -18.2726 C   0  0  2  0  0  0  0  0  0  0  0  0
   20.4204  -20.7591  -19.7368 C   0  0  0  0  0  0  0  0  0  0  0  0
   21.4173  -19.8788  -17.6249 C   0  0  0  0  0  0  0  0  0  0  0  0
   21.1702  -19.6539  -16.1415 C   0  0  2  0  0  0  0  0  0  0  0  0
   20.3657  -18.4512  -16.0317 N   0  0  0  0  0  0  0  0  0  0  0  0
   22.4660  -19.3736  -15.4505 C   0  0  0  0  0  0  0  0  0  0  0  0
   23.0697  -18.2544  -15.5819 O   0  0  0  0  0  0  0  0  0  0  0  0
   25.8210  -20.3038   -8.9322 C   0  0  0  0  0  0  0  0  0  0  0  0
   24.9602  -21.3377  -10.1527 S   0  0  0  0  0  0  0  0  0  0  0  0
   25.5240  -20.9094  -11.8533 C   0  0  0  0  0  0  0  0  0  0  0  0
   24.3167  -20.8549  -12.6961 C   0  0  0  0  0  0  0  0  0  0  0  0
   24.4379  -20.0715  -14.0036 C   0  0  2  0  0  0  0  0  0  0  0  0
   23.1010  -20.3195  -14.6153 N   0  0  0  0  0  0  0  0  0  0  0  0
   25.4961  -20.5561  -14.8810 C   0  0  0  0  0  0  0  0  0  0  0  0
   25.2843  -21.6550  -15.5015 O   0  0  0  0  0  0  0  0  0  0  0  0
   26.7084  -19.9012  -15.0890 N   0  0  0  0  0  0  0  0  0  0  0  0
   27.1680  -18.6716  -14.4773 C   0  0  0  0  0  0  0  0  0  0  0  0
   27.9352  -18.0295  -15.6563 C   0  0  0  0  0  0  0  0  0  0  0  0
   28.7517  -19.2262  -16.0939 C   0  0  0  0  0  0  0  0  0  0  0  0
   27.7559  -20.3578  -16.0155 C   0  0  1  0  0  0  0  0  0  0  0  0
   28.4506  -21.5328  -15.4290 C   0  0  0  0  0  0  0  0  0  0  0  0
   29.2731  -22.1882  -16.1157 O   0  0  0  0  0  0  0  0  0  0  0  0
   28.2358  -21.9591  -14.1284 O   0  0  0  0  0  0  0  0  0  0  0  0
  2  1  1  1
  2  3  1  0
  4  2  1  0
  4  5  1  0
  5  6  1  6
  7  5  1  0
  7  8  2  0
 10 11  1  0
 10  9  1  0
 11 12  1  0
 13 12  1  1
 14 13  1  0
 14  7  1  0
 15 16  2  0
 15 13  1  0
 17 15  1  0
 18 17  1  0
 19 18  1  0
 19 20  1  0
 20 21  1  0
 21 17  1  0
 21 22  1  1
 23 22  2  0
 24 22  1  0
M  END
$$$$
