LMP.pdb
     RDKit          3D

 24 24  0  0  1  0  0  0  0  0999 V2000
   27.3032  -15.8602  -17.7523 C   0  0  0  0  0  0  0  0  0  0  0  0
   26.9769  -15.8158  -16.2882 C   0  0  2  0  0  0  0  0  0  0  0  0
   27.8566  -14.7545  -15.6570 C   0  0  0  0  0  0  0  0  0  0  0  0
   27.1232  -17.1394  -15.5955 C   0  0  0  0  0  0  0  0  0  0  0  0
   26.2667  -18.1881  -16.2873 C   0  0  2  0  0  0  0  0  0  0  0  0
   24.9561  -17.5949  -16.4776 N   0  0  0  0  0  0  0  0  0  0  0  0
   26.0830  -19.3657  -15.3847 C   0  0  0  0  0  0  0  0  0  0  0  0
   26.9826  -19.7177  -14.5473 O   0  0  0  0  0  0  0  0  0  0  0  0
   26.5134  -21.1041  -10.0951 C   0  0  0  0  0  0  0  0  0  0  0  0
   25.0190  -20.1411  -10.4683 S   0  0  0  0  0  0  0  0  0  0  0  0
   24.0939  -20.9229  -11.8562 C   0  0  0  0  0  0  0  0  0  0  0  0
   24.5694  -20.2806  -13.0940 C   0  0  0  0  0  0  0  0  0  0  0  0
   24.6209  -21.1656  -14.3399 C   0  0  2  0  0  0  0  0  0  0  0  0
   24.9137  -20.1582  -15.3993 N   0  0  0  0  0  0  0  0  0  0  0  0
   23.3665  -21.8515  -14.6236 C   0  0  0  0  0  0  0  0  0  0  0  0
   22.3753  -21.1304  -14.9909 O   0  0  0  0  0  0  0  0  0  0  0  0
   23.1830  -23.2296  -14.5270 N   0  0  0  0  0  0  0  0  0  0  0  0
   24.1551  -24.2277  -14.1318 C   0  0  0  0  0  0  0  0  0  0  0  0
   23.7639  -25.3989  -15.0625 C   0  0  0  0  0  0  0  0  0  0  0  0
   22.2677  -25.3993  -14.8347 C   0  0  0  0  0  0  0  0  0  0  0  0
   21.9276  -23.9288  -14.8414 C   0  0  1  0  0  0  0  0  0  0  0  0
   20.9456  -23.6860  -13.7532 C   0  0  0  0  0  0  0  0  0  0  0  0
   21.3205  -23.1851  -12.6641 O   0  0  0  0  0  0  0  0  0  0  0  0
   19.5995  -23.9901  -13.8759 O   0  0  0  0  0  0  0  0  0  0  0  0
  2  1  1  6
  2  3  1  0
  4  2  1  0
  4  5  1  0
  5  6  1  1
  7  5  1  0
  7  8  2  0
 10 11  1  0
 10  9  1  0
 11 12  1  0
 13 12  1  1
 14 13  1  0
 14  7  1  0
 15 16  2  0
 15 13  1  0
 17 15  1  0
 18 17  1  0
 19 18  1  0
 19 20  1  0
 20 21  1  0
 21 17  1  0
 21 22  1  1
 23 22  2  0
 24 22  1  0
M  END
$$$$
