LMP.pdb
     RDKit          3D

 24 24  0  0  1  0  0  0  0  0999 V2000
   24.0065  -35.0368  -16.3277 C   0  0  0  0  0  0  0  0  0  0  0  0
   23.1849  -33.7900  -16.4787 C   0  0  2  0  0  0  0  0  0  0  0  0
   23.8370  -32.9416  -17.5528 C   0  0  0  0  0  0  0  0  0  0  0  0
   23.0079  -33.0237  -15.2001 C   0  0  0  0  0  0  0  0  0  0  0  0
   22.4174  -33.9261  -14.1282 C   0  0  2  0  0  0  0  0  0  0  0  0
   20.9892  -33.9882  -14.3776 N   0  0  0  0  0  0  0  0  0  0  0  0
   22.5961  -33.2971  -12.7838 C   0  0  0  0  0  0  0  0  0  0  0  0
   21.9670  -32.2356  -12.4492 O   0  0  0  0  0  0  0  0  0  0  0  0
   18.8659  -32.9580   -9.1326 C   0  0  0  0  0  0  0  0  0  0  0  0
   20.1408  -33.8282   -8.1749 S   0  0  0  0  0  0  0  0  0  0  0  0
   21.8023  -33.1284   -8.5527 C   0  0  0  0  0  0  0  0  0  0  0  0
   22.0827  -33.4471   -9.9636 C   0  0  0  0  0  0  0  0  0  0  0  0
   23.5332  -33.2856  -10.4194 C   0  0  2  0  0  0  0  0  0  0  0  0
   23.4641  -33.8307  -11.8054 N   0  0  0  0  0  0  0  0  0  0  0  0
   24.4863  -34.0464   -9.6211 C   0  0  0  0  0  0  0  0  0  0  0  0
   24.4096  -35.3225   -9.6772 O   0  0  0  0  0  0  0  0  0  0  0  0
   25.4695  -33.4770   -8.8141 N   0  0  0  0  0  0  0  0  0  0  0  0
   25.6753  -32.0729   -8.5249 C   0  0  0  0  0  0  0  0  0  0  0  0
   27.2194  -32.0102   -8.4728 C   0  0  0  0  0  0  0  0  0  0  0  0
   27.4799  -33.2038   -7.5796 C   0  0  0  0  0  0  0  0  0  0  0  0
   26.5145  -34.2359   -8.1099 C   0  0  1  0  0  0  0  0  0  0  0  0
   25.9123  -34.9338   -6.9447 C   0  0  0  0  0  0  0  0  0  0  0  0
   24.7346  -34.6754   -6.5930 O   0  0  0  0  0  0  0  0  0  0  0  0
   26.5972  -35.8820   -6.2022 O   0  0  0  0  0  0  0  0  0  0  0  0
  2  1  1  1
  2  3  1  0
  4  2  1  0
  4  5  1  0
  5  6  1  6
  7  5  1  0
  7  8  2  0
 10 11  1  0
 10  9  1  0
 11 12  1  0
 13 12  1  1
 14 13  1  0
 14  7  1  0
 15 16  2  0
 15 13  1  0
 17 15  1  0
 18 17  1  0
 19 18  1  0
 19 20  1  0
 20 21  1  0
 21 17  1  0
 21 22  1  1
 23 22  2  0
 24 22  1  0
M  END
$$$$
