LMP.pdb
     RDKit          3D

 24 24  0  0  1  0  0  0  0  0999 V2000
   20.2825  -21.8608  -17.6198 C   0  0  0  0  0  0  0  0  0  0  0  0
   19.8304  -20.4318  -17.6962 C   0  0  2  0  0  0  0  0  0  0  0  0
   19.8339  -20.0300  -19.1581 C   0  0  0  0  0  0  0  0  0  0  0  0
   20.6518  -19.4922  -16.8622 C   0  0  0  0  0  0  0  0  0  0  0  0
   20.7759  -20.0257  -15.4438 C   0  0  2  0  0  0  0  0  0  0  0  0
   19.6915  -19.4355  -14.6812 N   0  0  0  0  0  0  0  0  0  0  0  0
   22.0509  -19.5410  -14.8316 C   0  0  0  0  0  0  0  0  0  0  0  0
   22.3103  -18.2944  -14.7171 O   0  0  0  0  0  0  0  0  0  0  0  0
   26.0901  -20.4160   -9.5055 C   0  0  0  0  0  0  0  0  0  0  0  0
   24.4256  -20.9991   -9.9404 S   0  0  0  0  0  0  0  0  0  0  0  0
   23.8184  -20.1162  -11.4387 C   0  0  0  0  0  0  0  0  0  0  0  0
   24.5544  -20.6771  -12.5853 C   0  0  0  0  0  0  0  0  0  0  0  0
   24.3898  -19.9472  -13.9187 C   0  0  2  0  0  0  0  0  0  0  0  0
   23.0422  -20.4219  -14.3448 N   0  0  0  0  0  0  0  0  0  0  0  0
   25.3933  -20.3085  -14.9121 C   0  0  0  0  0  0  0  0  0  0  0  0
   25.1576  -21.3381  -15.6344 O   0  0  0  0  0  0  0  0  0  0  0  0
   26.5779  -19.6063  -15.1265 N   0  0  0  0  0  0  0  0  0  0  0  0
   27.0866  -18.4765  -14.3767 C   0  0  0  0  0  0  0  0  0  0  0  0
   27.7374  -17.6466  -15.5076 C   0  0  0  0  0  0  0  0  0  0  0  0
   28.5152  -18.7462  -16.1976 C   0  0  0  0  0  0  0  0  0  0  0  0
   27.5365  -19.8953  -16.2042 C   0  0  1  0  0  0  0  0  0  0  0  0
   28.2885  -21.1329  -15.8724 C   0  0  0  0  0  0  0  0  0  0  0  0
   28.2124  -21.6289  -14.7210 O   0  0  0  0  0  0  0  0  0  0  0  0
   29.0930  -21.7902  -16.7890 O   0  0  0  0  0  0  0  0  0  0  0  0
  2  1  1  6
  2  3  1  0
  4  2  1  0
  4  5  1  0
  5  6  1  1
  7  5  1  0
  7  8  2  0
 10 11  1  0
 10  9  1  0
 11 12  1  0
 13 12  1  1
 14 13  1  0
 14  7  1  0
 15 16  2  0
 15 13  1  0
 17 15  1  0
 18 17  1  0
 19 18  1  0
 19 20  1  0
 20 21  1  0
 21 17  1  0
 21 22  1  1
 23 22  2  0
 24 22  1  0
M  END
$$$$
