LMP.pdb
     RDKit          3D

 24 24  0  0  1  0  0  0  0  0999 V2000
   27.4264  -15.1636  -15.0868 C   0  0  0  0  0  0  0  0  0  0  0  0
   26.7737  -15.8385  -16.2575 C   0  0  2  0  0  0  0  0  0  0  0  0
   25.5919  -14.9854  -16.6749 C   0  0  0  0  0  0  0  0  0  0  0  0
   26.3637  -17.2569  -15.9865 C   0  0  0  0  0  0  0  0  0  0  0  0
   27.5008  -18.0094  -15.3135 C   0  0  2  0  0  0  0  0  0  0  0  0
   28.4112  -18.4165  -16.3676 N   0  0  0  0  0  0  0  0  0  0  0  0
   26.9763  -19.2608  -14.6858 C   0  0  0  0  0  0  0  0  0  0  0  0
   26.7723  -20.3215  -15.3697 O   0  0  0  0  0  0  0  0  0  0  0  0
   27.6101  -20.5315   -8.3952 C   0  0  0  0  0  0  0  0  0  0  0  0
   25.8065  -20.5949   -8.6017 S   0  0  0  0  0  0  0  0  0  0  0  0
   25.3851  -21.1288  -10.3136 C   0  0  0  0  0  0  0  0  0  0  0  0
   26.1594  -20.2689  -11.2256 C   0  0  0  0  0  0  0  0  0  0  0  0
   25.9770  -20.5297  -12.7211 C   0  0  2  0  0  0  0  0  0  0  0  0
   26.6751  -19.3506  -13.3085 N   0  0  0  0  0  0  0  0  0  0  0  0
   24.5827  -20.5579  -13.1451 C   0  0  0  0  0  0  0  0  0  0  0  0
   23.9705  -19.4366  -13.2182 O   0  0  0  0  0  0  0  0  0  0  0  0
   23.8840  -21.7167  -13.4783 N   0  0  0  0  0  0  0  0  0  0  0  0
   24.3711  -23.0806  -13.4634 C   0  0  0  0  0  0  0  0  0  0  0  0
   23.6411  -23.6633  -14.6957 C   0  0  0  0  0  0  0  0  0  0  0  0
   22.2432  -23.1593  -14.4095 C   0  0  0  0  0  0  0  0  0  0  0  0
   22.4867  -21.7465  -13.9372 C   0  0  1  0  0  0  0  0  0  0  0  0
   21.5864  -21.4931  -12.7829 C   0  0  0  0  0  0  0  0  0  0  0  0
   20.3859  -21.1781  -12.9751 O   0  0  0  0  0  0  0  0  0  0  0  0
   22.0093  -21.5876  -11.4669 O   0  0  0  0  0  0  0  0  0  0  0  0
  2  1  1  1
  2  3  1  0
  4  2  1  0
  4  5  1  0
  5  6  1  6
  7  5  1  0
  7  8  2  0
 10 11  1  0
 10  9  1  0
 11 12  1  0
 13 12  1  1
 14 13  1  0
 14  7  1  0
 15 16  2  0
 15 13  1  0
 17 15  1  0
 18 17  1  0
 19 18  1  0
 19 20  1  0
 20 21  1  0
 21 17  1  0
 21 22  1  1
 23 22  2  0
 24 22  1  0
M  END
$$$$
