LMP.pdb
     RDKit          3D

 24 24  0  0  1  0  0  0  0  0999 V2000
   21.9639  -22.0257  -11.7963 C   0  0  0  0  0  0  0  0  0  0  0  0
   22.8586  -21.6458  -12.9397 C   0  0  2  0  0  0  0  0  0  0  0  0
   22.8709  -22.8071  -13.9142 C   0  0  0  0  0  0  0  0  0  0  0  0
   24.2474  -21.2617  -12.5191 C   0  0  0  0  0  0  0  0  0  0  0  0
   24.1914  -20.1335  -11.5013 C   0  0  2  0  0  0  0  0  0  0  0  0
   23.8127  -18.9361  -12.2284 N   0  0  0  0  0  0  0  0  0  0  0  0
   25.5566  -19.8886  -10.9432 C   0  0  0  0  0  0  0  0  0  0  0  0
   26.5124  -19.4524  -11.6716 O   0  0  0  0  0  0  0  0  0  0  0  0
   26.8311  -18.1538   -5.0734 C   0  0  0  0  0  0  0  0  0  0  0  0
   27.7470  -19.7214   -5.0118 S   0  0  0  0  0  0  0  0  0  0  0  0
   28.2164  -20.2461   -6.7140 C   0  0  0  0  0  0  0  0  0  0  0  0
   27.0438  -19.9959   -7.5703 C   0  0  0  0  0  0  0  0  0  0  0  0
   27.2764  -20.0797   -9.0792 C   0  0  2  0  0  0  0  0  0  0  0  0
   25.8752  -20.1215   -9.5868 N   0  0  0  0  0  0  0  0  0  0  0  0
   28.0032  -21.2730   -9.4946 C   0  0  0  0  0  0  0  0  0  0  0  0
   27.3303  -22.3542   -9.6193 O   0  0  0  0  0  0  0  0  0  0  0  0
   29.3693  -21.3079   -9.7676 N   0  0  0  0  0  0  0  0  0  0  0  0
   30.3174  -20.2161   -9.6877 C   0  0  0  0  0  0  0  0  0  0  0  0
   31.2376  -20.5420  -10.8868 C   0  0  0  0  0  0  0  0  0  0  0  0
   31.4708  -22.0133  -10.6199 C   0  0  0  0  0  0  0  0  0  0  0  0
   30.1003  -22.5021  -10.2186 C   0  0  1  0  0  0  0  0  0  0  0  0
   30.2690  -23.4347   -9.0744 C   0  0  0  0  0  0  0  0  0  0  0  0
   29.9661  -23.0693   -7.9115 O   0  0  0  0  0  0  0  0  0  0  0  0
   30.7562  -24.7232   -9.2224 O   0  0  0  0  0  0  0  0  0  0  0  0
  2  1  1  1
  2  3  1  0
  4  2  1  0
  4  5  1  0
  5  6  1  6
  7  5  1  0
  7  8  2  0
 10 11  1  0
 10  9  1  0
 11 12  1  0
 13 12  1  1
 14 13  1  0
 14  7  1  0
 15 16  2  0
 15 13  1  0
 17 15  1  0
 18 17  1  0
 19 18  1  0
 19 20  1  0
 20 21  1  0
 21 17  1  0
 21 22  1  1
 23 22  2  0
 24 22  1  0
M  END
$$$$
