YPV.pdb
     RDKit          3D

 27 28  0  0  1  0  0  0  0  0999 V2000
   25.5688  -17.4795  -17.0617 O   0  0  0  0  0  0  0  0  0  0  0  0
   25.6348  -18.0438  -15.7997 C   0  0  0  0  0  0  0  0  0  0  0  0
   26.8271  -18.0801  -15.1160 C   0  0  0  0  0  0  0  0  0  0  0  0
   26.8698  -18.6483  -13.8578 C   0  0  0  0  0  0  0  0  0  0  0  0
   25.7291  -19.1806  -13.2775 C   0  0  0  0  0  0  0  0  0  0  0  0
   25.7382  -19.7976  -11.9257 C   0  0  0  0  0  0  0  0  0  0  0  0
   26.3249  -21.2104  -12.0339 C   0  0  2  0  0  0  0  0  0  0  0  0
   25.2342  -22.0606  -12.4111 N   0  0  0  0  0  0  0  0  0  0  0  0
   26.9541  -21.6326  -10.7655 C   0  0  0  0  0  0  0  0  0  0  0  0
   26.2017  -22.2423   -9.9286 O   0  0  0  0  0  0  0  0  0  0  0  0
   24.5388  -19.1253  -14.0017 C   0  0  0  0  0  0  0  0  0  0  0  0
   24.4847  -18.5620  -15.2553 C   0  0  0  0  0  0  0  0  0  0  0  0
   28.2853  -21.4211  -10.4149 N   0  0  0  0  0  0  0  0  0  0  0  0
   29.3054  -20.8140  -11.2557 C   0  0  0  0  0  0  0  0  0  0  0  0
   30.6119  -21.4470  -10.8137 C   0  0  0  0  0  0  0  0  0  0  0  0
   30.3601  -22.1299   -9.5053 C   0  0  0  0  0  0  0  0  0  0  0  0
   28.9465  -21.7440   -9.1733 C   0  0  1  0  0  0  0  0  0  0  0  0
   28.9575  -20.5963   -8.2339 C   0  0  0  0  0  0  0  0  0  0  0  0
   29.0735  -19.4020   -8.6239 O   0  0  0  0  0  0  0  0  0  0  0  0
   26.9673  -20.9350   -4.4987 C   0  0  0  0  0  0  0  0  0  0  0  0
   27.3143  -19.7038   -5.3211 C   0  0  2  0  0  0  0  0  0  0  0  0
   26.2691  -19.4959   -6.3760 C   0  0  0  0  0  0  0  0  0  0  0  0
   28.7163  -19.7986   -5.8802 C   0  0  2  0  0  0  0  0  0  0  0  0
   28.8302  -20.8834   -6.8456 N   0  0  0  0  0  0  0  0  0  0  0  0
   29.6476  -20.0673   -4.7694 C   0  0  0  0  0  0  0  0  0  0  0  0
   29.9115  -19.1616   -3.9535 O   0  0  0  0  0  0  0  0  0  0  0  0
   30.2335  -21.3024   -4.6146 O   0  0  0  0  0  0  0  0  0  0  0  0
  2  3  2  0
  2  1  1  0
  4  3  1  0
  5  4  2  0
  6  5  1  0
  7  6  1  0
  7  9  1  0
  7  8  1  1
  9 10  2  0
  9 13  1  0
 11  5  1  0
 11 12  2  0
 12  2  1  0
 13 14  1  0
 14 15  1  0
 16 15  1  0
 17 13  1  0
 17 16  1  0
 17 18  1  1
 19 18  2  0
 21 20  1  6
 21 22  1  0
 23 21  1  0
 23 24  1  6
 24 18  1  0
 25 23  1  0
 26 25  2  0
 27 25  1  0
M  END
$$$$
