YPV.pdb
     RDKit          3D

 27 28  0  0  1  0  0  0  0  0999 V2000
   24.4136  -12.6097  -19.7354 O   0  0  0  0  0  0  0  0  0  0  0  0
   24.3121  -13.7824  -19.0075 C   0  0  0  0  0  0  0  0  0  0  0  0
   23.5433  -14.8239  -19.4711 C   0  0  0  0  0  0  0  0  0  0  0  0
   23.4561  -15.9850  -18.7282 C   0  0  0  0  0  0  0  0  0  0  0  0
   24.1319  -16.1131  -17.5247 C   0  0  0  0  0  0  0  0  0  0  0  0
   24.0622  -17.3477  -16.7008 C   0  0  0  0  0  0  0  0  0  0  0  0
   25.2529  -18.2456  -17.0586 C   0  0  2  0  0  0  0  0  0  0  0  0
   24.9295  -18.8417  -18.3214 N   0  0  0  0  0  0  0  0  0  0  0  0
   25.5036  -19.2543  -16.0086 C   0  0  0  0  0  0  0  0  0  0  0  0
   24.7030  -20.2522  -15.9710 O   0  0  0  0  0  0  0  0  0  0  0  0
   24.9013  -15.0354  -17.0876 C   0  0  0  0  0  0  0  0  0  0  0  0
   24.9952  -13.8746  -17.8191 C   0  0  0  0  0  0  0  0  0  0  0  0
   26.5303  -19.2037  -15.0689 N   0  0  0  0  0  0  0  0  0  0  0  0
   27.5303  -18.1539  -14.9500 C   0  0  0  0  0  0  0  0  0  0  0  0
   28.7596  -18.8398  -14.3830 C   0  0  0  0  0  0  0  0  0  0  0  0
   28.3286  -20.1757  -13.8624 C   0  0  0  0  0  0  0  0  0  0  0  0
   26.8351  -20.1510  -14.0235 C   0  0  1  0  0  0  0  0  0  0  0  0
   26.2071  -19.7768  -12.7331 C   0  0  0  0  0  0  0  0  0  0  0  0
   26.2240  -18.5964  -12.2879 O   0  0  0  0  0  0  0  0  0  0  0  0
   23.2331  -22.4010  -11.1616 C   0  0  0  0  0  0  0  0  0  0  0  0
   23.3532  -20.9011  -10.9415 C   0  0  2  0  0  0  0  0  0  0  0  0
   22.6363  -20.1751  -12.0403 C   0  0  0  0  0  0  0  0  0  0  0  0
   24.8000  -20.4852  -10.7959 C   0  0  2  0  0  0  0  0  0  0  0  0
   25.5678  -20.8092  -11.9906 N   0  0  0  0  0  0  0  0  0  0  0  0
   25.3859  -21.2147   -9.6567 C   0  0  0  0  0  0  0  0  0  0  0  0
   25.0620  -20.9034   -8.4931 O   0  0  0  0  0  0  0  0  0  0  0  0
   26.2864  -22.2361   -9.8526 O   0  0  0  0  0  0  0  0  0  0  0  0
  2  3  2  0
  2  1  1  0
  4  3  1  0
  5  4  2  0
  6  5  1  0
  7  6  1  0
  7  9  1  0
  7  8  1  6
  9 10  2  0
  9 13  1  0
 11  5  1  0
 11 12  2  0
 12  2  1  0
 13 14  1  0
 14 15  1  0
 16 15  1  0
 17 13  1  0
 17 16  1  0
 17 18  1  1
 19 18  2  0
 21 20  1  6
 21 22  1  0
 23 21  1  0
 23 24  1  6
 24 18  1  0
 25 23  1  0
 26 25  2  0
 27 25  1  0
M  END
$$$$
