YPV.pdb
     RDKit          3D

 27 28  0  0  1  0  0  0  0  0999 V2000
   22.1796  -17.6266  -16.8082 O   0  0  0  0  0  0  0  0  0  0  0  0
   22.5533  -18.2008  -15.6056 C   0  0  0  0  0  0  0  0  0  0  0  0
   21.6516  -18.9429  -14.8798 C   0  0  0  0  0  0  0  0  0  0  0  0
   22.0462  -19.5067  -13.6822 C   0  0  0  0  0  0  0  0  0  0  0  0
   23.3359  -19.3343  -13.2045 C   0  0  0  0  0  0  0  0  0  0  0  0
   23.7949  -19.9276  -11.9218 C   0  0  0  0  0  0  0  0  0  0  0  0
   24.7054  -21.1225  -12.2305 C   0  0  2  0  0  0  0  0  0  0  0  0
   23.8343  -22.1833  -12.6434 N   0  0  0  0  0  0  0  0  0  0  0  0
   25.5263  -21.4929  -11.0593 C   0  0  0  0  0  0  0  0  0  0  0  0
   24.9884  -22.2864  -10.2112 O   0  0  0  0  0  0  0  0  0  0  0  0
   24.2216  -18.5753  -13.9686 C   0  0  0  0  0  0  0  0  0  0  0  0
   23.8395  -18.0092  -15.1624 C   0  0  0  0  0  0  0  0  0  0  0  0
   26.8234  -21.0510  -10.8101 N   0  0  0  0  0  0  0  0  0  0  0  0
   27.5643  -20.0821  -11.6029 C   0  0  0  0  0  0  0  0  0  0  0  0
   29.0226  -20.4700  -11.4416 C   0  0  0  0  0  0  0  0  0  0  0  0
   29.1094  -21.4219  -10.2893 C   0  0  0  0  0  0  0  0  0  0  0  0
   27.7112  -21.4376   -9.7398 C   0  0  1  0  0  0  0  0  0  0  0  0
   27.6261  -20.5116   -8.5844 C   0  0  0  0  0  0  0  0  0  0  0  0
   27.2102  -19.3256   -8.6952 O   0  0  0  0  0  0  0  0  0  0  0  0
   27.7473  -20.2588   -3.6047 C   0  0  0  0  0  0  0  0  0  0  0  0
   28.1178  -21.0269   -4.8637 C   0  0  2  0  0  0  0  0  0  0  0  0
   29.5631  -21.4214   -4.8022 C   0  0  0  0  0  0  0  0  0  0  0  0
   27.7662  -20.2396   -6.1063 C   0  0  2  0  0  0  0  0  0  0  0  0
   28.0354  -21.0074   -7.3145 N   0  0  0  0  0  0  0  0  0  0  0  0
   28.5932  -19.0196   -6.1388 C   0  0  0  0  0  0  0  0  0  0  0  0
   29.5973  -18.9752   -6.8774 O   0  0  0  0  0  0  0  0  0  0  0  0
   28.2778  -17.9250   -5.3675 O   0  0  0  0  0  0  0  0  0  0  0  0
  2  3  2  0
  2  1  1  0
  4  3  1  0
  5  4  2  0
  6  5  1  0
  7  6  1  0
  7  9  1  0
  7  8  1  1
  9 10  2  0
  9 13  1  0
 11  5  1  0
 11 12  2  0
 12  2  1  0
 13 14  1  0
 14 15  1  0
 16 15  1  0
 17 13  1  0
 17 16  1  0
 17 18  1  1
 19 18  2  0
 21 20  1  1
 21 22  1  0
 23 21  1  0
 23 24  1  6
 24 18  1  0
 25 23  1  0
 26 25  2  0
 27 25  1  0
M  END
$$$$
