YPV.pdb
     RDKit          3D

 27 28  0  0  1  0  0  0  0  0999 V2000
   24.0870  -20.8095   -7.2009 O   0  0  0  0  0  0  0  0  0  0  0  0
   24.2932  -20.9705   -8.5600 C   0  0  0  0  0  0  0  0  0  0  0  0
   23.2283  -21.1768   -9.4049 C   0  0  0  0  0  0  0  0  0  0  0  0
   23.4574  -21.3352  -10.7578 C   0  0  0  0  0  0  0  0  0  0  0  0
   24.7435  -21.2888  -11.2727 C   0  0  0  0  0  0  0  0  0  0  0  0
   25.0263  -21.4533  -12.7222 C   0  0  0  0  0  0  0  0  0  0  0  0
   24.6259  -20.1645  -13.4508 C   0  0  2  0  0  0  0  0  0  0  0  0
   23.1944  -20.1826  -13.5221 N   0  0  0  0  0  0  0  0  0  0  0  0
   25.2542  -20.0809  -14.7853 C   0  0  0  0  0  0  0  0  0  0  0  0
   24.4938  -20.3023  -15.7908 O   0  0  0  0  0  0  0  0  0  0  0  0
   25.7975  -21.0777  -10.3845 C   0  0  0  0  0  0  0  0  0  0  0  0
   25.5811  -20.9189   -9.0356 C   0  0  0  0  0  0  0  0  0  0  0  0
   26.5926  -19.7837  -15.0305 N   0  0  0  0  0  0  0  0  0  0  0  0
   27.6399  -19.6634  -14.0279 C   0  0  0  0  0  0  0  0  0  0  0  0
   28.6280  -18.6664  -14.6045 C   0  0  0  0  0  0  0  0  0  0  0  0
   28.3113  -18.5100  -16.0594 C   0  0  0  0  0  0  0  0  0  0  0  0
   27.2368  -19.5328  -16.2974 C   0  0  1  0  0  0  0  0  0  0  0  0
   27.8438  -20.7609  -16.8658 C   0  0  0  0  0  0  0  0  0  0  0  0
   28.3209  -21.6785  -16.1430 O   0  0  0  0  0  0  0  0  0  0  0  0
   26.1959  -23.9951  -19.6623 C   0  0  0  0  0  0  0  0  0  0  0  0
   26.3110  -22.6103  -19.0448 C   0  0  2  0  0  0  0  0  0  0  0  0
   25.4848  -21.6399  -19.8348 C   0  0  0  0  0  0  0  0  0  0  0  0
   27.7580  -22.1915  -18.9104 C   0  0  2  0  0  0  0  0  0  0  0  0
   27.8751  -20.8818  -18.2837 N   0  0  0  0  0  0  0  0  0  0  0  0
   28.3517  -22.1150  -20.2577 C   0  0  0  0  0  0  0  0  0  0  0  0
   28.1388  -21.1128  -20.9691 O   0  0  0  0  0  0  0  0  0  0  0  0
   29.1389  -23.1314  -20.7475 O   0  0  0  0  0  0  0  0  0  0  0  0
  2  3  2  0
  2  1  1  0
  4  3  1  0
  5  4  2  0
  6  5  1  0
  7  6  1  0
  7  9  1  0
  7  8  1  6
  9 10  2  0
  9 13  1  0
 11  5  1  0
 11 12  2  0
 12  2  1  0
 13 14  1  0
 14 15  1  0
 16 15  1  0
 17 13  1  0
 17 16  1  0
 17 18  1  1
 19 18  2  0
 21 20  1  6
 21 22  1  0
 23 21  1  0
 23 24  1  6
 24 18  1  0
 25 23  1  0
 26 25  2  0
 27 25  1  0
M  END
$$$$
