YPV.pdb
     RDKit          3D

 27 28  0  0  1  0  0  0  0  0999 V2000
   18.1251  -24.4095   -7.1913 O   0  0  0  0  0  0  0  0  0  0  0  0
   18.8926  -23.5512   -7.9593 C   0  0  0  0  0  0  0  0  0  0  0  0
   18.3373  -22.8928   -9.0310 C   0  0  0  0  0  0  0  0  0  0  0  0
   19.1219  -22.0410   -9.7838 C   0  0  0  0  0  0  0  0  0  0  0  0
   20.4581  -21.8423   -9.4732 C   0  0  0  0  0  0  0  0  0  0  0  0
   21.3308  -20.9325  -10.2597 C   0  0  0  0  0  0  0  0  0  0  0  0
   22.7863  -21.1544   -9.8307 C   0  0  2  0  0  0  0  0  0  0  0  0
   22.8761  -20.6737   -8.4833 N   0  0  0  0  0  0  0  0  0  0  0  0
   23.7278  -20.4655  -10.7372 C   0  0  0  0  0  0  0  0  0  0  0  0
   23.8771  -19.2069  -10.5582 O   0  0  0  0  0  0  0  0  0  0  0  0
   20.9853  -22.5276   -8.3792 C   0  0  0  0  0  0  0  0  0  0  0  0
   20.2134  -23.3782   -7.6227 C   0  0  0  0  0  0  0  0  0  0  0  0
   24.4558  -21.0718  -11.7581 N   0  0  0  0  0  0  0  0  0  0  0  0
   24.3787  -22.4708  -12.1493 C   0  0  0  0  0  0  0  0  0  0  0  0
   25.7554  -22.8071  -12.6922 C   0  0  0  0  0  0  0  0  0  0  0  0
   26.4735  -21.5147  -12.9273 C   0  0  0  0  0  0  0  0  0  0  0  0
   25.4280  -20.4742  -12.6416 C   0  0  1  0  0  0  0  0  0  0  0  0
   24.8189  -20.0255  -13.9173 C   0  0  0  0  0  0  0  0  0  0  0  0
   23.8269  -20.6070  -14.4365 O   0  0  0  0  0  0  0  0  0  0  0  0
   24.1477  -15.8062  -16.3715 C   0  0  0  0  0  0  0  0  0  0  0  0
   24.8041  -16.6218  -15.2687 C   0  0  2  0  0  0  0  0  0  0  0  0
   26.2443  -16.2239  -15.1417 C   0  0  0  0  0  0  0  0  0  0  0  0
   24.6124  -18.1042  -15.4986 C   0  0  2  0  0  0  0  0  0  0  0  0
   25.3960  -18.8927  -14.5573 N   0  0  0  0  0  0  0  0  0  0  0  0
   25.0637  -18.4298  -16.8638 C   0  0  0  0  0  0  0  0  0  0  0  0
   26.2647  -18.6966  -17.0688 O   0  0  0  0  0  0  0  0  0  0  0  0
   24.1825  -18.4451  -17.9202 O   0  0  0  0  0  0  0  0  0  0  0  0
  2  3  2  0
  2  1  1  0
  4  3  1  0
  5  4  2  0
  6  5  1  0
  7  6  1  0
  7  9  1  0
  7  8  1  1
  9 10  2  0
  9 13  1  0
 11  5  1  0
 11 12  2  0
 12  2  1  0
 13 14  1  0
 14 15  1  0
 16 15  1  0
 17 13  1  0
 17 16  1  0
 17 18  1  6
 19 18  2  0
 21 20  1  6
 21 22  1  0
 23 21  1  0
 23 24  1  1
 24 18  1  0
 25 23  1  0
 26 25  2  0
 27 25  1  0
M  END
$$$$
