YPV.pdb
     RDKit          3D

 27 28  0  0  1  0  0  0  0  0999 V2000
   21.4746  -18.4581  -16.2790 O   0  0  0  0  0  0  0  0  0  0  0  0
   22.0897  -18.9216  -15.1291 C   0  0  0  0  0  0  0  0  0  0  0  0
   21.4069  -19.7339  -14.2548 C   0  0  0  0  0  0  0  0  0  0  0  0
   22.0404  -20.1848  -13.1132 C   0  0  0  0  0  0  0  0  0  0  0  0
   23.3519  -19.8297  -12.8389 C   0  0  0  0  0  0  0  0  0  0  0  0
   24.0647  -20.2976  -11.6219 C   0  0  0  0  0  0  0  0  0  0  0  0
   25.1036  -21.3480  -12.0337 C   0  0  2  0  0  0  0  0  0  0  0  0
   24.3553  -22.4890  -12.4728 N   0  0  0  0  0  0  0  0  0  0  0  0
   26.0173  -21.6702  -10.9184 C   0  0  0  0  0  0  0  0  0  0  0  0
   25.6264  -22.5746  -10.1014 O   0  0  0  0  0  0  0  0  0  0  0  0
   24.0113  -19.0046  -13.7492 C   0  0  0  0  0  0  0  0  0  0  0  0
   23.3903  -18.5497  -14.8890 C   0  0  0  0  0  0  0  0  0  0  0  0
   27.2550  -21.0737  -10.6904 N   0  0  0  0  0  0  0  0  0  0  0  0
   27.8699  -20.0393  -11.5080 C   0  0  0  0  0  0  0  0  0  0  0  0
   29.3650  -20.2492  -11.3547 C   0  0  0  0  0  0  0  0  0  0  0  0
   29.5730  -21.1621  -10.1864 C   0  0  0  0  0  0  0  0  0  0  0  0
   28.1908  -21.3324   -9.6225 C   0  0  1  0  0  0  0  0  0  0  0  0
   28.0061  -20.4011   -8.4831 C   0  0  0  0  0  0  0  0  0  0  0  0
   27.5412  -19.2371   -8.6273 O   0  0  0  0  0  0  0  0  0  0  0  0
   29.8466  -21.0497   -4.6102 C   0  0  0  0  0  0  0  0  0  0  0  0
   28.3429  -20.8625   -4.7373 C   0  0  2  0  0  0  0  0  0  0  0  0
   27.6621  -22.1942   -4.6298 C   0  0  0  0  0  0  0  0  0  0  0  0
   27.9915  -20.1128   -6.0029 C   0  0  2  0  0  0  0  0  0  0  0  0
   28.3755  -20.8656   -7.1893 N   0  0  0  0  0  0  0  0  0  0  0  0
   28.7236  -18.8332   -6.0092 C   0  0  0  0  0  0  0  0  0  0  0  0
   29.6604  -18.6630   -6.8148 O   0  0  0  0  0  0  0  0  0  0  0  0
   28.3923  -17.8192   -5.1405 O   0  0  0  0  0  0  0  0  0  0  0  0
  2  3  2  0
  2  1  1  0
  4  3  1  0
  5  4  2  0
  6  5  1  0
  7  6  1  0
  7  9  1  0
  7  8  1  1
  9 10  2  0
  9 13  1  0
 11  5  1  0
 11 12  2  0
 12  2  1  0
 13 14  1  0
 14 15  1  0
 16 15  1  0
 17 13  1  0
 17 16  1  0
 17 18  1  1
 19 18  2  0
 21 20  1  6
 21 22  1  0
 23 21  1  0
 23 24  1  6
 24 18  1  0
 25 23  1  0
 26 25  2  0
 27 25  1  0
M  END
$$$$
