YPV.pdb
     RDKit          3D

 27 28  0  0  1  0  0  0  0  0999 V2000
   19.7677  -13.9505  -18.1375 O   0  0  0  0  0  0  0  0  0  0  0  0
   20.4486  -14.9584  -17.4773 C   0  0  0  0  0  0  0  0  0  0  0  0
   19.8223  -16.1486  -17.1913 C   0  0  0  0  0  0  0  0  0  0  0  0
   20.5211  -17.1407  -16.5315 C   0  0  0  0  0  0  0  0  0  0  0  0
   21.8417  -16.9520  -16.1552 C   0  0  0  0  0  0  0  0  0  0  0  0
   22.6239  -17.9976  -15.4460 C   0  0  0  0  0  0  0  0  0  0  0  0
   23.5423  -18.6952  -16.4570 C   0  0  2  0  0  0  0  0  0  0  0  0
   22.6914  -19.5405  -17.2420 N   0  0  0  0  0  0  0  0  0  0  0  0
   24.6156  -19.4514  -15.7796 C   0  0  0  0  0  0  0  0  0  0  0  0
   24.3206  -20.6314  -15.3812 O   0  0  0  0  0  0  0  0  0  0  0  0
   22.4425  -15.7318  -16.4626 C   0  0  0  0  0  0  0  0  0  0  0  0
   21.7564  -14.7369  -17.1192 C   0  0  0  0  0  0  0  0  0  0  0  0
   25.9069  -18.9854  -15.5442 N   0  0  0  0  0  0  0  0  0  0  0  0
   26.4437  -17.7017  -15.9685 C   0  0  0  0  0  0  0  0  0  0  0  0
   27.9292  -17.9395  -16.1680 C   0  0  0  0  0  0  0  0  0  0  0  0
   28.2661  -19.2458  -15.5186 C   0  0  0  0  0  0  0  0  0  0  0  0
   26.9836  -19.6453  -14.8456 C   0  0  1  0  0  0  0  0  0  0  0  0
   27.0378  -19.2588  -13.4147 C   0  0  0  0  0  0  0  0  0  0  0  0
   26.9592  -18.0589  -13.0330 O   0  0  0  0  0  0  0  0  0  0  0  0
   24.9888  -20.2605   -9.3611 C   0  0  0  0  0  0  0  0  0  0  0  0
   25.3947  -20.5447  -10.7987 C   0  0  2  0  0  0  0  0  0  0  0  0
   25.1803  -21.9976  -11.1013 C   0  0  0  0  0  0  0  0  0  0  0  0
   26.8088  -20.0811  -11.0682 C   0  0  2  0  0  0  0  0  0  0  0  0
   27.1839  -20.3027  -12.4581 N   0  0  0  0  0  0  0  0  0  0  0  0
   27.7273  -20.8532  -10.2117 C   0  0  0  0  0  0  0  0  0  0  0  0
   27.7943  -20.5981   -8.9927 O   0  0  0  0  0  0  0  0  0  0  0  0
   28.5149  -21.8535  -10.7328 O   0  0  0  0  0  0  0  0  0  0  0  0
  2  3  2  0
  2  1  1  0
  4  3  1  0
  5  4  2  0
  6  5  1  0
  7  6  1  0
  7  9  1  0
  7  8  1  1
  9 10  2  0
  9 13  1  0
 11  5  1  0
 11 12  2  0
 12  2  1  0
 13 14  1  0
 14 15  1  0
 16 15  1  0
 17 13  1  0
 17 16  1  0
 17 18  1  1
 19 18  2  0
 21 20  1  1
 21 22  1  0
 23 21  1  0
 23 24  1  6
 24 18  1  0
 25 23  1  0
 26 25  2  0
 27 25  1  0
M  END
$$$$
