YPV.pdb
     RDKit          3D

 27 28  0  0  1  0  0  0  0  0999 V2000
   22.4889  -18.2677  -17.1251 O   0  0  0  0  0  0  0  0  0  0  0  0
   22.9163  -18.6904  -15.8784 C   0  0  0  0  0  0  0  0  0  0  0  0
   22.0277  -19.2539  -14.9933 C   0  0  0  0  0  0  0  0  0  0  0  0
   22.4761  -19.6686  -13.7544 C   0  0  0  0  0  0  0  0  0  0  0  0
   23.8067  -19.5243  -13.3935 C   0  0  0  0  0  0  0  0  0  0  0  0
   24.3238  -19.9607  -12.0706 C   0  0  0  0  0  0  0  0  0  0  0  0
   25.0949  -21.2738  -12.2527 C   0  0  2  0  0  0  0  0  0  0  0  0
   24.1092  -22.2687  -12.5580 N   0  0  0  0  0  0  0  0  0  0  0  0
   25.8795  -21.6112  -11.0471 C   0  0  0  0  0  0  0  0  0  0  0  0
   25.3182  -22.3866  -10.1975 O   0  0  0  0  0  0  0  0  0  0  0  0
   24.6774  -18.9484  -14.3179 C   0  0  0  0  0  0  0  0  0  0  0  0
   24.2419  -18.5319  -15.5542 C   0  0  0  0  0  0  0  0  0  0  0  0
   27.1659  -21.1565  -10.7675 N   0  0  0  0  0  0  0  0  0  0  0  0
   27.9823  -20.3155  -11.6292 C   0  0  0  0  0  0  0  0  0  0  0  0
   29.4165  -20.6969  -11.3121 C   0  0  0  0  0  0  0  0  0  0  0  0
   29.4010  -21.4827  -10.0378 C   0  0  0  0  0  0  0  0  0  0  0  0
   27.9679  -21.4043   -9.5934 C   0  0  1  0  0  0  0  0  0  0  0  0
   27.8240  -20.3274   -8.5839 C   0  0  0  0  0  0  0  0  0  0  0  0
   27.5449  -19.1374   -8.8969 O   0  0  0  0  0  0  0  0  0  0  0  0
   28.8141  -21.1010   -4.3794 C   0  0  0  0  0  0  0  0  0  0  0  0
   27.5582  -20.3703   -4.8279 C   0  0  2  0  0  0  0  0  0  0  0  0
   26.3960  -21.3177   -4.8138 C   0  0  0  0  0  0  0  0  0  0  0  0
   27.7659  -19.7002   -6.1677 C   0  0  2  0  0  0  0  0  0  0  0  0
   28.0130  -20.6792   -7.2177 N   0  0  0  0  0  0  0  0  0  0  0  0
   28.9416  -18.8157   -6.0731 C   0  0  0  0  0  0  0  0  0  0  0  0
   28.8635  -17.7542   -5.4228 O   0  0  0  0  0  0  0  0  0  0  0  0
   30.1276  -19.1395   -6.6904 O   0  0  0  0  0  0  0  0  0  0  0  0
  2  3  2  0
  2  1  1  0
  4  3  1  0
  5  4  2  0
  6  5  1  0
  7  6  1  0
  7  9  1  0
  7  8  1  1
  9 10  2  0
  9 13  1  0
 11  5  1  0
 11 12  2  0
 12  2  1  0
 13 14  1  0
 14 15  1  0
 16 15  1  0
 17 13  1  0
 17 16  1  0
 17 18  1  1
 19 18  2  0
 21 20  1  6
 21 22  1  0
 23 21  1  0
 23 24  1  6
 24 18  1  0
 25 23  1  0
 26 25  2  0
 27 25  1  0
M  END
$$$$
