YPV.pdb
     RDKit          3D

 27 28  0  0  1  0  0  0  0  0999 V2000
   22.1114  -18.0552  -16.2159 O   0  0  0  0  0  0  0  0  0  0  0  0
   22.7284  -18.5689  -15.0887 C   0  0  0  0  0  0  0  0  0  0  0  0
   24.0791  -18.3977  -14.8967 C   0  0  0  0  0  0  0  0  0  0  0  0
   24.6741  -18.9191  -13.7644 C   0  0  0  0  0  0  0  0  0  0  0  0
   23.9289  -19.6106  -12.8222 C   0  0  0  0  0  0  0  0  0  0  0  0
   24.5354  -20.1830  -11.5924 C   0  0  0  0  0  0  0  0  0  0  0  0
   25.6467  -21.1581  -12.0002 C   0  0  2  0  0  0  0  0  0  0  0  0
   24.9878  -22.2596  -12.6384 N   0  0  0  0  0  0  0  0  0  0  0  0
   26.4483  -21.5819  -10.8337 C   0  0  0  0  0  0  0  0  0  0  0  0
   25.9024  -22.4245  -10.0398 O   0  0  0  0  0  0  0  0  0  0  0  0
   22.5621  -19.7637  -13.0520 C   0  0  0  0  0  0  0  0  0  0  0  0
   21.9591  -19.2488  -14.1758 C   0  0  0  0  0  0  0  0  0  0  0  0
   27.7354  -21.1412  -10.5352 N   0  0  0  0  0  0  0  0  0  0  0  0
   28.5536  -20.2672  -11.3617 C   0  0  0  0  0  0  0  0  0  0  0  0
   29.9870  -20.6636  -11.0596 C   0  0  0  0  0  0  0  0  0  0  0  0
   29.9695  -21.5004   -9.8183 C   0  0  0  0  0  0  0  0  0  0  0  0
   28.5363  -21.4377   -9.3718 C   0  0  1  0  0  0  0  0  0  0  0  0
   28.3936  -20.4024   -8.3194 C   0  0  0  0  0  0  0  0  0  0  0  0
   28.1026  -19.2034   -8.5829 O   0  0  0  0  0  0  0  0  0  0  0  0
   27.2249  -19.5900   -3.6457 C   0  0  0  0  0  0  0  0  0  0  0  0
   27.5434  -20.5639   -4.7693 C   0  0  2  0  0  0  0  0  0  0  0  0
   28.2469  -21.7631   -4.2076 C   0  0  0  0  0  0  0  0  0  0  0  0
   28.3151  -19.8841   -5.8782 C   0  0  2  0  0  0  0  0  0  0  0  0
   28.5979  -20.8061   -6.9699 N   0  0  0  0  0  0  0  0  0  0  0  0
   29.5979  -19.4051   -5.3322 C   0  0  0  0  0  0  0  0  0  0  0  0
   30.6340  -20.0753   -5.5143 O   0  0  0  0  0  0  0  0  0  0  0  0
   29.6750  -18.2289   -4.6229 O   0  0  0  0  0  0  0  0  0  0  0  0
  2  3  2  0
  2  1  1  0
  4  3  1  0
  5  4  2  0
  6  5  1  0
  7  6  1  0
  7  9  1  0
  7  8  1  1
  9 10  2  0
  9 13  1  0
 11  5  1  0
 11 12  2  0
 12  2  1  0
 13 14  1  0
 14 15  1  0
 16 15  1  0
 17 13  1  0
 17 16  1  0
 17 18  1  1
 19 18  2  0
 21 20  1  1
 21 22  1  0
 23 21  1  0
 23 24  1  6
 24 18  1  0
 25 23  1  0
 26 25  2  0
 27 25  1  0
M  END
$$$$
