YPV.pdb
     RDKit          3D

 27 28  0  0  1  0  0  0  0  0999 V2000
   21.2228  -17.6721  -19.0688 O   0  0  0  0  0  0  0  0  0  0  0  0
   21.7641  -18.2058  -17.9123 C   0  0  0  0  0  0  0  0  0  0  0  0
   23.0563  -17.9088  -17.5482 C   0  0  0  0  0  0  0  0  0  0  0  0
   23.5762  -18.4528  -16.3899 C   0  0  0  0  0  0  0  0  0  0  0  0
   22.8138  -19.2919  -15.5924 C   0  0  0  0  0  0  0  0  0  0  0  0
   23.3399  -19.8931  -14.3396 C   0  0  0  0  0  0  0  0  0  0  0  0
   24.3370  -20.9994  -14.7058 C   0  0  2  0  0  0  0  0  0  0  0  0
   23.5509  -22.0807  -15.2231 N   0  0  0  0  0  0  0  0  0  0  0  0
   25.1490  -21.4026  -13.5393 C   0  0  0  0  0  0  0  0  0  0  0  0
   24.6530  -22.3074  -12.7820 O   0  0  0  0  0  0  0  0  0  0  0  0
   21.5079  -19.5697  -15.9946 C   0  0  0  0  0  0  0  0  0  0  0  0
   20.9800  -19.0337  -17.1459 C   0  0  0  0  0  0  0  0  0  0  0  0
   26.3963  -20.8810  -13.2045 N   0  0  0  0  0  0  0  0  0  0  0  0
   27.1332  -19.8765  -13.9557 C   0  0  0  0  0  0  0  0  0  0  0  0
   28.5966  -20.1742  -13.6860 C   0  0  0  0  0  0  0  0  0  0  0  0
   28.6570  -21.1084  -12.5177 C   0  0  0  0  0  0  0  0  0  0  0  0
   27.2264  -21.2034  -12.0687 C   0  0  1  0  0  0  0  0  0  0  0  0
   27.0036  -20.2736  -10.9350 C   0  0  0  0  0  0  0  0  0  0  0  0
   26.8748  -19.0286  -11.0943 O   0  0  0  0  0  0  0  0  0  0  0  0
   25.2363  -22.0293   -7.5290 C   0  0  0  0  0  0  0  0  0  0  0  0
   25.0832  -20.6052   -8.0397 C   0  0  2  0  0  0  0  0  0  0  0  0
   24.0086  -20.5611   -9.0846 C   0  0  0  0  0  0  0  0  0  0  0  0
   26.4065  -20.0529   -8.5206 C   0  0  2  0  0  0  0  0  0  0  0  0
   26.9366  -20.8354   -9.6289 N   0  0  0  0  0  0  0  0  0  0  0  0
   27.3721  -20.1121   -7.4082 C   0  0  0  0  0  0  0  0  0  0  0  0
   28.2549  -20.9932   -7.4046 O   0  0  0  0  0  0  0  0  0  0  0  0
   27.3181  -19.2111   -6.3699 O   0  0  0  0  0  0  0  0  0  0  0  0
  2  3  2  0
  2  1  1  0
  4  3  1  0
  5  4  2  0
  6  5  1  0
  7  6  1  0
  7  9  1  0
  7  8  1  1
  9 10  2  0
  9 13  1  0
 11  5  1  0
 11 12  2  0
 12  2  1  0
 13 14  1  0
 14 15  1  0
 16 15  1  0
 17 13  1  0
 17 16  1  0
 17 18  1  1
 19 18  2  0
 21 20  1  6
 21 22  1  0
 23 21  1  0
 23 24  1  6
 24 18  1  0
 25 23  1  0
 26 25  2  0
 27 25  1  0
M  END
$$$$
