YPV.pdb
     RDKit          3D

 27 28  0  0  1  0  0  0  0  0999 V2000
   36.1194   -2.3287   -3.8974 O   0  0  0  0  0  0  0  0  0  0  0  0
   36.8640   -3.1993   -4.6740 C   0  0  0  0  0  0  0  0  0  0  0  0
   36.4077   -4.4721   -4.9232 C   0  0  0  0  0  0  0  0  0  0  0  0
   37.1673   -5.3243   -5.7007 C   0  0  0  0  0  0  0  0  0  0  0  0
   38.3802   -4.9135   -6.2314 C   0  0  0  0  0  0  0  0  0  0  0  0
   39.2221   -5.8027   -7.0731 C   0  0  0  0  0  0  0  0  0  0  0  0
   39.8439   -6.8824   -6.1789 C   0  0  2  0  0  0  0  0  0  0  0  0
   40.8649   -6.2228   -5.4193 N   0  0  0  0  0  0  0  0  0  0  0  0
   40.3750   -8.0057   -6.9781 C   0  0  0  0  0  0  0  0  0  0  0  0
   41.6174   -7.9549   -7.2818 O   0  0  0  0  0  0  0  0  0  0  0  0
   38.8095   -3.6156   -5.9565 C   0  0  0  0  0  0  0  0  0  0  0  0
   38.0614   -2.7587   -5.1836 C   0  0  0  0  0  0  0  0  0  0  0  0
   39.6379   -9.1014   -7.4208 N   0  0  0  0  0  0  0  0  0  0  0  0
   38.2072   -9.2974   -7.2450 C   0  0  0  0  0  0  0  0  0  0  0  0
   38.0177  -10.8018   -7.1826 C   0  0  0  0  0  0  0  0  0  0  0  0
   39.2821  -11.4345   -7.6749 C   0  0  0  0  0  0  0  0  0  0  0  0
   40.1045  -10.2648   -8.1362 C   0  0  1  0  0  0  0  0  0  0  0  0
   39.9602  -10.1102   -9.6041 C   0  0  0  0  0  0  0  0  0  0  0  0
   39.0208   -9.4503  -10.1274 O   0  0  0  0  0  0  0  0  0  0  0  0
   42.8954   -9.4989  -13.4324 C   0  0  0  0  0  0  0  0  0  0  0  0
   42.6528  -10.0732  -12.0455 C   0  0  2  0  0  0  0  0  0  0  0  0
   43.4428  -11.3372  -11.8821 C   0  0  0  0  0  0  0  0  0  0  0  0
   41.1748  -10.2546  -11.7809 C   0  0  2  0  0  0  0  0  0  0  0  0
   40.9337  -10.7409  -10.4292 N   0  0  0  0  0  0  0  0  0  0  0  0
   40.6462  -11.2492  -12.7322 C   0  0  0  0  0  0  0  0  0  0  0  0
   40.5481  -12.4430  -12.3847 O   0  0  0  0  0  0  0  0  0  0  0  0
   40.2574  -10.8847  -14.0005 O   0  0  0  0  0  0  0  0  0  0  0  0
  2  3  2  0
  2  1  1  0
  4  3  1  0
  5  4  2  0
  6  5  1  0
  7  6  1  0
  7  9  1  0
  7  8  1  6
  9 10  2  0
  9 13  1  0
 11  5  1  0
 11 12  2  0
 12  2  1  0
 13 14  1  0
 14 15  1  0
 16 15  1  0
 17 13  1  0
 17 16  1  0
 17 18  1  6
 19 18  2  0
 21 20  1  6
 21 22  1  0
 23 21  1  0
 23 24  1  1
 24 18  1  0
 25 23  1  0
 26 25  2  0
 27 25  1  0
M  END
$$$$
