YPV.pdb
     RDKit          3D

 27 28  0  0  1  0  0  0  0  0999 V2000
   14.2517  -18.7002  -16.2136 O   0  0  0  0  0  0  0  0  0  0  0  0
   15.2238  -17.7184  -16.2940 C   0  0  0  0  0  0  0  0  0  0  0  0
   16.3002  -17.8732  -17.1355 C   0  0  0  0  0  0  0  0  0  0  0  0
   17.2586  -16.8807  -17.1996 C   0  0  0  0  0  0  0  0  0  0  0  0
   17.1491  -15.7339  -16.4287 C   0  0  0  0  0  0  0  0  0  0  0  0
   18.1600  -14.6457  -16.4737 C   0  0  0  0  0  0  0  0  0  0  0  0
   17.9107  -13.7945  -17.7248 C   0  0  2  0  0  0  0  0  0  0  0  0
   18.3211  -14.6010  -18.8365 N   0  0  0  0  0  0  0  0  0  0  0  0
   18.6420  -12.5123  -17.6603 C   0  0  0  0  0  0  0  0  0  0  0  0
   19.8753  -12.5390  -18.0016 O   0  0  0  0  0  0  0  0  0  0  0  0
   16.0436  -15.6131  -15.5875 C   0  0  0  0  0  0  0  0  0  0  0  0
   15.0833  -16.5951  -15.5156 C   0  0  0  0  0  0  0  0  0  0  0  0
   18.1000  -11.2928  -17.2618 N   0  0  0  0  0  0  0  0  0  0  0  0
   16.7525  -11.0796  -16.7567 C   0  0  0  0  0  0  0  0  0  0  0  0
   16.3963   -9.6616  -17.1634 C   0  0  0  0  0  0  0  0  0  0  0  0
   17.6644   -8.9805  -17.5753 C   0  0  0  0  0  0  0  0  0  0  0  0
   18.7274   -9.9930  -17.2558 C   0  0  1  0  0  0  0  0  0  0  0  0
   19.3320   -9.6731  -15.9398 C   0  0  0  0  0  0  0  0  0  0  0  0
   18.8293  -10.0623  -14.8501 O   0  0  0  0  0  0  0  0  0  0  0  0
   23.3888   -8.3831  -16.0402 C   0  0  0  0  0  0  0  0  0  0  0  0
   22.7370   -9.1723  -14.9156 C   0  0  2  0  0  0  0  0  0  0  0  0
   22.8884  -10.6403  -15.1815 C   0  0  0  0  0  0  0  0  0  0  0  0
   21.2998   -8.7475  -14.7128 C   0  0  2  0  0  0  0  0  0  0  0  0
   20.5248   -8.8964  -15.9371 N   0  0  0  0  0  0  0  0  0  0  0  0
   21.2810   -7.3259  -14.3227 C   0  0  0  0  0  0  0  0  0  0  0  0
   20.9998   -6.4572  -15.1724 O   0  0  0  0  0  0  0  0  0  0  0  0
   21.5687   -6.9372  -13.0347 O   0  0  0  0  0  0  0  0  0  0  0  0
  2  3  2  0
  2  1  1  0
  4  3  1  0
  5  4  2  0
  6  5  1  0
  7  6  1  0
  7  9  1  0
  7  8  1  6
  9 10  2  0
  9 13  1  0
 11  5  1  0
 11 12  2  0
 12  2  1  0
 13 14  1  0
 14 15  1  0
 16 15  1  0
 17 13  1  0
 17 16  1  0
 17 18  1  1
 19 18  2  0
 21 20  1  6
 21 22  1  0
 23 21  1  0
 23 24  1  6
 24 18  1  0
 25 23  1  0
 26 25  2  0
 27 25  1  0
M  END
$$$$
