YPV.pdb
     RDKit          3D

 27 28  0  0  1  0  0  0  0  0999 V2000
   28.1882  -19.4993   -4.2848 O   0  0  0  0  0  0  0  0  0  0  0  0
   27.8064  -19.9114   -5.5497 C   0  0  0  0  0  0  0  0  0  0  0  0
   28.7549  -20.2049   -6.5008 C   0  0  0  0  0  0  0  0  0  0  0  0
   28.3511  -20.6143   -7.7567 C   0  0  0  0  0  0  0  0  0  0  0  0
   27.0059  -20.7325   -8.0691 C   0  0  0  0  0  0  0  0  0  0  0  0
   26.5360  -21.1715   -9.4087 C   0  0  0  0  0  0  0  0  0  0  0  0
   25.9995  -19.9506  -10.1662 C   0  0  2  0  0  0  0  0  0  0  0  0
   24.7597  -19.6094   -9.5328 N   0  0  0  0  0  0  0  0  0  0  0  0
   25.8348  -20.2377  -11.6060 C   0  0  0  0  0  0  0  0  0  0  0  0
   24.6510  -20.5216  -12.0013 O   0  0  0  0  0  0  0  0  0  0  0  0
   26.0738  -20.4259   -7.0783 C   0  0  0  0  0  0  0  0  0  0  0  0
   26.4645  -20.0173   -5.8245 C   0  0  0  0  0  0  0  0  0  0  0  0
   26.8550  -20.2236  -12.5541 N   0  0  0  0  0  0  0  0  0  0  0  0
   28.2808  -20.3079  -12.2780 C   0  0  0  0  0  0  0  0  0  0  0  0
   28.9489  -19.5412  -13.4044 C   0  0  0  0  0  0  0  0  0  0  0  0
   27.9265  -19.3409  -14.4796 C   0  0  0  0  0  0  0  0  0  0  0  0
   26.7423  -20.1252  -13.9896 C   0  0  1  0  0  0  0  0  0  0  0  0
   26.7319  -21.4582  -14.6396 C   0  0  0  0  0  0  0  0  0  0  0  0
   27.5572  -22.3646  -14.3409 O   0  0  0  0  0  0  0  0  0  0  0  0
   25.3232  -23.5783  -13.4259 C   0  0  0  0  0  0  0  0  0  0  0  0
   24.4657  -23.5605  -14.6815 C   0  0  2  0  0  0  0  0  0  0  0  0
   23.8775  -24.9216  -14.9051 C   0  0  0  0  0  0  0  0  0  0  0  0
   25.2478  -23.0457  -15.8692 C   0  0  2  0  0  0  0  0  0  0  0  0
   25.7417  -21.6957  -15.6341 N   0  0  0  0  0  0  0  0  0  0  0  0
   24.3548  -23.0147  -17.0417 C   0  0  0  0  0  0  0  0  0  0  0  0
   23.6459  -22.0098  -17.2502 O   0  0  0  0  0  0  0  0  0  0  0  0
   24.2878  -24.0765  -17.9139 O   0  0  0  0  0  0  0  0  0  0  0  0
  2  3  2  0
  2  1  1  0
  4  3  1  0
  5  4  2  0
  6  5  1  0
  7  6  1  0
  7  9  1  0
  7  8  1  1
  9 10  2  0
  9 13  1  0
 11  5  1  0
 11 12  2  0
 12  2  1  0
 13 14  1  0
 14 15  1  0
 16 15  1  0
 17 13  1  0
 17 16  1  0
 17 18  1  6
 19 18  2  0
 21 20  1  1
 21 22  1  0
 23 21  1  0
 23 24  1  1
 24 18  1  0
 25 23  1  0
 26 25  2  0
 27 25  1  0
M  END
$$$$
