YPV.pdb
     RDKit          3D

 27 28  0  0  1  0  0  0  0  0999 V2000
   25.6536  -15.5418  -21.3013 O   0  0  0  0  0  0  0  0  0  0  0  0
   24.8605  -14.5657  -20.7236 C   0  0  0  0  0  0  0  0  0  0  0  0
   23.6071  -14.3026  -21.2238 C   0  0  0  0  0  0  0  0  0  0  0  0
   22.8329  -13.3239  -20.6317 C   0  0  0  0  0  0  0  0  0  0  0  0
   23.3022  -12.6061  -19.5427 C   0  0  0  0  0  0  0  0  0  0  0  0
   22.4961  -11.5482  -18.8802 C   0  0  0  0  0  0  0  0  0  0  0  0
   21.8738  -12.1302  -17.6050 C   0  0  2  0  0  0  0  0  0  0  0  0
   20.9931  -13.1744  -18.0395 N   0  0  0  0  0  0  0  0  0  0  0  0
   21.1715  -11.0913  -16.8239 C   0  0  0  0  0  0  0  0  0  0  0  0
   19.9692  -10.8267  -17.1742 O   0  0  0  0  0  0  0  0  0  0  0  0
   24.5781  -12.9016  -19.0640 C   0  0  0  0  0  0  0  0  0  0  0  0
   25.3578  -13.8738  -19.6459 C   0  0  0  0  0  0  0  0  0  0  0  0
   21.7097  -10.3868  -15.7497 N   0  0  0  0  0  0  0  0  0  0  0  0
   23.0489  -10.5490  -15.2050 C   0  0  0  0  0  0  0  0  0  0  0  0
   22.9238  -10.1977  -13.7340 C   0  0  0  0  0  0  0  0  0  0  0  0
   21.6087   -9.5070  -13.5474 C   0  0  0  0  0  0  0  0  0  0  0  0
   21.0858   -9.3614  -14.9483 C   0  0  1  0  0  0  0  0  0  0  0  0
   21.3934   -7.9997  -15.4492 C   0  0  0  0  0  0  0  0  0  0  0  0
   22.5197   -7.6912  -15.9268 O   0  0  0  0  0  0  0  0  0  0  0  0
   19.1269   -4.9371  -18.2980 C   0  0  0  0  0  0  0  0  0  0  0  0
   19.1981   -6.1103  -17.3332 C   0  0  2  0  0  0  0  0  0  0  0  0
   17.8581   -6.3121  -16.6912 C   0  0  0  0  0  0  0  0  0  0  0  0
   20.3177   -5.9270  -16.3331 C   0  0  2  0  0  0  0  0  0  0  0  0
   20.3591   -7.0245  -15.3763 N   0  0  0  0  0  0  0  0  0  0  0  0
   20.0843   -4.6744  -15.5914 C   0  0  0  0  0  0  0  0  0  0  0  0
   19.4172   -4.6971  -14.5378 O   0  0  0  0  0  0  0  0  0  0  0  0
   20.5900   -3.4764  -16.0405 O   0  0  0  0  0  0  0  0  0  0  0  0
  2  3  2  0
  2  1  1  0
  4  3  1  0
  5  4  2  0
  6  5  1  0
  7  6  1  0
  7  9  1  0
  7  8  1  6
  9 10  2  0
  9 13  1  0
 11  5  1  0
 11 12  2  0
 12  2  1  0
 13 14  1  0
 14 15  1  0
 16 15  1  0
 17 13  1  0
 17 16  1  0
 17 18  1  6
 19 18  2  0
 21 20  1  6
 21 22  1  0
 23 21  1  0
 23 24  1  1
 24 18  1  0
 25 23  1  0
 26 25  2  0
 27 25  1  0
M  END
$$$$
