YPV.pdb
     RDKit          3D

 27 28  0  0  1  0  0  0  0  0999 V2000
   21.0951  -16.9432  -18.6049 O   0  0  0  0  0  0  0  0  0  0  0  0
   21.6711  -17.6157  -17.5412 C   0  0  0  0  0  0  0  0  0  0  0  0
   22.8981  -17.2285  -17.0565 C   0  0  0  0  0  0  0  0  0  0  0  0
   23.4543  -17.9141  -15.9942 C   0  0  0  0  0  0  0  0  0  0  0  0
   22.7928  -18.9843  -15.4124 C   0  0  0  0  0  0  0  0  0  0  0  0
   23.3602  -19.7430  -14.2677 C   0  0  0  0  0  0  0  0  0  0  0  0
   24.4620  -20.6724  -14.7916 C   0  0  2  0  0  0  0  0  0  0  0  0
   23.7890  -21.7070  -15.5206 N   0  0  0  0  0  0  0  0  0  0  0  0
   25.2871  -21.2073  -13.6889 C   0  0  0  0  0  0  0  0  0  0  0  0
   24.8269  -22.2316  -13.0746 O   0  0  0  0  0  0  0  0  0  0  0  0
   21.5505  -19.3472  -15.9316 C   0  0  0  0  0  0  0  0  0  0  0  0
   20.9874  -18.6717  -16.9890 C   0  0  0  0  0  0  0  0  0  0  0  0
   26.5109  -20.6897  -13.2716 N   0  0  0  0  0  0  0  0  0  0  0  0
   27.2614  -19.6314  -13.9297 C   0  0  0  0  0  0  0  0  0  0  0  0
   28.7172  -19.9246  -13.6174 C   0  0  0  0  0  0  0  0  0  0  0  0
   28.7451  -20.9270  -12.5057 C   0  0  0  0  0  0  0  0  0  0  0  0
   27.2990  -21.0688  -12.1235 C   0  0  1  0  0  0  0  0  0  0  0  0
   27.0150  -20.2126  -10.9463 C   0  0  0  0  0  0  0  0  0  0  0  0
   26.8091  -18.9717  -11.0443 O   0  0  0  0  0  0  0  0  0  0  0  0
   25.4746  -22.1277   -7.4677 C   0  0  0  0  0  0  0  0  0  0  0  0
   25.2500  -20.6989   -7.9372 C   0  0  2  0  0  0  0  0  0  0  0  0
   24.1015  -20.6634   -8.9005 C   0  0  0  0  0  0  0  0  0  0  0  0
   26.5209  -20.1039   -8.5012 C   0  0  2  0  0  0  0  0  0  0  0  0
   26.9790  -20.8423   -9.6702 N   0  0  0  0  0  0  0  0  0  0  0  0
   27.5707  -20.1739   -7.4685 C   0  0  0  0  0  0  0  0  0  0  0  0
   28.4880  -21.0120   -7.5778 O   0  0  0  0  0  0  0  0  0  0  0  0
   27.5583  -19.3296   -6.3823 O   0  0  0  0  0  0  0  0  0  0  0  0
  2  3  2  0
  2  1  1  0
  4  3  1  0
  5  4  2  0
  6  5  1  0
  7  6  1  0
  7  9  1  0
  7  8  1  1
  9 10  2  0
  9 13  1  0
 11  5  1  0
 11 12  2  0
 12  2  1  0
 13 14  1  0
 14 15  1  0
 16 15  1  0
 17 13  1  0
 17 16  1  0
 17 18  1  1
 19 18  2  0
 21 20  1  6
 21 22  1  0
 23 21  1  0
 23 24  1  6
 24 18  1  0
 25 23  1  0
 26 25  2  0
 27 25  1  0
M  END
$$$$
