AQL.pdb
     RDKit          3D

 23 22  0  0  1  0  0  0  0  0999 V2000
    6.1948  -18.7910   19.1815 C   0  0  0  0  0  0  0  0  0  0  0  0
    7.3944  -18.3216   19.9745 C   0  0  2  0  0  0  0  0  0  0  0  0
    8.2697  -19.4606   20.1489 N   0  0  0  0  0  0  0  0  0  0  0  0
    6.9201  -17.7788   21.2703 C   0  0  0  0  0  0  0  0  0  0  0  0
    6.1165  -16.8129   21.3555 O   0  0  0  0  0  0  0  0  0  0  0  0
    7.8040  -21.1489   26.4145 N   0  0  0  0  0  0  0  0  0  0  0  0
    7.2873  -19.9363   27.0022 C   0  0  0  0  0  0  0  0  0  0  0  0
    7.0405  -19.9318   28.2267 O   0  0  0  0  0  0  0  0  0  0  0  0
    7.0605  -18.7371   26.1645 C   0  0  0  0  0  0  0  0  0  0  0  0
    7.3552  -19.0861   24.7415 C   0  0  0  0  0  0  0  0  0  0  0  0
    6.9835  -17.9767   23.7829 C   0  0  2  0  0  0  0  0  0  0  0  0
    7.3822  -18.3619   22.4661 N   0  0  0  0  0  0  0  0  0  0  0  0
    7.5973  -16.7178   24.2466 C   0  0  0  0  0  0  0  0  0  0  0  0
    8.8230  -16.5240   24.0368 O   0  0  0  0  0  0  0  0  0  0  0  0
    5.7660  -11.4054   27.0380 C   0  0  0  0  0  0  0  0  0  0  0  0
    6.8439  -12.1757   26.3297 C   0  0  2  0  0  0  0  0  0  0  0  0
    7.5566  -11.2887   25.3640 C   0  0  0  0  0  0  0  0  0  0  0  0
    6.4829  -13.5235   25.8708 C   0  0  0  0  0  0  0  0  0  0  0  0
    7.5227  -14.4230   25.3290 C   0  0  2  0  0  0  0  0  0  0  0  0
    6.8865  -15.6930   24.9250 N   0  0  0  0  0  0  0  0  0  0  0  0
    8.6409  -14.7801   26.2026 C   0  0  0  0  0  0  0  0  0  0  0  0
    8.6369  -15.7364   27.2041 O   0  0  0  0  0  0  0  0  0  0  0  0
    9.7611  -14.1716   26.0704 O   0  0  0  0  0  0  0  0  0  0  0  0
  2  1  1  6
  2  3  1  0
  4  2  1  0
  5  4  2  0
  6  7  1  0
  7  8  2  0
  7  9  1  0
  9 10  1  0
 11 10  1  1
 11 13  1  0
 11 12  1  0
 12  4  1  0
 13 20  1  0
 14 13  2  0
 16 15  1  6
 17 16  1  0
 18 16  1  0
 19 18  1  1
 19 21  1  0
 20 19  1  0
 21 22  1  0
 23 21  2  0
M  END
$$$$
