AQL.pdb
     RDKit          3D

 23 22  0  0  1  0  0  0  0  0999 V2000
    8.3144  -12.2513   19.0114 C   0  0  0  0  0  0  0  0  0  0  0  0
    8.5423  -13.6873   18.5939 C   0  0  2  0  0  0  0  0  0  0  0  0
    7.7159  -13.9358   17.4323 N   0  0  0  0  0  0  0  0  0  0  0  0
    8.1873  -14.5709   19.7305 C   0  0  0  0  0  0  0  0  0  0  0  0
    7.0197  -15.0005   19.9257 O   0  0  0  0  0  0  0  0  0  0  0  0
   11.1244  -19.6637   21.2725 N   0  0  0  0  0  0  0  0  0  0  0  0
   11.0406  -18.9626   22.5310 C   0  0  0  0  0  0  0  0  0  0  0  0
   11.8627  -19.2537   23.4254 O   0  0  0  0  0  0  0  0  0  0  0  0
   10.0032  -17.9281   22.7430 C   0  0  0  0  0  0  0  0  0  0  0  0
   10.0940  -16.9273   21.6368 C   0  0  0  0  0  0  0  0  0  0  0  0
    9.0229  -15.8632   21.7275 C   0  0  2  0  0  0  0  0  0  0  0  0
    9.1932  -14.9536   20.6390 N   0  0  0  0  0  0  0  0  0  0  0  0
    9.0949  -15.2235   23.0550 C   0  0  0  0  0  0  0  0  0  0  0  0
   10.0713  -14.4744   23.3183 O   0  0  0  0  0  0  0  0  0  0  0  0
    5.3932  -12.4381   26.8920 C   0  0  0  0  0  0  0  0  0  0  0  0
    6.7838  -12.9230   26.5956 C   0  0  2  0  0  0  0  0  0  0  0  0
    7.7332  -11.7717   26.5721 C   0  0  0  0  0  0  0  0  0  0  0  0
    6.9077  -13.9239   25.5277 C   0  0  0  0  0  0  0  0  0  0  0  0
    8.1735  -14.6662   25.3537 C   0  0  2  0  0  0  0  0  0  0  0  0
    8.1205  -15.3989   24.0726 N   0  0  0  0  0  0  0  0  0  0  0  0
    8.5372  -15.6472   26.3766 C   0  0  0  0  0  0  0  0  0  0  0  0
    9.4661  -15.4815   27.3901 O   0  0  0  0  0  0  0  0  0  0  0  0
    7.9686  -16.7958   26.3764 O   0  0  0  0  0  0  0  0  0  0  0  0
  2  1  1  1
  2  3  1  0
  4  2  1  0
  5  4  2  0
  6  7  1  0
  7  8  2  0
  7  9  1  0
  9 10  1  0
 11 10  1  1
 11 13  1  0
 11 12  1  0
 12  4  1  0
 13 20  1  0
 14 13  2  0
 16 15  1  6
 17 16  1  0
 18 16  1  0
 19 18  1  1
 19 21  1  0
 20 19  1  0
 21 22  1  0
 23 21  2  0
M  END
$$$$
