AQL.pdb
     RDKit          3D

 23 22  0  0  1  0  0  0  0  0999 V2000
    8.3878  -12.3907   19.0620 C   0  0  0  0  0  0  0  0  0  0  0  0
    8.4878  -13.8734   18.7791 C   0  0  2  0  0  0  0  0  0  0  0  0
    7.5208  -14.1828   17.7481 N   0  0  0  0  0  0  0  0  0  0  0  0
    8.2189  -14.6124   20.0362 C   0  0  0  0  0  0  0  0  0  0  0  0
    7.0670  -14.7231   20.5329 O   0  0  0  0  0  0  0  0  0  0  0  0
   12.2644  -18.8828   21.8411 N   0  0  0  0  0  0  0  0  0  0  0  0
   11.3191  -18.9712   22.9279 C   0  0  0  0  0  0  0  0  0  0  0  0
   11.4753  -19.8762   23.7746 O   0  0  0  0  0  0  0  0  0  0  0  0
   10.1988  -18.0085   23.0245 C   0  0  0  0  0  0  0  0  0  0  0  0
   10.2824  -17.0613   21.8714 C   0  0  0  0  0  0  0  0  0  0  0  0
    9.1796  -16.0263   21.8894 C   0  0  2  0  0  0  0  0  0  0  0  0
    9.2925  -15.2222   20.7139 N   0  0  0  0  0  0  0  0  0  0  0  0
    9.2640  -15.2587   23.1464 C   0  0  0  0  0  0  0  0  0  0  0  0
   10.2955  -14.5746   23.3746 O   0  0  0  0  0  0  0  0  0  0  0  0
    5.5464  -12.1459   26.8097 C   0  0  0  0  0  0  0  0  0  0  0  0
    6.9352  -12.6779   26.5974 C   0  0  2  0  0  0  0  0  0  0  0  0
    7.9349  -11.5840   26.7738 C   0  0  0  0  0  0  0  0  0  0  0  0
    7.1157  -13.5813   25.4534 C   0  0  0  0  0  0  0  0  0  0  0  0
    8.3351  -14.4097   25.3509 C   0  0  2  0  0  0  0  0  0  0  0  0
    8.2430  -15.2393   24.1327 N   0  0  0  0  0  0  0  0  0  0  0  0
    8.6349  -15.3245   26.4528 C   0  0  0  0  0  0  0  0  0  0  0  0
    8.3231  -16.6721   26.5186 O   0  0  0  0  0  0  0  0  0  0  0  0
    9.2448  -14.8817   27.4893 O   0  0  0  0  0  0  0  0  0  0  0  0
  2  1  1  1
  2  3  1  0
  4  2  1  0
  5  4  2  0
  6  7  1  0
  7  8  2  0
  7  9  1  0
  9 10  1  0
 11 10  1  1
 11 13  1  0
 11 12  1  0
 12  4  1  0
 13 20  1  0
 14 13  2  0
 16 15  1  6
 17 16  1  0
 18 16  1  0
 19 18  1  1
 19 21  1  0
 20 19  1  0
 21 22  1  0
 23 21  2  0
M  END
$$$$
