AQL.pdb
     RDKit          3D

 23 22  0  0  1  0  0  0  0  0999 V2000
    8.0772  -12.1440   19.5223 C   0  0  0  0  0  0  0  0  0  0  0  0
    8.4236  -13.5757   19.1779 C   0  0  2  0  0  0  0  0  0  0  0  0
    7.6510  -13.9381   18.0093 N   0  0  0  0  0  0  0  0  0  0  0  0
    8.1043  -14.4321   20.3455 C   0  0  0  0  0  0  0  0  0  0  0  0
    6.9249  -14.7015   20.6954 O   0  0  0  0  0  0  0  0  0  0  0  0
   10.9049  -19.3765   20.9481 N   0  0  0  0  0  0  0  0  0  0  0  0
   10.3057  -19.4164   22.2604 C   0  0  0  0  0  0  0  0  0  0  0  0
   10.2040  -20.5235   22.8300 O   0  0  0  0  0  0  0  0  0  0  0  0
    9.8286  -18.1710   22.9027 C   0  0  0  0  0  0  0  0  0  0  0  0
   10.0161  -17.0383   21.9458 C   0  0  0  0  0  0  0  0  0  0  0  0
    9.0154  -15.9247   22.1615 C   0  0  2  0  0  0  0  0  0  0  0  0
    9.1594  -14.9740   21.1048 N   0  0  0  0  0  0  0  0  0  0  0  0
    9.2167  -15.3544   23.5072 C   0  0  0  0  0  0  0  0  0  0  0  0
   10.3218  -14.8193   23.7833 O   0  0  0  0  0  0  0  0  0  0  0  0
    8.1170  -11.7679   26.1074 C   0  0  0  0  0  0  0  0  0  0  0  0
    7.0023  -12.7558   25.9117 C   0  0  2  0  0  0  0  0  0  0  0  0
    5.7017  -12.1471   26.3182 C   0  0  0  0  0  0  0  0  0  0  0  0
    7.2711  -14.1320   26.3491 C   0  0  0  0  0  0  0  0  0  0  0  0
    8.4852  -14.8324   25.8812 C   0  0  2  0  0  0  0  0  0  0  0  0
    8.2310  -15.3687   24.5290 N   0  0  0  0  0  0  0  0  0  0  0  0
    8.9813  -15.9511   26.6833 C   0  0  0  0  0  0  0  0  0  0  0  0
    9.8006  -15.8726   27.7969 O   0  0  0  0  0  0  0  0  0  0  0  0
    8.6558  -17.1482   26.3618 O   0  0  0  0  0  0  0  0  0  0  0  0
  2  1  1  1
  2  3  1  0
  4  2  1  0
  5  4  2  0
  6  7  1  0
  7  8  2  0
  7  9  1  0
  9 10  1  0
 11 10  1  6
 11 13  1  0
 11 12  1  0
 12  4  1  0
 13 20  1  0
 14 13  2  0
 16 15  1  1
 17 16  1  0
 18 16  1  0
 19 18  1  1
 19 21  1  0
 20 19  1  0
 21 22  1  0
 23 21  2  0
M  END
$$$$
