AQL.pdb
     RDKit          3D

 23 22  0  0  1  0  0  0  0  0999 V2000
    8.5782  -20.3790   21.1435 C   0  0  0  0  0  0  0  0  0  0  0  0
    8.1725  -19.4382   22.2563 C   0  0  2  0  0  0  0  0  0  0  0  0
    6.7485  -19.2122   22.1334 N   0  0  0  0  0  0  0  0  0  0  0  0
    8.9504  -18.1832   22.1199 C   0  0  0  0  0  0  0  0  0  0  0  0
   10.1970  -18.1280   22.2903 O   0  0  0  0  0  0  0  0  0  0  0  0
    7.1997  -12.2050   18.8386 N   0  0  0  0  0  0  0  0  0  0  0  0
    8.0103  -13.3990   18.8383 C   0  0  0  0  0  0  0  0  0  0  0  0
    8.0515  -14.0848   17.7951 O   0  0  0  0  0  0  0  0  0  0  0  0
    8.7675  -13.7889   20.0490 C   0  0  0  0  0  0  0  0  0  0  0  0
    8.0002  -14.8489   20.7712 C   0  0  0  0  0  0  0  0  0  0  0  0
    8.8827  -15.7072   21.6501 C   0  0  2  0  0  0  0  0  0  0  0  0
    8.2754  -16.9933   21.7851 N   0  0  0  0  0  0  0  0  0  0  0  0
    9.0995  -15.0133   22.9338 C   0  0  0  0  0  0  0  0  0  0  0  0
    9.6716  -13.8923   22.9316 O   0  0  0  0  0  0  0  0  0  0  0  0
    5.8914  -12.4742   26.8081 C   0  0  0  0  0  0  0  0  0  0  0  0
    7.2756  -13.0398   26.6627 C   0  0  2  0  0  0  0  0  0  0  0  0
    8.2918  -11.9715   26.8936 C   0  0  0  0  0  0  0  0  0  0  0  0
    7.4906  -13.9435   25.5249 C   0  0  0  0  0  0  0  0  0  0  0  0
    8.7389  -14.7286   25.4303 C   0  0  2  0  0  0  0  0  0  0  0  0
    8.6994  -15.5335   24.1928 N   0  0  0  0  0  0  0  0  0  0  0  0
    9.0468  -15.6575   26.5182 C   0  0  0  0  0  0  0  0  0  0  0  0
    8.9553  -17.0386   26.4789 O   0  0  0  0  0  0  0  0  0  0  0  0
    9.4425  -15.1954   27.6462 O   0  0  0  0  0  0  0  0  0  0  0  0
  2  1  1  6
  2  3  1  0
  4  2  1  0
  5  4  2  0
  6  7  1  0
  7  8  2  0
  7  9  1  0
  9 10  1  0
 11 10  1  6
 11 13  1  0
 11 12  1  0
 12  4  1  0
 13 20  1  0
 14 13  2  0
 16 15  1  6
 17 16  1  0
 18 16  1  0
 19 18  1  1
 19 21  1  0
 20 19  1  0
 21 22  1  0
 23 21  2  0
M  END
$$$$
