AQL.pdb
     RDKit          3D

 23 22  0  0  1  0  0  0  0  0999 V2000
    5.5857  -18.2065   19.9411 C   0  0  0  0  0  0  0  0  0  0  0  0
    6.8772  -17.7116   20.5538 C   0  0  2  0  0  0  0  0  0  0  0  0
    7.8288  -18.8001   20.4941 N   0  0  0  0  0  0  0  0  0  0  0  0
    6.6048  -17.2846   21.9474 C   0  0  0  0  0  0  0  0  0  0  0  0
    5.7379  -16.4199   22.2419 O   0  0  0  0  0  0  0  0  0  0  0  0
    7.8194  -21.3688   24.3107 N   0  0  0  0  0  0  0  0  0  0  0  0
    6.5201  -21.0578   24.8563 C   0  0  0  0  0  0  0  0  0  0  0  0
    5.6666  -21.9686   24.9054 O   0  0  0  0  0  0  0  0  0  0  0  0
    6.2202  -19.6917   25.3411 C   0  0  0  0  0  0  0  0  0  0  0  0
    7.4410  -18.8464   25.1721 C   0  0  0  0  0  0  0  0  0  0  0  0
    7.1679  -17.5829   24.3867 C   0  0  2  0  0  0  0  0  0  0  0  0
    7.3426  -17.8654   22.9971 N   0  0  0  0  0  0  0  0  0  0  0  0
    8.0434  -16.5076   24.8904 C   0  0  0  0  0  0  0  0  0  0  0  0
    9.2176  -16.4193   24.4461 O   0  0  0  0  0  0  0  0  0  0  0  0
    7.1354  -11.9991   25.0572 C   0  0  0  0  0  0  0  0  0  0  0  0
    6.6954  -12.7256   26.2963 C   0  0  2  0  0  0  0  0  0  0  0  0
    5.7723  -11.8655   27.0934 C   0  0  0  0  0  0  0  0  0  0  0  0
    7.7410  -13.4540   27.0268 C   0  0  0  0  0  0  0  0  0  0  0  0
    8.5464  -14.4819   26.3351 C   0  0  2  0  0  0  0  0  0  0  0  0
    7.6439  -15.5494   25.8589 N   0  0  0  0  0  0  0  0  0  0  0  0
    9.6070  -15.1450   27.0944 C   0  0  0  0  0  0  0  0  0  0  0  0
    9.6339  -16.4700   27.4958 O   0  0  0  0  0  0  0  0  0  0  0  0
   10.6379  -14.4731   27.4527 O   0  0  0  0  0  0  0  0  0  0  0  0
  2  1  1  1
  2  3  1  0
  4  2  1  0
  5  4  2  0
  6  7  1  0
  7  8  2  0
  7  9  1  0
  9 10  1  0
 11 10  1  1
 11 13  1  0
 11 12  1  0
 12  4  1  0
 13 20  1  0
 14 13  2  0
 16 15  1  6
 17 16  1  0
 18 16  1  0
 19 18  1  1
 19 21  1  0
 20 19  1  0
 21 22  1  0
 23 21  2  0
M  END
$$$$
