AQL.pdb
     RDKit          3D

 23 22  0  0  1  0  0  0  0  0999 V2000
    8.3601  -12.0027   19.3987 C   0  0  0  0  0  0  0  0  0  0  0  0
    8.5299  -13.4436   18.9705 C   0  0  2  0  0  0  0  0  0  0  0  0
    7.7606  -13.6277   17.7588 N   0  0  0  0  0  0  0  0  0  0  0  0
    8.0588  -14.3207   20.0692 C   0  0  0  0  0  0  0  0  0  0  0  0
    6.8480  -14.6281   20.2293 O   0  0  0  0  0  0  0  0  0  0  0  0
   11.0025  -19.2458   21.2279 N   0  0  0  0  0  0  0  0  0  0  0  0
   10.0576  -19.3274   22.3157 C   0  0  0  0  0  0  0  0  0  0  0  0
    9.9781  -20.4006   22.9499 O   0  0  0  0  0  0  0  0  0  0  0  0
    9.2114  -18.1626   22.6599 C   0  0  0  0  0  0  0  0  0  0  0  0
    9.5442  -17.0397   21.7315 C   0  0  0  0  0  0  0  0  0  0  0  0
    8.7197  -15.8005   22.0005 C   0  0  2  0  0  0  0  0  0  0  0  0
    8.9987  -14.8394   20.9809 N   0  0  0  0  0  0  0  0  0  0  0  0
    9.0076  -15.3210   23.3657 C   0  0  0  0  0  0  0  0  0  0  0  0
   10.1837  -14.9800   23.6564 O   0  0  0  0  0  0  0  0  0  0  0  0
    7.7153  -11.8040   26.0330 C   0  0  0  0  0  0  0  0  0  0  0  0
    6.6873  -12.8994   26.0223 C   0  0  2  0  0  0  0  0  0  0  0  0
    5.4188  -12.4171   26.6434 C   0  0  0  0  0  0  0  0  0  0  0  0
    7.1608  -14.2368   26.4025 C   0  0  0  0  0  0  0  0  0  0  0  0
    8.3696  -14.8013   25.7670 C   0  0  2  0  0  0  0  0  0  0  0  0
    8.0310  -15.2166   24.3909 N   0  0  0  0  0  0  0  0  0  0  0  0
    9.0010  -15.9571   26.4044 C   0  0  0  0  0  0  0  0  0  0  0  0
    9.9553  -15.9312   27.4074 O   0  0  0  0  0  0  0  0  0  0  0  0
    8.6746  -17.1383   26.0290 O   0  0  0  0  0  0  0  0  0  0  0  0
  2  1  1  1
  2  3  1  0
  4  2  1  0
  5  4  2  0
  6  7  1  0
  7  8  2  0
  7  9  1  0
  9 10  1  0
 11 10  1  6
 11 13  1  0
 11 12  1  0
 12  4  1  0
 13 20  1  0
 14 13  2  0
 16 15  1  1
 17 16  1  0
 18 16  1  0
 19 18  1  1
 19 21  1  0
 20 19  1  0
 21 22  1  0
 23 21  2  0
M  END
$$$$
