AQL.pdb
     RDKit          3D

 23 22  0  0  1  0  0  0  0  0999 V2000
    8.2714  -12.0030   19.5836 C   0  0  0  0  0  0  0  0  0  0  0  0
    8.5153  -13.4041   19.0680 C   0  0  2  0  0  0  0  0  0  0  0  0
    7.7346  -13.5620   17.8600 N   0  0  0  0  0  0  0  0  0  0  0  0
    8.1166  -14.3697   20.1202 C   0  0  0  0  0  0  0  0  0  0  0  0
    6.9321  -14.7708   20.2688 O   0  0  0  0  0  0  0  0  0  0  0  0
    9.9845  -19.4569   20.5575 N   0  0  0  0  0  0  0  0  0  0  0  0
    9.6398  -19.4346   21.9587 C   0  0  0  0  0  0  0  0  0  0  0  0
    9.3817  -20.5197   22.5210 O   0  0  0  0  0  0  0  0  0  0  0  0
    9.5970  -18.1527   22.6978 C   0  0  0  0  0  0  0  0  0  0  0  0
    9.7907  -17.0344   21.7255 C   0  0  0  0  0  0  0  0  0  0  0  0
    8.8825  -15.8578   22.0058 C   0  0  2  0  0  0  0  0  0  0  0  0
    9.0984  -14.8676   20.9988 N   0  0  0  0  0  0  0  0  0  0  0  0
    9.1325  -15.3763   23.3778 C   0  0  0  0  0  0  0  0  0  0  0  0
   10.2922  -14.9998   23.6896 O   0  0  0  0  0  0  0  0  0  0  0  0
    7.8566  -11.8281   26.1417 C   0  0  0  0  0  0  0  0  0  0  0  0
    6.7937  -12.8790   25.9912 C   0  0  2  0  0  0  0  0  0  0  0  0
    5.5004  -12.3820   26.5457 C   0  0  0  0  0  0  0  0  0  0  0  0
    7.1891  -14.2537   26.3249 C   0  0  0  0  0  0  0  0  0  0  0  0
    8.4253  -14.8268   25.7529 C   0  0  2  0  0  0  0  0  0  0  0  0
    8.1362  -15.3080   24.3870 N   0  0  0  0  0  0  0  0  0  0  0  0
    9.0527  -15.9432   26.4607 C   0  0  0  0  0  0  0  0  0  0  0  0
    9.9544  -15.8579   27.5082 O   0  0  0  0  0  0  0  0  0  0  0  0
    8.7754  -17.1446   26.1111 O   0  0  0  0  0  0  0  0  0  0  0  0
  2  1  1  1
  2  3  1  0
  4  2  1  0
  5  4  2  0
  6  7  1  0
  7  8  2  0
  7  9  1  0
  9 10  1  0
 11 10  1  6
 11 13  1  0
 11 12  1  0
 12  4  1  0
 13 20  1  0
 14 13  2  0
 16 15  1  1
 17 16  1  0
 18 16  1  0
 19 18  1  1
 19 21  1  0
 20 19  1  0
 21 22  1  0
 23 21  2  0
M  END
$$$$
