AQL.pdb
     RDKit          3D

 23 22  0  0  1  0  0  0  0  0999 V2000
    7.3599  -12.6819   18.2826 C   0  0  0  0  0  0  0  0  0  0  0  0
    8.6289  -13.2794   18.8491 C   0  0  2  0  0  0  0  0  0  0  0  0
    9.1471  -14.2056   17.8655 N   0  0  0  0  0  0  0  0  0  0  0  0
    8.3029  -13.9507   20.1304 C   0  0  0  0  0  0  0  0  0  0  0  0
    7.7274  -13.3637   21.0844 O   0  0  0  0  0  0  0  0  0  0  0  0
    9.5044  -20.0519   20.6978 N   0  0  0  0  0  0  0  0  0  0  0  0
    9.0045  -19.7685   22.0216 C   0  0  0  0  0  0  0  0  0  0  0  0
    8.8695  -20.7209   22.8186 O   0  0  0  0  0  0  0  0  0  0  0  0
    8.6645  -18.3815   22.4114 C   0  0  0  0  0  0  0  0  0  0  0  0
    8.9153  -17.4825   21.2441 C   0  0  0  0  0  0  0  0  0  0  0  0
    8.2765  -16.1218   21.4118 C   0  0  2  0  0  0  0  0  0  0  0  0
    8.6475  -15.3058   20.2993 N   0  0  0  0  0  0  0  0  0  0  0  0
    8.6742  -15.5640   22.7184 C   0  0  0  0  0  0  0  0  0  0  0  0
    9.8681  -15.2045   22.8895 O   0  0  0  0  0  0  0  0  0  0  0  0
    5.7946  -12.4795   27.2078 C   0  0  0  0  0  0  0  0  0  0  0  0
    7.0930  -12.9879   26.6488 C   0  0  2  0  0  0  0  0  0  0  0  0
    8.1071  -11.8931   26.6331 C   0  0  0  0  0  0  0  0  0  0  0  0
    6.9964  -13.8378   25.4547 C   0  0  0  0  0  0  0  0  0  0  0  0
    8.1563  -14.6480   25.0284 C   0  0  2  0  0  0  0  0  0  0  0  0
    7.7861  -15.4027   23.8142 N   0  0  0  0  0  0  0  0  0  0  0  0
    8.6927  -15.6257   25.9756 C   0  0  0  0  0  0  0  0  0  0  0  0
    9.8044  -15.4698   26.7864 O   0  0  0  0  0  0  0  0  0  0  0  0
    8.1124  -16.7613   26.1033 O   0  0  0  0  0  0  0  0  0  0  0  0
  2  1  1  6
  2  3  1  0
  4  2  1  0
  5  4  2  0
  6  7  1  0
  7  8  2  0
  7  9  1  0
  9 10  1  0
 11 10  1  6
 11 13  1  0
 11 12  1  0
 12  4  1  0
 13 20  1  0
 14 13  2  0
 16 15  1  6
 17 16  1  0
 18 16  1  0
 19 18  1  1
 19 21  1  0
 20 19  1  0
 21 22  1  0
 23 21  2  0
M  END
$$$$
