AQL.pdb
     RDKit          3D

 23 22  0  0  1  0  0  0  0  0999 V2000
    7.2438  -13.3789   18.5528 C   0  0  0  0  0  0  0  0  0  0  0  0
    8.4183  -14.0191   19.2593 C   0  0  2  0  0  0  0  0  0  0  0  0
    8.8490  -15.1404   18.4524 N   0  0  0  0  0  0  0  0  0  0  0  0
    7.9821  -14.4403   20.6124 C   0  0  0  0  0  0  0  0  0  0  0  0
    7.5382  -13.6333   21.4713 O   0  0  0  0  0  0  0  0  0  0  0  0
    5.8499  -19.5187   22.0636 N   0  0  0  0  0  0  0  0  0  0  0  0
    6.4503  -19.3349   23.3631 C   0  0  0  0  0  0  0  0  0  0  0  0
    5.9263  -19.9068   24.3422 O   0  0  0  0  0  0  0  0  0  0  0  0
    7.6549  -18.4885   23.5172 C   0  0  0  0  0  0  0  0  0  0  0  0
    7.9533  -17.8393   22.2044 C   0  0  0  0  0  0  0  0  0  0  0  0
    7.5982  -16.3691   22.1900 C   0  0  2  0  0  0  0  0  0  0  0  0
    8.0634  -15.8017   20.9641 N   0  0  0  0  0  0  0  0  0  0  0  0
    8.1611  -15.7288   23.3940 C   0  0  0  0  0  0  0  0  0  0  0  0
    9.4050  -15.5503   23.4642 O   0  0  0  0  0  0  0  0  0  0  0  0
    5.9195  -11.6560   27.4533 C   0  0  0  0  0  0  0  0  0  0  0  0
    7.1144  -12.3937   26.9195 C   0  0  2  0  0  0  0  0  0  0  0  0
    8.2125  -11.4322   26.6082 C   0  0  0  0  0  0  0  0  0  0  0  0
    6.8388  -13.4479   25.9344 C   0  0  0  0  0  0  0  0  0  0  0  0
    7.9116  -14.3802   25.5300 C   0  0  2  0  0  0  0  0  0  0  0  0
    7.3812  -15.2930   24.4974 N   0  0  0  0  0  0  0  0  0  0  0  0
    8.5077  -15.2268   26.5639 C   0  0  0  0  0  0  0  0  0  0  0  0
    9.6646  -14.9692   27.2799 O   0  0  0  0  0  0  0  0  0  0  0  0
    7.9413  -16.3339   26.8735 O   0  0  0  0  0  0  0  0  0  0  0  0
  2  1  1  6
  2  3  1  0
  4  2  1  0
  5  4  2  0
  6  7  1  0
  7  8  2  0
  7  9  1  0
  9 10  1  0
 11 10  1  6
 11 13  1  0
 11 12  1  0
 12  4  1  0
 13 20  1  0
 14 13  2  0
 16 15  1  6
 17 16  1  0
 18 16  1  0
 19 18  1  1
 19 21  1  0
 20 19  1  0
 21 22  1  0
 23 21  2  0
M  END
$$$$
