RRD.pdb
     RDKit          3D

 31 30  0  0  1  0  0  0  0  0999 V2000
   21.3062  -14.3138  -15.1738 N   0  0  0  0  0  0  0  0  0  0  0  0
   20.7804  -13.0517  -15.6019 C   0  0  0  0  0  0  0  0  0  0  0  0
   19.5731  -13.0665  -16.0477 N   0  0  0  0  0  0  0  0  0  0  0  0
   21.5967  -11.9184  -15.5015 N   0  0  0  0  0  0  0  0  0  0  0  0
   22.9200  -12.0810  -14.8590 C   0  0  0  0  0  0  0  0  0  0  0  0
   23.7628  -12.9996  -15.6938 C   0  0  0  0  0  0  0  0  0  0  0  0
   25.1164  -13.2721  -15.1783 C   0  0  0  0  0  0  0  0  0  0  0  0
   26.0601  -14.0174  -16.0794 C   0  0  2  0  0  0  0  0  0  0  0  0
   26.0794  -13.4480  -17.3837 N   0  0  0  0  0  0  0  0  0  0  0  0
   25.7352  -15.4480  -16.0301 C   0  0  0  0  0  0  0  0  0  0  0  0
   24.9269  -15.9335  -16.8646 O   0  0  0  0  0  0  0  0  0  0  0  0
   19.1682  -12.1702  -16.3893 N   0  0  0  0  0  0  0  0  0  0  0  0
   24.8021  -22.2287  -12.4175 C   0  0  0  0  0  0  0  0  0  0  0  0
   25.6846  -22.9414  -13.2583 N   0  0  0  0  0  0  0  0  0  0  0  0
   25.3374  -24.1074  -13.7323 N   0  0  0  0  0  0  0  0  0  0  0  0
   26.9751  -22.4003  -13.6106 C   0  0  0  0  0  0  0  0  0  0  0  0
   27.2286  -21.0021  -13.4749 C   0  0  0  0  0  0  0  0  0  0  0  0
   26.3227  -20.1633  -14.3836 C   0  0  0  0  0  0  0  0  0  0  0  0
   26.7286  -18.7093  -14.2904 C   0  0  2  0  0  0  0  0  0  0  0  0
   25.9472  -17.7714  -15.1065 N   0  0  0  0  0  0  0  0  0  0  0  0
   26.2615  -16.3907  -15.0930 C   0  0  0  0  0  0  0  0  0  0  0  0
   24.4963  -17.9256  -14.7298 O   0  0  0  0  0  0  0  0  0  0  0  0
   24.1271  -17.4817  -13.6193 N   0  0  0  0  0  0  0  0  0  0  0  0
   25.8925  -24.6513  -14.3978 C   0  0  2  0  0  0  0  0  0  0  0  0
   23.5381  -18.5396  -15.5570 C   0  0  0  0  0  0  0  0  0  0  0  0
   22.1395  -18.6896  -15.1823 C   0  0  0  0  0  0  0  0  0  0  0  0
   21.2965  -17.8656  -16.1503 O   0  0  0  0  0  0  0  0  0  0  0  0
   19.8896  -17.8476  -15.6897 C   0  0  0  0  0  0  0  0  0  0  0  0
   19.6812  -18.2062  -14.4813 O   0  0  0  0  0  0  0  0  0  0  0  0
   21.7157  -20.0902  -15.1516 O   0  0  0  0  0  0  0  0  0  0  0  0
   22.4028  -20.9885  -15.6617 O   0  0  0  0  0  0  0  0  0  0  0  0
  2  1  1  0
  3  2  2  0
  4  2  1  0
  5  4  1  0
  6  5  1  0
  7  6  1  0
  8  7  1  0
  8  9  1  6
  8 10  1  0
 10 11  2  0
 13 14  2  0
 13 12  1  0
 15 13  1  0
 16 15  1  0
 16 17  1  0
 18 17  1  0
 19 18  1  6
 19 21  1  0
 20 10  1  0
 20 19  1  0
 21 23  1  0
 22 21  2  0
 23 24  1  0
 24 25  1  1
 25 26  1  0
 26 27  2  0
 28 24  1  0
 28 31  1  0
 29 28  2  0
 30 26  1  0
M  END
$$$$
