RRD.pdb
     RDKit          3D

 31 30  0  0  1  0  0  0  0  0999 V2000
   28.3399  -21.9522  -15.6899 N   0  0  0  0  0  0  0  0  0  0  0  0
   27.9420  -21.1066  -16.7759 C   0  0  0  0  0  0  0  0  0  0  0  0
   27.9985  -21.6328  -17.9492 N   0  0  0  0  0  0  0  0  0  0  0  0
   27.5246  -19.8012  -16.4890 N   0  0  0  0  0  0  0  0  0  0  0  0
   27.5850  -19.3561  -15.0789 C   0  0  0  0  0  0  0  0  0  0  0  0
   26.1894  -19.1570  -14.5654 C   0  0  0  0  0  0  0  0  0  0  0  0
   25.8732  -19.8297  -13.2927 C   0  0  0  0  0  0  0  0  0  0  0  0
   25.0419  -21.0796  -13.3616 C   0  0  2  0  0  0  0  0  0  0  0  0
   25.1230  -21.6780  -14.6503 N   0  0  0  0  0  0  0  0  0  0  0  0
   23.6817  -20.7724  -12.9030 C   0  0  0  0  0  0  0  0  0  0  0  0
   23.5133  -20.0024  -11.9210 O   0  0  0  0  0  0  0  0  0  0  0  0
   27.8679  -21.0072  -18.7712 N   0  0  0  0  0  0  0  0  0  0  0  0
   16.7217  -17.1580  -16.2666 C   0  0  0  0  0  0  0  0  0  0  0  0
   18.1282  -17.2353  -16.1689 N   0  0  0  0  0  0  0  0  0  0  0  0
   18.8788  -16.6549  -17.0658 N   0  0  0  0  0  0  0  0  0  0  0  0
   18.7598  -17.9479  -15.0846 C   0  0  0  0  0  0  0  0  0  0  0  0
   18.1226  -19.0868  -14.5065 C   0  0  0  0  0  0  0  0  0  0  0  0
   18.9685  -19.7150  -13.3930 C   0  0  0  0  0  0  0  0  0  0  0  0
   20.3162  -20.1128  -13.9522 C   0  0  2  0  0  0  0  0  0  0  0  0
   21.1798  -20.8895  -13.0537 N   0  0  0  0  0  0  0  0  0  0  0  0
   22.4741  -21.2775  -13.4775 C   0  0  0  0  0  0  0  0  0  0  0  0
   20.4286  -22.1303  -12.6454 O   0  0  0  0  0  0  0  0  0  0  0  0
   20.2683  -23.0287  -13.5020 N   0  0  0  0  0  0  0  0  0  0  0  0
   19.9017  -16.6757  -17.0671 C   0  0  2  0  0  0  0  0  0  0  0  0
   19.8998  -22.3319  -11.3573 C   0  0  0  0  0  0  0  0  0  0  0  0
   19.2614  -23.5725  -10.9423 C   0  0  0  0  0  0  0  0  0  0  0  0
   19.0873  -23.5344   -9.4274 O   0  0  0  0  0  0  0  0  0  0  0  0
   18.7096  -24.8800   -8.9386 C   0  0  0  0  0  0  0  0  0  0  0  0
   18.5964  -25.7959   -9.8221 O   0  0  0  0  0  0  0  0  0  0  0  0
   17.9894  -23.8039  -11.6283 O   0  0  0  0  0  0  0  0  0  0  0  0
   17.7281  -24.8924  -12.1634 O   0  0  0  0  0  0  0  0  0  0  0  0
  2  1  1  0
  3  2  2  0
  4  2  1  0
  5  4  1  0
  6  5  1  0
  7  6  1  0
  8  7  1  0
  8  9  1  6
  8 10  1  0
 10 11  2  0
 13 14  2  0
 13 12  1  0
 15 13  1  0
 16 15  1  0
 16 17  1  0
 18 17  1  0
 19 18  1  1
 19 21  1  0
 20 10  1  0
 20 19  1  0
 21 23  1  0
 22 21  2  0
 23 24  1  0
 24 25  1  6
 25 26  1  0
 26 27  2  0
 28 24  1  0
 28 31  1  0
 29 28  2  0
 30 26  1  0
M  END
$$$$
