RRD.pdb
     RDKit          3D

 31 30  0  0  1  0  0  0  0  0999 V2000
   29.5901  -22.7541  -17.3676 N   0  0  0  0  0  0  0  0  0  0  0  0
   29.7686  -22.4273  -18.7511 C   0  0  0  0  0  0  0  0  0  0  0  0
   30.7941  -22.9514  -19.3259 N   0  0  0  0  0  0  0  0  0  0  0  0
   28.8333  -21.5856  -19.3655 N   0  0  0  0  0  0  0  0  0  0  0  0
   27.8899  -20.8542  -18.4908 C   0  0  0  0  0  0  0  0  0  0  0  0
   26.7123  -21.7346  -18.1920 C   0  0  0  0  0  0  0  0  0  0  0  0
   25.6180  -21.1044  -17.4322 C   0  0  0  0  0  0  0  0  0  0  0  0
   25.6512  -21.2387  -15.9359 C   0  0  2  0  0  0  0  0  0  0  0  0
   26.4280  -22.3635  -15.5399 N   0  0  0  0  0  0  0  0  0  0  0  0
   24.2747  -21.2229  -15.4260 C   0  0  0  0  0  0  0  0  0  0  0  0
   23.3616  -21.7960  -16.0767 O   0  0  0  0  0  0  0  0  0  0  0  0
   30.9694  -22.7119  -20.3238 N   0  0  0  0  0  0  0  0  0  0  0  0
   23.2693  -21.1450   -7.5021 C   0  0  0  0  0  0  0  0  0  0  0  0
   22.1040  -20.7345   -8.1856 N   0  0  0  0  0  0  0  0  0  0  0  0
   21.1278  -20.1662   -7.5306 N   0  0  0  0  0  0  0  0  0  0  0  0
   21.9696  -20.9296   -9.6090 C   0  0  0  0  0  0  0  0  0  0  0  0
   20.7846  -20.5065  -10.2829 C   0  0  0  0  0  0  0  0  0  0  0  0
   20.8659  -20.7481  -11.7945 C   0  0  0  0  0  0  0  0  0  0  0  0
   22.2925  -20.5516  -12.2567 C   0  0  2  0  0  0  0  0  0  0  0  0
   22.5287  -20.7158  -13.6967 N   0  0  0  0  0  0  0  0  0  0  0  0
   23.8408  -20.5973  -14.2160 C   0  0  0  0  0  0  0  0  0  0  0  0
   21.6456  -19.7369  -14.4266 O   0  0  0  0  0  0  0  0  0  0  0  0
   22.0692  -18.5703  -14.5879 N   0  0  0  0  0  0  0  0  0  0  0  0
   20.2182  -19.9303   -7.9353 C   0  0  2  0  0  0  0  0  0  0  0  0
   20.3750  -20.0636  -14.9347 C   0  0  0  0  0  0  0  0  0  0  0  0
   19.5107  -19.1005  -15.6014 C   0  0  0  0  0  0  0  0  0  0  0  0
   18.9710  -19.7462  -16.8735 O   0  0  0  0  0  0  0  0  0  0  0  0
   19.6910  -19.2036  -18.0479 C   0  0  0  0  0  0  0  0  0  0  0  0
   20.5918  -18.3294  -17.8098 O   0  0  0  0  0  0  0  0  0  0  0  0
   18.4311  -18.6242  -14.7354 O   0  0  0  0  0  0  0  0  0  0  0  0
   17.6391  -17.7448  -15.1078 O   0  0  0  0  0  0  0  0  0  0  0  0
  2  1  1  0
  3  2  2  0
  4  2  1  0
  5  4  1  0
  6  5  1  0
  7  6  1  0
  8  7  1  0
  8  9  1  6
  8 10  1  0
 10 11  2  0
 13 14  2  0
 13 12  1  0
 15 13  1  0
 16 15  1  0
 16 17  1  0
 18 17  1  0
 19 18  1  1
 19 21  1  0
 20 10  1  0
 20 19  1  0
 21 23  1  0
 22 21  2  0
 23 24  1  0
 24 25  1  1
 25 26  1  0
 26 27  2  0
 28 24  1  0
 28 31  1  0
 29 28  2  0
 30 26  1  0
M  END
$$$$
