RRD.pdb
     RDKit          3D

 31 30  0  0  1  0  0  0  0  0999 V2000
   33.6944  -25.5574  -14.9405 N   0  0  0  0  0  0  0  0  0  0  0  0
   32.6699  -24.9412  -15.7301 C   0  0  0  0  0  0  0  0  0  0  0  0
   32.9648  -24.7216  -16.9635 N   0  0  0  0  0  0  0  0  0  0  0  0
   31.4479  -24.6349  -15.1188 N   0  0  0  0  0  0  0  0  0  0  0  0
   30.3719  -24.0859  -15.9737 C   0  0  0  0  0  0  0  0  0  0  0  0
   30.6419  -22.6329  -16.2325 C   0  0  0  0  0  0  0  0  0  0  0  0
   29.4958  -21.7253  -16.0459 C   0  0  0  0  0  0  0  0  0  0  0  0
   28.1204  -22.3225  -16.1446 C   0  0  2  0  0  0  0  0  0  0  0  0
   27.6999  -22.4180  -17.5009 N   0  0  0  0  0  0  0  0  0  0  0  0
   27.2136  -21.5769  -15.2633 C   0  0  0  0  0  0  0  0  0  0  0  0
   27.1358  -20.3242  -15.3638 O   0  0  0  0  0  0  0  0  0  0  0  0
   32.2327  -24.3012  -17.5728 N   0  0  0  0  0  0  0  0  0  0  0  0
   18.9093  -20.7777  -14.4114 C   0  0  0  0  0  0  0  0  0  0  0  0
   20.1609  -21.0004  -15.0259 N   0  0  0  0  0  0  0  0  0  0  0  0
   20.2311  -21.6783  -16.1396 N   0  0  0  0  0  0  0  0  0  0  0  0
   21.3769  -20.4860  -14.4435 C   0  0  0  0  0  0  0  0  0  0  0  0
   22.5696  -20.4083  -15.2238 C   0  0  0  0  0  0  0  0  0  0  0  0
   23.4571  -21.6449  -15.0413 C   0  0  0  0  0  0  0  0  0  0  0  0
   24.0032  -21.6653  -13.6311 C   0  0  2  0  0  0  0  0  0  0  0  0
   25.4412  -21.4001  -13.4960 N   0  0  0  0  0  0  0  0  0  0  0  0
   26.3726  -22.1469  -14.2575 C   0  0  0  0  0  0  0  0  0  0  0  0
   25.8048  -21.5421  -12.0405 O   0  0  0  0  0  0  0  0  0  0  0  0
   26.1237  -22.6779  -11.6226 N   0  0  0  0  0  0  0  0  0  0  0  0
   21.0906  -21.8279  -16.6740 C   0  0  2  0  0  0  0  0  0  0  0  0
   25.8048  -20.4698  -11.1298 C   0  0  0  0  0  0  0  0  0  0  0  0
   26.0247  -20.6370   -9.7005 C   0  0  0  0  0  0  0  0  0  0  0  0
   26.6279  -19.3455   -9.1576 O   0  0  0  0  0  0  0  0  0  0  0  0
   26.9907  -19.5289   -7.7340 C   0  0  0  0  0  0  0  0  0  0  0  0
   27.1017  -20.7342   -7.3251 O   0  0  0  0  0  0  0  0  0  0  0  0
   24.8020  -21.0065   -8.9858 O   0  0  0  0  0  0  0  0  0  0  0  0
   23.6802  -20.6878   -9.4092 O   0  0  0  0  0  0  0  0  0  0  0  0
  2  1  1  0
  3  2  2  0
  4  2  1  0
  5  4  1  0
  6  5  1  0
  7  6  1  0
  8  7  1  0
  8  9  1  6
  8 10  1  0
 10 11  2  0
 13 14  2  0
 13 12  1  0
 15 13  1  0
 16 15  1  0
 16 17  1  0
 18 17  1  0
 19 18  1  6
 19 21  1  0
 20 10  1  0
 20 19  1  0
 21 23  1  0
 22 21  2  0
 23 24  1  0
 24 25  1  1
 25 26  1  0
 26 27  2  0
 28 24  1  0
 28 31  1  0
 29 28  2  0
 30 26  1  0
M  END
$$$$
