RRD.pdb
     RDKit          3D

 31 30  0  0  1  0  0  0  0  0999 V2000
   16.5586  -32.5721   -7.7763 N   0  0  0  0  0  0  0  0  0  0  0  0
   16.3253  -31.4354   -8.6168 C   0  0  0  0  0  0  0  0  0  0  0  0
   15.0954  -31.1946   -8.9098 N   0  0  0  0  0  0  0  0  0  0  0  0
   17.4259  -30.6826   -9.0441 N   0  0  0  0  0  0  0  0  0  0  0  0
   18.7740  -31.1649   -8.6697 C   0  0  0  0  0  0  0  0  0  0  0  0
   19.8033  -30.2124   -9.2029 C   0  0  0  0  0  0  0  0  0  0  0  0
   19.8446  -30.0691  -10.6692 C   0  0  0  0  0  0  0  0  0  0  0  0
   20.8466  -29.1054  -11.2397 C   0  0  2  0  0  0  0  0  0  0  0  0
   22.1771  -29.5163  -10.9453 N   0  0  0  0  0  0  0  0  0  0  0  0
   20.5038  -27.7472  -10.8011 C   0  0  0  0  0  0  0  0  0  0  0  0
   21.0590  -27.2622   -9.7803 O   0  0  0  0  0  0  0  0  0  0  0  0
   14.8936  -30.4019   -9.5540 N   0  0  0  0  0  0  0  0  0  0  0  0
   18.9717  -20.2773  -13.6095 C   0  0  0  0  0  0  0  0  0  0  0  0
   18.7950  -21.5171  -14.2616 N   0  0  0  0  0  0  0  0  0  0  0  0
   19.3101  -21.7125  -15.4453 N   0  0  0  0  0  0  0  0  0  0  0  0
   18.0513  -22.5853  -13.6385 C   0  0  0  0  0  0  0  0  0  0  0  0
   17.5260  -22.4210  -12.3215 C   0  0  0  0  0  0  0  0  0  0  0  0
   18.2886  -23.2603  -11.2900 C   0  0  0  0  0  0  0  0  0  0  0  0
   18.6092  -24.6135  -11.8843 C   0  0  1  0  0  0  0  0  0  0  0  0
   19.2788  -25.5653  -10.9886 N   0  0  0  0  0  0  0  0  0  0  0  0
   19.5638  -26.8779  -11.4372 C   0  0  0  0  0  0  0  0  0  0  0  0
   18.4621  -25.6684   -9.7264 O   0  0  0  0  0  0  0  0  0  0  0  0
   17.8591  -26.7420   -9.5027 N   0  0  0  0  0  0  0  0  0  0  0  0
   19.2221  -22.5805  -15.9798 C   0  0  1  0  0  0  0  0  0  0  0  0
   18.3420  -24.6257   -8.7895 C   0  0  0  0  0  0  0  0  0  0  0  0
   17.6790  -24.7817   -7.5030 C   0  0  0  0  0  0  0  0  0  0  0  0
   18.6405  -25.4912   -6.5551 O   0  0  0  0  0  0  0  0  0  0  0  0
   18.0350  -25.5743   -5.2066 C   0  0  0  0  0  0  0  0  0  0  0  0
   17.0479  -26.3745   -5.0737 O   0  0  0  0  0  0  0  0  0  0  0  0
   17.2182  -23.5061   -6.9528 O   0  0  0  0  0  0  0  0  0  0  0  0
   17.7105  -22.4263   -7.3148 O   0  0  0  0  0  0  0  0  0  0  0  0
  2  1  1  0
  3  2  2  0
  4  2  1  0
  5  4  1  0
  6  5  1  0
  7  6  1  0
  8  7  1  0
  8  9  1  1
  8 10  1  0
 10 11  2  0
 13 14  2  0
 13 12  1  0
 15 13  1  0
 16 15  1  0
 16 17  1  0
 18 17  1  0
 19 18  1  6
 19 21  1  0
 20 10  1  0
 20 19  1  0
 21 23  1  0
 22 21  2  0
 23 24  1  0
 24 25  1  6
 25 26  1  0
 26 27  2  0
 28 24  1  0
 28 31  1  0
 29 28  2  0
 30 26  1  0
M  END
$$$$
