RRD.pdb
     RDKit          3D

 31 30  0  0  1  0  0  0  0  0999 V2000
   29.3062  -16.7732  -21.4218 N   0  0  0  0  0  0  0  0  0  0  0  0
   28.4742  -16.1688  -20.4242 C   0  0  0  0  0  0  0  0  0  0  0  0
   27.8680  -15.0890  -20.7752 N   0  0  0  0  0  0  0  0  0  0  0  0
   28.3779  -16.7851  -19.1706 N   0  0  0  0  0  0  0  0  0  0  0  0
   29.1969  -17.9952  -18.9364 C   0  0  0  0  0  0  0  0  0  0  0  0
   28.4653  -19.1943  -19.4637 C   0  0  0  0  0  0  0  0  0  0  0  0
   27.5436  -19.8491  -18.5182 C   0  0  0  0  0  0  0  0  0  0  0  0
   28.1374  -20.8211  -17.5380 C   0  0  2  0  0  0  0  0  0  0  0  0
   28.5237  -22.0287  -18.1847 N   0  0  0  0  0  0  0  0  0  0  0  0
   27.2105  -20.9875  -16.4120 C   0  0  0  0  0  0  0  0  0  0  0  0
   26.2741  -21.8256  -16.4932 O   0  0  0  0  0  0  0  0  0  0  0  0
   27.2891  -14.6003  -20.0609 N   0  0  0  0  0  0  0  0  0  0  0  0
   26.1012  -20.5716   -7.9760 C   0  0  0  0  0  0  0  0  0  0  0  0
   24.8133  -20.8920   -8.4581 N   0  0  0  0  0  0  0  0  0  0  0  0
   23.7957  -20.9132   -7.6404 N   0  0  0  0  0  0  0  0  0  0  0  0
   24.5960  -21.1967   -9.8518 C   0  0  0  0  0  0  0  0  0  0  0  0
   25.6755  -21.1125  -10.7818 C   0  0  0  0  0  0  0  0  0  0  0  0
   25.4715  -19.9831  -11.7981 C   0  0  0  0  0  0  0  0  0  0  0  0
   26.6213  -19.9802  -12.7806 C   0  0  1  0  0  0  0  0  0  0  0  0
   26.2978  -20.4065  -14.1481 N   0  0  0  0  0  0  0  0  0  0  0  0
   27.2590  -20.2667  -15.1785 C   0  0  0  0  0  0  0  0  0  0  0  0
   25.0450  -19.6860  -14.5749 O   0  0  0  0  0  0  0  0  0  0  0  0
   25.1671  -18.5593  -15.1061 N   0  0  0  0  0  0  0  0  0  0  0  0
   22.8291  -21.0947   -7.9224 C   0  0  2  0  0  0  0  0  0  0  0  0
   23.7502  -20.2105  -14.4087 C   0  0  0  0  0  0  0  0  0  0  0  0
   22.5952  -19.7362  -15.1570 C   0  0  0  0  0  0  0  0  0  0  0  0
   22.8731  -19.9426  -16.6425 O   0  0  0  0  0  0  0  0  0  0  0  0
   21.7245  -19.4471  -17.4344 C   0  0  0  0  0  0  0  0  0  0  0  0
   21.5053  -20.0334  -18.5482 O   0  0  0  0  0  0  0  0  0  0  0  0
   21.3529  -20.3897  -14.7422 O   0  0  0  0  0  0  0  0  0  0  0  0
   21.1699  -21.6051  -14.9116 O   0  0  0  0  0  0  0  0  0  0  0  0
  2  1  1  0
  3  2  2  0
  4  2  1  0
  5  4  1  0
  6  5  1  0
  7  6  1  0
  8  7  1  0
  8  9  1  6
  8 10  1  0
 10 11  2  0
 13 14  2  0
 13 12  1  0
 15 13  1  0
 16 15  1  0
 16 17  1  0
 18 17  1  0
 19 18  1  1
 19 21  1  0
 20 10  1  0
 20 19  1  0
 21 23  1  0
 22 21  2  0
 23 24  1  0
 24 25  1  1
 25 26  1  0
 26 27  2  0
 28 24  1  0
 28 31  1  0
 29 28  2  0
 30 26  1  0
M  END
$$$$
