RRD.pdb
     RDKit          3D

 31 30  0  0  1  0  0  0  0  0999 V2000
   29.6150  -19.7383  -20.6591 N   0  0  0  0  0  0  0  0  0  0  0  0
   29.2618  -18.3537  -20.5540 C   0  0  0  0  0  0  0  0  0  0  0  0
   29.7996  -17.5679  -21.4199 N   0  0  0  0  0  0  0  0  0  0  0  0
   28.3732  -17.9650  -19.5440 N   0  0  0  0  0  0  0  0  0  0  0  0
   27.7473  -19.0328  -18.7327 C   0  0  0  0  0  0  0  0  0  0  0  0
   27.3206  -18.4617  -17.4125 C   0  0  0  0  0  0  0  0  0  0  0  0
   28.2372  -18.7034  -16.2839 C   0  0  0  0  0  0  0  0  0  0  0  0
   27.9930  -19.9278  -15.4476 C   0  0  2  0  0  0  0  0  0  0  0  0
   27.8518  -21.0853  -16.2637 N   0  0  0  0  0  0  0  0  0  0  0  0
   26.8703  -19.6671  -14.5386 C   0  0  0  0  0  0  0  0  0  0  0  0
   26.8569  -18.6130  -13.8498 O   0  0  0  0  0  0  0  0  0  0  0  0
   29.5733  -16.5532  -21.3648 N   0  0  0  0  0  0  0  0  0  0  0  0
   18.2306  -21.4369  -14.3053 C   0  0  0  0  0  0  0  0  0  0  0  0
   18.5001  -20.4032  -13.3820 N   0  0  0  0  0  0  0  0  0  0  0  0
   17.5182  -19.8163  -12.7527 N   0  0  0  0  0  0  0  0  0  0  0  0
   19.8534  -19.9796  -13.1146 C   0  0  0  0  0  0  0  0  0  0  0  0
   20.9223  -20.9248  -13.1534 C   0  0  0  0  0  0  0  0  0  0  0  0
   22.2588  -20.2978  -12.7403 C   0  0  0  0  0  0  0  0  0  0  0  0
   23.3131  -20.6445  -13.7678 C   0  0  1  0  0  0  0  0  0  0  0  0
   24.6850  -20.2335  -13.4433 N   0  0  0  0  0  0  0  0  0  0  0  0
   25.7407  -20.5210  -14.3423 C   0  0  0  0  0  0  0  0  0  0  0  0
   25.0399  -20.8193  -12.1010 O   0  0  0  0  0  0  0  0  0  0  0  0
   25.1664  -22.0616  -12.0169 N   0  0  0  0  0  0  0  0  0  0  0  0
   17.6359  -19.0730  -12.0595 C   0  0  2  0  0  0  0  0  0  0  0  0
   25.2360  -20.0467  -10.9416 C   0  0  0  0  0  0  0  0  0  0  0  0
   25.4109  -20.6255   -9.6175 C   0  0  0  0  0  0  0  0  0  0  0  0
   26.2282  -19.6504   -8.7762 O   0  0  0  0  0  0  0  0  0  0  0  0
   27.5326  -20.2628   -8.4363 C   0  0  0  0  0  0  0  0  0  0  0  0
   27.7655  -21.4180   -8.9299 O   0  0  0  0  0  0  0  0  0  0  0  0
   24.1362  -20.9561   -8.9786 O   0  0  0  0  0  0  0  0  0  0  0  0
   24.0800  -21.6982   -7.9858 O   0  0  0  0  0  0  0  0  0  0  0  0
  2  1  1  0
  3  2  2  0
  4  2  1  0
  5  4  1  0
  6  5  1  0
  7  6  1  0
  8  7  1  0
  8  9  1  6
  8 10  1  0
 10 11  2  0
 13 14  2  0
 13 12  1  0
 15 13  1  0
 16 15  1  0
 16 17  1  0
 18 17  1  0
 19 18  1  6
 19 21  1  0
 20 10  1  0
 20 19  1  0
 21 23  1  0
 22 21  2  0
 23 24  1  0
 24 25  1  1
 25 26  1  0
 26 27  2  0
 28 24  1  0
 28 31  1  0
 29 28  2  0
 30 26  1  0
M  END
$$$$
