RRD.pdb
     RDKit          3D

 31 30  0  0  1  0  0  0  0  0999 V2000
   30.9619  -15.7852  -19.2526 N   0  0  0  0  0  0  0  0  0  0  0  0
   30.5712  -14.4638  -19.6451 C   0  0  0  0  0  0  0  0  0  0  0  0
   31.5153  -13.7017  -20.0747 N   0  0  0  0  0  0  0  0  0  0  0  0
   29.2213  -14.1069  -19.5411 N   0  0  0  0  0  0  0  0  0  0  0  0
   28.2622  -15.1601  -19.1399 C   0  0  0  0  0  0  0  0  0  0  0  0
   26.8804  -14.5770  -19.0966 C   0  0  0  0  0  0  0  0  0  0  0  0
   25.8026  -15.5107  -18.7243 C   0  0  0  0  0  0  0  0  0  0  0  0
   25.6256  -16.7348  -19.5777 C   0  0  2  0  0  0  0  0  0  0  0  0
   24.9348  -16.4234  -20.7825 N   0  0  0  0  0  0  0  0  0  0  0  0
   25.0154  -17.7958  -18.7673 C   0  0  0  0  0  0  0  0  0  0  0  0
   23.7842  -18.0354  -18.8778 O   0  0  0  0  0  0  0  0  0  0  0  0
   31.2609  -12.7456  -20.3990 N   0  0  0  0  0  0  0  0  0  0  0  0
   24.9601  -22.4396  -12.3118 C   0  0  0  0  0  0  0  0  0  0  0  0
   24.8021  -23.6175  -13.0742 N   0  0  0  0  0  0  0  0  0  0  0  0
   24.0328  -24.5790  -12.6401 N   0  0  0  0  0  0  0  0  0  0  0  0
   25.4784  -23.7809  -14.3385 C   0  0  0  0  0  0  0  0  0  0  0  0
   26.1317  -22.6699  -14.9519 C   0  0  0  0  0  0  0  0  0  0  0  0
   25.1357  -21.7144  -15.6189 C   0  0  0  0  0  0  0  0  0  0  0  0
   25.8953  -20.6329  -16.3542 C   0  0  2  0  0  0  0  0  0  0  0  0
   25.0766  -19.6603  -17.0893 N   0  0  0  0  0  0  0  0  0  0  0  0
   25.7004  -18.6222  -17.8231 C   0  0  0  0  0  0  0  0  0  0  0  0
   24.1144  -19.0324  -16.1143 O   0  0  0  0  0  0  0  0  0  0  0  0
   24.4696  -17.9835  -15.5312 N   0  0  0  0  0  0  0  0  0  0  0  0
   23.7833  -25.4109  -13.1811 C   0  0  2  0  0  0  0  0  0  0  0  0
   22.8428  -19.5606  -15.8258 C   0  0  0  0  0  0  0  0  0  0  0  0
   21.9135  -18.9390  -14.8935 C   0  0  0  0  0  0  0  0  0  0  0  0
   21.2305  -17.7764  -15.6065 O   0  0  0  0  0  0  0  0  0  0  0  0
   20.2356  -17.1567  -14.7020 C   0  0  0  0  0  0  0  0  0  0  0  0
   19.2856  -17.9097  -14.2987 O   0  0  0  0  0  0  0  0  0  0  0  0
   20.9409  -19.8908  -14.3547 O   0  0  0  0  0  0  0  0  0  0  0  0
   20.4848  -19.7744  -13.2068 O   0  0  0  0  0  0  0  0  0  0  0  0
  2  1  1  0
  3  2  2  0
  4  2  1  0
  5  4  1  0
  6  5  1  0
  7  6  1  0
  8  7  1  0
  8  9  1  6
  8 10  1  0
 10 11  2  0
 13 14  2  0
 13 12  1  0
 15 13  1  0
 16 15  1  0
 16 17  1  0
 18 17  1  0
 19 18  1  6
 19 21  1  0
 20 10  1  0
 20 19  1  0
 21 23  1  0
 22 21  2  0
 23 24  1  0
 24 25  1  1
 25 26  1  0
 26 27  2  0
 28 24  1  0
 28 31  1  0
 29 28  2  0
 30 26  1  0
M  END
$$$$
