RRD.pdb
     RDKit          3D

 31 30  0  0  1  0  0  0  0  0999 V2000
   29.3606  -26.3109  -20.2462 N   0  0  0  0  0  0  0  0  0  0  0  0
   29.5390  -26.7440  -18.8922 C   0  0  0  0  0  0  0  0  0  0  0  0
   30.4177  -27.6660  -18.7069 N   0  0  0  0  0  0  0  0  0  0  0  0
   28.7667  -26.1431  -17.8906 N   0  0  0  0  0  0  0  0  0  0  0  0
   27.8728  -25.0325  -18.2872 C   0  0  0  0  0  0  0  0  0  0  0  0
   28.6948  -23.8002  -18.5259 C   0  0  0  0  0  0  0  0  0  0  0  0
   28.4125  -22.6597  -17.6361 C   0  0  0  0  0  0  0  0  0  0  0  0
   28.6820  -22.8463  -16.1696 C   0  0  2  0  0  0  0  0  0  0  0  0
   29.2231  -24.1365  -15.9086 N   0  0  0  0  0  0  0  0  0  0  0  0
   27.4654  -22.5182  -15.4166 C   0  0  0  0  0  0  0  0  0  0  0  0
   26.3630  -23.0182  -15.7634 O   0  0  0  0  0  0  0  0  0  0  0  0
   30.4858  -28.0918  -17.7592 N   0  0  0  0  0  0  0  0  0  0  0  0
   24.1210  -20.2217   -8.0658 C   0  0  0  0  0  0  0  0  0  0  0  0
   23.0156  -20.5511   -8.8800 N   0  0  0  0  0  0  0  0  0  0  0  0
   21.8096  -20.2086   -8.5151 N   0  0  0  0  0  0  0  0  0  0  0  0
   23.1935  -21.2636  -10.1222 C   0  0  0  0  0  0  0  0  0  0  0  0
   24.5043  -21.4806  -10.6439 C   0  0  0  0  0  0  0  0  0  0  0  0
   24.9144  -20.3892  -11.6393 C   0  0  0  0  0  0  0  0  0  0  0  0
   26.2481  -20.7490  -12.2550 C   0  0  1  0  0  0  0  0  0  0  0  0
   26.1951  -21.3572  -13.5905 N   0  0  0  0  0  0  0  0  0  0  0  0
   27.3955  -21.6519  -14.2815 C   0  0  0  0  0  0  0  0  0  0  0  0
   25.3527  -20.4709  -14.4712 O   0  0  0  0  0  0  0  0  0  0  0  0
   25.8489  -19.3914  -14.8649 N   0  0  0  0  0  0  0  0  0  0  0  0
   20.9641  -20.3946   -9.0604 C   0  0  2  0  0  0  0  0  0  0  0  0
   24.0430  -20.7912  -14.8731 C   0  0  0  0  0  0  0  0  0  0  0  0
   23.1560  -19.8428  -15.5309 C   0  0  0  0  0  0  0  0  0  0  0  0
   22.7403  -20.4331  -16.8745 O   0  0  0  0  0  0  0  0  0  0  0  0
   21.9736  -19.4255  -17.6419 C   0  0  0  0  0  0  0  0  0  0  0  0
   21.8836  -18.2615  -17.1228 O   0  0  0  0  0  0  0  0  0  0  0  0
   21.9957  -19.4985  -14.7079 O   0  0  0  0  0  0  0  0  0  0  0  0
   21.6915  -18.3185  -14.4744 O   0  0  0  0  0  0  0  0  0  0  0  0
  2  1  1  0
  3  2  2  0
  4  2  1  0
  5  4  1  0
  6  5  1  0
  7  6  1  0
  8  7  1  0
  8  9  1  6
  8 10  1  0
 10 11  2  0
 13 14  2  0
 13 12  1  0
 15 13  1  0
 16 15  1  0
 16 17  1  0
 18 17  1  0
 19 18  1  1
 19 21  1  0
 20 10  1  0
 20 19  1  0
 21 23  1  0
 22 21  2  0
 23 24  1  0
 24 25  1  1
 25 26  1  0
 26 27  2  0
 28 24  1  0
 28 31  1  0
 29 28  2  0
 30 26  1  0
M  END
$$$$
