RRD.pdb
     RDKit          3D

 31 30  0  0  1  0  0  0  0  0999 V2000
   30.0926  -22.8698  -19.9718 N   0  0  0  0  0  0  0  0  0  0  0  0
   30.4238  -21.7514  -20.8039 C   0  0  0  0  0  0  0  0  0  0  0  0
   30.9824  -22.0323  -21.9289 N   0  0  0  0  0  0  0  0  0  0  0  0
   30.1178  -20.4638  -20.3466 N   0  0  0  0  0  0  0  0  0  0  0  0
   29.6837  -20.3209  -18.9391 C   0  0  0  0  0  0  0  0  0  0  0  0
   28.2190  -20.6312  -18.8418 C   0  0  0  0  0  0  0  0  0  0  0  0
   27.6164  -20.4652  -17.5071 C   0  0  0  0  0  0  0  0  0  0  0  0
   28.1611  -21.3155  -16.3943 C   0  0  2  0  0  0  0  0  0  0  0  0
   28.7395  -22.5131  -16.9011 N   0  0  0  0  0  0  0  0  0  0  0  0
   27.1117  -21.5097  -15.3864 C   0  0  0  0  0  0  0  0  0  0  0  0
   26.2331  -22.3944  -15.5628 O   0  0  0  0  0  0  0  0  0  0  0  0
   31.3162  -21.2419  -22.5187 N   0  0  0  0  0  0  0  0  0  0  0  0
   22.6151  -20.1149   -9.7410 C   0  0  0  0  0  0  0  0  0  0  0  0
   23.1275  -20.7706   -8.6004 N   0  0  0  0  0  0  0  0  0  0  0  0
   22.3162  -21.1873   -7.6660 N   0  0  0  0  0  0  0  0  0  0  0  0
   24.5447  -20.9949   -8.4459 C   0  0  0  0  0  0  0  0  0  0  0  0
   25.4582  -20.5231   -9.4360 C   0  0  0  0  0  0  0  0  0  0  0  0
   25.0883  -21.0153  -10.8399 C   0  0  0  0  0  0  0  0  0  0  0  0
   26.1563  -20.5825  -11.8195 C   0  0  2  0  0  0  0  0  0  0  0  0
   25.9656  -21.0159  -13.2095 N   0  0  0  0  0  0  0  0  0  0  0  0
   26.9740  -20.7677  -14.1723 C   0  0  0  0  0  0  0  0  0  0  0  0
   24.6794  -20.4123  -13.7117 O   0  0  0  0  0  0  0  0  0  0  0  0
   24.7362  -19.3011  -14.2849 N   0  0  0  0  0  0  0  0  0  0  0  0
   22.6113  -21.6810   -6.8199 C   0  0  2  0  0  0  0  0  0  0  0  0
   23.4228  -21.0291  -13.5710 C   0  0  0  0  0  0  0  0  0  0  0  0
   22.2799  -20.7127  -14.4151 C   0  0  0  0  0  0  0  0  0  0  0  0
   22.6160  -21.1237  -15.8450 O   0  0  0  0  0  0  0  0  0  0  0  0
   22.1099  -20.0992  -16.7864 C   0  0  0  0  0  0  0  0  0  0  0  0
   21.5388  -19.0810  -16.2673 O   0  0  0  0  0  0  0  0  0  0  0  0
   21.0457  -21.3442  -13.9456 O   0  0  0  0  0  0  0  0  0  0  0  0
   20.0180  -20.6829  -13.7314 O   0  0  0  0  0  0  0  0  0  0  0  0
  2  1  1  0
  3  2  2  0
  4  2  1  0
  5  4  1  0
  6  5  1  0
  7  6  1  0
  8  7  1  0
  8  9  1  6
  8 10  1  0
 10 11  2  0
 13 14  2  0
 13 12  1  0
 15 13  1  0
 16 15  1  0
 16 17  1  0
 18 17  1  0
 19 18  1  1
 19 21  1  0
 20 10  1  0
 20 19  1  0
 21 23  1  0
 22 21  2  0
 23 24  1  0
 24 25  1  1
 25 26  1  0
 26 27  2  0
 28 24  1  0
 28 31  1  0
 29 28  2  0
 30 26  1  0
M  END
$$$$
