RRD.pdb
     RDKit          3D

 31 30  0  0  1  0  0  0  0  0999 V2000
   28.0523  -22.4213  -18.9815 N   0  0  0  0  0  0  0  0  0  0  0  0
   28.6155  -22.9833  -17.7901 C   0  0  0  0  0  0  0  0  0  0  0  0
   29.7944  -23.4863  -17.9074 N   0  0  0  0  0  0  0  0  0  0  0  0
   27.8630  -22.9407  -16.6100 N   0  0  0  0  0  0  0  0  0  0  0  0
   26.4948  -22.3821  -16.6888 C   0  0  0  0  0  0  0  0  0  0  0  0
   26.5766  -20.8847  -16.7382 C   0  0  0  0  0  0  0  0  0  0  0  0
   25.8971  -20.1698  -15.6431 C   0  0  0  0  0  0  0  0  0  0  0  0
   26.1041  -20.6886  -14.2481 C   0  0  2  0  0  0  0  0  0  0  0  0
   27.0894  -21.7154  -14.2248 N   0  0  0  0  0  0  0  0  0  0  0  0
   24.8027  -21.0626  -13.6814 C   0  0  0  0  0  0  0  0  0  0  0  0
   24.2817  -22.1666  -13.9899 O   0  0  0  0  0  0  0  0  0  0  0  0
   30.2268  -23.9179  -17.0643 N   0  0  0  0  0  0  0  0  0  0  0  0
   18.5179  -17.2350  -12.3522 C   0  0  0  0  0  0  0  0  0  0  0  0
   18.0925  -18.5219  -11.9564 N   0  0  0  0  0  0  0  0  0  0  0  0
   17.0214  -19.0481  -12.4861 N   0  0  0  0  0  0  0  0  0  0  0  0
   18.8271  -19.2768  -10.9701 C   0  0  0  0  0  0  0  0  0  0  0  0
   20.0697  -18.7849  -10.4688 C   0  0  0  0  0  0  0  0  0  0  0  0
   21.1803  -18.8484  -11.5236 C   0  0  0  0  0  0  0  0  0  0  0  0
   22.1669  -19.9311  -11.1470 C   0  0  1  0  0  0  0  0  0  0  0  0
   22.7691  -20.6678  -12.2655 N   0  0  0  0  0  0  0  0  0  0  0  0
   24.0285  -20.2710  -12.7770 C   0  0  0  0  0  0  0  0  0  0  0  0
   21.7814  -20.6727  -13.4036 O   0  0  0  0  0  0  0  0  0  0  0  0
   22.0133  -19.9330  -14.3861 N   0  0  0  0  0  0  0  0  0  0  0  0
   16.6724  -19.9869  -12.2769 C   0  0  2  0  0  0  0  0  0  0  0  0
   20.6167  -21.4617  -13.4202 C   0  0  0  0  0  0  0  0  0  0  0  0
   19.8070  -21.6636  -14.6130 C   0  0  0  0  0  0  0  0  0  0  0  0
   20.6773  -21.3788  -15.8328 O   0  0  0  0  0  0  0  0  0  0  0  0
   19.9864  -20.4155  -16.7197 C   0  0  0  0  0  0  0  0  0  0  0  0
   18.9005  -19.9097  -16.2754 O   0  0  0  0  0  0  0  0  0  0  0  0
   19.2170  -23.0020  -14.6687 O   0  0  0  0  0  0  0  0  0  0  0  0
   17.9973  -23.1687  -14.8235 O   0  0  0  0  0  0  0  0  0  0  0  0
  2  1  1  0
  3  2  2  0
  4  2  1  0
  5  4  1  0
  6  5  1  0
  7  6  1  0
  8  7  1  0
  8  9  1  6
  8 10  1  0
 10 11  2  0
 13 14  2  0
 13 12  1  0
 15 13  1  0
 16 15  1  0
 16 17  1  0
 18 17  1  0
 19 18  1  1
 19 21  1  0
 20 10  1  0
 20 19  1  0
 21 23  1  0
 22 21  2  0
 23 24  1  0
 24 25  1  6
 25 26  1  0
 26 27  2  0
 28 24  1  0
 28 31  1  0
 29 28  2  0
 30 26  1  0
M  END
$$$$
