RRD.pdb
     RDKit          3D

 31 30  0  0  1  0  0  0  0  0999 V2000
   18.4293  -24.8057   -6.5239 N   0  0  0  0  0  0  0  0  0  0  0  0
   17.0394  -25.0897   -6.3232 C   0  0  0  0  0  0  0  0  0  0  0  0
   16.5966  -24.9186   -5.1268 N   0  0  0  0  0  0  0  0  0  0  0  0
   16.2792  -25.5173   -7.4186 N   0  0  0  0  0  0  0  0  0  0  0  0
   16.9704  -25.6600   -8.7194 C   0  0  0  0  0  0  0  0  0  0  0  0
   17.0884  -24.3106   -9.3647 C   0  0  0  0  0  0  0  0  0  0  0  0
   17.6099  -24.3034  -10.7431 C   0  0  0  0  0  0  0  0  0  0  0  0
   19.0981  -24.4172  -10.9178 C   0  0  2  0  0  0  0  0  0  0  0  0
   19.7342  -24.7453   -9.6877 N   0  0  0  0  0  0  0  0  0  0  0  0
   19.5952  -23.1996  -11.5697 C   0  0  0  0  0  0  0  0  0  0  0  0
   19.2980  -22.0718  -11.0951 O   0  0  0  0  0  0  0  0  0  0  0  0
   15.6069  -25.1761   -4.9315 N   0  0  0  0  0  0  0  0  0  0  0  0
   25.5252  -25.4379  -15.7049 C   0  0  0  0  0  0  0  0  0  0  0  0
   25.6101  -24.0550  -15.9769 N   0  0  0  0  0  0  0  0  0  0  0  0
   26.3142  -23.6302  -16.9911 N   0  0  0  0  0  0  0  0  0  0  0  0
   24.9248  -23.0914  -15.1498 C   0  0  0  0  0  0  0  0  0  0  0  0
   24.1614  -23.5253  -14.0244 C   0  0  0  0  0  0  0  0  0  0  0  0
   23.4576  -22.3579  -13.3231 C   0  0  0  0  0  0  0  0  0  0  0  0
   22.1911  -22.0128  -14.0743 C   0  0  2  0  0  0  0  0  0  0  0  0
   20.9625  -21.9627  -13.2717 N   0  0  0  0  0  0  0  0  0  0  0  0
   20.4167  -23.1558  -12.7389 C   0  0  0  0  0  0  0  0  0  0  0  0
   19.8970  -21.2869  -14.0956 O   0  0  0  0  0  0  0  0  0  0  0  0
   18.7453  -21.7767  -14.0829 N   0  0  0  0  0  0  0  0  0  0  0  0
   26.8000  -24.2385  -17.6550 C   0  0  2  0  0  0  0  0  0  0  0  0
   20.1271  -20.1387  -14.8755 C   0  0  0  0  0  0  0  0  0  0  0  0
   19.0569  -19.3019  -15.3983 C   0  0  0  0  0  0  0  0  0  0  0  0
   18.1924  -18.8477  -14.2266 O   0  0  0  0  0  0  0  0  0  0  0  0
   16.8143  -19.3600  -14.4005 C   0  0  0  0  0  0  0  0  0  0  0  0
   16.6025  -20.0873  -15.4293 O   0  0  0  0  0  0  0  0  0  0  0  0
   19.5617  -18.1662  -16.1715 O   0  0  0  0  0  0  0  0  0  0  0  0
   20.6802  -17.6761  -15.9518 O   0  0  0  0  0  0  0  0  0  0  0  0
  2  1  1  0
  3  2  2  0
  4  2  1  0
  5  4  1  0
  6  5  1  0
  7  6  1  0
  8  7  1  0
  8  9  1  1
  8 10  1  0
 10 11  2  0
 13 14  2  0
 13 12  1  0
 15 13  1  0
 16 15  1  0
 16 17  1  0
 18 17  1  0
 19 18  1  1
 19 21  1  0
 20 10  1  0
 20 19  1  0
 21 23  1  0
 22 21  2  0
 23 24  1  0
 24 25  1  6
 25 26  1  0
 26 27  2  0
 28 24  1  0
 28 31  1  0
 29 28  2  0
 30 26  1  0
M  END
$$$$
