KCF.pdb
     RDKit          3D

 27 27  0  0  1  0  0  0  0  0999 V2000
   29.3594  -23.9807  -18.5907 N   0  0  0  0  0  0  0  0  0  0  0  0
   28.3023  -24.2013  -17.6293 C   0  0  1  0  0  0  0  0  0  0  0  0
   28.7975  -25.0781  -16.5409 C   0  0  0  0  0  0  0  0  0  0  0  0
   28.0514  -26.3827  -16.5495 C   0  0  0  0  0  0  0  0  0  0  0  0
   28.8975  -27.5185  -17.0363 C   0  0  0  0  0  0  0  0  0  0  0  0
   28.0483  -28.7761  -17.1432 C   0  0  0  0  0  0  0  0  0  0  0  0
   28.7508  -29.8621  -17.7641 N   0  0  0  0  0  0  0  0  0  0  0  0
   27.7680  -22.8957  -17.1153 C   0  0  0  0  0  0  0  0  0  0  0  0
   28.5253  -21.8946  -17.1319 O   0  0  0  0  0  0  0  0  0  0  0  0
   26.4595  -22.7282  -16.6131 N   0  0  0  0  0  0  0  0  0  0  0  0
   25.8975  -21.4969  -16.1589 C   0  0  1  0  0  0  0  0  0  0  0  0
   25.0946  -20.7759  -17.2093 C   0  0  0  0  0  0  0  0  0  0  0  0
   23.7421  -21.8548  -17.7513 S   0  0  0  0  0  0  0  0  0  0  0  0
   25.0684  -21.6531  -14.9352 C   0  0  0  0  0  0  0  0  0  0  0  0
   24.4459  -22.7351  -14.7784 O   0  0  0  0  0  0  0  0  0  0  0  0
   24.9413  -20.6614  -13.9453 N   0  0  0  0  0  0  0  0  0  0  0  0
   24.0951  -20.8307  -12.7503 C   0  0  1  0  0  0  0  0  0  0  0  0
   24.2877  -19.6926  -11.8034 C   0  0  0  0  0  0  0  0  0  0  0  0
   23.4927  -19.8615  -10.5757 C   0  0  0  0  0  0  0  0  0  0  0  0
   22.1922  -19.4267  -10.4998 C   0  0  0  0  0  0  0  0  0  0  0  0
   21.4177  -19.5771   -9.3661 C   0  0  0  0  0  0  0  0  0  0  0  0
   21.9810  -20.1864   -8.2791 C   0  0  0  0  0  0  0  0  0  0  0  0
   23.2815  -20.6403   -8.3035 C   0  0  0  0  0  0  0  0  0  0  0  0
   24.0189  -20.4702   -9.4548 C   0  0  0  0  0  0  0  0  0  0  0  0
   22.6843  -20.9411  -13.1648 C   0  0  0  0  0  0  0  0  0  0  0  0
   21.8002  -21.5818  -12.5571 O   0  0  0  0  0  0  0  0  0  0  0  0
   22.2893  -20.2804  -14.3301 O   0  0  0  0  0  0  0  0  0  0  0  0
  2  8  1  0
  2  1  1  6
  3  2  1  0
  4  3  1  0
  5  6  1  0
  5  4  1  0
  7  6  1  0
  8  9  2  0
 10 11  1  0
 10  8  1  0
 12 13  1  0
 11 12  1  6
 14 15  2  0
 14 11  1  0
 16 14  1  0
 17 25  1  0
 17 16  1  0
 17 18  1  1
 19 18  1  0
 20 19  2  0
 21 20  1  0
 22 23  1  0
 22 21  2  0
 23 24  2  0
 24 19  1  0
 25 27  1  0
 26 25  2  0
M  END
$$$$
