KCF.pdb
     RDKit          3D

 27 27  0  0  1  0  0  0  0  0999 V2000
   15.3537  -13.3550  -18.6435 N   0  0  0  0  0  0  0  0  0  0  0  0
   16.1267  -12.8028  -17.5536 C   0  0  1  0  0  0  0  0  0  0  0  0
   17.3389  -13.6289  -17.3376 C   0  0  0  0  0  0  0  0  0  0  0  0
   17.2094  -14.4112  -16.0609 C   0  0  0  0  0  0  0  0  0  0  0  0
   17.3073  -15.8883  -16.2867 C   0  0  0  0  0  0  0  0  0  0  0  0
   17.0167  -16.6222  -14.9863 C   0  0  0  0  0  0  0  0  0  0  0  0
   17.0360  -18.0481  -15.1440 N   0  0  0  0  0  0  0  0  0  0  0  0
   16.4543  -11.3600  -17.8096 C   0  0  0  0  0  0  0  0  0  0  0  0
   16.7496  -11.0152  -18.9801 O   0  0  0  0  0  0  0  0  0  0  0  0
   16.4495  -10.3661  -16.8075 N   0  0  0  0  0  0  0  0  0  0  0  0
   16.6799   -8.9733  -17.0206 C   0  0  1  0  0  0  0  0  0  0  0  0
   15.4164   -8.1582  -17.1036 C   0  0  0  0  0  0  0  0  0  0  0  0
   14.3821   -8.5385  -15.6639 S   0  0  0  0  0  0  0  0  0  0  0  0
   17.5811   -8.3712  -16.0035 C   0  0  0  0  0  0  0  0  0  0  0  0
   17.3860   -8.6633  -14.7954 O   0  0  0  0  0  0  0  0  0  0  0  0
   18.6371   -7.4954  -16.3154 N   0  0  0  0  0  0  0  0  0  0  0  0
   19.5026   -6.8909  -15.2867 C   0  0  1  0  0  0  0  0  0  0  0  0
   20.7654   -6.3779  -15.8962 C   0  0  0  0  0  0  0  0  0  0  0  0
   21.6151   -5.6982  -14.9043 C   0  0  0  0  0  0  0  0  0  0  0  0
   22.4396   -6.4053  -14.0639 C   0  0  0  0  0  0  0  0  0  0  0  0
   23.2541   -5.7975  -13.1286 C   0  0  0  0  0  0  0  0  0  0  0  0
   23.2297   -4.4327  -13.0451 C   0  0  0  0  0  0  0  0  0  0  0  0
   22.4204   -3.6771  -13.8649 C   0  0  0  0  0  0  0  0  0  0  0  0
   21.6235   -4.3237  -14.7842 C   0  0  0  0  0  0  0  0  0  0  0  0
   18.7667   -5.8097  -14.6057 C   0  0  0  0  0  0  0  0  0  0  0  0
   18.9219   -5.4688  -13.4136 O   0  0  0  0  0  0  0  0  0  0  0  0
   17.8150   -5.0997  -15.3409 O   0  0  0  0  0  0  0  0  0  0  0  0
  2  8  1  0
  2  1  1  6
  3  2  1  0
  4  3  1  0
  5  6  1  0
  5  4  1  0
  7  6  1  0
  8  9  2  0
 10 11  1  0
 10  8  1  0
 12 13  1  0
 11 12  1  1
 14 15  2  0
 14 11  1  0
 16 14  1  0
 17 25  1  0
 17 16  1  0
 17 18  1  6
 19 18  1  0
 20 19  2  0
 21 20  1  0
 22 23  1  0
 22 21  2  0
 23 24  2  0
 24 19  1  0
 25 27  1  0
 26 25  2  0
M  END
$$$$
