KCF.pdb
     RDKit          3D

 27 27  0  0  1  0  0  0  0  0999 V2000
   11.7268  -19.9495   -7.0810 N   0  0  0  0  0  0  0  0  0  0  0  0
   11.4959  -21.0216   -6.1388 C   0  0  1  0  0  0  0  0  0  0  0  0
   12.2843  -22.2117   -6.5396 C   0  0  0  0  0  0  0  0  0  0  0  0
   11.9700  -22.5839   -7.9614 C   0  0  0  0  0  0  0  0  0  0  0  0
   13.1467  -23.1867   -8.6647 C   0  0  0  0  0  0  0  0  0  0  0  0
   12.7390  -23.6092  -10.0680 C   0  0  0  0  0  0  0  0  0  0  0  0
   13.8377  -24.1396  -10.8231 N   0  0  0  0  0  0  0  0  0  0  0  0
   11.8026  -20.5758   -4.7382 C   0  0  0  0  0  0  0  0  0  0  0  0
   12.6179  -19.6346   -4.5781 O   0  0  0  0  0  0  0  0  0  0  0  0
   11.2257  -21.1555   -3.5879 N   0  0  0  0  0  0  0  0  0  0  0  0
   11.4296  -20.7130   -2.2459 C   0  0  1  0  0  0  0  0  0  0  0  0
   10.1701  -20.2432   -1.5671 C   0  0  0  0  0  0  0  0  0  0  0  0
   10.6066  -19.5280    0.0406 S   0  0  0  0  0  0  0  0  0  0  0  0
   12.0906  -21.7340   -1.3916 C   0  0  0  0  0  0  0  0  0  0  0  0
   11.5777  -22.8816   -1.3396 O   0  0  0  0  0  0  0  0  0  0  0  0
   13.2546  -21.4894   -0.6400 N   0  0  0  0  0  0  0  0  0  0  0  0
   13.8963  -22.5205    0.1955 C   0  0  1  0  0  0  0  0  0  0  0  0
   15.3548  -22.6129   -0.1099 C   0  0  0  0  0  0  0  0  0  0  0  0
   15.6141  -23.4486   -1.2940 C   0  0  0  0  0  0  0  0  0  0  0  0
   16.1012  -24.7271   -1.1747 C   0  0  0  0  0  0  0  0  0  0  0  0
   16.3476  -25.5389   -2.2646 C   0  0  0  0  0  0  0  0  0  0  0  0
   16.0920  -25.0370   -3.5108 C   0  0  0  0  0  0  0  0  0  0  0  0
   15.6031  -23.7608   -3.6849 C   0  0  0  0  0  0  0  0  0  0  0  0
   15.3713  -22.9845   -2.5705 C   0  0  0  0  0  0  0  0  0  0  0  0
   13.6727  -22.2026    1.6179 C   0  0  0  0  0  0  0  0  0  0  0  0
   13.9202  -22.9647    2.5766 O   0  0  0  0  0  0  0  0  0  0  0  0
   13.1413  -20.9505    1.9346 O   0  0  0  0  0  0  0  0  0  0  0  0
  2  8  1  0
  2  1  1  6
  3  2  1  0
  4  3  1  0
  5  6  1  0
  5  4  1  0
  7  6  1  0
  8  9  2  0
 10 11  1  0
 10  8  1  0
 12 13  1  0
 11 12  1  1
 14 15  2  0
 14 11  1  0
 16 14  1  0
 17 25  1  0
 17 16  1  0
 17 18  1  1
 19 18  1  0
 20 19  2  0
 21 20  1  0
 22 23  1  0
 22 21  2  0
 23 24  2  0
 24 19  1  0
 25 27  1  0
 26 25  2  0
M  END
$$$$
