KCF.pdb
     RDKit          3D

 27 27  0  0  1  0  0  0  0  0999 V2000
   22.9269  -17.6922  -17.1924 N   0  0  0  0  0  0  0  0  0  0  0  0
   23.9298  -17.3364  -16.2137 C   0  0  1  0  0  0  0  0  0  0  0  0
   23.4101  -16.2554  -15.3421 C   0  0  0  0  0  0  0  0  0  0  0  0
   22.8102  -15.1610  -16.1794 C   0  0  0  0  0  0  0  0  0  0  0  0
   21.4872  -14.7004  -15.6502 C   0  0  0  0  0  0  0  0  0  0  0  0
   20.9035  -13.6504  -16.5835 C   0  0  0  0  0  0  0  0  0  0  0  0
   19.5461  -13.3194  -16.2575 N   0  0  0  0  0  0  0  0  0  0  0  0
   24.3647  -18.5431  -15.4331 C   0  0  0  0  0  0  0  0  0  0  0  0
   23.4855  -19.3541  -15.0517 O   0  0  0  0  0  0  0  0  0  0  0  0
   25.7088  -18.8192  -15.1024 N   0  0  0  0  0  0  0  0  0  0  0  0
   26.1631  -19.9465  -14.3533 C   0  0  1  0  0  0  0  0  0  0  0  0
   27.3702  -20.6210  -14.9497 C   0  0  0  0  0  0  0  0  0  0  0  0
   27.8294  -22.0271  -13.9013 S   0  0  0  0  0  0  0  0  0  0  0  0
   26.4403  -19.6240  -12.9290 C   0  0  0  0  0  0  0  0  0  0  0  0
   27.1620  -18.6240  -12.6800 O   0  0  0  0  0  0  0  0  0  0  0  0
   25.9421  -20.3726  -11.8468 N   0  0  0  0  0  0  0  0  0  0  0  0
   26.5611  -20.3506  -10.5093 C   0  0  1  0  0  0  0  0  0  0  0  0
   25.7123  -19.5850   -9.5489 C   0  0  0  0  0  0  0  0  0  0  0  0
   26.3615  -19.4465   -8.2347 C   0  0  0  0  0  0  0  0  0  0  0  0
   26.1706  -20.3749   -7.2408 C   0  0  0  0  0  0  0  0  0  0  0  0
   26.7709  -20.2779   -6.0007 C   0  0  0  0  0  0  0  0  0  0  0  0
   27.5880  -19.2071   -5.7641 C   0  0  0  0  0  0  0  0  0  0  0  0
   27.8123  -18.2479   -6.7272 C   0  0  0  0  0  0  0  0  0  0  0  0
   27.1937  -18.3832   -7.9508 C   0  0  0  0  0  0  0  0  0  0  0  0
   26.7672  -21.7352  -10.0457 C   0  0  0  0  0  0  0  0  0  0  0  0
   25.9274  -22.6569  -10.1255 O   0  0  0  0  0  0  0  0  0  0  0  0
   27.9972  -22.0573   -9.4680 O   0  0  0  0  0  0  0  0  0  0  0  0
  2  8  1  0
  2  1  1  6
  3  2  1  0
  4  3  1  0
  5  6  1  0
  5  4  1  0
  7  6  1  0
  8  9  2  0
 10 11  1  0
 10  8  1  0
 12 13  1  0
 11 12  1  6
 14 15  2  0
 14 11  1  0
 16 14  1  0
 17 25  1  0
 17 16  1  0
 17 18  1  1
 19 18  1  0
 20 19  2  0
 21 20  1  0
 22 23  1  0
 22 21  2  0
 23 24  2  0
 24 19  1  0
 25 27  1  0
 26 25  2  0
M  END
$$$$
