KCF.pdb
     RDKit          3D

 27 27  0  0  1  0  0  0  0  0999 V2000
   28.3214  -36.3762   -5.9609 N   0  0  0  0  0  0  0  0  0  0  0  0
   28.1644  -35.2192   -5.1081 C   0  0  1  0  0  0  0  0  0  0  0  0
   26.8994  -34.5231   -5.4454 C   0  0  0  0  0  0  0  0  0  0  0  0
   27.0054  -33.8899   -6.8043 C   0  0  0  0  0  0  0  0  0  0  0  0
   25.9846  -32.8139   -7.0113 C   0  0  0  0  0  0  0  0  0  0  0  0
   26.1647  -32.2007   -8.3918 C   0  0  0  0  0  0  0  0  0  0  0  0
   25.3536  -31.0329   -8.5842 N   0  0  0  0  0  0  0  0  0  0  0  0
   28.2350  -35.6105   -3.6602 C   0  0  0  0  0  0  0  0  0  0  0  0
   27.4203  -36.4652   -3.2341 O   0  0  0  0  0  0  0  0  0  0  0  0
   29.1672  -35.0712   -2.7479 N   0  0  0  0  0  0  0  0  0  0  0  0
   29.2533  -35.3979   -1.3608 C   0  0  1  0  0  0  0  0  0  0  0  0
   30.6657  -35.5715   -0.8679 C   0  0  0  0  0  0  0  0  0  0  0  0
   31.3862  -37.0310   -1.6665 S   0  0  0  0  0  0  0  0  0  0  0  0
   28.5507  -34.4204   -0.4890 C   0  0  0  0  0  0  0  0  0  0  0  0
   28.9226  -33.2192   -0.5300 O   0  0  0  0  0  0  0  0  0  0  0  0
   27.4959  -34.7624    0.3771 N   0  0  0  0  0  0  0  0  0  0  0  0
   26.7287  -33.7580    1.1356 C   0  0  1  0  0  0  0  0  0  0  0  0
   25.3228  -33.6841    0.6386 C   0  0  0  0  0  0  0  0  0  0  0  0
   25.2319  -32.9614   -0.6410 C   0  0  0  0  0  0  0  0  0  0  0  0
   25.1639  -31.5905   -0.6853 C   0  0  0  0  0  0  0  0  0  0  0  0
   25.0857  -30.8829   -1.8688 C   0  0  0  0  0  0  0  0  0  0  0  0
   25.0761  -31.5885   -3.0402 C   0  0  0  0  0  0  0  0  0  0  0  0
   25.1420  -32.9646   -3.0505 C   0  0  0  0  0  0  0  0  0  0  0  0
   25.2191  -33.6312   -1.8472 C   0  0  0  0  0  0  0  0  0  0  0  0
   26.7656  -34.0988    2.5698 C   0  0  0  0  0  0  0  0  0  0  0  0
   27.2483  -35.1455    3.0520 O   0  0  0  0  0  0  0  0  0  0  0  0
   26.2200  -33.1860    3.4751 O   0  0  0  0  0  0  0  0  0  0  0  0
  2  8  1  0
  2  1  1  6
  3  2  1  0
  4  3  1  0
  5  6  1  0
  5  4  1  0
  7  6  1  0
  8  9  2  0
 10 11  1  0
 10  8  1  0
 12 13  1  0
 11 12  1  1
 14 15  2  0
 14 11  1  0
 16 14  1  0
 17 25  1  0
 17 16  1  0
 17 18  1  6
 19 18  1  0
 20 19  2  0
 21 20  1  0
 22 23  1  0
 22 21  2  0
 23 24  2  0
 24 19  1  0
 25 27  1  0
 26 25  2  0
M  END
$$$$
