KCF.pdb
     RDKit          3D

 27 27  0  0  1  0  0  0  0  0999 V2000
   13.3095  -12.9060  -16.6774 N   0  0  0  0  0  0  0  0  0  0  0  0
   13.8357  -11.5708  -16.5014 C   0  0  1  0  0  0  0  0  0  0  0  0
   13.0423  -10.8574  -15.4718 C   0  0  0  0  0  0  0  0  0  0  0  0
   11.7059  -10.4608  -16.0333 C   0  0  0  0  0  0  0  0  0  0  0  0
   10.8819   -9.6894  -15.0492 C   0  0  0  0  0  0  0  0  0  0  0  0
    9.4936   -9.4516  -15.6239 C   0  0  0  0  0  0  0  0  0  0  0  0
    8.7068   -8.5683  -14.8119 N   0  0  0  0  0  0  0  0  0  0  0  0
   15.2993  -11.6141  -16.1692 C   0  0  0  0  0  0  0  0  0  0  0  0
   15.7459  -12.6274  -15.5777 O   0  0  0  0  0  0  0  0  0  0  0  0
   16.2049  -10.5784  -16.4845 N   0  0  0  0  0  0  0  0  0  0  0  0
   17.6173  -10.6219  -16.2805 C   0  0  1  0  0  0  0  0  0  0  0  0
   18.3410  -11.5120  -17.2560 C   0  0  0  0  0  0  0  0  0  0  0  0
   17.6988  -11.1945  -18.9215 S   0  0  0  0  0  0  0  0  0  0  0  0
   18.2473   -9.2757  -16.2906 C   0  0  0  0  0  0  0  0  0  0  0  0
   17.8535   -8.4462  -17.1506 O   0  0  0  0  0  0  0  0  0  0  0  0
   19.2567   -8.8784  -15.3945 N   0  0  0  0  0  0  0  0  0  0  0  0
   19.8595   -7.5334  -15.4169 C   0  0  1  0  0  0  0  0  0  0  0  0
   20.7710   -7.3455  -14.2495 C   0  0  0  0  0  0  0  0  0  0  0  0
   21.3419   -5.9888  -14.2137 C   0  0  0  0  0  0  0  0  0  0  0  0
   22.5715   -5.7152  -14.7607 C   0  0  0  0  0  0  0  0  0  0  0  0
   23.1311   -4.4525  -14.7504 C   0  0  0  0  0  0  0  0  0  0  0  0
   22.4210   -3.4396  -14.1674 C   0  0  0  0  0  0  0  0  0  0  0  0
   21.1833   -3.6613  -13.6043 C   0  0  0  0  0  0  0  0  0  0  0  0
   20.6619   -4.9362  -13.6365 C   0  0  0  0  0  0  0  0  0  0  0  0
   20.5824   -7.3453  -16.6883 C   0  0  0  0  0  0  0  0  0  0  0  0
   21.2374   -8.2265  -17.2848 O   0  0  0  0  0  0  0  0  0  0  0  0
   20.5405   -6.0840  -17.2864 O   0  0  0  0  0  0  0  0  0  0  0  0
  2  8  1  0
  2  1  1  1
  3  2  1  0
  4  3  1  0
  5  6  1  0
  5  4  1  0
  7  6  1  0
  8  9  2  0
 10 11  1  0
 10  8  1  0
 12 13  1  0
 11 12  1  6
 14 15  2  0
 14 11  1  0
 16 14  1  0
 17 25  1  0
 17 16  1  0
 17 18  1  1
 19 18  1  0
 20 19  2  0
 21 20  1  0
 22 23  1  0
 22 21  2  0
 23 24  2  0
 24 19  1  0
 25 27  1  0
 26 25  2  0
M  END
$$$$
