KCF.pdb
     RDKit          3D

 27 27  0  0  1  0  0  0  0  0999 V2000
   25.5585  -20.2408  -15.8369 N   0  0  0  0  0  0  0  0  0  0  0  0
   26.5540  -20.3579  -14.7949 C   0  0  1  0  0  0  0  0  0  0  0  0
   27.7404  -19.5422  -15.1493 C   0  0  0  0  0  0  0  0  0  0  0  0
   28.7780  -20.4025  -15.8142 C   0  0  0  0  0  0  0  0  0  0  0  0
   28.1859  -21.3133  -16.8449 C   0  0  0  0  0  0  0  0  0  0  0  0
   29.2948  -22.1050  -17.5215 C   0  0  0  0  0  0  0  0  0  0  0  0
   29.4332  -23.4274  -16.9826 N   0  0  0  0  0  0  0  0  0  0  0  0
   25.9767  -19.9807  -13.4611 C   0  0  0  0  0  0  0  0  0  0  0  0
   25.8905  -18.7619  -13.1728 O   0  0  0  0  0  0  0  0  0  0  0  0
   25.5240  -20.9201  -12.5099 N   0  0  0  0  0  0  0  0  0  0  0  0
   24.8979  -20.6042  -11.2663 C   0  0  1  0  0  0  0  0  0  0  0  0
   23.5469  -21.2457  -11.0904 C   0  0  0  0  0  0  0  0  0  0  0  0
   22.2959  -19.9408  -10.9518 S   0  0  0  0  0  0  0  0  0  0  0  0
   25.7467  -20.9278  -10.0899 C   0  0  0  0  0  0  0  0  0  0  0  0
   26.0501  -22.1330   -9.8947 O   0  0  0  0  0  0  0  0  0  0  0  0
   26.2285  -19.9641   -9.1849 N   0  0  0  0  0  0  0  0  0  0  0  0
   26.9074  -20.3207   -7.9260 C   0  0  1  0  0  0  0  0  0  0  0  0
   27.6494  -19.1471   -7.3773 C   0  0  0  0  0  0  0  0  0  0  0  0
   28.2935  -19.4596   -6.0907 C   0  0  0  0  0  0  0  0  0  0  0  0
   27.7739  -19.0087   -4.9021 C   0  0  0  0  0  0  0  0  0  0  0  0
   28.3495  -19.2908   -3.6787 C   0  0  0  0  0  0  0  0  0  0  0  0
   29.4852  -20.0524   -3.6631 C   0  0  0  0  0  0  0  0  0  0  0  0
   30.0468  -20.5290   -4.8273 C   0  0  0  0  0  0  0  0  0  0  0  0
   29.4402  -20.2242   -6.0262 C   0  0  0  0  0  0  0  0  0  0  0  0
   25.9103  -20.8155   -6.9588 C   0  0  0  0  0  0  0  0  0  0  0  0
   24.7152  -20.4551   -6.9042 O   0  0  0  0  0  0  0  0  0  0  0  0
   26.3212  -21.7651   -6.0209 O   0  0  0  0  0  0  0  0  0  0  0  0
  2  8  1  0
  2  1  1  6
  3  2  1  0
  4  3  1  0
  5  6  1  0
  5  4  1  0
  7  6  1  0
  8  9  2  0
 10 11  1  0
 10  8  1  0
 12 13  1  0
 11 12  1  1
 14 15  2  0
 14 11  1  0
 16 14  1  0
 17 25  1  0
 17 16  1  0
 17 18  1  1
 19 18  1  0
 20 19  2  0
 21 20  1  0
 22 23  1  0
 22 21  2  0
 23 24  2  0
 24 19  1  0
 25 27  1  0
 26 25  2  0
M  END
$$$$
