KCF.pdb
     RDKit          3D

 27 27  0  0  1  0  0  0  0  0999 V2000
   23.0430  -17.5563  -17.9350 N   0  0  0  0  0  0  0  0  0  0  0  0
   23.4361  -17.1941  -16.5916 C   0  0  1  0  0  0  0  0  0  0  0  0
   22.2529  -16.7044  -15.8441 C   0  0  0  0  0  0  0  0  0  0  0  0
   21.4642  -15.7491  -16.6950 C   0  0  0  0  0  0  0  0  0  0  0  0
   20.0006  -16.0659  -16.6983 C   0  0  0  0  0  0  0  0  0  0  0  0
   19.2720  -15.1149  -15.7608 C   0  0  0  0  0  0  0  0  0  0  0  0
   17.8613  -15.3705  -15.7065 N   0  0  0  0  0  0  0  0  0  0  0  0
   24.1117  -18.3459  -15.9050 C   0  0  0  0  0  0  0  0  0  0  0  0
   23.4341  -19.0489  -15.1158 O   0  0  0  0  0  0  0  0  0  0  0  0
   25.4684  -18.6850  -16.0961 N   0  0  0  0  0  0  0  0  0  0  0  0
   26.1438  -19.7803  -15.4778 C   0  0  1  0  0  0  0  0  0  0  0  0
   27.3191  -20.2896  -16.2698 C   0  0  0  0  0  0  0  0  0  0  0  0
   28.3454  -18.8785  -16.7621 S   0  0  0  0  0  0  0  0  0  0  0  0
   26.5851  -19.4820  -14.0901 C   0  0  0  0  0  0  0  0  0  0  0  0
   27.1685  -18.3876  -13.8788 O   0  0  0  0  0  0  0  0  0  0  0  0
   26.3873  -20.3528  -13.0028 N   0  0  0  0  0  0  0  0  0  0  0  0
   27.1170  -20.2175  -11.7292 C   0  0  1  0  0  0  0  0  0  0  0  0
   26.3760  -19.3240  -10.7903 C   0  0  0  0  0  0  0  0  0  0  0  0
   25.0486  -19.8646  -10.4531 C   0  0  0  0  0  0  0  0  0  0  0  0
   24.7438  -20.2688   -9.1765 C   0  0  0  0  0  0  0  0  0  0  0  0
   23.5064  -20.7727   -8.8264 C   0  0  0  0  0  0  0  0  0  0  0  0
   22.5521  -20.8685   -9.8013 C   0  0  0  0  0  0  0  0  0  0  0  0
   22.8072  -20.4770  -11.0973 C   0  0  0  0  0  0  0  0  0  0  0  0
   24.0551  -19.9797  -11.4036 C   0  0  0  0  0  0  0  0  0  0  0  0
   27.3184  -21.5540  -11.1396 C   0  0  0  0  0  0  0  0  0  0  0  0
   26.8954  -22.6273  -11.6195 O   0  0  0  0  0  0  0  0  0  0  0  0
   28.0395  -21.6429   -9.9468 O   0  0  0  0  0  0  0  0  0  0  0  0
  2  8  1  0
  2  1  1  6
  3  2  1  0
  4  3  1  0
  5  6  1  0
  5  4  1  0
  7  6  1  0
  8  9  2  0
 10 11  1  0
 10  8  1  0
 12 13  1  0
 11 12  1  6
 14 15  2  0
 14 11  1  0
 16 14  1  0
 17 25  1  0
 17 16  1  0
 17 18  1  1
 19 18  1  0
 20 19  2  0
 21 20  1  0
 22 23  1  0
 22 21  2  0
 23 24  2  0
 24 19  1  0
 25 27  1  0
 26 25  2  0
M  END
$$$$
