KCF.pdb
     RDKit          3D

 27 27  0  0  1  0  0  0  0  0999 V2000
   22.9839  -14.4466  -17.6636 N   0  0  0  0  0  0  0  0  0  0  0  0
   23.0800  -13.0756  -18.1125 C   0  0  1  0  0  0  0  0  0  0  0  0
   22.5295  -12.9637  -19.4847 C   0  0  0  0  0  0  0  0  0  0  0  0
   23.6470  -12.8147  -20.4785 C   0  0  0  0  0  0  0  0  0  0  0  0
   23.6118  -13.8737  -21.5368 C   0  0  0  0  0  0  0  0  0  0  0  0
   24.7638  -13.6614  -22.5074 C   0  0  0  0  0  0  0  0  0  0  0  0
   24.8070  -14.6610  -23.5357 N   0  0  0  0  0  0  0  0  0  0  0  0
   22.4014  -12.1490  -17.1453 C   0  0  0  0  0  0  0  0  0  0  0  0
   21.1569  -12.2396  -17.0075 O   0  0  0  0  0  0  0  0  0  0  0  0
   23.0838  -11.1793  -16.3798 N   0  0  0  0  0  0  0  0  0  0  0  0
   22.4703  -10.2291  -15.5086 C   0  0  1  0  0  0  0  0  0  0  0  0
   23.1863  -10.0648  -14.1940 C   0  0  0  0  0  0  0  0  0  0  0  0
   22.2487   -8.9074  -13.1605 S   0  0  0  0  0  0  0  0  0  0  0  0
   22.2947   -8.8936  -16.1369 C   0  0  0  0  0  0  0  0  0  0  0  0
   23.2736   -8.3975  -16.7521 O   0  0  0  0  0  0  0  0  0  0  0  0
   21.0982   -8.1553  -16.0823 N   0  0  0  0  0  0  0  0  0  0  0  0
   20.9711   -6.7989  -16.6452 C   0  0  1  0  0  0  0  0  0  0  0  0
   20.1582   -6.8225  -17.8972 C   0  0  0  0  0  0  0  0  0  0  0  0
   19.9719   -5.4724  -18.4543 C   0  0  0  0  0  0  0  0  0  0  0  0
   21.0378   -4.7261  -18.8936 C   0  0  0  0  0  0  0  0  0  0  0  0
   20.8958   -3.4605  -19.4280 C   0  0  0  0  0  0  0  0  0  0  0  0
   19.6349   -2.9387  -19.5183 C   0  0  0  0  0  0  0  0  0  0  0  0
   18.5324   -3.6461  -19.0917 C   0  0  0  0  0  0  0  0  0  0  0  0
   18.7188   -4.9054  -18.5649 C   0  0  0  0  0  0  0  0  0  0  0  0
   20.3652   -5.9088  -15.6377 C   0  0  0  0  0  0  0  0  0  0  0  0
   20.6360   -4.6985  -15.4859 O   0  0  0  0  0  0  0  0  0  0  0  0
   19.4085   -6.4491  -14.7756 O   0  0  0  0  0  0  0  0  0  0  0  0
  2  8  1  0
  2  1  1  1
  3  2  1  0
  4  3  1  0
  5  6  1  0
  5  4  1  0
  7  6  1  0
  8  9  2  0
 10 11  1  0
 10  8  1  0
 12 13  1  0
 11 12  1  1
 14 15  2  0
 14 11  1  0
 16 14  1  0
 17 25  1  0
 17 16  1  0
 17 18  1  6
 19 18  1  0
 20 19  2  0
 21 20  1  0
 22 23  1  0
 22 21  2  0
 23 24  2  0
 24 19  1  0
 25 27  1  0
 26 25  2  0
M  END
$$$$
