KCF.pdb
     RDKit          3D

 27 27  0  0  1  0  0  0  0  0999 V2000
   28.7782  -33.7268  -16.1470 N   0  0  0  0  0  0  0  0  0  0  0  0
   28.1542  -32.8683  -15.1652 C   0  0  1  0  0  0  0  0  0  0  0  0
   26.9292  -32.2644  -15.7422 C   0  0  0  0  0  0  0  0  0  0  0  0
   27.2958  -31.1410  -16.6708 C   0  0  0  0  0  0  0  0  0  0  0  0
   27.8736  -29.9669  -15.9426 C   0  0  0  0  0  0  0  0  0  0  0  0
   28.1551  -28.8443  -16.9298 C   0  0  0  0  0  0  0  0  0  0  0  0
   28.6646  -27.6653  -16.2903 N   0  0  0  0  0  0  0  0  0  0  0  0
   27.8789  -33.6219  -13.8960 C   0  0  0  0  0  0  0  0  0  0  0  0
   27.7682  -34.8709  -13.9573 O   0  0  0  0  0  0  0  0  0  0  0  0
   27.7368  -33.0054  -12.6343 N   0  0  0  0  0  0  0  0  0  0  0  0
   27.5809  -33.6891  -11.3907 C   0  0  1  0  0  0  0  0  0  0  0  0
   27.6632  -32.7843  -10.1898 C   0  0  0  0  0  0  0  0  0  0  0  0
   26.3556  -31.5343  -10.3114 S   0  0  0  0  0  0  0  0  0  0  0  0
   26.3258  -34.4820  -11.3171 C   0  0  0  0  0  0  0  0  0  0  0  0
   25.3326  -34.0771  -11.9746 O   0  0  0  0  0  0  0  0  0  0  0  0
   26.1870  -35.6568  -10.5554 N   0  0  0  0  0  0  0  0  0  0  0  0
   24.9186  -36.4019  -10.4618 C   0  0  1  0  0  0  0  0  0  0  0  0
   25.1692  -37.8734  -10.4888 C   0  0  0  0  0  0  0  0  0  0  0  0
   23.9146  -38.6431  -10.4504 C   0  0  0  0  0  0  0  0  0  0  0  0
   23.1652  -38.8471  -11.5830 C   0  0  0  0  0  0  0  0  0  0  0  0
   21.9887  -39.5705  -11.5818 C   0  0  0  0  0  0  0  0  0  0  0  0
   21.5616  -40.1012  -10.3959 C   0  0  0  0  0  0  0  0  0  0  0  0
   22.2764  -39.9253   -9.2313 C   0  0  0  0  0  0  0  0  0  0  0  0
   23.4449  -39.1969   -9.2772 C   0  0  0  0  0  0  0  0  0  0  0  0
   24.2128  -36.0080   -9.2285 C   0  0  0  0  0  0  0  0  0  0  0  0
   22.9737  -35.9012   -9.1072 O   0  0  0  0  0  0  0  0  0  0  0  0
   24.9791  -35.7283   -8.0950 O   0  0  0  0  0  0  0  0  0  0  0  0
  2  8  1  0
  2  1  1  6
  3  2  1  0
  4  3  1  0
  5  6  1  0
  5  4  1  0
  7  6  1  0
  8  9  2  0
 10 11  1  0
 10  8  1  0
 12 13  1  0
 11 12  1  1
 14 15  2  0
 14 11  1  0
 16 14  1  0
 17 25  1  0
 17 16  1  0
 17 18  1  1
 19 18  1  0
 20 19  2  0
 21 20  1  0
 22 23  1  0
 22 21  2  0
 23 24  2  0
 24 19  1  0
 25 27  1  0
 26 25  2  0
M  END
$$$$
