KCF.pdb
     RDKit          3D

 27 27  0  0  1  0  0  0  0  0999 V2000
   15.6128  -18.6567  -17.2985 N   0  0  0  0  0  0  0  0  0  0  0  0
   16.4288  -17.8236  -18.1532 C   0  0  1  0  0  0  0  0  0  0  0  0
   16.3737  -18.3361  -19.5435 C   0  0  0  0  0  0  0  0  0  0  0  0
   17.7277  -18.8350  -19.9635 C   0  0  0  0  0  0  0  0  0  0  0  0
   18.2132  -19.9577  -19.0995 C   0  0  0  0  0  0  0  0  0  0  0  0
   19.5382  -20.4770  -19.6369 C   0  0  0  0  0  0  0  0  0  0  0  0
   20.0278  -21.6039  -18.8960 N   0  0  0  0  0  0  0  0  0  0  0  0
   16.0080  -16.3856  -18.0552 C   0  0  0  0  0  0  0  0  0  0  0  0
   14.8184  -16.0934  -18.3299 O   0  0  0  0  0  0  0  0  0  0  0  0
   16.8752  -15.3403  -17.6712 N   0  0  0  0  0  0  0  0  0  0  0  0
   16.4939  -13.9795  -17.4685 C   0  0  1  0  0  0  0  0  0  0  0  0
   15.4761  -13.7943  -16.3742 C   0  0  0  0  0  0  0  0  0  0  0  0
   16.1336  -14.5038  -14.8407 S   0  0  0  0  0  0  0  0  0  0  0  0
   17.6520  -13.0837  -17.2122 C   0  0  0  0  0  0  0  0  0  0  0  0
   18.5474  -13.4871  -16.4258 O   0  0  0  0  0  0  0  0  0  0  0  0
   17.8023  -11.8134  -17.7983 N   0  0  0  0  0  0  0  0  0  0  0  0
   18.9304  -10.9182  -17.4841 C   0  0  1  0  0  0  0  0  0  0  0  0
   19.5233  -10.3595  -18.7353 C   0  0  0  0  0  0  0  0  0  0  0  0
   18.5260   -9.6280  -19.5342 C   0  0  0  0  0  0  0  0  0  0  0  0
   17.7202  -10.2746  -20.4391 C   0  0  0  0  0  0  0  0  0  0  0  0
   16.7704   -9.6189  -21.1976 C   0  0  0  0  0  0  0  0  0  0  0  0
   16.6361   -8.2680  -21.0321 C   0  0  0  0  0  0  0  0  0  0  0  0
   17.4200   -7.5723  -20.1380 C   0  0  0  0  0  0  0  0  0  0  0  0
   18.3553   -8.2654  -19.4010 C   0  0  0  0  0  0  0  0  0  0  0  0
   18.4628   -9.8404  -16.5931 C   0  0  0  0  0  0  0  0  0  0  0  0
   17.2711   -9.6194  -16.2893 O   0  0  0  0  0  0  0  0  0  0  0  0
   19.4191   -8.9888  -16.0356 O   0  0  0  0  0  0  0  0  0  0  0  0
  2  8  1  0
  2  1  1  1
  3  2  1  0
  4  3  1  0
  5  6  1  0
  5  4  1  0
  7  6  1  0
  8  9  2  0
 10 11  1  0
 10  8  1  0
 12 13  1  0
 11 12  1  1
 14 15  2  0
 14 11  1  0
 16 14  1  0
 17 25  1  0
 17 16  1  0
 17 18  1  6
 19 18  1  0
 20 19  2  0
 21 20  1  0
 22 23  1  0
 22 21  2  0
 23 24  2  0
 24 19  1  0
 25 27  1  0
 26 25  2  0
M  END
$$$$
