KCF.pdb
     RDKit          3D

 27 27  0  0  1  0  0  0  0  0999 V2000
   24.6768  -19.7591  -16.8219 N   0  0  0  0  0  0  0  0  0  0  0  0
   23.8461  -20.4463  -15.8585 C   0  0  1  0  0  0  0  0  0  0  0  0
   23.0692  -21.5081  -16.5422 C   0  0  0  0  0  0  0  0  0  0  0  0
   22.0646  -20.8927  -17.4754 C   0  0  0  0  0  0  0  0  0  0  0  0
   20.9300  -20.2455  -16.7429 C   0  0  0  0  0  0  0  0  0  0  0  0
   19.6141  -20.8537  -17.2037 C   0  0  0  0  0  0  0  0  0  0  0  0
   18.4774  -20.2457  -16.5737 N   0  0  0  0  0  0  0  0  0  0  0  0
   24.6740  -20.9809  -14.7257 C   0  0  0  0  0  0  0  0  0  0  0  0
   24.1476  -21.8090  -13.9426 O   0  0  0  0  0  0  0  0  0  0  0  0
   26.0139  -20.6052  -14.4898 N   0  0  0  0  0  0  0  0  0  0  0  0
   26.7626  -20.9025  -13.3110 C   0  0  1  0  0  0  0  0  0  0  0  0
   28.2156  -20.5183  -13.4058 C   0  0  0  0  0  0  0  0  0  0  0  0
   29.0427  -20.9815  -11.8603 S   0  0  0  0  0  0  0  0  0  0  0  0
   26.1790  -20.2990  -12.0845 C   0  0  0  0  0  0  0  0  0  0  0  0
   25.9350  -19.0648  -12.0927 O   0  0  0  0  0  0  0  0  0  0  0  0
   25.8849  -21.0289  -10.9181 N   0  0  0  0  0  0  0  0  0  0  0  0
   25.3900  -20.3942   -9.6832 C   0  0  1  0  0  0  0  0  0  0  0  0
   24.1538  -21.0773   -9.1992 C   0  0  0  0  0  0  0  0  0  0  0  0
   22.9663  -20.6693   -9.9682 C   0  0  0  0  0  0  0  0  0  0  0  0
   22.5499  -19.3611  -10.0012 C   0  0  0  0  0  0  0  0  0  0  0  0
   21.4454  -18.9451  -10.7187 C   0  0  0  0  0  0  0  0  0  0  0  0
   20.7444  -19.8854  -11.4221 C   0  0  0  0  0  0  0  0  0  0  0  0
   21.1203  -21.2108  -11.4217 C   0  0  0  0  0  0  0  0  0  0  0  0
   22.2285  -21.5829  -10.6926 C   0  0  0  0  0  0  0  0  0  0  0  0
   26.4501  -20.4305   -8.6588 C   0  0  0  0  0  0  0  0  0  0  0  0
   27.5029  -21.0995   -8.7313 O   0  0  0  0  0  0  0  0  0  0  0  0
   26.2768  -19.6588   -7.5078 O   0  0  0  0  0  0  0  0  0  0  0  0
  2  8  1  0
  2  1  1  6
  3  2  1  0
  4  3  1  0
  5  6  1  0
  5  4  1  0
  7  6  1  0
  8  9  2  0
 10 11  1  0
 10  8  1  0
 12 13  1  0
 11 12  1  6
 14 15  2  0
 14 11  1  0
 16 14  1  0
 17 25  1  0
 17 16  1  0
 17 18  1  1
 19 18  1  0
 20 19  2  0
 21 20  1  0
 22 23  1  0
 22 21  2  0
 23 24  2  0
 24 19  1  0
 25 27  1  0
 26 25  2  0
M  END
$$$$
