CLC.pdb
     RDKit          3D

 21 20  0  0  1  0  0  0  0  0999 V2000
    7.2117  -16.0760   21.1361 N   0  0  0  0  0  0  0  0  0  0  0  0
    6.7603  -16.3357   22.4764 C   0  0  1  0  0  0  0  0  0  0  0  0
    6.7070  -17.8228   22.7670 C   0  0  0  0  0  0  0  0  0  0  0  0
    5.2031  -18.4870   22.0001 S   0  0  0  0  0  0  0  0  0  0  0  0
    7.7177  -15.7380   23.4297 C   0  0  0  0  0  0  0  0  0  0  0  0
    8.9548  -15.6935   23.1268 O   0  0  0  0  0  0  0  0  0  0  0  0
    5.8535  -11.8720   26.9397 C   0  0  0  0  0  0  0  0  0  0  0  0
    6.6339  -12.5705   25.7996 C   0  0  1  0  0  0  0  0  0  0  0  0
    7.3944  -11.4513   25.1257 C   0  0  0  0  0  0  0  0  0  0  0  0
    7.4990  -13.5769   26.4541 C   0  0  0  0  0  0  0  0  0  0  0  0
    8.1350  -14.6200   25.6087 C   0  0  2  0  0  0  0  0  0  0  0  0
    7.2454  -15.2293   24.6536 N   0  0  0  0  0  0  0  0  0  0  0  0
    8.8190  -15.6773   26.3668 C   0  0  0  0  0  0  0  0  0  0  0  0
    8.3281  -16.1290   27.4127 O   0  0  0  0  0  0  0  0  0  0  0  0
   10.0480  -16.1823   25.8968 N   0  0  0  0  0  0  0  0  0  0  0  0
   10.6840  -17.3718   26.3651 C   0  0  1  0  0  0  0  0  0  0  0  0
    9.8252  -18.5556   25.9242 C   0  0  0  0  0  0  0  0  0  0  0  0
    9.7820  -19.8564   27.1635 S   0  0  0  0  0  0  0  0  0  0  0  0
   11.9943  -17.5172   25.7038 C   0  0  0  0  0  0  0  0  0  0  0  0
   13.0011  -18.3239   26.2198 O   0  0  0  0  0  0  0  0  0  0  0  0
   12.2309  -16.9012   24.6380 O   0  0  0  0  0  0  0  0  0  0  0  0
  2  1  1  6
  2  3  1  0
  2  5  1  0
  3  4  1  0
  5  6  2  0
  8  7  1  1
  8 10  1  0
  9  8  1  0
 11 10  1  1
 12 11  1  0
 12  5  1  0
 13 11  1  0
 13 14  2  0
 15 13  1  0
 16 15  1  0
 16 19  1  0
 16 17  1  6
 18 17  1  0
 19 21  2  0
 19 20  1  0
M  END
$$$$
