CLC.pdb
     RDKit          3D

 21 20  0  0  1  0  0  0  0  0999 V2000
    8.7886  -15.6787   19.7295 N   0  0  0  0  0  0  0  0  0  0  0  0
    7.7003  -15.1798   20.5260 C   0  0  1  0  0  0  0  0  0  0  0  0
    6.5518  -16.1681   20.5800 C   0  0  0  0  0  0  0  0  0  0  0  0
    7.1556  -17.6810   21.3785 S   0  0  0  0  0  0  0  0  0  0  0  0
    8.1716  -14.9812   21.9122 C   0  0  0  0  0  0  0  0  0  0  0  0
    9.3445  -15.3621   22.2333 O   0  0  0  0  0  0  0  0  0  0  0  0
    6.3979  -11.4760   26.6341 C   0  0  0  0  0  0  0  0  0  0  0  0
    7.4640  -12.4899   26.1522 C   0  0  1  0  0  0  0  0  0  0  0  0
    7.5822  -13.4784   27.2898 C   0  0  0  0  0  0  0  0  0  0  0  0
    6.9349  -13.0742   24.8998 C   0  0  0  0  0  0  0  0  0  0  0  0
    7.7525  -14.0949   24.1948 C   0  0  2  0  0  0  0  0  0  0  0  0
    7.3164  -14.3754   22.8509 N   0  0  0  0  0  0  0  0  0  0  0  0
    7.8965  -15.3625   24.9248 C   0  0  0  0  0  0  0  0  0  0  0  0
    6.9035  -16.0511   25.2055 O   0  0  0  0  0  0  0  0  0  0  0  0
    9.1804  -15.7984   25.3094 N   0  0  0  0  0  0  0  0  0  0  0  0
    9.4731  -17.0449   25.9413 C   0  0  1  0  0  0  0  0  0  0  0  0
   10.1646  -17.9323   24.9080 C   0  0  0  0  0  0  0  0  0  0  0  0
   10.6874  -19.5024   25.6088 S   0  0  0  0  0  0  0  0  0  0  0  0
   10.4368  -16.8228   27.0355 C   0  0  0  0  0  0  0  0  0  0  0  0
   11.0871  -15.6084   27.2173 O   0  0  0  0  0  0  0  0  0  0  0  0
   10.6940  -17.7472   27.8422 O   0  0  0  0  0  0  0  0  0  0  0  0
  2  1  1  6
  2  3  1  0
  2  5  1  0
  3  4  1  0
  5  6  2  0
  8  7  1  1
  8 10  1  0
  9  8  1  0
 11 10  1  1
 12 11  1  0
 12  5  1  0
 13 11  1  0
 13 14  2  0
 15 13  1  0
 16 15  1  0
 16 19  1  0
 16 17  1  6
 18 17  1  0
 19 21  2  0
 19 20  1  0
M  END
$$$$
