CLC.pdb
     RDKit          3D

 21 20  0  0  1  0  0  0  0  0999 V2000
    9.5836  -17.9828   16.1483 N   0  0  0  0  0  0  0  0  0  0  0  0
    8.6533  -17.9927   17.2446 C   0  0  1  0  0  0  0  0  0  0  0  0
    8.3849  -19.4025   17.7337 C   0  0  0  0  0  0  0  0  0  0  0  0
    7.0361  -19.3250   18.9444 S   0  0  0  0  0  0  0  0  0  0  0  0
    9.2358  -17.2412   18.3755 C   0  0  0  0  0  0  0  0  0  0  0  0
   10.4602  -17.4209   18.6797 O   0  0  0  0  0  0  0  0  0  0  0  0
    6.9437  -12.3032   19.9997 C   0  0  0  0  0  0  0  0  0  0  0  0
    7.9253  -13.3464   19.4126 C   0  0  1  0  0  0  0  0  0  0  0  0
    9.1489  -12.5410   19.0392 C   0  0  0  0  0  0  0  0  0  0  0  0
    8.1610  -14.3354   20.4878 C   0  0  0  0  0  0  0  0  0  0  0  0
    8.9606  -15.5470   20.1715 C   0  0  2  0  0  0  0  0  0  0  0  0
    8.4277  -16.3415   19.0946 N   0  0  0  0  0  0  0  0  0  0  0  0
    9.2181  -16.4189   21.3265 C   0  0  0  0  0  0  0  0  0  0  0  0
    8.4451  -17.3477   21.6071 O   0  0  0  0  0  0  0  0  0  0  0  0
   10.3586  -16.1942   22.1233 N   0  0  0  0  0  0  0  0  0  0  0  0
   10.9170  -17.1296   23.0463 C   0  0  1  0  0  0  0  0  0  0  0  0
   11.3823  -18.3438   22.2447 C   0  0  0  0  0  0  0  0  0  0  0  0
   11.5321  -19.8121   23.2699 S   0  0  0  0  0  0  0  0  0  0  0  0
   12.1146  -16.5403   23.6739 C   0  0  0  0  0  0  0  0  0  0  0  0
   12.5518  -16.9163   24.9381 O   0  0  0  0  0  0  0  0  0  0  0  0
   12.7771  -15.6678   23.0646 O   0  0  0  0  0  0  0  0  0  0  0  0
  2  1  1  6
  2  3  1  0
  2  5  1  0
  3  4  1  0
  5  6  2  0
  8  7  1  1
  8 10  1  0
  9  8  1  0
 11 10  1  1
 12 11  1  0
 12  5  1  0
 13 11  1  0
 13 14  2  0
 15 13  1  0
 16 15  1  0
 16 19  1  0
 16 17  1  6
 18 17  1  0
 19 21  2  0
 19 20  1  0
M  END
$$$$
