CLC.pdb
     RDKit          3D

 21 20  0  0  1  0  0  0  0  0999 V2000
   10.1442  -18.4835   18.0964 N   0  0  0  0  0  0  0  0  0  0  0  0
    9.2645  -18.3348   19.2242 C   0  0  1  0  0  0  0  0  0  0  0  0
    9.3735  -19.5118   20.1736 C   0  0  0  0  0  0  0  0  0  0  0  0
    8.2298  -20.7980   19.6002 S   0  0  0  0  0  0  0  0  0  0  0  0
    9.6530  -17.1261   19.9799 C   0  0  0  0  0  0  0  0  0  0  0  0
   10.8766  -16.7706   20.0026 O   0  0  0  0  0  0  0  0  0  0  0  0
    6.5317  -12.6700   19.7205 C   0  0  0  0  0  0  0  0  0  0  0  0
    7.7666  -13.6027   19.6783 C   0  0  1  0  0  0  0  0  0  0  0  0
    8.8800  -12.7265   19.1512 C   0  0  0  0  0  0  0  0  0  0  0  0
    7.9740  -14.0686   21.0674 C   0  0  0  0  0  0  0  0  0  0  0  0
    8.9702  -15.1433   21.3118 C   0  0  2  0  0  0  0  0  0  0  0  0
    8.6647  -16.3909   20.6599 N   0  0  0  0  0  0  0  0  0  0  0  0
    9.2439  -15.4011   22.7328 C   0  0  0  0  0  0  0  0  0  0  0  0
    9.6227  -14.4887   23.4831 O   0  0  0  0  0  0  0  0  0  0  0  0
    9.0729  -16.7024   23.2462 N   0  0  0  0  0  0  0  0  0  0  0  0
    9.3126  -17.0934   24.5983 C   0  0  1  0  0  0  0  0  0  0  0  0
    8.1006  -17.8972   25.0655 C   0  0  0  0  0  0  0  0  0  0  0  0
    6.6666  -16.8519   25.3500 S   0  0  0  0  0  0  0  0  0  0  0  0
   10.4765  -17.9980   24.6457 C   0  0  0  0  0  0  0  0  0  0  0  0
   11.1827  -18.3599   23.5051 O   0  0  0  0  0  0  0  0  0  0  0  0
   10.8606  -18.4693   25.7420 O   0  0  0  0  0  0  0  0  0  0  0  0
  2  1  1  6
  2  3  1  0
  2  5  1  0
  3  4  1  0
  5  6  2  0
  8  7  1  1
  8 10  1  0
  9  8  1  0
 11 10  1  1
 12 11  1  0
 12  5  1  0
 13 11  1  0
 13 14  2  0
 15 13  1  0
 16 15  1  0
 16 19  1  0
 16 17  1  6
 18 17  1  0
 19 21  2  0
 19 20  1  0
M  END
$$$$
