CLC.pdb
     RDKit          3D

 21 20  0  0  1  0  0  0  0  0999 V2000
    9.1373  -15.1879   19.7421 N   0  0  0  0  0  0  0  0  0  0  0  0
    8.0618  -15.5519   20.6244 C   0  0  1  0  0  0  0  0  0  0  0  0
    7.7830  -17.0414   20.5767 C   0  0  0  0  0  0  0  0  0  0  0  0
    6.3950  -17.3845   21.6933 S   0  0  0  0  0  0  0  0  0  0  0  0
    8.4475  -15.2236   22.0124 C   0  0  0  0  0  0  0  0  0  0  0  0
    9.6547  -15.3963   22.3822 O   0  0  0  0  0  0  0  0  0  0  0  0
    8.0893  -11.9529   26.3222 C   0  0  0  0  0  0  0  0  0  0  0  0
    7.0147  -13.0672   26.3036 C   0  0  1  0  0  0  0  0  0  0  0  0
    5.8024  -12.4293   26.9427 C   0  0  0  0  0  0  0  0  0  0  0  0
    6.8253  -13.4279   24.8810 C   0  0  0  0  0  0  0  0  0  0  0  0
    7.8110  -14.3397   24.2451 C   0  0  2  0  0  0  0  0  0  0  0  0
    7.4746  -14.7266   22.8990 N   0  0  0  0  0  0  0  0  0  0  0  0
    8.1099  -15.5468   25.0287 C   0  0  0  0  0  0  0  0  0  0  0  0
    7.2347  -16.3998   25.2414 O   0  0  0  0  0  0  0  0  0  0  0  0
    9.4084  -15.7345   25.5436 N   0  0  0  0  0  0  0  0  0  0  0  0
    9.8605  -16.8984   26.2362 C   0  0  1  0  0  0  0  0  0  0  0  0
   11.3034  -17.1567   25.8065 C   0  0  0  0  0  0  0  0  0  0  0  0
   11.4345  -17.4830   24.0441 S   0  0  0  0  0  0  0  0  0  0  0  0
    9.8824  -16.6260   27.6855 C   0  0  0  0  0  0  0  0  0  0  0  0
   10.2488  -17.5898   28.6169 O   0  0  0  0  0  0  0  0  0  0  0  0
    9.5633  -15.4926   28.1157 O   0  0  0  0  0  0  0  0  0  0  0  0
  2  1  1  6
  2  3  1  0
  2  5  1  0
  3  4  1  0
  5  6  2  0
  8  7  1  6
  8 10  1  0
  9  8  1  0
 11 10  1  1
 12 11  1  0
 12  5  1  0
 13 11  1  0
 13 14  2  0
 15 13  1  0
 16 15  1  0
 16 19  1  0
 16 17  1  6
 18 17  1  0
 19 21  2  0
 19 20  1  0
M  END
$$$$
