CLC.pdb
     RDKit          3D

 21 20  0  0  1  0  0  0  0  0999 V2000
    9.5226  -18.8891   17.5890 N   0  0  0  0  0  0  0  0  0  0  0  0
    8.9640  -18.5987   18.8817 C   0  0  1  0  0  0  0  0  0  0  0  0
    9.2266  -19.7214   19.8662 C   0  0  0  0  0  0  0  0  0  0  0  0
    8.2838  -21.1723   19.3212 S   0  0  0  0  0  0  0  0  0  0  0  0
    9.6091  -17.3840   19.4216 C   0  0  0  0  0  0  0  0  0  0  0  0
   10.7493  -17.0317   18.9747 O   0  0  0  0  0  0  0  0  0  0  0  0
    6.5186  -12.9743   20.6110 C   0  0  0  0  0  0  0  0  0  0  0  0
    7.6274  -13.8655   20.0003 C   0  0  1  0  0  0  0  0  0  0  0  0
    8.3740  -12.9446   19.0624 C   0  0  0  0  0  0  0  0  0  0  0  0
    8.4374  -14.3484   21.1407 C   0  0  0  0  0  0  0  0  0  0  0  0
    9.4745  -15.3808   20.8847 C   0  0  2  0  0  0  0  0  0  0  0  0
    8.9521  -16.6397   20.4186 N   0  0  0  0  0  0  0  0  0  0  0  0
   10.3738  -15.6280   22.0209 C   0  0  0  0  0  0  0  0  0  0  0  0
   10.9845  -14.6943   22.5633 O   0  0  0  0  0  0  0  0  0  0  0  0
   10.5421  -16.9435   22.4977 N   0  0  0  0  0  0  0  0  0  0  0  0
   11.3865  -17.3251   23.5840 C   0  0  1  0  0  0  0  0  0  0  0  0
   10.4908  -17.5752   24.7958 C   0  0  0  0  0  0  0  0  0  0  0  0
   11.4173  -18.2053   26.2010 S   0  0  0  0  0  0  0  0  0  0  0  0
   12.0472  -18.6039   23.2625 C   0  0  0  0  0  0  0  0  0  0  0  0
   13.3877  -18.8384   23.5433 O   0  0  0  0  0  0  0  0  0  0  0  0
   11.3969  -19.5262   22.7167 O   0  0  0  0  0  0  0  0  0  0  0  0
  2  1  1  6
  2  3  1  0
  2  5  1  0
  3  4  1  0
  5  6  2  0
  8  7  1  1
  8 10  1  0
  9  8  1  0
 11 10  1  1
 12 11  1  0
 12  5  1  0
 13 11  1  0
 13 14  2  0
 15 13  1  0
 16 15  1  0
 16 19  1  0
 16 17  1  1
 18 17  1  0
 19 21  2  0
 19 20  1  0
M  END
$$$$
