CLC.pdb
     RDKit          3D

 21 20  0  0  1  0  0  0  0  0999 V2000
   10.6571  -18.8932   19.9647 N   0  0  0  0  0  0  0  0  0  0  0  0
    9.6693  -18.4810   20.9249 C   0  0  1  0  0  0  0  0  0  0  0  0
    9.7603  -19.2950   22.2008 C   0  0  0  0  0  0  0  0  0  0  0  0
   11.3946  -19.0035   22.9324 S   0  0  0  0  0  0  0  0  0  0  0  0
    9.9127  -17.0698   21.2884 C   0  0  0  0  0  0  0  0  0  0  0  0
   11.0793  -16.5791   21.1394 O   0  0  0  0  0  0  0  0  0  0  0  0
    6.1419  -13.1001   20.2060 C   0  0  0  0  0  0  0  0  0  0  0  0
    7.4939  -13.8534   20.2427 C   0  0  1  0  0  0  0  0  0  0  0  0
    8.4611  -12.9212   19.5494 C   0  0  0  0  0  0  0  0  0  0  0  0
    7.7967  -14.0792   21.6734 C   0  0  0  0  0  0  0  0  0  0  0  0
    8.9974  -14.8807   22.0245 C   0  0  2  0  0  0  0  0  0  0  0  0
    8.8518  -16.2948   21.7921 N   0  0  0  0  0  0  0  0  0  0  0  0
    9.4849  -14.6694   23.3949 C   0  0  0  0  0  0  0  0  0  0  0  0
    9.7125  -13.5262   23.8197 O   0  0  0  0  0  0  0  0  0  0  0  0
    9.6954  -15.7816   24.2345 N   0  0  0  0  0  0  0  0  0  0  0  0
   10.0582  -15.7165   25.6140 C   0  0  1  0  0  0  0  0  0  0  0  0
    8.8773  -15.1119   26.3712 C   0  0  0  0  0  0  0  0  0  0  0  0
    9.4015  -13.8632   27.5526 S   0  0  0  0  0  0  0  0  0  0  0  0
   10.2511  -17.0836   26.1328 C   0  0  0  0  0  0  0  0  0  0  0  0
   10.8553  -17.3343   27.3586 O   0  0  0  0  0  0  0  0  0  0  0  0
    9.8645  -18.0695   25.4620 O   0  0  0  0  0  0  0  0  0  0  0  0
  2  1  1  6
  2  3  1  0
  2  5  1  0
  3  4  1  0
  5  6  2  0
  8  7  1  1
  8 10  1  0
  9  8  1  0
 11 10  1  1
 12 11  1  0
 12  5  1  0
 13 11  1  0
 13 14  2  0
 15 13  1  0
 16 15  1  0
 16 19  1  0
 16 17  1  1
 18 17  1  0
 19 21  2  0
 19 20  1  0
M  END
$$$$
