CLC.pdb
     RDKit          3D

 21 20  0  0  1  0  0  0  0  0999 V2000
   10.1872  -18.5792   18.3514 N   0  0  0  0  0  0  0  0  0  0  0  0
    9.2222  -18.3262   19.3870 C   0  0  1  0  0  0  0  0  0  0  0  0
    9.1803  -19.4565   20.3965 C   0  0  0  0  0  0  0  0  0  0  0  0
    7.7784  -19.1585   21.5088 S   0  0  0  0  0  0  0  0  0  0  0  0
    9.6114  -17.1021   20.1171 C   0  0  0  0  0  0  0  0  0  0  0  0
   10.8469  -16.8581   20.3127 O   0  0  0  0  0  0  0  0  0  0  0  0
    6.7915  -12.3870   19.4741 C   0  0  0  0  0  0  0  0  0  0  0  0
    7.9335  -13.4313   19.5175 C   0  0  1  0  0  0  0  0  0  0  0  0
    9.1464  -12.6814   19.0159 C   0  0  0  0  0  0  0  0  0  0  0  0
    8.0358  -13.8658   20.9284 C   0  0  0  0  0  0  0  0  0  0  0  0
    8.9390  -14.9990   21.2559 C   0  0  2  0  0  0  0  0  0  0  0  0
    8.6107  -16.2293   20.5825 N   0  0  0  0  0  0  0  0  0  0  0  0
    9.0777  -15.2642   22.6950 C   0  0  0  0  0  0  0  0  0  0  0  0
    9.4829  -14.3825   23.4679 O   0  0  0  0  0  0  0  0  0  0  0  0
    8.7453  -16.5373   23.1999 N   0  0  0  0  0  0  0  0  0  0  0  0
    8.7955  -16.9178   24.5752 C   0  0  1  0  0  0  0  0  0  0  0  0
    7.5481  -17.7496   24.8673 C   0  0  0  0  0  0  0  0  0  0  0  0
    6.3650  -16.8575   25.8843 S   0  0  0  0  0  0  0  0  0  0  0  0
    9.9615  -17.7932   24.7970 C   0  0  0  0  0  0  0  0  0  0  0  0
   10.3018  -18.2722   26.0562 O   0  0  0  0  0  0  0  0  0  0  0  0
   10.6857  -18.1303   23.8309 O   0  0  0  0  0  0  0  0  0  0  0  0
  2  1  1  6
  2  3  1  0
  2  5  1  0
  3  4  1  0
  5  6  2  0
  8  7  1  1
  8 10  1  0
  9  8  1  0
 11 10  1  1
 12 11  1  0
 12  5  1  0
 13 11  1  0
 13 14  2  0
 15 13  1  0
 16 15  1  0
 16 19  1  0
 16 17  1  6
 18 17  1  0
 19 21  2  0
 19 20  1  0
M  END
$$$$
