CLC.pdb
     RDKit          3D

 21 20  0  0  1  0  0  0  0  0999 V2000
    7.1385  -16.5816   21.3494 N   0  0  0  0  0  0  0  0  0  0  0  0
    6.8042  -16.6364   22.7468 C   0  0  1  0  0  0  0  0  0  0  0  0
    6.9450  -18.0418   23.2977 C   0  0  0  0  0  0  0  0  0  0  0  0
    5.5091  -19.0032   22.7456 S   0  0  0  0  0  0  0  0  0  0  0  0
    7.7412  -15.7762   23.4987 C   0  0  0  0  0  0  0  0  0  0  0  0
    8.8984  -15.5444   23.0179 O   0  0  0  0  0  0  0  0  0  0  0  0
    5.6468  -11.8245   26.9195 C   0  0  0  0  0  0  0  0  0  0  0  0
    6.3921  -12.4844   25.7339 C   0  0  1  0  0  0  0  0  0  0  0  0
    6.9682  -11.3211   24.9592 C   0  0  0  0  0  0  0  0  0  0  0  0
    7.4126  -13.3709   26.3358 C   0  0  0  0  0  0  0  0  0  0  0  0
    8.1651  -14.2908   25.4443 C   0  0  2  0  0  0  0  0  0  0  0  0
    7.3377  -15.2295   24.7308 N   0  0  0  0  0  0  0  0  0  0  0  0
    9.2524  -15.0220   26.1103 C   0  0  0  0  0  0  0  0  0  0  0  0
   10.0542  -14.4331   26.8514 O   0  0  0  0  0  0  0  0  0  0  0  0
    9.3828  -16.4098   25.9024 N   0  0  0  0  0  0  0  0  0  0  0  0
   10.2524  -17.2750   26.6333 C   0  0  1  0  0  0  0  0  0  0  0  0
    9.6223  -17.5071   28.0053 C   0  0  0  0  0  0  0  0  0  0  0  0
   10.4956  -18.7659   28.9446 S   0  0  0  0  0  0  0  0  0  0  0  0
   10.3166  -18.5852   25.9591 C   0  0  0  0  0  0  0  0  0  0  0  0
   11.4607  -19.3735   25.9754 O   0  0  0  0  0  0  0  0  0  0  0  0
    9.3165  -19.0237   25.3434 O   0  0  0  0  0  0  0  0  0  0  0  0
  2  1  1  6
  2  3  1  0
  2  5  1  0
  3  4  1  0
  5  6  2  0
  8  7  1  1
  8 10  1  0
  9  8  1  0
 11 10  1  1
 12 11  1  0
 12  5  1  0
 13 11  1  0
 13 14  2  0
 15 13  1  0
 16 15  1  0
 16 19  1  0
 16 17  1  1
 18 17  1  0
 19 21  2  0
 19 20  1  0
M  END
$$$$
