CLC.pdb
     RDKit          3D

 21 20  0  0  1  0  0  0  0  0999 V2000
    9.3696  -18.9363   17.5243 N   0  0  0  0  0  0  0  0  0  0  0  0
    8.4033  -18.6697   18.5552 C   0  0  1  0  0  0  0  0  0  0  0  0
    8.0437  -19.9286   19.3196 C   0  0  0  0  0  0  0  0  0  0  0  0
    6.9728  -20.9380   18.2586 S   0  0  0  0  0  0  0  0  0  0  0  0
    8.9863  -17.7204   19.5258 C   0  0  0  0  0  0  0  0  0  0  0  0
   10.2216  -17.8134   19.8248 O   0  0  0  0  0  0  0  0  0  0  0  0
    8.1770  -13.4396   19.1167 C   0  0  0  0  0  0  0  0  0  0  0  0
    8.2257  -13.2710   20.6549 C   0  0  1  0  0  0  0  0  0  0  0  0
    7.2592  -12.1439   20.9390 C   0  0  0  0  0  0  0  0  0  0  0  0
    7.8137  -14.5743   21.2216 C   0  0  0  0  0  0  0  0  0  0  0  0
    8.6982  -15.7491   21.0099 C   0  0  2  0  0  0  0  0  0  0  0  0
    8.1665  -16.7322   20.1012 N   0  0  0  0  0  0  0  0  0  0  0  0
    9.1172  -16.4204   22.2485 C   0  0  0  0  0  0  0  0  0  0  0  0
    8.3090  -17.0815   22.9183 O   0  0  0  0  0  0  0  0  0  0  0  0
   10.4550  -16.3098   22.6779 N   0  0  0  0  0  0  0  0  0  0  0  0
   11.0389  -17.0439   23.7543 C   0  0  1  0  0  0  0  0  0  0  0  0
   11.5307  -18.3749   23.1888 C   0  0  0  0  0  0  0  0  0  0  0  0
   10.6559  -19.7745   23.8999 S   0  0  0  0  0  0  0  0  0  0  0  0
   12.2240  -16.3205   24.2520 C   0  0  0  0  0  0  0  0  0  0  0  0
   12.6857  -15.1530   23.6567 O   0  0  0  0  0  0  0  0  0  0  0  0
   12.8529  -16.7553   25.2455 O   0  0  0  0  0  0  0  0  0  0  0  0
  2  1  1  6
  2  3  1  0
  2  5  1  0
  3  4  1  0
  5  6  2  0
  8  7  1  6
  8 10  1  0
  9  8  1  0
 11 10  1  1
 12 11  1  0
 12  5  1  0
 13 11  1  0
 13 14  2  0
 15 13  1  0
 16 15  1  0
 16 19  1  0
 16 17  1  6
 18 17  1  0
 19 21  2  0
 19 20  1  0
M  END
$$$$
