CLC.pdb
     RDKit          3D

 21 20  0  0  1  0  0  0  0  0999 V2000
    9.7659  -15.2845   20.5779 N   0  0  0  0  0  0  0  0  0  0  0  0
    8.5981  -15.6412   21.3372 C   0  0  1  0  0  0  0  0  0  0  0  0
    8.2119  -17.0905   21.1158 C   0  0  0  0  0  0  0  0  0  0  0  0
    7.5812  -17.2466   19.4220 S   0  0  0  0  0  0  0  0  0  0  0  0
    8.8941  -15.4827   22.7761 C   0  0  0  0  0  0  0  0  0  0  0  0
   10.0616  -15.7570   23.2071 O   0  0  0  0  0  0  0  0  0  0  0  0
    5.6927  -12.2186   26.2229 C   0  0  0  0  0  0  0  0  0  0  0  0
    6.9161  -12.7339   25.4265 C   0  0  1  0  0  0  0  0  0  0  0  0
    8.0582  -11.8559   25.8845 C   0  0  0  0  0  0  0  0  0  0  0  0
    7.0696  -14.1598   25.7913 C   0  0  0  0  0  0  0  0  0  0  0  0
    8.0829  -14.9701   25.0676 C   0  0  2  0  0  0  0  0  0  0  0  0
    7.8814  -15.0319   23.6426 N   0  0  0  0  0  0  0  0  0  0  0  0
    8.2471  -16.3354   25.5866 C   0  0  0  0  0  0  0  0  0  0  0  0
    7.5908  -17.2775   25.1169 O   0  0  0  0  0  0  0  0  0  0  0  0
    9.1627  -16.5739   26.6312 N   0  0  0  0  0  0  0  0  0  0  0  0
    9.6921  -17.8510   26.9881 C   0  0  1  0  0  0  0  0  0  0  0  0
   10.6131  -18.2992   25.8550 C   0  0  0  0  0  0  0  0  0  0  0  0
   11.5066  -19.8033   26.2665 S   0  0  0  0  0  0  0  0  0  0  0  0
   10.5272  -17.7128   28.1960 C   0  0  0  0  0  0  0  0  0  0  0  0
   10.6422  -18.7265   29.1393 O   0  0  0  0  0  0  0  0  0  0  0  0
   11.1646  -16.6529   28.4000 O   0  0  0  0  0  0  0  0  0  0  0  0
  2  1  1  6
  2  3  1  0
  2  5  1  0
  3  4  1  0
  5  6  2  0
  8  7  1  1
  8 10  1  0
  9  8  1  0
 11 10  1  1
 12 11  1  0
 12  5  1  0
 13 11  1  0
 13 14  2  0
 15 13  1  0
 16 15  1  0
 16 19  1  0
 16 17  1  6
 18 17  1  0
 19 21  2  0
 19 20  1  0
M  END
$$$$
