CLC.pdb
     RDKit          3D

 21 20  0  0  1  0  0  0  0  0999 V2000
    8.2670  -12.8341   19.2718 N   0  0  0  0  0  0  0  0  0  0  0  0
    7.4261  -13.7172   20.0338 C   0  0  1  0  0  0  0  0  0  0  0  0
    7.3901  -15.1082   19.4317 C   0  0  0  0  0  0  0  0  0  0  0  0
    6.3211  -16.1390   20.4737 S   0  0  0  0  0  0  0  0  0  0  0  0
    7.9769  -13.8458   21.3987 C   0  0  0  0  0  0  0  0  0  0  0  0
    9.2161  -14.1016   21.5502 O   0  0  0  0  0  0  0  0  0  0  0  0
    8.3235  -12.1313   26.4415 C   0  0  0  0  0  0  0  0  0  0  0  0
    7.1449  -13.1220   26.2801 C   0  0  1  0  0  0  0  0  0  0  0  0
    6.0875  -12.6040   27.2281 C   0  0  0  0  0  0  0  0  0  0  0  0
    6.7549  -13.0634   24.8538 C   0  0  0  0  0  0  0  0  0  0  0  0
    7.6213  -13.7413   23.8552 C   0  0  2  0  0  0  0  0  0  0  0  0
    7.1229  -13.6833   22.5050 N   0  0  0  0  0  0  0  0  0  0  0  0
    7.9456  -15.1364   24.1854 C   0  0  0  0  0  0  0  0  0  0  0  0
    7.1089  -16.0385   24.0268 O   0  0  0  0  0  0  0  0  0  0  0  0
    9.2243  -15.4499   24.6883 N   0  0  0  0  0  0  0  0  0  0  0  0
    9.6790  -16.7606   25.0259 C   0  0  1  0  0  0  0  0  0  0  0  0
   10.9856  -17.0017   24.2721 C   0  0  0  0  0  0  0  0  0  0  0  0
   11.8063  -18.5076   24.8090 S   0  0  0  0  0  0  0  0  0  0  0  0
    9.9940  -16.8121   26.4658 C   0  0  0  0  0  0  0  0  0  0  0  0
   10.7191  -15.8130   27.1036 O   0  0  0  0  0  0  0  0  0  0  0  0
    9.6044  -17.7812   27.1590 O   0  0  0  0  0  0  0  0  0  0  0  0
  2  1  1  6
  2  3  1  0
  2  5  1  0
  3  4  1  0
  5  6  2  0
  8  7  1  6
  8 10  1  0
  9  8  1  0
 11 10  1  1
 12 11  1  0
 12  5  1  0
 13 11  1  0
 13 14  2  0
 15 13  1  0
 16 15  1  0
 16 19  1  0
 16 17  1  6
 18 17  1  0
 19 21  2  0
 19 20  1  0
M  END
$$$$
