CLC.pdb
     RDKit          3D

 21 20  0  0  1  0  0  0  0  0999 V2000
    8.3240  -14.7724   20.3635 N   0  0  0  0  0  0  0  0  0  0  0  0
    7.7784  -15.5303   21.4569 C   0  0  1  0  0  0  0  0  0  0  0  0
    8.1352  -16.9998   21.3479 C   0  0  0  0  0  0  0  0  0  0  0  0
    7.3148  -17.8749   22.7088 S   0  0  0  0  0  0  0  0  0  0  0  0
    8.3571  -15.0325   22.7220 C   0  0  0  0  0  0  0  0  0  0  0  0
    9.5904  -14.7139   22.7614 O   0  0  0  0  0  0  0  0  0  0  0  0
    5.4435  -12.2259   26.7150 C   0  0  0  0  0  0  0  0  0  0  0  0
    6.4734  -12.5907   25.6183 C   0  0  1  0  0  0  0  0  0  0  0  0
    7.4433  -11.4312   25.6145 C   0  0  0  0  0  0  0  0  0  0  0  0
    7.0749  -13.8770   26.0350 C   0  0  0  0  0  0  0  0  0  0  0  0
    8.0683  -14.5177   25.1351 C   0  0  2  0  0  0  0  0  0  0  0  0
    7.5356  -14.9200   23.8587 N   0  0  0  0  0  0  0  0  0  0  0  0
    8.7814  -15.6544   25.7349 C   0  0  0  0  0  0  0  0  0  0  0  0
    8.3365  -16.8082   25.6358 O   0  0  0  0  0  0  0  0  0  0  0  0
    9.9857  -15.4274   26.4309 N   0  0  0  0  0  0  0  0  0  0  0  0
   10.8489  -16.4449   26.9392 C   0  0  1  0  0  0  0  0  0  0  0  0
   12.1718  -15.7796   27.3143 C   0  0  0  0  0  0  0  0  0  0  0  0
   11.9330  -14.3685   28.4012 S   0  0  0  0  0  0  0  0  0  0  0  0
   10.2745  -16.9969   28.1804 C   0  0  0  0  0  0  0  0  0  0  0  0
   10.8952  -18.0113   28.8990 O   0  0  0  0  0  0  0  0  0  0  0  0
    9.1892  -16.5510   28.6219 O   0  0  0  0  0  0  0  0  0  0  0  0
  2  1  1  6
  2  3  1  0
  2  5  1  0
  3  4  1  0
  5  6  2  0
  8  7  1  1
  8 10  1  0
  9  8  1  0
 11 10  1  1
 12 11  1  0
 12  5  1  0
 13 11  1  0
 13 14  2  0
 15 13  1  0
 16 15  1  0
 16 19  1  0
 16 17  1  1
 18 17  1  0
 19 21  2  0
 19 20  1  0
M  END
$$$$
