CLC.pdb
     RDKit          3D

 21 20  0  0  1  0  0  0  0  0999 V2000
    8.4456  -16.8462   20.6576 N   0  0  0  0  0  0  0  0  0  0  0  0
    7.7332  -16.9744   21.9000 C   0  0  1  0  0  0  0  0  0  0  0  0
    7.9731  -18.3270   22.5417 C   0  0  0  0  0  0  0  0  0  0  0  0
    6.9905  -18.4033   24.0648 S   0  0  0  0  0  0  0  0  0  0  0  0
    8.2253  -15.9494   22.8436 C   0  0  0  0  0  0  0  0  0  0  0  0
    9.4139  -15.5068   22.7202 O   0  0  0  0  0  0  0  0  0  0  0  0
    7.4712  -11.3543   25.4726 C   0  0  0  0  0  0  0  0  0  0  0  0
    6.9451  -12.5642   26.2826 C   0  0  1  0  0  0  0  0  0  0  0  0
    5.7255  -12.0327   27.0005 C   0  0  0  0  0  0  0  0  0  0  0  0
    6.6464  -13.6207   25.2904 C   0  0  0  0  0  0  0  0  0  0  0  0
    7.7739  -14.4248   24.7523 C   0  0  2  0  0  0  0  0  0  0  0  0
    7.3721  -15.4818   23.8600 N   0  0  0  0  0  0  0  0  0  0  0  0
    8.6641  -14.9807   25.7814 C   0  0  0  0  0  0  0  0  0  0  0  0
    9.2097  -14.2430   26.6163 O   0  0  0  0  0  0  0  0  0  0  0  0
    8.8989  -16.3699   25.8173 N   0  0  0  0  0  0  0  0  0  0  0  0
    9.7577  -17.0374   26.7423 C   0  0  1  0  0  0  0  0  0  0  0  0
    8.8916  -17.5285   27.9007 C   0  0  0  0  0  0  0  0  0  0  0  0
    7.5927  -18.6407   27.3479 S   0  0  0  0  0  0  0  0  0  0  0  0
   10.3356  -18.2313   26.0972 C   0  0  0  0  0  0  0  0  0  0  0  0
   11.2902  -19.0243   26.7222 O   0  0  0  0  0  0  0  0  0  0  0  0
    9.9682  -18.5617   24.9451 O   0  0  0  0  0  0  0  0  0  0  0  0
  2  1  1  6
  2  3  1  0
  2  5  1  0
  3  4  1  0
  5  6  2  0
  8  7  1  6
  8 10  1  0
  9  8  1  0
 11 10  1  1
 12 11  1  0
 12  5  1  0
 13 11  1  0
 13 14  2  0
 15 13  1  0
 16 15  1  0
 16 19  1  0
 16 17  1  1
 18 17  1  0
 19 21  2  0
 19 20  1  0
M  END
$$$$
