CLC.pdb
     RDKit          3D

 21 20  0  0  1  0  0  0  0  0999 V2000
    6.3861  -18.5940   23.2856 N   0  0  0  0  0  0  0  0  0  0  0  0
    6.6748  -18.1179   24.6114 C   0  0  1  0  0  0  0  0  0  0  0  0
    7.3276  -19.1926   25.4584 C   0  0  0  0  0  0  0  0  0  0  0  0
    7.3403  -18.6155   27.1782 S   0  0  0  0  0  0  0  0  0  0  0  0
    7.6288  -16.9933   24.5205 C   0  0  0  0  0  0  0  0  0  0  0  0
    8.5292  -17.0100   23.6189 O   0  0  0  0  0  0  0  0  0  0  0  0
    5.9305  -12.1879   26.6321 C   0  0  0  0  0  0  0  0  0  0  0  0
    6.4631  -13.1093   25.5077 C   0  0  1  0  0  0  0  0  0  0  0  0
    6.4596  -12.2356   24.2741 C   0  0  0  0  0  0  0  0  0  0  0  0
    7.8126  -13.5388   25.9370 C   0  0  0  0  0  0  0  0  0  0  0  0
    8.3847  -14.7737   25.3412 C   0  0  2  0  0  0  0  0  0  0  0  0
    7.5247  -15.9258   25.4311 N   0  0  0  0  0  0  0  0  0  0  0  0
    9.7159  -15.1300   25.8525 C   0  0  0  0  0  0  0  0  0  0  0  0
   10.7435  -14.7338   25.2815 O   0  0  0  0  0  0  0  0  0  0  0  0
    9.8229  -15.9322   27.0064 N   0  0  0  0  0  0  0  0  0  0  0  0
   11.0412  -16.2493   27.6801 C   0  0  1  0  0  0  0  0  0  0  0  0
   10.8331  -15.9603   29.1655 C   0  0  0  0  0  0  0  0  0  0  0  0
   10.2922  -14.2711   29.4549 S   0  0  0  0  0  0  0  0  0  0  0  0
   11.3070  -17.6945   27.5532 C   0  0  0  0  0  0  0  0  0  0  0  0
   10.4858  -18.5387   26.8159 O   0  0  0  0  0  0  0  0  0  0  0  0
   12.3027  -18.2015   28.1216 O   0  0  0  0  0  0  0  0  0  0  0  0
  2  1  1  6
  2  3  1  0
  2  5  1  0
  3  4  1  0
  5  6  2  0
  8  7  1  1
  8 10  1  0
  9  8  1  0
 11 10  1  1
 12 11  1  0
 12  5  1  0
 13 11  1  0
 13 14  2  0
 15 13  1  0
 16 15  1  0
 16 19  1  0
 16 17  1  1
 18 17  1  0
 19 21  2  0
 19 20  1  0
M  END
$$$$
