CLC.pdb
     RDKit          3D

 21 20  0  0  1  0  0  0  0  0999 V2000
    6.2321  -19.2155   23.8782 N   0  0  0  0  0  0  0  0  0  0  0  0
    6.7418  -18.6364   25.0917 C   0  0  1  0  0  0  0  0  0  0  0  0
    7.8094  -19.5107   25.7196 C   0  0  0  0  0  0  0  0  0  0  0  0
    7.2774  -19.9152   27.4062 S   0  0  0  0  0  0  0  0  0  0  0  0
    7.3705  -17.3370   24.7764 C   0  0  0  0  0  0  0  0  0  0  0  0
    8.0027  -17.1996   23.6784 O   0  0  0  0  0  0  0  0  0  0  0  0
    5.4123  -12.4417   26.6734 C   0  0  0  0  0  0  0  0  0  0  0  0
    6.1110  -13.2410   25.5466 C   0  0  1  0  0  0  0  0  0  0  0  0
    6.4384  -12.2026   24.4981 C   0  0  0  0  0  0  0  0  0  0  0  0
    7.3005  -13.8658   26.1667 C   0  0  0  0  0  0  0  0  0  0  0  0
    7.9322  -15.0213   25.4789 C   0  0  2  0  0  0  0  0  0  0  0  0
    7.2593  -16.2766   25.6943 N   0  0  0  0  0  0  0  0  0  0  0  0
    9.3628  -15.1896   25.7713 C   0  0  0  0  0  0  0  0  0  0  0  0
   10.2257  -14.6830   25.0381 O   0  0  0  0  0  0  0  0  0  0  0  0
    9.7559  -15.9367   26.8999 N   0  0  0  0  0  0  0  0  0  0  0  0
   11.1015  -16.1154   27.3427 C   0  0  1  0  0  0  0  0  0  0  0  0
   11.4331  -14.9578   28.2825 C   0  0  0  0  0  0  0  0  0  0  0  0
   10.0477  -14.5338   29.3458 S   0  0  0  0  0  0  0  0  0  0  0  0
   11.1939  -17.3562   28.1346 C   0  0  0  0  0  0  0  0  0  0  0  0
   12.3795  -17.7720   28.7280 O   0  0  0  0  0  0  0  0  0  0  0  0
   10.1805  -18.0773   28.2914 O   0  0  0  0  0  0  0  0  0  0  0  0
  2  1  1  6
  2  3  1  0
  2  5  1  0
  3  4  1  0
  5  6  2  0
  8  7  1  1
  8 10  1  0
  9  8  1  0
 11 10  1  1
 12 11  1  0
 12  5  1  0
 13 11  1  0
 13 14  2  0
 15 13  1  0
 16 15  1  0
 16 19  1  0
 16 17  1  1
 18 17  1  0
 19 21  2  0
 19 20  1  0
M  END
$$$$
