TLS.pdb
     RDKit          3D

 22 21  0  0  1  0  0  0  0  0999 V2000
    6.7766  -16.6716   21.1331 C   0  0  0  0  0  0  0  0  0  0  0  0
    7.6803  -15.6940   20.4145 C   0  0  1  0  0  0  0  0  0  0  0  0
    7.2770  -15.6501   19.0821 O   0  0  0  0  0  0  0  0  0  0  0  0
    7.4613  -14.3329   21.0682 C   0  0  2  0  0  0  0  0  0  0  0  0
    8.0143  -13.3440   20.1643 N   0  0  0  0  0  0  0  0  0  0  0  0
    8.1438  -14.2651   22.3944 C   0  0  0  0  0  0  0  0  0  0  0  0
    9.3818  -14.0937   22.4969 O   0  0  0  0  0  0  0  0  0  0  0  0
    8.1363  -11.6471   26.1362 C   0  0  0  0  0  0  0  0  0  0  0  0
    6.7949  -12.2548   25.6703 C   0  0  2  0  0  0  0  0  0  0  0  0
    5.7354  -11.6915   26.5807 C   0  0  0  0  0  0  0  0  0  0  0  0
    6.9556  -13.7215   25.7675 C   0  0  0  0  0  0  0  0  0  0  0  0
    7.9862  -14.3650   24.9056 C   0  0  2  0  0  0  0  0  0  0  0  0
    7.3720  -14.3977   23.5552 N   0  0  0  0  0  0  0  0  0  0  0  0
    8.3108  -15.7551   25.2485 C   0  0  0  0  0  0  0  0  0  0  0  0
    7.4017  -16.6144   25.2937 O   0  0  0  0  0  0  0  0  0  0  0  0
   11.1376  -17.6515   23.7932 O   0  0  0  0  0  0  0  0  0  0  0  0
   11.1410  -18.0755   25.1122 C   0  0  0  0  0  0  0  0  0  0  0  0
    9.9168  -17.5913   25.8620 C   0  0  2  0  0  0  0  0  0  0  0  0
    9.6228  -16.2009   25.5375 N   0  0  0  0  0  0  0  0  0  0  0  0
   10.1910  -17.7553   27.3135 C   0  0  0  0  0  0  0  0  0  0  0  0
   10.1933  -16.7760   28.0723 O   0  0  0  0  0  0  0  0  0  0  0  0
   10.4559  -19.0092   27.8817 O   0  0  0  0  0  0  0  0  0  0  0  0
  2  4  1  0
  2  1  1  1
  3  2  1  0
  4  6  1  0
  4  5  1  6
  6  7  2  0
  9  8  1  1
  9 10  1  0
  9 11  1  0
 12 11  1  1
 12 14  1  0
 13 12  1  0
 13  6  1  0
 14 19  1  0
 14 15  2  0
 16 17  1  0
 18 17  1  6
 18 20  1  0
 19 18  1  0
 20 21  2  0
 20 22  1  0
M  END
$$$$
