TLS.pdb
     RDKit          3D

 22 21  0  0  1  0  0  0  0  0999 V2000
    6.8399  -16.7904   19.6992 C   0  0  0  0  0  0  0  0  0  0  0  0
    7.4758  -16.6956   21.0686 C   0  0  1  0  0  0  0  0  0  0  0  0
    8.6099  -17.5041   21.0622 O   0  0  0  0  0  0  0  0  0  0  0  0
    7.8791  -15.2372   21.2643 C   0  0  2  0  0  0  0  0  0  0  0  0
    8.8477  -14.9316   20.2303 N   0  0  0  0  0  0  0  0  0  0  0  0
    8.4778  -15.0290   22.6162 C   0  0  0  0  0  0  0  0  0  0  0  0
    9.7176  -14.9609   22.7907 O   0  0  0  0  0  0  0  0  0  0  0  0
    8.3033  -12.0189   26.2468 C   0  0  0  0  0  0  0  0  0  0  0  0
    6.9835  -12.5876   25.6808 C   0  0  2  0  0  0  0  0  0  0  0  0
    5.8727  -11.9498   26.4732 C   0  0  0  0  0  0  0  0  0  0  0  0
    7.0706  -14.0553   25.8385 C   0  0  0  0  0  0  0  0  0  0  0  0
    8.1487  -14.7695   25.0992 C   0  0  2  0  0  0  0  0  0  0  0  0
    7.6229  -14.9068   23.7183 N   0  0  0  0  0  0  0  0  0  0  0  0
    8.4373  -16.1295   25.5711 C   0  0  0  0  0  0  0  0  0  0  0  0
    7.4961  -16.9206   25.8058 O   0  0  0  0  0  0  0  0  0  0  0  0
   12.2271  -17.7882   25.3129 O   0  0  0  0  0  0  0  0  0  0  0  0
   11.1159  -18.6126   25.3850 C   0  0  0  0  0  0  0  0  0  0  0  0
   10.0060  -17.9901   26.2072 C   0  0  2  0  0  0  0  0  0  0  0  0
    9.7483  -16.6196   25.7823 N   0  0  0  0  0  0  0  0  0  0  0  0
   10.4275  -18.0381   27.6316 C   0  0  0  0  0  0  0  0  0  0  0  0
   10.5702  -16.9957   28.2854 O   0  0  0  0  0  0  0  0  0  0  0  0
   10.6792  -19.2497   28.2905 O   0  0  0  0  0  0  0  0  0  0  0  0
  2  4  1  0
  2  1  1  6
  3  2  1  0
  4  6  1  0
  4  5  1  6
  6  7  2  0
  9  8  1  1
  9 10  1  0
  9 11  1  0
 12 11  1  1
 12 14  1  0
 13 12  1  0
 13  6  1  0
 14 19  1  0
 14 15  2  0
 16 17  1  0
 18 17  1  6
 18 20  1  0
 19 18  1  0
 20 21  2  0
 20 22  1  0
M  END
$$$$
