TLS.pdb
     RDKit          3D

 22 21  0  0  1  0  0  0  0  0999 V2000
    6.8240  -17.4797   21.5643 C   0  0  0  0  0  0  0  0  0  0  0  0
    7.7619  -16.6372   20.7280 C   0  0  1  0  0  0  0  0  0  0  0  0
    7.3562  -16.7488   19.4003 O   0  0  0  0  0  0  0  0  0  0  0  0
    7.5970  -15.1963   21.2018 C   0  0  2  0  0  0  0  0  0  0  0  0
    8.1579  -14.3516   20.1661 N   0  0  0  0  0  0  0  0  0  0  0  0
    8.3106  -14.9779   22.4949 C   0  0  0  0  0  0  0  0  0  0  0  0
    9.5622  -14.9505   22.5670 O   0  0  0  0  0  0  0  0  0  0  0  0
    8.1209  -11.8039   25.9898 C   0  0  0  0  0  0  0  0  0  0  0  0
    6.8224  -12.5633   25.6391 C   0  0  2  0  0  0  0  0  0  0  0  0
    5.7586  -12.0338   26.5645 C   0  0  0  0  0  0  0  0  0  0  0  0
    7.1253  -13.9983   25.8271 C   0  0  0  0  0  0  0  0  0  0  0  0
    8.1951  -14.5980   24.9815 C   0  0  2  0  0  0  0  0  0  0  0  0
    7.5531  -14.7989   23.6588 N   0  0  0  0  0  0  0  0  0  0  0  0
    8.6725  -15.9165   25.4165 C   0  0  0  0  0  0  0  0  0  0  0  0
    7.8787  -16.8834   25.4602 O   0  0  0  0  0  0  0  0  0  0  0  0
   12.3665  -18.9961   25.7565 O   0  0  0  0  0  0  0  0  0  0  0  0
   11.9070  -17.7050   25.5525 C   0  0  0  0  0  0  0  0  0  0  0  0
   10.4951  -17.5217   26.0708 C   0  0  2  0  0  0  0  0  0  0  0  0
   10.0108  -16.1740   25.7986 N   0  0  0  0  0  0  0  0  0  0  0  0
   10.5186  -17.7970   27.5311 C   0  0  0  0  0  0  0  0  0  0  0  0
   10.3163  -16.8897   28.3500 O   0  0  0  0  0  0  0  0  0  0  0  0
   10.7674  -19.0791   28.0407 O   0  0  0  0  0  0  0  0  0  0  0  0
  2  4  1  0
  2  1  1  1
  3  2  1  0
  4  6  1  0
  4  5  1  6
  6  7  2  0
  9  8  1  1
  9 10  1  0
  9 11  1  0
 12 11  1  1
 12 14  1  0
 13 12  1  0
 13  6  1  0
 14 19  1  0
 14 15  2  0
 16 17  1  0
 18 17  1  1
 18 20  1  0
 19 18  1  0
 20 21  2  0
 20 22  1  0
M  END
$$$$
