TLS.pdb
     RDKit          3D

 22 21  0  0  1  0  0  0  0  0999 V2000
    7.2131  -17.9796   20.4261 C   0  0  0  0  0  0  0  0  0  0  0  0
    7.6629  -17.3883   21.7440 C   0  0  1  0  0  0  0  0  0  0  0  0
    8.8014  -18.0810   22.1486 O   0  0  0  0  0  0  0  0  0  0  0  0
    8.0127  -15.9282   21.4725 C   0  0  2  0  0  0  0  0  0  0  0  0
    9.0509  -15.9308   20.4611 N   0  0  0  0  0  0  0  0  0  0  0  0
    8.4987  -15.2590   22.7156 C   0  0  0  0  0  0  0  0  0  0  0  0
    9.7175  -15.1969   23.0040 O   0  0  0  0  0  0  0  0  0  0  0  0
    5.3750  -12.1291   26.9082 C   0  0  0  0  0  0  0  0  0  0  0  0
    6.8095  -12.6222   26.6165 C   0  0  2  0  0  0  0  0  0  0  0  0
    7.6826  -11.3952   26.5918 C   0  0  0  0  0  0  0  0  0  0  0  0
    6.7400  -13.3388   25.3249 C   0  0  0  0  0  0  0  0  0  0  0  0
    7.9673  -14.0391   24.8534 C   0  0  2  0  0  0  0  0  0  0  0  0
    7.5596  -14.6852   23.5812 N   0  0  0  0  0  0  0  0  0  0  0  0
    8.4513  -15.1136   25.7290 C   0  0  0  0  0  0  0  0  0  0  0  0
    9.2647  -14.8530   26.6440 O   0  0  0  0  0  0  0  0  0  0  0  0
    7.4376  -19.1421   25.1475 O   0  0  0  0  0  0  0  0  0  0  0  0
    7.5271  -18.7005   26.4576 C   0  0  0  0  0  0  0  0  0  0  0  0
    8.4166  -17.4801   26.5806 C   0  0  2  0  0  0  0  0  0  0  0  0
    8.0450  -16.4637   25.6040 N   0  0  0  0  0  0  0  0  0  0  0  0
    9.8185  -17.9298   26.3775 C   0  0  0  0  0  0  0  0  0  0  0  0
   10.4851  -17.5127   25.4204 O   0  0  0  0  0  0  0  0  0  0  0  0
   10.4413  -18.8344   27.2488 O   0  0  0  0  0  0  0  0  0  0  0  0
  2  4  1  0
  2  1  1  6
  3  2  1  0
  4  6  1  0
  4  5  1  6
  6  7  2  0
  9  8  1  6
  9 10  1  0
  9 11  1  0
 12 11  1  1
 12 14  1  0
 13 12  1  0
 13  6  1  0
 14 19  1  0
 14 15  2  0
 16 17  1  0
 18 17  1  6
 18 20  1  0
 19 18  1  0
 20 21  2  0
 20 22  1  0
M  END
$$$$
