TLS.pdb
     RDKit          3D

 22 21  0  0  1  0  0  0  0  0999 V2000
    6.1377  -18.9151   21.7908 C   0  0  0  0  0  0  0  0  0  0  0  0
    6.9992  -17.9798   22.6104 C   0  0  1  0  0  0  0  0  0  0  0  0
    8.3300  -18.2771   22.3266 O   0  0  0  0  0  0  0  0  0  0  0  0
    6.6733  -16.5635   22.1458 C   0  0  2  0  0  0  0  0  0  0  0  0
    7.0465  -16.4888   20.7473 N   0  0  0  0  0  0  0  0  0  0  0  0
    7.4340  -15.5554   22.9421 C   0  0  0  0  0  0  0  0  0  0  0  0
    8.5271  -15.0844   22.5477 O   0  0  0  0  0  0  0  0  0  0  0  0
    7.7258  -11.5070   25.6203 C   0  0  0  0  0  0  0  0  0  0  0  0
    6.3496  -12.1512   25.8976 C   0  0  2  0  0  0  0  0  0  0  0  0
    5.8669  -11.5746   27.2026 C   0  0  0  0  0  0  0  0  0  0  0  0
    6.5819  -13.6110   25.9327 C   0  0  0  0  0  0  0  0  0  0  0  0
    7.6315  -14.1682   25.0344 C   0  0  2  0  0  0  0  0  0  0  0  0
    6.9050  -15.1272   24.1658 N   0  0  0  0  0  0  0  0  0  0  0  0
    8.6890  -14.9340   25.7057 C   0  0  0  0  0  0  0  0  0  0  0  0
    9.4787  -14.3548   26.4852 O   0  0  0  0  0  0  0  0  0  0  0  0
    8.8036  -19.0243   25.4334 O   0  0  0  0  0  0  0  0  0  0  0  0
    9.5483  -18.4840   26.4693 C   0  0  0  0  0  0  0  0  0  0  0  0
    9.9568  -17.0536   26.1822 C   0  0  2  0  0  0  0  0  0  0  0  0
    8.8781  -16.3252   25.5257 N   0  0  0  0  0  0  0  0  0  0  0  0
   11.1694  -17.1015   25.3242 C   0  0  0  0  0  0  0  0  0  0  0  0
   11.1668  -16.5921   24.1949 O   0  0  0  0  0  0  0  0  0  0  0  0
   12.3551  -17.7172   25.7488 O   0  0  0  0  0  0  0  0  0  0  0  0
  2  4  1  0
  2  1  1  6
  3  2  1  0
  4  6  1  0
  4  5  1  6
  6  7  2  0
  9  8  1  1
  9 10  1  0
  9 11  1  0
 12 11  1  1
 12 14  1  0
 13 12  1  0
 13  6  1  0
 14 19  1  0
 14 15  2  0
 16 17  1  0
 18 17  1  6
 18 20  1  0
 19 18  1  0
 20 21  2  0
 20 22  1  0
M  END
$$$$
