TLS.pdb
     RDKit          3D

 22 21  0  0  1  0  0  0  0  0999 V2000
    6.5045  -16.7797   19.2442 C   0  0  0  0  0  0  0  0  0  0  0  0
    7.0644  -16.6065   20.6389 C   0  0  1  0  0  0  0  0  0  0  0  0
    8.0522  -17.5719   20.8181 O   0  0  0  0  0  0  0  0  0  0  0  0
    7.6844  -15.2134   20.6923 C   0  0  2  0  0  0  0  0  0  0  0  0
    8.7147  -15.1778   19.6736 N   0  0  0  0  0  0  0  0  0  0  0  0
    8.2733  -14.9458   22.0380 C   0  0  0  0  0  0  0  0  0  0  0  0
    9.4933  -15.1131   22.2747 O   0  0  0  0  0  0  0  0  0  0  0  0
    5.7997  -12.1237   26.8156 C   0  0  0  0  0  0  0  0  0  0  0  0
    7.0561  -12.9438   26.4484 C   0  0  2  0  0  0  0  0  0  0  0  0
    8.2386  -12.0492   26.7131 C   0  0  0  0  0  0  0  0  0  0  0  0
    6.8943  -13.3249   25.0289 C   0  0  0  0  0  0  0  0  0  0  0  0
    7.9557  -14.1685   24.4119 C   0  0  2  0  0  0  0  0  0  0  0  0
    7.4321  -14.4945   23.0622 N   0  0  0  0  0  0  0  0  0  0  0  0
    8.2055  -15.4508   25.0818 C   0  0  0  0  0  0  0  0  0  0  0  0
    7.2706  -16.2702   25.2276 O   0  0  0  0  0  0  0  0  0  0  0  0
   11.8515  -17.1617   25.0440 O   0  0  0  0  0  0  0  0  0  0  0  0
   10.7237  -17.9206   25.3121 C   0  0  0  0  0  0  0  0  0  0  0  0
    9.7166  -17.1563   26.1470 C   0  0  2  0  0  0  0  0  0  0  0  0
    9.4715  -15.8333   25.5863 N   0  0  0  0  0  0  0  0  0  0  0  0
   10.2640  -17.0600   27.5254 C   0  0  0  0  0  0  0  0  0  0  0  0
   10.4876  -15.9567   28.0425 O   0  0  0  0  0  0  0  0  0  0  0  0
   10.5482  -18.1986   28.2923 O   0  0  0  0  0  0  0  0  0  0  0  0
  2  4  1  0
  2  1  1  6
  3  2  1  0
  4  6  1  0
  4  5  1  6
  6  7  2  0
  9  8  1  6
  9 10  1  0
  9 11  1  0
 12 11  1  1
 12 14  1  0
 13 12  1  0
 13  6  1  0
 14 19  1  0
 14 15  2  0
 16 17  1  0
 18 17  1  6
 18 20  1  0
 19 18  1  0
 20 21  2  0
 20 22  1  0
M  END
$$$$
