TLS.pdb
     RDKit          3D

 22 21  0  0  1  0  0  0  0  0999 V2000
    6.6606  -17.5279   21.4922 C   0  0  0  0  0  0  0  0  0  0  0  0
    7.6233  -16.9074   20.5038 C   0  0  1  0  0  0  0  0  0  0  0  0
    7.1718  -17.2208   19.2240 O   0  0  0  0  0  0  0  0  0  0  0  0
    7.5621  -15.3984   20.7209 C   0  0  2  0  0  0  0  0  0  0  0  0
    8.2354  -14.7886   19.5914 N   0  0  0  0  0  0  0  0  0  0  0  0
    8.2375  -15.0180   21.9969 C   0  0  0  0  0  0  0  0  0  0  0  0
    9.4865  -14.9823   22.1029 O   0  0  0  0  0  0  0  0  0  0  0  0
    5.9636  -12.2794   26.8909 C   0  0  0  0  0  0  0  0  0  0  0  0
    7.2515  -13.0038   26.4410 C   0  0  2  0  0  0  0  0  0  0  0  0
    8.3671  -11.9992   26.5616 C   0  0  0  0  0  0  0  0  0  0  0  0
    7.0000  -13.4624   25.0580 C   0  0  0  0  0  0  0  0  0  0  0  0
    8.0489  -14.2907   24.4003 C   0  0  2  0  0  0  0  0  0  0  0  0
    7.4462  -14.6922   23.1051 N   0  0  0  0  0  0  0  0  0  0  0  0
    8.3962  -15.5337   25.1002 C   0  0  0  0  0  0  0  0  0  0  0  0
    7.4989  -16.3564   25.3916 O   0  0  0  0  0  0  0  0  0  0  0  0
   12.3298  -16.8961   25.3447 O   0  0  0  0  0  0  0  0  0  0  0  0
   11.2590  -17.7748   25.3726 C   0  0  0  0  0  0  0  0  0  0  0  0
   10.0512  -17.1684   26.0573 C   0  0  2  0  0  0  0  0  0  0  0  0
    9.7178  -15.8737   25.4761 N   0  0  0  0  0  0  0  0  0  0  0  0
   10.3777  -17.0383   27.5014 C   0  0  0  0  0  0  0  0  0  0  0  0
   10.3529  -15.9325   28.0593 O   0  0  0  0  0  0  0  0  0  0  0  0
   10.7240  -18.1467   28.2867 O   0  0  0  0  0  0  0  0  0  0  0  0
  2  4  1  0
  2  1  1  1
  3  2  1  0
  4  6  1  0
  4  5  1  6
  6  7  2  0
  9  8  1  6
  9 10  1  0
  9 11  1  0
 12 11  1  1
 12 14  1  0
 13 12  1  0
 13  6  1  0
 14 19  1  0
 14 15  2  0
 16 17  1  0
 18 17  1  6
 18 20  1  0
 19 18  1  0
 20 21  2  0
 20 22  1  0
M  END
$$$$
