TLS.pdb
     RDKit          3D

 22 21  0  0  1  0  0  0  0  0999 V2000
    6.6489  -16.5114   19.7406 C   0  0  0  0  0  0  0  0  0  0  0  0
    7.2757  -16.4903   21.1173 C   0  0  1  0  0  0  0  0  0  0  0  0
    8.3456  -17.3820   21.1057 O   0  0  0  0  0  0  0  0  0  0  0  0
    7.7858  -15.0705   21.3449 C   0  0  2  0  0  0  0  0  0  0  0  0
    8.7789  -14.8165   20.3202 N   0  0  0  0  0  0  0  0  0  0  0  0
    8.3924  -14.9357   22.7025 C   0  0  0  0  0  0  0  0  0  0  0  0
    9.6284  -15.0315   22.8907 O   0  0  0  0  0  0  0  0  0  0  0  0
    8.0030  -11.6634   26.0561 C   0  0  0  0  0  0  0  0  0  0  0  0
    6.7298  -12.4230   25.6227 C   0  0  2  0  0  0  0  0  0  0  0  0
    5.5927  -11.8297   26.4124 C   0  0  0  0  0  0  0  0  0  0  0  0
    6.9865  -13.8497   25.9142 C   0  0  0  0  0  0  0  0  0  0  0  0
    8.0854  -14.5234   25.1675 C   0  0  2  0  0  0  0  0  0  0  0  0
    7.5496  -14.6950   23.7944 N   0  0  0  0  0  0  0  0  0  0  0  0
    8.4378  -15.8656   25.6470 C   0  0  0  0  0  0  0  0  0  0  0  0
    7.5549  -16.7489   25.7314 O   0  0  0  0  0  0  0  0  0  0  0  0
   12.2904  -17.2485   25.5421 O   0  0  0  0  0  0  0  0  0  0  0  0
   11.2312  -18.1398   25.5992 C   0  0  0  0  0  0  0  0  0  0  0  0
   10.0846  -17.5988   26.4286 C   0  0  2  0  0  0  0  0  0  0  0  0
    9.7489  -16.2377   26.0290 N   0  0  0  0  0  0  0  0  0  0  0  0
   10.5041  -17.6499   27.8535 C   0  0  0  0  0  0  0  0  0  0  0  0
   10.8269  -18.7235   28.3807 O   0  0  0  0  0  0  0  0  0  0  0  0
   10.5526  -16.5004   28.6545 O   0  0  0  0  0  0  0  0  0  0  0  0
  2  4  1  0
  2  1  1  6
  3  2  1  0
  4  6  1  0
  4  5  1  6
  6  7  2  0
  9  8  1  1
  9 10  1  0
  9 11  1  0
 12 11  1  1
 12 14  1  0
 13 12  1  0
 13  6  1  0
 14 19  1  0
 14 15  2  0
 16 17  1  0
 18 17  1  6
 18 20  1  0
 19 18  1  0
 20 21  2  0
 20 22  1  0
M  END
$$$$
