TLS.pdb
     RDKit          3D

 22 21  0  0  1  0  0  0  0  0999 V2000
    7.0494  -17.4349   21.5864 C   0  0  0  0  0  0  0  0  0  0  0  0
    7.7166  -16.4238   20.6801 C   0  0  1  0  0  0  0  0  0  0  0  0
    7.1853  -16.5888   19.4032 O   0  0  0  0  0  0  0  0  0  0  0  0
    7.3520  -15.0440   21.2197 C   0  0  2  0  0  0  0  0  0  0  0  0
    7.7112  -14.0876   20.1915 N   0  0  0  0  0  0  0  0  0  0  0  0
    8.0947  -14.7546   22.4821 C   0  0  0  0  0  0  0  0  0  0  0  0
    9.3246  -14.5103   22.4887 O   0  0  0  0  0  0  0  0  0  0  0  0
    7.9940  -11.7072   25.8284 C   0  0  0  0  0  0  0  0  0  0  0  0
    6.6948  -12.5133   25.6092 C   0  0  2  0  0  0  0  0  0  0  0  0
    5.6791  -11.9494   26.5678 C   0  0  0  0  0  0  0  0  0  0  0  0
    7.0440  -13.9274   25.8638 C   0  0  0  0  0  0  0  0  0  0  0  0
    8.0763  -14.5547   24.9922 C   0  0  2  0  0  0  0  0  0  0  0  0
    7.3902  -14.7575   23.6922 N   0  0  0  0  0  0  0  0  0  0  0  0
    8.5437  -15.8770   25.4264 C   0  0  0  0  0  0  0  0  0  0  0  0
    7.7137  -16.7530   25.7591 O   0  0  0  0  0  0  0  0  0  0  0  0
   12.5924  -16.9119   25.3634 O   0  0  0  0  0  0  0  0  0  0  0  0
   11.6623  -17.9322   25.2472 C   0  0  0  0  0  0  0  0  0  0  0  0
   10.3440  -17.5688   25.8996 C   0  0  2  0  0  0  0  0  0  0  0  0
    9.9108  -16.2375   25.4933 N   0  0  0  0  0  0  0  0  0  0  0  0
   10.5413  -17.6413   27.3709 C   0  0  0  0  0  0  0  0  0  0  0  0
   10.3815  -16.6392   28.0814 O   0  0  0  0  0  0  0  0  0  0  0  0
   10.9123  -18.8314   28.0121 O   0  0  0  0  0  0  0  0  0  0  0  0
  2  4  1  0
  2  1  1  1
  3  2  1  0
  4  6  1  0
  4  5  1  6
  6  7  2  0
  9  8  1  1
  9 10  1  0
  9 11  1  0
 12 11  1  1
 12 14  1  0
 13 12  1  0
 13  6  1  0
 14 19  1  0
 14 15  2  0
 16 17  1  0
 18 17  1  6
 18 20  1  0
 19 18  1  0
 20 21  2  0
 20 22  1  0
M  END
$$$$
