TLS.pdb
     RDKit          3D

 22 21  0  0  1  0  0  0  0  0999 V2000
    6.7055  -17.3753   21.1333 C   0  0  0  0  0  0  0  0  0  0  0  0
    7.7512  -16.7001   20.2734 C   0  0  1  0  0  0  0  0  0  0  0  0
    7.4183  -16.9383   18.9422 O   0  0  0  0  0  0  0  0  0  0  0  0
    7.6651  -15.2061   20.5707 C   0  0  2  0  0  0  0  0  0  0  0  0
    8.3791  -14.5289   19.5067 N   0  0  0  0  0  0  0  0  0  0  0  0
    8.2818  -14.8918   21.8936 C   0  0  0  0  0  0  0  0  0  0  0  0
    9.5231  -14.9130   22.0702 O   0  0  0  0  0  0  0  0  0  0  0  0
    5.7733  -12.2978   26.7675 C   0  0  0  0  0  0  0  0  0  0  0  0
    7.0839  -12.9999   26.3487 C   0  0  2  0  0  0  0  0  0  0  0  0
    8.1845  -11.9886   26.5341 C   0  0  0  0  0  0  0  0  0  0  0  0
    6.8879  -13.4275   24.9468 C   0  0  0  0  0  0  0  0  0  0  0  0
    7.9879  -14.1913   24.2944 C   0  0  2  0  0  0  0  0  0  0  0  0
    7.4427  -14.5642   22.9656 N   0  0  0  0  0  0  0  0  0  0  0  0
    8.3588  -15.4469   24.9588 C   0  0  0  0  0  0  0  0  0  0  0  0
    7.5028  -16.3471   25.1125 O   0  0  0  0  0  0  0  0  0  0  0  0
   11.2554  -17.6946   24.1504 O   0  0  0  0  0  0  0  0  0  0  0  0
   11.3105  -17.5225   25.5240 C   0  0  0  0  0  0  0  0  0  0  0  0
   10.0065  -16.9841   26.0764 C   0  0  2  0  0  0  0  0  0  0  0  0
    9.6593  -15.7148   25.4492 N   0  0  0  0  0  0  0  0  0  0  0  0
   10.1771  -16.8264   27.5443 C   0  0  0  0  0  0  0  0  0  0  0  0
   10.0788  -15.7125   28.0774 O   0  0  0  0  0  0  0  0  0  0  0  0
   10.4534  -17.9170   28.3807 O   0  0  0  0  0  0  0  0  0  0  0  0
  2  4  1  0
  2  1  1  1
  3  2  1  0
  4  6  1  0
  4  5  1  6
  6  7  2  0
  9  8  1  6
  9 10  1  0
  9 11  1  0
 12 11  1  1
 12 14  1  0
 13 12  1  0
 13  6  1  0
 14 19  1  0
 14 15  2  0
 16 17  1  0
 18 17  1  6
 18 20  1  0
 19 18  1  0
 20 21  2  0
 20 22  1  0
M  END
$$$$
