TLS.pdb
     RDKit          3D

 22 21  0  0  1  0  0  0  0  0999 V2000
    6.9798  -17.2414   19.4315 C   0  0  0  0  0  0  0  0  0  0  0  0
    7.5438  -16.9408   20.8027 C   0  0  1  0  0  0  0  0  0  0  0  0
    8.6439  -17.7729   20.9963 O   0  0  0  0  0  0  0  0  0  0  0  0
    7.9931  -15.4828   20.7818 C   0  0  2  0  0  0  0  0  0  0  0  0
    9.0291  -15.3818   19.7732 N   0  0  0  0  0  0  0  0  0  0  0  0
    8.5232  -15.0716   22.1156 C   0  0  0  0  0  0  0  0  0  0  0  0
    9.7335  -15.1992   22.4179 O   0  0  0  0  0  0  0  0  0  0  0  0
    5.7101  -12.2487   26.7224 C   0  0  0  0  0  0  0  0  0  0  0  0
    7.0128  -13.0226   26.4229 C   0  0  2  0  0  0  0  0  0  0  0  0
    8.1468  -12.0920   26.7644 C   0  0  0  0  0  0  0  0  0  0  0  0
    6.9474  -13.3939   24.9931 C   0  0  0  0  0  0  0  0  0  0  0  0
    8.0696  -14.1979   24.4332 C   0  0  2  0  0  0  0  0  0  0  0  0
    7.6365  -14.5276   23.0527 N   0  0  0  0  0  0  0  0  0  0  0  0
    8.3207  -15.4779   25.1071 C   0  0  0  0  0  0  0  0  0  0  0  0
    7.4291  -16.3562   25.1287 O   0  0  0  0  0  0  0  0  0  0  0  0
   11.2793  -19.0218   26.0240 O   0  0  0  0  0  0  0  0  0  0  0  0
   10.9672  -17.7714   25.5153 C   0  0  0  0  0  0  0  0  0  0  0  0
    9.8228  -17.1265   26.2701 C   0  0  2  0  0  0  0  0  0  0  0  0
    9.5411  -15.7939   25.7507 N   0  0  0  0  0  0  0  0  0  0  0  0
   10.2113  -17.0707   27.7036 C   0  0  0  0  0  0  0  0  0  0  0  0
   10.3802  -15.9831   28.2722 O   0  0  0  0  0  0  0  0  0  0  0  0
   10.4017  -18.2313   28.4666 O   0  0  0  0  0  0  0  0  0  0  0  0
  2  4  1  0
  2  1  1  6
  3  2  1  0
  4  6  1  0
  4  5  1  6
  6  7  2  0
  9  8  1  6
  9 10  1  0
  9 11  1  0
 12 11  1  1
 12 14  1  0
 13 12  1  0
 13  6  1  0
 14 19  1  0
 14 15  2  0
 16 17  1  0
 18 17  1  6
 18 20  1  0
 19 18  1  0
 20 21  2  0
 20 22  1  0
M  END
$$$$
