TLS.pdb
     RDKit          3D

 22 21  0  0  1  0  0  0  0  0999 V2000
    6.9813  -17.1397   19.4098 C   0  0  0  0  0  0  0  0  0  0  0  0
    7.4594  -16.8051   20.8056 C   0  0  1  0  0  0  0  0  0  0  0  0
    8.5429  -17.6333   21.0885 O   0  0  0  0  0  0  0  0  0  0  0  0
    7.9131  -15.3487   20.7760 C   0  0  2  0  0  0  0  0  0  0  0  0
    8.9309  -15.2513   19.7487 N   0  0  0  0  0  0  0  0  0  0  0  0
    8.4688  -14.9389   22.0998 C   0  0  0  0  0  0  0  0  0  0  0  0
    9.6982  -14.9747   22.3444 O   0  0  0  0  0  0  0  0  0  0  0  0
    5.8829  -12.0302   26.7519 C   0  0  0  0  0  0  0  0  0  0  0  0
    7.1370  -12.8754   26.4378 C   0  0  2  0  0  0  0  0  0  0  0  0
    8.3237  -11.9827   26.6895 C   0  0  0  0  0  0  0  0  0  0  0  0
    6.9957  -13.3081   25.0309 C   0  0  0  0  0  0  0  0  0  0  0  0
    8.0502  -14.1982   24.4698 C   0  0  2  0  0  0  0  0  0  0  0  0
    7.5848  -14.5025   23.0940 N   0  0  0  0  0  0  0  0  0  0  0  0
    8.2077  -15.4895   25.1504 C   0  0  0  0  0  0  0  0  0  0  0  0
    7.2329  -16.2696   25.2404 O   0  0  0  0  0  0  0  0  0  0  0  0
   11.7195  -17.3831   25.2108 O   0  0  0  0  0  0  0  0  0  0  0  0
   10.5572  -18.0833   25.4903 C   0  0  0  0  0  0  0  0  0  0  0  0
    9.5820  -17.2543   26.3010 C   0  0  2  0  0  0  0  0  0  0  0  0
    9.4256  -15.9238   25.7264 N   0  0  0  0  0  0  0  0  0  0  0  0
   10.1090  -17.1792   27.6886 C   0  0  0  0  0  0  0  0  0  0  0  0
   10.3513  -16.0846   28.2157 O   0  0  0  0  0  0  0  0  0  0  0  0
   10.3525  -18.3287   28.4532 O   0  0  0  0  0  0  0  0  0  0  0  0
  2  4  1  0
  2  1  1  6
  3  2  1  0
  4  6  1  0
  4  5  1  6
  6  7  2  0
  9  8  1  6
  9 10  1  0
  9 11  1  0
 12 11  1  1
 12 14  1  0
 13 12  1  0
 13  6  1  0
 14 19  1  0
 14 15  2  0
 16 17  1  0
 18 17  1  6
 18 20  1  0
 19 18  1  0
 20 21  2  0
 20 22  1  0
M  END
$$$$
