TLS.pdb
     RDKit          3D

 22 21  0  0  1  0  0  0  0  0999 V2000
    8.7913  -15.9115   20.0206 C   0  0  0  0  0  0  0  0  0  0  0  0
    7.3442  -15.4999   20.1795 C   0  0  1  0  0  0  0  0  0  0  0  0
    6.7398  -16.4127   21.0406 O   0  0  0  0  0  0  0  0  0  0  0  0
    7.3503  -14.1127   20.8146 C   0  0  2  0  0  0  0  0  0  0  0  0
    8.0295  -13.2329   19.8843 N   0  0  0  0  0  0  0  0  0  0  0  0
    8.0625  -14.1328   22.1266 C   0  0  0  0  0  0  0  0  0  0  0  0
    9.3120  -14.0620   22.2058 O   0  0  0  0  0  0  0  0  0  0  0  0
    8.1025  -11.7246   26.2521 C   0  0  0  0  0  0  0  0  0  0  0  0
    6.7656  -12.2272   25.6640 C   0  0  2  0  0  0  0  0  0  0  0  0
    5.6881  -11.7770   26.6153 C   0  0  0  0  0  0  0  0  0  0  0  0
    6.8955  -13.6958   25.5516 C   0  0  0  0  0  0  0  0  0  0  0  0
    7.9449  -14.2316   24.6400 C   0  0  2  0  0  0  0  0  0  0  0  0
    7.3062  -14.2340   23.3006 N   0  0  0  0  0  0  0  0  0  0  0  0
    8.3590  -15.6149   24.9056 C   0  0  0  0  0  0  0  0  0  0  0  0
    7.4942  -16.5113   25.0296 O   0  0  0  0  0  0  0  0  0  0  0  0
   12.3096  -16.7939   24.4898 O   0  0  0  0  0  0  0  0  0  0  0  0
   11.3081  -17.7412   24.3504 C   0  0  0  0  0  0  0  0  0  0  0  0
   10.0974  -17.4090   25.1986 C   0  0  2  0  0  0  0  0  0  0  0  0
    9.7113  -16.0132   25.0319 N   0  0  0  0  0  0  0  0  0  0  0  0
   10.4515  -17.7009   26.6122 C   0  0  0  0  0  0  0  0  0  0  0  0
   10.3952  -16.8142   27.4753 O   0  0  0  0  0  0  0  0  0  0  0  0
   10.8597  -18.9764   27.0267 O   0  0  0  0  0  0  0  0  0  0  0  0
  2  4  1  0
  2  1  1  1
  3  2  1  0
  4  6  1  0
  4  5  1  6
  6  7  2  0
  9  8  1  1
  9 10  1  0
  9 11  1  0
 12 11  1  1
 12 14  1  0
 13 12  1  0
 13  6  1  0
 14 19  1  0
 14 15  2  0
 16 17  1  0
 18 17  1  6
 18 20  1  0
 19 18  1  0
 20 21  2  0
 20 22  1  0
M  END
$$$$
