NPM.pdb
     RDKit          3D

 24 24  0  0  1  0  0  0  0  0999 V2000
   16.6859  -14.4292  -17.4928 N   0  0  0  0  0  0  0  0  0  0  0  0
   16.7165  -13.3069  -18.3361 C   0  0  0  0  0  0  0  0  0  0  0  0
   15.8342  -13.1807  -19.2163 O   0  0  0  0  0  0  0  0  0  0  0  0
   17.7549  -12.2842  -18.2113 C   0  0  0  0  0  0  0  0  0  0  0  0
   18.6077  -12.0725  -19.4311 C   0  0  2  0  0  0  0  0  0  0  0  0
   19.3865  -13.2358  -19.7852 N   0  0  0  0  0  0  0  0  0  0  0  0
   19.5146  -10.9021  -19.2494 C   0  0  0  0  0  0  0  0  0  0  0  0
   20.7071  -11.2585  -18.8985 O   0  0  0  0  0  0  0  0  0  0  0  0
   19.1855   -9.5495  -19.4181 N   0  0  0  0  0  0  0  0  0  0  0  0
   17.9528   -8.9615  -19.7807 C   0  0  0  0  0  0  0  0  0  0  0  0
   18.3440   -7.7698  -20.6432 C   0  0  0  0  0  0  0  0  0  0  0  0
   19.7970   -7.5347  -20.3264 C   0  0  0  0  0  0  0  0  0  0  0  0
   20.1253   -8.4687  -19.1908 C   0  0  1  0  0  0  0  0  0  0  0  0
   19.8148   -7.8882  -17.8492 C   0  0  0  0  0  0  0  0  0  0  0  0
   18.6226   -7.8728  -17.3844 O   0  0  0  0  0  0  0  0  0  0  0  0
   22.0922   -9.5197  -10.7746 C   0  0  0  0  0  0  0  0  0  0  0  0
   22.4962   -9.2834  -12.5048 S   0  0  0  0  0  0  0  0  0  0  0  0
   21.3799   -8.1367  -13.3521 C   0  0  0  0  0  0  0  0  0  0  0  0
   21.5170   -8.2358  -14.8412 C   0  0  0  0  0  0  0  0  0  0  0  0
   20.6080   -7.2741  -15.5685 C   0  0  2  0  0  0  0  0  0  0  0  0
   20.8034   -7.3141  -16.9955 N   0  0  0  0  0  0  0  0  0  0  0  0
   20.9531   -5.8893  -15.0930 C   0  0  0  0  0  0  0  0  0  0  0  0
   20.4242   -5.4681  -13.8881 O   0  0  0  0  0  0  0  0  0  0  0  0
   21.6887   -5.1311  -15.7460 O   0  0  0  0  0  0  0  0  0  0  0  0
  2  3  2  0
  2  1  1  0
  4  2  1  0
  5  7  1  0
  5  4  1  0
  5  6  1  1
  7  8  2  0
  9  7  1  0
 10  9  1  0
 11 12  1  0
 11 10  1  0
 12 13  1  0
 13  9  1  0
 13 14  1  1
 14 21  1  0
 15 14  2  0
 17 16  1  0
 18 19  1  0
 18 17  1  0
 20 19  1  1
 20 22  1  0
 21 20  1  0
 22 24  2  0
 22 23  1  0
M  END
$$$$
