NPM.pdb
     RDKit          3D

 24 24  0  0  1  0  0  0  0  0999 V2000
   27.3257  -18.1749  -18.9538 N   0  0  0  0  0  0  0  0  0  0  0  0
   26.4738  -17.8221  -17.8949 C   0  0  0  0  0  0  0  0  0  0  0  0
   25.8785  -16.7205  -17.9316 O   0  0  0  0  0  0  0  0  0  0  0  0
   26.2672  -18.7098  -16.7507 C   0  0  0  0  0  0  0  0  0  0  0  0
   27.0624  -19.9855  -16.7668 C   0  0  2  0  0  0  0  0  0  0  0  0
   26.6668  -20.8850  -17.8249 N   0  0  0  0  0  0  0  0  0  0  0  0
   26.9675  -20.6879  -15.4543 C   0  0  0  0  0  0  0  0  0  0  0  0
   26.1499  -21.6890  -15.4943 O   0  0  0  0  0  0  0  0  0  0  0  0
   27.6496  -20.3597  -14.2739 N   0  0  0  0  0  0  0  0  0  0  0  0
   28.4658  -19.2424  -13.9870 C   0  0  0  0  0  0  0  0  0  0  0  0
   29.5589  -19.7971  -13.0845 C   0  0  0  0  0  0  0  0  0  0  0  0
   29.0072  -21.1051  -12.5828 C   0  0  0  0  0  0  0  0  0  0  0  0
   27.5819  -21.1618  -13.0676 C   0  0  1  0  0  0  0  0  0  0  0  0
   26.6231  -20.4864  -12.1413 C   0  0  0  0  0  0  0  0  0  0  0  0
   26.5902  -19.2127  -12.0214 O   0  0  0  0  0  0  0  0  0  0  0  0
   20.1041  -20.6261  -12.0588 C   0  0  0  0  0  0  0  0  0  0  0  0
   21.5072  -21.3666  -12.8929 S   0  0  0  0  0  0  0  0  0  0  0  0
   23.0959  -20.6553  -12.3935 C   0  0  0  0  0  0  0  0  0  0  0  0
   23.3093  -20.7716  -10.9147 C   0  0  0  0  0  0  0  0  0  0  0  0
   24.7361  -20.4816  -10.5143 C   0  0  2  0  0  0  0  0  0  0  0  0
   25.6860  -21.1939  -11.3306 N   0  0  0  0  0  0  0  0  0  0  0  0
   24.9039  -20.9493   -9.0945 C   0  0  0  0  0  0  0  0  0  0  0  0
   25.7333  -22.0297   -8.8626 O   0  0  0  0  0  0  0  0  0  0  0  0
   24.3255  -20.3966   -8.1445 O   0  0  0  0  0  0  0  0  0  0  0  0
  2  3  2  0
  2  1  1  0
  4  2  1  0
  5  7  1  0
  5  4  1  0
  5  6  1  6
  7  8  2  0
  9  7  1  0
 10  9  1  0
 11 12  1  0
 11 10  1  0
 12 13  1  0
 13  9  1  0
 13 14  1  1
 14 21  1  0
 15 14  2  0
 17 16  1  0
 18 19  1  0
 18 17  1  0
 20 19  1  6
 20 22  1  0
 21 20  1  0
 22 24  2  0
 22 23  1  0
M  END
$$$$
