NPM.pdb
     RDKit          3D

 24 24  0  0  1  0  0  0  0  0999 V2000
   24.0616  -23.0456  -18.4391 N   0  0  0  0  0  0  0  0  0  0  0  0
   23.5650  -23.0096  -17.1262 C   0  0  0  0  0  0  0  0  0  0  0  0
   22.3679  -23.3144  -16.9180 O   0  0  0  0  0  0  0  0  0  0  0  0
   24.4122  -22.6233  -15.9981 C   0  0  0  0  0  0  0  0  0  0  0  0
   25.8381  -22.2921  -16.3403 C   0  0  2  0  0  0  0  0  0  0  0  0
   26.5456  -23.3965  -16.9445 N   0  0  0  0  0  0  0  0  0  0  0  0
   26.5801  -21.8255  -15.1334 C   0  0  0  0  0  0  0  0  0  0  0  0
   27.4469  -22.6948  -14.7269 O   0  0  0  0  0  0  0  0  0  0  0  0
   26.4120  -20.6056  -14.4627 N   0  0  0  0  0  0  0  0  0  0  0  0
   25.4683  -19.5779  -14.6866 C   0  0  0  0  0  0  0  0  0  0  0  0
   26.2350  -18.2945  -14.4005 C   0  0  0  0  0  0  0  0  0  0  0  0
   27.4351  -18.7398  -13.6079 C   0  0  0  0  0  0  0  0  0  0  0  0
   27.2209  -20.2045  -13.3278 C   0  0  1  0  0  0  0  0  0  0  0  0
   26.4089  -20.4509  -12.0976 C   0  0  0  0  0  0  0  0  0  0  0  0
   25.1918  -20.0658  -12.0088 O   0  0  0  0  0  0  0  0  0  0  0  0
   28.3260  -18.6452   -5.9565 C   0  0  0  0  0  0  0  0  0  0  0  0
   27.1240  -19.9726   -6.0337 S   0  0  0  0  0  0  0  0  0  0  0  0
   26.0437  -19.8787   -7.4839 C   0  0  0  0  0  0  0  0  0  0  0  0
   26.8201  -20.0225   -8.7577 C   0  0  0  0  0  0  0  0  0  0  0  0
   26.2176  -21.0493   -9.6866 C   0  0  2  0  0  0  0  0  0  0  0  0
   26.9161  -21.1213  -10.9447 N   0  0  0  0  0  0  0  0  0  0  0  0
   24.8031  -20.6209   -9.9666 C   0  0  0  0  0  0  0  0  0  0  0  0
   23.7933  -21.1919   -9.2163 O   0  0  0  0  0  0  0  0  0  0  0  0
   24.5281  -19.7815  -10.8397 O   0  0  0  0  0  0  0  0  0  0  0  0
  2  3  2  0
  2  1  1  0
  4  2  1  0
  5  7  1  0
  5  4  1  0
  5  6  1  1
  7  8  2  0
  9  7  1  0
 10  9  1  0
 11 12  1  0
 11 10  1  0
 12 13  1  0
 13  9  1  0
 13 14  1  1
 14 21  1  0
 15 14  2  0
 17 16  1  0
 18 19  1  0
 18 17  1  0
 20 19  1  1
 20 22  1  0
 21 20  1  0
 22 24  2  0
 22 23  1  0
M  END
$$$$
