NPM.pdb
     RDKit          3D

 24 24  0  0  1  0  0  0  0  0999 V2000
   22.7320  -21.5212  -17.8455 N   0  0  0  0  0  0  0  0  0  0  0  0
   22.4375  -21.5850  -16.4741 C   0  0  0  0  0  0  0  0  0  0  0  0
   21.2405  -21.5618  -16.1053 O   0  0  0  0  0  0  0  0  0  0  0  0
   23.4951  -21.6761  -15.4677 C   0  0  0  0  0  0  0  0  0  0  0  0
   24.8916  -21.8225  -16.0048 C   0  0  2  0  0  0  0  0  0  0  0  0
   25.1109  -23.0837  -16.6730 N   0  0  0  0  0  0  0  0  0  0  0  0
   25.8997  -21.6521  -14.9187 C   0  0  0  0  0  0  0  0  0  0  0  0
   26.5139  -22.7568  -14.6449 O   0  0  0  0  0  0  0  0  0  0  0  0
   26.2001  -20.4690  -14.2286 N   0  0  0  0  0  0  0  0  0  0  0  0
   25.6208  -19.1856  -14.3478 C   0  0  0  0  0  0  0  0  0  0  0  0
   26.7842  -18.2269  -14.1377 C   0  0  0  0  0  0  0  0  0  0  0  0
   27.8482  -19.0627  -13.4772 C   0  0  0  0  0  0  0  0  0  0  0  0
   27.2018  -20.3913  -13.1828 C   0  0  1  0  0  0  0  0  0  0  0  0
   26.4780  -20.4114  -11.8755 C   0  0  0  0  0  0  0  0  0  0  0  0
   25.2014  -20.3457  -11.8142 O   0  0  0  0  0  0  0  0  0  0  0  0
   27.9081  -18.4024   -5.7426 C   0  0  0  0  0  0  0  0  0  0  0  0
   27.0139  -19.9305   -5.4632 S   0  0  0  0  0  0  0  0  0  0  0  0
   26.2164  -20.5780   -6.9544 C   0  0  0  0  0  0  0  0  0  0  0  0
   27.0644  -20.3585   -8.1704 C   0  0  0  0  0  0  0  0  0  0  0  0
   26.4120  -20.8787   -9.4290 C   0  0  2  0  0  0  0  0  0  0  0  0
   27.1394  -20.5025  -10.6145 N   0  0  0  0  0  0  0  0  0  0  0  0
   25.0436  -20.2593   -9.5099 C   0  0  0  0  0  0  0  0  0  0  0  0
   24.9392  -18.9869  -10.0380 O   0  0  0  0  0  0  0  0  0  0  0  0
   24.0254  -20.8545   -9.1207 O   0  0  0  0  0  0  0  0  0  0  0  0
  2  3  2  0
  2  1  1  0
  4  2  1  0
  5  7  1  0
  5  4  1  0
  5  6  1  1
  7  8  2  0
  9  7  1  0
 10  9  1  0
 11 12  1  0
 11 10  1  0
 12 13  1  0
 13  9  1  0
 13 14  1  1
 14 21  1  0
 15 14  2  0
 17 16  1  0
 18 19  1  0
 18 17  1  0
 20 19  1  1
 20 22  1  0
 21 20  1  0
 22 24  2  0
 22 23  1  0
M  END
$$$$
