NPM.pdb
     RDKit          3D

 24 24  0  0  1  0  0  0  0  0999 V2000
   23.0702  -24.5239  -16.6798 N   0  0  0  0  0  0  0  0  0  0  0  0
   22.7868  -23.9076  -15.4504 C   0  0  0  0  0  0  0  0  0  0  0  0
   21.6755  -24.1093  -14.9085 O   0  0  0  0  0  0  0  0  0  0  0  0
   23.7577  -23.0353  -14.7900 C   0  0  0  0  0  0  0  0  0  0  0  0
   25.0764  -22.8805  -15.4949 C   0  0  2  0  0  0  0  0  0  0  0  0
   25.5872  -24.1256  -16.0184 N   0  0  0  0  0  0  0  0  0  0  0  0
   26.0926  -22.2651  -14.5929 C   0  0  0  0  0  0  0  0  0  0  0  0
   27.0824  -23.0630  -14.3562 O   0  0  0  0  0  0  0  0  0  0  0  0
   26.0484  -20.9824  -14.0280 N   0  0  0  0  0  0  0  0  0  0  0  0
   25.0402  -19.9959  -14.1127 C   0  0  0  0  0  0  0  0  0  0  0  0
   25.8042  -18.6802  -14.1571 C   0  0  0  0  0  0  0  0  0  0  0  0
   27.1785  -19.0238  -13.6472 C   0  0  0  0  0  0  0  0  0  0  0  0
   27.0958  -20.4525  -13.1764 C   0  0  1  0  0  0  0  0  0  0  0  0
   26.6214  -20.5752  -11.7645 C   0  0  0  0  0  0  0  0  0  0  0  0
   25.4397  -20.9802  -11.4865 O   0  0  0  0  0  0  0  0  0  0  0  0
   27.6009  -19.5230   -3.9460 C   0  0  0  0  0  0  0  0  0  0  0  0
   28.1665  -19.2160   -5.6189 S   0  0  0  0  0  0  0  0  0  0  0  0
   27.2780  -20.1833   -6.8655 C   0  0  0  0  0  0  0  0  0  0  0  0
   27.8376  -19.9578   -8.2374 C   0  0  0  0  0  0  0  0  0  0  0  0
   27.0344  -20.6559   -9.3088 C   0  0  2  0  0  0  0  0  0  0  0  0
   27.4319  -20.2557  -10.6346 N   0  0  0  0  0  0  0  0  0  0  0  0
   25.5963  -20.2585   -9.1172 C   0  0  0  0  0  0  0  0  0  0  0  0
   24.8025  -21.0636   -8.3233 O   0  0  0  0  0  0  0  0  0  0  0  0
   25.1161  -19.2424   -9.6460 O   0  0  0  0  0  0  0  0  0  0  0  0
  2  3  2  0
  2  1  1  0
  4  2  1  0
  5  7  1  0
  5  4  1  0
  5  6  1  1
  7  8  2  0
  9  7  1  0
 10  9  1  0
 11 12  1  0
 11 10  1  0
 12 13  1  0
 13  9  1  0
 13 14  1  1
 14 21  1  0
 15 14  2  0
 17 16  1  0
 18 19  1  0
 18 17  1  0
 20 19  1  1
 20 22  1  0
 21 20  1  0
 22 24  2  0
 22 23  1  0
M  END
$$$$
