NPM.pdb
     RDKit          3D

 24 24  0  0  1  0  0  0  0  0999 V2000
   26.0523  -18.9307  -16.4246 N   0  0  0  0  0  0  0  0  0  0  0  0
   27.0932  -18.0821  -16.0147 C   0  0  0  0  0  0  0  0  0  0  0  0
   26.8376  -16.8830  -15.7576 O   0  0  0  0  0  0  0  0  0  0  0  0
   28.4675  -18.5655  -15.8829 C   0  0  0  0  0  0  0  0  0  0  0  0
   28.6426  -20.0561  -15.9690 C   0  0  2  0  0  0  0  0  0  0  0  0
   28.0161  -20.6324  -17.1354 N   0  0  0  0  0  0  0  0  0  0  0  0
   28.1211  -20.7246  -14.7417 C   0  0  0  0  0  0  0  0  0  0  0  0
   27.1273  -21.5110  -14.9990 O   0  0  0  0  0  0  0  0  0  0  0  0
   28.5973  -20.5678  -13.4322 N   0  0  0  0  0  0  0  0  0  0  0  0
   29.6066  -19.7111  -12.9380 C   0  0  0  0  0  0  0  0  0  0  0  0
   30.2864  -20.5226  -11.8443 C   0  0  0  0  0  0  0  0  0  0  0  0
   29.3040  -21.6162  -11.5191 C   0  0  0  0  0  0  0  0  0  0  0  0
   28.0559  -21.2909  -12.2977 C   0  0  1  0  0  0  0  0  0  0  0  0
   27.1428  -20.3559  -11.5728 C   0  0  0  0  0  0  0  0  0  0  0  0
   27.1242  -19.1024  -11.8298 O   0  0  0  0  0  0  0  0  0  0  0  0
   22.5954  -22.9834  -13.8359 C   0  0  0  0  0  0  0  0  0  0  0  0
   21.9304  -21.3818  -13.3827 S   0  0  0  0  0  0  0  0  0  0  0  0
   22.7102  -20.6715  -11.9108 C   0  0  0  0  0  0  0  0  0  0  0  0
   24.1773  -20.9740  -11.8663 C   0  0  0  0  0  0  0  0  0  0  0  0
   24.8402  -20.4288  -10.6238 C   0  0  2  0  0  0  0  0  0  0  0  0
   26.2366  -20.7773  -10.5545 N   0  0  0  0  0  0  0  0  0  0  0  0
   24.1490  -21.0505   -9.4412 C   0  0  0  0  0  0  0  0  0  0  0  0
   24.7264  -22.1667   -8.8672 O   0  0  0  0  0  0  0  0  0  0  0  0
   23.0921  -20.5915   -8.9779 O   0  0  0  0  0  0  0  0  0  0  0  0
  2  3  2  0
  2  1  1  0
  4  2  1  0
  5  7  1  0
  5  4  1  0
  5  6  1  6
  7  8  2  0
  9  7  1  0
 10  9  1  0
 11 12  1  0
 11 10  1  0
 12 13  1  0
 13  9  1  0
 13 14  1  1
 14 21  1  0
 15 14  2  0
 17 16  1  0
 18 19  1  0
 18 17  1  0
 20 19  1  6
 20 22  1  0
 21 20  1  0
 22 24  2  0
 22 23  1  0
M  END
$$$$
