NPM.pdb
     RDKit          3D

 24 24  0  0  1  0  0  0  0  0999 V2000
   23.6519  -14.7374  -20.0368 N   0  0  0  0  0  0  0  0  0  0  0  0
   22.6412  -13.8730  -19.5865 C   0  0  0  0  0  0  0  0  0  0  0  0
   21.6913  -13.5927  -20.3536 O   0  0  0  0  0  0  0  0  0  0  0  0
   22.6731  -13.2920  -18.2444 C   0  0  0  0  0  0  0  0  0  0  0  0
   23.8639  -13.6621  -17.4047 C   0  0  2  0  0  0  0  0  0  0  0  0
   23.8765  -15.0552  -17.0247 N   0  0  0  0  0  0  0  0  0  0  0  0
   23.9374  -12.8114  -16.1817 C   0  0  0  0  0  0  0  0  0  0  0  0
   23.4433  -13.4043  -15.1441 O   0  0  0  0  0  0  0  0  0  0  0  0
   24.4625  -11.5144  -16.0902 N   0  0  0  0  0  0  0  0  0  0  0  0
   25.0101  -10.6917  -17.1002 C   0  0  0  0  0  0  0  0  0  0  0  0
   26.1367   -9.9412  -16.4042 C   0  0  0  0  0  0  0  0  0  0  0  0
   25.8385  -10.0886  -14.9359 C   0  0  0  0  0  0  0  0  0  0  0  0
   24.4885  -10.7527  -14.8564 C   0  0  1  0  0  0  0  0  0  0  0  0
   23.3553   -9.7801  -14.9138 C   0  0  0  0  0  0  0  0  0  0  0  0
   22.9189   -9.3233  -16.0266 O   0  0  0  0  0  0  0  0  0  0  0  0
   16.3562   -9.0701  -11.4369 C   0  0  0  0  0  0  0  0  0  0  0  0
   18.0857   -9.5346  -11.3603 S   0  0  0  0  0  0  0  0  0  0  0  0
   19.0668   -8.8766  -12.7328 C   0  0  0  0  0  0  0  0  0  0  0  0
   20.4834   -9.3625  -12.6780 C   0  0  0  0  0  0  0  0  0  0  0  0
   21.3129   -8.8504  -13.8313 C   0  0  2  0  0  0  0  0  0  0  0  0
   22.6825   -9.2910  -13.7544 N   0  0  0  0  0  0  0  0  0  0  0  0
   21.3051   -7.3482  -13.7527 C   0  0  0  0  0  0  0  0  0  0  0  0
   22.4266   -6.7208  -13.2453 O   0  0  0  0  0  0  0  0  0  0  0  0
   20.3326   -6.6724  -14.1269 O   0  0  0  0  0  0  0  0  0  0  0  0
  2  3  2  0
  2  1  1  0
  4  2  1  0
  5  7  1  0
  5  4  1  0
  5  6  1  1
  7  8  2  0
  9  7  1  0
 10  9  1  0
 11 12  1  0
 11 10  1  0
 12 13  1  0
 13  9  1  0
 13 14  1  6
 14 21  1  0
 15 14  2  0
 17 16  1  0
 18 19  1  0
 18 17  1  0
 20 19  1  1
 20 22  1  0
 21 20  1  0
 22 24  2  0
 22 23  1  0
M  END
$$$$
