NPM.pdb
     RDKit          3D

 24 24  0  0  1  0  0  0  0  0999 V2000
   12.1070  -16.9464    2.4532 N   0  0  0  0  0  0  0  0  0  0  0  0
   12.7437  -17.8345    3.3350 C   0  0  0  0  0  0  0  0  0  0  0  0
   12.1442  -18.8751    3.6916 O   0  0  0  0  0  0  0  0  0  0  0  0
   14.0884  -17.5717    3.8472 C   0  0  0  0  0  0  0  0  0  0  0  0
   15.1992  -17.6773    2.8397 C   0  0  2  0  0  0  0  0  0  0  0  0
   15.3035  -18.9909    2.2490 N   0  0  0  0  0  0  0  0  0  0  0  0
   16.5073  -17.2995    3.4487 C   0  0  0  0  0  0  0  0  0  0  0  0
   17.3325  -18.2944    3.4893 O   0  0  0  0  0  0  0  0  0  0  0  0
   16.8718  -16.0388    3.9427 N   0  0  0  0  0  0  0  0  0  0  0  0
   16.0738  -14.8938    4.1643 C   0  0  0  0  0  0  0  0  0  0  0  0
   16.9845  -13.7266    3.8106 C   0  0  0  0  0  0  0  0  0  0  0  0
   18.3729  -14.3083    3.8389 C   0  0  0  0  0  0  0  0  0  0  0  0
   18.2190  -15.7107    4.3675 C   0  0  1  0  0  0  0  0  0  0  0  0
   18.2400  -15.7773    5.8603 C   0  0  0  0  0  0  0  0  0  0  0  0
   17.1599  -15.8000    6.5462 O   0  0  0  0  0  0  0  0  0  0  0  0
   21.7586  -20.1617   11.2348 C   0  0  0  0  0  0  0  0  0  0  0  0
   21.6954  -19.4230    9.6029 S   0  0  0  0  0  0  0  0  0  0  0  0
   20.5018  -18.0673    9.4748 C   0  0  0  0  0  0  0  0  0  0  0  0
   20.4662  -17.4956    8.0900 C   0  0  0  0  0  0  0  0  0  0  0  0
   19.4512  -16.3862    7.9508 C   0  0  2  0  0  0  0  0  0  0  0  0
   19.4431  -15.8190    6.6264 N   0  0  0  0  0  0  0  0  0  0  0  0
   19.8424  -15.3011    8.9164 C   0  0  0  0  0  0  0  0  0  0  0  0
   19.3426  -15.3681   10.2027 O   0  0  0  0  0  0  0  0  0  0  0  0
   20.5905  -14.3650    8.5899 O   0  0  0  0  0  0  0  0  0  0  0  0
  2  3  2  0
  2  1  1  0
  4  2  1  0
  5  7  1  0
  5  4  1  0
  5  6  1  1
  7  8  2  0
  9  7  1  0
 10  9  1  0
 11 12  1  0
 11 10  1  0
 12 13  1  0
 13  9  1  0
 13 14  1  1
 14 21  1  0
 15 14  2  0
 17 16  1  0
 18 19  1  0
 18 17  1  0
 20 19  1  6
 20 22  1  0
 21 20  1  0
 22 24  2  0
 22 23  1  0
M  END
$$$$
