NPM.pdb
     RDKit          3D

 24 24  0  0  1  0  0  0  0  0999 V2000
   20.7336  -20.8838  -14.9887 N   0  0  0  0  0  0  0  0  0  0  0  0
   21.9716  -20.2381  -14.8404 C   0  0  0  0  0  0  0  0  0  0  0  0
   22.1881  -19.1802  -15.4755 O   0  0  0  0  0  0  0  0  0  0  0  0
   23.0134  -20.7730  -13.9638 C   0  0  0  0  0  0  0  0  0  0  0  0
   24.0663  -21.6063  -14.6399 C   0  0  2  0  0  0  0  0  0  0  0  0
   23.5572  -22.8597  -15.1447 N   0  0  0  0  0  0  0  0  0  0  0  0
   25.2101  -21.8678  -13.7188 C   0  0  0  0  0  0  0  0  0  0  0  0
   25.2369  -23.0942  -13.3096 O   0  0  0  0  0  0  0  0  0  0  0  0
   26.1792  -20.9454  -13.2990 N   0  0  0  0  0  0  0  0  0  0  0  0
   26.3007  -19.5693  -13.5965 C   0  0  0  0  0  0  0  0  0  0  0  0
   27.8018  -19.3366  -13.6935 C   0  0  0  0  0  0  0  0  0  0  0  0
   28.4141  -20.5258  -13.0024 C   0  0  0  0  0  0  0  0  0  0  0  0
   27.2626  -21.2859  -12.3972 C   0  0  1  0  0  0  0  0  0  0  0  0
   26.8820  -20.7865  -11.0411 C   0  0  0  0  0  0  0  0  0  0  0  0
   25.8329  -20.0770  -10.8574 O   0  0  0  0  0  0  0  0  0  0  0  0
   28.1449  -20.1768   -3.2208 C   0  0  0  0  0  0  0  0  0  0  0  0
   28.7541  -20.0333   -4.9004 S   0  0  0  0  0  0  0  0  0  0  0  0
   27.4865  -20.3541   -6.1532 C   0  0  0  0  0  0  0  0  0  0  0  0
   28.0922  -20.5507   -7.5098 C   0  0  0  0  0  0  0  0  0  0  0  0
   27.0594  -20.8899   -8.5580 C   0  0  2  0  0  0  0  0  0  0  0  0
   27.6438  -21.0542   -9.8647 N   0  0  0  0  0  0  0  0  0  0  0  0
   26.0964  -19.7362   -8.6237 C   0  0  0  0  0  0  0  0  0  0  0  0
   24.8627  -19.8876   -8.0204 O   0  0  0  0  0  0  0  0  0  0  0  0
   26.3799  -18.6712   -9.1965 O   0  0  0  0  0  0  0  0  0  0  0  0
  2  3  2  0
  2  1  1  0
  4  2  1  0
  5  7  1  0
  5  4  1  0
  5  6  1  1
  7  8  2  0
  9  7  1  0
 10  9  1  0
 11 12  1  0
 11 10  1  0
 12 13  1  0
 13  9  1  0
 13 14  1  1
 14 21  1  0
 15 14  2  0
 17 16  1  0
 18 19  1  0
 18 17  1  0
 20 19  1  1
 20 22  1  0
 21 20  1  0
 22 24  2  0
 22 23  1  0
M  END
$$$$
