NPM.pdb
     RDKit          3D

 24 24  0  0  1  0  0  0  0  0999 V2000
   21.8365  -19.8131  -11.0553 N   0  0  0  0  0  0  0  0  0  0  0  0
   21.7196  -19.7989  -12.4544 C   0  0  0  0  0  0  0  0  0  0  0  0
   20.5797  -19.8421  -12.9721 O   0  0  0  0  0  0  0  0  0  0  0  0
   22.8972  -19.7366  -13.3201 C   0  0  0  0  0  0  0  0  0  0  0  0
   23.5311  -21.0592  -13.6501 C   0  0  2  0  0  0  0  0  0  0  0  0
   22.5650  -22.1080  -13.8775 N   0  0  0  0  0  0  0  0  0  0  0  0
   24.4777  -21.4780  -12.5761 C   0  0  0  0  0  0  0  0  0  0  0  0
   24.0388  -22.4942  -11.9075 O   0  0  0  0  0  0  0  0  0  0  0  0
   25.7120  -20.8888  -12.2667 N   0  0  0  0  0  0  0  0  0  0  0  0
   26.2810  -19.6872  -12.7454 C   0  0  0  0  0  0  0  0  0  0  0  0
   27.7695  -19.9892  -12.8443 C   0  0  0  0  0  0  0  0  0  0  0  0
   27.9650  -21.2113  -11.9869 C   0  0  0  0  0  0  0  0  0  0  0  0
   26.6423  -21.4505  -11.3065 C   0  0  1  0  0  0  0  0  0  0  0  0
   26.4898  -20.6752  -10.0380 C   0  0  0  0  0  0  0  0  0  0  0  0
   25.9041  -19.5376  -10.0133 O   0  0  0  0  0  0  0  0  0  0  0  0
   29.3669  -22.1014   -4.2380 C   0  0  0  0  0  0  0  0  0  0  0  0
   28.4417  -20.6217   -3.8290 S   0  0  0  0  0  0  0  0  0  0  0  0
   27.4089  -20.0222   -5.1903 C   0  0  0  0  0  0  0  0  0  0  0  0
   27.5539  -20.8815   -6.4096 C   0  0  0  0  0  0  0  0  0  0  0  0
   26.7596  -20.3566   -7.5817 C   0  0  2  0  0  0  0  0  0  0  0  0
   26.9768  -21.1315   -8.7769 N   0  0  0  0  0  0  0  0  0  0  0  0
   27.2327  -18.9537   -7.8476 C   0  0  0  0  0  0  0  0  0  0  0  0
   26.5833  -17.9185   -7.2030 O   0  0  0  0  0  0  0  0  0  0  0  0
   28.1757  -18.7098   -8.6181 O   0  0  0  0  0  0  0  0  0  0  0  0
  2  3  2  0
  2  1  1  0
  4  2  1  0
  5  7  1  0
  5  4  1  0
  5  6  1  1
  7  8  2  0
  9  7  1  0
 10  9  1  0
 11 12  1  0
 11 10  1  0
 12 13  1  0
 13  9  1  0
 13 14  1  1
 14 21  1  0
 15 14  2  0
 17 16  1  0
 18 19  1  0
 18 17  1  0
 20 19  1  1
 20 22  1  0
 21 20  1  0
 22 24  2  0
 22 23  1  0
M  END
$$$$
