FNK.pdb
     RDKit          3D

 29 29  0  0  1  0  0  0  0  0999 V2000
    5.6917  -17.6023   24.8385 N   0  0  0  0  0  0  0  0  0  0  0  0
    6.5477  -16.4633   24.7521 C   0  0  1  0  0  0  0  0  0  0  0  0
    6.8811  -15.8893   26.1385 C   0  0  0  0  0  0  0  0  0  0  0  0
    6.8087  -14.4088   26.0957 C   0  0  0  0  0  0  0  0  0  0  0  0
    7.9559  -13.7016   25.7597 C   0  0  0  0  0  0  0  0  0  0  0  0
    7.9489  -12.3174   25.7035 C   0  0  0  0  0  0  0  0  0  0  0  0
    6.7951  -11.6196   25.9821 C   0  0  0  0  0  0  0  0  0  0  0  0
    5.6485  -12.3374   26.3186 C   0  0  0  0  0  0  0  0  0  0  0  0
    5.6616  -13.7251   26.3737 C   0  0  0  0  0  0  0  0  0  0  0  0
    7.8476  -16.7571   24.0992 C   0  0  0  0  0  0  0  0  0  0  0  0
    8.5086  -17.7895   24.3640 O   0  0  0  0  0  0  0  0  0  0  0  0
   10.8268  -16.7320   19.3866 N   0  0  0  0  0  0  0  0  0  0  0  0
   11.0371  -15.7952   20.4234 C   0  0  0  0  0  0  0  0  0  0  0  0
   12.2113  -15.4061   20.6505 O   0  0  0  0  0  0  0  0  0  0  0  0
    9.8728  -15.2892   21.2172 C   0  0  0  0  0  0  0  0  0  0  0  0
    9.6096  -16.1864   22.3938 C   0  0  2  0  0  0  0  0  0  0  0  0
    8.4358  -15.8917   23.1275 N   0  0  0  0  0  0  0  0  0  0  0  0
   10.7870  -16.0838   23.2879 C   0  0  0  0  0  0  0  0  0  0  0  0
   11.1251  -14.9612   23.7513 O   0  0  0  0  0  0  0  0  0  0  0  0
   11.5802  -17.1952   23.6665 N   0  0  0  0  0  0  0  0  0  0  0  0
   12.7178  -17.0311   24.5458 C   0  0  1  0  0  0  0  0  0  0  0  0
   12.9634  -18.2665   25.3848 C   0  0  0  0  0  0  0  0  0  0  0  0
   11.9206  -18.2693   26.4942 C   0  0  0  0  0  0  0  0  0  0  0  0
   12.0825  -19.5201   27.3385 C   0  0  0  0  0  0  0  0  0  0  0  0
   11.1578  -19.4494   28.5219 C   0  0  0  0  0  0  0  0  0  0  0  0
   11.3343  -20.6369   29.3471 N   0  0  0  0  0  0  0  0  0  0  0  0
   13.8978  -16.7112   23.7074 C   0  0  0  0  0  0  0  0  0  0  0  0
   14.0204  -17.1873   22.3923 O   0  0  0  0  0  0  0  0  0  0  0  0
   14.8198  -16.0069   24.1476 O   0  0  0  0  0  0  0  0  0  0  0  0
  2  1  1  1
  2  3  1  0
  2 10  1  0
  3  4  1  0
  4  9  2  0
  5  6  2  0
  5  4  1  0
  6  7  1  0
  7  8  2  0
  9  8  1  0
 10 17  1  0
 10 11  2  0
 13 15  1  0
 13 12  1  0
 14 13  2  0
 16 15  1  6
 16 18  1  0
 17 16  1  0
 18 19  2  0
 20 18  1  0
 20 21  1  0
 21 27  1  0
 21 22  1  6
 23 22  1  0
 24 23  1  0
 25 24  1  0
 26 25  1  0
 27 29  2  0
 27 28  1  0
M  END
$$$$
