FNK.pdb
     RDKit          3D

 29 29  0  0  1  0  0  0  0  0999 V2000
    5.1865  -17.6182   24.4037 N   0  0  0  0  0  0  0  0  0  0  0  0
    5.8137  -16.3403   24.5092 C   0  0  1  0  0  0  0  0  0  0  0  0
    6.0968  -15.9587   25.9709 C   0  0  0  0  0  0  0  0  0  0  0  0
    6.4780  -14.5278   26.0479 C   0  0  0  0  0  0  0  0  0  0  0  0
    5.4913  -13.5705   25.8497 C   0  0  0  0  0  0  0  0  0  0  0  0
    5.7877  -12.2186   25.9097 C   0  0  0  0  0  0  0  0  0  0  0  0
    7.0747  -11.8034   26.1689 C   0  0  0  0  0  0  0  0  0  0  0  0
    8.0586  -12.7708   26.3665 C   0  0  0  0  0  0  0  0  0  0  0  0
    7.7556  -14.1248   26.3048 C   0  0  0  0  0  0  0  0  0  0  0  0
    7.1152  -16.2675   23.8000 C   0  0  0  0  0  0  0  0  0  0  0  0
    7.9969  -17.1495   23.9321 O   0  0  0  0  0  0  0  0  0  0  0  0
    7.1949  -12.8459   19.6139 N   0  0  0  0  0  0  0  0  0  0  0  0
    7.8834  -13.9993   20.0528 C   0  0  0  0  0  0  0  0  0  0  0  0
    7.7367  -15.0675   19.4056 O   0  0  0  0  0  0  0  0  0  0  0  0
    8.7643  -13.9257   21.2613 C   0  0  0  0  0  0  0  0  0  0  0  0
    8.6087  -15.1627   22.1007 C   0  0  2  0  0  0  0  0  0  0  0  0
    7.4555  -15.1953   22.9204 N   0  0  0  0  0  0  0  0  0  0  0  0
    9.8187  -15.2638   22.9504 C   0  0  0  0  0  0  0  0  0  0  0  0
   10.0997  -14.3331   23.7529 O   0  0  0  0  0  0  0  0  0  0  0  0
   10.7058  -16.3684   22.9189 N   0  0  0  0  0  0  0  0  0  0  0  0
   11.7503  -16.5109   23.9103 C   0  0  1  0  0  0  0  0  0  0  0  0
   11.7345  -17.8819   24.5512 C   0  0  0  0  0  0  0  0  0  0  0  0
   12.9341  -17.9533   25.4862 C   0  0  0  0  0  0  0  0  0  0  0  0
   13.0245  -19.3432   26.0890 C   0  0  0  0  0  0  0  0  0  0  0  0
   14.1799  -19.3990   27.0494 C   0  0  0  0  0  0  0  0  0  0  0  0
   14.1731  -20.6803   27.7425 N   0  0  0  0  0  0  0  0  0  0  0  0
   13.0481  -16.2472   23.2443 C   0  0  0  0  0  0  0  0  0  0  0  0
   13.2761  -16.6005   21.9047 O   0  0  0  0  0  0  0  0  0  0  0  0
   13.9793  -15.7017   23.8570 O   0  0  0  0  0  0  0  0  0  0  0  0
  2  1  1  1
  2  3  1  0
  2 10  1  0
  3  4  1  0
  4  9  2  0
  5  6  2  0
  5  4  1  0
  6  7  1  0
  7  8  2  0
  9  8  1  0
 10 17  1  0
 10 11  2  0
 13 15  1  0
 13 12  1  0
 14 13  2  0
 16 15  1  1
 16 18  1  0
 17 16  1  0
 18 19  2  0
 20 18  1  0
 20 21  1  0
 21 27  1  0
 21 22  1  6
 23 22  1  0
 24 23  1  0
 25 24  1  0
 26 25  1  0
 27 29  2  0
 27 28  1  0
M  END
$$$$
