FNK.pdb
     RDKit          3D

 29 29  0  0  1  0  0  0  0  0999 V2000
    8.6185  -15.8497   26.7823 N   0  0  0  0  0  0  0  0  0  0  0  0
    8.0641  -15.8084   25.4676 C   0  0  1  0  0  0  0  0  0  0  0  0
    8.0327  -14.3793   24.9025 C   0  0  0  0  0  0  0  0  0  0  0  0
    7.4644  -13.4556   25.9137 C   0  0  0  0  0  0  0  0  0  0  0  0
    6.0894  -13.4576   26.1103 C   0  0  0  0  0  0  0  0  0  0  0  0
    5.5015  -12.6167   27.0412 C   0  0  0  0  0  0  0  0  0  0  0  0
    6.2791  -11.7616   27.7895 C   0  0  0  0  0  0  0  0  0  0  0  0
    7.6580  -11.7662   27.5856 C   0  0  0  0  0  0  0  0  0  0  0  0
    8.2419  -12.6111   26.6506 C   0  0  0  0  0  0  0  0  0  0  0  0
    8.8206  -16.6272   24.4881 C   0  0  0  0  0  0  0  0  0  0  0  0
   10.0743  -16.6413   24.4577 O   0  0  0  0  0  0  0  0  0  0  0  0
   11.0392  -19.7840   21.9453 N   0  0  0  0  0  0  0  0  0  0  0  0
    9.8821  -20.4919   22.3417 C   0  0  0  0  0  0  0  0  0  0  0  0
    9.9278  -21.7484   22.3678 O   0  0  0  0  0  0  0  0  0  0  0  0
    8.6433  -19.7411   22.7207 C   0  0  0  0  0  0  0  0  0  0  0  0
    8.8603  -18.2612   22.5731 C   0  0  2  0  0  0  0  0  0  0  0  0
    8.1802  -17.4541   23.5159 N   0  0  0  0  0  0  0  0  0  0  0  0
    8.4231  -17.8942   21.2055 C   0  0  0  0  0  0  0  0  0  0  0  0
    7.2133  -18.0291   20.8778 O   0  0  0  0  0  0  0  0  0  0  0  0
    9.2998  -17.3879   20.2141 N   0  0  0  0  0  0  0  0  0  0  0  0
    8.8239  -17.1004   18.8781 C   0  0  1  0  0  0  0  0  0  0  0  0
    9.2442  -15.7221   18.4154 C   0  0  0  0  0  0  0  0  0  0  0  0
    8.6332  -14.7186   19.3838 C   0  0  0  0  0  0  0  0  0  0  0  0
    9.0033  -13.3107   18.9548 C   0  0  0  0  0  0  0  0  0  0  0  0
    8.3534  -12.3180   19.8782 C   0  0  0  0  0  0  0  0  0  0  0  0
    8.7448  -10.9687   19.4931 N   0  0  0  0  0  0  0  0  0  0  0  0
    9.3482  -18.1510   17.9730 C   0  0  0  0  0  0  0  0  0  0  0  0
   10.3831  -19.0148   18.3655 O   0  0  0  0  0  0  0  0  0  0  0  0
    8.8834  -18.2987   16.8319 O   0  0  0  0  0  0  0  0  0  0  0  0
  2  1  1  1
  2  3  1  0
  2 10  1  0
  3  4  1  0
  4  9  2  0
  5  6  2  0
  5  4  1  0
  6  7  1  0
  7  8  2  0
  9  8  1  0
 10 17  1  0
 10 11  2  0
 13 15  1  0
 13 12  1  0
 14 13  2  0
 16 15  1  1
 16 18  1  0
 17 16  1  0
 18 19  2  0
 20 18  1  0
 20 21  1  0
 21 27  1  0
 21 22  1  6
 23 22  1  0
 24 23  1  0
 25 24  1  0
 26 25  1  0
 27 29  2  0
 27 28  1  0
M  END
$$$$
