FNK.pdb
     RDKit          3D

 29 29  0  0  1  0  0  0  0  0999 V2000
    6.0822  -16.7591   25.3878 N   0  0  0  0  0  0  0  0  0  0  0  0
    6.9933  -15.8316   24.7985 C   0  0  1  0  0  0  0  0  0  0  0  0
    7.7188  -14.9874   25.8585 C   0  0  0  0  0  0  0  0  0  0  0  0
    7.1034  -13.6402   25.9299 C   0  0  0  0  0  0  0  0  0  0  0  0
    6.5675  -13.0973   24.7691 C   0  0  0  0  0  0  0  0  0  0  0  0
    5.9796  -11.8429   24.7745 C   0  0  0  0  0  0  0  0  0  0  0  0
    5.9184  -11.1125   25.9401 C   0  0  0  0  0  0  0  0  0  0  0  0
    6.4588  -11.6650   27.1003 C   0  0  0  0  0  0  0  0  0  0  0  0
    7.0473  -12.9229   27.0888 C   0  0  0  0  0  0  0  0  0  0  0  0
    8.0523  -16.4856   23.9904 C   0  0  0  0  0  0  0  0  0  0  0  0
    8.3602  -17.6914   24.1452 O   0  0  0  0  0  0  0  0  0  0  0  0
   10.7936  -17.2837   19.0405 N   0  0  0  0  0  0  0  0  0  0  0  0
   11.1066  -16.3839   20.0842 C   0  0  0  0  0  0  0  0  0  0  0  0
   12.3173  -16.1724   20.3503 O   0  0  0  0  0  0  0  0  0  0  0  0
   10.0048  -15.7071   20.8391 C   0  0  0  0  0  0  0  0  0  0  0  0
    9.7780  -16.3876   22.1598 C   0  0  2  0  0  0  0  0  0  0  0  0
    8.7921  -15.7941   22.9837 N   0  0  0  0  0  0  0  0  0  0  0  0
   11.0770  -16.3916   22.8730 C   0  0  0  0  0  0  0  0  0  0  0  0
   11.6061  -15.3001   23.2164 O   0  0  0  0  0  0  0  0  0  0  0  0
   11.7838  -17.5747   23.2030 N   0  0  0  0  0  0  0  0  0  0  0  0
   12.4919  -17.6910   24.4597 C   0  0  1  0  0  0  0  0  0  0  0  0
   11.9628  -18.8330   25.3001 C   0  0  0  0  0  0  0  0  0  0  0  0
   12.8311  -18.9104   26.5485 C   0  0  0  0  0  0  0  0  0  0  0  0
   12.3812  -20.0784   27.4069 C   0  0  0  0  0  0  0  0  0  0  0  0
   13.1619  -20.0863   28.6918 C   0  0  0  0  0  0  0  0  0  0  0  0
   12.6212  -21.1052   29.5816 N   0  0  0  0  0  0  0  0  0  0  0  0
   13.9312  -17.8737   24.1551 C   0  0  0  0  0  0  0  0  0  0  0  0
   14.3812  -18.1552   22.8552 O   0  0  0  0  0  0  0  0  0  0  0  0
   14.7879  -17.7824   25.0483 O   0  0  0  0  0  0  0  0  0  0  0  0
  2  1  1  1
  2  3  1  0
  2 10  1  0
  3  4  1  0
  4  9  2  0
  5  6  2  0
  5  4  1  0
  6  7  1  0
  7  8  2  0
  9  8  1  0
 10 17  1  0
 10 11  2  0
 13 15  1  0
 13 12  1  0
 14 13  2  0
 16 15  1  6
 16 18  1  0
 17 16  1  0
 18 19  2  0
 20 18  1  0
 20 21  1  0
 21 27  1  0
 21 22  1  6
 23 22  1  0
 24 23  1  0
 25 24  1  0
 26 25  1  0
 27 29  2  0
 27 28  1  0
M  END
$$$$
