FNK.pdb
     RDKit          3D

 29 29  0  0  1  0  0  0  0  0999 V2000
    6.3915  -15.9407   25.2824 N   0  0  0  0  0  0  0  0  0  0  0  0
    6.9663  -15.1013   24.2811 C   0  0  1  0  0  0  0  0  0  0  0  0
    7.9994  -14.1284   24.8715 C   0  0  0  0  0  0  0  0  0  0  0  0
    7.3363  -13.2267   25.8442 C   0  0  0  0  0  0  0  0  0  0  0  0
    7.6485  -13.3646   27.1906 C   0  0  0  0  0  0  0  0  0  0  0  0
    7.0608  -12.5506   28.1453 C   0  0  0  0  0  0  0  0  0  0  0  0
    6.1526  -11.5868   27.7684 C   0  0  0  0  0  0  0  0  0  0  0  0
    5.8452  -11.4555   26.4151 C   0  0  0  0  0  0  0  0  0  0  0  0
    6.4372  -12.2746   25.4625 C   0  0  0  0  0  0  0  0  0  0  0  0
    7.6686  -15.8589   23.2158 C   0  0  0  0  0  0  0  0  0  0  0  0
    7.5162  -17.0946   23.0650 O   0  0  0  0  0  0  0  0  0  0  0  0
    6.9541  -15.2106   19.7180 N   0  0  0  0  0  0  0  0  0  0  0  0
    8.1790  -14.5140   19.6114 C   0  0  0  0  0  0  0  0  0  0  0  0
    8.1593  -13.3272   19.1959 O   0  0  0  0  0  0  0  0  0  0  0  0
    9.4575  -15.1931   19.9936 C   0  0  0  0  0  0  0  0  0  0  0  0
    9.2928  -15.9296   21.2934 C   0  0  2  0  0  0  0  0  0  0  0  0
    8.5624  -15.2397   22.2901 N   0  0  0  0  0  0  0  0  0  0  0  0
   10.6543  -16.2258   21.7981 C   0  0  0  0  0  0  0  0  0  0  0  0
   11.4955  -16.7814   21.0412 O   0  0  0  0  0  0  0  0  0  0  0  0
   11.0849  -15.9175   23.1125 N   0  0  0  0  0  0  0  0  0  0  0  0
   11.8444  -16.8737   23.8891 C   0  0  1  0  0  0  0  0  0  0  0  0
   11.2486  -17.0814   25.2647 C   0  0  0  0  0  0  0  0  0  0  0  0
   11.8406  -18.3698   25.8195 C   0  0  0  0  0  0  0  0  0  0  0  0
   11.3551  -18.5790   27.2421 C   0  0  0  0  0  0  0  0  0  0  0  0
   12.0363  -19.7821   27.8327 C   0  0  0  0  0  0  0  0  0  0  0  0
   12.4937  -19.4682   29.1797 N   0  0  0  0  0  0  0  0  0  0  0  0
   11.8877  -18.1451   23.1279 C   0  0  0  0  0  0  0  0  0  0  0  0
   13.1023  -18.7289   22.7336 O   0  0  0  0  0  0  0  0  0  0  0  0
   10.8423  -18.7356   22.8141 O   0  0  0  0  0  0  0  0  0  0  0  0
  2  1  1  1
  2  3  1  0
  2 10  1  0
  3  4  1  0
  4  9  2  0
  5  6  2  0
  5  4  1  0
  6  7  1  0
  7  8  2  0
  9  8  1  0
 10 17  1  0
 10 11  2  0
 13 15  1  0
 13 12  1  0
 14 13  2  0
 16 15  1  6
 16 18  1  0
 17 16  1  0
 18 19  2  0
 20 18  1  0
 20 21  1  0
 21 27  1  0
 21 22  1  1
 23 22  1  0
 24 23  1  0
 25 24  1  0
 26 25  1  0
 27 29  2  0
 27 28  1  0
M  END
$$$$
