FNK.pdb
     RDKit          3D

 29 29  0  0  1  0  0  0  0  0999 V2000
    5.6421  -17.1535   24.8530 N   0  0  0  0  0  0  0  0  0  0  0  0
    6.7012  -16.2103   24.6908 C   0  0  1  0  0  0  0  0  0  0  0  0
    7.2048  -15.6748   26.0408 C   0  0  0  0  0  0  0  0  0  0  0  0
    6.9475  -14.2170   26.1263 C   0  0  0  0  0  0  0  0  0  0  0  0
    7.9159  -13.3467   25.6424 C   0  0  0  0  0  0  0  0  0  0  0  0
    7.7314  -11.9747   25.6953 C   0  0  0  0  0  0  0  0  0  0  0  0
    6.5762  -11.4522   26.2324 C   0  0  0  0  0  0  0  0  0  0  0  0
    5.6098  -12.3330   26.7157 C   0  0  0  0  0  0  0  0  0  0  0  0
    5.8005  -13.7076   26.6604 C   0  0  0  0  0  0  0  0  0  0  0  0
    7.8861  -16.7750   23.9985 C   0  0  0  0  0  0  0  0  0  0  0  0
    8.2612  -17.9585   24.1763 O   0  0  0  0  0  0  0  0  0  0  0  0
   11.3234  -17.1534   19.5207 N   0  0  0  0  0  0  0  0  0  0  0  0
   11.5114  -16.3024   20.6331 C   0  0  0  0  0  0  0  0  0  0  0  0
   12.6829  -16.1049   21.0454 O   0  0  0  0  0  0  0  0  0  0  0  0
   10.3279  -15.6592   21.2868 C   0  0  0  0  0  0  0  0  0  0  0  0
    9.8359  -16.5029   22.4292 C   0  0  2  0  0  0  0  0  0  0  0  0
    8.6794  -16.0172   23.0845 N   0  0  0  0  0  0  0  0  0  0  0  0
   10.9479  -16.6023   23.4037 C   0  0  0  0  0  0  0  0  0  0  0  0
   11.2735  -15.5941   24.0870 O   0  0  0  0  0  0  0  0  0  0  0  0
   11.6906  -17.7889   23.6239 N   0  0  0  0  0  0  0  0  0  0  0  0
   12.4580  -17.9707   24.8372 C   0  0  1  0  0  0  0  0  0  0  0  0
   11.9670  -19.1550   25.6414 C   0  0  0  0  0  0  0  0  0  0  0  0
   12.0931  -18.7811   27.1120 C   0  0  0  0  0  0  0  0  0  0  0  0
   11.5691  -19.9178   27.9704 C   0  0  0  0  0  0  0  0  0  0  0  0
   11.7906  -19.5936   29.4217 C   0  0  0  0  0  0  0  0  0  0  0  0
   11.2496  -20.6656   30.2464 N   0  0  0  0  0  0  0  0  0  0  0  0
   13.8805  -18.1374   24.4545 C   0  0  0  0  0  0  0  0  0  0  0  0
   14.2591  -18.8770   23.3228 O   0  0  0  0  0  0  0  0  0  0  0  0
   14.7862  -17.6233   25.1294 O   0  0  0  0  0  0  0  0  0  0  0  0
  2  1  1  1
  2  3  1  0
  2 10  1  0
  3  4  1  0
  4  9  2  0
  5  6  2  0
  5  4  1  0
  6  7  1  0
  7  8  2  0
  9  8  1  0
 10 17  1  0
 10 11  2  0
 13 15  1  0
 13 12  1  0
 14 13  2  0
 16 15  1  6
 16 18  1  0
 17 16  1  0
 18 19  2  0
 20 18  1  0
 20 21  1  0
 21 27  1  0
 21 22  1  6
 23 22  1  0
 24 23  1  0
 25 24  1  0
 26 25  1  0
 27 29  2  0
 27 28  1  0
M  END
$$$$
