FNK.pdb
     RDKit          3D

 29 29  0  0  1  0  0  0  0  0999 V2000
    6.8137  -18.0751   19.1739 N   0  0  0  0  0  0  0  0  0  0  0  0
    7.3482  -16.7703   19.3961 C   0  0  1  0  0  0  0  0  0  0  0  0
    6.6436  -16.0516   20.5578 C   0  0  0  0  0  0  0  0  0  0  0  0
    7.1996  -14.6853   20.7096 C   0  0  0  0  0  0  0  0  0  0  0  0
    7.8023  -14.3484   21.9148 C   0  0  0  0  0  0  0  0  0  0  0  0
    8.3396  -13.0872   22.1147 C   0  0  0  0  0  0  0  0  0  0  0  0
    8.2825  -12.1442   21.1131 C   0  0  0  0  0  0  0  0  0  0  0  0
    7.6757  -12.4908   19.9070 C   0  0  0  0  0  0  0  0  0  0  0  0
    7.1384  -13.7567   19.7123 C   0  0  0  0  0  0  0  0  0  0  0  0
    8.7946  -16.7797   19.7279 C   0  0  0  0  0  0  0  0  0  0  0  0
    9.3058  -17.6629   20.4569 O   0  0  0  0  0  0  0  0  0  0  0  0
   14.2559  -14.1192   18.7202 N   0  0  0  0  0  0  0  0  0  0  0  0
   13.3379  -15.1760   18.5274 C   0  0  0  0  0  0  0  0  0  0  0  0
   13.7867  -16.3435   18.3971 O   0  0  0  0  0  0  0  0  0  0  0  0
   11.8691  -14.8881   18.4862 C   0  0  0  0  0  0  0  0  0  0  0  0
   11.1136  -15.8933   19.3094 C   0  0  2  0  0  0  0  0  0  0  0  0
    9.7036  -15.7908   19.2434 N   0  0  0  0  0  0  0  0  0  0  0  0
   11.5538  -15.7206   20.7139 C   0  0  0  0  0  0  0  0  0  0  0  0
   11.4077  -14.6053   21.2831 O   0  0  0  0  0  0  0  0  0  0  0  0
   12.1451  -16.7553   21.4806 N   0  0  0  0  0  0  0  0  0  0  0  0
   12.7061  -16.4845   22.7868 C   0  0  1  0  0  0  0  0  0  0  0  0
   12.8297  -17.7430   23.6181 C   0  0  0  0  0  0  0  0  0  0  0  0
   11.5005  -17.9392   24.3344 C   0  0  0  0  0  0  0  0  0  0  0  0
   11.5764  -19.1737   25.2141 C   0  0  0  0  0  0  0  0  0  0  0  0
   10.2645  -19.3658   25.9228 C   0  0  0  0  0  0  0  0  0  0  0  0
   10.3544  -20.5215   26.8052 N   0  0  0  0  0  0  0  0  0  0  0  0
   14.0276  -15.8424   22.5895 C   0  0  0  0  0  0  0  0  0  0  0  0
   14.7153  -15.9275   21.3684 O   0  0  0  0  0  0  0  0  0  0  0  0
   14.5694  -15.2052   23.5063 O   0  0  0  0  0  0  0  0  0  0  0  0
  2  1  1  1
  2  3  1  0
  2 10  1  0
  3  4  1  0
  4  9  2  0
  5  6  2  0
  5  4  1  0
  6  7  1  0
  7  8  2  0
  9  8  1  0
 10 17  1  0
 10 11  2  0
 13 15  1  0
 13 12  1  0
 14 13  2  0
 16 15  1  6
 16 18  1  0
 17 16  1  0
 18 19  2  0
 20 18  1  0
 20 21  1  0
 21 27  1  0
 21 22  1  6
 23 22  1  0
 24 23  1  0
 25 24  1  0
 26 25  1  0
 27 29  2  0
 27 28  1  0
M  END
$$$$
