FNK.pdb
     RDKit          3D

 29 29  0  0  1  0  0  0  0  0999 V2000
    6.4048  -16.1988   25.6527 N   0  0  0  0  0  0  0  0  0  0  0  0
    6.2795  -15.7727   24.2961 C   0  0  1  0  0  0  0  0  0  0  0  0
    6.0127  -14.2626   24.1911 C   0  0  0  0  0  0  0  0  0  0  0  0
    6.5799  -13.5725   25.3746 C   0  0  0  0  0  0  0  0  0  0  0  0
    7.9433  -13.3079   25.3936 C   0  0  0  0  0  0  0  0  0  0  0  0
    8.5297  -12.6660   26.4722 C   0  0  0  0  0  0  0  0  0  0  0  0
    7.7620  -12.2787   27.5476 C   0  0  0  0  0  0  0  0  0  0  0  0
    6.3947  -12.5483   27.5202 C   0  0  0  0  0  0  0  0  0  0  0  0
    5.8124  -13.1926   26.4363 C   0  0  0  0  0  0  0  0  0  0  0  0
    7.4935  -16.0387   23.4852 C   0  0  0  0  0  0  0  0  0  0  0  0
    8.2517  -17.0101   23.7187 O   0  0  0  0  0  0  0  0  0  0  0  0
    7.6692  -12.8908   19.3663 N   0  0  0  0  0  0  0  0  0  0  0  0
    8.1814  -14.1870   19.5997 C   0  0  0  0  0  0  0  0  0  0  0  0
    7.6667  -15.1547   18.9831 O   0  0  0  0  0  0  0  0  0  0  0  0
    9.3134  -14.3783   20.5607 C   0  0  0  0  0  0  0  0  0  0  0  0
    8.9902  -15.4695   21.5425 C   0  0  2  0  0  0  0  0  0  0  0  0
    7.8834  -15.2140   22.3867 N   0  0  0  0  0  0  0  0  0  0  0  0
   10.2015  -15.6794   22.3701 C   0  0  0  0  0  0  0  0  0  0  0  0
   10.5427  -14.8065   23.2132 O   0  0  0  0  0  0  0  0  0  0  0  0
   11.0250  -16.8286   22.2730 N   0  0  0  0  0  0  0  0  0  0  0  0
   11.9579  -17.1653   23.3268 C   0  0  1  0  0  0  0  0  0  0  0  0
   11.9551  -18.6484   23.6282 C   0  0  0  0  0  0  0  0  0  0  0  0
   13.0426  -18.8971   24.6644 C   0  0  0  0  0  0  0  0  0  0  0  0
   12.4061  -19.3246   25.9742 C   0  0  0  0  0  0  0  0  0  0  0  0
   13.4714  -19.4726   27.0246 C   0  0  0  0  0  0  0  0  0  0  0  0
   12.8468  -19.7102   28.3191 N   0  0  0  0  0  0  0  0  0  0  0  0
   13.3037  -16.7081   22.9054 C   0  0  0  0  0  0  0  0  0  0  0  0
   14.2990  -16.3814   23.8403 O   0  0  0  0  0  0  0  0  0  0  0  0
   13.5922  -16.5999   21.7033 O   0  0  0  0  0  0  0  0  0  0  0  0
  2  1  1  1
  2  3  1  0
  2 10  1  0
  3  4  1  0
  4  9  2  0
  5  6  2  0
  5  4  1  0
  6  7  1  0
  7  8  2  0
  9  8  1  0
 10 17  1  0
 10 11  2  0
 13 15  1  0
 13 12  1  0
 14 13  2  0
 16 15  1  6
 16 18  1  0
 17 16  1  0
 18 19  2  0
 20 18  1  0
 20 21  1  0
 21 27  1  0
 21 22  1  6
 23 22  1  0
 24 23  1  0
 25 24  1  0
 26 25  1  0
 27 29  2  0
 27 28  1  0
M  END
$$$$
