FNK.pdb
     RDKit          3D

 29 29  0  0  1  0  0  0  0  0999 V2000
    7.8664  -16.1154   25.4823 N   0  0  0  0  0  0  0  0  0  0  0  0
    7.0444  -16.2592   24.3242 C   0  0  1  0  0  0  0  0  0  0  0  0
    5.9887  -15.1461   24.2278 C   0  0  0  0  0  0  0  0  0  0  0  0
    6.4891  -13.9244   24.9030 C   0  0  0  0  0  0  0  0  0  0  0  0
    6.0555  -13.6607   26.1960 C   0  0  0  0  0  0  0  0  0  0  0  0
    6.4889  -12.5348   26.8771 C   0  0  0  0  0  0  0  0  0  0  0  0
    7.3622  -11.6561   26.2761 C   0  0  0  0  0  0  0  0  0  0  0  0
    7.7920  -11.9286   24.9784 C   0  0  0  0  0  0  0  0  0  0  0  0
    7.3538  -13.0587   24.3002 C   0  0  0  0  0  0  0  0  0  0  0  0
    7.8111  -16.2173   23.0543 C   0  0  0  0  0  0  0  0  0  0  0  0
    7.3897  -16.7555   22.0028 O   0  0  0  0  0  0  0  0  0  0  0  0
   11.9448  -16.5471   19.7669 N   0  0  0  0  0  0  0  0  0  0  0  0
   12.2534  -15.8562   20.9604 C   0  0  0  0  0  0  0  0  0  0  0  0
   13.4447  -15.8585   21.3633 O   0  0  0  0  0  0  0  0  0  0  0  0
   11.1706  -15.1425   21.7087 C   0  0  0  0  0  0  0  0  0  0  0  0
   10.2190  -16.1296   22.3242 C   0  0  2  0  0  0  0  0  0  0  0  0
    9.0757  -15.5645   22.9378 N   0  0  0  0  0  0  0  0  0  0  0  0
   10.9865  -16.9006   23.3305 C   0  0  0  0  0  0  0  0  0  0  0  0
   11.9907  -17.5728   22.9715 O   0  0  0  0  0  0  0  0  0  0  0  0
   10.6564  -16.9335   24.7082 N   0  0  0  0  0  0  0  0  0  0  0  0
   11.4715  -17.6699   25.6502 C   0  0  1  0  0  0  0  0  0  0  0  0
   10.8393  -17.7177   27.0244 C   0  0  0  0  0  0  0  0  0  0  0  0
   11.6243  -18.7330   27.8437 C   0  0  0  0  0  0  0  0  0  0  0  0
   11.0011  -18.8627   29.2215 C   0  0  0  0  0  0  0  0  0  0  0  0
   11.8317  -19.7923   30.0620 C   0  0  0  0  0  0  0  0  0  0  0  0
   11.2045  -19.9581   31.3663 N   0  0  0  0  0  0  0  0  0  0  0  0
   11.6732  -19.0344   25.1069 C   0  0  0  0  0  0  0  0  0  0  0  0
   12.9491  -19.6140   25.0206 O   0  0  0  0  0  0  0  0  0  0  0  0
   10.7114  -19.7102   24.7091 O   0  0  0  0  0  0  0  0  0  0  0  0
  2  1  1  1
  2  3  1  0
  2 10  1  0
  3  4  1  0
  4  9  2  0
  5  6  2  0
  5  4  1  0
  6  7  1  0
  7  8  2  0
  9  8  1  0
 10 17  1  0
 10 11  2  0
 13 15  1  0
 13 12  1  0
 14 13  2  0
 16 15  1  1
 16 18  1  0
 17 16  1  0
 18 19  2  0
 20 18  1  0
 20 21  1  0
 21 27  1  0
 21 22  1  1
 23 22  1  0
 24 23  1  0
 25 24  1  0
 26 25  1  0
 27 29  2  0
 27 28  1  0
M  END
$$$$
