FNK.pdb
     RDKit          3D

 29 29  0  0  1  0  0  0  0  0999 V2000
    5.6589  -17.6898   25.2225 N   0  0  0  0  0  0  0  0  0  0  0  0
    6.4374  -16.5103   25.0213 C   0  0  1  0  0  0  0  0  0  0  0  0
    6.9547  -15.9307   26.3475 C   0  0  0  0  0  0  0  0  0  0  0  0
    6.9373  -14.4493   26.2849 C   0  0  0  0  0  0  0  0  0  0  0  0
    5.7278  -13.7948   26.4799 C   0  0  0  0  0  0  0  0  0  0  0  0
    5.6500  -12.4124   26.4329 C   0  0  0  0  0  0  0  0  0  0  0  0
    6.7798  -11.6637   26.1905 C   0  0  0  0  0  0  0  0  0  0  0  0
    7.9893  -12.3288   25.9958 C   0  0  0  0  0  0  0  0  0  0  0  0
    8.0612  -13.7150   26.0436 C   0  0  0  0  0  0  0  0  0  0  0  0
    7.6324  -16.7365   24.1711 C   0  0  0  0  0  0  0  0  0  0  0  0
    8.3848  -17.7275   24.3283 O   0  0  0  0  0  0  0  0  0  0  0  0
   10.0499  -16.2346   19.0068 N   0  0  0  0  0  0  0  0  0  0  0  0
   10.3210  -15.4968   20.1812 C   0  0  0  0  0  0  0  0  0  0  0  0
   11.5132  -15.1840   20.4306 O   0  0  0  0  0  0  0  0  0  0  0  0
    9.1976  -15.1050   21.0903 C   0  0  0  0  0  0  0  0  0  0  0  0
    9.1222  -16.0397   22.2649 C   0  0  2  0  0  0  0  0  0  0  0  0
    8.0095  -15.8485   23.1183 N   0  0  0  0  0  0  0  0  0  0  0  0
   10.3726  -15.8618   23.0401 C   0  0  0  0  0  0  0  0  0  0  0  0
   10.5023  -14.8633   23.7986 O   0  0  0  0  0  0  0  0  0  0  0  0
   11.4629  -16.7652   22.9829 N   0  0  0  0  0  0  0  0  0  0  0  0
   12.3677  -16.9096   24.1030 C   0  0  1  0  0  0  0  0  0  0  0  0
   11.8426  -17.8918   25.1276 C   0  0  0  0  0  0  0  0  0  0  0  0
   12.8572  -17.9416   26.2617 C   0  0  0  0  0  0  0  0  0  0  0  0
   12.3996  -18.9420   27.3073 C   0  0  0  0  0  0  0  0  0  0  0  0
   13.3769  -18.9557   28.4497 C   0  0  0  0  0  0  0  0  0  0  0  0
   12.8314  -19.7458   29.5453 N   0  0  0  0  0  0  0  0  0  0  0  0
   13.6824  -17.3426   23.5723 C   0  0  0  0  0  0  0  0  0  0  0  0
   14.8708  -16.6744   23.9078 O   0  0  0  0  0  0  0  0  0  0  0  0
   13.7716  -18.3171   22.8090 O   0  0  0  0  0  0  0  0  0  0  0  0
  2  1  1  1
  2  3  1  0
  2 10  1  0
  3  4  1  0
  4  9  2  0
  5  6  2  0
  5  4  1  0
  6  7  1  0
  7  8  2  0
  9  8  1  0
 10 17  1  0
 10 11  2  0
 13 15  1  0
 13 12  1  0
 14 13  2  0
 16 15  1  6
 16 18  1  0
 17 16  1  0
 18 19  2  0
 20 18  1  0
 20 21  1  0
 21 27  1  0
 21 22  1  1
 23 22  1  0
 24 23  1  0
 25 24  1  0
 26 25  1  0
 27 29  2  0
 27 28  1  0
M  END
$$$$
