FNK.pdb
     RDKit          3D

 29 29  0  0  1  0  0  0  0  0999 V2000
    7.8227  -16.4492   27.2167 N   0  0  0  0  0  0  0  0  0  0  0  0
    7.0342  -16.5292   26.0294 C   0  0  1  0  0  0  0  0  0  0  0  0
    7.0103  -15.1956   25.2654 C   0  0  0  0  0  0  0  0  0  0  0  0
    7.0251  -14.0686   26.2289 C   0  0  0  0  0  0  0  0  0  0  0  0
    5.8094  -13.5602   26.6683 C   0  0  0  0  0  0  0  0  0  0  0  0
    5.7605  -12.5080   27.5682 C   0  0  0  0  0  0  0  0  0  0  0  0
    6.9258  -11.9485   28.0423 C   0  0  0  0  0  0  0  0  0  0  0  0
    8.1413  -12.4649   27.5960 C   0  0  0  0  0  0  0  0  0  0  0  0
    8.1842  -13.5196   26.6934 C   0  0  0  0  0  0  0  0  0  0  0  0
    7.5237  -17.5502   25.0702 C   0  0  0  0  0  0  0  0  0  0  0  0
    8.5283  -18.2621   25.3089 O   0  0  0  0  0  0  0  0  0  0  0  0
    4.2847  -17.7129   21.9813 N   0  0  0  0  0  0  0  0  0  0  0  0
    5.4955  -18.0864   21.3557 C   0  0  0  0  0  0  0  0  0  0  0  0
    5.8748  -17.4367   20.3480 O   0  0  0  0  0  0  0  0  0  0  0  0
    6.2930  -19.2304   21.9007 C   0  0  0  0  0  0  0  0  0  0  0  0
    7.3422  -18.7321   22.8546 C   0  0  2  0  0  0  0  0  0  0  0  0
    6.8899  -17.7954   23.8143 N   0  0  0  0  0  0  0  0  0  0  0  0
    8.4145  -18.1185   22.0361 C   0  0  0  0  0  0  0  0  0  0  0  0
    9.0326  -18.8175   21.1885 O   0  0  0  0  0  0  0  0  0  0  0  0
    8.8020  -16.7600   22.1470 N   0  0  0  0  0  0  0  0  0  0  0  0
    9.9513  -16.2541   21.4277 C   0  0  1  0  0  0  0  0  0  0  0  0
    9.7078  -14.8623   20.8855 C   0  0  0  0  0  0  0  0  0  0  0  0
    8.6993  -14.9929   19.7524 C   0  0  0  0  0  0  0  0  0  0  0  0
    8.5882  -13.6694   19.0179 C   0  0  0  0  0  0  0  0  0  0  0  0
    7.5378  -13.7764   17.9476 C   0  0  0  0  0  0  0  0  0  0  0  0
    7.4631  -12.5202   17.2138 N   0  0  0  0  0  0  0  0  0  0  0  0
   11.1101  -16.2724   22.3521 C   0  0  0  0  0  0  0  0  0  0  0  0
   10.9672  -16.6027   23.7092 O   0  0  0  0  0  0  0  0  0  0  0  0
   12.2504  -15.9938   21.9496 O   0  0  0  0  0  0  0  0  0  0  0  0
  2  1  1  1
  2  3  1  0
  2 10  1  0
  3  4  1  0
  4  9  2  0
  5  6  2  0
  5  4  1  0
  6  7  1  0
  7  8  2  0
  9  8  1  0
 10 17  1  0
 10 11  2  0
 13 15  1  0
 13 12  1  0
 14 13  2  0
 16 15  1  6
 16 18  1  0
 17 16  1  0
 18 19  2  0
 20 18  1  0
 20 21  1  0
 21 27  1  0
 21 22  1  1
 23 22  1  0
 24 23  1  0
 25 24  1  0
 26 25  1  0
 27 29  2  0
 27 28  1  0
M  END
$$$$
