FNK.pdb
     RDKit          3D

 29 29  0  0  1  0  0  0  0  0999 V2000
    7.0149  -18.2404   19.6421 N   0  0  0  0  0  0  0  0  0  0  0  0
    7.4257  -16.9888   20.1920 C   0  0  1  0  0  0  0  0  0  0  0  0
    6.2360  -16.1845   20.7401 C   0  0  0  0  0  0  0  0  0  0  0  0
    6.7057  -14.8608   21.2156 C   0  0  0  0  0  0  0  0  0  0  0  0
    6.7969  -14.6459   22.5848 C   0  0  0  0  0  0  0  0  0  0  0  0
    7.2292  -13.4297   23.0879 C   0  0  0  0  0  0  0  0  0  0  0  0
    7.5770  -12.4104   22.2300 C   0  0  0  0  0  0  0  0  0  0  0  0
    7.4823  -12.6348   20.8575 C   0  0  0  0  0  0  0  0  0  0  0  0
    7.0478  -13.8560   20.3588 C   0  0  0  0  0  0  0  0  0  0  0  0
    8.3856  -17.1304   21.3148 C   0  0  0  0  0  0  0  0  0  0  0  0
    8.2373  -17.9915   22.2144 O   0  0  0  0  0  0  0  0  0  0  0  0
   13.8014  -17.4840   22.6353 N   0  0  0  0  0  0  0  0  0  0  0  0
   13.0241  -16.3253   22.8591 C   0  0  0  0  0  0  0  0  0  0  0  0
   13.2691  -15.6263   23.8753 O   0  0  0  0  0  0  0  0  0  0  0  0
   11.9417  -15.9569   21.8924 C   0  0  0  0  0  0  0  0  0  0  0  0
   10.6386  -16.5865   22.2980 C   0  0  2  0  0  0  0  0  0  0  0  0
    9.5410  -16.3024   21.4510 N   0  0  0  0  0  0  0  0  0  0  0  0
   10.3372  -16.1119   23.6692 C   0  0  0  0  0  0  0  0  0  0  0  0
    9.6139  -15.0926   23.8339 O   0  0  0  0  0  0  0  0  0  0  0  0
   10.8225  -16.7455   24.8401 N   0  0  0  0  0  0  0  0  0  0  0  0
    9.9192  -17.4135   25.7522 C   0  0  1  0  0  0  0  0  0  0  0  0
    9.1115  -18.4885   25.0577 C   0  0  0  0  0  0  0  0  0  0  0  0
    8.2261  -19.1362   26.1136 C   0  0  0  0  0  0  0  0  0  0  0  0
    7.4211  -20.2570   25.4817 C   0  0  0  0  0  0  0  0  0  0  0  0
    6.5276  -20.8788   26.5186 C   0  0  0  0  0  0  0  0  0  0  0  0
    5.8819  -22.0584   25.9583 N   0  0  0  0  0  0  0  0  0  0  0  0
   10.7275  -17.9823   26.8570 C   0  0  0  0  0  0  0  0  0  0  0  0
   10.7374  -17.4062   28.1374 O   0  0  0  0  0  0  0  0  0  0  0  0
   11.4253  -18.9933   26.6808 O   0  0  0  0  0  0  0  0  0  0  0  0
  2  1  1  1
  2  3  1  0
  2 10  1  0
  3  4  1  0
  4  9  2  0
  5  6  2  0
  5  4  1  0
  6  7  1  0
  7  8  2  0
  9  8  1  0
 10 17  1  0
 10 11  2  0
 13 15  1  0
 13 12  1  0
 14 13  2  0
 16 15  1  6
 16 18  1  0
 17 16  1  0
 18 19  2  0
 20 18  1  0
 20 21  1  0
 21 27  1  0
 21 22  1  6
 23 22  1  0
 24 23  1  0
 25 24  1  0
 26 25  1  0
 27 29  2  0
 27 28  1  0
M  END
$$$$
