FNK.pdb
     RDKit          3D

 29 29  0  0  1  0  0  0  0  0999 V2000
    7.4400  -16.7301   27.3118 N   0  0  0  0  0  0  0  0  0  0  0  0
    7.2129  -16.2351   25.9923 C   0  0  1  0  0  0  0  0  0  0  0  0
    8.0440  -14.9754   25.7008 C   0  0  0  0  0  0  0  0  0  0  0  0
    7.4799  -13.8228   26.4440 C   0  0  0  0  0  0  0  0  0  0  0  0
    8.3550  -12.9787   27.1154 C   0  0  0  0  0  0  0  0  0  0  0  0
    7.8864  -11.8859   27.8264 C   0  0  0  0  0  0  0  0  0  0  0  0
    6.5362  -11.6206   27.8767 C   0  0  0  0  0  0  0  0  0  0  0  0
    5.6652  -12.4731   27.2000 C   0  0  0  0  0  0  0  0  0  0  0  0
    6.1408  -13.5673   26.4892 C   0  0  0  0  0  0  0  0  0  0  0  0
    7.5569  -17.2156   24.9329 C   0  0  0  0  0  0  0  0  0  0  0  0
    8.2047  -18.2614   25.1769 O   0  0  0  0  0  0  0  0  0  0  0  0
    4.4655  -17.3537   20.9179 N   0  0  0  0  0  0  0  0  0  0  0  0
    5.5211  -18.1087   21.4770 C   0  0  0  0  0  0  0  0  0  0  0  0
    5.2339  -19.1033   22.1910 O   0  0  0  0  0  0  0  0  0  0  0  0
    6.9408  -17.7162   21.2083 C   0  0  0  0  0  0  0  0  0  0  0  0
    7.7433  -17.7457   22.4787 C   0  0  2  0  0  0  0  0  0  0  0  0
    7.1767  -17.0412   23.5675 N   0  0  0  0  0  0  0  0  0  0  0  0
    9.0741  -17.1749   22.1630 C   0  0  0  0  0  0  0  0  0  0  0  0
    9.6890  -16.5018   23.0336 O   0  0  0  0  0  0  0  0  0  0  0  0
    9.7186  -17.3402   20.9119 N   0  0  0  0  0  0  0  0  0  0  0  0
   10.8008  -16.4664   20.5126 C   0  0  1  0  0  0  0  0  0  0  0  0
   10.3149  -15.0610   20.2314 C   0  0  0  0  0  0  0  0  0  0  0  0
    9.4289  -15.1322   18.9952 C   0  0  0  0  0  0  0  0  0  0  0  0
    8.8342  -13.7635   18.7186 C   0  0  0  0  0  0  0  0  0  0  0  0
    7.9752  -13.8296   17.4866 C   0  0  0  0  0  0  0  0  0  0  0  0
    7.4124  -12.5134   17.2162 N   0  0  0  0  0  0  0  0  0  0  0  0
   11.8146  -16.4750   21.5942 C   0  0  0  0  0  0  0  0  0  0  0  0
   11.4719  -16.2102   22.9298 O   0  0  0  0  0  0  0  0  0  0  0  0
   13.0063  -16.7187   21.3483 O   0  0  0  0  0  0  0  0  0  0  0  0
  2  1  1  1
  2  3  1  0
  2 10  1  0
  3  4  1  0
  4  9  2  0
  5  6  2  0
  5  4  1  0
  6  7  1  0
  7  8  2  0
  9  8  1  0
 10 17  1  0
 10 11  2  0
 13 15  1  0
 13 12  1  0
 14 13  2  0
 16 15  1  6
 16 18  1  0
 17 16  1  0
 18 19  2  0
 20 18  1  0
 20 21  1  0
 21 27  1  0
 21 22  1  1
 23 22  1  0
 24 23  1  0
 25 24  1  0
 26 25  1  0
 27 29  2  0
 27 28  1  0
M  END
$$$$
