FNK.pdb
     RDKit          3D

 29 29  0  0  1  0  0  0  0  0999 V2000
    5.4088  -17.6168   24.3662 N   0  0  0  0  0  0  0  0  0  0  0  0
    6.1315  -16.3858   24.3604 C   0  0  1  0  0  0  0  0  0  0  0  0
    6.4190  -15.8821   25.7838 C   0  0  0  0  0  0  0  0  0  0  0  0
    6.4945  -14.4012   25.7830 C   0  0  0  0  0  0  0  0  0  0  0  0
    5.3447  -13.6819   26.0825 C   0  0  0  0  0  0  0  0  0  0  0  0
    5.3544  -12.2966   26.0972 C   0  0  0  0  0  0  0  0  0  0  0  0
    6.5135  -11.6098   25.8131 C   0  0  0  0  0  0  0  0  0  0  0  0
    7.6627  -12.3398   25.5135 C   0  0  0  0  0  0  0  0  0  0  0  0
    7.6468  -13.7286   25.4998 C   0  0  0  0  0  0  0  0  0  0  0  0
    7.4464  -16.4832   23.6794 C   0  0  0  0  0  0  0  0  0  0  0  0
    8.1613  -17.5110   23.7533 O   0  0  0  0  0  0  0  0  0  0  0  0
    7.6344  -12.8524   20.3187 N   0  0  0  0  0  0  0  0  0  0  0  0
    8.2183  -14.1385   20.3630 C   0  0  0  0  0  0  0  0  0  0  0  0
    7.6908  -15.0597   19.6888 O   0  0  0  0  0  0  0  0  0  0  0  0
    9.4389  -14.3736   21.1977 C   0  0  0  0  0  0  0  0  0  0  0  0
    9.2024  -15.4955   22.1695 C   0  0  2  0  0  0  0  0  0  0  0  0
    7.9893  -15.4209   22.8945 N   0  0  0  0  0  0  0  0  0  0  0  0
   10.3421  -15.4946   23.1168 C   0  0  0  0  0  0  0  0  0  0  0  0
   11.5222  -15.4466   22.6763 O   0  0  0  0  0  0  0  0  0  0  0  0
   10.1884  -15.5461   24.5246 N   0  0  0  0  0  0  0  0  0  0  0  0
   11.3240  -15.7909   25.3875 C   0  0  1  0  0  0  0  0  0  0  0  0
   10.8950  -16.2210   26.7736 C   0  0  0  0  0  0  0  0  0  0  0  0
   12.1620  -16.5364   27.5570 C   0  0  0  0  0  0  0  0  0  0  0  0
   11.8582  -17.5858   28.6105 C   0  0  0  0  0  0  0  0  0  0  0  0
   13.1097  -17.8978   29.3831 C   0  0  0  0  0  0  0  0  0  0  0  0
   12.8448  -18.9832   30.3180 N   0  0  0  0  0  0  0  0  0  0  0  0
   12.1687  -16.8255   24.7444 C   0  0  0  0  0  0  0  0  0  0  0  0
   11.6101  -17.8806   24.0053 O   0  0  0  0  0  0  0  0  0  0  0  0
   13.4054  -16.7889   24.8414 O   0  0  0  0  0  0  0  0  0  0  0  0
  2  1  1  1
  2  3  1  0
  2 10  1  0
  3  4  1  0
  4  9  2  0
  5  6  2  0
  5  4  1  0
  6  7  1  0
  7  8  2  0
  9  8  1  0
 10 17  1  0
 10 11  2  0
 13 15  1  0
 13 12  1  0
 14 13  2  0
 16 15  1  6
 16 18  1  0
 17 16  1  0
 18 19  2  0
 20 18  1  0
 20 21  1  0
 21 27  1  0
 21 22  1  1
 23 22  1  0
 24 23  1  0
 25 24  1  0
 26 25  1  0
 27 29  2  0
 27 28  1  0
M  END
$$$$
