LCT.pdb
     RDKit          3D

 22 21  0  0  1  0  0  0  0  0999 V2000
   10.9870  -12.1414  -12.3663 C   0  0  0  0  0  0  0  0  0  0  0  0
   11.4686  -12.9237  -11.1884 C   0  0  2  0  0  0  0  0  0  0  0  0
   10.3512  -12.9941  -10.1803 C   0  0  0  0  0  0  0  0  0  0  0  0
   12.7609  -12.4781  -10.6147 C   0  0  0  0  0  0  0  0  0  0  0  0
   13.9081  -12.3942  -11.5728 C   0  0  2  0  0  0  0  0  0  0  0  0
   14.4352  -13.6646  -11.9632 N   0  0  0  0  0  0  0  0  0  0  0  0
   14.9370  -11.4107  -11.1488 C   0  0  0  0  0  0  0  0  0  0  0  0
   15.6760  -11.7526  -10.1864 O   0  0  0  0  0  0  0  0  0  0  0  0
   15.1228  -10.1415  -11.7570 N   0  0  0  0  0  0  0  0  0  0  0  0
   16.0662   -9.2351  -11.1978 C   0  0  1  0  0  0  0  0  0  0  0  0
   17.2949   -9.2074  -12.0963 C   0  0  0  0  0  0  0  0  0  0  0  0
   17.1678  -10.3733  -13.4635 S   0  0  0  0  0  0  0  0  0  0  0  0
   15.5295   -7.8730  -10.9799 C   0  0  0  0  0  0  0  0  0  0  0  0
   14.7278   -7.2940  -11.7411 O   0  0  0  0  0  0  0  0  0  0  0  0
   14.7675   -6.4191   -7.1937 C   0  0  0  0  0  0  0  0  0  0  0  0
   15.6844   -5.5229   -8.0039 C   0  0  1  0  0  0  0  0  0  0  0  0
   16.9931   -5.8772   -7.6433 O   0  0  0  0  0  0  0  0  0  0  0  0
   15.4784   -5.8578   -9.4528 C   0  0  2  0  0  0  0  0  0  0  0  0
   15.9447   -7.1542   -9.8250 N   0  0  0  0  0  0  0  0  0  0  0  0
   16.0171   -4.8317  -10.3493 C   0  0  0  0  0  0  0  0  0  0  0  0
   15.5394   -3.5315  -10.4253 O   0  0  0  0  0  0  0  0  0  0  0  0
   16.9776   -5.1173  -11.1143 O   0  0  0  0  0  0  0  0  0  0  0  0
  2  1  1  6
  2  4  1  0
  3  2  1  0
  4  5  1  0
  5  6  1  1
  5  7  1  0
  7  8  2  0
  9  7  1  0
  9 10  1  0
 10 11  1  6
 11 12  1  0
 13 10  1  0
 13 19  1  0
 14 13  2  0
 16 15  1  1
 16 17  1  0
 18 19  1  6
 18 16  1  0
 20 18  1  0
 20 21  1  0
 22 20  2  0
M  END
$$$$
