LCT.pdb
     RDKit          3D

 22 21  0  0  1  0  0  0  0  0999 V2000
   26.6127  -11.2332  -14.8264 C   0  0  0  0  0  0  0  0  0  0  0  0
   26.4171  -10.8559  -16.2584 C   0  0  2  0  0  0  0  0  0  0  0  0
   27.7053  -10.2662  -16.7709 C   0  0  0  0  0  0  0  0  0  0  0  0
   25.2261  -10.0186  -16.5381 C   0  0  0  0  0  0  0  0  0  0  0  0
   23.9301  -10.5160  -15.9777 C   0  0  2  0  0  0  0  0  0  0  0  0
   23.4499  -11.7131  -16.5945 N   0  0  0  0  0  0  0  0  0  0  0  0
   22.9112   -9.4427  -15.8527 C   0  0  0  0  0  0  0  0  0  0  0  0
   22.3211   -9.1040  -16.9140 O   0  0  0  0  0  0  0  0  0  0  0  0
   22.5797   -8.7987  -14.6318 N   0  0  0  0  0  0  0  0  0  0  0  0
   21.5400   -7.8276  -14.6192 C   0  0  1  0  0  0  0  0  0  0  0  0
   20.6015   -8.1453  -13.4633 C   0  0  0  0  0  0  0  0  0  0  0  0
   19.8773   -9.7887  -13.6032 S   0  0  0  0  0  0  0  0  0  0  0  0
   22.0269   -6.4317  -14.5474 C   0  0  0  0  0  0  0  0  0  0  0  0
   22.8924   -6.0204  -13.7479 O   0  0  0  0  0  0  0  0  0  0  0  0
   22.6678   -4.4315  -17.8980 C   0  0  0  0  0  0  0  0  0  0  0  0
   21.8042   -3.5829  -16.9847 C   0  0  1  0  0  0  0  0  0  0  0  0
   20.4815   -3.7737  -17.4117 O   0  0  0  0  0  0  0  0  0  0  0  0
   21.9434   -4.1309  -15.5940 C   0  0  2  0  0  0  0  0  0  0  0  0
   21.4820   -5.4733  -15.4459 N   0  0  0  0  0  0  0  0  0  0  0  0
   21.3426   -3.2577  -14.5825 C   0  0  0  0  0  0  0  0  0  0  0  0
   21.8106   -1.9906  -14.2665 O   0  0  0  0  0  0  0  0  0  0  0  0
   20.3331   -3.6543  -13.9397 O   0  0  0  0  0  0  0  0  0  0  0  0
  2  1  1  1
  2  4  1  0
  3  2  1  0
  4  5  1  0
  5  6  1  6
  5  7  1  0
  7  8  2  0
  9  7  1  0
  9 10  1  0
 10 11  1  1
 11 12  1  0
 13 10  1  0
 13 19  1  0
 14 13  2  0
 16 15  1  6
 16 17  1  0
 18 19  1  6
 18 16  1  0
 20 18  1  0
 20 21  1  0
 22 20  2  0
M  END
$$$$
