LCT.pdb
     RDKit          3D

 22 21  0  0  1  0  0  0  0  0999 V2000
   18.8845  -18.3243  -12.9148 C   0  0  0  0  0  0  0  0  0  0  0  0
   19.8980  -18.3326  -14.0122 C   0  0  2  0  0  0  0  0  0  0  0  0
   21.0157  -19.2614  -13.6148 C   0  0  0  0  0  0  0  0  0  0  0  0
   20.3633  -16.9975  -14.4579 C   0  0  0  0  0  0  0  0  0  0  0  0
   19.2945  -16.0425  -14.8899 C   0  0  2  0  0  0  0  0  0  0  0  0
   18.2885  -16.6300  -15.7189 N   0  0  0  0  0  0  0  0  0  0  0  0
   19.8447  -14.7650  -15.4104 C   0  0  0  0  0  0  0  0  0  0  0  0
   20.7681  -14.2361  -14.7345 O   0  0  0  0  0  0  0  0  0  0  0  0
   19.3942  -14.1295  -16.5972 N   0  0  0  0  0  0  0  0  0  0  0  0
   20.0054  -12.9121  -17.0078 C   0  0  1  0  0  0  0  0  0  0  0  0
   20.6724  -13.1419  -18.3569 C   0  0  0  0  0  0  0  0  0  0  0  0
   22.0439  -14.3050  -18.2516 S   0  0  0  0  0  0  0  0  0  0  0  0
   19.0738  -11.7630  -17.0581 C   0  0  0  0  0  0  0  0  0  0  0  0
   17.9714  -11.7661  -17.6431 O   0  0  0  0  0  0  0  0  0  0  0  0
   17.4030  -10.1192  -14.3297 C   0  0  0  0  0  0  0  0  0  0  0  0
   18.2634   -9.0072  -14.8983 C   0  0  1  0  0  0  0  0  0  0  0  0
   19.4326   -8.9847  -14.1233 O   0  0  0  0  0  0  0  0  0  0  0  0
   18.6265   -9.3910  -16.3036 C   0  0  2  0  0  0  0  0  0  0  0  0
   19.4423  -10.5581  -16.3985 N   0  0  0  0  0  0  0  0  0  0  0  0
   19.2149   -8.2799  -17.0559 C   0  0  0  0  0  0  0  0  0  0  0  0
   18.5732   -7.0743  -17.2993 O   0  0  0  0  0  0  0  0  0  0  0  0
   20.3790   -8.3954  -17.5260 O   0  0  0  0  0  0  0  0  0  0  0  0
  2  1  1  1
  2  4  1  0
  3  2  1  0
  4  5  1  0
  5  6  1  6
  5  7  1  0
  7  8  2  0
  9  7  1  0
  9 10  1  0
 10 11  1  6
 11 12  1  0
 13 10  1  0
 13 19  1  0
 14 13  2  0
 16 15  1  1
 16 17  1  0
 18 19  1  1
 18 16  1  0
 20 18  1  0
 20 21  1  0
 22 20  2  0
M  END
$$$$
