LCT.pdb
     RDKit          3D

 22 21  0  0  1  0  0  0  0  0999 V2000
   41.2285  -12.8379   -9.0058 C   0  0  0  0  0  0  0  0  0  0  0  0
   42.4786  -12.4817   -9.7418 C   0  0  2  0  0  0  0  0  0  0  0  0
   42.0931  -11.9636  -11.1029 C   0  0  0  0  0  0  0  0  0  0  0  0
   43.5173  -13.5388   -9.7794 C   0  0  0  0  0  0  0  0  0  0  0  0
   43.8762  -14.1508   -8.4611 C   0  0  2  0  0  0  0  0  0  0  0  0
   44.4536  -13.2321   -7.5302 N   0  0  0  0  0  0  0  0  0  0  0  0
   44.6262  -15.4244   -8.6068 C   0  0  0  0  0  0  0  0  0  0  0  0
   45.8777  -15.3562   -8.4717 O   0  0  0  0  0  0  0  0  0  0  0  0
   44.0195  -16.6779   -8.8827 N   0  0  0  0  0  0  0  0  0  0  0  0
   44.8453  -17.8158   -9.1007 C   0  0  1  0  0  0  0  0  0  0  0  0
   44.0317  -19.0647   -8.7908 C   0  0  0  0  0  0  0  0  0  0  0  0
   44.8846  -20.5742   -9.2793 S   0  0  0  0  0  0  0  0  0  0  0  0
   45.4293  -17.8788  -10.4593 C   0  0  0  0  0  0  0  0  0  0  0  0
   44.7679  -17.9321  -11.5162 O   0  0  0  0  0  0  0  0  0  0  0  0
   47.9924  -15.5468  -11.8781 C   0  0  0  0  0  0  0  0  0  0  0  0
   48.6416  -16.9147  -11.9663 C   0  0  1  0  0  0  0  0  0  0  0  0
   49.4934  -17.0136  -10.8559 O   0  0  0  0  0  0  0  0  0  0  0  0
   47.5539  -17.9404  -11.8298 C   0  0  2  0  0  0  0  0  0  0  0  0
   46.8453  -17.8797  -10.5925 N   0  0  0  0  0  0  0  0  0  0  0  0
   48.0278  -19.3014  -12.0940 C   0  0  0  0  0  0  0  0  0  0  0  0
   48.1904  -19.8398  -13.3621 O   0  0  0  0  0  0  0  0  0  0  0  0
   48.3150  -20.0578  -11.1272 O   0  0  0  0  0  0  0  0  0  0  0  0
  2  1  1  6
  2  4  1  0
  3  2  1  0
  4  5  1  0
  5  6  1  1
  5  7  1  0
  7  8  2  0
  9  7  1  0
  9 10  1  0
 10 11  1  6
 11 12  1  0
 13 10  1  0
 13 19  1  0
 14 13  2  0
 16 15  1  1
 16 17  1  0
 18 19  1  1
 18 16  1  0
 20 18  1  0
 20 21  1  0
 22 20  2  0
M  END
$$$$
