LCT.pdb
     RDKit          3D

 22 21  0  0  1  0  0  0  0  0999 V2000
   14.4188  -12.6566  -17.9287 C   0  0  0  0  0  0  0  0  0  0  0  0
   15.3096  -13.2074  -16.8636 C   0  0  2  0  0  0  0  0  0  0  0  0
   14.5974  -14.3582  -16.2018 C   0  0  0  0  0  0  0  0  0  0  0  0
   15.8478  -12.2108  -15.9069 C   0  0  0  0  0  0  0  0  0  0  0  0
   16.4866  -11.0003  -16.5131 C   0  0  2  0  0  0  0  0  0  0  0  0
   17.6774  -11.2790  -17.2536 N   0  0  0  0  0  0  0  0  0  0  0  0
   16.6161   -9.8781  -15.5488 C   0  0  0  0  0  0  0  0  0  0  0  0
   15.7040   -9.7737  -14.6849 O   0  0  0  0  0  0  0  0  0  0  0  0
   17.6859   -8.9449  -15.5531 N   0  0  0  0  0  0  0  0  0  0  0  0
   17.7588   -7.9678  -14.5216 C   0  0  1  0  0  0  0  0  0  0  0  0
   19.2222   -7.6083  -14.3046 C   0  0  0  0  0  0  0  0  0  0  0  0
   20.1188   -8.8978  -13.4225 S   0  0  0  0  0  0  0  0  0  0  0  0
   16.9425   -6.7610  -14.7829 C   0  0  0  0  0  0  0  0  0  0  0  0
   16.9434   -6.1196  -15.8534 O   0  0  0  0  0  0  0  0  0  0  0  0
   13.1584   -6.5049  -13.7797 C   0  0  0  0  0  0  0  0  0  0  0  0
   13.8981   -5.3469  -13.1378 C   0  0  1  0  0  0  0  0  0  0  0  0
   14.1799   -5.7461  -11.8227 O   0  0  0  0  0  0  0  0  0  0  0  0
   15.1944   -5.1747  -13.8753 C   0  0  2  0  0  0  0  0  0  0  0  0
   16.0882   -6.2805  -13.7524 N   0  0  0  0  0  0  0  0  0  0  0  0
   15.8693   -3.9180  -13.5407 C   0  0  0  0  0  0  0  0  0  0  0  0
   15.3732   -2.6591  -13.8465 O   0  0  0  0  0  0  0  0  0  0  0  0
   16.9748   -3.9486  -12.9354 O   0  0  0  0  0  0  0  0  0  0  0  0
  2  1  1  6
  2  4  1  0
  3  2  1  0
  4  5  1  0
  5  6  1  1
  5  7  1  0
  7  8  2  0
  9  7  1  0
  9 10  1  0
 10 11  1  6
 11 12  1  0
 13 10  1  0
 13 19  1  0
 14 13  2  0
 16 15  1  6
 16 17  1  0
 18 19  1  1
 18 16  1  0
 20 18  1  0
 20 21  1  0
 22 20  2  0
M  END
$$$$
