LCT.pdb
     RDKit          3D

 22 21  0  0  1  0  0  0  0  0999 V2000
   16.1137  -11.8168  -17.4383 C   0  0  0  0  0  0  0  0  0  0  0  0
   15.9796  -12.1244  -15.9827 C   0  0  2  0  0  0  0  0  0  0  0  0
   14.5270  -12.3965  -15.6900 C   0  0  0  0  0  0  0  0  0  0  0  0
   16.5972  -11.1375  -15.0649 C   0  0  0  0  0  0  0  0  0  0  0  0
   18.0133  -10.7584  -15.3682 C   0  0  2  0  0  0  0  0  0  0  0  0
   18.9702  -11.7683  -15.0388 N   0  0  0  0  0  0  0  0  0  0  0  0
   18.3615   -9.4025  -14.8722 C   0  0  0  0  0  0  0  0  0  0  0  0
   18.1090   -9.1676  -13.6596 O   0  0  0  0  0  0  0  0  0  0  0  0
   18.9475   -8.3881  -15.6741 N   0  0  0  0  0  0  0  0  0  0  0  0
   19.3545   -7.1692  -15.0637 C   0  0  1  0  0  0  0  0  0  0  0  0
   20.8732   -7.0851  -15.1273 C   0  0  0  0  0  0  0  0  0  0  0  0
   21.6702   -8.3428  -14.1136 S   0  0  0  0  0  0  0  0  0  0  0  0
   18.7249   -5.9663  -15.6533 C   0  0  0  0  0  0  0  0  0  0  0  0
   18.4518   -5.8268  -16.8630 O   0  0  0  0  0  0  0  0  0  0  0  0
   16.4841   -1.6709  -14.6910 C   0  0  0  0  0  0  0  0  0  0  0  0
   17.2943   -2.8007  -14.0850 C   0  0  1  0  0  0  0  0  0  0  0  0
   16.3972   -3.5506  -13.3096 O   0  0  0  0  0  0  0  0  0  0  0  0
   17.7868   -3.6592  -15.2139 C   0  0  2  0  0  0  0  0  0  0  0  0
   18.3992   -4.8788  -14.7965 N   0  0  0  0  0  0  0  0  0  0  0  0
   18.6566   -2.9278  -16.1387 C   0  0  0  0  0  0  0  0  0  0  0  0
   18.2268   -2.3512  -17.3249 O   0  0  0  0  0  0  0  0  0  0  0  0
   19.8808   -2.7962  -15.8675 O   0  0  0  0  0  0  0  0  0  0  0  0
  2  1  1  6
  2  4  1  0
  3  2  1  0
  4  5  1  0
  5  6  1  1
  5  7  1  0
  7  8  2  0
  9  7  1  0
  9 10  1  0
 10 11  1  6
 11 12  1  0
 13 10  1  0
 13 19  1  0
 14 13  2  0
 16 15  1  6
 16 17  1  0
 18 19  1  1
 18 16  1  0
 20 18  1  0
 20 21  1  0
 22 20  2  0
M  END
$$$$
