LCT.pdb
     RDKit          3D

 22 21  0  0  1  0  0  0  0  0999 V2000
   26.8515  -24.1747  -17.1848 C   0  0  0  0  0  0  0  0  0  0  0  0
   27.1614  -22.7437  -16.8891 C   0  0  2  0  0  0  0  0  0  0  0  0
   28.5086  -22.6820  -16.2176 C   0  0  0  0  0  0  0  0  0  0  0  0
   26.1016  -21.9999  -16.1670 C   0  0  0  0  0  0  0  0  0  0  0  0
   24.7676  -21.9391  -16.8437 C   0  0  2  0  0  0  0  0  0  0  0  0
   24.8241  -21.5065  -18.2052 N   0  0  0  0  0  0  0  0  0  0  0  0
   23.7415  -21.2448  -16.0247 C   0  0  0  0  0  0  0  0  0  0  0  0
   23.6221  -21.6313  -14.8307 O   0  0  0  0  0  0  0  0  0  0  0  0
   22.9130  -20.1979  -16.5074 N   0  0  0  0  0  0  0  0  0  0  0  0
   21.9602  -19.6068  -15.6317 C   0  0  1  0  0  0  0  0  0  0  0  0
   22.2552  -18.1162  -15.5384 C   0  0  0  0  0  0  0  0  0  0  0  0
   21.1839  -17.2805  -14.3558 S   0  0  0  0  0  0  0  0  0  0  0  0
   20.5545  -19.8525  -16.0246 C   0  0  0  0  0  0  0  0  0  0  0  0
   20.0955  -19.6772  -17.1718 O   0  0  0  0  0  0  0  0  0  0  0  0
   16.1853  -21.6958  -14.6495 C   0  0  0  0  0  0  0  0  0  0  0  0
   17.6119  -21.4305  -14.2083 C   0  0  1  0  0  0  0  0  0  0  0  0
   18.2559  -22.6769  -14.2030 O   0  0  0  0  0  0  0  0  0  0  0  0
   18.2535  -20.5630  -15.2522 C   0  0  2  0  0  0  0  0  0  0  0  0
   19.6440  -20.3227  -15.0384 N   0  0  0  0  0  0  0  0  0  0  0  0
   17.5319  -19.3049  -15.4592 C   0  0  0  0  0  0  0  0  0  0  0  0
   16.5836  -19.1019  -16.4512 O   0  0  0  0  0  0  0  0  0  0  0  0
   17.7651  -18.3233  -14.7031 O   0  0  0  0  0  0  0  0  0  0  0  0
  2  1  1  1
  2  4  1  0
  3  2  1  0
  4  5  1  0
  5  6  1  6
  5  7  1  0
  7  8  2  0
  9  7  1  0
  9 10  1  0
 10 11  1  6
 11 12  1  0
 13 10  1  0
 13 19  1  0
 14 13  2  0
 16 15  1  6
 16 17  1  0
 18 19  1  1
 18 16  1  0
 20 18  1  0
 20 21  1  0
 22 20  2  0
M  END
$$$$
