LCT.pdb
     RDKit          3D

 22 21  0  0  1  0  0  0  0  0999 V2000
   20.1050  -15.5199  -19.2988 C   0  0  0  0  0  0  0  0  0  0  0  0
   20.7656  -15.6782  -17.9685 C   0  0  2  0  0  0  0  0  0  0  0  0
   20.1719  -16.8838  -17.2876 C   0  0  0  0  0  0  0  0  0  0  0  0
   20.7835  -14.4632  -17.1191 C   0  0  0  0  0  0  0  0  0  0  0  0
   21.4010  -13.2451  -17.7321 C   0  0  2  0  0  0  0  0  0  0  0  0
   22.6911  -13.4716  -18.3053 N   0  0  0  0  0  0  0  0  0  0  0  0
   21.3280  -12.0575  -16.8432 C   0  0  0  0  0  0  0  0  0  0  0  0
   20.2683  -11.9231  -16.1738 O   0  0  0  0  0  0  0  0  0  0  0  0
   22.3634  -11.0947  -16.7151 N   0  0  0  0  0  0  0  0  0  0  0  0
   22.2075  -10.0269  -15.7880 C   0  0  1  0  0  0  0  0  0  0  0  0
   23.5345   -9.8164  -15.0720 C   0  0  0  0  0  0  0  0  0  0  0  0
   23.9296  -11.1718  -13.9534 S   0  0  0  0  0  0  0  0  0  0  0  0
   21.7226   -8.7697  -16.4007 C   0  0  0  0  0  0  0  0  0  0  0  0
   22.2620   -8.1958  -17.3687 O   0  0  0  0  0  0  0  0  0  0  0  0
   17.9874   -8.1645  -17.2156 C   0  0  0  0  0  0  0  0  0  0  0  0
   18.4387   -7.0070  -16.3458 C   0  0  1  0  0  0  0  0  0  0  0  0
   18.0238   -7.3152  -15.0415 O   0  0  0  0  0  0  0  0  0  0  0  0
   19.9394   -6.9766  -16.3775 C   0  0  2  0  0  0  0  0  0  0  0  0
   20.5589   -8.1544  -15.8622 N   0  0  0  0  0  0  0  0  0  0  0  0
   20.4912   -5.7764  -15.7438 C   0  0  0  0  0  0  0  0  0  0  0  0
   20.2306   -4.4804  -16.1645 O   0  0  0  0  0  0  0  0  0  0  0  0
   21.2563   -5.8951  -14.7488 O   0  0  0  0  0  0  0  0  0  0  0  0
  2  1  1  6
  2  4  1  0
  3  2  1  0
  4  5  1  0
  5  6  1  1
  5  7  1  0
  7  8  2  0
  9  7  1  0
  9 10  1  0
 10 11  1  6
 11 12  1  0
 13 10  1  0
 13 19  1  0
 14 13  2  0
 16 15  1  6
 16 17  1  0
 18 19  1  1
 18 16  1  0
 20 18  1  0
 20 21  1  0
 22 20  2  0
M  END
$$$$
