LCT.pdb
     RDKit          3D

 22 21  0  0  1  0  0  0  0  0999 V2000
   16.1283  -14.6918  -16.7347 C   0  0  0  0  0  0  0  0  0  0  0  0
   17.3104  -14.8715  -15.8393 C   0  0  2  0  0  0  0  0  0  0  0  0
   16.9866  -15.9535  -14.8422 C   0  0  0  0  0  0  0  0  0  0  0  0
   17.8343  -13.6299  -15.2213 C   0  0  0  0  0  0  0  0  0  0  0  0
   18.1763  -12.5216  -16.1678 C   0  0  2  0  0  0  0  0  0  0  0  0
   19.1161  -12.8894  -17.1805 N   0  0  0  0  0  0  0  0  0  0  0  0
   18.4978  -11.2511  -15.4691 C   0  0  0  0  0  0  0  0  0  0  0  0
   17.7243  -10.9159  -14.5318 O   0  0  0  0  0  0  0  0  0  0  0  0
   19.6015  -10.4204  -15.7963 N   0  0  0  0  0  0  0  0  0  0  0  0
   19.7989   -9.2113  -15.0730 C   0  0  1  0  0  0  0  0  0  0  0  0
   21.2769   -9.0959  -14.7266 C   0  0  0  0  0  0  0  0  0  0  0  0
   21.6608   -7.5554  -13.8757 S   0  0  0  0  0  0  0  0  0  0  0  0
   19.3180   -8.0049  -15.7831 C   0  0  0  0  0  0  0  0  0  0  0  0
   19.6701   -7.6679  -16.9319 O   0  0  0  0  0  0  0  0  0  0  0  0
   15.5904   -7.0055  -15.9306 C   0  0  0  0  0  0  0  0  0  0  0  0
   16.3382   -5.8145  -15.3628 C   0  0  1  0  0  0  0  0  0  0  0  0
   16.1885   -5.8889  -13.9699 O   0  0  0  0  0  0  0  0  0  0  0  0
   17.7906   -5.9909  -15.6995 C   0  0  2  0  0  0  0  0  0  0  0  0
   18.3864   -7.1542  -15.1263 N   0  0  0  0  0  0  0  0  0  0  0  0
   18.5859   -4.7967  -15.4027 C   0  0  0  0  0  0  0  0  0  0  0  0
   18.3486   -3.5441  -15.9496 O   0  0  0  0  0  0  0  0  0  0  0  0
   19.5561   -4.8797  -14.6020 O   0  0  0  0  0  0  0  0  0  0  0  0
  2  1  1  1
  2  4  1  0
  3  2  1  0
  4  5  1  0
  5  6  1  1
  5  7  1  0
  7  8  2  0
  9  7  1  0
  9 10  1  0
 10 11  1  6
 11 12  1  0
 13 10  1  0
 13 19  1  0
 14 13  2  0
 16 15  1  6
 16 17  1  0
 18 19  1  1
 18 16  1  0
 20 18  1  0
 20 21  1  0
 22 20  2  0
M  END
$$$$
