LCT.pdb
     RDKit          3D

 22 21  0  0  1  0  0  0  0  0999 V2000
    9.7880  -12.9849  -10.5252 C   0  0  0  0  0  0  0  0  0  0  0  0
   11.0381  -13.7060  -10.9108 C   0  0  2  0  0  0  0  0  0  0  0  0
   11.0192  -15.0641  -10.2588 C   0  0  0  0  0  0  0  0  0  0  0  0
   12.2980  -12.9568  -10.6895 C   0  0  0  0  0  0  0  0  0  0  0  0
   12.3791  -11.6078  -11.3335 C   0  0  2  0  0  0  0  0  0  0  0  0
   12.0539  -11.6064  -12.7258 N   0  0  0  0  0  0  0  0  0  0  0  0
   13.6347  -10.8886  -10.9992 C   0  0  0  0  0  0  0  0  0  0  0  0
   13.9756  -10.8909   -9.7855 O   0  0  0  0  0  0  0  0  0  0  0  0
   14.4455  -10.2182  -11.9524 N   0  0  0  0  0  0  0  0  0  0  0  0
   15.5937   -9.5051  -11.5081 C   0  0  1  0  0  0  0  0  0  0  0  0
   16.7269   -9.7607  -12.4920 C   0  0  0  0  0  0  0  0  0  0  0  0
   18.2494   -8.9260  -12.0124 S   0  0  0  0  0  0  0  0  0  0  0  0
   15.3615   -8.0553  -11.3213 C   0  0  0  0  0  0  0  0  0  0  0  0
   14.7141   -7.3317  -12.1054 O   0  0  0  0  0  0  0  0  0  0  0  0
   14.8337   -6.5142   -7.6105 C   0  0  0  0  0  0  0  0  0  0  0  0
   15.9051   -5.7516   -8.3659 C   0  0  1  0  0  0  0  0  0  0  0  0
   17.1324   -6.2872   -7.9475 O   0  0  0  0  0  0  0  0  0  0  0  0
   15.7252   -6.0479   -9.8267 C   0  0  2  0  0  0  0  0  0  0  0  0
   15.9071   -7.4208  -10.1713 N   0  0  0  0  0  0  0  0  0  0  0  0
   16.5423   -5.1824  -10.6809 C   0  0  0  0  0  0  0  0  0  0  0  0
   17.5112   -5.6425  -11.5606 O   0  0  0  0  0  0  0  0  0  0  0  0
   16.3787   -3.9331  -10.6372 O   0  0  0  0  0  0  0  0  0  0  0  0
  2  1  1  1
  2  4  1  0
  3  2  1  0
  4  5  1  0
  5  6  1  6
  5  7  1  0
  7  8  2  0
  9  7  1  0
  9 10  1  0
 10 11  1  6
 11 12  1  0
 13 10  1  0
 13 19  1  0
 14 13  2  0
 16 15  1  1
 16 17  1  0
 18 19  1  1
 18 16  1  0
 20 18  1  0
 20 21  1  0
 22 20  2  0
M  END
$$$$
