LCT.pdb
     RDKit          3D

 22 21  0  0  1  0  0  0  0  0999 V2000
   21.1562  -12.9607  -19.1098 C   0  0  0  0  0  0  0  0  0  0  0  0
   19.7039  -12.7199  -18.8567 C   0  0  2  0  0  0  0  0  0  0  0  0
   18.9345  -13.1513  -20.0781 C   0  0  0  0  0  0  0  0  0  0  0  0
   19.3581  -11.3574  -18.3857 C   0  0  0  0  0  0  0  0  0  0  0  0
   20.0629  -10.8939  -17.1490 C   0  0  2  0  0  0  0  0  0  0  0  0
   19.9432  -11.7886  -16.0402 N   0  0  0  0  0  0  0  0  0  0  0  0
   19.7719   -9.4747  -16.8222 C   0  0  0  0  0  0  0  0  0  0  0  0
   19.8507   -8.6529  -17.7749 O   0  0  0  0  0  0  0  0  0  0  0  0
   19.4198   -9.0125  -15.5269 N   0  0  0  0  0  0  0  0  0  0  0  0
   19.1053   -7.6373  -15.3422 C   0  0  1  0  0  0  0  0  0  0  0  0
   17.6919   -7.5396  -14.7852 C   0  0  0  0  0  0  0  0  0  0  0  0
   16.9684   -9.1588  -14.4697 S   0  0  0  0  0  0  0  0  0  0  0  0
   20.0713   -6.9133  -14.4857 C   0  0  0  0  0  0  0  0  0  0  0  0
   20.5322   -7.3466  -13.4099 O   0  0  0  0  0  0  0  0  0  0  0  0
   23.3249   -6.2081  -15.3049 C   0  0  0  0  0  0  0  0  0  0  0  0
   22.8250   -4.7935  -15.0834 C   0  0  1  0  0  0  0  0  0  0  0  0
   22.5098   -4.2886  -16.3539 O   0  0  0  0  0  0  0  0  0  0  0  0
   21.5629   -4.8819  -14.2753 C   0  0  2  0  0  0  0  0  0  0  0  0
   20.5198   -5.6289  -14.9003 N   0  0  0  0  0  0  0  0  0  0  0  0
   21.0781   -3.5683  -13.8439 C   0  0  0  0  0  0  0  0  0  0  0  0
   21.7327   -2.7551  -12.9303 O   0  0  0  0  0  0  0  0  0  0  0  0
   19.9984   -3.1190  -14.3151 O   0  0  0  0  0  0  0  0  0  0  0  0
  2  1  1  6
  2  4  1  0
  3  2  1  0
  4  5  1  0
  5  6  1  1
  5  7  1  0
  7  8  2  0
  9  7  1  0
  9 10  1  0
 10 11  1  1
 11 12  1  0
 13 10  1  0
 13 19  1  0
 14 13  2  0
 16 15  1  6
 16 17  1  0
 18 19  1  6
 18 16  1  0
 20 18  1  0
 20 21  1  0
 22 20  2  0
M  END
$$$$
