LCT.pdb
     RDKit          3D

 22 21  0  0  1  0  0  0  0  0999 V2000
   18.6611  -11.3380  -19.9349 C   0  0  0  0  0  0  0  0  0  0  0  0
   17.7344  -11.1206  -18.7836 C   0  0  2  0  0  0  0  0  0  0  0  0
   16.5264  -10.3730  -19.2852 C   0  0  0  0  0  0  0  0  0  0  0  0
   18.3498  -10.5169  -17.5776 C   0  0  0  0  0  0  0  0  0  0  0  0
   19.5508  -11.2245  -17.0317 C   0  0  2  0  0  0  0  0  0  0  0  0
   19.2784  -12.5380  -16.5370 N   0  0  0  0  0  0  0  0  0  0  0  0
   20.3433  -10.3758  -16.1058 C   0  0  0  0  0  0  0  0  0  0  0  0
   19.8802  -10.2325  -14.9421 O   0  0  0  0  0  0  0  0  0  0  0  0
   21.5612   -9.7367  -16.4578 N   0  0  0  0  0  0  0  0  0  0  0  0
   22.2595   -8.9833  -15.4735 C   0  0  1  0  0  0  0  0  0  0  0  0
   23.7341   -9.3559  -15.5418 C   0  0  0  0  0  0  0  0  0  0  0  0
   24.1086  -10.8394  -14.5911 S   0  0  0  0  0  0  0  0  0  0  0  0
   22.0692   -7.5204  -15.5945 C   0  0  0  0  0  0  0  0  0  0  0  0
   22.3914   -6.8411  -16.5905 O   0  0  0  0  0  0  0  0  0  0  0  0
   18.7942   -5.8272  -15.0354 C   0  0  0  0  0  0  0  0  0  0  0  0
   19.7356   -5.1412  -14.0642 C   0  0  1  0  0  0  0  0  0  0  0  0
   19.5264   -5.7549  -12.8201 O   0  0  0  0  0  0  0  0  0  0  0  0
   21.1384   -5.4323  -14.5132 C   0  0  2  0  0  0  0  0  0  0  0  0
   21.4778   -6.8185  -14.5080 N   0  0  0  0  0  0  0  0  0  0  0  0
   22.1370   -4.6474  -13.7829 C   0  0  0  0  0  0  0  0  0  0  0  0
   22.2223   -3.2633  -13.8196 O   0  0  0  0  0  0  0  0  0  0  0  0
   22.9885   -5.2386  -13.0654 O   0  0  0  0  0  0  0  0  0  0  0  0
  2  1  1  6
  2  4  1  0
  3  2  1  0
  4  5  1  0
  5  6  1  1
  5  7  1  0
  7  8  2  0
  9  7  1  0
  9 10  1  0
 10 11  1  6
 11 12  1  0
 13 10  1  0
 13 19  1  0
 14 13  2  0
 16 15  1  6
 16 17  1  0
 18 19  1  1
 18 16  1  0
 20 18  1  0
 20 21  1  0
 22 20  2  0
M  END
$$$$
