LCT.pdb
     RDKit          3D

 22 21  0  0  1  0  0  0  0  0999 V2000
   17.7032  -15.4947  -18.6808 C   0  0  0  0  0  0  0  0  0  0  0  0
   18.3209  -15.8323  -17.3633 C   0  0  2  0  0  0  0  0  0  0  0  0
   17.4268  -16.8223  -16.6631 C   0  0  0  0  0  0  0  0  0  0  0  0
   18.6977  -14.6714  -16.5218 C   0  0  0  0  0  0  0  0  0  0  0  0
   19.5592  -13.6387  -17.1793 C   0  0  2  0  0  0  0  0  0  0  0  0
   20.7841  -14.1526  -17.7082 N   0  0  0  0  0  0  0  0  0  0  0  0
   19.7172  -12.4148  -16.3529 C   0  0  0  0  0  0  0  0  0  0  0  0
   18.6811  -11.9943  -15.7706 O   0  0  0  0  0  0  0  0  0  0  0  0
   20.9424  -11.7161  -16.1920 N   0  0  0  0  0  0  0  0  0  0  0  0
   20.9772  -10.5562  -15.3688 C   0  0  1  0  0  0  0  0  0  0  0  0
   22.3258  -10.5092  -14.6638 C   0  0  0  0  0  0  0  0  0  0  0  0
   22.4968   -9.0565  -13.6125 S   0  0  0  0  0  0  0  0  0  0  0  0
   20.7089   -9.2969  -16.0990 C   0  0  0  0  0  0  0  0  0  0  0  0
   21.3218   -8.9217  -17.1192 O   0  0  0  0  0  0  0  0  0  0  0  0
   17.6422   -6.5889  -14.5449 C   0  0  0  0  0  0  0  0  0  0  0  0
   17.8623   -6.8344  -16.0253 C   0  0  1  0  0  0  0  0  0  0  0  0
   17.6190   -5.6089  -16.6634 O   0  0  0  0  0  0  0  0  0  0  0  0
   19.3075   -7.1948  -16.2133 C   0  0  2  0  0  0  0  0  0  0  0  0
   19.6818   -8.4376  -15.6199 N   0  0  0  0  0  0  0  0  0  0  0  0
   20.2137   -6.1223  -15.7948 C   0  0  0  0  0  0  0  0  0  0  0  0
   20.4335   -4.9586  -16.5172 O   0  0  0  0  0  0  0  0  0  0  0  0
   20.8502   -6.2339  -14.7122 O   0  0  0  0  0  0  0  0  0  0  0  0
  2  1  1  6
  2  4  1  0
  3  2  1  0
  4  5  1  0
  5  6  1  1
  5  7  1  0
  7  8  2  0
  9  7  1  0
  9 10  1  0
 10 11  1  6
 11 12  1  0
 13 10  1  0
 13 19  1  0
 14 13  2  0
 16 15  1  1
 16 17  1  0
 18 19  1  1
 18 16  1  0
 20 18  1  0
 20 21  1  0
 22 20  2  0
M  END
$$$$
