SCD.pdb
     RDKit          3D

 21 20  0  0  1  0  0  0  0  0999 V2000
    9.9101  -19.0031   14.5649 O   0  0  0  0  0  0  0  0  0  0  0  0
   10.9162  -19.8067   15.0911 C   0  0  0  0  0  0  0  0  0  0  0  0
   11.8285  -20.3518   14.0110 C   0  0  2  0  0  0  0  0  0  0  0  0
   11.0263  -21.3371   13.2848 N   0  0  0  0  0  0  0  0  0  0  0  0
   13.0271  -20.9932   14.5419 C   0  0  0  0  0  0  0  0  0  0  0  0
   13.0399  -22.2502   14.7223 O   0  0  0  0  0  0  0  0  0  0  0  0
   14.2290  -20.3204   14.8897 N   0  0  0  0  0  0  0  0  0  0  0  0
   15.3838  -21.0034   15.4381 C   0  0  1  0  0  0  0  0  0  0  0  0
   16.4784  -20.8475   14.3660 C   0  0  0  0  0  0  0  0  0  0  0  0
   16.7770  -22.4052   13.5110 S   0  0  0  0  0  0  0  0  0  0  0  0
   15.9207  -20.3316   16.6361 C   0  0  0  0  0  0  0  0  0  0  0  0
   16.0442  -19.0755   16.6031 O   0  0  0  0  0  0  0  0  0  0  0  0
   16.3037  -21.0028   17.8111 N   0  0  0  0  0  0  0  0  0  0  0  0
   16.7648  -20.3468   19.0375 C   0  0  1  0  0  0  0  0  0  0  0  0
   16.4564  -21.1663   20.2383 C   0  0  0  0  0  0  0  0  0  0  0  0
   15.0434  -21.0287   20.6239 C   0  0  0  0  0  0  0  0  0  0  0  0
   14.4646  -19.9624   20.9488 O   0  0  0  0  0  0  0  0  0  0  0  0
   18.2650  -20.2798   18.8832 C   0  0  0  0  0  0  0  0  0  0  0  0
   18.8700  -20.9081   17.7853 O   0  0  0  0  0  0  0  0  0  0  0  0
   14.1879  -22.1598   20.6566 O   0  0  0  0  0  0  0  0  0  0  0  0
   18.9422  -19.6688   19.7314 O   0  0  0  0  0  0  0  0  0  0  0  0
  2  1  1  0
  3  2  1  0
  3  5  1  0
  3  4  1  1
  5  6  2  0
  7  8  1  0
  7  5  1  0
  8  9  1  6
 10  9  1  0
 11  8  1  0
 11 13  1  0
 12 11  2  0
 14 13  1  0
 14 15  1  1
 15 16  1  0
 16 20  1  0
 17 16  2  0
 18 14  1  0
 19 18  1  0
 21 18  2  0
M  END
$$$$
