SCD.pdb
     RDKit          3D

 21 20  0  0  1  0  0  0  0  0999 V2000
    6.8289  -17.1227   22.1312 O   0  0  0  0  0  0  0  0  0  0  0  0
    7.3055  -16.3917   21.0479 C   0  0  0  0  0  0  0  0  0  0  0  0
    7.3081  -14.9024   21.3270 C   0  0  2  0  0  0  0  0  0  0  0  0
    7.9745  -14.2919   20.1760 N   0  0  0  0  0  0  0  0  0  0  0  0
    8.0224  -14.5487   22.5495 C   0  0  0  0  0  0  0  0  0  0  0  0
    9.2914  -14.4986   22.5439 O   0  0  0  0  0  0  0  0  0  0  0  0
    7.4109  -14.2424   23.7947 N   0  0  0  0  0  0  0  0  0  0  0  0
    8.1699  -13.9514   24.9947 C   0  0  1  0  0  0  0  0  0  0  0  0
    7.1605  -13.2810   25.9452 C   0  0  0  0  0  0  0  0  0  0  0  0
    7.9585  -12.7496   27.4707 S   0  0  0  0  0  0  0  0  0  0  0  0
    8.6063  -15.1727   25.6967 C   0  0  0  0  0  0  0  0  0  0  0  0
    7.7592  -16.0947   25.8594 O   0  0  0  0  0  0  0  0  0  0  0  0
    9.9056  -15.3732   26.1959 N   0  0  0  0  0  0  0  0  0  0  0  0
   10.3468  -16.5633   26.9281 C   0  0  1  0  0  0  0  0  0  0  0  0
   11.7112  -16.9799   26.5119 C   0  0  0  0  0  0  0  0  0  0  0  0
   11.7661  -17.2421   25.0654 C   0  0  0  0  0  0  0  0  0  0  0  0
   11.2970  -18.2474   24.4765 O   0  0  0  0  0  0  0  0  0  0  0  0
   10.4080  -16.1139   28.3680 C   0  0  0  0  0  0  0  0  0  0  0  0
   10.6914  -17.0548   29.3683 O   0  0  0  0  0  0  0  0  0  0  0  0
   12.3903  -16.3212   24.1853 O   0  0  0  0  0  0  0  0  0  0  0  0
   10.2063  -14.9167   28.6461 O   0  0  0  0  0  0  0  0  0  0  0  0
  2  1  1  0
  3  2  1  0
  3  5  1  0
  3  4  1  6
  5  6  2  0
  7  8  1  0
  7  5  1  0
  8  9  1  1
 10  9  1  0
 11  8  1  0
 11 13  1  0
 12 11  2  0
 14 13  1  0
 14 15  1  6
 15 16  1  0
 16 20  1  0
 17 16  2  0
 18 14  1  0
 19 18  1  0
 21 18  2  0
M  END
$$$$
