SCD.pdb
     RDKit          3D

 21 20  0  0  1  0  0  0  0  0999 V2000
    8.9817  -18.4091   22.4106 O   0  0  0  0  0  0  0  0  0  0  0  0
    8.0929  -17.4216   21.9986 C   0  0  0  0  0  0  0  0  0  0  0  0
    8.7516  -16.0588   21.9323 C   0  0  2  0  0  0  0  0  0  0  0  0
    9.7567  -16.1635   20.8738 N   0  0  0  0  0  0  0  0  0  0  0  0
    9.3971  -15.6718   23.1826 C   0  0  0  0  0  0  0  0  0  0  0  0
   10.6359  -15.8986   23.3469 O   0  0  0  0  0  0  0  0  0  0  0  0
    8.7479  -15.0403   24.2771 N   0  0  0  0  0  0  0  0  0  0  0  0
    9.4203  -14.7405   25.5256 C   0  0  1  0  0  0  0  0  0  0  0  0
    8.4928  -13.7409   26.2413 C   0  0  0  0  0  0  0  0  0  0  0  0
    9.2063  -13.1962   27.8036 S   0  0  0  0  0  0  0  0  0  0  0  0
    9.4921  -15.9087   26.4228 C   0  0  0  0  0  0  0  0  0  0  0  0
    8.4326  -16.5660   26.6221 O   0  0  0  0  0  0  0  0  0  0  0  0
   10.6658  -16.3347   27.0699 N   0  0  0  0  0  0  0  0  0  0  0  0
   10.7564  -17.4932   27.9624 C   0  0  1  0  0  0  0  0  0  0  0  0
   12.0625  -18.1870   27.8177 C   0  0  0  0  0  0  0  0  0  0  0  0
   12.2720  -18.6367   26.4326 C   0  0  0  0  0  0  0  0  0  0  0  0
   11.3976  -19.1163   25.6692 O   0  0  0  0  0  0  0  0  0  0  0  0
   10.6862  -16.9017   29.3496 C   0  0  0  0  0  0  0  0  0  0  0  0
   10.5530  -17.7563   30.4532 O   0  0  0  0  0  0  0  0  0  0  0  0
   13.5534  -18.5535   25.8299 O   0  0  0  0  0  0  0  0  0  0  0  0
   10.7474  -15.6660   29.4933 O   0  0  0  0  0  0  0  0  0  0  0  0
  2  1  1  0
  3  2  1  0
  3  5  1  0
  3  4  1  6
  5  6  2  0
  7  8  1  0
  7  5  1  0
  8  9  1  1
 10  9  1  0
 11  8  1  0
 11 13  1  0
 12 11  2  0
 14 13  1  0
 14 15  1  1
 15 16  1  0
 16 20  1  0
 17 16  2  0
 18 14  1  0
 19 18  1  0
 21 18  2  0
M  END
$$$$
