SCD.pdb
     RDKit          3D

 21 20  0  0  1  0  0  0  0  0999 V2000
    7.7838  -15.7525   19.3963 O   0  0  0  0  0  0  0  0  0  0  0  0
    6.7439  -14.8331   19.4865 C   0  0  0  0  0  0  0  0  0  0  0  0
    7.2203  -13.4875   19.9947 C   0  0  2  0  0  0  0  0  0  0  0  0
    8.1353  -12.9858   18.9687 N   0  0  0  0  0  0  0  0  0  0  0  0
    7.9185  -13.5713   21.2734 C   0  0  0  0  0  0  0  0  0  0  0  0
    9.1883  -13.5788   21.2970 O   0  0  0  0  0  0  0  0  0  0  0  0
    7.2900  -13.6479   22.5452 N   0  0  0  0  0  0  0  0  0  0  0  0
    8.0315  -13.7736   23.7842 C   0  0  1  0  0  0  0  0  0  0  0  0
    7.0215  -13.4023   24.8859 C   0  0  0  0  0  0  0  0  0  0  0  0
    7.8146  -13.3478   26.5029 S   0  0  0  0  0  0  0  0  0  0  0  0
    8.4187  -15.1673   24.0714 C   0  0  0  0  0  0  0  0  0  0  0  0
    7.5500  -16.0680   23.9035 O   0  0  0  0  0  0  0  0  0  0  0  0
    9.6939  -15.5544   24.5209 N   0  0  0  0  0  0  0  0  0  0  0  0
   10.0908  -16.9308   24.8289 C   0  0  1  0  0  0  0  0  0  0  0  0
   11.5553  -17.1216   24.6635 C   0  0  0  0  0  0  0  0  0  0  0  0
   11.9534  -16.9646   23.2559 C   0  0  0  0  0  0  0  0  0  0  0  0
   11.4114  -17.5169   22.2667 O   0  0  0  0  0  0  0  0  0  0  0  0
    9.7543  -17.0976   26.2911 C   0  0  0  0  0  0  0  0  0  0  0  0
    9.7781  -18.3799   26.8580 O   0  0  0  0  0  0  0  0  0  0  0  0
   13.0424  -16.1281   22.9001 O   0  0  0  0  0  0  0  0  0  0  0  0
    9.4611  -16.0962   26.9712 O   0  0  0  0  0  0  0  0  0  0  0  0
  2  1  1  0
  3  2  1  0
  3  5  1  0
  3  4  1  6
  5  6  2  0
  7  8  1  0
  7  5  1  0
  8  9  1  1
 10  9  1  0
 11  8  1  0
 11 13  1  0
 12 11  2  0
 14 13  1  0
 14 15  1  1
 15 16  1  0
 16 20  1  0
 17 16  2  0
 18 14  1  0
 19 18  1  0
 21 18  2  0
M  END
$$$$
