SCD.pdb
     RDKit          3D

 21 20  0  0  1  0  0  0  0  0999 V2000
    8.2242  -15.4912   18.4396 O   0  0  0  0  0  0  0  0  0  0  0  0
    7.0480  -14.7656   18.5975 C   0  0  0  0  0  0  0  0  0  0  0  0
    7.2820  -13.4601   19.3300 C   0  0  2  0  0  0  0  0  0  0  0  0
    8.1256  -12.6607   18.4406 N   0  0  0  0  0  0  0  0  0  0  0  0
    7.9533  -13.6347   20.6140 C   0  0  0  0  0  0  0  0  0  0  0  0
    9.2160  -13.5177   20.6841 O   0  0  0  0  0  0  0  0  0  0  0  0
    7.3049  -13.9343   21.8420 N   0  0  0  0  0  0  0  0  0  0  0  0
    8.0201  -14.0906   23.0929 C   0  0  1  0  0  0  0  0  0  0  0  0
    6.9193  -14.1846   24.1658 C   0  0  0  0  0  0  0  0  0  0  0  0
    7.6294  -14.3848   25.8096 S   0  0  0  0  0  0  0  0  0  0  0  0
    8.7449  -15.3724   23.1725 C   0  0  0  0  0  0  0  0  0  0  0  0
    8.1964  -16.3929   22.6708 O   0  0  0  0  0  0  0  0  0  0  0  0
   10.0073  -15.5281   23.7724 N   0  0  0  0  0  0  0  0  0  0  0  0
   10.7232  -16.8004   23.8983 C   0  0  1  0  0  0  0  0  0  0  0  0
   12.1890  -16.6146   23.7395 C   0  0  0  0  0  0  0  0  0  0  0  0
   12.7337  -17.5404   22.7342 C   0  0  0  0  0  0  0  0  0  0  0  0
   12.4984  -18.7717   22.6566 O   0  0  0  0  0  0  0  0  0  0  0  0
   10.4533  -17.2414   25.3167 C   0  0  0  0  0  0  0  0  0  0  0  0
   10.9244  -18.4898   25.7477 O   0  0  0  0  0  0  0  0  0  0  0  0
   13.6145  -17.0762   21.7238 O   0  0  0  0  0  0  0  0  0  0  0  0
    9.8175  -16.4918   26.0817 O   0  0  0  0  0  0  0  0  0  0  0  0
  2  1  1  0
  3  2  1  0
  3  5  1  0
  3  4  1  6
  5  6  2  0
  7  8  1  0
  7  5  1  0
  8  9  1  1
 10  9  1  0
 11  8  1  0
 11 13  1  0
 12 11  2  0
 14 13  1  0
 14 15  1  1
 15 16  1  0
 16 20  1  0
 17 16  2  0
 18 14  1  0
 19 18  1  0
 21 18  2  0
M  END
$$$$
