SCD.pdb
     RDKit          3D

 21 20  0  0  1  0  0  0  0  0999 V2000
    6.8691  -17.0500   21.1321 O   0  0  0  0  0  0  0  0  0  0  0  0
    8.1802  -17.1368   21.5888 C   0  0  0  0  0  0  0  0  0  0  0  0
    8.8505  -15.7792   21.6471 C   0  0  2  0  0  0  0  0  0  0  0  0
    9.8701  -15.8032   20.5977 N   0  0  0  0  0  0  0  0  0  0  0  0
    9.4806  -15.5050   22.9346 C   0  0  0  0  0  0  0  0  0  0  0  0
   10.7210  -15.7304   23.0880 O   0  0  0  0  0  0  0  0  0  0  0  0
    8.8140  -14.9892   24.0782 N   0  0  0  0  0  0  0  0  0  0  0  0
    9.4670  -14.8196   25.3610 C   0  0  1  0  0  0  0  0  0  0  0  0
    8.5782  -13.8207   26.1253 C   0  0  0  0  0  0  0  0  0  0  0  0
    9.1963  -13.5469   27.7954 S   0  0  0  0  0  0  0  0  0  0  0  0
    9.4466  -16.0510   26.1721 C   0  0  0  0  0  0  0  0  0  0  0  0
    8.3659  -16.7012   26.2313 O   0  0  0  0  0  0  0  0  0  0  0  0
   10.5548  -16.5449   26.8832 N   0  0  0  0  0  0  0  0  0  0  0  0
   10.5516  -17.7625   27.6984 C   0  0  1  0  0  0  0  0  0  0  0  0
   11.5734  -18.7327   27.2261 C   0  0  0  0  0  0  0  0  0  0  0  0
   11.5954  -19.9334   28.0758 C   0  0  0  0  0  0  0  0  0  0  0  0
   12.0436  -20.0041   29.2469 O   0  0  0  0  0  0  0  0  0  0  0  0
   10.9490  -17.2901   29.0760 C   0  0  0  0  0  0  0  0  0  0  0  0
   10.7811  -18.1503   30.1705 O   0  0  0  0  0  0  0  0  0  0  0  0
   11.0805  -21.1667   27.6005 O   0  0  0  0  0  0  0  0  0  0  0  0
   11.4191  -16.1458   29.2202 O   0  0  0  0  0  0  0  0  0  0  0  0
  2  1  1  0
  3  2  1  0
  3  5  1  0
  3  4  1  6
  5  6  2  0
  7  8  1  0
  7  5  1  0
  8  9  1  1
 10  9  1  0
 11  8  1  0
 11 13  1  0
 12 11  2  0
 14 13  1  0
 14 15  1  6
 15 16  1  0
 16 20  1  0
 17 16  2  0
 18 14  1  0
 19 18  1  0
 21 18  2  0
M  END
$$$$
