SCD.pdb
     RDKit          3D

 21 20  0  0  1  0  0  0  0  0999 V2000
    8.2943  -12.0552   20.6805 O   0  0  0  0  0  0  0  0  0  0  0  0
    9.0181  -12.1471   19.4962 C   0  0  0  0  0  0  0  0  0  0  0  0
    8.5598  -13.3112   18.6415 C   0  0  2  0  0  0  0  0  0  0  0  0
    7.1855  -12.9917   18.2532 N   0  0  0  0  0  0  0  0  0  0  0  0
    8.5836  -14.5873   19.3492 C   0  0  0  0  0  0  0  0  0  0  0  0
    7.4906  -15.1641   19.6420 O   0  0  0  0  0  0  0  0  0  0  0  0
    9.7579  -15.2742   19.7582 N   0  0  0  0  0  0  0  0  0  0  0  0
    9.7251  -16.5401   20.4633 C   0  0  1  0  0  0  0  0  0  0  0  0
    9.7363  -17.6082   19.3538 C   0  0  0  0  0  0  0  0  0  0  0  0
   11.1658  -17.4096   18.2752 S   0  0  0  0  0  0  0  0  0  0  0  0
   10.9524  -16.7836   21.2437 C   0  0  0  0  0  0  0  0  0  0  0  0
   12.0270  -16.2648   20.8313 O   0  0  0  0  0  0  0  0  0  0  0  0
   10.9998  -17.5575   22.4170 N   0  0  0  0  0  0  0  0  0  0  0  0
   12.1985  -17.7685   23.2329 C   0  0  1  0  0  0  0  0  0  0  0  0
   11.8898  -18.5566   24.4544 C   0  0  0  0  0  0  0  0  0  0  0  0
   12.3620  -17.8646   25.6637 C   0  0  0  0  0  0  0  0  0  0  0  0
   12.1136  -18.1935   26.8501 O   0  0  0  0  0  0  0  0  0  0  0  0
   13.1071  -18.5941   22.3543 C   0  0  0  0  0  0  0  0  0  0  0  0
   14.4921  -18.3827   22.4103 O   0  0  0  0  0  0  0  0  0  0  0  0
   13.1792  -16.7093   25.5649 O   0  0  0  0  0  0  0  0  0  0  0  0
   12.6145  -19.4490   21.5943 O   0  0  0  0  0  0  0  0  0  0  0  0
  2  1  1  0
  3  2  1  0
  3  5  1  0
  3  4  1  1
  5  6  2  0
  7  8  1  0
  7  5  1  0
  8  9  1  6
 10  9  1  0
 11  8  1  0
 11 13  1  0
 12 11  2  0
 14 13  1  0
 14 15  1  1
 15 16  1  0
 16 20  1  0
 17 16  2  0
 18 14  1  0
 19 18  1  0
 21 18  2  0
M  END
$$$$
