SCD.pdb
     RDKit          3D

 21 20  0  0  1  0  0  0  0  0999 V2000
    7.0993  -15.9003   19.7807 O   0  0  0  0  0  0  0  0  0  0  0  0
    7.4117  -14.7745   19.0259 C   0  0  0  0  0  0  0  0  0  0  0  0
    7.1712  -13.4919   19.7959 C   0  0  2  0  0  0  0  0  0  0  0  0
    7.7700  -12.4322   18.9835 N   0  0  0  0  0  0  0  0  0  0  0  0
    7.7814  -13.4952   21.1215 C   0  0  0  0  0  0  0  0  0  0  0  0
    9.0374  -13.3457   21.2358 O   0  0  0  0  0  0  0  0  0  0  0  0
    7.0781  -13.6556   22.3454 N   0  0  0  0  0  0  0  0  0  0  0  0
    7.7436  -13.7606   23.6287 C   0  0  1  0  0  0  0  0  0  0  0  0
    6.6539  -13.4278   24.6649 C   0  0  0  0  0  0  0  0  0  0  0  0
    7.2766  -13.6142   26.3453 S   0  0  0  0  0  0  0  0  0  0  0  0
    8.1592  -15.1413   23.9378 C   0  0  0  0  0  0  0  0  0  0  0  0
    7.3283  -16.0688   23.7288 O   0  0  0  0  0  0  0  0  0  0  0  0
    9.4217  -15.4884   24.4508 N   0  0  0  0  0  0  0  0  0  0  0  0
    9.8571  -16.8551   24.7499 C   0  0  1  0  0  0  0  0  0  0  0  0
   11.2091  -17.1259   24.1958 C   0  0  0  0  0  0  0  0  0  0  0  0
   11.6503  -18.4912   24.5208 C   0  0  0  0  0  0  0  0  0  0  0  0
   10.9207  -19.5120   24.5765 O   0  0  0  0  0  0  0  0  0  0  0  0
    9.9463  -16.8969   26.2564 C   0  0  0  0  0  0  0  0  0  0  0  0
   10.0254  -18.1379   26.9042 O   0  0  0  0  0  0  0  0  0  0  0  0
   13.0121  -18.7627   24.8108 O   0  0  0  0  0  0  0  0  0  0  0  0
    9.9484  -15.8309   26.9005 O   0  0  0  0  0  0  0  0  0  0  0  0
  2  1  1  0
  3  2  1  0
  3  5  1  0
  3  4  1  6
  5  6  2  0
  7  8  1  0
  7  5  1  0
  8  9  1  1
 10  9  1  0
 11  8  1  0
 11 13  1  0
 12 11  2  0
 14 13  1  0
 14 15  1  6
 15 16  1  0
 16 20  1  0
 17 16  2  0
 18 14  1  0
 19 18  1  0
 21 18  2  0
M  END
$$$$
