SCD.pdb
     RDKit          3D

 21 20  0  0  1  0  0  0  0  0999 V2000
    7.5397  -15.5858   16.4066 O   0  0  0  0  0  0  0  0  0  0  0  0
    8.2616  -15.3661   17.5752 C   0  0  0  0  0  0  0  0  0  0  0  0
    7.6819  -14.2306   18.3939 C   0  0  2  0  0  0  0  0  0  0  0  0
    7.9431  -13.0181   17.6174 N   0  0  0  0  0  0  0  0  0  0  0  0
    8.2907  -14.1059   19.7143 C   0  0  0  0  0  0  0  0  0  0  0  0
    9.3957  -13.4931   19.8417 O   0  0  0  0  0  0  0  0  0  0  0  0
    7.7446  -14.6240   20.9192 N   0  0  0  0  0  0  0  0  0  0  0  0
    8.3947  -14.4766   22.2062 C   0  0  1  0  0  0  0  0  0  0  0  0
    7.2802  -14.7239   23.2399 C   0  0  0  0  0  0  0  0  0  0  0  0
    7.9459  -14.7745   24.9135 S   0  0  0  0  0  0  0  0  0  0  0  0
    9.3937  -15.5317   22.4581 C   0  0  0  0  0  0  0  0  0  0  0  0
    9.0665  -16.7258   22.2110 O   0  0  0  0  0  0  0  0  0  0  0  0
   10.6864  -15.2903   22.9567 N   0  0  0  0  0  0  0  0  0  0  0  0
   11.6888  -16.3259   23.2206 C   0  0  1  0  0  0  0  0  0  0  0  0
   13.0600  -15.7543   23.2603 C   0  0  0  0  0  0  0  0  0  0  0  0
   14.0618  -16.8002   23.5182 C   0  0  0  0  0  0  0  0  0  0  0  0
   13.8763  -18.0398   23.4377 O   0  0  0  0  0  0  0  0  0  0  0  0
   11.3474  -16.8324   24.6011 C   0  0  0  0  0  0  0  0  0  0  0  0
   11.0329  -15.9115   25.6107 O   0  0  0  0  0  0  0  0  0  0  0  0
   15.3850  -16.4580   23.8983 O   0  0  0  0  0  0  0  0  0  0  0  0
   11.3500  -18.0580   24.8229 O   0  0  0  0  0  0  0  0  0  0  0  0
  2  1  1  0
  3  2  1  0
  3  5  1  0
  3  4  1  6
  5  6  2  0
  7  8  1  0
  7  5  1  0
  8  9  1  1
 10  9  1  0
 11  8  1  0
 11 13  1  0
 12 11  2  0
 14 13  1  0
 14 15  1  1
 15 16  1  0
 16 20  1  0
 17 16  2  0
 18 14  1  0
 19 18  1  0
 21 18  2  0
M  END
$$$$
