SCD.pdb
     RDKit          3D

 21 20  0  0  1  0  0  0  0  0999 V2000
    8.4207  -15.8282   18.0919 O   0  0  0  0  0  0  0  0  0  0  0  0
    7.2400  -15.0987   18.1861 C   0  0  0  0  0  0  0  0  0  0  0  0
    7.4539  -13.7605   18.8638 C   0  0  2  0  0  0  0  0  0  0  0  0
    8.2749  -12.9814   17.9363 N   0  0  0  0  0  0  0  0  0  0  0  0
    8.1381  -13.8704   20.1481 C   0  0  0  0  0  0  0  0  0  0  0  0
    9.3944  -13.6943   20.2081 O   0  0  0  0  0  0  0  0  0  0  0  0
    7.5095  -14.1667   21.3872 N   0  0  0  0  0  0  0  0  0  0  0  0
    8.2320  -14.2287   22.6422 C   0  0  1  0  0  0  0  0  0  0  0  0
    7.1542  -14.0389   23.7258 C   0  0  0  0  0  0  0  0  0  0  0  0
    7.8732  -14.1077   25.3765 S   0  0  0  0  0  0  0  0  0  0  0  0
    8.8043  -15.5634   22.8988 C   0  0  0  0  0  0  0  0  0  0  0  0
    8.1131  -16.5724   22.5852 O   0  0  0  0  0  0  0  0  0  0  0  0
   10.0703  -15.7814   23.4711 N   0  0  0  0  0  0  0  0  0  0  0  0
   10.5902  -17.0888   23.8802 C   0  0  1  0  0  0  0  0  0  0  0  0
   12.0757  -17.1148   23.8473 C   0  0  0  0  0  0  0  0  0  0  0  0
   12.5794  -16.8520   22.4903 C   0  0  0  0  0  0  0  0  0  0  0  0
   13.4716  -16.0247   22.1786 O   0  0  0  0  0  0  0  0  0  0  0  0
   10.1463  -17.2341   25.3157 C   0  0  0  0  0  0  0  0  0  0  0  0
   10.3992  -18.4355   25.9932 O   0  0  0  0  0  0  0  0  0  0  0  0
   12.0597  -17.5582   21.3752 O   0  0  0  0  0  0  0  0  0  0  0  0
    9.5632  -16.2870   25.8764 O   0  0  0  0  0  0  0  0  0  0  0  0
  2  1  1  0
  3  2  1  0
  3  5  1  0
  3  4  1  6
  5  6  2  0
  7  8  1  0
  7  5  1  0
  8  9  1  1
 10  9  1  0
 11  8  1  0
 11 13  1  0
 12 11  2  0
 14 13  1  0
 14 15  1  1
 15 16  1  0
 16 20  1  0
 17 16  2  0
 18 14  1  0
 19 18  1  0
 21 18  2  0
M  END
$$$$
