SCD.pdb
     RDKit          3D

 21 20  0  0  1  0  0  0  0  0999 V2000
   -3.7167  -21.4057   21.3970 O   0  0  0  0  0  0  0  0  0  0  0  0
   -4.5674  -21.0297   22.4313 C   0  0  0  0  0  0  0  0  0  0  0  0
   -6.0185  -21.3177   22.1040 C   0  0  2  0  0  0  0  0  0  0  0  0
   -6.4286  -20.2548   21.1855 N   0  0  0  0  0  0  0  0  0  0  0  0
   -6.8844  -21.3095   23.2787 C   0  0  0  0  0  0  0  0  0  0  0  0
   -7.1995  -20.2045   23.8197 O   0  0  0  0  0  0  0  0  0  0  0  0
   -7.4312  -22.4642   23.9001 N   0  0  0  0  0  0  0  0  0  0  0  0
   -8.3041  -22.3986   25.0553 C   0  0  1  0  0  0  0  0  0  0  0  0
   -9.6246  -23.0378   24.5868 C   0  0  0  0  0  0  0  0  0  0  0  0
  -10.7646  -23.2579   25.9645 S   0  0  0  0  0  0  0  0  0  0  0  0
   -7.8371  -23.2504   26.1648 C   0  0  0  0  0  0  0  0  0  0  0  0
   -7.5442  -24.4507   25.9048 O   0  0  0  0  0  0  0  0  0  0  0  0
   -7.6985  -22.8091   27.4929 N   0  0  0  0  0  0  0  0  0  0  0  0
   -7.2464  -23.6432   28.6095 C   0  0  1  0  0  0  0  0  0  0  0  0
   -5.7718  -23.5686   28.7782 C   0  0  0  0  0  0  0  0  0  0  0  0
   -5.3210  -24.4337   29.8794 C   0  0  0  0  0  0  0  0  0  0  0  0
   -6.0001  -25.3248   30.4471 O   0  0  0  0  0  0  0  0  0  0  0  0
   -7.8935  -23.0231   29.8242 C   0  0  0  0  0  0  0  0  0  0  0  0
   -8.5942  -21.8164   29.6868 O   0  0  0  0  0  0  0  0  0  0  0  0
   -4.0094  -24.3121   30.4059 O   0  0  0  0  0  0  0  0  0  0  0  0
   -7.7958  -23.5910   30.9285 O   0  0  0  0  0  0  0  0  0  0  0  0
  2  1  1  0
  3  2  1  0
  3  5  1  0
  3  4  1  6
  5  6  2  0
  7  8  1  0
  7  5  1  0
  8  9  1  6
 10  9  1  0
 11  8  1  0
 11 13  1  0
 12 11  2  0
 14 13  1  0
 14 15  1  1
 15 16  1  0
 16 20  1  0
 17 16  2  0
 18 14  1  0
 19 18  1  0
 21 18  2  0
M  END
$$$$
