MLT.pdb
     RDKit          3D

 24 23  0  0  1  0  0  0  0  0999 V2000
    8.8976  -11.2898   19.6685 C   0  0  0  0  0  0  0  0  0  0  0  0
    7.8576  -12.4981   18.8114 S   0  0  0  0  0  0  0  0  0  0  0  0
    7.7291  -14.0441   19.7538 C   0  0  0  0  0  0  0  0  0  0  0  0
    8.5822  -13.9790   21.0159 C   0  0  0  0  0  0  0  0  0  0  0  0
    8.5824  -15.3045   21.7407 C   0  0  2  0  0  0  0  0  0  0  0  0
    7.3189  -15.9961   21.5956 N   0  0  0  0  0  0  0  0  0  0  0  0
    8.9396  -15.1526   23.1720 C   0  0  0  0  0  0  0  0  0  0  0  0
   10.1379  -14.8689   23.4676 O   0  0  0  0  0  0  0  0  0  0  0  0
    8.2057  -12.1965   26.2436 C   0  0  0  0  0  0  0  0  0  0  0  0
    6.9841  -13.0517   25.7977 C   0  0  2  0  0  0  0  0  0  0  0  0
    5.8043  -12.3991   26.4744 C   0  0  0  0  0  0  0  0  0  0  0  0
    7.2437  -14.4194   26.3383 C   0  0  0  0  0  0  0  0  0  0  0  0
    8.3874  -15.0869   25.6543 C   0  0  2  0  0  0  0  0  0  0  0  0
    8.0343  -15.3026   24.2309 N   0  0  0  0  0  0  0  0  0  0  0  0
    8.8210  -16.3774   26.2195 C   0  0  0  0  0  0  0  0  0  0  0  0
    8.8903  -16.5295   27.5031 O   0  0  0  0  0  0  0  0  0  0  0  0
    7.7465  -20.0683   25.0787 C   0  0  0  0  0  0  0  0  0  0  0  0
    9.2262  -19.9065   25.1629 C   0  0  1  0  0  0  0  0  0  0  0  0
    9.7918  -19.7564   23.9210 O   0  0  0  0  0  0  0  0  0  0  0  0
    9.6148  -18.7716   26.1152 C   0  0  2  0  0  0  0  0  0  0  0  0
    9.1844  -17.5319   25.4995 N   0  0  0  0  0  0  0  0  0  0  0  0
   11.0347  -18.8019   26.4272 C   0  0  0  0  0  0  0  0  0  0  0  0
   11.7832  -17.8708   26.0514 O   0  0  0  0  0  0  0  0  0  0  0  0
   11.6051  -19.8398   27.1375 O   0  0  0  0  0  0  0  0  0  0  0  0
  1  2  1  0
  2  3  1  0
  4  3  1  0
  5  4  1  0
  5  6  1  1
  7  5  1  0
  7  8  2  0
 10  9  1  1
 10 12  1  0
 10 11  1  0
 13 12  1  1
 13 14  1  0
 14  7  1  0
 15 13  1  0
 16 15  2  0
 18 17  1  6
 18 20  1  0
 19 18  1  0
 20 22  1  0
 20 21  1  6
 21 15  1  0
 22 24  1  0
 23 22  2  0
M  END
$$$$
