MLT.pdb
     RDKit          3D

 24 23  0  0  1  0  0  0  0  0999 V2000
    9.0041  -11.6160   19.1496 C   0  0  0  0  0  0  0  0  0  0  0  0
    7.6858  -12.7149   18.5743 S   0  0  0  0  0  0  0  0  0  0  0  0
    7.7320  -14.3098   19.4398 C   0  0  0  0  0  0  0  0  0  0  0  0
    8.2552  -14.1370   20.8616 C   0  0  0  0  0  0  0  0  0  0  0  0
    8.3018  -15.4608   21.5881 C   0  0  2  0  0  0  0  0  0  0  0  0
    7.0443  -16.1714   21.4906 N   0  0  0  0  0  0  0  0  0  0  0  0
    8.7090  -15.3005   23.0050 C   0  0  0  0  0  0  0  0  0  0  0  0
    9.9160  -15.0111   23.2565 O   0  0  0  0  0  0  0  0  0  0  0  0
    8.1932  -12.2864   26.1214 C   0  0  0  0  0  0  0  0  0  0  0  0
    6.9934  -13.1458   25.6273 C   0  0  2  0  0  0  0  0  0  0  0  0
    5.7803  -12.4625   26.2080 C   0  0  0  0  0  0  0  0  0  0  0  0
    7.2053  -14.4974   26.2259 C   0  0  0  0  0  0  0  0  0  0  0  0
    8.2572  -15.2719   25.5083 C   0  0  2  0  0  0  0  0  0  0  0  0
    7.8423  -15.4483   24.0961 N   0  0  0  0  0  0  0  0  0  0  0  0
    8.5790  -16.6001   26.0606 C   0  0  0  0  0  0  0  0  0  0  0  0
    7.6486  -17.3144   26.6081 O   0  0  0  0  0  0  0  0  0  0  0  0
    9.9481  -19.6719   24.4108 C   0  0  0  0  0  0  0  0  0  0  0  0
   10.8328  -19.3542   25.5680 C   0  0  1  0  0  0  0  0  0  0  0  0
   11.9973  -18.7489   25.1653 O   0  0  0  0  0  0  0  0  0  0  0  0
   10.0950  -18.5361   26.6322 C   0  0  2  0  0  0  0  0  0  0  0  0
    9.8398  -17.2275   26.0633 N   0  0  0  0  0  0  0  0  0  0  0  0
   10.8407  -18.4909   27.8797 C   0  0  0  0  0  0  0  0  0  0  0  0
   11.2926  -17.4032   28.3055 O   0  0  0  0  0  0  0  0  0  0  0  0
   11.0768  -19.6248   28.6319 O   0  0  0  0  0  0  0  0  0  0  0  0
  1  2  1  0
  2  3  1  0
  4  3  1  0
  5  4  1  0
  5  6  1  1
  7  5  1  0
  7  8  2  0
 10  9  1  1
 10 12  1  0
 10 11  1  0
 13 12  1  1
 13 14  1  0
 14  7  1  0
 15 13  1  0
 16 15  2  0
 18 17  1  6
 18 20  1  0
 19 18  1  0
 20 22  1  0
 20 21  1  6
 21 15  1  0
 22 24  1  0
 23 22  2  0
M  END
$$$$
