MLT.pdb
     RDKit          3D

 24 23  0  0  1  0  0  0  0  0999 V2000
    8.6917  -11.3218   19.4850 C   0  0  0  0  0  0  0  0  0  0  0  0
    7.6894  -12.5676   18.6366 S   0  0  0  0  0  0  0  0  0  0  0  0
    7.8307  -14.1881   19.4421 C   0  0  0  0  0  0  0  0  0  0  0  0
    8.2357  -14.0306   20.9036 C   0  0  0  0  0  0  0  0  0  0  0  0
    8.4153  -15.3765   21.5658 C   0  0  2  0  0  0  0  0  0  0  0  0
    7.2454  -16.2140   21.4060 N   0  0  0  0  0  0  0  0  0  0  0  0
    8.7785  -15.2447   22.9976 C   0  0  0  0  0  0  0  0  0  0  0  0
    9.9907  -15.0308   23.2950 O   0  0  0  0  0  0  0  0  0  0  0  0
    8.2178  -12.3777   26.3835 C   0  0  0  0  0  0  0  0  0  0  0  0
    7.0009  -13.1415   25.7851 C   0  0  2  0  0  0  0  0  0  0  0  0
    5.7998  -12.4907   26.4250 C   0  0  0  0  0  0  0  0  0  0  0  0
    7.1663  -14.5565   26.2329 C   0  0  0  0  0  0  0  0  0  0  0  0
    8.2463  -15.2607   25.4852 C   0  0  2  0  0  0  0  0  0  0  0  0
    7.8643  -15.3415   24.0552 N   0  0  0  0  0  0  0  0  0  0  0  0
    8.5793  -16.6200   25.9479 C   0  0  0  0  0  0  0  0  0  0  0  0
    7.6346  -17.4789   26.1616 O   0  0  0  0  0  0  0  0  0  0  0  0
   10.1243  -19.4669   24.4469 C   0  0  0  0  0  0  0  0  0  0  0  0
   10.9306  -19.2193   25.6763 C   0  0  1  0  0  0  0  0  0  0  0  0
   12.1221  -18.6024   25.3859 O   0  0  0  0  0  0  0  0  0  0  0  0
   10.1265  -18.4543   26.7319 C   0  0  2  0  0  0  0  0  0  0  0  0
    9.8673  -17.1328   26.1956 N   0  0  0  0  0  0  0  0  0  0  0  0
   10.8135  -18.4358   28.0133 C   0  0  0  0  0  0  0  0  0  0  0  0
   11.2513  -17.3587   28.4790 O   0  0  0  0  0  0  0  0  0  0  0  0
   11.0078  -19.5843   28.7553 O   0  0  0  0  0  0  0  0  0  0  0  0
  1  2  1  0
  2  3  1  0
  4  3  1  0
  5  4  1  0
  5  6  1  1
  7  5  1  0
  7  8  2  0
 10  9  1  1
 10 12  1  0
 10 11  1  0
 13 12  1  1
 13 14  1  0
 14  7  1  0
 15 13  1  0
 16 15  2  0
 18 17  1  6
 18 20  1  0
 19 18  1  0
 20 22  1  0
 20 21  1  6
 21 15  1  0
 22 24  1  0
 23 22  2  0
M  END
$$$$
