MLT.pdb
     RDKit          3D

 24 23  0  0  1  0  0  0  0  0999 V2000
   10.1968  -19.1406   17.7636 C   0  0  0  0  0  0  0  0  0  0  0  0
   10.4439  -18.3231   19.3594 S   0  0  0  0  0  0  0  0  0  0  0  0
   10.1698  -16.5331   19.2330 C   0  0  0  0  0  0  0  0  0  0  0  0
   10.3589  -15.8614   20.5887 C   0  0  0  0  0  0  0  0  0  0  0  0
    9.3162  -16.3289   21.5769 C   0  0  2  0  0  0  0  0  0  0  0  0
    7.9759  -16.1969   21.0460 N   0  0  0  0  0  0  0  0  0  0  0  0
    9.4383  -15.6332   22.8809 C   0  0  0  0  0  0  0  0  0  0  0  0
   10.5969  -15.4316   23.3506 O   0  0  0  0  0  0  0  0  0  0  0  0
    5.8255  -12.6524   26.8775 C   0  0  0  0  0  0  0  0  0  0  0  0
    7.2423  -13.2662   26.6823 C   0  0  2  0  0  0  0  0  0  0  0  0
    8.1823  -12.0992   26.8571 C   0  0  0  0  0  0  0  0  0  0  0  0
    7.2573  -13.7822   25.2810 C   0  0  0  0  0  0  0  0  0  0  0  0
    8.4752  -14.5914   24.9924 C   0  0  2  0  0  0  0  0  0  0  0  0
    8.3497  -15.1788   23.6372 N   0  0  0  0  0  0  0  0  0  0  0  0
    8.7721  -15.6818   25.9387 C   0  0  0  0  0  0  0  0  0  0  0  0
    7.8289  -16.4843   26.3157 O   0  0  0  0  0  0  0  0  0  0  0  0
   11.0194  -18.5148   25.4712 C   0  0  0  0  0  0  0  0  0  0  0  0
   11.4093  -17.9201   26.7815 C   0  0  1  0  0  0  0  0  0  0  0  0
   12.5677  -17.1900   26.6828 O   0  0  0  0  0  0  0  0  0  0  0  0
   10.2646  -17.1067   27.3931 C   0  0  2  0  0  0  0  0  0  0  0  0
   10.0230  -15.9811   26.5123 N   0  0  0  0  0  0  0  0  0  0  0  0
   10.5608  -16.7184   28.7627 C   0  0  0  0  0  0  0  0  0  0  0  0
   10.7175  -15.5109   29.0563 O   0  0  0  0  0  0  0  0  0  0  0  0
   10.6795  -17.6482   29.7769 O   0  0  0  0  0  0  0  0  0  0  0  0
  1  2  1  0
  2  3  1  0
  4  3  1  0
  5  4  1  0
  5  6  1  6
  7  5  1  0
  7  8  2  0
 10  9  1  6
 10 12  1  0
 10 11  1  0
 13 12  1  1
 13 14  1  0
 14  7  1  0
 15 13  1  0
 16 15  2  0
 18 17  1  6
 18 20  1  0
 19 18  1  0
 20 22  1  0
 20 21  1  6
 21 15  1  0
 22 24  1  0
 23 22  2  0
M  END
$$$$
