MLT.pdb
     RDKit          3D

 24 23  0  0  1  0  0  0  0  0999 V2000
    6.8366  -11.1224   19.4489 C   0  0  0  0  0  0  0  0  0  0  0  0
    8.1203  -12.3973   19.3946 S   0  0  0  0  0  0  0  0  0  0  0  0
    7.8043  -13.7040   20.6143 C   0  0  0  0  0  0  0  0  0  0  0  0
    8.9493  -14.7106   20.6354 C   0  0  0  0  0  0  0  0  0  0  0  0
    8.6386  -15.8679   21.5555 C   0  0  2  0  0  0  0  0  0  0  0  0
    7.2505  -16.2686   21.4646 N   0  0  0  0  0  0  0  0  0  0  0  0
    9.0121  -15.5738   22.9602 C   0  0  0  0  0  0  0  0  0  0  0  0
   10.2271  -15.3319   23.2231 O   0  0  0  0  0  0  0  0  0  0  0  0
    8.5011  -12.3741   25.9660 C   0  0  0  0  0  0  0  0  0  0  0  0
    7.2487  -13.1848   25.5228 C   0  0  2  0  0  0  0  0  0  0  0  0
    6.0880  -12.4491   26.1452 C   0  0  0  0  0  0  0  0  0  0  0  0
    7.4271  -14.5415   26.1207 C   0  0  0  0  0  0  0  0  0  0  0  0
    8.4996  -15.3203   25.4390 C   0  0  2  0  0  0  0  0  0  0  0  0
    8.1050  -15.5446   24.0278 N   0  0  0  0  0  0  0  0  0  0  0  0
    8.8348  -16.6264   26.0342 C   0  0  0  0  0  0  0  0  0  0  0  0
    7.9699  -17.2379   26.7783 O   0  0  0  0  0  0  0  0  0  0  0  0
    9.9215  -19.8447   24.3085 C   0  0  0  0  0  0  0  0  0  0  0  0
   10.9167  -19.5084   25.3664 C   0  0  1  0  0  0  0  0  0  0  0  0
   12.0501  -18.9440   24.8359 O   0  0  0  0  0  0  0  0  0  0  0  0
   10.2980  -18.6381   26.4645 C   0  0  2  0  0  0  0  0  0  0  0  0
   10.0422  -17.3353   25.8828 N   0  0  0  0  0  0  0  0  0  0  0  0
   11.1452  -18.5899   27.6453 C   0  0  0  0  0  0  0  0  0  0  0  0
   11.6884  -17.5149   27.9887 O   0  0  0  0  0  0  0  0  0  0  0  0
   11.3812  -19.7073   28.4219 O   0  0  0  0  0  0  0  0  0  0  0  0
  1  2  1  0
  2  3  1  0
  4  3  1  0
  5  4  1  0
  5  6  1  1
  7  5  1  0
  7  8  2  0
 10  9  1  1
 10 12  1  0
 10 11  1  0
 13 12  1  1
 13 14  1  0
 14  7  1  0
 15 13  1  0
 16 15  2  0
 18 17  1  6
 18 20  1  0
 19 18  1  0
 20 22  1  0
 20 21  1  6
 21 15  1  0
 22 24  1  0
 23 22  2  0
M  END
$$$$
