MLT.pdb
     RDKit          3D

 24 23  0  0  1  0  0  0  0  0999 V2000
   10.3683  -13.9206   29.7829 C   0  0  0  0  0  0  0  0  0  0  0  0
   11.1227  -15.5658   29.7599 S   0  0  0  0  0  0  0  0  0  0  0  0
    9.9636  -16.8143   29.1332 C   0  0  0  0  0  0  0  0  0  0  0  0
    9.2756  -16.3229   27.8643 C   0  0  0  0  0  0  0  0  0  0  0  0
    8.2294  -17.3075   27.3973 C   0  0  2  0  0  0  0  0  0  0  0  0
    8.7656  -18.6474   27.2836 N   0  0  0  0  0  0  0  0  0  0  0  0
    7.5979  -16.8820   26.1247 C   0  0  0  0  0  0  0  0  0  0  0  0
    6.9650  -17.7450   25.4476 O   0  0  0  0  0  0  0  0  0  0  0  0
    5.7514  -13.1178   26.5048 C   0  0  0  0  0  0  0  0  0  0  0  0
    7.0749  -13.1132   25.6858 C   0  0  2  0  0  0  0  0  0  0  0  0
    7.4230  -11.6520   25.5467 C   0  0  0  0  0  0  0  0  0  0  0  0
    6.7245  -13.7252   24.3695 C   0  0  0  0  0  0  0  0  0  0  0  0
    7.0628  -15.1757   24.3155 C   0  0  2  0  0  0  0  0  0  0  0  0
    7.6532  -15.5783   25.6142 N   0  0  0  0  0  0  0  0  0  0  0  0
    7.9866  -15.5896   23.2441 C   0  0  0  0  0  0  0  0  0  0  0  0
    7.6402  -15.4536   22.0043 O   0  0  0  0  0  0  0  0  0  0  0  0
   10.8157  -14.6666   21.3619 C   0  0  0  0  0  0  0  0  0  0  0  0
   11.2218  -15.9390   22.0243 C   0  0  1  0  0  0  0  0  0  0  0  0
   12.0099  -15.7091   23.1246 O   0  0  0  0  0  0  0  0  0  0  0  0
   10.0084  -16.8130   22.3557 C   0  0  2  0  0  0  0  0  0  0  0  0
    9.2726  -16.1400   23.4078 N   0  0  0  0  0  0  0  0  0  0  0  0
   10.4075  -18.1676   22.7021 C   0  0  0  0  0  0  0  0  0  0  0  0
   10.0851  -18.6568   23.8091 O   0  0  0  0  0  0  0  0  0  0  0  0
   11.1449  -18.9555   21.8403 O   0  0  0  0  0  0  0  0  0  0  0  0
  1  2  1  0
  2  3  1  0
  4  3  1  0
  5  4  1  0
  5  6  1  6
  7  5  1  0
  7  8  2  0
 10  9  1  1
 10 12  1  0
 10 11  1  0
 13 12  1  1
 13 14  1  0
 14  7  1  0
 15 13  1  0
 16 15  2  0
 18 17  1  1
 18 20  1  0
 19 18  1  0
 20 22  1  0
 20 21  1  1
 21 15  1  0
 22 24  1  0
 23 22  2  0
M  END
$$$$
