MLT.pdb
     RDKit          3D

 24 23  0  0  1  0  0  0  0  0999 V2000
    5.8348  -20.7996   23.7251 C   0  0  0  0  0  0  0  0  0  0  0  0
    4.8653  -20.2836   22.2863 S   0  0  0  0  0  0  0  0  0  0  0  0
    5.2707  -18.5844   21.7928 C   0  0  0  0  0  0  0  0  0  0  0  0
    6.3603  -18.0076   22.6900 C   0  0  0  0  0  0  0  0  0  0  0  0
    6.5885  -16.5436   22.3951 C   0  0  2  0  0  0  0  0  0  0  0  0
    7.0507  -16.3345   21.0393 N   0  0  0  0  0  0  0  0  0  0  0  0
    7.5154  -15.9204   23.3707 C   0  0  0  0  0  0  0  0  0  0  0  0
    8.7510  -15.8911   23.0946 O   0  0  0  0  0  0  0  0  0  0  0  0
    7.9221  -11.9386   25.3542 C   0  0  0  0  0  0  0  0  0  0  0  0
    6.7381  -12.8443   25.8015 C   0  0  2  0  0  0  0  0  0  0  0  0
    5.9130  -11.9616   26.7047 C   0  0  0  0  0  0  0  0  0  0  0  0
    7.3673  -13.9701   26.5543 C   0  0  0  0  0  0  0  0  0  0  0  0
    8.0587  -14.9337   25.6516 C   0  0  2  0  0  0  0  0  0  0  0  0
    7.1151  -15.3560   24.5892 N   0  0  0  0  0  0  0  0  0  0  0  0
    8.6044  -16.1460   26.2881 C   0  0  0  0  0  0  0  0  0  0  0  0
    7.8346  -16.9021   27.0033 O   0  0  0  0  0  0  0  0  0  0  0  0
   10.8404  -18.8943   24.6853 C   0  0  0  0  0  0  0  0  0  0  0  0
   11.4513  -18.4544   25.9722 C   0  0  1  0  0  0  0  0  0  0  0  0
   12.5449  -17.6505   25.7661 O   0  0  0  0  0  0  0  0  0  0  0  0
   10.4164  -17.7973   26.8906 C   0  0  2  0  0  0  0  0  0  0  0  0
    9.9299  -16.6149   26.2077 N   0  0  0  0  0  0  0  0  0  0  0  0
   10.9722  -17.5203   28.2054 C   0  0  0  0  0  0  0  0  0  0  0  0
   11.0354  -16.3432   28.6284 O   0  0  0  0  0  0  0  0  0  0  0  0
   11.4443  -18.5257   29.0261 O   0  0  0  0  0  0  0  0  0  0  0  0
  1  2  1  0
  2  3  1  0
  4  3  1  0
  5  4  1  0
  5  6  1  6
  7  5  1  0
  7  8  2  0
 10  9  1  1
 10 12  1  0
 10 11  1  0
 13 12  1  1
 13 14  1  0
 14  7  1  0
 15 13  1  0
 16 15  2  0
 18 17  1  6
 18 20  1  0
 19 18  1  0
 20 22  1  0
 20 21  1  6
 21 15  1  0
 22 24  1  0
 23 22  2  0
M  END
$$$$
