MLT.pdb
     RDKit          3D

 24 23  0  0  1  0  0  0  0  0999 V2000
    5.2465  -11.5578   26.7265 C   0  0  0  0  0  0  0  0  0  0  0  0
    6.5687  -12.5565   25.9981 S   0  0  0  0  0  0  0  0  0  0  0  0
    6.6167  -14.2189   26.7255 C   0  0  0  0  0  0  0  0  0  0  0  0
    6.4356  -15.2839   25.6496 C   0  0  0  0  0  0  0  0  0  0  0  0
    7.7707  -15.7808   25.1466 C   0  0  2  0  0  0  0  0  0  0  0  0
    8.8398  -14.8556   25.4574 N   0  0  0  0  0  0  0  0  0  0  0  0
    7.7382  -16.0814   23.6948 C   0  0  0  0  0  0  0  0  0  0  0  0
    6.8581  -16.8840   23.2647 O   0  0  0  0  0  0  0  0  0  0  0  0
    6.4445  -13.7703   20.8426 C   0  0  0  0  0  0  0  0  0  0  0  0
    7.9434  -13.4974   21.1608 C   0  0  2  0  0  0  0  0  0  0  0  0
    8.2334  -12.1775   20.4903 C   0  0  0  0  0  0  0  0  0  0  0  0
    8.6918  -14.6190   20.5189 C   0  0  0  0  0  0  0  0  0  0  0  0
    8.6112  -15.8770   21.3141 C   0  0  2  0  0  0  0  0  0  0  0  0
    8.6226  -15.5335   22.7561 N   0  0  0  0  0  0  0  0  0  0  0  0
    9.6728  -16.8703   21.0713 C   0  0  0  0  0  0  0  0  0  0  0  0
    9.8446  -17.3544   19.8831 O   0  0  0  0  0  0  0  0  0  0  0  0
   13.2838  -16.8778   20.9722 C   0  0  0  0  0  0  0  0  0  0  0  0
   12.9196  -17.9028   21.9917 C   0  0  1  0  0  0  0  0  0  0  0  0
   13.0775  -17.4260   23.2694 O   0  0  0  0  0  0  0  0  0  0  0  0
   11.5126  -18.4590   21.7527 C   0  0  2  0  0  0  0  0  0  0  0  0
   10.5779  -17.3839   22.0202 N   0  0  0  0  0  0  0  0  0  0  0  0
   11.2695  -19.6507   22.5496 C   0  0  0  0  0  0  0  0  0  0  0  0
   10.3239  -19.6787   23.3705 O   0  0  0  0  0  0  0  0  0  0  0  0
   12.0571  -20.7794   22.4360 O   0  0  0  0  0  0  0  0  0  0  0  0
  1  2  1  0
  2  3  1  0
  4  3  1  0
  5  4  1  0
  5  6  1  6
  7  5  1  0
  7  8  2  0
 10  9  1  6
 10 12  1  0
 10 11  1  0
 13 12  1  6
 13 14  1  0
 14  7  1  0
 15 13  1  0
 16 15  2  0
 18 17  1  6
 18 20  1  0
 19 18  1  0
 20 22  1  0
 20 21  1  1
 21 15  1  0
 22 24  1  0
 23 22  2  0
M  END
$$$$
