MLT.pdb
     RDKit          3D

 24 23  0  0  1  0  0  0  0  0999 V2000
   10.4111  -13.8159   29.0451 C   0  0  0  0  0  0  0  0  0  0  0  0
   11.7421  -14.7032   28.1982 S   0  0  0  0  0  0  0  0  0  0  0  0
   11.4082  -16.4862   28.1318 C   0  0  0  0  0  0  0  0  0  0  0  0
    9.9815  -16.7507   27.6635 C   0  0  0  0  0  0  0  0  0  0  0  0
    9.8953  -16.7477   26.1552 C   0  0  2  0  0  0  0  0  0  0  0  0
   10.9906  -16.0148   25.5561 N   0  0  0  0  0  0  0  0  0  0  0  0
    8.5902  -16.2310   25.6765 C   0  0  0  0  0  0  0  0  0  0  0  0
    7.5393  -16.8641   25.9903 O   0  0  0  0  0  0  0  0  0  0  0  0
    5.8157  -13.2886   26.7386 C   0  0  0  0  0  0  0  0  0  0  0  0
    7.1414  -12.9247   26.0090 C   0  0  2  0  0  0  0  0  0  0  0  0
    7.2965  -11.4411   26.2337 C   0  0  0  0  0  0  0  0  0  0  0  0
    6.8982  -13.2429   24.5703 C   0  0  0  0  0  0  0  0  0  0  0  0
    7.1592  -14.6770   24.2593 C   0  0  2  0  0  0  0  0  0  0  0  0
    8.4374  -15.0793   24.8930 N   0  0  0  0  0  0  0  0  0  0  0  0
    7.2246  -15.0321   22.8302 C   0  0  0  0  0  0  0  0  0  0  0  0
    6.1331  -15.2382   22.1655 O   0  0  0  0  0  0  0  0  0  0  0  0
    7.6006  -13.2990   20.0141 C   0  0  0  0  0  0  0  0  0  0  0  0
    8.6663  -14.3247   19.8273 C   0  0  1  0  0  0  0  0  0  0  0  0
    9.9153  -13.8084   20.0685 O   0  0  0  0  0  0  0  0  0  0  0  0
    8.3903  -15.5808   20.6592 C   0  0  2  0  0  0  0  0  0  0  0  0
    8.3890  -15.1783   22.0518 N   0  0  0  0  0  0  0  0  0  0  0  0
    9.3450  -16.6363   20.3613 C   0  0  0  0  0  0  0  0  0  0  0  0
   10.0835  -17.0923   21.2642 O   0  0  0  0  0  0  0  0  0  0  0  0
    9.4739  -17.1690   19.0937 O   0  0  0  0  0  0  0  0  0  0  0  0
  1  2  1  0
  2  3  1  0
  4  3  1  0
  5  4  1  0
  5  6  1  6
  7  5  1  0
  7  8  2  0
 10  9  1  1
 10 12  1  0
 10 11  1  0
 13 12  1  6
 13 14  1  0
 14  7  1  0
 15 13  1  0
 16 15  2  0
 18 17  1  1
 18 20  1  0
 19 18  1  0
 20 22  1  0
 20 21  1  1
 21 15  1  0
 22 24  1  0
 23 22  2  0
M  END
$$$$
