MLT.pdb
     RDKit          3D

 24 23  0  0  1  0  0  0  0  0999 V2000
    5.9843  -11.8619   27.3744 C   0  0  0  0  0  0  0  0  0  0  0  0
    7.4603  -12.8679   27.0816 S   0  0  0  0  0  0  0  0  0  0  0  0
    7.2867  -13.8722   25.5795 C   0  0  0  0  0  0  0  0  0  0  0  0
    6.5681  -15.1815   25.8861 C   0  0  0  0  0  0  0  0  0  0  0  0
    6.2722  -15.9487   24.6188 C   0  0  2  0  0  0  0  0  0  0  0  0
    5.6790  -17.2393   24.8984 N   0  0  0  0  0  0  0  0  0  0  0  0
    7.4769  -16.0951   23.7664 C   0  0  0  0  0  0  0  0  0  0  0  0
    8.1360  -17.1744   23.8342 O   0  0  0  0  0  0  0  0  0  0  0  0
    7.1333  -14.3350   19.7047 C   0  0  0  0  0  0  0  0  0  0  0  0
    7.8238  -13.4957   20.8188 C   0  0  2  0  0  0  0  0  0  0  0  0
    7.9608  -12.1186   20.2183 C   0  0  0  0  0  0  0  0  0  0  0  0
    9.1539  -14.1410   21.0295 C   0  0  0  0  0  0  0  0  0  0  0  0
    9.0712  -15.3150   21.9440 C   0  0  2  0  0  0  0  0  0  0  0  0
    7.9415  -15.1124   22.8821 N   0  0  0  0  0  0  0  0  0  0  0  0
   10.2782  -15.6091   22.7372 C   0  0  0  0  0  0  0  0  0  0  0  0
   11.1543  -14.6799   22.9487 O   0  0  0  0  0  0  0  0  0  0  0  0
   10.8610  -17.2293   26.3634 C   0  0  0  0  0  0  0  0  0  0  0  0
   11.4876  -17.9925   25.2464 C   0  0  1  0  0  0  0  0  0  0  0  0
   10.7111  -19.0569   24.8608 O   0  0  0  0  0  0  0  0  0  0  0  0
   11.8404  -17.0786   24.0689 C   0  0  2  0  0  0  0  0  0  0  0  0
   10.6151  -16.8405   23.3319 N   0  0  0  0  0  0  0  0  0  0  0  0
   12.9052  -17.6450   23.2567 C   0  0  0  0  0  0  0  0  0  0  0  0
   12.6663  -18.0481   22.0952 O   0  0  0  0  0  0  0  0  0  0  0  0
   14.1995  -17.7595   23.7246 O   0  0  0  0  0  0  0  0  0  0  0  0
  1  2  1  0
  2  3  1  0
  4  3  1  0
  5  4  1  0
  5  6  1  1
  7  5  1  0
  7  8  2  0
 10  9  1  6
 10 12  1  0
 10 11  1  0
 13 12  1  1
 13 14  1  0
 14  7  1  0
 15 13  1  0
 16 15  2  0
 18 17  1  1
 18 20  1  0
 19 18  1  0
 20 22  1  0
 20 21  1  6
 21 15  1  0
 22 24  1  0
 23 22  2  0
M  END
$$$$
