MLT.pdb
     RDKit          3D

 24 23  0  0  1  0  0  0  0  0999 V2000
    9.0331  -11.5034   19.4614 C   0  0  0  0  0  0  0  0  0  0  0  0
    7.8537  -12.6390   18.6896 S   0  0  0  0  0  0  0  0  0  0  0  0
    7.6341  -14.1399   19.6865 C   0  0  0  0  0  0  0  0  0  0  0  0
    8.4347  -14.0496   20.9810 C   0  0  0  0  0  0  0  0  0  0  0  0
    8.3771  -15.3502   21.7475 C   0  0  2  0  0  0  0  0  0  0  0  0
    7.0726  -15.9709   21.6545 N   0  0  0  0  0  0  0  0  0  0  0  0
    8.7789  -15.1758   23.1643 C   0  0  0  0  0  0  0  0  0  0  0  0
    9.9695  -14.8240   23.4145 O   0  0  0  0  0  0  0  0  0  0  0  0
    7.7303  -12.2176   26.2436 C   0  0  0  0  0  0  0  0  0  0  0  0
    6.6560  -13.2589   25.8149 C   0  0  2  0  0  0  0  0  0  0  0  0
    5.3871  -12.7803   26.4756 C   0  0  0  0  0  0  0  0  0  0  0  0
    7.1192  -14.5589   26.3854 C   0  0  0  0  0  0  0  0  0  0  0  0
    8.3051  -15.0999   25.6625 C   0  0  2  0  0  0  0  0  0  0  0  0
    7.9242  -15.3753   24.2567 N   0  0  0  0  0  0  0  0  0  0  0  0
    8.9067  -16.3236   26.2223 C   0  0  0  0  0  0  0  0  0  0  0  0
    9.0638  -16.4387   27.5020 O   0  0  0  0  0  0  0  0  0  0  0  0
    8.2600  -20.1890   25.2458 C   0  0  0  0  0  0  0  0  0  0  0  0
    9.6992  -19.8026   25.2004 C   0  0  1  0  0  0  0  0  0  0  0  0
   10.1284  -19.5950   23.9130 O   0  0  0  0  0  0  0  0  0  0  0  0
    9.9882  -18.6017   26.1061 C   0  0  2  0  0  0  0  0  0  0  0  0
    9.3520  -17.4483   25.5011 N   0  0  0  0  0  0  0  0  0  0  0  0
   11.4159  -18.4300   26.3219 C   0  0  0  0  0  0  0  0  0  0  0  0
   11.9999  -17.4073   25.8958 O   0  0  0  0  0  0  0  0  0  0  0  0
   12.1722  -19.3706   26.9932 O   0  0  0  0  0  0  0  0  0  0  0  0
  1  2  1  0
  2  3  1  0
  4  3  1  0
  5  4  1  0
  5  6  1  1
  7  5  1  0
  7  8  2  0
 10  9  1  1
 10 12  1  0
 10 11  1  0
 13 12  1  1
 13 14  1  0
 14  7  1  0
 15 13  1  0
 16 15  2  0
 18 17  1  6
 18 20  1  0
 19 18  1  0
 20 22  1  0
 20 21  1  6
 21 15  1  0
 22 24  1  0
 23 22  2  0
M  END
$$$$
