MLT.pdb
     RDKit          3D

 24 23  0  0  1  0  0  0  0  0999 V2000
    7.4072  -11.6106   19.7121 C   0  0  0  0  0  0  0  0  0  0  0  0
    7.2679  -13.3657   19.2921 S   0  0  0  0  0  0  0  0  0  0  0  0
    8.5917  -14.3365   20.0668 C   0  0  0  0  0  0  0  0  0  0  0  0
    8.3972  -14.4046   21.5776 C   0  0  0  0  0  0  0  0  0  0  0  0
    9.5983  -15.0242   22.2527 C   0  0  2  0  0  0  0  0  0  0  0  0
    9.9841  -16.2701   21.6245 N   0  0  0  0  0  0  0  0  0  0  0  0
    9.3798  -15.2121   23.7074 C   0  0  0  0  0  0  0  0  0  0  0  0
   10.2120  -15.9119   24.3567 O   0  0  0  0  0  0  0  0  0  0  0  0
    8.1827  -11.8346   26.5076 C   0  0  0  0  0  0  0  0  0  0  0  0
    7.0666  -12.5776   25.7171 C   0  0  2  0  0  0  0  0  0  0  0  0
    5.8170  -11.7800   25.9963 C   0  0  0  0  0  0  0  0  0  0  0  0
    6.9981  -13.9412   26.3220 C   0  0  0  0  0  0  0  0  0  0  0  0
    8.1295  -14.8078   25.8856 C   0  0  2  0  0  0  0  0  0  0  0  0
    8.3057  -14.6636   24.4209 N   0  0  0  0  0  0  0  0  0  0  0  0
    8.0061  -16.2440   26.1930 C   0  0  0  0  0  0  0  0  0  0  0  0
    7.8477  -16.6309   27.4182 O   0  0  0  0  0  0  0  0  0  0  0  0
    6.0226  -18.9733   24.0301 C   0  0  0  0  0  0  0  0  0  0  0  0
    7.3830  -19.4501   24.4105 C   0  0  1  0  0  0  0  0  0  0  0  0
    8.2547  -19.3949   23.3514 O   0  0  0  0  0  0  0  0  0  0  0  0
    7.9175  -18.7051   25.6375 C   0  0  2  0  0  0  0  0  0  0  0  0
    8.0348  -17.3077   25.2705 N   0  0  0  0  0  0  0  0  0  0  0  0
    9.1629  -19.2867   26.1119 C   0  0  0  0  0  0  0  0  0  0  0  0
   10.2136  -18.6052   26.1229 O   0  0  0  0  0  0  0  0  0  0  0  0
    9.2364  -20.5906   26.5612 O   0  0  0  0  0  0  0  0  0  0  0  0
  1  2  1  0
  2  3  1  0
  4  3  1  0
  5  4  1  0
  5  6  1  6
  7  5  1  0
  7  8  2  0
 10  9  1  1
 10 12  1  0
 10 11  1  0
 13 12  1  6
 13 14  1  0
 14  7  1  0
 15 13  1  0
 16 15  2  0
 18 17  1  6
 18 20  1  0
 19 18  1  0
 20 22  1  0
 20 21  1  6
 21 15  1  0
 22 24  1  0
 23 22  2  0
M  END
$$$$
