MLT.pdb
     RDKit          3D

 24 23  0  0  1  0  0  0  0  0999 V2000
   10.7164  -14.5415   29.9601 C   0  0  0  0  0  0  0  0  0  0  0  0
   10.8547  -16.3306   30.1971 S   0  0  0  0  0  0  0  0  0  0  0  0
    9.3995  -17.1970   29.5439 C   0  0  0  0  0  0  0  0  0  0  0  0
    9.1952  -16.8713   28.0684 C   0  0  0  0  0  0  0  0  0  0  0  0
    7.8322  -17.3205   27.5964 C   0  0  2  0  0  0  0  0  0  0  0  0
    7.6888  -18.7596   27.6612 N   0  0  0  0  0  0  0  0  0  0  0  0
    7.5255  -16.8203   26.2344 C   0  0  0  0  0  0  0  0  0  0  0  0
    7.0783  -17.6390   25.3779 O   0  0  0  0  0  0  0  0  0  0  0  0
    5.4968  -13.1884   25.8112 C   0  0  0  0  0  0  0  0  0  0  0  0
    7.0417  -13.0183   25.7290 C   0  0  2  0  0  0  0  0  0  0  0  0
    7.2581  -11.5275   25.8075 C   0  0  0  0  0  0  0  0  0  0  0  0
    7.4263  -13.5625   24.3926 C   0  0  0  0  0  0  0  0  0  0  0  0
    7.5966  -15.0431   24.4158 C   0  0  2  0  0  0  0  0  0  0  0  0
    7.6979  -15.4913   25.8251 N   0  0  0  0  0  0  0  0  0  0  0  0
    8.7573  -15.5768   23.6806 C   0  0  0  0  0  0  0  0  0  0  0  0
    9.9470  -15.4552   24.1761 O   0  0  0  0  0  0  0  0  0  0  0  0
    9.0422  -19.1459   21.8006 C   0  0  0  0  0  0  0  0  0  0  0  0
    9.4347  -17.9870   20.9488 C   0  0  1  0  0  0  0  0  0  0  0  0
    8.4335  -17.6354   20.0777 O   0  0  0  0  0  0  0  0  0  0  0  0
    9.9064  -16.8008   21.7952 C   0  0  2  0  0  0  0  0  0  0  0  0
    8.7339  -16.2444   22.4408 N   0  0  0  0  0  0  0  0  0  0  0  0
   10.6409  -15.8347   20.9943 C   0  0  0  0  0  0  0  0  0  0  0  0
   10.1998  -14.6718   20.8471 O   0  0  0  0  0  0  0  0  0  0  0  0
   11.8328  -16.1545   20.3743 O   0  0  0  0  0  0  0  0  0  0  0  0
  1  2  1  0
  2  3  1  0
  4  3  1  0
  5  4  1  0
  5  6  1  6
  7  5  1  0
  7  8  2  0
 10  9  1  6
 10 12  1  0
 10 11  1  0
 13 12  1  1
 13 14  1  0
 14  7  1  0
 15 13  1  0
 16 15  2  0
 18 17  1  1
 18 20  1  0
 19 18  1  0
 20 22  1  0
 20 21  1  6
 21 15  1  0
 22 24  1  0
 23 22  2  0
M  END
$$$$
