MLT.pdb
     RDKit          3D

 24 23  0  0  1  0  0  0  0  0999 V2000
    8.4440  -11.3245   19.4374 C   0  0  0  0  0  0  0  0  0  0  0  0
    7.4216  -12.5855   18.6369 S   0  0  0  0  0  0  0  0  0  0  0  0
    7.6382  -14.2071   19.4233 C   0  0  0  0  0  0  0  0  0  0  0  0
    8.2593  -14.0566   20.8077 C   0  0  0  0  0  0  0  0  0  0  0  0
    8.3737  -15.3943   21.5003 C   0  0  2  0  0  0  0  0  0  0  0  0
    7.1584  -16.1705   21.3733 N   0  0  0  0  0  0  0  0  0  0  0  0
    8.7606  -15.2488   22.9245 C   0  0  0  0  0  0  0  0  0  0  0  0
    9.9690  -14.9857   23.1972 O   0  0  0  0  0  0  0  0  0  0  0  0
    8.1243  -12.2857   26.0397 C   0  0  0  0  0  0  0  0  0  0  0  0
    6.9257  -13.1661   25.5806 C   0  0  2  0  0  0  0  0  0  0  0  0
    5.7210  -12.5177   26.2161 C   0  0  0  0  0  0  0  0  0  0  0  0
    7.1906  -14.5197   26.1531 C   0  0  0  0  0  0  0  0  0  0  0  0
    8.2716  -15.2386   25.4209 C   0  0  2  0  0  0  0  0  0  0  0  0
    7.8732  -15.3836   24.0005 N   0  0  0  0  0  0  0  0  0  0  0  0
    8.6305  -16.5727   25.9347 C   0  0  0  0  0  0  0  0  0  0  0  0
    7.7029  -17.4430   26.1752 O   0  0  0  0  0  0  0  0  0  0  0  0
   10.5315  -19.2784   24.4434 C   0  0  0  0  0  0  0  0  0  0  0  0
   11.1716  -19.0529   25.7709 C   0  0  1  0  0  0  0  0  0  0  0  0
   12.3627  -18.3806   25.6522 O   0  0  0  0  0  0  0  0  0  0  0  0
   10.2140  -18.3630   26.7472 C   0  0  2  0  0  0  0  0  0  0  0  0
    9.9276  -17.0488   26.2069 N   0  0  0  0  0  0  0  0  0  0  0  0
   10.7609  -18.3299   28.0942 C   0  0  0  0  0  0  0  0  0  0  0  0
   11.0440  -17.2355   28.6334 O   0  0  0  0  0  0  0  0  0  0  0  0
   10.9862  -19.4828   28.8203 O   0  0  0  0  0  0  0  0  0  0  0  0
  1  2  1  0
  2  3  1  0
  4  3  1  0
  5  4  1  0
  5  6  1  1
  7  5  1  0
  7  8  2  0
 10  9  1  1
 10 12  1  0
 10 11  1  0
 13 12  1  1
 13 14  1  0
 14  7  1  0
 15 13  1  0
 16 15  2  0
 18 17  1  6
 18 20  1  0
 19 18  1  0
 20 22  1  0
 20 21  1  6
 21 15  1  0
 22 24  1  0
 23 22  2  0
M  END
$$$$
