QCK.pdb
     RDKit          3D

 25 24  0  0  1  0  0  0  0  0999 V2000
   28.3995  -22.4596  -15.6998 N   0  0  0  0  0  0  0  0  0  0  0  0
   28.0660  -21.1932  -16.3106 C   0  0  0  0  0  0  0  0  0  0  0  0
   27.7223  -21.2783  -17.5117 O   0  0  0  0  0  0  0  0  0  0  0  0
   28.1373  -19.9498  -15.5465 C   0  0  0  0  0  0  0  0  0  0  0  0
   26.8830  -19.2394  -15.2625 C   0  0  0  0  0  0  0  0  0  0  0  0
   25.7928  -19.2283  -16.2462 C   0  0  2  0  0  0  0  0  0  0  0  0
   26.1636  -18.6199  -17.4728 N   0  0  0  0  0  0  0  0  0  0  0  0
   24.4851  -18.7848  -15.7374 C   0  0  0  0  0  0  0  0  0  0  0  0
   24.0162  -19.2205  -14.6492 O   0  0  0  0  0  0  0  0  0  0  0  0
   23.6962  -17.8498  -16.4494 N   0  0  0  0  0  0  0  0  0  0  0  0
   22.4000  -17.4442  -15.8869 C   0  0  1  0  0  0  0  0  0  0  0  0
   22.1902  -15.9815  -16.2430 C   0  0  0  0  0  0  0  0  0  0  0  0
   23.4639  -14.9167  -15.5495 S   0  0  0  0  0  0  0  0  0  0  0  0
   21.2916  -18.1980  -16.5439 C   0  0  0  0  0  0  0  0  0  0  0  0
   21.4381  -18.8045  -17.6209 O   0  0  0  0  0  0  0  0  0  0  0  0
   20.0395  -18.2164  -15.9127 N   0  0  0  0  0  0  0  0  0  0  0  0
   19.0674  -19.2822  -16.0544 C   0  0  1  0  0  0  0  0  0  0  0  0
   19.6996  -20.5736  -15.6374 C   0  0  0  0  0  0  0  0  0  0  0  0
   18.8408  -21.7753  -15.7315 C   0  0  0  0  0  0  0  0  0  0  0  0
   19.4103  -23.0550  -15.2404 C   0  0  0  0  0  0  0  0  0  0  0  0
   18.5619  -24.2662  -15.4226 C   0  0  0  0  0  0  0  0  0  0  0  0
   19.0247  -25.4490  -14.7416 N   0  0  0  0  0  0  0  0  0  0  0  0
   17.8118  -18.9874  -15.3416 C   0  0  0  0  0  0  0  0  0  0  0  0
   17.8139  -18.6347  -14.1353 O   0  0  0  0  0  0  0  0  0  0  0  0
   16.5560  -19.0780  -15.9464 O   0  0  0  0  0  0  0  0  0  0  0  0
  1  2  1  0
  2  4  1  0
  3  2  2  0
  4  5  1  0
  5  6  1  0
  6  7  1  6
  8  6  1  0
  8 10  1  0
  9  8  2  0
 11 10  1  0
 11 14  1  0
 11 12  1  6
 13 12  1  0
 14 15  2  0
 16 14  1  0
 16 17  1  0
 17 23  1  0
 17 18  1  1
 19 18  1  0
 20 19  1  0
 21 22  1  0
 21 20  1  0
 23 25  1  0
 24 23  2  0
M  END
$$$$
