QCK.pdb
     RDKit          3D

 25 24  0  0  1  0  0  0  0  0999 V2000
   19.9176  -23.3675   -9.1336 N   0  0  0  0  0  0  0  0  0  0  0  0
   18.7861  -23.2742  -10.0275 C   0  0  0  0  0  0  0  0  0  0  0  0
   17.6851  -23.5306   -9.4890 O   0  0  0  0  0  0  0  0  0  0  0  0
   18.9663  -22.9054  -11.4298 C   0  0  0  0  0  0  0  0  0  0  0  0
   20.3353  -22.6911  -11.9184 C   0  0  0  0  0  0  0  0  0  0  0  0
   20.6878  -21.4575  -12.6327 C   0  0  2  0  0  0  0  0  0  0  0  0
   19.5511  -20.7242  -13.0599 N   0  0  0  0  0  0  0  0  0  0  0  0
   21.7238  -21.5992  -13.6682 C   0  0  0  0  0  0  0  0  0  0  0  0
   22.8407  -22.1319  -13.4180 O   0  0  0  0  0  0  0  0  0  0  0  0
   21.5108  -21.1421  -14.9908 N   0  0  0  0  0  0  0  0  0  0  0  0
   22.5857  -21.3108  -15.9793 C   0  0  1  0  0  0  0  0  0  0  0  0
   21.9971  -22.0591  -17.1642 C   0  0  0  0  0  0  0  0  0  0  0  0
   23.1813  -22.2649  -18.5031 S   0  0  0  0  0  0  0  0  0  0  0  0
   23.0243  -19.9821  -16.4994 C   0  0  0  0  0  0  0  0  0  0  0  0
   22.2435  -19.0221  -16.6325 O   0  0  0  0  0  0  0  0  0  0  0  0
   24.3729  -19.8212  -16.8487 N   0  0  0  0  0  0  0  0  0  0  0  0
   24.9481  -18.5863  -17.3437 C   0  0  1  0  0  0  0  0  0  0  0  0
   26.4193  -18.7815  -17.5408 C   0  0  0  0  0  0  0  0  0  0  0  0
   27.1735  -17.5958  -18.0053 C   0  0  0  0  0  0  0  0  0  0  0  0
   28.6228  -17.7760  -18.2703 C   0  0  0  0  0  0  0  0  0  0  0  0
   29.3710  -16.5590  -18.6937 C   0  0  0  0  0  0  0  0  0  0  0  0
   30.7876  -16.7435  -18.8834 N   0  0  0  0  0  0  0  0  0  0  0  0
   24.2557  -18.0944  -18.5480 C   0  0  0  0  0  0  0  0  0  0  0  0
   23.9199  -18.8766  -19.4726 O   0  0  0  0  0  0  0  0  0  0  0  0
   23.9309  -16.7497  -18.7411 O   0  0  0  0  0  0  0  0  0  0  0  0
  1  2  1  0
  2  4  1  0
  3  2  2  0
  4  5  1  0
  5  6  1  0
  6  7  1  6
  8  6  1  0
  8 10  1  0
  9  8  2  0
 11 10  1  0
 11 14  1  0
 11 12  1  6
 13 12  1  0
 14 15  2  0
 16 14  1  0
 16 17  1  0
 17 23  1  0
 17 18  1  6
 19 18  1  0
 20 19  1  0
 21 22  1  0
 21 20  1  0
 23 25  1  0
 24 23  2  0
M  END
$$$$
