QCK.pdb
     RDKit          3D

 25 24  0  0  1  0  0  0  0  0999 V2000
   18.4439  -15.6795  -15.3528 N   0  0  0  0  0  0  0  0  0  0  0  0
   18.8508  -15.8425  -16.7298 C   0  0  0  0  0  0  0  0  0  0  0  0
   18.5257  -16.9419  -17.2336 O   0  0  0  0  0  0  0  0  0  0  0  0
   19.5748  -14.7831  -17.4285 C   0  0  0  0  0  0  0  0  0  0  0  0
   19.8277  -13.5273  -16.7090 C   0  0  0  0  0  0  0  0  0  0  0  0
   18.9495  -12.3664  -16.9031 C   0  0  2  0  0  0  0  0  0  0  0  0
   18.6614  -12.1159  -18.2693 N   0  0  0  0  0  0  0  0  0  0  0  0
   19.3177  -11.1599  -16.1452 C   0  0  0  0  0  0  0  0  0  0  0  0
   19.9769  -11.2292  -15.0707 O   0  0  0  0  0  0  0  0  0  0  0  0
   18.9463   -9.8686  -16.5901 N   0  0  0  0  0  0  0  0  0  0  0  0
   19.4275   -8.6975  -15.8432 C   0  0  1  0  0  0  0  0  0  0  0  0
   20.9466   -8.7455  -15.8566 C   0  0  0  0  0  0  0  0  0  0  0  0
   21.6749   -7.8137  -14.5006 S   0  0  0  0  0  0  0  0  0  0  0  0
   19.0423   -7.4393  -16.5482 C   0  0  0  0  0  0  0  0  0  0  0  0
   19.2649   -7.2528  -17.7585 O   0  0  0  0  0  0  0  0  0  0  0  0
   18.4046   -6.4344  -15.8066 N   0  0  0  0  0  0  0  0  0  0  0  0
   17.9699   -5.1646  -16.3539 C   0  0  1  0  0  0  0  0  0  0  0  0
   16.4839   -5.0568  -16.2075 C   0  0  0  0  0  0  0  0  0  0  0  0
   15.8812   -3.7775  -16.6442 C   0  0  0  0  0  0  0  0  0  0  0  0
   14.4091   -3.6418  -16.5106 C   0  0  0  0  0  0  0  0  0  0  0  0
   13.8321   -2.3225  -16.8936 C   0  0  0  0  0  0  0  0  0  0  0  0
   12.4547   -2.1225  -16.5202 N   0  0  0  0  0  0  0  0  0  0  0  0
   18.7006   -4.0274  -15.7671 C   0  0  0  0  0  0  0  0  0  0  0  0
   19.1074   -4.0570  -14.5783 O   0  0  0  0  0  0  0  0  0  0  0  0
   18.9862   -2.8598  -16.4786 O   0  0  0  0  0  0  0  0  0  0  0  0
  1  2  1  0
  2  4  1  0
  3  2  2  0
  4  5  1  0
  5  6  1  0
  6  7  1  6
  8  6  1  0
  8 10  1  0
  9  8  2  0
 11 10  1  0
 11 14  1  0
 11 12  1  6
 13 12  1  0
 14 15  2  0
 16 14  1  0
 16 17  1  0
 17 23  1  0
 17 18  1  1
 19 18  1  0
 20 19  1  0
 21 22  1  0
 21 20  1  0
 23 25  1  0
 24 23  2  0
M  END
$$$$
