QCK.pdb
     RDKit          3D

 25 24  0  0  1  0  0  0  0  0999 V2000
   18.6992  -12.2103  -15.9894 N   0  0  0  0  0  0  0  0  0  0  0  0
   19.5927  -12.7541  -16.9865 C   0  0  0  0  0  0  0  0  0  0  0  0
   19.0437  -13.5391  -17.7930 O   0  0  0  0  0  0  0  0  0  0  0  0
   21.0060  -12.3843  -17.0090 C   0  0  0  0  0  0  0  0  0  0  0  0
   21.4764  -11.3894  -16.0355 C   0  0  0  0  0  0  0  0  0  0  0  0
   21.9292  -10.0656  -16.4814 C   0  0  2  0  0  0  0  0  0  0  0  0
   23.3098  -10.0359  -16.8057 N   0  0  0  0  0  0  0  0  0  0  0  0
   21.4925   -8.9333  -15.6490 C   0  0  0  0  0  0  0  0  0  0  0  0
   20.5468   -9.0474  -14.8203 O   0  0  0  0  0  0  0  0  0  0  0  0
   22.1155   -7.6659  -15.7438 N   0  0  0  0  0  0  0  0  0  0  0  0
   21.6396   -6.5772  -14.8782 C   0  0  1  0  0  0  0  0  0  0  0  0
   22.8529   -5.7531  -14.4795 C   0  0  0  0  0  0  0  0  0  0  0  0
   22.4120   -4.3166  -13.4899 S   0  0  0  0  0  0  0  0  0  0  0  0
   20.7443   -5.6604  -15.6440 C   0  0  0  0  0  0  0  0  0  0  0  0
   21.0200   -5.2527  -16.7872 O   0  0  0  0  0  0  0  0  0  0  0  0
   19.5472   -5.2489  -15.0406 N   0  0  0  0  0  0  0  0  0  0  0  0
   18.5515   -4.4146  -15.6836 C   0  0  1  0  0  0  0  0  0  0  0  0
   17.3219   -5.2316  -15.9326 C   0  0  0  0  0  0  0  0  0  0  0  0
   16.1979   -4.5269  -16.5888 C   0  0  0  0  0  0  0  0  0  0  0  0
   14.9753   -5.3191  -16.8730 C   0  0  0  0  0  0  0  0  0  0  0  0
   13.8932   -4.6156  -17.6175 C   0  0  0  0  0  0  0  0  0  0  0  0
   12.6851   -5.3770  -17.8111 N   0  0  0  0  0  0  0  0  0  0  0  0
   18.2899   -3.1778  -14.9262 C   0  0  0  0  0  0  0  0  0  0  0  0
   18.3576   -3.1547  -13.6715 O   0  0  0  0  0  0  0  0  0  0  0  0
   17.9548   -1.9684  -15.5394 O   0  0  0  0  0  0  0  0  0  0  0  0
  1  2  1  0
  2  4  1  0
  3  2  2  0
  4  5  1  0
  5  6  1  0
  6  7  1  1
  8  6  1  0
  8 10  1  0
  9  8  2  0
 11 10  1  0
 11 14  1  0
 11 12  1  6
 13 12  1  0
 14 15  2  0
 16 14  1  0
 16 17  1  0
 17 23  1  0
 17 18  1  1
 19 18  1  0
 20 19  1  0
 21 22  1  0
 21 20  1  0
 23 25  1  0
 24 23  2  0
M  END
$$$$
