QCK.pdb
     RDKit          3D

 25 24  0  0  1  0  0  0  0  0999 V2000
   18.0956  -17.3198  -15.8705 N   0  0  0  0  0  0  0  0  0  0  0  0
   18.8529  -18.0884  -16.8318 C   0  0  0  0  0  0  0  0  0  0  0  0
   18.2386  -19.0755  -17.2968 O   0  0  0  0  0  0  0  0  0  0  0  0
   20.2138  -17.7016  -17.1968 C   0  0  0  0  0  0  0  0  0  0  0  0
   20.7774  -16.4918  -16.5824 C   0  0  0  0  0  0  0  0  0  0  0  0
   22.1495  -16.4909  -16.0592 C   0  0  2  0  0  0  0  0  0  0  0  0
   22.4217  -17.6052  -15.2246 N   0  0  0  0  0  0  0  0  0  0  0  0
   22.6154  -15.2094  -15.5056 C   0  0  0  0  0  0  0  0  0  0  0  0
   22.2070  -14.7833  -14.3896 O   0  0  0  0  0  0  0  0  0  0  0  0
   23.5423  -14.3988  -16.2037 N   0  0  0  0  0  0  0  0  0  0  0  0
   23.9534  -13.1198  -15.6071 C   0  0  1  0  0  0  0  0  0  0  0  0
   25.4440  -12.9617  -15.8590 C   0  0  0  0  0  0  0  0  0  0  0  0
   26.4347  -14.0471  -14.8208 S   0  0  0  0  0  0  0  0  0  0  0  0
   23.2874  -11.9830  -16.3089 C   0  0  0  0  0  0  0  0  0  0  0  0
   23.2410  -11.8944  -17.5495 O   0  0  0  0  0  0  0  0  0  0  0  0
   22.6937  -10.9807  -15.5282 N   0  0  0  0  0  0  0  0  0  0  0  0
   22.0197   -9.8159  -16.0667 C   0  0  1  0  0  0  0  0  0  0  0  0
   20.5461   -9.9639  -15.8475 C   0  0  0  0  0  0  0  0  0  0  0  0
   19.6939   -8.9099  -16.4417 C   0  0  0  0  0  0  0  0  0  0  0  0
   18.2273   -9.0377  -16.2520 C   0  0  0  0  0  0  0  0  0  0  0  0
   17.3824   -8.0303  -16.9531 C   0  0  0  0  0  0  0  0  0  0  0  0
   15.9715   -8.1074  -16.6698 N   0  0  0  0  0  0  0  0  0  0  0  0
   22.5687   -8.5584  -15.5292 C   0  0  0  0  0  0  0  0  0  0  0  0
   22.2486   -7.4456  -16.0176 O   0  0  0  0  0  0  0  0  0  0  0  0
   23.4662   -8.5175  -14.4596 O   0  0  0  0  0  0  0  0  0  0  0  0
  1  2  1  0
  2  4  1  0
  3  2  2  0
  4  5  1  0
  5  6  1  0
  6  7  1  1
  8  6  1  0
  8 10  1  0
  9  8  2  0
 11 10  1  0
 11 14  1  0
 11 12  1  6
 13 12  1  0
 14 15  2  0
 16 14  1  0
 16 17  1  0
 17 23  1  0
 17 18  1  1
 19 18  1  0
 20 19  1  0
 21 22  1  0
 21 20  1  0
 23 25  1  0
 24 23  2  0
M  END
$$$$
