QCK.pdb
     RDKit          3D

 25 24  0  0  1  0  0  0  0  0999 V2000
   19.7273  -15.3215  -17.0377 N   0  0  0  0  0  0  0  0  0  0  0  0
   20.5139  -15.4397  -18.2442 C   0  0  0  0  0  0  0  0  0  0  0  0
   20.0258  -16.2121  -19.1005 O   0  0  0  0  0  0  0  0  0  0  0  0
   21.7624  -14.6972  -18.4015 C   0  0  0  0  0  0  0  0  0  0  0  0
   22.1835  -13.8121  -17.3070 C   0  0  0  0  0  0  0  0  0  0  0  0
   23.4361  -13.0516  -17.4026 C   0  0  2  0  0  0  0  0  0  0  0  0
   24.5605  -13.8736  -17.6716 N   0  0  0  0  0  0  0  0  0  0  0  0
   23.6642  -12.0695  -16.3306 C   0  0  0  0  0  0  0  0  0  0  0  0
   23.9352  -12.4287  -15.1510 O   0  0  0  0  0  0  0  0  0  0  0  0
   23.5879  -10.6779  -16.5780 N   0  0  0  0  0  0  0  0  0  0  0  0
   23.8326   -9.7475  -15.4666 C   0  0  1  0  0  0  0  0  0  0  0  0
   25.3073   -9.8448  -15.1116 C   0  0  0  0  0  0  0  0  0  0  0  0
   26.3748   -9.5897  -16.5374 S   0  0  0  0  0  0  0  0  0  0  0  0
   23.6004   -8.3405  -15.9082 C   0  0  0  0  0  0  0  0  0  0  0  0
   23.7008   -7.9846  -17.0967 O   0  0  0  0  0  0  0  0  0  0  0  0
   23.2557   -7.3907  -14.9359 N   0  0  0  0  0  0  0  0  0  0  0  0
   22.7086   -6.0809  -15.2294 C   0  0  1  0  0  0  0  0  0  0  0  0
   21.5145   -6.2423  -16.1179 C   0  0  0  0  0  0  0  0  0  0  0  0
   20.7784   -5.0008  -16.4455 C   0  0  0  0  0  0  0  0  0  0  0  0
   19.5724   -5.1340  -17.3005 C   0  0  0  0  0  0  0  0  0  0  0  0
   18.8195   -3.8783  -17.5770 C   0  0  0  0  0  0  0  0  0  0  0  0
   17.5867   -4.0484  -18.3038 N   0  0  0  0  0  0  0  0  0  0  0  0
   22.4285   -5.3089  -14.0058 C   0  0  0  0  0  0  0  0  0  0  0  0
   22.2339   -4.0680  -14.0478 O   0  0  0  0  0  0  0  0  0  0  0  0
   22.3613   -5.8923  -12.7385 O   0  0  0  0  0  0  0  0  0  0  0  0
  1  2  1  0
  2  4  1  0
  3  2  2  0
  4  5  1  0
  5  6  1  0
  6  7  1  1
  8  6  1  0
  8 10  1  0
  9  8  2  0
 11 10  1  0
 11 14  1  0
 11 12  1  6
 13 12  1  0
 14 15  2  0
 16 14  1  0
 16 17  1  0
 17 23  1  0
 17 18  1  1
 19 18  1  0
 20 19  1  0
 21 22  1  0
 21 20  1  0
 23 25  1  0
 24 23  2  0
M  END
$$$$
