QCK.pdb
     RDKit          3D

 25 24  0  0  1  0  0  0  0  0999 V2000
   32.7955  -40.1045   -3.2898 N   0  0  0  0  0  0  0  0  0  0  0  0
   33.8553  -39.4281   -4.0021 C   0  0  0  0  0  0  0  0  0  0  0  0
   34.5637  -40.1839   -4.7056 O   0  0  0  0  0  0  0  0  0  0  0  0
   34.0389  -37.9837   -3.8794 C   0  0  0  0  0  0  0  0  0  0  0  0
   33.1636  -37.2513   -2.9541 C   0  0  0  0  0  0  0  0  0  0  0  0
   33.1638  -35.7830   -2.9317 C   0  0  2  0  0  0  0  0  0  0  0  0
   34.3918  -35.2392   -2.4749 N   0  0  0  0  0  0  0  0  0  0  0  0
   31.9778  -35.1587   -2.3239 C   0  0  0  0  0  0  0  0  0  0  0  0
   32.0587  -34.4774   -1.2640 O   0  0  0  0  0  0  0  0  0  0  0  0
   30.6938  -35.2973   -2.9033 N   0  0  0  0  0  0  0  0  0  0  0  0
   29.5811  -34.5092   -2.3541 C   0  0  1  0  0  0  0  0  0  0  0  0
   28.6134  -34.2374   -3.4943 C   0  0  0  0  0  0  0  0  0  0  0  0
   27.1221  -33.3952   -2.9429 S   0  0  0  0  0  0  0  0  0  0  0  0
   28.8261  -35.3112   -1.3466 C   0  0  0  0  0  0  0  0  0  0  0  0
   28.5122  -36.5009   -1.5340 O   0  0  0  0  0  0  0  0  0  0  0  0
   28.4613  -34.6881   -0.1444 N   0  0  0  0  0  0  0  0  0  0  0  0
   27.5493  -35.2570    0.8280 C   0  0  1  0  0  0  0  0  0  0  0  0
   27.5854  -34.4243    2.0717 C   0  0  0  0  0  0  0  0  0  0  0  0
   26.7556  -34.9065    3.1984 C   0  0  0  0  0  0  0  0  0  0  0  0
   26.7931  -34.1160    4.4541 C   0  0  0  0  0  0  0  0  0  0  0  0
   25.8153  -34.5076    5.5080 C   0  0  0  0  0  0  0  0  0  0  0  0
   25.9277  -33.7847    6.7497 N   0  0  0  0  0  0  0  0  0  0  0  0
   26.1926  -35.4338    0.2803 C   0  0  0  0  0  0  0  0  0  0  0  0
   25.5648  -36.5123    0.4288 O   0  0  0  0  0  0  0  0  0  0  0  0
   25.5235  -34.4333   -0.4284 O   0  0  0  0  0  0  0  0  0  0  0  0
  1  2  1  0
  2  4  1  0
  3  2  2  0
  4  5  1  0
  5  6  1  0
  6  7  1  1
  8  6  1  0
  8 10  1  0
  9  8  2  0
 11 10  1  0
 11 14  1  0
 11 12  1  6
 13 12  1  0
 14 15  2  0
 16 14  1  0
 16 17  1  0
 17 23  1  0
 17 18  1  1
 19 18  1  0
 20 19  1  0
 21 22  1  0
 21 20  1  0
 23 25  1  0
 24 23  2  0
M  END
$$$$
