QCK.pdb
     RDKit          3D

 25 24  0  0  1  0  0  0  0  0999 V2000
   17.9150  -15.1035  -15.5769 N   0  0  0  0  0  0  0  0  0  0  0  0
   18.1606  -14.6931  -16.9405 C   0  0  0  0  0  0  0  0  0  0  0  0
   18.4160  -15.6378  -17.7219 O   0  0  0  0  0  0  0  0  0  0  0  0
   18.1005  -13.2841  -17.3224 C   0  0  0  0  0  0  0  0  0  0  0  0
   18.7574  -12.3021  -16.4490 C   0  0  0  0  0  0  0  0  0  0  0  0
   19.5342  -11.1956  -17.0224 C   0  0  2  0  0  0  0  0  0  0  0  0
   20.2856  -11.5824  -18.1617 N   0  0  0  0  0  0  0  0  0  0  0  0
   20.2974  -10.3899  -16.0560 C   0  0  0  0  0  0  0  0  0  0  0  0
   19.8072  -10.0530  -14.9423 O   0  0  0  0  0  0  0  0  0  0  0  0
   21.6157   -9.9573  -16.3360 N   0  0  0  0  0  0  0  0  0  0  0  0
   22.3130   -9.1260  -15.3442 C   0  0  1  0  0  0  0  0  0  0  0  0
   23.8039   -9.3580  -15.5277 C   0  0  0  0  0  0  0  0  0  0  0  0
   24.3063  -11.0146  -15.0373 S   0  0  0  0  0  0  0  0  0  0  0  0
   22.0772   -7.6787  -15.6238 C   0  0  0  0  0  0  0  0  0  0  0  0
   22.2126   -7.1830  -16.7574 O   0  0  0  0  0  0  0  0  0  0  0  0
   21.6879   -6.8544  -14.5582 N   0  0  0  0  0  0  0  0  0  0  0  0
   21.4864   -5.4228  -14.6626 C   0  0  1  0  0  0  0  0  0  0  0  0
   20.0234   -5.1290  -14.5417 C   0  0  0  0  0  0  0  0  0  0  0  0
   19.1781   -5.5725  -15.6728 C   0  0  0  0  0  0  0  0  0  0  0  0
   17.7197   -5.3159  -15.5698 C   0  0  0  0  0  0  0  0  0  0  0  0
   16.8905   -5.7560  -16.7269 C   0  0  0  0  0  0  0  0  0  0  0  0
   15.4858   -5.4493  -16.6282 N   0  0  0  0  0  0  0  0  0  0  0  0
   22.3159   -4.6735  -13.7023 C   0  0  0  0  0  0  0  0  0  0  0  0
   22.7230   -5.2047  -12.6386 O   0  0  0  0  0  0  0  0  0  0  0  0
   22.6996   -3.3457  -13.9045 O   0  0  0  0  0  0  0  0  0  0  0  0
  1  2  1  0
  2  4  1  0
  3  2  2  0
  4  5  1  0
  5  6  1  0
  6  7  1  6
  8  6  1  0
  8 10  1  0
  9  8  2  0
 11 10  1  0
 11 14  1  0
 11 12  1  6
 13 12  1  0
 14 15  2  0
 16 14  1  0
 16 17  1  0
 17 23  1  0
 17 18  1  1
 19 18  1  0
 20 19  1  0
 21 22  1  0
 21 20  1  0
 23 25  1  0
 24 23  2  0
M  END
$$$$
