QCK.pdb
     RDKit          3D

 25 24  0  0  1  0  0  0  0  0999 V2000
   17.9415  -14.6006  -17.9906 N   0  0  0  0  0  0  0  0  0  0  0  0
   18.8689  -15.4959  -17.3375 C   0  0  0  0  0  0  0  0  0  0  0  0
   18.3573  -16.1913  -16.4305 O   0  0  0  0  0  0  0  0  0  0  0  0
   20.2721  -15.5481  -17.7415 C   0  0  0  0  0  0  0  0  0  0  0  0
   20.6968  -14.7161  -18.8756 C   0  0  0  0  0  0  0  0  0  0  0  0
   21.8391  -13.8027  -18.7442 C   0  0  2  0  0  0  0  0  0  0  0  0
   23.0889  -14.4620  -18.8688 N   0  0  0  0  0  0  0  0  0  0  0  0
   21.7744  -12.8667  -17.6104 C   0  0  0  0  0  0  0  0  0  0  0  0
   20.9431  -13.0199  -16.6727 O   0  0  0  0  0  0  0  0  0  0  0  0
   22.6431  -11.7525  -17.5245 N   0  0  0  0  0  0  0  0  0  0  0  0
   22.5094  -10.8378  -16.3816 C   0  0  1  0  0  0  0  0  0  0  0  0
   23.8834  -10.7050  -15.7455 C   0  0  0  0  0  0  0  0  0  0  0  0
   23.9524  -11.4339  -14.1019 S   0  0  0  0  0  0  0  0  0  0  0  0
   22.1324   -9.4722  -16.8523 C   0  0  0  0  0  0  0  0  0  0  0  0
   22.6987   -8.9115  -17.8083 O   0  0  0  0  0  0  0  0  0  0  0  0
   21.0971   -8.8043  -16.1825 N   0  0  0  0  0  0  0  0  0  0  0  0
   20.6112   -7.4853  -16.5360 C   0  0  1  0  0  0  0  0  0  0  0  0
   19.1235   -7.4562  -16.3703 C   0  0  0  0  0  0  0  0  0  0  0  0
   18.4707   -6.1495  -16.6084 C   0  0  0  0  0  0  0  0  0  0  0  0
   17.0066   -6.0716  -16.3770 C   0  0  0  0  0  0  0  0  0  0  0  0
   16.3743   -4.7414  -16.6028 C   0  0  0  0  0  0  0  0  0  0  0  0
   14.9827   -4.6528  -16.2390 N   0  0  0  0  0  0  0  0  0  0  0  0
   21.3047   -6.4196  -15.7911 C   0  0  0  0  0  0  0  0  0  0  0  0
   21.6499   -6.5796  -14.5933 O   0  0  0  0  0  0  0  0  0  0  0  0
   21.6205   -5.1812  -16.3547 O   0  0  0  0  0  0  0  0  0  0  0  0
  1  2  1  0
  2  4  1  0
  3  2  2  0
  4  5  1  0
  5  6  1  0
  6  7  1  1
  8  6  1  0
  8 10  1  0
  9  8  2  0
 11 10  1  0
 11 14  1  0
 11 12  1  6
 13 12  1  0
 14 15  2  0
 16 14  1  0
 16 17  1  0
 17 23  1  0
 17 18  1  1
 19 18  1  0
 20 19  1  0
 21 22  1  0
 21 20  1  0
 23 25  1  0
 24 23  2  0
M  END
$$$$
