QCK.pdb
     RDKit          3D

 25 24  0  0  1  0  0  0  0  0999 V2000
   28.8556  -23.4451  -17.6993 N   0  0  0  0  0  0  0  0  0  0  0  0
   29.1703  -22.7057  -16.4983 C   0  0  0  0  0  0  0  0  0  0  0  0
   29.1095  -23.3846  -15.4478 O   0  0  0  0  0  0  0  0  0  0  0  0
   29.5257  -21.2899  -16.5605 C   0  0  0  0  0  0  0  0  0  0  0  0
   28.5726  -20.3129  -16.0165 C   0  0  0  0  0  0  0  0  0  0  0  0
   27.2330  -20.1723  -16.6013 C   0  0  2  0  0  0  0  0  0  0  0  0
   27.2658  -19.8310  -17.9777 N   0  0  0  0  0  0  0  0  0  0  0  0
   26.2799  -19.3721  -15.8159 C   0  0  0  0  0  0  0  0  0  0  0  0
   26.0827  -19.5946  -14.5889 O   0  0  0  0  0  0  0  0  0  0  0  0
   25.5420  -18.3177  -16.4053 N   0  0  0  0  0  0  0  0  0  0  0  0
   24.5344  -17.6196  -15.5938 C   0  0  1  0  0  0  0  0  0  0  0  0
   24.7696  -16.1278  -15.7660 C   0  0  0  0  0  0  0  0  0  0  0  0
   26.3136  -15.5854  -15.0183 S   0  0  0  0  0  0  0  0  0  0  0  0
   23.1650  -17.8912  -16.1223 C   0  0  0  0  0  0  0  0  0  0  0  0
   22.9230  -17.9944  -17.3388 O   0  0  0  0  0  0  0  0  0  0  0  0
   22.1172  -18.0338  -15.2013 N   0  0  0  0  0  0  0  0  0  0  0  0
   20.7392  -18.2988  -15.5644 C   0  0  1  0  0  0  0  0  0  0  0  0
   20.1023  -19.1179  -14.4850 C   0  0  0  0  0  0  0  0  0  0  0  0
   18.6958  -19.5151  -14.7180 C   0  0  0  0  0  0  0  0  0  0  0  0
   17.9936  -20.2042  -13.6066 C   0  0  0  0  0  0  0  0  0  0  0  0
   16.6531  -20.7712  -13.9257 C   0  0  0  0  0  0  0  0  0  0  0  0
   16.0051  -21.4645  -12.8412 N   0  0  0  0  0  0  0  0  0  0  0  0
   19.9992  -17.0631  -15.8761 C   0  0  0  0  0  0  0  0  0  0  0  0
   20.2578  -15.9824  -15.2890 O   0  0  0  0  0  0  0  0  0  0  0  0
   18.9784  -17.0089  -16.8279 O   0  0  0  0  0  0  0  0  0  0  0  0
  1  2  1  0
  2  4  1  0
  3  2  2  0
  4  5  1  0
  5  6  1  0
  6  7  1  6
  8  6  1  0
  8 10  1  0
  9  8  2  0
 11 10  1  0
 11 14  1  0
 11 12  1  6
 13 12  1  0
 14 15  2  0
 16 14  1  0
 16 17  1  0
 17 23  1  0
 17 18  1  1
 19 18  1  0
 20 19  1  0
 21 22  1  0
 21 20  1  0
 23 25  1  0
 24 23  2  0
M  END
$$$$
