TCW.pdb
     RDKit          3D

 28 29  0  0  1  0  0  0  0  0999 V2000
   26.0444  -19.2736  -15.9624 C   0  0  0  0  0  0  0  0  0  0  0  0
   26.5129  -20.5413  -16.6078 C   0  0  1  0  0  0  0  0  0  0  0  0
   27.3581  -20.3669  -17.6774 O   0  0  0  0  0  0  0  0  0  0  0  0
   27.2354  -21.3777  -15.5614 C   0  0  2  0  0  0  0  0  0  0  0  0
   27.7591  -22.5859  -16.1532 N   0  0  0  0  0  0  0  0  0  0  0  0
   26.3399  -21.6888  -14.4057 C   0  0  0  0  0  0  0  0  0  0  0  0
   25.5147  -22.6353  -14.4723 O   0  0  0  0  0  0  0  0  0  0  0  0
   26.3663  -20.9530  -13.1936 N   0  0  0  0  0  0  0  0  0  0  0  0
   25.4643  -21.2393  -12.0834 C   0  0  1  0  0  0  0  0  0  0  0  0
   26.2146  -21.0170  -10.8078 C   0  0  0  0  0  0  0  0  0  0  0  0
   25.1620  -21.2357   -9.3699 S   0  0  0  0  0  0  0  0  0  0  0  0
   24.2120  -20.4899  -12.2002 C   0  0  0  0  0  0  0  0  0  0  0  0
   24.2701  -19.2236  -12.0809 O   0  0  0  0  0  0  0  0  0  0  0  0
   22.9347  -21.0852  -12.4379 N   0  0  0  0  0  0  0  0  0  0  0  0
   21.7525  -20.2738  -12.5531 C   0  0  1  0  0  0  0  0  0  0  0  0
   21.7987  -19.1764  -13.5441 C   0  0  0  0  0  0  0  0  0  0  0  0
   22.0143  -19.5421  -14.9388 C   0  0  0  0  0  0  0  0  0  0  0  0
   21.3543  -20.5218  -15.6835 C   0  0  0  0  0  0  0  0  0  0  0  0
   21.8603  -20.5542  -16.9220 N   0  0  0  0  0  0  0  0  0  0  0  0
   22.8510  -19.6231  -17.0515 C   0  0  0  0  0  0  0  0  0  0  0  0
   23.6471  -19.2828  -18.1151 C   0  0  0  0  0  0  0  0  0  0  0  0
   24.5767  -18.2921  -17.9880 C   0  0  0  0  0  0  0  0  0  0  0  0
   24.6981  -17.6455  -16.7781 C   0  0  0  0  0  0  0  0  0  0  0  0
   23.8890  -18.0045  -15.7271 C   0  0  0  0  0  0  0  0  0  0  0  0
   22.9297  -19.0076  -15.8118 C   0  0  0  0  0  0  0  0  0  0  0  0
   20.5620  -21.1534  -12.6938 C   0  0  0  0  0  0  0  0  0  0  0  0
   20.6908  -22.5286  -12.8140 O   0  0  0  0  0  0  0  0  0  0  0  0
   19.3985  -20.6759  -12.7082 O   0  0  0  0  0  0  0  0  0  0  0  0
  2  1  1  1
  2  4  1  0
  3  2  1  0
  4  5  1  6
  6  4  1  0
  7  6  2  0
  8  6  1  0
  9 12  1  0
  9  8  1  0
  9 10  1  1
 11 10  1  0
 12 14  1  0
 13 12  2  0
 14 15  1  0
 15 26  1  0
 15 16  1  6
 17 25  1  0
 17 16  1  0
 18 17  2  0
 19 18  1  0
 19 20  1  0
 20 25  2  0
 21 20  1  0
 21 22  2  0
 22 23  1  0
 23 24  2  0
 25 24  1  0
 26 28  2  0
 26 27  1  0
M  END
$$$$
