TCW.pdb
     RDKit          3D

 28 29  0  0  1  0  0  0  0  0999 V2000
   28.0031  -24.1877  -18.3619 C   0  0  0  0  0  0  0  0  0  0  0  0
   27.8346  -23.4438  -17.0729 C   0  0  1  0  0  0  0  0  0  0  0  0
   27.5937  -24.2360  -15.9759 O   0  0  0  0  0  0  0  0  0  0  0  0
   29.0995  -22.6392  -16.8106 C   0  0  2  0  0  0  0  0  0  0  0  0
   30.2462  -23.5124  -16.7274 N   0  0  0  0  0  0  0  0  0  0  0  0
   28.9650  -21.8082  -15.5754 C   0  0  0  0  0  0  0  0  0  0  0  0
   29.6918  -22.0291  -14.5733 O   0  0  0  0  0  0  0  0  0  0  0  0
   28.0322  -20.7459  -15.4620 N   0  0  0  0  0  0  0  0  0  0  0  0
   27.9198  -19.9269  -14.2601 C   0  0  1  0  0  0  0  0  0  0  0  0
   27.4406  -18.5691  -14.6679 C   0  0  0  0  0  0  0  0  0  0  0  0
   26.7497  -17.6629  -13.2806 S   0  0  0  0  0  0  0  0  0  0  0  0
   27.1080  -20.5845  -13.2344 C   0  0  0  0  0  0  0  0  0  0  0  0
   26.0552  -21.1906  -13.6157 O   0  0  0  0  0  0  0  0  0  0  0  0
   27.4192  -20.5894  -11.8397 N   0  0  0  0  0  0  0  0  0  0  0  0
   26.5908  -21.2986  -10.9014 C   0  0  1  0  0  0  0  0  0  0  0  0
   27.2309  -21.7052   -9.6312 C   0  0  0  0  0  0  0  0  0  0  0  0
   27.1229  -20.7881   -8.5031 C   0  0  0  0  0  0  0  0  0  0  0  0
   26.2433  -19.7145   -8.3480 C   0  0  0  0  0  0  0  0  0  0  0  0
   26.4787  -19.1135   -7.1757 N   0  0  0  0  0  0  0  0  0  0  0  0
   27.4964  -19.7437   -6.5182 C   0  0  0  0  0  0  0  0  0  0  0  0
   28.0820  -19.5018   -5.3019 C   0  0  0  0  0  0  0  0  0  0  0  0
   29.0981  -20.2974   -4.8584 C   0  0  0  0  0  0  0  0  0  0  0  0
   29.5203  -21.3408   -5.6519 C   0  0  0  0  0  0  0  0  0  0  0  0
   28.9178  -21.5629   -6.8667 C   0  0  0  0  0  0  0  0  0  0  0  0
   27.8805  -20.7778   -7.3579 C   0  0  0  0  0  0  0  0  0  0  0  0
   25.3134  -20.5609  -10.7151 C   0  0  0  0  0  0  0  0  0  0  0  0
   25.2219  -19.2006  -10.9671 O   0  0  0  0  0  0  0  0  0  0  0  0
   24.2737  -21.1497  -10.3221 O   0  0  0  0  0  0  0  0  0  0  0  0
  2  1  1  6
  2  4  1  0
  3  2  1  0
  4  5  1  1
  6  4  1  0
  7  6  2  0
  8  6  1  0
  9 12  1  0
  9  8  1  0
  9 10  1  6
 11 10  1  0
 12 14  1  0
 13 12  2  0
 14 15  1  0
 15 26  1  0
 15 16  1  1
 17 25  1  0
 17 16  1  0
 18 17  2  0
 19 18  1  0
 19 20  1  0
 20 25  2  0
 21 20  1  0
 21 22  2  0
 22 23  1  0
 23 24  2  0
 25 24  1  0
 26 28  2  0
 26 27  1  0
M  END
$$$$
