TCW.pdb
     RDKit          3D

 28 29  0  0  1  0  0  0  0  0999 V2000
   35.6851  -33.8979  -10.0544 C   0  0  0  0  0  0  0  0  0  0  0  0
   34.6069  -34.4843   -9.1962 C   0  0  1  0  0  0  0  0  0  0  0  0
   33.4020  -34.6721   -9.8300 O   0  0  0  0  0  0  0  0  0  0  0  0
   35.0848  -35.8314   -8.6732 C   0  0  2  0  0  0  0  0  0  0  0  0
   35.3656  -36.7285   -9.7689 N   0  0  0  0  0  0  0  0  0  0  0  0
   34.0908  -36.4284   -7.7299 C   0  0  0  0  0  0  0  0  0  0  0  0
   33.4037  -37.4250   -8.0707 O   0  0  0  0  0  0  0  0  0  0  0  0
   33.8681  -35.9194   -6.4251 N   0  0  0  0  0  0  0  0  0  0  0  0
   32.9133  -36.5220   -5.5013 C   0  0  1  0  0  0  0  0  0  0  0  0
   33.6849  -37.1650   -4.3919 C   0  0  0  0  0  0  0  0  0  0  0  0
   32.6069  -37.7292   -3.0717 S   0  0  0  0  0  0  0  0  0  0  0  0
   31.9003  -35.5574   -5.0689 C   0  0  0  0  0  0  0  0  0  0  0  0
   32.3078  -34.4547   -4.5801 O   0  0  0  0  0  0  0  0  0  0  0  0
   30.4905  -35.7731   -5.1591 N   0  0  0  0  0  0  0  0  0  0  0  0
   29.5621  -34.8264   -4.6012 C   0  0  1  0  0  0  0  0  0  0  0  0
   28.2311  -34.7503   -5.2424 C   0  0  0  0  0  0  0  0  0  0  0  0
   28.1505  -34.0958   -6.5425 C   0  0  0  0  0  0  0  0  0  0  0  0
   29.0398  -34.1985   -7.6144 C   0  0  0  0  0  0  0  0  0  0  0  0
   28.6140  -33.4253   -8.6203 N   0  0  0  0  0  0  0  0  0  0  0  0
   27.4551  -32.7926   -8.2712 C   0  0  0  0  0  0  0  0  0  0  0  0
   26.6525  -31.9184   -8.9586 C   0  0  0  0  0  0  0  0  0  0  0  0
   25.5212  -31.4231   -8.3783 C   0  0  0  0  0  0  0  0  0  0  0  0
   25.2042  -31.8166   -7.0971 C   0  0  0  0  0  0  0  0  0  0  0  0
   26.0244  -32.6936   -6.4289 C   0  0  0  0  0  0  0  0  0  0  0  0
   27.1860  -33.2222   -6.9809 C   0  0  0  0  0  0  0  0  0  0  0  0
   29.5032  -35.0037   -3.1261 C   0  0  0  0  0  0  0  0  0  0  0  0
   29.4032  -33.9163   -2.2717 O   0  0  0  0  0  0  0  0  0  0  0  0
   29.5424  -36.1485   -2.6065 O   0  0  0  0  0  0  0  0  0  0  0  0
  2  1  1  6
  2  4  1  0
  3  2  1  0
  4  5  1  6
  6  4  1  0
  7  6  2  0
  8  6  1  0
  9 12  1  0
  9  8  1  0
  9 10  1  1
 11 10  1  0
 12 14  1  0
 13 12  2  0
 14 15  1  0
 15 26  1  0
 15 16  1  6
 17 25  1  0
 17 16  1  0
 18 17  2  0
 19 18  1  0
 19 20  1  0
 20 25  2  0
 21 20  1  0
 21 22  2  0
 22 23  1  0
 23 24  2  0
 25 24  1  0
 26 28  2  0
 26 27  1  0
M  END
$$$$
