TCW.pdb
     RDKit          3D

 28 29  0  0  1  0  0  0  0  0999 V2000
   26.5721  -23.0640  -17.5069 C   0  0  0  0  0  0  0  0  0  0  0  0
   27.9705  -23.4163  -17.9113 C   0  0  1  0  0  0  0  0  0  0  0  0
   28.0953  -23.9135  -19.1865 O   0  0  0  0  0  0  0  0  0  0  0  0
   28.8344  -22.1682  -17.8002 C   0  0  2  0  0  0  0  0  0  0  0  0
   30.2248  -22.4953  -18.0102 N   0  0  0  0  0  0  0  0  0  0  0  0
   28.6342  -21.4877  -16.4844 C   0  0  0  0  0  0  0  0  0  0  0  0
   29.1811  -21.9338  -15.4437 O   0  0  0  0  0  0  0  0  0  0  0  0
   27.8349  -20.3259  -16.3342 N   0  0  0  0  0  0  0  0  0  0  0  0
   27.6196  -19.6848  -15.0417 C   0  0  1  0  0  0  0  0  0  0  0  0
   27.3659  -18.2298  -15.2829 C   0  0  0  0  0  0  0  0  0  0  0  0
   26.7225  -17.4148  -13.8183 S   0  0  0  0  0  0  0  0  0  0  0  0
   26.5842  -20.3705  -14.2663 C   0  0  0  0  0  0  0  0  0  0  0  0
   25.4918  -20.6479  -14.8586 O   0  0  0  0  0  0  0  0  0  0  0  0
   26.7198  -20.7463  -12.8943 N   0  0  0  0  0  0  0  0  0  0  0  0
   25.6656  -21.4508  -12.2146 C   0  0  1  0  0  0  0  0  0  0  0  0
   26.0220  -22.0942  -10.9311 C   0  0  0  0  0  0  0  0  0  0  0  0
   26.2217  -21.2242   -9.7785 C   0  0  0  0  0  0  0  0  0  0  0  0
   25.2982  -20.3658   -9.1779 C   0  0  0  0  0  0  0  0  0  0  0  0
   25.8824  -19.7306   -8.1551 N   0  0  0  0  0  0  0  0  0  0  0  0
   27.1835  -20.1278   -8.0340 C   0  0  0  0  0  0  0  0  0  0  0  0
   28.1665  -19.7678   -7.1481 C   0  0  0  0  0  0  0  0  0  0  0  0
   29.4083  -20.3264   -7.2358 C   0  0  0  0  0  0  0  0  0  0  0  0
   29.6523  -21.2528   -8.2252 C   0  0  0  0  0  0  0  0  0  0  0  0
   28.6510  -21.5971   -9.1011 C   0  0  0  0  0  0  0  0  0  0  0  0
   27.3724  -21.0531   -9.0489 C   0  0  0  0  0  0  0  0  0  0  0  0
   24.4641  -20.5791  -12.1303 C   0  0  0  0  0  0  0  0  0  0  0  0
   23.1915  -21.1143  -12.0022 O   0  0  0  0  0  0  0  0  0  0  0  0
   24.5653  -19.3261  -12.1727 O   0  0  0  0  0  0  0  0  0  0  0  0
  2  1  1  6
  2  4  1  0
  3  2  1  0
  4  5  1  1
  6  4  1  0
  7  6  2  0
  8  6  1  0
  9 12  1  0
  9  8  1  0
  9 10  1  6
 11 10  1  0
 12 14  1  0
 13 12  2  0
 14 15  1  0
 15 26  1  0
 15 16  1  1
 17 25  1  0
 17 16  1  0
 18 17  2  0
 19 18  1  0
 19 20  1  0
 20 25  2  0
 21 20  1  0
 21 22  2  0
 22 23  1  0
 23 24  2  0
 25 24  1  0
 26 28  2  0
 26 27  1  0
M  END
$$$$
