TCW.pdb
     RDKit          3D

 28 29  0  0  1  0  0  0  0  0999 V2000
   24.6828  -22.3747  -17.2790 C   0  0  0  0  0  0  0  0  0  0  0  0
   25.6897  -23.2576  -17.9497 C   0  0  1  0  0  0  0  0  0  0  0  0
   25.3794  -23.6103  -19.2413 O   0  0  0  0  0  0  0  0  0  0  0  0
   27.0309  -22.5383  -17.9617 C   0  0  2  0  0  0  0  0  0  0  0  0
   28.0720  -23.4175  -18.4384 N   0  0  0  0  0  0  0  0  0  0  0  0
   27.3638  -21.9929  -16.6103 C   0  0  0  0  0  0  0  0  0  0  0  0
   27.9138  -22.7203  -15.7445 O   0  0  0  0  0  0  0  0  0  0  0  0
   27.0863  -20.6545  -16.2324 N   0  0  0  0  0  0  0  0  0  0  0  0
   27.3960  -20.1349  -14.9049 C   0  0  1  0  0  0  0  0  0  0  0  0
   27.5331  -18.6484  -15.0097 C   0  0  0  0  0  0  0  0  0  0  0  0
   27.5139  -17.8630  -13.3954 S   0  0  0  0  0  0  0  0  0  0  0  0
   26.4286  -20.5957  -13.9072 C   0  0  0  0  0  0  0  0  0  0  0  0
   25.1953  -20.5566  -14.2209 O   0  0  0  0  0  0  0  0  0  0  0  0
   26.7777  -21.0836  -12.6102 N   0  0  0  0  0  0  0  0  0  0  0  0
   25.7640  -21.5322  -11.6933 C   0  0  1  0  0  0  0  0  0  0  0  0
   26.2291  -21.9797  -10.3621 C   0  0  0  0  0  0  0  0  0  0  0  0
   26.4464  -20.9543   -9.3489 C   0  0  0  0  0  0  0  0  0  0  0  0
   25.6092  -19.8895   -9.0089 C   0  0  0  0  0  0  0  0  0  0  0  0
   26.1820  -19.1666   -8.0391 N   0  0  0  0  0  0  0  0  0  0  0  0
   27.3911  -19.7043   -7.7011 C   0  0  0  0  0  0  0  0  0  0  0  0
   28.3280  -19.3266   -6.7736 C   0  0  0  0  0  0  0  0  0  0  0  0
   29.4745  -20.0506   -6.6213 C   0  0  0  0  0  0  0  0  0  0  0  0
   29.6699  -21.1607   -7.4127 C   0  0  0  0  0  0  0  0  0  0  0  0
   28.7164  -21.5189   -8.3351 C   0  0  0  0  0  0  0  0  0  0  0  0
   27.5348  -20.8105   -8.5242 C   0  0  0  0  0  0  0  0  0  0  0  0
   24.6712  -20.5257  -11.6348 C   0  0  0  0  0  0  0  0  0  0  0  0
   24.8950  -19.1972  -11.9622 O   0  0  0  0  0  0  0  0  0  0  0  0
   23.5070  -20.8493  -11.2858 O   0  0  0  0  0  0  0  0  0  0  0  0
  2  1  1  6
  2  4  1  0
  3  2  1  0
  4  5  1  1
  6  4  1  0
  7  6  2  0
  8  6  1  0
  9 12  1  0
  9  8  1  0
  9 10  1  6
 11 10  1  0
 12 14  1  0
 13 12  2  0
 14 15  1  0
 15 26  1  0
 15 16  1  1
 17 25  1  0
 17 16  1  0
 18 17  2  0
 19 18  1  0
 19 20  1  0
 20 25  2  0
 21 20  1  0
 21 22  2  0
 22 23  1  0
 23 24  2  0
 25 24  1  0
 26 28  2  0
 26 27  1  0
M  END
$$$$
