TCW.pdb
     RDKit          3D

 28 29  0  0  1  0  0  0  0  0999 V2000
   27.8315  -26.5983  -16.1191 C   0  0  0  0  0  0  0  0  0  0  0  0
   28.7184  -25.7272  -16.9544 C   0  0  1  0  0  0  0  0  0  0  0  0
   29.9593  -26.2539  -17.2219 O   0  0  0  0  0  0  0  0  0  0  0  0
   28.0203  -25.4565  -18.2795 C   0  0  2  0  0  0  0  0  0  0  0  0
   28.8413  -24.6197  -19.1220 N   0  0  0  0  0  0  0  0  0  0  0  0
   26.6722  -24.8471  -18.0655 C   0  0  0  0  0  0  0  0  0  0  0  0
   26.5344  -23.5979  -18.0218 O   0  0  0  0  0  0  0  0  0  0  0  0
   25.4957  -25.6222  -17.9030 N   0  0  0  0  0  0  0  0  0  0  0  0
   24.2067  -25.0285  -17.5654 C   0  0  1  0  0  0  0  0  0  0  0  0
   23.1352  -26.0036  -17.9402 C   0  0  0  0  0  0  0  0  0  0  0  0
   21.5312  -25.5063  -17.3052 S   0  0  0  0  0  0  0  0  0  0  0  0
   24.1698  -24.5775  -16.1730 C   0  0  0  0  0  0  0  0  0  0  0  0
   24.5974  -25.3807  -15.2824 O   0  0  0  0  0  0  0  0  0  0  0  0
   23.6867  -23.3005  -15.7511 N   0  0  0  0  0  0  0  0  0  0  0  0
   23.6263  -22.9590  -14.3549 C   0  0  1  0  0  0  0  0  0  0  0  0
   24.3396  -21.7297  -13.9444 C   0  0  0  0  0  0  0  0  0  0  0  0
   24.2612  -21.3472  -12.5398 C   0  0  0  0  0  0  0  0  0  0  0  0
   25.2559  -21.4445  -11.5645 C   0  0  0  0  0  0  0  0  0  0  0  0
   24.7767  -21.0022  -10.3959 N   0  0  0  0  0  0  0  0  0  0  0  0
   23.4788  -20.6022  -10.5391 C   0  0  0  0  0  0  0  0  0  0  0  0
   22.5828  -20.0800   -9.6416 C   0  0  0  0  0  0  0  0  0  0  0  0
   21.3219  -19.7482  -10.0438 C   0  0  0  0  0  0  0  0  0  0  0  0
   20.9701  -19.9470  -11.3604 C   0  0  0  0  0  0  0  0  0  0  0  0
   21.8855  -20.4717  -12.2407 C   0  0  0  0  0  0  0  0  0  0  0  0
   23.1798  -20.8243  -11.8744 C   0  0  0  0  0  0  0  0  0  0  0  0
   22.2132  -23.0091  -13.8953 C   0  0  0  0  0  0  0  0  0  0  0  0
   21.8679  -23.5901  -12.6847 O   0  0  0  0  0  0  0  0  0  0  0  0
   21.2850  -22.5247  -14.5924 O   0  0  0  0  0  0  0  0  0  0  0  0
  2  1  1  1
  2  4  1  0
  3  2  1  0
  4  5  1  6
  6  4  1  0
  7  6  2  0
  8  6  1  0
  9 12  1  0
  9  8  1  0
  9 10  1  1
 11 10  1  0
 12 14  1  0
 13 12  2  0
 14 15  1  0
 15 26  1  0
 15 16  1  6
 17 25  1  0
 17 16  1  0
 18 17  2  0
 19 18  1  0
 19 20  1  0
 20 25  2  0
 21 20  1  0
 21 22  2  0
 22 23  1  0
 23 24  2  0
 25 24  1  0
 26 28  2  0
 26 27  1  0
M  END
$$$$
