TCW.pdb
     RDKit          3D

 28 29  0  0  1  0  0  0  0  0999 V2000
   19.6596   -7.9248  -21.6785 C   0  0  0  0  0  0  0  0  0  0  0  0
   19.9628   -6.9801  -22.8004 C   0  0  1  0  0  0  0  0  0  0  0  0
   19.6184   -7.4374  -24.0498 O   0  0  0  0  0  0  0  0  0  0  0  0
   19.2185   -5.6765  -22.5487 C   0  0  2  0  0  0  0  0  0  0  0  0
   19.5410   -4.7053  -23.5670 N   0  0  0  0  0  0  0  0  0  0  0  0
   19.5107   -5.1423  -21.1835 C   0  0  0  0  0  0  0  0  0  0  0  0
   20.5022   -4.3940  -20.9880 O   0  0  0  0  0  0  0  0  0  0  0  0
   18.7066   -5.4398  -20.0538 N   0  0  0  0  0  0  0  0  0  0  0  0
   18.9986   -4.9154  -18.7243 C   0  0  1  0  0  0  0  0  0  0  0  0
   17.8210   -4.1082  -18.2758 C   0  0  0  0  0  0  0  0  0  0  0  0
   18.0463   -3.4696  -16.6131 S   0  0  0  0  0  0  0  0  0  0  0  0
   19.4035   -5.9788  -17.8030 C   0  0  0  0  0  0  0  0  0  0  0  0
   18.7947   -7.0939  -17.8868 O   0  0  0  0  0  0  0  0  0  0  0  0
   20.4325   -5.8464  -16.8203 N   0  0  0  0  0  0  0  0  0  0  0  0
   20.7038   -6.9082  -15.8884 C   0  0  1  0  0  0  0  0  0  0  0  0
   22.1206   -7.3045  -15.7331 C   0  0  0  0  0  0  0  0  0  0  0  0
   22.4047   -8.4577  -14.8877 C   0  0  0  0  0  0  0  0  0  0  0  0
   23.0811   -9.6303  -15.2304 C   0  0  0  0  0  0  0  0  0  0  0  0
   23.1149  -10.4489  -14.1722 N   0  0  0  0  0  0  0  0  0  0  0  0
   22.4804   -9.8723  -13.1091 C   0  0  0  0  0  0  0  0  0  0  0  0
   22.2652  -10.3139  -11.8286 C   0  0  0  0  0  0  0  0  0  0  0  0
   21.5959   -9.5294  -10.9350 C   0  0  0  0  0  0  0  0  0  0  0  0
   21.1444   -8.2939  -11.3426 C   0  0  0  0  0  0  0  0  0  0  0  0
   21.3722   -7.8738  -12.6309 C   0  0  0  0  0  0  0  0  0  0  0  0
   22.0485   -8.6398  -13.5740 C   0  0  0  0  0  0  0  0  0  0  0  0
   20.0214   -6.6197  -14.5993 C   0  0  0  0  0  0  0  0  0  0  0  0
   19.1028   -7.5040  -14.0549 O   0  0  0  0  0  0  0  0  0  0  0  0
   20.2572   -5.5617  -13.9611 O   0  0  0  0  0  0  0  0  0  0  0  0
  2  1  1  1
  2  4  1  0
  3  2  1  0
  4  5  1  6
  6  4  1  0
  7  6  2  0
  8  6  1  0
  9 12  1  0
  9  8  1  0
  9 10  1  1
 11 10  1  0
 12 14  1  0
 13 12  2  0
 14 15  1  0
 15 26  1  0
 15 16  1  1
 17 25  1  0
 17 16  1  0
 18 17  2  0
 19 18  1  0
 19 20  1  0
 20 25  2  0
 21 20  1  0
 21 22  2  0
 22 23  1  0
 23 24  2  0
 25 24  1  0
 26 28  2  0
 26 27  1  0
M  END
$$$$
