TCW.pdb
     RDKit          3D

 28 29  0  0  1  0  0  0  0  0999 V2000
   27.5618  -17.6190  -17.2587 C   0  0  0  0  0  0  0  0  0  0  0  0
   27.3380  -18.4831  -16.0561 C   0  0  1  0  0  0  0  0  0  0  0  0
   26.0199  -18.7541  -15.7767 O   0  0  0  0  0  0  0  0  0  0  0  0
   28.0609  -19.8052  -16.2700 C   0  0  2  0  0  0  0  0  0  0  0  0
   27.5274  -20.4928  -17.4219 N   0  0  0  0  0  0  0  0  0  0  0  0
   27.9884  -20.6645  -15.0490 C   0  0  0  0  0  0  0  0  0  0  0  0
   27.0414  -21.4770  -14.8937 O   0  0  0  0  0  0  0  0  0  0  0  0
   28.9600  -20.6164  -14.0170 N   0  0  0  0  0  0  0  0  0  0  0  0
   28.7201  -21.1695  -12.6886 C   0  0  1  0  0  0  0  0  0  0  0  0
   30.0354  -21.2619  -11.9809 C   0  0  0  0  0  0  0  0  0  0  0  0
   29.8311  -21.6955  -10.2507 S   0  0  0  0  0  0  0  0  0  0  0  0
   27.6863  -20.4203  -11.9722 C   0  0  0  0  0  0  0  0  0  0  0  0
   27.5677  -19.1805  -12.2364 O   0  0  0  0  0  0  0  0  0  0  0  0
   26.8063  -20.9880  -10.9998 N   0  0  0  0  0  0  0  0  0  0  0  0
   25.8348  -20.1739  -10.3194 C   0  0  1  0  0  0  0  0  0  0  0  0
   24.9015  -19.4070  -11.1734 C   0  0  0  0  0  0  0  0  0  0  0  0
   23.7377  -20.1129  -11.6956 C   0  0  0  0  0  0  0  0  0  0  0  0
   22.6840  -20.6836  -10.9784 C   0  0  0  0  0  0  0  0  0  0  0  0
   21.8235  -21.2526  -11.8309 N   0  0  0  0  0  0  0  0  0  0  0  0
   22.2551  -21.0895  -13.1163 C   0  0  0  0  0  0  0  0  0  0  0  0
   21.7179  -21.4861  -14.3142 C   0  0  0  0  0  0  0  0  0  0  0  0
   22.3530  -21.1872  -15.4843 C   0  0  0  0  0  0  0  0  0  0  0  0
   23.5362  -20.4839  -15.4378 C   0  0  0  0  0  0  0  0  0  0  0  0
   24.0545  -20.0977  -14.2252 C   0  0  0  0  0  0  0  0  0  0  0  0
   23.4419  -20.3810  -13.0094 C   0  0  0  0  0  0  0  0  0  0  0  0
   25.1560  -20.9852   -9.2746 C   0  0  0  0  0  0  0  0  0  0  0  0
   24.2417  -20.4176   -8.4004 O   0  0  0  0  0  0  0  0  0  0  0  0
   25.3908  -22.2147   -9.1513 O   0  0  0  0  0  0  0  0  0  0  0  0
  2  1  1  6
  2  4  1  0
  3  2  1  0
  4  5  1  6
  6  4  1  0
  7  6  2  0
  8  6  1  0
  9 12  1  0
  9  8  1  0
  9 10  1  1
 11 10  1  0
 12 14  1  0
 13 12  2  0
 14 15  1  0
 15 26  1  0
 15 16  1  6
 17 25  1  0
 17 16  1  0
 18 17  2  0
 19 18  1  0
 19 20  1  0
 20 25  2  0
 21 20  1  0
 21 22  2  0
 22 23  1  0
 23 24  2  0
 25 24  1  0
 26 28  2  0
 26 27  1  0
M  END
$$$$
