TCW.pdb
     RDKit          3D

 28 29  0  0  1  0  0  0  0  0999 V2000
   26.6955  -14.3149  -14.7155 C   0  0  0  0  0  0  0  0  0  0  0  0
   26.7077  -15.7330  -14.2341 C   0  0  1  0  0  0  0  0  0  0  0  0
   25.7332  -16.0395  -13.3147 O   0  0  0  0  0  0  0  0  0  0  0  0
   26.5356  -16.6523  -15.4348 C   0  0  2  0  0  0  0  0  0  0  0  0
   25.3484  -16.2989  -16.1763 N   0  0  0  0  0  0  0  0  0  0  0  0
   26.5019  -18.0870  -15.0165 C   0  0  0  0  0  0  0  0  0  0  0  0
   25.4276  -18.7396  -15.0549 O   0  0  0  0  0  0  0  0  0  0  0  0
   27.6516  -18.7821  -14.5624 N   0  0  0  0  0  0  0  0  0  0  0  0
   27.5926  -20.1507  -14.0609 C   0  0  1  0  0  0  0  0  0  0  0  0
   28.7059  -20.9246  -14.6943 C   0  0  0  0  0  0  0  0  0  0  0  0
   28.8220  -22.5883  -14.0297 S   0  0  0  0  0  0  0  0  0  0  0  0
   27.5716  -20.1874  -12.5974 C   0  0  0  0  0  0  0  0  0  0  0  0
   28.4845  -19.5506  -11.9792 O   0  0  0  0  0  0  0  0  0  0  0  0
   26.5976  -20.8888  -11.8219 N   0  0  0  0  0  0  0  0  0  0  0  0
   26.7184  -20.9778  -10.3912 C   0  0  1  0  0  0  0  0  0  0  0  0
   27.0316  -19.7216   -9.6755 C   0  0  0  0  0  0  0  0  0  0  0  0
   26.9123  -19.7309   -8.2225 C   0  0  0  0  0  0  0  0  0  0  0  0
   25.7684  -19.5140   -7.4515 C   0  0  0  0  0  0  0  0  0  0  0  0
   26.0862  -19.5916   -6.1539 N   0  0  0  0  0  0  0  0  0  0  0  0
   27.4182  -19.8565   -6.0093 C   0  0  0  0  0  0  0  0  0  0  0  0
   28.1962  -20.0284   -4.8930 C   0  0  0  0  0  0  0  0  0  0  0  0
   29.5282  -20.2966   -5.0189 C   0  0  0  0  0  0  0  0  0  0  0  0
   30.0711  -20.3906   -6.2810 C   0  0  0  0  0  0  0  0  0  0  0  0
   29.2710  -20.2142   -7.3841 C   0  0  0  0  0  0  0  0  0  0  0  0
   27.9104  -19.9390   -7.3026 C   0  0  0  0  0  0  0  0  0  0  0  0
   25.5406  -21.6991   -9.8405 C   0  0  0  0  0  0  0  0  0  0  0  0
   24.3427  -21.7621  -10.5357 O   0  0  0  0  0  0  0  0  0  0  0  0
   25.5948  -22.2760   -8.7241 O   0  0  0  0  0  0  0  0  0  0  0  0
  2  1  1  6
  2  4  1  0
  3  2  1  0
  4  5  1  1
  6  4  1  0
  7  6  2  0
  8  6  1  0
  9 12  1  0
  9  8  1  0
  9 10  1  1
 11 10  1  0
 12 14  1  0
 13 12  2  0
 14 15  1  0
 15 26  1  0
 15 16  1  1
 17 25  1  0
 17 16  1  0
 18 17  2  0
 19 18  1  0
 19 20  1  0
 20 25  2  0
 21 20  1  0
 21 22  2  0
 22 23  1  0
 23 24  2  0
 25 24  1  0
 26 28  2  0
 26 27  1  0
M  END
$$$$
