TCW.pdb
     RDKit          3D

 28 29  0  0  1  0  0  0  0  0999 V2000
   27.5244  -16.6172  -15.0345 C   0  0  0  0  0  0  0  0  0  0  0  0
   26.1137  -16.1273  -14.9210 C   0  0  1  0  0  0  0  0  0  0  0  0
   25.8836  -14.8937  -15.4815 O   0  0  0  0  0  0  0  0  0  0  0  0
   25.1961  -17.1361  -15.5969 C   0  0  2  0  0  0  0  0  0  0  0  0
   24.1726  -16.4588  -16.3571 N   0  0  0  0  0  0  0  0  0  0  0  0
   24.5946  -18.0728  -14.5994 C   0  0  0  0  0  0  0  0  0  0  0  0
   23.6301  -17.7081  -13.8797 O   0  0  0  0  0  0  0  0  0  0  0  0
   25.0641  -19.3975  -14.4091 N   0  0  0  0  0  0  0  0  0  0  0  0
   24.5987  -20.2443  -13.3162 C   0  0  1  0  0  0  0  0  0  0  0  0
   24.1195  -21.5352  -13.9022 C   0  0  0  0  0  0  0  0  0  0  0  0
   23.9760  -22.8192  -12.6555 S   0  0  0  0  0  0  0  0  0  0  0  0
   25.6149  -20.3815  -12.2712 C   0  0  0  0  0  0  0  0  0  0  0  0
   26.7847  -20.7334  -12.6300 O   0  0  0  0  0  0  0  0  0  0  0  0
   25.3794  -20.1477  -10.8812 N   0  0  0  0  0  0  0  0  0  0  0  0
   26.3109  -20.6098   -9.8871 C   0  0  1  0  0  0  0  0  0  0  0  0
   27.0817  -19.5702   -9.1705 C   0  0  0  0  0  0  0  0  0  0  0  0
   28.1137  -20.0206   -8.2445 C   0  0  0  0  0  0  0  0  0  0  0  0
   29.1015  -20.9841   -8.4592 C   0  0  0  0  0  0  0  0  0  0  0  0
   29.8408  -21.1165   -7.3515 N   0  0  0  0  0  0  0  0  0  0  0  0
   29.3898  -20.2701   -6.3792 C   0  0  0  0  0  0  0  0  0  0  0  0
   29.8211  -20.0443   -5.0970 C   0  0  0  0  0  0  0  0  0  0  0  0
   29.1923  -19.1211   -4.3134 C   0  0  0  0  0  0  0  0  0  0  0  0
   28.1233  -18.4256   -4.8330 C   0  0  0  0  0  0  0  0  0  0  0  0
   27.7097  -18.6697   -6.1205 C   0  0  0  0  0  0  0  0  0  0  0  0
   28.3201  -19.6009   -6.9535 C   0  0  0  0  0  0  0  0  0  0  0  0
   25.6303  -21.5751   -8.9840 C   0  0  0  0  0  0  0  0  0  0  0  0
   26.3158  -22.6364   -8.4131 O   0  0  0  0  0  0  0  0  0  0  0  0
   24.4084  -21.4583   -8.7093 O   0  0  0  0  0  0  0  0  0  0  0  0
  2  1  1  6
  2  4  1  0
  3  2  1  0
  4  5  1  1
  6  4  1  0
  7  6  2  0
  8  6  1  0
  9 12  1  0
  9  8  1  0
  9 10  1  6
 11 10  1  0
 12 14  1  0
 13 12  2  0
 14 15  1  0
 15 26  1  0
 15 16  1  1
 17 25  1  0
 17 16  1  0
 18 17  2  0
 19 18  1  0
 19 20  1  0
 20 25  2  0
 21 20  1  0
 21 22  2  0
 22 23  1  0
 23 24  2  0
 25 24  1  0
 26 28  2  0
 26 27  1  0
M  END
$$$$
