TCW.pdb
     RDKit          3D

 28 29  0  0  1  0  0  0  0  0999 V2000
   36.5795  -19.8904   13.6743 C   0  0  0  0  0  0  0  0  0  0  0  0
   37.9981  -19.9064   14.1544 C   0  0  1  0  0  0  0  0  0  0  0  0
   38.2832  -18.9972   15.1448 O   0  0  0  0  0  0  0  0  0  0  0  0
   38.3140  -21.2990   14.6811 C   0  0  2  0  0  0  0  0  0  0  0  0
   39.7179  -21.4135   14.9975 N   0  0  0  0  0  0  0  0  0  0  0  0
   37.8938  -22.3531   13.7081 C   0  0  0  0  0  0  0  0  0  0  0  0
   38.7129  -22.8176   12.8747 O   0  0  0  0  0  0  0  0  0  0  0  0
   36.5778  -22.8802   13.6673 N   0  0  0  0  0  0  0  0  0  0  0  0
   36.1710  -23.8979   12.7046 C   0  0  1  0  0  0  0  0  0  0  0  0
   36.0714  -25.2049   13.4266 C   0  0  0  0  0  0  0  0  0  0  0  0
   35.4301  -26.5038   12.3660 S   0  0  0  0  0  0  0  0  0  0  0  0
   34.9625  -23.5009   11.9797 C   0  0  0  0  0  0  0  0  0  0  0  0
   34.1984  -22.6456   12.5325 O   0  0  0  0  0  0  0  0  0  0  0  0
   34.5870  -24.0093   10.6980 N   0  0  0  0  0  0  0  0  0  0  0  0
   33.5521  -23.3740    9.9266 C   0  0  1  0  0  0  0  0  0  0  0  0
   33.9413  -22.1642    9.1694 C   0  0  0  0  0  0  0  0  0  0  0  0
   32.8942  -21.4732    8.4268 C   0  0  0  0  0  0  0  0  0  0  0  0
   31.8805  -20.6542    8.9287 C   0  0  0  0  0  0  0  0  0  0  0  0
   31.1135  -20.2273    7.9185 N   0  0  0  0  0  0  0  0  0  0  0  0
   31.5711  -20.7295    6.7337 C   0  0  0  0  0  0  0  0  0  0  0  0
   31.1262  -20.5723    5.4460 C   0  0  0  0  0  0  0  0  0  0  0  0
   31.7755  -21.1870    4.4152 C   0  0  0  0  0  0  0  0  0  0  0  0
   32.8791  -21.9627    4.6928 C   0  0  0  0  0  0  0  0  0  0  0  0
   33.3054  -22.1049    5.9913 C   0  0  0  0  0  0  0  0  0  0  0  0
   32.6744  -21.4980    7.0715 C   0  0  0  0  0  0  0  0  0  0  0  0
   32.8551  -24.3951    9.1006 C   0  0  0  0  0  0  0  0  0  0  0  0
   33.4099  -25.6464    8.8798 O   0  0  0  0  0  0  0  0  0  0  0  0
   31.7379  -24.1546    8.5752 O   0  0  0  0  0  0  0  0  0  0  0  0
  2  1  1  1
  2  4  1  0
  3  2  1  0
  4  5  1  6
  6  4  1  0
  7  6  2  0
  8  6  1  0
  9 12  1  0
  9  8  1  0
  9 10  1  1
 11 10  1  0
 12 14  1  0
 13 12  2  0
 14 15  1  0
 15 26  1  0
 15 16  1  6
 17 25  1  0
 17 16  1  0
 18 17  2  0
 19 18  1  0
 19 20  1  0
 20 25  2  0
 21 20  1  0
 21 22  2  0
 22 23  1  0
 23 24  2  0
 25 24  1  0
 26 28  2  0
 26 27  1  0
M  END
$$$$
