CYT.pdb
     RDKit          3D

 26 26  0  0  1  0  0  0  0  0999 V2000
   17.8484  -12.6180  -21.0339 N   0  0  0  0  0  0  0  0  0  0  0  0
   18.1664  -11.2197  -20.8331 C   0  0  1  0  0  0  0  0  0  0  0  0
   17.3082  -10.3775  -21.7764 C   0  0  0  0  0  0  0  0  0  0  0  0
   18.1262  -10.4709  -23.4086 S   0  0  0  0  0  0  0  0  0  0  0  0
   17.8648  -10.8201  -19.4162 C   0  0  0  0  0  0  0  0  0  0  0  0
   16.7368  -11.1088  -18.9459 O   0  0  0  0  0  0  0  0  0  0  0  0
   18.5296  -16.2702  -15.8449 O   0  0  0  0  0  0  0  0  0  0  0  0
   18.7615  -14.8962  -15.9999 C   0  0  0  0  0  0  0  0  0  0  0  0
   19.6971  -14.4230  -16.8946 C   0  0  0  0  0  0  0  0  0  0  0  0
   19.9339  -13.0737  -17.0559 C   0  0  0  0  0  0  0  0  0  0  0  0
   19.2323  -12.1231  -16.3157 C   0  0  0  0  0  0  0  0  0  0  0  0
   19.4724  -10.6890  -16.4361 C   0  0  0  0  0  0  0  0  0  0  0  0
   18.4597   -9.8981  -17.2088 C   0  0  2  0  0  0  0  0  0  0  0  0
   18.8179  -10.1380  -18.6267 N   0  0  0  0  0  0  0  0  0  0  0  0
   18.5342   -8.4333  -17.0294 C   0  0  0  0  0  0  0  0  0  0  0  0
   19.5534   -7.7641  -17.4334 O   0  0  0  0  0  0  0  0  0  0  0  0
   18.3042  -12.6097  -15.4290 C   0  0  0  0  0  0  0  0  0  0  0  0
   18.0638  -13.9614  -15.2645 C   0  0  0  0  0  0  0  0  0  0  0  0
   15.2296   -5.9946  -15.8094 C   0  0  0  0  0  0  0  0  0  0  0  0
   16.3476   -5.5040  -16.6960 C   0  0  1  0  0  0  0  0  0  0  0  0
   16.4353   -4.1345  -16.5372 O   0  0  0  0  0  0  0  0  0  0  0  0
   17.6665   -6.1875  -16.3393 C   0  0  2  0  0  0  0  0  0  0  0  0
   17.5291   -7.6255  -16.4210 N   0  0  0  0  0  0  0  0  0  0  0  0
   18.1721   -5.7551  -15.0413 C   0  0  0  0  0  0  0  0  0  0  0  0
   18.2203   -6.5012  -14.0416 O   0  0  0  0  0  0  0  0  0  0  0  0
   18.6456   -4.4473  -14.8301 O   0  0  0  0  0  0  0  0  0  0  0  0
  2  1  1  1
  3  2  1  0
  3  4  1  0
  5  2  1  0
  5  6  2  0
  7  8  1  0
  8 18  2  0
  9  8  1  0
  9 10  2  0
 10 11  1  0
 11 17  2  0
 11 12  1  0
 13 12  1  1
 13 14  1  0
 14  5  1  0
 15 13  1  0
 16 15  2  0
 18 17  1  0
 20 21  1  0
 20 19  1  1
 22 23  1  1
 22 20  1  0
 23 15  1  0
 24 22  1  0
 25 24  2  0
 26 24  1  0
M  END
$$$$
