CYT.pdb
     RDKit          3D

 26 26  0  0  1  0  0  0  0  0999 V2000
   21.1153  -12.0683  -17.0704 N   0  0  0  0  0  0  0  0  0  0  0  0
   20.3463  -11.0132  -17.6963 C   0  0  1  0  0  0  0  0  0  0  0  0
   19.1026  -11.6240  -18.3409 C   0  0  0  0  0  0  0  0  0  0  0  0
   19.6338  -12.2088  -19.9895 S   0  0  0  0  0  0  0  0  0  0  0  0
   19.9146  -10.0082  -16.6658 C   0  0  0  0  0  0  0  0  0  0  0  0
   18.9856  -10.3239  -15.8823 O   0  0  0  0  0  0  0  0  0  0  0  0
   19.8215   -5.6623   -9.3685 O   0  0  0  0  0  0  0  0  0  0  0  0
   20.0759   -6.3336  -10.5729 C   0  0  0  0  0  0  0  0  0  0  0  0
   21.1263   -5.9708  -11.3883 C   0  0  0  0  0  0  0  0  0  0  0  0
   21.3864   -6.6235  -12.5753 C   0  0  0  0  0  0  0  0  0  0  0  0
   20.5928   -7.6862  -13.0049 C   0  0  0  0  0  0  0  0  0  0  0  0
   20.8173   -8.3843  -14.2663 C   0  0  0  0  0  0  0  0  0  0  0  0
   20.0855   -7.8616  -15.4659 C   0  0  2  0  0  0  0  0  0  0  0  0
   20.5311   -8.7400  -16.5733 N   0  0  0  0  0  0  0  0  0  0  0  0
   20.4537   -6.4921  -15.8812 C   0  0  0  0  0  0  0  0  0  0  0  0
   21.5986   -6.2410  -16.4068 O   0  0  0  0  0  0  0  0  0  0  0  0
   19.5509   -8.0357  -12.1823 C   0  0  0  0  0  0  0  0  0  0  0  0
   19.2868   -7.3839  -10.9918 C   0  0  0  0  0  0  0  0  0  0  0  0
   18.8835   -4.0520  -18.3494 C   0  0  0  0  0  0  0  0  0  0  0  0
   19.0424   -3.3362  -17.0306 C   0  0  1  0  0  0  0  0  0  0  0  0
   17.8058   -3.3166  -16.4152 O   0  0  0  0  0  0  0  0  0  0  0  0
   20.0846   -4.0302  -16.1555 C   0  0  2  0  0  0  0  0  0  0  0  0
   19.6200   -5.3419  -15.7594 N   0  0  0  0  0  0  0  0  0  0  0  0
   20.4679   -3.2123  -15.0101 C   0  0  0  0  0  0  0  0  0  0  0  0
   21.0352   -2.1056  -15.1178 O   0  0  0  0  0  0  0  0  0  0  0  0
   20.2180   -3.6260  -13.6890 O   0  0  0  0  0  0  0  0  0  0  0  0
  2  1  1  1
  3  2  1  0
  3  4  1  0
  5  2  1  0
  5  6  2  0
  7  8  1  0
  8 18  2  0
  9  8  1  0
  9 10  2  0
 10 11  1  0
 11 17  2  0
 11 12  1  0
 13 12  1  1
 13 14  1  0
 14  5  1  0
 15 13  1  0
 16 15  2  0
 18 17  1  0
 20 21  1  0
 20 19  1  6
 22 23  1  1
 22 20  1  0
 23 15  1  0
 24 22  1  0
 25 24  2  0
 26 24  1  0
M  END
$$$$
