CYT.pdb
     RDKit          3D

 26 26  0  0  1  0  0  0  0  0999 V2000
   22.6003  -14.9011  -16.3896 N   0  0  0  0  0  0  0  0  0  0  0  0
   22.4061  -13.6278  -17.0510 C   0  0  1  0  0  0  0  0  0  0  0  0
   21.2448  -13.7549  -18.0363 C   0  0  0  0  0  0  0  0  0  0  0  0
   21.8269  -14.8892  -19.3464 S   0  0  0  0  0  0  0  0  0  0  0  0
   22.0709  -12.5672  -16.0405 C   0  0  0  0  0  0  0  0  0  0  0  0
   21.2440  -12.8479  -15.1382 O   0  0  0  0  0  0  0  0  0  0  0  0
   28.4514   -9.8888  -17.2406 O   0  0  0  0  0  0  0  0  0  0  0  0
   27.2582   -9.9679  -16.5086 C   0  0  0  0  0  0  0  0  0  0  0  0
   26.2531   -9.0390  -16.6723 C   0  0  0  0  0  0  0  0  0  0  0  0
   25.0752   -9.1064  -15.9579 C   0  0  0  0  0  0  0  0  0  0  0  0
   24.8482  -10.1242  -15.0325 C   0  0  0  0  0  0  0  0  0  0  0  0
   23.6285  -10.2152  -14.2370 C   0  0  0  0  0  0  0  0  0  0  0  0
   22.3400  -10.3528  -14.9913 C   0  0  2  0  0  0  0  0  0  0  0  0
   22.6647  -11.2860  -16.0958 N   0  0  0  0  0  0  0  0  0  0  0  0
   21.8608   -9.1198  -15.6498 C   0  0  0  0  0  0  0  0  0  0  0  0
   22.3558   -8.7267  -16.7680 O   0  0  0  0  0  0  0  0  0  0  0  0
   25.8581  -11.0415  -14.8806 C   0  0  0  0  0  0  0  0  0  0  0  0
   27.0403  -10.9774  -15.5948 C   0  0  0  0  0  0  0  0  0  0  0  0
   18.3778   -5.9456  -16.7942 C   0  0  0  0  0  0  0  0  0  0  0  0
   18.8954   -6.9061  -15.7520 C   0  0  1  0  0  0  0  0  0  0  0  0
   18.2248   -8.1023  -15.9176 O   0  0  0  0  0  0  0  0  0  0  0  0
   20.4054   -7.0955  -15.8869 C   0  0  2  0  0  0  0  0  0  0  0  0
   20.8365   -8.2633  -15.1496 N   0  0  0  0  0  0  0  0  0  0  0  0
   21.1425   -5.8973  -15.5015 C   0  0  0  0  0  0  0  0  0  0  0  0
   21.6414   -5.7345  -14.3688 O   0  0  0  0  0  0  0  0  0  0  0  0
   21.3414   -4.8309  -16.3972 O   0  0  0  0  0  0  0  0  0  0  0  0
  2  1  1  1
  3  2  1  0
  3  4  1  0
  5  2  1  0
  5  6  2  0
  7  8  1  0
  8 18  2  0
  9  8  1  0
  9 10  2  0
 10 11  1  0
 11 17  2  0
 11 12  1  0
 13 12  1  6
 13 14  1  0
 14  5  1  0
 15 13  1  0
 16 15  2  0
 18 17  1  0
 20 21  1  0
 20 19  1  6
 22 23  1  1
 22 20  1  0
 23 15  1  0
 24 22  1  0
 25 24  2  0
 26 24  1  0
M  END
$$$$
