CYT.pdb
     RDKit          3D

 26 26  0  0  1  0  0  0  0  0999 V2000
   18.2173  -12.9927  -16.1162 N   0  0  0  0  0  0  0  0  0  0  0  0
   18.3253  -11.5567  -16.2676 C   0  0  1  0  0  0  0  0  0  0  0  0
   17.2363  -10.8882  -15.4293 C   0  0  0  0  0  0  0  0  0  0  0  0
   15.6488  -11.4022  -16.1760 S   0  0  0  0  0  0  0  0  0  0  0  0
   19.6678  -11.0861  -15.7833 C   0  0  0  0  0  0  0  0  0  0  0  0
   20.2428  -11.7536  -14.8885 O   0  0  0  0  0  0  0  0  0  0  0  0
   28.1394   -9.4977  -16.1785 O   0  0  0  0  0  0  0  0  0  0  0  0
   26.7604   -9.7302  -16.2794 C   0  0  0  0  0  0  0  0  0  0  0  0
   26.0988  -10.5270  -15.3699 C   0  0  0  0  0  0  0  0  0  0  0  0
   24.7427  -10.7630  -15.4588 C   0  0  0  0  0  0  0  0  0  0  0  0
   23.9767  -10.2019  -16.4796 C   0  0  0  0  0  0  0  0  0  0  0  0
   22.5462  -10.4490  -16.6251 C   0  0  0  0  0  0  0  0  0  0  0  0
   21.6270   -9.5903  -15.8091 C   0  0  2  0  0  0  0  0  0  0  0  0
   20.2746   -9.9255  -16.3141 N   0  0  0  0  0  0  0  0  0  0  0  0
   21.7728   -8.1349  -16.0189 C   0  0  0  0  0  0  0  0  0  0  0  0
   21.6293   -7.6126  -17.1836 O   0  0  0  0  0  0  0  0  0  0  0  0
   24.6496   -9.4109  -17.3774 C   0  0  0  0  0  0  0  0  0  0  0  0
   26.0088   -9.1719  -17.2918 C   0  0  0  0  0  0  0  0  0  0  0  0
   19.7999   -5.2708  -15.1865 C   0  0  0  0  0  0  0  0  0  0  0  0
   21.1640   -4.9418  -14.6319 C   0  0  1  0  0  0  0  0  0  0  0  0
   21.1294   -5.1792  -13.2715 O   0  0  0  0  0  0  0  0  0  0  0  0
   22.2457   -5.7793  -15.3120 C   0  0  2  0  0  0  0  0  0  0  0  0
   22.0698   -7.1814  -15.0014 N   0  0  0  0  0  0  0  0  0  0  0  0
   23.5869   -5.3069  -14.9870 C   0  0  0  0  0  0  0  0  0  0  0  0
   24.4331   -6.0043  -14.3906 O   0  0  0  0  0  0  0  0  0  0  0  0
   24.0192   -4.0131  -15.3312 O   0  0  0  0  0  0  0  0  0  0  0  0
  2  1  1  1
  3  2  1  0
  3  4  1  0
  5  2  1  0
  5  6  2  0
  7  8  1  0
  8 18  2  0
  9  8  1  0
  9 10  2  0
 10 11  1  0
 11 17  2  0
 11 12  1  0
 13 12  1  6
 13 14  1  0
 14  5  1  0
 15 13  1  0
 16 15  2  0
 18 17  1  0
 20 21  1  0
 20 19  1  6
 22 23  1  1
 22 20  1  0
 23 15  1  0
 24 22  1  0
 25 24  2  0
 26 24  1  0
M  END
$$$$
