CYT.pdb
     RDKit          3D

 26 26  0  0  1  0  0  0  0  0999 V2000
   28.3685  -19.5487  -17.1793 N   0  0  0  0  0  0  0  0  0  0  0  0
   27.8986  -19.0806  -15.8921 C   0  0  1  0  0  0  0  0  0  0  0  0
   27.0520  -17.8257  -16.1016 C   0  0  0  0  0  0  0  0  0  0  0  0
   28.2403  -16.4688  -16.3995 S   0  0  0  0  0  0  0  0  0  0  0  0
   27.0503  -20.1345  -15.2379 C   0  0  0  0  0  0  0  0  0  0  0  0
   26.3322  -20.8576  -15.9717 O   0  0  0  0  0  0  0  0  0  0  0  0
   24.3536  -19.8947   -7.2708 O   0  0  0  0  0  0  0  0  0  0  0  0
   24.9790  -20.3628   -8.4351 C   0  0  0  0  0  0  0  0  0  0  0  0
   26.1990  -19.8675   -8.8427 C   0  0  0  0  0  0  0  0  0  0  0  0
   26.8239  -20.3201   -9.9861 C   0  0  0  0  0  0  0  0  0  0  0  0
   26.2447  -21.3050  -10.7849 C   0  0  0  0  0  0  0  0  0  0  0  0
   26.8593  -21.7907  -12.0159 C   0  0  0  0  0  0  0  0  0  0  0  0
   26.1954  -21.3981  -13.3016 C   0  0  2  0  0  0  0  0  0  0  0  0
   27.0536  -20.3146  -13.8363 N   0  0  0  0  0  0  0  0  0  0  0  0
   24.8522  -20.7986  -13.1597 C   0  0  0  0  0  0  0  0  0  0  0  0
   24.7043  -19.5743  -12.8004 O   0  0  0  0  0  0  0  0  0  0  0  0
   25.0300  -21.7883  -10.3660 C   0  0  0  0  0  0  0  0  0  0  0  0
   24.4004  -21.3373   -9.2206 C   0  0  0  0  0  0  0  0  0  0  0  0
   21.9275  -21.6064  -15.7862 C   0  0  0  0  0  0  0  0  0  0  0  0
   22.0597  -20.3739  -14.9258 C   0  0  1  0  0  0  0  0  0  0  0  0
   20.8735  -19.6719  -15.0178 O   0  0  0  0  0  0  0  0  0  0  0  0
   22.3685  -20.7504  -13.4778 C   0  0  2  0  0  0  0  0  0  0  0  0
   23.6193  -21.4734  -13.3989 N   0  0  0  0  0  0  0  0  0  0  0  0
   21.2693  -21.4814  -12.8573 C   0  0  0  0  0  0  0  0  0  0  0  0
   21.3912  -22.6303  -12.3847 O   0  0  0  0  0  0  0  0  0  0  0  0
   19.9802  -20.9284  -12.7503 O   0  0  0  0  0  0  0  0  0  0  0  0
  2  1  1  6
  3  2  1  0
  3  4  1  0
  5  2  1  0
  5  6  2  0
  7  8  1  0
  8 18  2  0
  9  8  1  0
  9 10  2  0
 10 11  1  0
 11 17  2  0
 11 12  1  0
 13 12  1  1
 13 14  1  0
 14  5  1  0
 15 13  1  0
 16 15  2  0
 18 17  1  0
 20 21  1  0
 20 19  1  6
 22 23  1  6
 22 20  1  0
 23 15  1  0
 24 22  1  0
 25 24  2  0
 26 24  1  0
M  END
$$$$
