CYT.pdb
     RDKit          3D

 26 26  0  0  1  0  0  0  0  0999 V2000
   22.2136  -10.9720  -17.7313 N   0  0  0  0  0  0  0  0  0  0  0  0
   20.8662  -11.2202  -17.2627 C   0  0  1  0  0  0  0  0  0  0  0  0
   20.8089  -12.6143  -16.6394 C   0  0  0  0  0  0  0  0  0  0  0  0
   21.1873  -13.7807  -17.9953 S   0  0  0  0  0  0  0  0  0  0  0  0
   20.4876  -10.2067  -16.2198 C   0  0  0  0  0  0  0  0  0  0  0  0
   19.3317  -10.2611  -15.7320 O   0  0  0  0  0  0  0  0  0  0  0  0
   20.4593   -5.4140   -8.9529 O   0  0  0  0  0  0  0  0  0  0  0  0
   20.7709   -6.1551  -10.1016 C   0  0  0  0  0  0  0  0  0  0  0  0
   20.3779   -7.4693  -10.2360 C   0  0  0  0  0  0  0  0  0  0  0  0
   20.6786   -8.2084  -11.3612 C   0  0  0  0  0  0  0  0  0  0  0  0
   21.3982   -7.6543  -12.4190 C   0  0  0  0  0  0  0  0  0  0  0  0
   21.7605   -8.4098  -13.6135 C   0  0  0  0  0  0  0  0  0  0  0  0
   20.8939   -8.2174  -14.8218 C   0  0  2  0  0  0  0  0  0  0  0  0
   21.4001   -9.2155  -15.7933 N   0  0  0  0  0  0  0  0  0  0  0  0
   21.0342   -6.9100  -15.4960 C   0  0  0  0  0  0  0  0  0  0  0  0
   22.0568   -6.6440  -16.2264 O   0  0  0  0  0  0  0  0  0  0  0  0
   21.7824   -6.3448  -12.2705 C   0  0  0  0  0  0  0  0  0  0  0  0
   21.4830   -5.6006  -11.1442 C   0  0  0  0  0  0  0  0  0  0  0  0
   18.4646   -5.1293  -17.8243 C   0  0  0  0  0  0  0  0  0  0  0  0
   18.9549   -4.1563  -16.7805 C   0  0  1  0  0  0  0  0  0  0  0  0
   17.9758   -4.0561  -15.8112 O   0  0  0  0  0  0  0  0  0  0  0  0
   20.2808   -4.6219  -16.1810 C   0  0  2  0  0  0  0  0  0  0  0  0
   20.0935   -5.8410  -15.4247 N   0  0  0  0  0  0  0  0  0  0  0  0
   20.9199   -3.5757  -15.3907 C   0  0  0  0  0  0  0  0  0  0  0  0
   21.0577   -3.6407  -14.1518 O   0  0  0  0  0  0  0  0  0  0  0  0
   21.4304   -2.4072  -15.9849 O   0  0  0  0  0  0  0  0  0  0  0  0
  2  1  1  1
  3  2  1  0
  3  4  1  0
  5  2  1  0
  5  6  2  0
  7  8  1  0
  8 18  2  0
  9  8  1  0
  9 10  2  0
 10 11  1  0
 11 17  2  0
 11 12  1  0
 13 12  1  1
 13 14  1  0
 14  5  1  0
 15 13  1  0
 16 15  2  0
 18 17  1  0
 20 21  1  0
 20 19  1  6
 22 23  1  1
 22 20  1  0
 23 15  1  0
 24 22  1  0
 25 24  2  0
 26 24  1  0
M  END
$$$$
