CYT.pdb
     RDKit          3D

 26 26  0  0  1  0  0  0  0  0999 V2000
   28.2417  -23.0524  -17.3895 N   0  0  0  0  0  0  0  0  0  0  0  0
   28.0001  -21.7416  -16.8237 C   0  0  1  0  0  0  0  0  0  0  0  0
   27.3046  -20.8721  -17.8705 C   0  0  0  0  0  0  0  0  0  0  0  0
   28.5207  -20.6474  -19.2170 S   0  0  0  0  0  0  0  0  0  0  0  0
   27.1096  -21.8556  -15.6187 C   0  0  0  0  0  0  0  0  0  0  0  0
   26.2876  -22.8040  -15.5764 O   0  0  0  0  0  0  0  0  0  0  0  0
   24.6606  -20.4936   -7.0965 O   0  0  0  0  0  0  0  0  0  0  0  0
   25.2533  -20.5093   -8.3670 C   0  0  0  0  0  0  0  0  0  0  0  0
   25.2281  -21.6388   -9.1566 C   0  0  0  0  0  0  0  0  0  0  0  0
   25.8078  -21.6662  -10.4080 C   0  0  0  0  0  0  0  0  0  0  0  0
   26.4489  -20.5447  -10.9323 C   0  0  0  0  0  0  0  0  0  0  0  0
   27.0982  -20.5410  -12.2389 C   0  0  0  0  0  0  0  0  0  0  0  0
   26.3618  -21.2111  -13.3599 C   0  0  2  0  0  0  0  0  0  0  0  0
   27.1874  -20.9260  -14.5572 N   0  0  0  0  0  0  0  0  0  0  0  0
   25.0286  -20.6499  -13.6620 C   0  0  0  0  0  0  0  0  0  0  0  0
   24.8991  -19.4740  -14.1624 O   0  0  0  0  0  0  0  0  0  0  0  0
   26.4658  -19.4278  -10.1344 C   0  0  0  0  0  0  0  0  0  0  0  0
   25.8859  -19.3963   -8.8795 C   0  0  0  0  0  0  0  0  0  0  0  0
   22.6046  -21.0342  -16.1159 C   0  0  0  0  0  0  0  0  0  0  0  0
   21.7914  -21.2144  -14.8578 C   0  0  1  0  0  0  0  0  0  0  0  0
   21.5569  -22.5669  -14.7029 O   0  0  0  0  0  0  0  0  0  0  0  0
   22.5242  -20.6381  -13.6475 C   0  0  2  0  0  0  0  0  0  0  0  0
   23.7865  -21.3171  -13.4501 N   0  0  0  0  0  0  0  0  0  0  0  0
   21.6951  -20.6564  -12.4475 C   0  0  0  0  0  0  0  0  0  0  0  0
   21.9922  -21.2987  -11.4193 O   0  0  0  0  0  0  0  0  0  0  0  0
   20.4874  -19.9389  -12.3718 O   0  0  0  0  0  0  0  0  0  0  0  0
  2  1  1  6
  3  2  1  0
  3  4  1  0
  5  2  1  0
  5  6  2  0
  7  8  1  0
  8 18  2  0
  9  8  1  0
  9 10  2  0
 10 11  1  0
 11 17  2  0
 11 12  1  0
 13 12  1  1
 13 14  1  0
 14  5  1  0
 15 13  1  0
 16 15  2  0
 18 17  1  0
 20 21  1  0
 20 19  1  6
 22 23  1  1
 22 20  1  0
 23 15  1  0
 24 22  1  0
 25 24  2  0
 26 24  1  0
M  END
$$$$
