CYT.pdb
     RDKit          3D

 26 26  0  0  1  0  0  0  0  0999 V2000
   25.1894  -20.3370   -7.6090 N   0  0  0  0  0  0  0  0  0  0  0  0
   24.5091  -20.9430   -8.7344 C   0  0  1  0  0  0  0  0  0  0  0  0
   23.0005  -20.8073   -8.5312 C   0  0  0  0  0  0  0  0  0  0  0  0
   22.5795  -21.9437   -7.1624 S   0  0  0  0  0  0  0  0  0  0  0  0
   24.8919  -20.2421  -10.0074 C   0  0  0  0  0  0  0  0  0  0  0  0
   24.9782  -18.9894   -9.9918 O   0  0  0  0  0  0  0  0  0  0  0  0
   29.2747  -18.7724  -17.5351 O   0  0  0  0  0  0  0  0  0  0  0  0
   28.6944  -19.1866  -16.3279 C   0  0  0  0  0  0  0  0  0  0  0  0
   28.1936  -18.2756  -15.4228 C   0  0  0  0  0  0  0  0  0  0  0  0
   27.6205  -18.6712  -14.2321 C   0  0  0  0  0  0  0  0  0  0  0  0
   27.5221  -20.0190  -13.8898 C   0  0  0  0  0  0  0  0  0  0  0  0
   26.9487  -20.4772  -12.6288 C   0  0  0  0  0  0  0  0  0  0  0  0
   25.5001  -20.1692  -12.3952 C   0  0  2  0  0  0  0  0  0  0  0  0
   25.1497  -20.9641  -11.1945 N   0  0  0  0  0  0  0  0  0  0  0  0
   24.5788  -20.6330  -13.4533 C   0  0  0  0  0  0  0  0  0  0  0  0
   24.3528  -21.8840  -13.6378 O   0  0  0  0  0  0  0  0  0  0  0  0
   28.0250  -20.9140  -14.8011 C   0  0  0  0  0  0  0  0  0  0  0  0
   28.6002  -20.5216  -15.9957 C   0  0  0  0  0  0  0  0  0  0  0  0
   20.8146  -19.7107  -14.3188 C   0  0  0  0  0  0  0  0  0  0  0  0
   21.7256  -19.4977  -15.5026 C   0  0  1  0  0  0  0  0  0  0  0  0
   22.0207  -18.1496  -15.5644 O   0  0  0  0  0  0  0  0  0  0  0  0
   22.9957  -20.3364  -15.3712 C   0  0  2  0  0  0  0  0  0  0  0  0
   23.8605  -19.7878  -14.3491 N   0  0  0  0  0  0  0  0  0  0  0  0
   23.6822  -20.4916  -16.6488 C   0  0  0  0  0  0  0  0  0  0  0  0
   24.7826  -19.9606  -16.9042 O   0  0  0  0  0  0  0  0  0  0  0  0
   23.1382  -21.2629  -17.6920 O   0  0  0  0  0  0  0  0  0  0  0  0
  2  1  1  1
  3  2  1  0
  3  4  1  0
  5  2  1  0
  5  6  2  0
  7  8  1  0
  8 18  2  0
  9  8  1  0
  9 10  2  0
 10 11  1  0
 11 17  2  0
 11 12  1  0
 13 12  1  6
 13 14  1  0
 14  5  1  0
 15 13  1  0
 16 15  2  0
 18 17  1  0
 20 21  1  0
 20 19  1  1
 22 23  1  1
 22 20  1  0
 23 15  1  0
 24 22  1  0
 25 24  2  0
 26 24  1  0
M  END
$$$$
