CYT.pdb
     RDKit          3D

 26 26  0  0  1  0  0  0  0  0999 V2000
   19.2897  -27.1951  -14.6541 N   0  0  0  0  0  0  0  0  0  0  0  0
   20.7177  -26.9763  -14.7516 C   0  0  1  0  0  0  0  0  0  0  0  0
   20.9700  -25.5122  -15.1097 C   0  0  0  0  0  0  0  0  0  0  0  0
   20.4743  -25.3366  -16.8605 S   0  0  0  0  0  0  0  0  0  0  0  0
   21.3766  -27.2739  -13.4342 C   0  0  0  0  0  0  0  0  0  0  0  0
   22.5892  -26.9777  -13.2972 O   0  0  0  0  0  0  0  0  0  0  0  0
   15.0944  -28.4497   -9.7088 O   0  0  0  0  0  0  0  0  0  0  0  0
   16.4667  -28.1761   -9.7964 C   0  0  0  0  0  0  0  0  0  0  0  0
   16.9374  -27.0836  -10.4928 C   0  0  0  0  0  0  0  0  0  0  0  0
   18.2850  -26.8043  -10.5860 C   0  0  0  0  0  0  0  0  0  0  0  0
   19.2363  -27.6204   -9.9756 C   0  0  0  0  0  0  0  0  0  0  0  0
   20.6714  -27.3757  -10.0735 C   0  0  0  0  0  0  0  0  0  0  0  0
   21.4156  -28.1404  -11.1267 C   0  0  2  0  0  0  0  0  0  0  0  0
   20.6597  -27.8707  -12.3726 N   0  0  0  0  0  0  0  0  0  0  0  0
   21.3978  -29.6096  -10.9693 C   0  0  0  0  0  0  0  0  0  0  0  0
   20.5921  -30.3424  -11.6505 O   0  0  0  0  0  0  0  0  0  0  0  0
   18.7523  -28.7041   -9.2859 C   0  0  0  0  0  0  0  0  0  0  0  0
   17.4023  -28.9876   -9.1901 C   0  0  0  0  0  0  0  0  0  0  0  0
   23.2767  -33.8885   -9.2735 C   0  0  0  0  0  0  0  0  0  0  0  0
   23.3383  -32.3809   -9.2820 C   0  0  1  0  0  0  0  0  0  0  0  0
   24.4921  -32.0145   -9.9474 O   0  0  0  0  0  0  0  0  0  0  0  0
   22.1007  -31.7883   -9.9536 C   0  0  2  0  0  0  0  0  0  0  0  0
   22.2366  -30.3542  -10.0892 N   0  0  0  0  0  0  0  0  0  0  0  0
   20.8722  -32.1625   -9.2621 C   0  0  0  0  0  0  0  0  0  0  0  0
   20.4332  -31.5511   -8.2662 O   0  0  0  0  0  0  0  0  0  0  0  0
   20.0909  -33.2548   -9.6808 O   0  0  0  0  0  0  0  0  0  0  0  0
  2  1  1  1
  3  2  1  0
  3  4  1  0
  5  2  1  0
  5  6  2  0
  7  8  1  0
  8 18  2  0
  9  8  1  0
  9 10  2  0
 10 11  1  0
 11 17  2  0
 11 12  1  0
 13 12  1  1
 13 14  1  0
 14  5  1  0
 15 13  1  0
 16 15  2  0
 18 17  1  0
 20 21  1  0
 20 19  1  6
 22 23  1  1
 22 20  1  0
 23 15  1  0
 24 22  1  0
 25 24  2  0
 26 24  1  0
M  END
$$$$
