CYT.pdb
     RDKit          3D

 26 26  0  0  1  0  0  0  0  0999 V2000
   21.2719   -9.7185  -16.1065 N   0  0  0  0  0  0  0  0  0  0  0  0
   21.7751   -8.5311  -16.7648 C   0  0  1  0  0  0  0  0  0  0  0  0
   21.2738   -8.5164  -18.2084 C   0  0  0  0  0  0  0  0  0  0  0  0
   22.2762   -9.7619  -19.0950 S   0  0  0  0  0  0  0  0  0  0  0  0
   21.2725   -7.3003  -16.0643 C   0  0  0  0  0  0  0  0  0  0  0  0
   20.0799   -7.2870  -15.6712 O   0  0  0  0  0  0  0  0  0  0  0  0
   18.6216   -6.9305   -9.5657 O   0  0  0  0  0  0  0  0  0  0  0  0
   19.4823   -6.5138  -10.5911 C   0  0  0  0  0  0  0  0  0  0  0  0
   20.4990   -7.3246  -11.0481 C   0  0  0  0  0  0  0  0  0  0  0  0
   21.3518   -6.9256  -12.0561 C   0  0  0  0  0  0  0  0  0  0  0  0
   21.2218   -5.6762  -12.6610 C   0  0  0  0  0  0  0  0  0  0  0  0
   22.1198   -5.2057  -13.7102 C   0  0  0  0  0  0  0  0  0  0  0  0
   21.5337   -5.0546  -15.0819 C   0  0  2  0  0  0  0  0  0  0  0  0
   22.1111   -6.1835  -15.8490 N   0  0  0  0  0  0  0  0  0  0  0  0
   21.9434   -3.8365  -15.8113 C   0  0  0  0  0  0  0  0  0  0  0  0
   23.1753   -3.6172  -16.1017 O   0  0  0  0  0  0  0  0  0  0  0  0
   20.2048   -4.8804  -12.1952 C   0  0  0  0  0  0  0  0  0  0  0  0
   19.3479   -5.2766  -11.1850 C   0  0  0  0  0  0  0  0  0  0  0  0
   21.3429   -2.6567  -19.2665 C   0  0  0  0  0  0  0  0  0  0  0  0
   20.8806   -1.5511  -18.3496 C   0  0  1  0  0  0  0  0  0  0  0  0
   19.5073   -1.6491  -18.2376 O   0  0  0  0  0  0  0  0  0  0  0  0
   21.5559   -1.6574  -16.9834 C   0  0  2  0  0  0  0  0  0  0  0  0
   21.0619   -2.8112  -16.2635 N   0  0  0  0  0  0  0  0  0  0  0  0
   21.4222   -0.4273  -16.2111 C   0  0  0  0  0  0  0  0  0  0  0  0
   21.8924    0.6683  -16.5809 O   0  0  0  0  0  0  0  0  0  0  0  0
   20.7433   -0.3972  -14.9793 O   0  0  0  0  0  0  0  0  0  0  0  0
  2  1  1  1
  3  2  1  0
  3  4  1  0
  5  2  1  0
  5  6  2  0
  7  8  1  0
  8 18  2  0
  9  8  1  0
  9 10  2  0
 10 11  1  0
 11 17  2  0
 11 12  1  0
 13 12  1  1
 13 14  1  0
 14  5  1  0
 15 13  1  0
 16 15  2  0
 18 17  1  0
 20 21  1  0
 20 19  1  6
 22 23  1  1
 22 20  1  0
 23 15  1  0
 24 22  1  0
 25 24  2  0
 26 24  1  0
M  END
$$$$
