CYT.pdb
     RDKit          3D

 26 26  0  0  1  0  0  0  0  0999 V2000
   28.2546  -22.1104  -14.6431 N   0  0  0  0  0  0  0  0  0  0  0  0
   27.2701  -21.0619  -14.8109 C   0  0  1  0  0  0  0  0  0  0  0  0
   26.7834  -21.0684  -16.2595 C   0  0  0  0  0  0  0  0  0  0  0  0
   27.9723  -20.0354  -17.1877 S   0  0  0  0  0  0  0  0  0  0  0  0
   26.0970  -21.3054  -13.9039 C   0  0  0  0  0  0  0  0  0  0  0  0
   25.5979  -22.4573  -13.8762 O   0  0  0  0  0  0  0  0  0  0  0  0
   27.7149  -20.6326   -6.6136 O   0  0  0  0  0  0  0  0  0  0  0  0
   26.9161  -20.3704   -7.7356 C   0  0  0  0  0  0  0  0  0  0  0  0
   26.8996  -19.1267   -8.3298 C   0  0  0  0  0  0  0  0  0  0  0  0
   26.1180  -18.8569   -9.4338 C   0  0  0  0  0  0  0  0  0  0  0  0
   25.3047  -19.8371  -10.0008 C   0  0  0  0  0  0  0  0  0  0  0  0
   24.4427  -19.5848  -11.1505 C   0  0  0  0  0  0  0  0  0  0  0  0
   24.4244  -20.6327  -12.2227 C   0  0  2  0  0  0  0  0  0  0  0  0
   25.5629  -20.2728  -13.1004 N   0  0  0  0  0  0  0  0  0  0  0  0
   23.2349  -20.6164  -13.0992 C   0  0  0  0  0  0  0  0  0  0  0  0
   23.0468  -19.6714  -13.9487 O   0  0  0  0  0  0  0  0  0  0  0  0
   25.3319  -21.0702   -9.3981 C   0  0  0  0  0  0  0  0  0  0  0  0
   26.1140  -21.3447   -8.2914 C   0  0  0  0  0  0  0  0  0  0  0  0
   20.8049  -23.9431  -14.1977 C   0  0  0  0  0  0  0  0  0  0  0  0
   20.9461  -22.6336  -14.9338 C   0  0  1  0  0  0  0  0  0  0  0  0
   19.8513  -22.5028  -15.7660 O   0  0  0  0  0  0  0  0  0  0  0  0
   21.0392  -21.4647  -13.9545 C   0  0  2  0  0  0  0  0  0  0  0  0
   22.2062  -21.6035  -13.1106 N   0  0  0  0  0  0  0  0  0  0  0  0
   19.8144  -21.3034  -13.1790 C   0  0  0  0  0  0  0  0  0  0  0  0
   19.7830  -21.3430  -11.9317 O   0  0  0  0  0  0  0  0  0  0  0  0
   18.5695  -21.0892  -13.7982 O   0  0  0  0  0  0  0  0  0  0  0  0
  2  1  1  6
  3  2  1  0
  3  4  1  0
  5  2  1  0
  5  6  2  0
  7  8  1  0
  8 18  2  0
  9  8  1  0
  9 10  2  0
 10 11  1  0
 11 17  2  0
 11 12  1  0
 13 12  1  1
 13 14  1  0
 14  5  1  0
 15 13  1  0
 16 15  2  0
 18 17  1  0
 20 21  1  0
 20 19  1  1
 22 23  1  1
 22 20  1  0
 23 15  1  0
 24 22  1  0
 25 24  2  0
 26 24  1  0
M  END
$$$$
