CYT.pdb
     RDKit          3D

 26 26  0  0  1  0  0  0  0  0999 V2000
   28.5316  -23.6024  -17.1625 N   0  0  0  0  0  0  0  0  0  0  0  0
   28.1234  -22.2754  -16.7516 C   0  0  1  0  0  0  0  0  0  0  0  0
   27.6061  -21.5170  -17.9734 C   0  0  0  0  0  0  0  0  0  0  0  0
   29.0816  -21.1380  -18.9840 S   0  0  0  0  0  0  0  0  0  0  0  0
   27.0208  -22.3663  -15.7346 C   0  0  0  0  0  0  0  0  0  0  0  0
   26.3698  -23.4375  -15.6599 O   0  0  0  0  0  0  0  0  0  0  0  0
   22.9580  -20.5868   -7.9905 O   0  0  0  0  0  0  0  0  0  0  0  0
   23.7596  -20.6203   -9.1404 C   0  0  0  0  0  0  0  0  0  0  0  0
   25.0397  -21.1305   -9.1079 C   0  0  0  0  0  0  0  0  0  0  0  0
   25.8376  -21.1687  -10.2324 C   0  0  0  0  0  0  0  0  0  0  0  0
   25.3810  -20.6896  -11.4594 C   0  0  0  0  0  0  0  0  0  0  0  0
   26.2027  -20.6863  -12.6650 C   0  0  0  0  0  0  0  0  0  0  0  0
   25.7291  -21.5354  -13.8064 C   0  0  2  0  0  0  0  0  0  0  0  0
   26.7173  -21.2815  -14.8812 N   0  0  0  0  0  0  0  0  0  0  0  0
   24.4222  -21.1501  -14.3783 C   0  0  0  0  0  0  0  0  0  0  0  0
   24.2781  -20.0522  -15.0294 O   0  0  0  0  0  0  0  0  0  0  0  0
   24.1045  -20.1847  -11.4758 C   0  0  0  0  0  0  0  0  0  0  0  0
   23.3016  -20.1446  -10.3509 C   0  0  0  0  0  0  0  0  0  0  0  0
   22.4503  -22.4573  -17.0544 C   0  0  0  0  0  0  0  0  0  0  0  0
   21.4616  -22.3641  -15.9185 C   0  0  1  0  0  0  0  0  0  0  0  0
   21.2647  -23.6416  -15.4311 O   0  0  0  0  0  0  0  0  0  0  0  0
   21.9736  -21.4280  -14.8251 C   0  0  2  0  0  0  0  0  0  0  0  0
   23.2238  -21.9168  -14.2853 N   0  0  0  0  0  0  0  0  0  0  0  0
   20.9747  -21.2040  -13.7861 C   0  0  0  0  0  0  0  0  0  0  0  0
   21.1418  -21.5317  -12.5932 O   0  0  0  0  0  0  0  0  0  0  0  0
   19.7386  -20.5942  -14.0673 O   0  0  0  0  0  0  0  0  0  0  0  0
  2  1  1  6
  3  2  1  0
  3  4  1  0
  5  2  1  0
  5  6  2  0
  7  8  1  0
  8 18  2  0
  9  8  1  0
  9 10  2  0
 10 11  1  0
 11 17  2  0
 11 12  1  0
 13 12  1  1
 13 14  1  0
 14  5  1  0
 15 13  1  0
 16 15  2  0
 18 17  1  0
 20 21  1  0
 20 19  1  6
 22 23  1  1
 22 20  1  0
 23 15  1  0
 24 22  1  0
 25 24  2  0
 26 24  1  0
M  END
$$$$
