CYT.pdb
     RDKit          3D

 26 26  0  0  1  0  0  0  0  0999 V2000
   28.7799  -23.0497  -16.9169 N   0  0  0  0  0  0  0  0  0  0  0  0
   28.1513  -21.7836  -16.6032 C   0  0  1  0  0  0  0  0  0  0  0  0
   27.4515  -21.2558  -17.8551 C   0  0  0  0  0  0  0  0  0  0  0  0
   26.7266  -19.6468  -17.3778 S   0  0  0  0  0  0  0  0  0  0  0  0
   27.1286  -21.9700  -15.5180 C   0  0  0  0  0  0  0  0  0  0  0  0
   26.5856  -23.0963  -15.4019 O   0  0  0  0  0  0  0  0  0  0  0  0
   23.3478  -20.8137   -7.5615 O   0  0  0  0  0  0  0  0  0  0  0  0
   24.0859  -20.7172   -8.7496 C   0  0  0  0  0  0  0  0  0  0  0  0
   23.5216  -20.2253   -9.9069 C   0  0  0  0  0  0  0  0  0  0  0  0
   24.2377  -20.1257  -11.0816 C   0  0  0  0  0  0  0  0  0  0  0  0
   25.5729  -20.5210  -11.1501 C   0  0  0  0  0  0  0  0  0  0  0  0
   26.3566  -20.4580  -12.3791 C   0  0  0  0  0  0  0  0  0  0  0  0
   25.8370  -21.2356  -13.5510 C   0  0  2  0  0  0  0  0  0  0  0  0
   26.7807  -20.9129  -14.6471 N   0  0  0  0  0  0  0  0  0  0  0  0
   24.5079  -20.8187  -14.0443 C   0  0  0  0  0  0  0  0  0  0  0  0
   24.3335  -19.6744  -14.6013 O   0  0  0  0  0  0  0  0  0  0  0  0
   26.1207  -21.0087   -9.9897 C   0  0  0  0  0  0  0  0  0  0  0  0
   25.4063  -21.1102   -8.8102 C   0  0  0  0  0  0  0  0  0  0  0  0
   22.5478  -21.9437  -16.7611 C   0  0  0  0  0  0  0  0  0  0  0  0
   21.5546  -21.9497  -15.6252 C   0  0  1  0  0  0  0  0  0  0  0  0
   21.3690  -23.2633  -15.2405 O   0  0  0  0  0  0  0  0  0  0  0  0
   22.0539  -21.0975  -14.4597 C   0  0  2  0  0  0  0  0  0  0  0  0
   23.3186  -21.6015  -13.9700 N   0  0  0  0  0  0  0  0  0  0  0  0
   21.0581  -20.9846  -13.3999 C   0  0  0  0  0  0  0  0  0  0  0  0
   21.2446  -21.3996  -12.2375 O   0  0  0  0  0  0  0  0  0  0  0  0
   19.8028  -20.3905  -13.6245 O   0  0  0  0  0  0  0  0  0  0  0  0
  2  1  1  6
  3  2  1  0
  3  4  1  0
  5  2  1  0
  5  6  2  0
  7  8  1  0
  8 18  2  0
  9  8  1  0
  9 10  2  0
 10 11  1  0
 11 17  2  0
 11 12  1  0
 13 12  1  1
 13 14  1  0
 14  5  1  0
 15 13  1  0
 16 15  2  0
 18 17  1  0
 20 21  1  0
 20 19  1  6
 22 23  1  1
 22 20  1  0
 23 15  1  0
 24 22  1  0
 25 24  2  0
 26 24  1  0
M  END
$$$$
