CYT.pdb
     RDKit          3D

 26 26  0  0  1  0  0  0  0  0999 V2000
   28.9163  -21.9312  -14.6406 N   0  0  0  0  0  0  0  0  0  0  0  0
   28.0313  -20.7863  -14.5902 C   0  0  1  0  0  0  0  0  0  0  0  0
   27.5754  -20.4514  -16.0098 C   0  0  0  0  0  0  0  0  0  0  0  0
   29.0538  -19.8004  -16.8658 S   0  0  0  0  0  0  0  0  0  0  0  0
   26.8232  -21.1042  -13.7550 C   0  0  0  0  0  0  0  0  0  0  0  0
   26.4194  -22.2928  -13.7245 O   0  0  0  0  0  0  0  0  0  0  0  0
   28.0693  -20.7435   -6.4381 O   0  0  0  0  0  0  0  0  0  0  0  0
   27.3005  -20.4519   -7.5737 C   0  0  0  0  0  0  0  0  0  0  0  0
   26.5984  -21.4354   -8.2367 C   0  0  0  0  0  0  0  0  0  0  0  0
   25.8388  -21.1605   -9.3548 C   0  0  0  0  0  0  0  0  0  0  0  0
   25.7474  -19.8669   -9.8665 C   0  0  0  0  0  0  0  0  0  0  0  0
   24.9779  -19.5396  -11.0621 C   0  0  0  0  0  0  0  0  0  0  0  0
   25.0128  -20.5372  -12.1808 C   0  0  2  0  0  0  0  0  0  0  0  0
   26.1529  -20.0999  -13.0207 N   0  0  0  0  0  0  0  0  0  0  0  0
   23.8381  -20.5201  -13.0771 C   0  0  0  0  0  0  0  0  0  0  0  0
   23.6305  -19.5424  -13.8839 O   0  0  0  0  0  0  0  0  0  0  0  0
   26.4520  -18.8986   -9.1955 C   0  0  0  0  0  0  0  0  0  0  0  0
   27.2146  -19.1700   -8.0745 C   0  0  0  0  0  0  0  0  0  0  0  0
   22.7218  -22.8906  -15.7426 C   0  0  0  0  0  0  0  0  0  0  0  0
   21.5121  -22.6566  -14.8716 C   0  0  1  0  0  0  0  0  0  0  0  0
   21.3407  -23.7795  -14.0856 O   0  0  0  0  0  0  0  0  0  0  0  0
   21.6908  -21.4042  -14.0152 C   0  0  2  0  0  0  0  0  0  0  0  0
   22.8456  -21.5408  -13.1542 N   0  0  0  0  0  0  0  0  0  0  0  0
   20.4818  -21.0768  -13.2677 C   0  0  0  0  0  0  0  0  0  0  0  0
   20.4486  -20.9892  -12.0229 O   0  0  0  0  0  0  0  0  0  0  0  0
   19.2557  -20.8347  -13.9134 O   0  0  0  0  0  0  0  0  0  0  0  0
  2  1  1  6
  3  2  1  0
  3  4  1  0
  5  2  1  0
  5  6  2  0
  7  8  1  0
  8 18  2  0
  9  8  1  0
  9 10  2  0
 10 11  1  0
 11 17  2  0
 11 12  1  0
 13 12  1  1
 13 14  1  0
 14  5  1  0
 15 13  1  0
 16 15  2  0
 18 17  1  0
 20 21  1  0
 20 19  1  1
 22 23  1  1
 22 20  1  0
 23 15  1  0
 24 22  1  0
 25 24  2  0
 26 24  1  0
M  END
$$$$
