FTP.pdb
     RDKit          3D

 26 27  0  0  1  0  0  0  0  0999 V2000
   42.1158  -34.4989   -0.9746 N   0  0  0  0  0  0  0  0  0  0  0  0
   40.8127  -33.8867   -0.9641 C   0  0  1  0  0  0  0  0  0  0  0  0
   40.5383  -33.3129   -2.3267 C   0  0  0  0  0  0  0  0  0  0  0  0
   41.4646  -32.1740   -2.5417 C   0  0  0  0  0  0  0  0  0  0  0  0
   41.2529  -30.9472   -1.9165 C   0  0  0  0  0  0  0  0  0  0  0  0
   42.1004  -29.8776   -2.1080 C   0  0  0  0  0  0  0  0  0  0  0  0
   43.1817  -30.0133   -2.9320 C   0  0  0  0  0  0  0  0  0  0  0  0
   43.4233  -31.1993   -3.5627 C   0  0  0  0  0  0  0  0  0  0  0  0
   42.5759  -32.2626   -3.3689 C   0  0  0  0  0  0  0  0  0  0  0  0
   39.7507  -34.8193   -0.5231 C   0  0  0  0  0  0  0  0  0  0  0  0
   39.9143  -36.0370   -0.8798 O   0  0  0  0  0  0  0  0  0  0  0  0
   38.8739  -35.6350    2.9424 C   0  0  0  0  0  0  0  0  0  0  0  0
   37.5856  -35.1937    2.2473 C   0  0  1  0  0  0  0  0  0  0  0  0
   37.1870  -33.9531    2.6131 O   0  0  0  0  0  0  0  0  0  0  0  0
   37.6622  -35.4792    0.7640 C   0  0  2  0  0  0  0  0  0  0  0  0
   38.6152  -34.4592    0.2365 N   0  0  0  0  0  0  0  0  0  0  0  0
   36.3987  -35.4042    0.0440 C   0  0  0  0  0  0  0  0  0  0  0  0
   35.9232  -34.2205   -0.0883 O   0  0  0  0  0  0  0  0  0  0  0  0
   35.6261  -36.4386   -0.5290 N   0  0  0  0  0  0  0  0  0  0  0  0
   36.0948  -37.8372   -0.4678 C   0  0  0  0  0  0  0  0  0  0  0  0
   34.8198  -38.6360   -0.4452 C   0  0  0  0  0  0  0  0  0  0  0  0
   34.0442  -37.9216   -1.5354 C   0  0  0  0  0  0  0  0  0  0  0  0
   34.3681  -36.4629   -1.1968 C   0  0  1  0  0  0  0  0  0  0  0  0
   33.2379  -36.0078   -0.3514 C   0  0  0  0  0  0  0  0  0  0  0  0
   33.3723  -35.9491    1.0161 O   0  0  0  0  0  0  0  0  0  0  0  0
   32.1678  -35.6796   -0.8880 O   0  0  0  0  0  0  0  0  0  0  0  0
  2  1  1  6
  2 10  1  0
  3  2  1  0
  3  4  1  0
  4  5  2  0
  4  9  1  0
  5  6  1  0
  6  7  2  0
  8  7  1  0
  9  8  2  0
 10 11  2  0
 13 12  1  6
 13 15  1  0
 14 13  1  0
 15 17  1  0
 15 16  1  6
 16 10  1  0
 17 18  2  0
 19 17  1  0
 19 20  1  0
 20 21  1  0
 22 21  1  0
 23 19  1  0
 23 22  1  0
 23 24  1  1
 25 24  1  0
 26 24  2  0
M  END
$$$$
