FTP.pdb
     RDKit          3D

 26 27  0  0  1  0  0  0  0  0999 V2000
   24.8699  -14.5686  -18.7399 N   0  0  0  0  0  0  0  0  0  0  0  0
   24.5955  -13.7754  -17.5701 C   0  0  1  0  0  0  0  0  0  0  0  0
   25.8917  -13.5005  -16.8589 C   0  0  0  0  0  0  0  0  0  0  0  0
   26.3774  -14.7763  -16.2777 C   0  0  0  0  0  0  0  0  0  0  0  0
   25.9511  -15.2026  -15.0218 C   0  0  0  0  0  0  0  0  0  0  0  0
   26.3950  -16.3824  -14.4650 C   0  0  0  0  0  0  0  0  0  0  0  0
   27.2780  -17.1635  -15.1554 C   0  0  0  0  0  0  0  0  0  0  0  0
   27.7193  -16.7803  -16.3888 C   0  0  0  0  0  0  0  0  0  0  0  0
   27.2742  -15.6036  -16.9398 C   0  0  0  0  0  0  0  0  0  0  0  0
   23.8545  -12.5334  -17.8871 C   0  0  0  0  0  0  0  0  0  0  0  0
   24.3107  -11.8666  -18.8791 O   0  0  0  0  0  0  0  0  0  0  0  0
   20.8304  -12.1630  -19.4267 C   0  0  0  0  0  0  0  0  0  0  0  0
   20.6422  -11.3896  -18.1212 C   0  0  1  0  0  0  0  0  0  0  0  0
   19.8789  -12.0519  -17.2210 O   0  0  0  0  0  0  0  0  0  0  0  0
   21.9679  -10.8513  -17.6313 C   0  0  2  0  0  0  0  0  0  0  0  0
   22.7210  -12.0611  -17.1884 N   0  0  0  0  0  0  0  0  0  0  0  0
   21.8903   -9.8840  -16.5456 C   0  0  0  0  0  0  0  0  0  0  0  0
   21.5817  -10.3793  -15.4036 O   0  0  0  0  0  0  0  0  0  0  0  0
   22.1066   -8.4883  -16.5660 N   0  0  0  0  0  0  0  0  0  0  0  0
   22.4052   -7.8012  -17.8380 C   0  0  0  0  0  0  0  0  0  0  0  0
   21.8388   -6.4219  -17.6356 C   0  0  0  0  0  0  0  0  0  0  0  0
   22.3478   -6.1329  -16.2364 C   0  0  0  0  0  0  0  0  0  0  0  0
   22.0801   -7.4809  -15.5592 C   0  0  1  0  0  0  0  0  0  0  0  0
   20.7561   -7.3250  -14.9096 C   0  0  0  0  0  0  0  0  0  0  0  0
   20.6493   -6.6958  -13.6913 O   0  0  0  0  0  0  0  0  0  0  0  0
   19.7432   -7.7673  -15.4744 O   0  0  0  0  0  0  0  0  0  0  0  0
  2  1  1  6
  2 10  1  0
  3  2  1  0
  3  4  1  0
  4  5  2  0
  4  9  1  0
  5  6  1  0
  6  7  2  0
  8  7  1  0
  9  8  2  0
 10 11  2  0
 13 12  1  6
 13 15  1  0
 14 13  1  0
 15 17  1  0
 15 16  1  1
 16 10  1  0
 17 18  2  0
 19 17  1  0
 19 20  1  0
 20 21  1  0
 22 21  1  0
 23 19  1  0
 23 22  1  0
 23 24  1  6
 25 24  1  0
 26 24  2  0
M  END
$$$$
