FTP.pdb
     RDKit          3D

 26 27  0  0  1  0  0  0  0  0999 V2000
   23.3557  -18.6365  -15.5391 N   0  0  0  0  0  0  0  0  0  0  0  0
   22.5684  -19.8411  -15.4940 C   0  0  1  0  0  0  0  0  0  0  0  0
   23.4637  -21.0136  -15.7855 C   0  0  0  0  0  0  0  0  0  0  0  0
   23.8395  -20.9604  -17.2198 C   0  0  0  0  0  0  0  0  0  0  0  0
   22.9567  -21.3843  -18.2106 C   0  0  0  0  0  0  0  0  0  0  0  0
   23.2906  -21.3458  -19.5470 C   0  0  0  0  0  0  0  0  0  0  0  0
   24.5193  -20.8805  -19.9219 C   0  0  0  0  0  0  0  0  0  0  0  0
   25.4122  -20.4561  -18.9809 C   0  0  0  0  0  0  0  0  0  0  0  0
   25.0751  -20.4963  -17.6501 C   0  0  0  0  0  0  0  0  0  0  0  0
   21.8395  -19.9955  -14.2145 C   0  0  0  0  0  0  0  0  0  0  0  0
   22.4970  -19.6573  -13.1704 O   0  0  0  0  0  0  0  0  0  0  0  0
   20.0257  -18.0587  -12.4021 C   0  0  0  0  0  0  0  0  0  0  0  0
   19.0652  -19.2133  -12.6886 C   0  0  1  0  0  0  0  0  0  0  0  0
   18.2021  -18.9441  -13.6957 O   0  0  0  0  0  0  0  0  0  0  0  0
   19.8206  -20.5213  -12.7648 C   0  0  2  0  0  0  0  0  0  0  0  0
   20.5166  -20.4738  -14.0839 N   0  0  0  0  0  0  0  0  0  0  0  0
   19.0049  -21.7240  -12.6715 C   0  0  0  0  0  0  0  0  0  0  0  0
   18.3229  -21.9955  -13.7230 O   0  0  0  0  0  0  0  0  0  0  0  0
   18.8582  -22.6314  -11.5990 N   0  0  0  0  0  0  0  0  0  0  0  0
   19.6286  -22.4414  -10.3541 C   0  0  0  0  0  0  0  0  0  0  0  0
   18.7351  -23.0251   -9.2934 C   0  0  0  0  0  0  0  0  0  0  0  0
   18.3124  -24.3075   -9.9842 C   0  0  0  0  0  0  0  0  0  0  0  0
   18.0483  -23.7864  -11.4006 C   0  0  1  0  0  0  0  0  0  0  0  0
   16.5928  -23.5048  -11.4380 C   0  0  0  0  0  0  0  0  0  0  0  0
   15.6901  -24.5308  -11.5933 O   0  0  0  0  0  0  0  0  0  0  0  0
   16.1945  -22.3344  -11.3281 O   0  0  0  0  0  0  0  0  0  0  0  0
  2  1  1  1
  2 10  1  0
  3  2  1  0
  3  4  1  0
  4  5  2  0
  4  9  1  0
  5  6  1  0
  6  7  2  0
  8  7  1  0
  9  8  2  0
 10 11  2  0
 13 12  1  6
 13 15  1  0
 14 13  1  0
 15 17  1  0
 15 16  1  6
 16 10  1  0
 17 18  2  0
 19 17  1  0
 19 20  1  0
 20 21  1  0
 22 21  1  0
 23 19  1  0
 23 22  1  0
 23 24  1  1
 25 24  1  0
 26 24  2  0
M  END
$$$$
