FTP.pdb
     RDKit          3D

 26 27  0  0  1  0  0  0  0  0999 V2000
   26.7234  -22.2332  -11.0866 N   0  0  0  0  0  0  0  0  0  0  0  0
   25.9913  -21.0170  -11.3270 C   0  0  1  0  0  0  0  0  0  0  0  0
   25.8826  -20.2561  -10.0345 C   0  0  0  0  0  0  0  0  0  0  0  0
   24.7577  -20.8299   -9.2557 C   0  0  0  0  0  0  0  0  0  0  0  0
   24.9240  -21.2098   -7.9257 C   0  0  0  0  0  0  0  0  0  0  0  0
   23.8915  -21.7481   -7.1887 C   0  0  0  0  0  0  0  0  0  0  0  0
   22.6663  -21.9184   -7.7688 C   0  0  0  0  0  0  0  0  0  0  0  0
   22.4635  -21.5586   -9.0696 C   0  0  0  0  0  0  0  0  0  0  0  0
   23.4954  -21.0224   -9.8004 C   0  0  0  0  0  0  0  0  0  0  0  0
   26.5852  -20.2015  -12.4107 C   0  0  0  0  0  0  0  0  0  0  0  0
   27.7907  -19.8238  -12.2082 O   0  0  0  0  0  0  0  0  0  0  0  0
   28.1129  -21.0230  -15.0670 C   0  0  0  0  0  0  0  0  0  0  0  0
   27.0501  -20.1101  -15.6795 C   0  0  1  0  0  0  0  0  0  0  0  0
   26.0698  -20.7937  -16.3144 O   0  0  0  0  0  0  0  0  0  0  0  0
   26.6171  -19.0606  -14.6803 C   0  0  2  0  0  0  0  0  0  0  0  0
   25.9272  -19.8315  -13.6049 N   0  0  0  0  0  0  0  0  0  0  0  0
   25.7345  -18.0253  -15.1998 C   0  0  0  0  0  0  0  0  0  0  0  0
   24.5272  -18.4027  -15.4114 O   0  0  0  0  0  0  0  0  0  0  0  0
   26.0117  -16.6733  -15.5002 N   0  0  0  0  0  0  0  0  0  0  0  0
   27.3572  -16.1181  -15.2539 C   0  0  0  0  0  0  0  0  0  0  0  0
   27.4962  -15.0500  -16.3046 C   0  0  0  0  0  0  0  0  0  0  0  0
   26.1379  -14.3861  -16.1839 C   0  0  0  0  0  0  0  0  0  0  0  0
   25.2359  -15.6185  -16.0612 C   0  0  1  0  0  0  0  0  0  0  0  0
   24.7733  -15.8915  -17.4435 C   0  0  0  0  0  0  0  0  0  0  0  0
   23.7038  -15.2036  -17.9673 O   0  0  0  0  0  0  0  0  0  0  0  0
   25.3596  -16.7470  -18.1255 O   0  0  0  0  0  0  0  0  0  0  0  0
  2  1  1  1
  2 10  1  0
  3  2  1  0
  3  4  1  0
  4  5  2  0
  4  9  1  0
  5  6  1  0
  6  7  2  0
  8  7  1  0
  9  8  2  0
 10 11  2  0
 13 12  1  1
 13 15  1  0
 14 13  1  0
 15 17  1  0
 15 16  1  1
 16 10  1  0
 17 18  2  0
 19 17  1  0
 19 20  1  0
 20 21  1  0
 22 21  1  0
 23 19  1  0
 23 22  1  0
 23 24  1  6
 25 24  1  0
 26 24  2  0
M  END
$$$$
