FTP.pdb
     RDKit          3D

 26 27  0  0  1  0  0  0  0  0999 V2000
   26.2633  -21.6228   -9.8727 N   0  0  0  0  0  0  0  0  0  0  0  0
   25.4162  -20.9672  -10.8348 C   0  0  1  0  0  0  0  0  0  0  0  0
   24.4314  -20.1010  -10.0991 C   0  0  0  0  0  0  0  0  0  0  0  0
   23.3329  -20.9685   -9.6071 C   0  0  0  0  0  0  0  0  0  0  0  0
   22.3850  -21.4942  -10.4821 C   0  0  0  0  0  0  0  0  0  0  0  0
   21.3559  -22.2981  -10.0420 C   0  0  0  0  0  0  0  0  0  0  0  0
   21.2531  -22.5942   -8.7122 C   0  0  0  0  0  0  0  0  0  0  0  0
   22.1623  -22.0983   -7.8233 C   0  0  0  0  0  0  0  0  0  0  0  0
   23.1863  -21.2975   -8.2664 C   0  0  0  0  0  0  0  0  0  0  0  0
   26.1867  -20.2079  -11.8456 C   0  0  0  0  0  0  0  0  0  0  0  0
   27.1518  -19.5085  -11.3805 O   0  0  0  0  0  0  0  0  0  0  0  0
   28.6795  -21.1020  -13.7012 C   0  0  0  0  0  0  0  0  0  0  0  0
   27.7030  -20.6025  -14.7664 C   0  0  1  0  0  0  0  0  0  0  0  0
   27.0843  -21.6081  -15.4281 O   0  0  0  0  0  0  0  0  0  0  0  0
   26.8227  -19.5090  -14.2038 C   0  0  2  0  0  0  0  0  0  0  0  0
   25.9302  -20.2100  -13.2349 N   0  0  0  0  0  0  0  0  0  0  0  0
   26.0269  -18.7786  -15.1803 C   0  0  0  0  0  0  0  0  0  0  0  0
   25.0878  -19.4593  -15.7277 O   0  0  0  0  0  0  0  0  0  0  0  0
   26.1358  -17.4370  -15.6083 N   0  0  0  0  0  0  0  0  0  0  0  0
   27.1506  -16.5465  -15.0110 C   0  0  0  0  0  0  0  0  0  0  0  0
   27.4776  -15.5876  -16.1236 C   0  0  0  0  0  0  0  0  0  0  0  0
   26.0781  -15.2690  -16.6140 C   0  0  0  0  0  0  0  0  0  0  0  0
   25.4506  -16.6665  -16.5913 C   0  0  1  0  0  0  0  0  0  0  0  0
   25.6170  -17.1817  -17.9719 C   0  0  0  0  0  0  0  0  0  0  0  0
   26.6283  -18.0659  -18.2668 O   0  0  0  0  0  0  0  0  0  0  0  0
   24.8356  -16.8083  -18.8611 O   0  0  0  0  0  0  0  0  0  0  0  0
  2  1  1  1
  2 10  1  0
  3  2  1  0
  3  4  1  0
  4  5  2  0
  4  9  1  0
  5  6  1  0
  6  7  2  0
  8  7  1  0
  9  8  2  0
 10 11  2  0
 13 12  1  1
 13 15  1  0
 14 13  1  0
 15 17  1  0
 15 16  1  1
 16 10  1  0
 17 18  2  0
 19 17  1  0
 19 20  1  0
 20 21  1  0
 22 21  1  0
 23 19  1  0
 23 22  1  0
 23 24  1  6
 25 24  1  0
 26 24  2  0
M  END
$$$$
