FTP.pdb
     RDKit          3D

 26 27  0  0  1  0  0  0  0  0999 V2000
   25.3772  -21.1139   -7.2414 N   0  0  0  0  0  0  0  0  0  0  0  0
   26.3174  -20.5157   -8.1532 C   0  0  1  0  0  0  0  0  0  0  0  0
   27.7111  -20.8241   -7.6800 C   0  0  0  0  0  0  0  0  0  0  0  0
   27.9181  -20.1391   -6.3803 C   0  0  0  0  0  0  0  0  0  0  0  0
   27.9061  -18.7490   -6.2902 C   0  0  0  0  0  0  0  0  0  0  0  0
   28.1006  -18.0962   -5.0923 C   0  0  0  0  0  0  0  0  0  0  0  0
   28.3122  -18.8230   -3.9550 C   0  0  0  0  0  0  0  0  0  0  0  0
   28.3311  -20.1870   -4.0021 C   0  0  0  0  0  0  0  0  0  0  0  0
   28.1368  -20.8333   -5.1982 C   0  0  0  0  0  0  0  0  0  0  0  0
   26.0944  -20.9357   -9.5553 C   0  0  0  0  0  0  0  0  0  0  0  0
   25.7141  -22.1480   -9.7055 O   0  0  0  0  0  0  0  0  0  0  0  0
   24.0650  -21.9543  -11.1168 C   0  0  0  0  0  0  0  0  0  0  0  0
   24.4211  -20.7770  -12.0251 C   0  0  1  0  0  0  0  0  0  0  0  0
   23.6609  -19.6819  -11.7918 O   0  0  0  0  0  0  0  0  0  0  0  0
   25.9195  -20.5754  -12.0640 C   0  0  2  0  0  0  0  0  0  0  0  0
   26.2693  -20.1116  -10.6895 N   0  0  0  0  0  0  0  0  0  0  0  0
   26.3990  -19.6197  -13.0526 C   0  0  0  0  0  0  0  0  0  0  0  0
   25.9683  -18.4218  -12.8972 O   0  0  0  0  0  0  0  0  0  0  0  0
   27.2663  -19.8178  -14.1496 N   0  0  0  0  0  0  0  0  0  0  0  0
   27.7808  -21.1672  -14.4560 C   0  0  0  0  0  0  0  0  0  0  0  0
   27.9726  -21.1415  -15.9482 C   0  0  0  0  0  0  0  0  0  0  0  0
   28.6453  -19.7909  -16.1023 C   0  0  0  0  0  0  0  0  0  0  0  0
   27.7980  -18.9473  -15.1441 C   0  0  1  0  0  0  0  0  0  0  0  0
   26.7620  -18.3218  -16.0013 C   0  0  0  0  0  0  0  0  0  0  0  0
   27.0559  -17.1995  -16.7401 O   0  0  0  0  0  0  0  0  0  0  0  0
   25.6258  -18.8192  -16.0471 O   0  0  0  0  0  0  0  0  0  0  0  0
  2  1  1  1
  2 10  1  0
  3  2  1  0
  3  4  1  0
  4  5  2  0
  4  9  1  0
  5  6  1  0
  6  7  2  0
  8  7  1  0
  9  8  2  0
 10 11  2  0
 13 12  1  1
 13 15  1  0
 14 13  1  0
 15 17  1  0
 15 16  1  1
 16 10  1  0
 17 18  2  0
 19 17  1  0
 19 20  1  0
 20 21  1  0
 22 21  1  0
 23 19  1  0
 23 22  1  0
 23 24  1  6
 25 24  1  0
 26 24  2  0
M  END
$$$$
