FTP.pdb
     RDKit          3D

 26 27  0  0  1  0  0  0  0  0999 V2000
   19.0231  -18.7380  -15.0338 N   0  0  0  0  0  0  0  0  0  0  0  0
   20.2351  -18.6675  -15.8080 C   0  0  1  0  0  0  0  0  0  0  0  0
   20.2096  -17.4088  -16.6303 C   0  0  0  0  0  0  0  0  0  0  0  0
   19.2376  -17.6001  -17.7349 C   0  0  0  0  0  0  0  0  0  0  0  0
   19.6003  -18.2636  -18.9048 C   0  0  0  0  0  0  0  0  0  0  0  0
   18.7119  -18.4466  -19.9422 C   0  0  0  0  0  0  0  0  0  0  0  0
   17.4371  -17.9679  -19.8307 C   0  0  0  0  0  0  0  0  0  0  0  0
   17.0435  -17.3122  -18.7002 C   0  0  0  0  0  0  0  0  0  0  0  0
   17.9323  -17.1321  -17.6688 C   0  0  0  0  0  0  0  0  0  0  0  0
   21.4512  -18.7659  -14.9692 C   0  0  0  0  0  0  0  0  0  0  0  0
   21.3499  -18.2505  -13.8027 O   0  0  0  0  0  0  0  0  0  0  0  0
   22.2326  -19.6582  -12.4324 C   0  0  0  0  0  0  0  0  0  0  0  0
   23.1530  -20.4896  -13.3266 C   0  0  1  0  0  0  0  0  0  0  0  0
   22.5875  -21.6508  -13.7312 O   0  0  0  0  0  0  0  0  0  0  0  0
   23.7742  -19.6205  -14.3971 C   0  0  2  0  0  0  0  0  0  0  0  0
   22.6656  -19.3702  -15.3642 N   0  0  0  0  0  0  0  0  0  0  0  0
   24.9203  -20.1963  -15.0866 C   0  0  0  0  0  0  0  0  0  0  0  0
   24.6707  -21.2686  -15.7443 O   0  0  0  0  0  0  0  0  0  0  0  0
   26.2585  -19.7472  -15.1388 N   0  0  0  0  0  0  0  0  0  0  0  0
   26.6958  -18.6154  -14.2978 C   0  0  0  0  0  0  0  0  0  0  0  0
   28.1484  -18.9094  -14.0379 C   0  0  0  0  0  0  0  0  0  0  0  0
   28.5892  -19.3051  -15.4342 C   0  0  0  0  0  0  0  0  0  0  0  0
   27.4070  -20.1814  -15.8610 C   0  0  1  0  0  0  0  0  0  0  0  0
   27.8234  -21.5674  -15.5374 C   0  0  0  0  0  0  0  0  0  0  0  0
   28.6985  -22.2398  -16.3581 O   0  0  0  0  0  0  0  0  0  0  0  0
   27.3756  -22.1171  -14.5187 O   0  0  0  0  0  0  0  0  0  0  0  0
  2  1  1  1
  2 10  1  0
  3  2  1  0
  3  4  1  0
  4  5  2  0
  4  9  1  0
  5  6  1  0
  6  7  2  0
  8  7  1  0
  9  8  2  0
 10 11  2  0
 13 12  1  6
 13 15  1  0
 14 13  1  0
 15 17  1  0
 15 16  1  6
 16 10  1  0
 17 18  2  0
 19 17  1  0
 19 20  1  0
 20 21  1  0
 22 21  1  0
 23 19  1  0
 23 22  1  0
 23 24  1  1
 25 24  1  0
 26 24  2  0
M  END
$$$$
