FTP.pdb
     RDKit          3D

 26 27  0  0  1  0  0  0  0  0999 V2000
   12.0096  -18.8043   -9.8026 N   0  0  0  0  0  0  0  0  0  0  0  0
   12.7899  -19.5653   -8.8618 C   0  0  1  0  0  0  0  0  0  0  0  0
   13.1278  -18.6840   -7.6911 C   0  0  0  0  0  0  0  0  0  0  0  0
   13.9927  -17.5817   -8.1793 C   0  0  0  0  0  0  0  0  0  0  0  0
   13.6161  -16.2495   -8.0236 C   0  0  0  0  0  0  0  0  0  0  0  0
   14.4049  -15.2134   -8.4745 C   0  0  0  0  0  0  0  0  0  0  0  0
   15.5915  -15.4892   -9.0929 C   0  0  0  0  0  0  0  0  0  0  0  0
   15.9955  -16.7816   -9.2644 C   0  0  0  0  0  0  0  0  0  0  0  0
   15.2061  -17.8110   -8.8134 C   0  0  0  0  0  0  0  0  0  0  0  0
   12.1166  -20.8169   -8.4467 C   0  0  0  0  0  0  0  0  0  0  0  0
   10.8661  -20.7053   -8.2005 O   0  0  0  0  0  0  0  0  0  0  0  0
   12.1104  -23.9626  -10.4313 C   0  0  0  0  0  0  0  0  0  0  0  0
   12.5126  -24.3346   -9.0038 C   0  0  1  0  0  0  0  0  0  0  0  0
   13.8212  -24.6613   -8.8925 O   0  0  0  0  0  0  0  0  0  0  0  0
   11.9744  -23.3176   -8.0222 C   0  0  2  0  0  0  0  0  0  0  0  0
   12.7468  -22.0742   -8.3122 N   0  0  0  0  0  0  0  0  0  0  0  0
   12.1048  -23.6721   -6.6159 C   0  0  0  0  0  0  0  0  0  0  0  0
   13.3065  -23.6665   -6.1679 O   0  0  0  0  0  0  0  0  0  0  0  0
   11.1066  -24.0165   -5.6778 N   0  0  0  0  0  0  0  0  0  0  0  0
    9.6842  -24.0176   -6.0730 C   0  0  0  0  0  0  0  0  0  0  0  0
    9.0742  -25.0750   -5.1933 C   0  0  0  0  0  0  0  0  0  0  0  0
    9.7099  -24.7094   -3.8656 C   0  0  0  0  0  0  0  0  0  0  0  0
   11.1473  -24.4265   -4.3142 C   0  0  1  0  0  0  0  0  0  0  0  0
   11.8721  -25.7023   -4.0988 C   0  0  0  0  0  0  0  0  0  0  0  0
   12.2434  -26.0854   -2.8312 O   0  0  0  0  0  0  0  0  0  0  0  0
   12.1415  -26.4230   -5.0727 O   0  0  0  0  0  0  0  0  0  0  0  0
  2  1  1  6
  2 10  1  0
  3  2  1  0
  3  4  1  0
  4  5  2  0
  4  9  1  0
  5  6  1  0
  6  7  2  0
  8  7  1  0
  9  8  2  0
 10 11  2  0
 13 12  1  6
 13 15  1  0
 14 13  1  0
 15 17  1  0
 15 16  1  1
 16 10  1  0
 17 18  2  0
 19 17  1  0
 19 20  1  0
 20 21  1  0
 22 21  1  0
 23 19  1  0
 23 22  1  0
 23 24  1  6
 25 24  1  0
 26 24  2  0
M  END
$$$$
