FTP.pdb
     RDKit          3D

 26 27  0  0  1  0  0  0  0  0999 V2000
   28.1886  -21.3323   -9.2244 N   0  0  0  0  0  0  0  0  0  0  0  0
   26.9564  -20.5877   -9.2446 C   0  0  1  0  0  0  0  0  0  0  0  0
   27.2059  -19.2263   -8.6565 C   0  0  0  0  0  0  0  0  0  0  0  0
   27.6016  -19.4032   -7.2376 C   0  0  0  0  0  0  0  0  0  0  0  0
   26.7561  -20.0357   -6.3288 C   0  0  0  0  0  0  0  0  0  0  0  0
   27.1056  -20.2049   -5.0067 C   0  0  0  0  0  0  0  0  0  0  0  0
   28.3129  -19.7432   -4.5640 C   0  0  0  0  0  0  0  0  0  0  0  0
   29.1692  -19.1181   -5.4236 C   0  0  0  0  0  0  0  0  0  0  0  0
   28.8166  -18.9517   -6.7406 C   0  0  0  0  0  0  0  0  0  0  0  0
   26.3594  -20.5143  -10.5975 C   0  0  0  0  0  0  0  0  0  0  0  0
   27.1252  -20.0366  -11.5042 O   0  0  0  0  0  0  0  0  0  0  0  0
   25.7071  -23.1253  -12.7064 C   0  0  0  0  0  0  0  0  0  0  0  0
   24.3615  -22.4006  -12.6608 C   0  0  1  0  0  0  0  0  0  0  0  0
   23.4297  -23.0634  -11.9368 O   0  0  0  0  0  0  0  0  0  0  0  0
   24.5620  -20.9357  -12.3426 C   0  0  2  0  0  0  0  0  0  0  0  0
   25.0492  -20.9236  -10.9322 N   0  0  0  0  0  0  0  0  0  0  0  0
   23.3781  -20.0976  -12.4711 C   0  0  0  0  0  0  0  0  0  0  0  0
   22.5911  -20.1177  -11.4587 O   0  0  0  0  0  0  0  0  0  0  0  0
   22.9738  -19.2684  -13.5407 N   0  0  0  0  0  0  0  0  0  0  0  0
   23.8495  -19.0914  -14.7159 C   0  0  0  0  0  0  0  0  0  0  0  0
   22.8828  -18.8480  -15.8430 C   0  0  0  0  0  0  0  0  0  0  0  0
   21.9466  -17.8588  -15.1756 C   0  0  0  0  0  0  0  0  0  0  0  0
   21.7981  -18.5051  -13.7944 C   0  0  1  0  0  0  0  0  0  0  0  0
   20.5660  -19.3251  -13.8877 C   0  0  0  0  0  0  0  0  0  0  0  0
   19.3471  -18.7903  -13.5416 O   0  0  0  0  0  0  0  0  0  0  0  0
   20.6430  -20.4999  -14.2810 O   0  0  0  0  0  0  0  0  0  0  0  0
  2  1  1  6
  2 10  1  0
  3  2  1  0
  3  4  1  0
  4  5  2  0
  4  9  1  0
  5  6  1  0
  6  7  2  0
  8  7  1  0
  9  8  2  0
 10 11  2  0
 13 12  1  1
 13 15  1  0
 14 13  1  0
 15 17  1  0
 15 16  1  1
 16 10  1  0
 17 18  2  0
 19 17  1  0
 19 20  1  0
 20 21  1  0
 22 21  1  0
 23 19  1  0
 23 22  1  0
 23 24  1  6
 25 24  1  0
 26 24  2  0
M  END
$$$$
