FTP.pdb
     RDKit          3D

 26 27  0  0  1  0  0  0  0  0999 V2000
   29.3541  -27.4493  -17.0697 N   0  0  0  0  0  0  0  0  0  0  0  0
   28.0083  -26.9438  -17.1482 C   0  0  1  0  0  0  0  0  0  0  0  0
   27.1067  -27.8468  -16.3525 C   0  0  0  0  0  0  0  0  0  0  0  0
   26.3389  -28.6861  -17.3050 C   0  0  0  0  0  0  0  0  0  0  0  0
   25.2389  -28.1740  -17.9896 C   0  0  0  0  0  0  0  0  0  0  0  0
   24.5120  -28.9404  -18.8746 C   0  0  0  0  0  0  0  0  0  0  0  0
   24.8714  -30.2400  -19.0943 C   0  0  0  0  0  0  0  0  0  0  0  0
   25.9431  -30.7784  -18.4428 C   0  0  0  0  0  0  0  0  0  0  0  0
   26.6647  -30.0110  -17.5616 C   0  0  0  0  0  0  0  0  0  0  0  0
   27.9068  -25.5300  -16.7202 C   0  0  0  0  0  0  0  0  0  0  0  0
   28.9305  -25.0744  -16.1028 O   0  0  0  0  0  0  0  0  0  0  0  0
   29.2807  -23.1129  -17.1154 C   0  0  0  0  0  0  0  0  0  0  0  0
   27.8874  -22.6761  -17.5692 C   0  0  1  0  0  0  0  0  0  0  0  0
   27.6864  -22.8494  -18.8964 O   0  0  0  0  0  0  0  0  0  0  0  0
   26.8318  -23.2297  -16.6383 C   0  0  2  0  0  0  0  0  0  0  0  0
   26.7934  -24.6897  -16.9441 N   0  0  0  0  0  0  0  0  0  0  0  0
   25.5027  -22.6523  -16.7820 C   0  0  0  0  0  0  0  0  0  0  0  0
   24.9640  -22.8199  -17.9337 O   0  0  0  0  0  0  0  0  0  0  0  0
   24.7236  -21.9412  -15.8426 N   0  0  0  0  0  0  0  0  0  0  0  0
   25.2743  -21.6212  -14.5108 C   0  0  0  0  0  0  0  0  0  0  0  0
   24.5830  -20.3365  -14.1423 C   0  0  0  0  0  0  0  0  0  0  0  0
   23.1616  -20.6794  -14.5454 C   0  0  0  0  0  0  0  0  0  0  0  0
   23.4139  -21.3824  -15.8831 C   0  0  1  0  0  0  0  0  0  0  0  0
   23.2517  -20.3225  -16.9075 C   0  0  0  0  0  0  0  0  0  0  0  0
   21.9960  -19.9163  -17.2947 O   0  0  0  0  0  0  0  0  0  0  0  0
   24.2592  -19.8036  -17.4138 O   0  0  0  0  0  0  0  0  0  0  0  0
  2  1  1  1
  2 10  1  0
  3  2  1  0
  3  4  1  0
  4  5  2  0
  4  9  1  0
  5  6  1  0
  6  7  2  0
  8  7  1  0
  9  8  2  0
 10 11  2  0
 13 12  1  1
 13 15  1  0
 14 13  1  0
 15 17  1  0
 15 16  1  6
 16 10  1  0
 17 18  2  0
 19 17  1  0
 19 20  1  0
 20 21  1  0
 22 21  1  0
 23 19  1  0
 23 22  1  0
 23 24  1  6
 25 24  1  0
 26 24  2  0
M  END
$$$$
