FTP.pdb
     RDKit          3D

 26 27  0  0  1  0  0  0  0  0999 V2000
   28.6367  -21.1440   -9.1871 N   0  0  0  0  0  0  0  0  0  0  0  0
   27.2618  -20.7169   -9.1882 C   0  0  1  0  0  0  0  0  0  0  0  0
   27.1628  -19.4078   -8.4549 C   0  0  0  0  0  0  0  0  0  0  0  0
   27.5083  -19.6497   -7.0324 C   0  0  0  0  0  0  0  0  0  0  0  0
   28.7204  -19.2127   -6.5026 C   0  0  0  0  0  0  0  0  0  0  0  0
   29.0594  -19.4323   -5.1851 C   0  0  0  0  0  0  0  0  0  0  0  0
   28.1898  -20.0961   -4.3667 C   0  0  0  0  0  0  0  0  0  0  0  0
   26.9923  -20.5399   -4.8484 C   0  0  0  0  0  0  0  0  0  0  0  0
   26.6586  -20.3189   -6.1622 C   0  0  0  0  0  0  0  0  0  0  0  0
   26.6919  -20.6409  -10.5526 C   0  0  0  0  0  0  0  0  0  0  0  0
   27.3326  -19.8919  -11.3681 O   0  0  0  0  0  0  0  0  0  0  0  0
   24.7076  -22.7005  -14.3767 C   0  0  0  0  0  0  0  0  0  0  0  0
   25.3757  -22.5586  -13.0087 C   0  0  1  0  0  0  0  0  0  0  0  0
   26.6801  -22.9191  -13.0186 O   0  0  0  0  0  0  0  0  0  0  0  0
   25.0399  -21.2181  -12.3943 C   0  0  2  0  0  0  0  0  0  0  0  0
   25.5313  -21.3183  -10.9888 N   0  0  0  0  0  0  0  0  0  0  0  0
   23.6292  -20.8569  -12.4074 C   0  0  0  0  0  0  0  0  0  0  0  0
   22.8942  -21.5257  -11.5967 O   0  0  0  0  0  0  0  0  0  0  0  0
   22.9567  -19.8814  -13.1762 N   0  0  0  0  0  0  0  0  0  0  0  0
   23.7052  -19.0455  -14.1355 C   0  0  0  0  0  0  0  0  0  0  0  0
   22.6924  -18.7447  -15.2069 C   0  0  0  0  0  0  0  0  0  0  0  0
   21.4957  -18.3927  -14.3441 C   0  0  0  0  0  0  0  0  0  0  0  0
   21.5915  -19.4870  -13.2760 C   0  0  1  0  0  0  0  0  0  0  0  0
   20.6947  -20.5667  -13.7548 C   0  0  0  0  0  0  0  0  0  0  0  0
   19.3449  -20.5151  -13.4959 O   0  0  0  0  0  0  0  0  0  0  0  0
   21.1720  -21.5189  -14.3920 O   0  0  0  0  0  0  0  0  0  0  0  0
  2  1  1  6
  2 10  1  0
  3  2  1  0
  3  4  1  0
  4  5  2  0
  4  9  1  0
  5  6  1  0
  6  7  2  0
  8  7  1  0
  9  8  2  0
 10 11  2  0
 13 12  1  6
 13 15  1  0
 14 13  1  0
 15 17  1  0
 15 16  1  1
 16 10  1  0
 17 18  2  0
 19 17  1  0
 19 20  1  0
 20 21  1  0
 22 21  1  0
 23 19  1  0
 23 22  1  0
 23 24  1  6
 25 24  1  0
 26 24  2  0
M  END
$$$$
