FTP.pdb
     RDKit          3D

 26 27  0  0  1  0  0  0  0  0999 V2000
   23.8217  -19.9974  -13.3278 N   0  0  0  0  0  0  0  0  0  0  0  0
   23.2628  -21.3231  -13.2730 C   0  0  1  0  0  0  0  0  0  0  0  0
   24.2399  -22.2301  -12.5773 C   0  0  0  0  0  0  0  0  0  0  0  0
   24.5607  -21.6348  -11.2567 C   0  0  0  0  0  0  0  0  0  0  0  0
   23.7595  -21.8799  -10.1438 C   0  0  0  0  0  0  0  0  0  0  0  0
   24.0401  -21.3321   -8.9109 C   0  0  0  0  0  0  0  0  0  0  0  0
   25.1324  -20.5245   -8.7647 C   0  0  0  0  0  0  0  0  0  0  0  0
   25.9420  -20.2603   -9.8313 C   0  0  0  0  0  0  0  0  0  0  0  0
   25.6585  -20.8085  -11.0582 C   0  0  0  0  0  0  0  0  0  0  0  0
   21.9241  -21.3493  -12.6410 C   0  0  0  0  0  0  0  0  0  0  0  0
   21.6802  -20.3784  -11.8444 O   0  0  0  0  0  0  0  0  0  0  0  0
   17.1961  -22.3117  -12.6925 C   0  0  0  0  0  0  0  0  0  0  0  0
   18.6096  -22.0854  -13.2298 C   0  0  1  0  0  0  0  0  0  0  0  0
   18.7268  -20.9396  -13.9404 O   0  0  0  0  0  0  0  0  0  0  0  0
   19.6320  -22.3243  -12.1413 C   0  0  2  0  0  0  0  0  0  0  0  0
   20.9415  -22.3413  -12.8567 N   0  0  0  0  0  0  0  0  0  0  0  0
   19.4618  -23.5530  -11.3785 C   0  0  0  0  0  0  0  0  0  0  0  0
   19.4719  -24.6276  -12.0783 O   0  0  0  0  0  0  0  0  0  0  0  0
   19.2908  -23.7331   -9.9880 N   0  0  0  0  0  0  0  0  0  0  0  0
   19.2996  -22.5682   -9.0812 C   0  0  0  0  0  0  0  0  0  0  0  0
   18.3976  -22.9918   -7.9536 C   0  0  0  0  0  0  0  0  0  0  0  0
   18.9096  -24.4010   -7.7245 C   0  0  0  0  0  0  0  0  0  0  0  0
   19.0660  -24.8788   -9.1718 C   0  0  1  0  0  0  0  0  0  0  0  0
   17.7998  -25.5874   -9.4783 C   0  0  0  0  0  0  0  0  0  0  0  0
   16.7927  -24.9469  -10.1618 O   0  0  0  0  0  0  0  0  0  0  0  0
   17.6554  -26.7648   -9.1130 O   0  0  0  0  0  0  0  0  0  0  0  0
  2  1  1  1
  2 10  1  0
  3  2  1  0
  3  4  1  0
  4  5  2  0
  4  9  1  0
  5  6  1  0
  6  7  2  0
  8  7  1  0
  9  8  2  0
 10 11  2  0
 13 12  1  1
 13 15  1  0
 14 13  1  0
 15 17  1  0
 15 16  1  6
 16 10  1  0
 17 18  2  0
 19 17  1  0
 19 20  1  0
 20 21  1  0
 22 21  1  0
 23 19  1  0
 23 22  1  0
 23 24  1  6
 25 24  1  0
 26 24  2  0
M  END
$$$$
