LNT.pdb
     RDKit          3D

 24 23  0  0  1  0  0  0  0  0999 V2000
   20.0290  -14.8046  -17.5557 C   0  0  0  0  0  0  0  0  0  0  0  0
   19.4545  -14.5711  -16.1586 C   0  0  2  0  0  0  0  0  0  0  0  0
   18.9290  -15.8862  -15.6704 C   0  0  0  0  0  0  0  0  0  0  0  0
   18.4315  -13.4863  -16.2691 C   0  0  0  0  0  0  0  0  0  0  0  0
   18.9760  -12.1750  -16.7579 C   0  0  2  0  0  0  0  0  0  0  0  0
   20.1155  -11.8180  -15.9658 N   0  0  0  0  0  0  0  0  0  0  0  0
   17.8782  -11.1779  -16.6568 C   0  0  0  0  0  0  0  0  0  0  0  0
   16.8043  -11.2928  -17.2627 O   0  0  0  0  0  0  0  0  0  0  0  0
   14.7863   -7.3687  -15.2232 N   0  0  0  0  0  0  0  0  0  0  0  0
   15.1668   -8.3220  -14.2500 C   0  0  0  0  0  0  0  0  0  0  0  0
   14.4477   -8.3965  -13.2141 O   0  0  0  0  0  0  0  0  0  0  0  0
   16.3333   -9.1873  -14.4191 C   0  0  0  0  0  0  0  0  0  0  0  0
   17.0816   -8.9935  -15.6985 C   0  0  2  0  0  0  0  0  0  0  0  0
   18.0754  -10.0411  -15.8246 N   0  0  0  0  0  0  0  0  0  0  0  0
   17.7478   -7.6844  -15.7934 C   0  0  0  0  0  0  0  0  0  0  0  0
   18.8170   -7.4578  -15.1725 O   0  0  0  0  0  0  0  0  0  0  0  0
   18.1446   -3.4323  -18.3372 C   0  0  0  0  0  0  0  0  0  0  0  0
   17.3671   -4.6570  -17.9841 C   0  0  1  0  0  0  0  0  0  0  0  0
   17.3368   -5.4845  -19.1011 O   0  0  0  0  0  0  0  0  0  0  0  0
   17.9374   -5.3746  -16.7794 C   0  0  2  0  0  0  0  0  0  0  0  0
   17.2267   -6.6202  -16.5807 N   0  0  0  0  0  0  0  0  0  0  0  0
   17.8803   -4.5578  -15.5600 C   0  0  0  0  0  0  0  0  0  0  0  0
   16.8097   -4.5083  -14.9062 O   0  0  0  0  0  0  0  0  0  0  0  0
   18.9548   -3.8276  -15.0812 O   0  0  0  0  0  0  0  0  0  0  0  0
  2  1  1  6
  3  2  1  0
  4  2  1  0
  4  5  1  0
  5  7  1  0
  5  6  1  1
  7  8  2  0
  9 10  1  0
 10 12  1  0
 11 10  2  0
 13 12  1  1
 14 13  1  0
 14  7  1  0
 15 13  1  0
 16 15  2  0
 18 17  1  6
 19 18  1  0
 20 21  1  1
 20 18  1  0
 21 15  1  0
 22 24  1  0
 22 20  1  0
 23 22  2  0
M  END
$$$$
