LNT.pdb
     RDKit          3D

 24 23  0  0  1  0  0  0  0  0999 V2000
   18.1967  -17.0610  -16.4758 C   0  0  0  0  0  0  0  0  0  0  0  0
   19.4841  -16.7455  -17.2370 C   0  0  2  0  0  0  0  0  0  0  0  0
   20.3011  -18.0009  -17.2648 C   0  0  0  0  0  0  0  0  0  0  0  0
   20.1361  -15.5853  -16.5556 C   0  0  0  0  0  0  0  0  0  0  0  0
   19.3282  -14.3199  -16.5880 C   0  0  2  0  0  0  0  0  0  0  0  0
   18.8594  -14.0992  -17.9239 N   0  0  0  0  0  0  0  0  0  0  0  0
   20.2088  -13.2235  -16.1061 C   0  0  0  0  0  0  0  0  0  0  0  0
   21.3647  -13.4137  -15.7042 O   0  0  0  0  0  0  0  0  0  0  0  0
   22.3953   -8.6746  -15.2558 N   0  0  0  0  0  0  0  0  0  0  0  0
   22.7157   -9.7040  -16.1714 C   0  0  0  0  0  0  0  0  0  0  0  0
   23.8533   -9.6466  -16.7177 O   0  0  0  0  0  0  0  0  0  0  0  0
   21.7867  -10.7896  -16.4820 C   0  0  0  0  0  0  0  0  0  0  0  0
   20.5006  -10.7555  -15.7210 C   0  0  2  0  0  0  0  0  0  0  0  0
   19.6954  -11.8968  -16.1084 N   0  0  0  0  0  0  0  0  0  0  0  0
   19.7251   -9.5235  -15.9388 C   0  0  0  0  0  0  0  0  0  0  0  0
   19.4439   -9.1348  -17.1006 O   0  0  0  0  0  0  0  0  0  0  0  0
   16.7024   -6.1108  -13.9784 C   0  0  0  0  0  0  0  0  0  0  0  0
   17.5749   -7.3148  -13.8430 C   0  0  1  0  0  0  0  0  0  0  0  0
   16.7590   -8.4105  -13.5841 O   0  0  0  0  0  0  0  0  0  0  0  0
   18.4362   -7.5432  -15.0665 C   0  0  2  0  0  0  0  0  0  0  0  0
   19.2584   -8.7175  -14.8634 N   0  0  0  0  0  0  0  0  0  0  0  0
   19.2787   -6.3830  -15.3851 C   0  0  0  0  0  0  0  0  0  0  0  0
   20.3573   -6.2208  -14.7633 O   0  0  0  0  0  0  0  0  0  0  0  0
   18.9484   -5.4426  -16.3461 O   0  0  0  0  0  0  0  0  0  0  0  0
  2  1  1  1
  3  2  1  0
  4  2  1  0
  4  5  1  0
  5  7  1  0
  5  6  1  6
  7  8  2  0
  9 10  1  0
 10 12  1  0
 11 10  2  0
 13 12  1  6
 14 13  1  0
 14  7  1  0
 15 13  1  0
 16 15  2  0
 18 17  1  6
 19 18  1  0
 20 21  1  1
 20 18  1  0
 21 15  1  0
 22 24  1  0
 22 20  1  0
 23 22  2  0
M  END
$$$$
