LNT.pdb
     RDKit          3D

 24 23  0  0  1  0  0  0  0  0999 V2000
   22.8337  -12.4535  -19.6619 C   0  0  0  0  0  0  0  0  0  0  0  0
   21.7888  -13.3083  -18.9452 C   0  0  2  0  0  0  0  0  0  0  0  0
   21.4657  -14.4607  -19.8463 C   0  0  0  0  0  0  0  0  0  0  0  0
   20.6306  -12.4213  -18.6177 C   0  0  0  0  0  0  0  0  0  0  0  0
   20.9849  -11.2366  -17.7657 C   0  0  2  0  0  0  0  0  0  0  0  0
   21.5991  -11.6982  -16.5562 N   0  0  0  0  0  0  0  0  0  0  0  0
   19.7278  -10.4843  -17.5139 C   0  0  0  0  0  0  0  0  0  0  0  0
   18.9930  -10.0747  -18.4227 O   0  0  0  0  0  0  0  0  0  0  0  0
   16.4896  -11.6740  -16.1991 N   0  0  0  0  0  0  0  0  0  0  0  0
   16.6736  -11.1616  -14.8936 C   0  0  0  0  0  0  0  0  0  0  0  0
   16.0519  -11.7436  -13.9606 O   0  0  0  0  0  0  0  0  0  0  0  0
   17.5381  -10.0146  -14.6198 C   0  0  0  0  0  0  0  0  0  0  0  0
   18.1994   -9.4225  -15.8225 C   0  0  2  0  0  0  0  0  0  0  0  0
   19.3563  -10.2255  -16.1653 N   0  0  0  0  0  0  0  0  0  0  0  0
   18.6232   -8.0263  -15.6285 C   0  0  0  0  0  0  0  0  0  0  0  0
   19.5305   -7.7352  -14.8087 O   0  0  0  0  0  0  0  0  0  0  0  0
   19.3104   -5.5673  -18.6506 C   0  0  0  0  0  0  0  0  0  0  0  0
   18.4240   -4.9341  -17.6296 C   0  0  1  0  0  0  0  0  0  0  0  0
   17.1176   -4.9845  -18.1031 O   0  0  0  0  0  0  0  0  0  0  0  0
   18.5461   -5.5925  -16.2721 C   0  0  2  0  0  0  0  0  0  0  0  0
   18.0386   -6.9464  -16.3468 N   0  0  0  0  0  0  0  0  0  0  0  0
   17.8447   -4.8451  -15.2200 C   0  0  0  0  0  0  0  0  0  0  0  0
   16.8145   -5.3403  -14.7008 O   0  0  0  0  0  0  0  0  0  0  0  0
   18.2592   -3.6069  -14.7596 O   0  0  0  0  0  0  0  0  0  0  0  0
  2  1  1  6
  3  2  1  0
  4  2  1  0
  4  5  1  0
  5  7  1  0
  5  6  1  1
  7  8  2  0
  9 10  1  0
 10 12  1  0
 11 10  2  0
 13 12  1  1
 14 13  1  0
 14  7  1  0
 15 13  1  0
 16 15  2  0
 18 17  1  6
 19 18  1  0
 20 21  1  6
 20 18  1  0
 21 15  1  0
 22 24  1  0
 22 20  1  0
 23 22  2  0
M  END
$$$$
