LNT.pdb
     RDKit          3D

 24 23  0  0  1  0  0  0  0  0999 V2000
   27.0136  -18.2552   -6.3806 C   0  0  0  0  0  0  0  0  0  0  0  0
   26.9558  -19.7344   -5.9998 C   0  0  2  0  0  0  0  0  0  0  0  0
   28.1392  -20.0128   -5.1244 C   0  0  0  0  0  0  0  0  0  0  0  0
   26.9122  -20.5237   -7.2689 C   0  0  0  0  0  0  0  0  0  0  0  0
   25.6886  -20.2780   -8.1040 C   0  0  2  0  0  0  0  0  0  0  0  0
   24.5290  -20.6742   -7.3613 N   0  0  0  0  0  0  0  0  0  0  0  0
   25.8511  -21.0543   -9.3613 C   0  0  0  0  0  0  0  0  0  0  0  0
   26.1762  -22.2492   -9.3792 O   0  0  0  0  0  0  0  0  0  0  0  0
   24.5172  -23.8120  -13.4065 N   0  0  0  0  0  0  0  0  0  0  0  0
   24.0552  -22.4830  -13.2621 C   0  0  0  0  0  0  0  0  0  0  0  0
   23.4716  -21.9715  -14.2590 O   0  0  0  0  0  0  0  0  0  0  0  0
   24.2360  -21.7235  -12.0258 C   0  0  0  0  0  0  0  0  0  0  0  0
   25.5838  -21.0986  -11.8615 C   0  0  2  0  0  0  0  0  0  0  0  0
   25.6218  -20.3896  -10.5979 N   0  0  0  0  0  0  0  0  0  0  0  0
   25.9324  -20.1671  -12.9465 C   0  0  0  0  0  0  0  0  0  0  0  0
   25.5142  -18.9818  -12.9387 O   0  0  0  0  0  0  0  0  0  0  0  0
   28.1636  -21.4724  -16.4267 C   0  0  0  0  0  0  0  0  0  0  0  0
   28.3803  -20.1427  -15.7830 C   0  0  1  0  0  0  0  0  0  0  0  0
   28.8222  -19.2582  -16.7606 O   0  0  0  0  0  0  0  0  0  0  0  0
   27.1361  -19.6271  -15.0920 C   0  0  2  0  0  0  0  0  0  0  0  0
   26.7489  -20.5508  -14.0465 N   0  0  0  0  0  0  0  0  0  0  0  0
   26.0205  -19.4198  -16.0246 C   0  0  0  0  0  0  0  0  0  0  0  0
   25.1627  -20.3258  -16.1636 O   0  0  0  0  0  0  0  0  0  0  0  0
   25.8564  -18.2656  -16.7715 O   0  0  0  0  0  0  0  0  0  0  0  0
  2  1  1  6
  3  2  1  0
  4  2  1  0
  4  5  1  0
  5  7  1  0
  5  6  1  1
  7  8  2  0
  9 10  1  0
 10 12  1  0
 11 10  2  0
 13 12  1  6
 14 13  1  0
 14  7  1  0
 15 13  1  0
 16 15  2  0
 18 17  1  6
 19 18  1  0
 20 21  1  1
 20 18  1  0
 21 15  1  0
 22 24  1  0
 22 20  1  0
 23 22  2  0
M  END
$$$$
