LNT.pdb
     RDKit          3D

 24 23  0  0  1  0  0  0  0  0999 V2000
   19.8039  -17.0777  -17.8448 C   0  0  0  0  0  0  0  0  0  0  0  0
   20.3090  -15.7521  -17.2758 C   0  0  2  0  0  0  0  0  0  0  0  0
   20.0720  -15.7860  -15.7969 C   0  0  0  0  0  0  0  0  0  0  0  0
   19.6015  -14.6530  -18.0016 C   0  0  0  0  0  0  0  0  0  0  0  0
   20.0996  -13.2760  -17.6687 C   0  0  2  0  0  0  0  0  0  0  0  0
   20.9511  -13.3528  -16.5188 N   0  0  0  0  0  0  0  0  0  0  0  0
   18.9060  -12.4209  -17.4362 C   0  0  0  0  0  0  0  0  0  0  0  0
   17.9210  -12.4188  -18.1867 O   0  0  0  0  0  0  0  0  0  0  0  0
   15.8024  -12.6195  -16.0975 N   0  0  0  0  0  0  0  0  0  0  0  0
   16.1110  -11.9821  -14.8731 C   0  0  0  0  0  0  0  0  0  0  0  0
   15.4328  -12.3271  -13.8647 O   0  0  0  0  0  0  0  0  0  0  0  0
   17.1611  -10.9707  -14.7624 C   0  0  0  0  0  0  0  0  0  0  0  0
   17.8340  -10.6175  -16.0495 C   0  0  2  0  0  0  0  0  0  0  0  0
   18.9002  -11.5674  -16.2981 N   0  0  0  0  0  0  0  0  0  0  0  0
   18.3908   -9.2549  -16.0634 C   0  0  0  0  0  0  0  0  0  0  0  0
   19.4786   -8.9964  -15.4890 O   0  0  0  0  0  0  0  0  0  0  0  0
   18.0856   -4.6219  -17.8856 C   0  0  0  0  0  0  0  0  0  0  0  0
   17.5008   -5.9855  -17.7185 C   0  0  1  0  0  0  0  0  0  0  0  0
   17.4491   -6.5879  -18.9706 O   0  0  0  0  0  0  0  0  0  0  0  0
   18.2776   -6.8289  -16.7303 C   0  0  2  0  0  0  0  0  0  0  0  0
   17.7388   -8.1727  -16.7171 N   0  0  0  0  0  0  0  0  0  0  0  0
   18.2627   -6.2630  -15.3750 C   0  0  0  0  0  0  0  0  0  0  0  0
   17.2567   -6.4459  -14.6465 O   0  0  0  0  0  0  0  0  0  0  0  0
   19.3095   -5.5280  -14.8447 O   0  0  0  0  0  0  0  0  0  0  0  0
  2  1  1  6
  3  2  1  0
  4  2  1  0
  4  5  1  0
  5  7  1  0
  5  6  1  1
  7  8  2  0
  9 10  1  0
 10 12  1  0
 11 10  2  0
 13 12  1  1
 14 13  1  0
 14  7  1  0
 15 13  1  0
 16 15  2  0
 18 17  1  6
 19 18  1  0
 20 21  1  1
 20 18  1  0
 21 15  1  0
 22 24  1  0
 22 20  1  0
 23 22  2  0
M  END
$$$$
