LNT.pdb
     RDKit          3D

 24 23  0  0  1  0  0  0  0  0999 V2000
   27.4743  -14.5247  -17.0583 C   0  0  0  0  0  0  0  0  0  0  0  0
   25.9848  -14.8250  -16.8929 C   0  0  2  0  0  0  0  0  0  0  0  0
   25.6892  -16.0548  -17.6958 C   0  0  0  0  0  0  0  0  0  0  0  0
   25.2310  -13.6036  -17.3117 C   0  0  0  0  0  0  0  0  0  0  0  0
   25.4588  -12.4085  -16.4315 C   0  0  2  0  0  0  0  0  0  0  0  0
   25.3995  -12.8203  -15.0603 N   0  0  0  0  0  0  0  0  0  0  0  0
   24.4136  -11.4073  -16.7702 C   0  0  0  0  0  0  0  0  0  0  0  0
   24.2537  -10.9592  -17.9136 O   0  0  0  0  0  0  0  0  0  0  0  0
   19.1130   -9.7136  -16.7125 N   0  0  0  0  0  0  0  0  0  0  0  0
   20.0401   -9.7191  -15.6443 C   0  0  0  0  0  0  0  0  0  0  0  0
   19.8314   -8.9005  -14.7049 O   0  0  0  0  0  0  0  0  0  0  0  0
   21.1898  -10.6220  -15.6130 C   0  0  0  0  0  0  0  0  0  0  0  0
   22.4970   -9.9902  -15.9682 C   0  0  2  0  0  0  0  0  0  0  0  0
   23.5606  -10.9456  -15.7295 N   0  0  0  0  0  0  0  0  0  0  0  0
   22.7767   -8.7597  -15.2102 C   0  0  0  0  0  0  0  0  0  0  0  0
   23.2344   -8.8121  -14.0407 O   0  0  0  0  0  0  0  0  0  0  0  0
   23.0161   -5.0123  -17.2579 C   0  0  0  0  0  0  0  0  0  0  0  0
   23.8008   -5.4192  -16.0546 C   0  0  1  0  0  0  0  0  0  0  0  0
   24.2853   -4.2662  -15.4468 O   0  0  0  0  0  0  0  0  0  0  0  0
   22.9856   -6.2527  -15.0894 C   0  0  2  0  0  0  0  0  0  0  0  0
   22.5479   -7.4639  -15.7509 N   0  0  0  0  0  0  0  0  0  0  0  0
   21.8301   -5.5217  -14.5529 C   0  0  0  0  0  0  0  0  0  0  0  0
   20.6794   -5.8086  -14.9648 O   0  0  0  0  0  0  0  0  0  0  0  0
   21.9367   -4.5186  -13.6045 O   0  0  0  0  0  0  0  0  0  0  0  0
  2  1  1  6
  3  2  1  0
  4  2  1  0
  4  5  1  0
  5  7  1  0
  5  6  1  1
  7  8  2  0
  9 10  1  0
 10 12  1  0
 11 10  2  0
 13 12  1  1
 14 13  1  0
 14  7  1  0
 15 13  1  0
 16 15  2  0
 18 17  1  6
 19 18  1  0
 20 21  1  6
 20 18  1  0
 21 15  1  0
 22 24  1  0
 22 20  1  0
 23 22  2  0
M  END
$$$$
