LNT.pdb
     RDKit          3D

 24 23  0  0  1  0  0  0  0  0999 V2000
   26.0769  -10.3459  -14.7992 C   0  0  0  0  0  0  0  0  0  0  0  0
   24.9473  -11.0523  -15.5484 C   0  0  2  0  0  0  0  0  0  0  0  0
   25.5522  -12.2245  -16.2586 C   0  0  0  0  0  0  0  0  0  0  0  0
   24.2989  -10.0423  -16.4399 C   0  0  0  0  0  0  0  0  0  0  0  0
   23.0220  -10.5125  -17.0751 C   0  0  2  0  0  0  0  0  0  0  0  0
   23.3378  -11.3447  -18.1980 N   0  0  0  0  0  0  0  0  0  0  0  0
   22.2522   -9.3016  -17.4635 C   0  0  0  0  0  0  0  0  0  0  0  0
   22.5471   -8.5990  -18.4398 O   0  0  0  0  0  0  0  0  0  0  0  0
   17.8874  -10.4662  -18.3406 N   0  0  0  0  0  0  0  0  0  0  0  0
   18.6296   -9.2629  -18.3839 C   0  0  0  0  0  0  0  0  0  0  0  0
   19.1070   -8.9283  -19.5047 O   0  0  0  0  0  0  0  0  0  0  0  0
   18.8434   -8.4343  -17.1983 C   0  0  0  0  0  0  0  0  0  0  0  0
   20.2219   -7.8729  -17.0620 C   0  0  2  0  0  0  0  0  0  0  0  0
   21.1262   -8.9373  -16.6742 N   0  0  0  0  0  0  0  0  0  0  0  0
   20.3140   -6.7813  -16.0788 C   0  0  0  0  0  0  0  0  0  0  0  0
   19.9350   -6.9480  -14.8920 O   0  0  0  0  0  0  0  0  0  0  0  0
   23.3960   -5.2771  -14.9442 C   0  0  0  0  0  0  0  0  0  0  0  0
   22.5535   -4.1346  -15.4071 C   0  0  1  0  0  0  0  0  0  0  0  0
   22.9984   -3.7553  -16.6687 O   0  0  0  0  0  0  0  0  0  0  0  0
   21.0784   -4.4739  -15.4195 C   0  0  2  0  0  0  0  0  0  0  0  0
   20.8288   -5.4977  -16.4123 N   0  0  0  0  0  0  0  0  0  0  0  0
   20.2341   -3.3001  -15.6779 C   0  0  0  0  0  0  0  0  0  0  0  0
   19.6453   -3.2010  -16.7822 O   0  0  0  0  0  0  0  0  0  0  0  0
   20.0463   -2.2800  -14.7607 O   0  0  0  0  0  0  0  0  0  0  0  0
  2  1  1  6
  3  2  1  0
  4  2  1  0
  4  5  1  0
  5  7  1  0
  5  6  1  6
  7  8  2  0
  9 10  1  0
 10 12  1  0
 11 10  2  0
 13 12  1  1
 14 13  1  0
 14  7  1  0
 15 13  1  0
 16 15  2  0
 18 17  1  6
 19 18  1  0
 20 21  1  6
 20 18  1  0
 21 15  1  0
 22 24  1  0
 22 20  1  0
 23 22  2  0
M  END
$$$$
