LNT.pdb
     RDKit          3D

 24 23  0  0  1  0  0  0  0  0999 V2000
   17.2614  -11.4910  -16.5984 C   0  0  0  0  0  0  0  0  0  0  0  0
   16.9810  -11.8315  -15.1349 C   0  0  2  0  0  0  0  0  0  0  0  0
   15.8795  -12.8468  -15.1198 C   0  0  0  0  0  0  0  0  0  0  0  0
   16.6673  -10.5519  -14.4281 C   0  0  0  0  0  0  0  0  0  0  0  0
   17.7643   -9.5285  -14.4933 C   0  0  2  0  0  0  0  0  0  0  0  0
   18.9632  -10.0937  -13.9488 N   0  0  0  0  0  0  0  0  0  0  0  0
   17.3008   -8.3380  -13.7332 C   0  0  0  0  0  0  0  0  0  0  0  0
   16.2937   -7.6883  -14.0454 O   0  0  0  0  0  0  0  0  0  0  0  0
   15.3128   -7.8910  -10.6826 N   0  0  0  0  0  0  0  0  0  0  0  0
   16.4329   -7.6751   -9.8463 C   0  0  0  0  0  0  0  0  0  0  0  0
   16.2921   -7.9548   -8.6225 O   0  0  0  0  0  0  0  0  0  0  0  0
   17.6999   -7.1539  -10.3574 C   0  0  0  0  0  0  0  0  0  0  0  0
   17.6875   -6.7733  -11.8028 C   0  0  2  0  0  0  0  0  0  0  0  0
   18.0521   -7.9304  -12.5961 N   0  0  0  0  0  0  0  0  0  0  0  0
   18.6002   -5.6636  -12.1229 C   0  0  0  0  0  0  0  0  0  0  0  0
   18.4501   -4.5323  -11.5962 O   0  0  0  0  0  0  0  0  0  0  0  0
   22.2516   -6.3683  -14.1298 C   0  0  0  0  0  0  0  0  0  0  0  0
   21.9831   -5.1267  -13.3451 C   0  0  1  0  0  0  0  0  0  0  0  0
   22.8307   -4.1293  -13.8144 O   0  0  0  0  0  0  0  0  0  0  0  0
   20.5326   -4.7001  -13.4192 C   0  0  2  0  0  0  0  0  0  0  0  0
   19.6852   -5.8082  -13.0316 N   0  0  0  0  0  0  0  0  0  0  0  0
   20.1566   -4.2168  -14.7543 C   0  0  0  0  0  0  0  0  0  0  0  0
   20.4531   -3.0428  -15.0860 O   0  0  0  0  0  0  0  0  0  0  0  0
   19.4837   -4.9918  -15.6835 O   0  0  0  0  0  0  0  0  0  0  0  0
  2  1  1  6
  3  2  1  0
  4  2  1  0
  4  5  1  0
  5  7  1  0
  5  6  1  1
  7  8  2  0
  9 10  1  0
 10 12  1  0
 11 10  2  0
 13 12  1  1
 14 13  1  0
 14  7  1  0
 15 13  1  0
 16 15  2  0
 18 17  1  6
 19 18  1  0
 20 21  1  6
 20 18  1  0
 21 15  1  0
 22 24  1  0
 22 20  1  0
 23 22  2  0
M  END
$$$$
