LNT.pdb
     RDKit          3D

 24 23  0  0  1  0  0  0  0  0999 V2000
   17.0107  -12.4360  -16.6536 C   0  0  0  0  0  0  0  0  0  0  0  0
   15.8927  -12.5553  -15.6182 C   0  0  2  0  0  0  0  0  0  0  0  0
   14.7149  -13.1733  -16.3075 C   0  0  0  0  0  0  0  0  0  0  0  0
   15.6500  -11.1898  -15.0597 C   0  0  0  0  0  0  0  0  0  0  0  0
   16.8152  -10.6185  -14.3041 C   0  0  2  0  0  0  0  0  0  0  0  0
   17.2158  -11.5486  -13.2904 N   0  0  0  0  0  0  0  0  0  0  0  0
   16.3764   -9.3155  -13.7389 C   0  0  0  0  0  0  0  0  0  0  0  0
   15.4061   -8.6825  -14.1766 O   0  0  0  0  0  0  0  0  0  0  0  0
   16.1620   -5.2848  -10.3381 N   0  0  0  0  0  0  0  0  0  0  0  0
   16.8071   -6.4096   -9.7732 C   0  0  0  0  0  0  0  0  0  0  0  0
   17.0730   -6.3537   -8.5395 O   0  0  0  0  0  0  0  0  0  0  0  0
   17.1566   -7.5884  -10.5648 C   0  0  0  0  0  0  0  0  0  0  0  0
   16.7255   -7.5374  -11.9951 C   0  0  2  0  0  0  0  0  0  0  0  0
   17.1082   -8.7751  -12.6452 N   0  0  0  0  0  0  0  0  0  0  0  0
   17.3012   -6.4052  -12.7391 C   0  0  0  0  0  0  0  0  0  0  0  0
   18.5351   -6.3461  -12.9712 O   0  0  0  0  0  0  0  0  0  0  0  0
   16.6624   -2.9650  -16.1401 C   0  0  0  0  0  0  0  0  0  0  0  0
   16.1278   -4.0082  -15.2153 C   0  0  1  0  0  0  0  0  0  0  0  0
   15.9105   -5.1667  -15.9529 O   0  0  0  0  0  0  0  0  0  0  0  0
   17.0483   -4.2643  -14.0413 C   0  0  2  0  0  0  0  0  0  0  0  0
   16.5054   -5.3324  -13.2286 N   0  0  0  0  0  0  0  0  0  0  0  0
   17.2630   -3.0634  -13.2232 C   0  0  0  0  0  0  0  0  0  0  0  0
   16.4202   -2.7645  -12.3420 O   0  0  0  0  0  0  0  0  0  0  0  0
   18.3576   -2.2281  -13.3689 O   0  0  0  0  0  0  0  0  0  0  0  0
  2  1  1  6
  3  2  1  0
  4  2  1  0
  4  5  1  0
  5  7  1  0
  5  6  1  1
  7  8  2  0
  9 10  1  0
 10 12  1  0
 11 10  2  0
 13 12  1  1
 14 13  1  0
 14  7  1  0
 15 13  1  0
 16 15  2  0
 18 17  1  6
 19 18  1  0
 20 21  1  1
 20 18  1  0
 21 15  1  0
 22 24  1  0
 22 20  1  0
 23 22  2  0
M  END
$$$$
