LNT.pdb
     RDKit          3D

 24 23  0  0  1  0  0  0  0  0999 V2000
   17.3249  -13.9765  -20.4560 C   0  0  0  0  0  0  0  0  0  0  0  0
   16.6125  -14.2627  -19.1344 C   0  0  2  0  0  0  0  0  0  0  0  0
   15.2699  -13.6016  -19.2028 C   0  0  0  0  0  0  0  0  0  0  0  0
   17.4981  -13.7765  -18.0322 C   0  0  0  0  0  0  0  0  0  0  0  0
   18.8509  -14.4272  -17.9980 C   0  0  2  0  0  0  0  0  0  0  0  0
   18.6945  -15.8128  -17.6677 N   0  0  0  0  0  0  0  0  0  0  0  0
   19.6671  -13.6926  -16.9960 C   0  0  0  0  0  0  0  0  0  0  0  0
   19.4664  -13.7678  -15.7763 O   0  0  0  0  0  0  0  0  0  0  0  0
   24.8297  -12.2729  -15.1444 N   0  0  0  0  0  0  0  0  0  0  0  0
   23.9527  -11.6326  -16.0508 C   0  0  0  0  0  0  0  0  0  0  0  0
   24.0334  -10.3743  -16.1286 O   0  0  0  0  0  0  0  0  0  0  0  0
   22.9930  -12.3761  -16.8658 C   0  0  0  0  0  0  0  0  0  0  0  0
   21.5568  -12.0899  -16.5662 C   0  0  2  0  0  0  0  0  0  0  0  0
   20.7260  -12.8664  -17.4649 N   0  0  0  0  0  0  0  0  0  0  0  0
   21.2052  -10.6664  -16.6952 C   0  0  0  0  0  0  0  0  0  0  0  0
   21.1624  -10.1117  -17.8224 O   0  0  0  0  0  0  0  0  0  0  0  0
   19.2551   -8.6783  -13.5576 C   0  0  0  0  0  0  0  0  0  0  0  0
   19.2266   -8.2117  -14.9756 C   0  0  1  0  0  0  0  0  0  0  0  0
   18.8898   -6.8627  -14.9780 O   0  0  0  0  0  0  0  0  0  0  0  0
   20.5389   -8.4556  -15.6893 C   0  0  2  0  0  0  0  0  0  0  0  0
   20.8994   -9.8526  -15.5691 N   0  0  0  0  0  0  0  0  0  0  0  0
   21.6228   -7.6062  -15.1782 C   0  0  0  0  0  0  0  0  0  0  0  0
   21.5784   -6.3683  -15.3826 O   0  0  0  0  0  0  0  0  0  0  0  0
   22.7080   -8.0980  -14.4729 O   0  0  0  0  0  0  0  0  0  0  0  0
  2  1  1  6
  3  2  1  0
  4  2  1  0
  4  5  1  0
  5  7  1  0
  5  6  1  1
  7  8  2  0
  9 10  1  0
 10 12  1  0
 11 10  2  0
 13 12  1  6
 14 13  1  0
 14  7  1  0
 15 13  1  0
 16 15  2  0
 18 17  1  1
 19 18  1  0
 20 21  1  1
 20 18  1  0
 21 15  1  0
 22 24  1  0
 22 20  1  0
 23 22  2  0
M  END
$$$$
