SMG.pdb
     RDKit          3D

 19 18  0  0  1  0  0  0  0  0999 V2000
    7.1666  -19.2115   20.7025 O   0  0  0  0  0  0  0  0  0  0  0  0
    7.1886  -18.4326   21.8606 C   0  0  0  0  0  0  0  0  0  0  0  0
    6.7018  -17.0491   21.4818 C   0  0  2  0  0  0  0  0  0  0  0  0
    6.8807  -16.9223   20.0469 N   0  0  0  0  0  0  0  0  0  0  0  0
    7.4548  -15.9819   22.1635 C   0  0  0  0  0  0  0  0  0  0  0  0
    8.4319  -15.4154   21.5873 O   0  0  0  0  0  0  0  0  0  0  0  0
    5.3360  -11.3824   27.0765 C   0  0  0  0  0  0  0  0  0  0  0  0
    6.8627  -12.2828   27.3940 S   0  0  0  0  0  0  0  0  0  0  0  0
    7.7397  -12.7316   25.8973 C   0  0  0  0  0  0  0  0  0  0  0  0
    7.0634  -13.8031   25.1036 C   0  0  0  0  0  0  0  0  0  0  0  0
    7.9651  -14.5163   24.1419 C   0  0  2  0  0  0  0  0  0  0  0  0
    7.1402  -15.5342   23.4737 N   0  0  0  0  0  0  0  0  0  0  0  0
    9.1602  -15.0947   24.7455 C   0  0  0  0  0  0  0  0  0  0  0  0
    9.9331  -14.3707   25.4107 O   0  0  0  0  0  0  0  0  0  0  0  0
    9.4861  -16.4659   24.6066 N   0  0  0  0  0  0  0  0  0  0  0  0
   10.6616  -17.0563   25.2272 C   0  0  0  0  0  0  0  0  0  0  0  0
   11.8718  -16.8769   24.4366 C   0  0  0  0  0  0  0  0  0  0  0  0
   12.1745  -15.7521   23.9856 O   0  0  0  0  0  0  0  0  0  0  0  0
   12.7015  -17.9491   24.1751 O   0  0  0  0  0  0  0  0  0  0  0  0
  1  2  1  0
  2  3  1  0
  3  4  1  6
  5  3  1  0
  6  5  2  0
  7  8  1  0
  9 10  1  0
  9  8  1  0
 11 10  1  1
 11 13  1  0
 11 12  1  0
 12  5  1  0
 13 15  1  0
 14 13  2  0
 15 16  1  0
 17 19  1  0
 17 16  1  0
 18 17  2  0
M  END
$$$$
