SMG.pdb
     RDKit          3D

 19 18  0  0  1  0  0  0  0  0999 V2000
    7.7981  -18.9792   19.9187 O   0  0  0  0  0  0  0  0  0  0  0  0
    7.6601  -18.3800   21.1717 C   0  0  0  0  0  0  0  0  0  0  0  0
    7.2638  -16.9365   20.9392 C   0  0  2  0  0  0  0  0  0  0  0  0
    7.6855  -16.6002   19.5915 N   0  0  0  0  0  0  0  0  0  0  0  0
    7.9050  -16.0165   21.8949 C   0  0  0  0  0  0  0  0  0  0  0  0
    9.0844  -15.5977   21.6921 O   0  0  0  0  0  0  0  0  0  0  0  0
    6.5992  -10.5838   27.3872 C   0  0  0  0  0  0  0  0  0  0  0  0
    6.1375  -12.2226   26.8010 S   0  0  0  0  0  0  0  0  0  0  0  0
    7.4177  -13.0070   25.8229 C   0  0  0  0  0  0  0  0  0  0  0  0
    6.8914  -13.9650   24.8027 C   0  0  0  0  0  0  0  0  0  0  0  0
    7.9552  -14.6743   24.0205 C   0  0  2  0  0  0  0  0  0  0  0  0
    7.2576  -15.5545   23.0711 N   0  0  0  0  0  0  0  0  0  0  0  0
    8.9199  -15.4064   24.8334 C   0  0  0  0  0  0  0  0  0  0  0  0
    9.5776  -14.8042   25.7101 O   0  0  0  0  0  0  0  0  0  0  0  0
    9.1455  -16.7946   24.6671 N   0  0  0  0  0  0  0  0  0  0  0  0
   10.0858  -17.5375   25.4914 C   0  0  0  0  0  0  0  0  0  0  0  0
   11.4762  -17.2586   25.1587 C   0  0  0  0  0  0  0  0  0  0  0  0
   11.8909  -16.0819   25.0985 O   0  0  0  0  0  0  0  0  0  0  0  0
   12.3555  -18.2926   24.9050 O   0  0  0  0  0  0  0  0  0  0  0  0
  1  2  1  0
  2  3  1  0
  3  4  1  6
  5  3  1  0
  6  5  2  0
  7  8  1  0
  9 10  1  0
  9  8  1  0
 11 10  1  1
 11 13  1  0
 11 12  1  0
 12  5  1  0
 13 15  1  0
 14 13  2  0
 15 16  1  0
 17 19  1  0
 17 16  1  0
 18 17  2  0
M  END
$$$$
