SMG.pdb
     RDKit          3D

 19 18  0  0  1  0  0  0  0  0999 V2000
    7.8330  -20.4530   23.7082 O   0  0  0  0  0  0  0  0  0  0  0  0
    6.8254  -20.3401   24.6676 C   0  0  0  0  0  0  0  0  0  0  0  0
    5.8438  -19.2996   24.1692 C   0  0  2  0  0  0  0  0  0  0  0  0
    5.3120  -19.7959   22.9130 N   0  0  0  0  0  0  0  0  0  0  0  0
    6.4786  -17.9889   23.9464 C   0  0  0  0  0  0  0  0  0  0  0  0
    6.8881  -17.6605   22.7923 O   0  0  0  0  0  0  0  0  0  0  0  0
    5.8096  -11.3304   26.3547 C   0  0  0  0  0  0  0  0  0  0  0  0
    7.1719  -12.3405   26.9599 S   0  0  0  0  0  0  0  0  0  0  0  0
    7.7559  -13.5303   25.7541 C   0  0  0  0  0  0  0  0  0  0  0  0
    7.0831  -14.8621   25.8502 C   0  0  0  0  0  0  0  0  0  0  0  0
    7.4533  -15.8171   24.7559 C   0  0  2  0  0  0  0  0  0  0  0  0
    6.6657  -17.0379   24.9840 N   0  0  0  0  0  0  0  0  0  0  0  0
    8.8805  -16.1010   24.6553 C   0  0  0  0  0  0  0  0  0  0  0  0
    9.3872  -16.9977   25.3647 O   0  0  0  0  0  0  0  0  0  0  0  0
    9.7295  -15.3906   23.7721 N   0  0  0  0  0  0  0  0  0  0  0  0
   10.9162  -15.9876   23.1798 C   0  0  0  0  0  0  0  0  0  0  0  0
   12.0681  -15.9657   24.0712 C   0  0  0  0  0  0  0  0  0  0  0  0
   11.9350  -15.6522   25.2730 O   0  0  0  0  0  0  0  0  0  0  0  0
   13.3239  -16.2918   23.5990 O   0  0  0  0  0  0  0  0  0  0  0  0
  1  2  1  0
  2  3  1  0
  3  4  1  6
  5  3  1  0
  6  5  2  0
  7  8  1  0
  9 10  1  0
  9  8  1  0
 11 10  1  1
 11 13  1  0
 11 12  1  0
 12  5  1  0
 13 15  1  0
 14 13  2  0
 15 16  1  0
 17 19  1  0
 17 16  1  0
 18 17  2  0
M  END
$$$$
