SMG.pdb
     RDKit          3D

 19 18  0  0  1  0  0  0  0  0999 V2000
    5.2579  -16.5702   19.3714 O   0  0  0  0  0  0  0  0  0  0  0  0
    5.9823  -15.6027   20.0697 C   0  0  0  0  0  0  0  0  0  0  0  0
    6.9687  -16.3328   20.9578 C   0  0  2  0  0  0  0  0  0  0  0  0
    6.2420  -17.4259   21.5776 N   0  0  0  0  0  0  0  0  0  0  0  0
    7.5310  -15.4641   22.0065 C   0  0  0  0  0  0  0  0  0  0  0  0
    8.2384  -14.4583   21.6977 O   0  0  0  0  0  0  0  0  0  0  0  0
    6.7949  -10.5085   26.6477 C   0  0  0  0  0  0  0  0  0  0  0  0
    6.1222  -12.1781   26.6946 S   0  0  0  0  0  0  0  0  0  0  0  0
    7.3539  -13.4423   26.3859 C   0  0  0  0  0  0  0  0  0  0  0  0
    6.9204  -14.4732   25.3935 C   0  0  0  0  0  0  0  0  0  0  0  0
    7.9796  -14.8571   24.4050 C   0  0  2  0  0  0  0  0  0  0  0  0
    7.3202  -15.6945   23.3916 N   0  0  0  0  0  0  0  0  0  0  0  0
    9.1411  -15.5202   24.9869 C   0  0  0  0  0  0  0  0  0  0  0  0
    9.1738  -15.7518   26.2153 O   0  0  0  0  0  0  0  0  0  0  0  0
   10.2518  -15.9189   24.2038 N   0  0  0  0  0  0  0  0  0  0  0  0
   11.6256  -15.7165   24.6364 C   0  0  0  0  0  0  0  0  0  0  0  0
   12.6018  -16.2415   23.6912 C   0  0  0  0  0  0  0  0  0  0  0  0
   12.2331  -16.7215   22.5986 O   0  0  0  0  0  0  0  0  0  0  0  0
   13.9493  -16.2155   23.9910 O   0  0  0  0  0  0  0  0  0  0  0  0
  1  2  1  0
  2  3  1  0
  3  4  1  1
  5  3  1  0
  6  5  2  0
  7  8  1  0
  9 10  1  0
  9  8  1  0
 11 10  1  1
 11 13  1  0
 11 12  1  0
 12  5  1  0
 13 15  1  0
 14 13  2  0
 15 16  1  0
 17 19  1  0
 17 16  1  0
 18 17  2  0
M  END
$$$$
