SMG.pdb
     RDKit          3D

 19 18  0  0  1  0  0  0  0  0999 V2000
    8.5776  -17.4234   20.9860 O   0  0  0  0  0  0  0  0  0  0  0  0
    7.4835  -16.8073   20.3763 C   0  0  0  0  0  0  0  0  0  0  0  0
    7.6997  -15.3109   20.4698 C   0  0  2  0  0  0  0  0  0  0  0  0
    8.7682  -14.9851   19.5428 N   0  0  0  0  0  0  0  0  0  0  0  0
    8.0829  -14.8819   21.8262 C   0  0  0  0  0  0  0  0  0  0  0  0
    9.2629  -14.4849   22.0659 O   0  0  0  0  0  0  0  0  0  0  0  0
    7.3264  -11.0035   27.8653 C   0  0  0  0  0  0  0  0  0  0  0  0
    7.2472  -11.8129   26.2587 S   0  0  0  0  0  0  0  0  0  0  0  0
    6.5600  -13.4659   26.3363 C   0  0  0  0  0  0  0  0  0  0  0  0
    6.3336  -14.0855   24.9946 C   0  0  0  0  0  0  0  0  0  0  0  0
    7.5920  -14.4045   24.2456 C   0  0  2  0  0  0  0  0  0  0  0  0
    7.1771  -14.8868   22.9197 N   0  0  0  0  0  0  0  0  0  0  0  0
    8.4746  -15.3517   24.9175 C   0  0  0  0  0  0  0  0  0  0  0  0
    8.9487  -15.0706   26.0401 O   0  0  0  0  0  0  0  0  0  0  0  0
    8.8221  -16.5974   24.3404 N   0  0  0  0  0  0  0  0  0  0  0  0
    9.6055  -17.5961   25.0506 C   0  0  0  0  0  0  0  0  0  0  0  0
   11.0025  -17.2151   25.2084 C   0  0  0  0  0  0  0  0  0  0  0  0
   11.3133  -16.2001   25.8668 O   0  0  0  0  0  0  0  0  0  0  0  0
   12.0031  -17.9717   24.6315 O   0  0  0  0  0  0  0  0  0  0  0  0
  1  2  1  0
  2  3  1  0
  3  4  1  6
  5  3  1  0
  6  5  2  0
  7  8  1  0
  9 10  1  0
  9  8  1  0
 11 10  1  1
 11 13  1  0
 11 12  1  0
 12  5  1  0
 13 15  1  0
 14 13  2  0
 15 16  1  0
 17 19  1  0
 17 16  1  0
 18 17  2  0
M  END
$$$$
