SMG.pdb
     RDKit          3D

 19 18  0  0  1  0  0  0  0  0999 V2000
    8.3170  -15.1458   19.4243 O   0  0  0  0  0  0  0  0  0  0  0  0
    7.0453  -14.6638   19.7386 C   0  0  0  0  0  0  0  0  0  0  0  0
    7.2313  -13.4240   20.5889 C   0  0  2  0  0  0  0  0  0  0  0  0
    8.0625  -12.5135   19.8225 N   0  0  0  0  0  0  0  0  0  0  0  0
    7.8869  -13.7175   21.8753 C   0  0  0  0  0  0  0  0  0  0  0  0
    9.1264  -13.5002   22.0298 O   0  0  0  0  0  0  0  0  0  0  0  0
    6.8381  -10.7037   27.0389 C   0  0  0  0  0  0  0  0  0  0  0  0
    7.5137  -12.3070   26.5750 S   0  0  0  0  0  0  0  0  0  0  0  0
    6.3441  -13.3336   25.6868 C   0  0  0  0  0  0  0  0  0  0  0  0
    6.8866  -14.6756   25.3123 C   0  0  0  0  0  0  0  0  0  0  0  0
    7.9058  -14.6408   24.2140 C   0  0  2  0  0  0  0  0  0  0  0  0
    7.1883  -14.2481   22.9917 N   0  0  0  0  0  0  0  0  0  0  0  0
    8.6470  -15.8842   24.0342 C   0  0  0  0  0  0  0  0  0  0  0  0
    8.0422  -16.9783   24.0662 O   0  0  0  0  0  0  0  0  0  0  0  0
   10.0470  -15.9026   23.8213 N   0  0  0  0  0  0  0  0  0  0  0  0
   10.8120  -17.1382   23.7617 C   0  0  0  0  0  0  0  0  0  0  0  0
   12.2488  -16.9132   23.6805 C   0  0  0  0  0  0  0  0  0  0  0  0
   12.9312  -17.4783   22.8001 O   0  0  0  0  0  0  0  0  0  0  0  0
   12.8764  -16.0711   24.5769 O   0  0  0  0  0  0  0  0  0  0  0  0
  1  2  1  0
  2  3  1  0
  3  4  1  6
  5  3  1  0
  6  5  2  0
  7  8  1  0
  9 10  1  0
  9  8  1  0
 11 10  1  1
 11 13  1  0
 11 12  1  0
 12  5  1  0
 13 15  1  0
 14 13  2  0
 15 16  1  0
 17 19  1  0
 17 16  1  0
 18 17  2  0
M  END
$$$$
