SMG.pdb
     RDKit          3D

 19 18  0  0  1  0  0  0  0  0999 V2000
    7.0069  -17.5101   20.5548 O   0  0  0  0  0  0  0  0  0  0  0  0
    6.0198  -16.5409   20.3685 C   0  0  0  0  0  0  0  0  0  0  0  0
    6.7233  -15.2142   20.1698 C   0  0  2  0  0  0  0  0  0  0  0  0
    7.5466  -15.3525   18.9822 N   0  0  0  0  0  0  0  0  0  0  0  0
    7.5764  -14.8530   21.3154 C   0  0  0  0  0  0  0  0  0  0  0  0
    8.8319  -15.0209   21.2607 O   0  0  0  0  0  0  0  0  0  0  0  0
    5.3021  -12.1640   27.1880 C   0  0  0  0  0  0  0  0  0  0  0  0
    6.9592  -11.5545   26.8346 S   0  0  0  0  0  0  0  0  0  0  0  0
    7.9020  -12.6510   25.7766 C   0  0  0  0  0  0  0  0  0  0  0  0
    7.2065  -12.9977   24.4993 C   0  0  0  0  0  0  0  0  0  0  0  0
    7.9468  -13.9817   23.6448 C   0  0  2  0  0  0  0  0  0  0  0  0
    7.0577  -14.3086   22.5198 N   0  0  0  0  0  0  0  0  0  0  0  0
    8.3973  -15.1776   24.3477 C   0  0  0  0  0  0  0  0  0  0  0  0
    7.5621  -16.0284   24.7250 O   0  0  0  0  0  0  0  0  0  0  0  0
    9.7652  -15.4182   24.6248 N   0  0  0  0  0  0  0  0  0  0  0  0
   10.2419  -16.6798   25.1694 C   0  0  0  0  0  0  0  0  0  0  0  0
   11.6912  -16.7274   25.3072 C   0  0  0  0  0  0  0  0  0  0  0  0
   12.4306  -16.3995   24.3554 O   0  0  0  0  0  0  0  0  0  0  0  0
   12.2677  -17.1361   26.4934 O   0  0  0  0  0  0  0  0  0  0  0  0
  1  2  1  0
  2  3  1  0
  3  4  1  6
  5  3  1  0
  6  5  2  0
  7  8  1  0
  9 10  1  0
  9  8  1  0
 11 10  1  1
 11 13  1  0
 11 12  1  0
 12  5  1  0
 13 15  1  0
 14 13  2  0
 15 16  1  0
 17 19  1  0
 17 16  1  0
 18 17  2  0
M  END
$$$$
