SMG.pdb
     RDKit          3D

 19 18  0  0  1  0  0  0  0  0999 V2000
    8.2910  -18.1835   21.2828 O   0  0  0  0  0  0  0  0  0  0  0  0
    7.0608  -17.6976   20.8368 C   0  0  0  0  0  0  0  0  0  0  0  0
    7.2311  -16.2158   20.5723 C   0  0  2  0  0  0  0  0  0  0  0  0
    8.0044  -16.0966   19.3495 N   0  0  0  0  0  0  0  0  0  0  0  0
    7.9385  -15.5271   21.6659 C   0  0  0  0  0  0  0  0  0  0  0  0
    9.1242  -15.1089   21.5022 O   0  0  0  0  0  0  0  0  0  0  0  0
    6.7890  -10.7959   27.8626 C   0  0  0  0  0  0  0  0  0  0  0  0
    6.1703  -12.0368   26.7137 S   0  0  0  0  0  0  0  0  0  0  0  0
    7.4642  -12.7976   25.7351 C   0  0  0  0  0  0  0  0  0  0  0  0
    6.9547  -13.7605   24.7110 C   0  0  0  0  0  0  0  0  0  0  0  0
    8.0312  -14.4675   23.9443 C   0  0  2  0  0  0  0  0  0  0  0  0
    7.3505  -15.2956   22.9374 N   0  0  0  0  0  0  0  0  0  0  0  0
    8.9461  -15.2520   24.7658 C   0  0  0  0  0  0  0  0  0  0  0  0
    9.5042  -14.7235   25.7523 O   0  0  0  0  0  0  0  0  0  0  0  0
    9.2327  -16.6106   24.4868 N   0  0  0  0  0  0  0  0  0  0  0  0
   10.0693  -17.4264   25.3529 C   0  0  0  0  0  0  0  0  0  0  0  0
   11.4932  -17.2126   25.1325 C   0  0  0  0  0  0  0  0  0  0  0  0
   11.8872  -16.4162   24.2545 O   0  0  0  0  0  0  0  0  0  0  0  0
   12.4275  -17.8883   25.8921 O   0  0  0  0  0  0  0  0  0  0  0  0
  1  2  1  0
  2  3  1  0
  3  4  1  6
  5  3  1  0
  6  5  2  0
  7  8  1  0
  9 10  1  0
  9  8  1  0
 11 10  1  1
 11 13  1  0
 11 12  1  0
 12  5  1  0
 13 15  1  0
 14 13  2  0
 15 16  1  0
 17 19  1  0
 17 16  1  0
 18 17  2  0
M  END
$$$$
