SMG.pdb
     RDKit          3D

 19 18  0  0  1  0  0  0  0  0999 V2000
    8.2806  -15.6755   19.6693 O   0  0  0  0  0  0  0  0  0  0  0  0
    7.1918  -14.8618   19.3520 C   0  0  0  0  0  0  0  0  0  0  0  0
    7.4194  -13.5232   20.0235 C   0  0  2  0  0  0  0  0  0  0  0  0
    8.4326  -12.8334   19.2458 N   0  0  0  0  0  0  0  0  0  0  0  0
    7.8839  -13.6637   21.4146 C   0  0  0  0  0  0  0  0  0  0  0  0
    9.1043  -13.4823   21.7067 O   0  0  0  0  0  0  0  0  0  0  0  0
    7.1673  -11.5340   28.2593 C   0  0  0  0  0  0  0  0  0  0  0  0
    7.0295  -11.9014   26.5019 S   0  0  0  0  0  0  0  0  0  0  0  0
    6.4913  -13.5787   26.1734 C   0  0  0  0  0  0  0  0  0  0  0  0
    6.2318  -13.8534   24.7268 C   0  0  0  0  0  0  0  0  0  0  0  0
    7.4684  -13.9130   23.8819 C   0  0  2  0  0  0  0  0  0  0  0  0
    7.0153  -14.0022   22.4856 N   0  0  0  0  0  0  0  0  0  0  0  0
    8.3870  -14.9924   24.2260 C   0  0  0  0  0  0  0  0  0  0  0  0
    8.8956  -15.0354   25.3676 O   0  0  0  0  0  0  0  0  0  0  0  0
    8.7320  -16.0106   23.3040 N   0  0  0  0  0  0  0  0  0  0  0  0
    9.6441  -17.0926   23.6402 C   0  0  0  0  0  0  0  0  0  0  0  0
   10.9066  -16.6202   24.1922 C   0  0  0  0  0  0  0  0  0  0  0  0
   11.0783  -16.5657   25.4282 O   0  0  0  0  0  0  0  0  0  0  0  0
   11.9317  -16.2259   23.3554 O   0  0  0  0  0  0  0  0  0  0  0  0
  1  2  1  0
  2  3  1  0
  3  4  1  6
  5  3  1  0
  6  5  2  0
  7  8  1  0
  9 10  1  0
  9  8  1  0
 11 10  1  1
 11 13  1  0
 11 12  1  0
 12  5  1  0
 13 15  1  0
 14 13  2  0
 15 16  1  0
 17 19  1  0
 17 16  1  0
 18 17  2  0
M  END
$$$$
