SMG.pdb
     RDKit          3D

 19 18  0  0  1  0  0  0  0  0999 V2000
    7.7521  -19.2821   21.5955 O   0  0  0  0  0  0  0  0  0  0  0  0
    8.4658  -18.2826   20.9322 C   0  0  0  0  0  0  0  0  0  0  0  0
    7.5922  -17.0453   20.9091 C   0  0  2  0  0  0  0  0  0  0  0  0
    7.5735  -16.5735   19.5364 N   0  0  0  0  0  0  0  0  0  0  0  0
    8.1060  -15.9778   21.7849 C   0  0  0  0  0  0  0  0  0  0  0  0
    9.0722  -15.2475   21.4099 O   0  0  0  0  0  0  0  0  0  0  0  0
    6.4967  -11.0562   27.7517 C   0  0  0  0  0  0  0  0  0  0  0  0
    6.0302  -12.3923   26.6383 S   0  0  0  0  0  0  0  0  0  0  0  0
    7.3645  -12.9080   25.5592 C   0  0  0  0  0  0  0  0  0  0  0  0
    6.9736  -13.9772   24.5900 C   0  0  0  0  0  0  0  0  0  0  0  0
    8.1325  -14.6539   23.9224 C   0  0  2  0  0  0  0  0  0  0  0  0
    7.5643  -15.7087   23.0695 N   0  0  0  0  0  0  0  0  0  0  0  0
    9.1390  -15.1782   24.8386 C   0  0  0  0  0  0  0  0  0  0  0  0
    9.8103  -14.3908   25.5410 O   0  0  0  0  0  0  0  0  0  0  0  0
    9.3909  -16.5659   24.9671 N   0  0  0  0  0  0  0  0  0  0  0  0
   10.6018  -17.0865   25.5822 C   0  0  0  0  0  0  0  0  0  0  0  0
   10.4278  -17.4134   26.9910 C   0  0  0  0  0  0  0  0  0  0  0  0
    9.5497  -16.8423   27.6715 O   0  0  0  0  0  0  0  0  0  0  0  0
   11.2322  -18.3601   27.5936 O   0  0  0  0  0  0  0  0  0  0  0  0
  1  2  1  0
  2  3  1  0
  3  4  1  6
  5  3  1  0
  6  5  2  0
  7  8  1  0
  9 10  1  0
  9  8  1  0
 11 10  1  1
 11 13  1  0
 11 12  1  0
 12  5  1  0
 13 15  1  0
 14 13  2  0
 15 16  1  0
 17 19  1  0
 17 16  1  0
 18 17  2  0
M  END
$$$$
