SMG.pdb
     RDKit          3D

 19 18  0  0  1  0  0  0  0  0999 V2000
    7.4252  -18.8902   23.3601 O   0  0  0  0  0  0  0  0  0  0  0  0
    7.6653  -18.6122   22.0135 C   0  0  0  0  0  0  0  0  0  0  0  0
    6.9922  -17.2919   21.6994 C   0  0  2  0  0  0  0  0  0  0  0  0
    7.1367  -17.0795   20.2707 N   0  0  0  0  0  0  0  0  0  0  0  0
    7.6019  -16.1635   22.4245 C   0  0  0  0  0  0  0  0  0  0  0  0
    8.6405  -15.5942   21.9721 O   0  0  0  0  0  0  0  0  0  0  0  0
    6.4925  -10.5038   27.8753 C   0  0  0  0  0  0  0  0  0  0  0  0
    5.8918  -11.9131   26.9291 S   0  0  0  0  0  0  0  0  0  0  0  0
    7.1683  -12.6959   25.9450 C   0  0  0  0  0  0  0  0  0  0  0  0
    6.6660  -13.8159   25.0912 C   0  0  0  0  0  0  0  0  0  0  0  0
    7.7405  -14.5518   24.3494 C   0  0  2  0  0  0  0  0  0  0  0  0
    7.0768  -15.6578   23.6429 N   0  0  0  0  0  0  0  0  0  0  0  0
    8.8412  -15.0214   25.1835 C   0  0  0  0  0  0  0  0  0  0  0  0
    9.4774  -14.2079   25.8886 O   0  0  0  0  0  0  0  0  0  0  0  0
    9.2246  -16.3840   25.2277 N   0  0  0  0  0  0  0  0  0  0  0  0
   10.1935  -16.8922   26.1860 C   0  0  0  0  0  0  0  0  0  0  0  0
   11.4568  -17.2728   25.5688 C   0  0  0  0  0  0  0  0  0  0  0  0
   11.6676  -17.0419   24.3594 O   0  0  0  0  0  0  0  0  0  0  0  0
   12.4394  -17.8946   26.3133 O   0  0  0  0  0  0  0  0  0  0  0  0
  1  2  1  0
  2  3  1  0
  3  4  1  6
  5  3  1  0
  6  5  2  0
  7  8  1  0
  9 10  1  0
  9  8  1  0
 11 10  1  1
 11 13  1  0
 11 12  1  0
 12  5  1  0
 13 15  1  0
 14 13  2  0
 15 16  1  0
 17 19  1  0
 17 16  1  0
 18 17  2  0
M  END
$$$$
