SMG.pdb
     RDKit          3D

 19 18  0  0  1  0  0  0  0  0999 V2000
    8.3824  -18.1338   20.6990 O   0  0  0  0  0  0  0  0  0  0  0  0
    7.3605  -17.2844   20.2717 C   0  0  0  0  0  0  0  0  0  0  0  0
    7.9467  -15.8914   20.1682 C   0  0  2  0  0  0  0  0  0  0  0  0
    9.0442  -15.9701   19.2213 N   0  0  0  0  0  0  0  0  0  0  0  0
    8.4520  -15.3966   21.4607 C   0  0  0  0  0  0  0  0  0  0  0  0
    9.6977  -15.3641   21.6944 O   0  0  0  0  0  0  0  0  0  0  0  0
    6.8830  -11.2836   28.0154 C   0  0  0  0  0  0  0  0  0  0  0  0
    6.3003  -12.0817   26.5101 S   0  0  0  0  0  0  0  0  0  0  0  0
    7.4545  -13.2888   25.8611 C   0  0  0  0  0  0  0  0  0  0  0  0
    7.0377  -13.8734   24.5496 C   0  0  0  0  0  0  0  0  0  0  0  0
    8.1340  -14.5900   23.8209 C   0  0  2  0  0  0  0  0  0  0  0  0
    7.5965  -14.9378   22.4969 N   0  0  0  0  0  0  0  0  0  0  0  0
    8.6634  -15.7573   24.5171 C   0  0  0  0  0  0  0  0  0  0  0  0
    7.8850  -16.6565   24.9033 O   0  0  0  0  0  0  0  0  0  0  0  0
   10.0464  -15.9160   24.7776 N   0  0  0  0  0  0  0  0  0  0  0  0
   10.5787  -16.0360   26.1258 C   0  0  0  0  0  0  0  0  0  0  0  0
   10.5177  -17.3969   26.6414 C   0  0  0  0  0  0  0  0  0  0  0  0
   11.5383  -18.1170   26.6552 O   0  0  0  0  0  0  0  0  0  0  0  0
    9.3295  -17.9098   27.1225 O   0  0  0  0  0  0  0  0  0  0  0  0
  1  2  1  0
  2  3  1  0
  3  4  1  6
  5  3  1  0
  6  5  2  0
  7  8  1  0
  9 10  1  0
  9  8  1  0
 11 10  1  1
 11 13  1  0
 11 12  1  0
 12  5  1  0
 13 15  1  0
 14 13  2  0
 15 16  1  0
 17 19  1  0
 17 16  1  0
 18 17  2  0
M  END
$$$$
