FVM.pdb
     RDKit          3D

 27 27  0  0  1  0  0  0  0  0999 V2000
    6.5541  -17.8051   19.5038 N   0  0  0  0  0  0  0  0  0  0  0  0
    7.2646  -16.6543   20.0232 C   0  0  1  0  0  0  0  0  0  0  0  0
    6.2190  -15.6901   20.5698 C   0  0  0  0  0  0  0  0  0  0  0  0
    6.8512  -14.4557   21.0950 C   0  0  0  0  0  0  0  0  0  0  0  0
    7.4099  -13.5435   20.2226 C   0  0  0  0  0  0  0  0  0  0  0  0
    8.0117  -12.3817   20.6387 C   0  0  0  0  0  0  0  0  0  0  0  0
    8.0606  -12.1128   21.9931 C   0  0  0  0  0  0  0  0  0  0  0  0
    7.5107  -13.0056   22.8892 C   0  0  0  0  0  0  0  0  0  0  0  0
    6.9136  -14.1631   22.4398 C   0  0  0  0  0  0  0  0  0  0  0  0
    8.1597  -17.1370   21.1121 C   0  0  0  0  0  0  0  0  0  0  0  0
    7.7584  -17.9371   22.0042 O   0  0  0  0  0  0  0  0  0  0  0  0
   11.9135  -18.4558   20.9133 C   0  0  0  0  0  0  0  0  0  0  0  0
   11.7842  -17.3638   21.9509 C   0  0  2  0  0  0  0  0  0  0  0  0
   12.6358  -17.7847   23.1321 C   0  0  0  0  0  0  0  0  0  0  0  0
   10.3577  -17.2023   22.2921 C   0  0  2  0  0  0  0  0  0  0  0  0
    9.5144  -16.7364   21.2248 N   0  0  0  0  0  0  0  0  0  0  0  0
   10.2357  -16.2651   23.4507 C   0  0  0  0  0  0  0  0  0  0  0  0
   10.3345  -15.0177   23.3627 O   0  0  0  0  0  0  0  0  0  0  0  0
    7.5523  -11.4087   25.6501 C   0  0  0  0  0  0  0  0  0  0  0  0
    6.9765  -12.9557   26.2806 S   0  0  0  0  0  0  0  0  0  0  0  0
    8.1952  -14.1615   26.7607 C   0  0  0  0  0  0  0  0  0  0  0  0
    8.6344  -15.0678   25.6525 C   0  0  0  0  0  0  0  0  0  0  0  0
    9.8420  -15.8928   25.9083 C   0  0  2  0  0  0  0  0  0  0  0  0
    9.9916  -16.7839   24.7575 N   0  0  0  0  0  0  0  0  0  0  0  0
    9.7228  -16.7191   27.1444 C   0  0  0  0  0  0  0  0  0  0  0  0
    9.5829  -18.0724   27.0408 O   0  0  0  0  0  0  0  0  0  0  0  0
    9.7492  -16.2010   28.2970 O   0  0  0  0  0  0  0  0  0  0  0  0
  2  1  1  1
  3  2  1  0
  4  5  2  0
  4  3  1  0
  6  5  1  0
  7  6  2  0
  8  7  1  0
  8  9  2  0
  9  4  1  0
 10 11  2  0
 10  2  1  0
 13 15  1  0
 13 12  1  6
 14 13  1  0
 15 16  1  6
 16 10  1  0
 17 15  1  0
 18 17  2  0
 19 20  1  0
 20 21  1  0
 23 22  1  6
 22 21  1  0
 23 24  1  0
 24 17  1  0
 25 26  1  0
 25 23  1  0
 27 25  2  0
M  END
$$$$
