FVM.pdb
     RDKit          3D

 27 27  0  0  1  0  0  0  0  0999 V2000
    6.4469  -18.5372   25.2764 N   0  0  0  0  0  0  0  0  0  0  0  0
    6.5328  -17.1113   25.0351 C   0  0  1  0  0  0  0  0  0  0  0  0
    6.8598  -16.4492   26.3680 C   0  0  0  0  0  0  0  0  0  0  0  0
    6.6562  -14.9817   26.3015 C   0  0  0  0  0  0  0  0  0  0  0  0
    5.3767  -14.4651   26.2669 C   0  0  0  0  0  0  0  0  0  0  0  0
    5.1147  -13.1187   26.2042 C   0  0  0  0  0  0  0  0  0  0  0  0
    6.1807  -12.2402   26.1743 C   0  0  0  0  0  0  0  0  0  0  0  0
    7.4709  -12.7269   26.2076 C   0  0  0  0  0  0  0  0  0  0  0  0
    7.7007  -14.0839   26.2705 C   0  0  0  0  0  0  0  0  0  0  0  0
    7.6300  -16.8906   24.0516 C   0  0  0  0  0  0  0  0  0  0  0  0
    8.5074  -17.7696   23.8180 O   0  0  0  0  0  0  0  0  0  0  0  0
    8.6397  -13.1891   21.9509 C   0  0  0  0  0  0  0  0  0  0  0  0
    8.3056  -14.4783   21.2354 C   0  0  2  0  0  0  0  0  0  0  0  0
    6.8455  -14.3885   20.8386 C   0  0  0  0  0  0  0  0  0  0  0  0
    8.5930  -15.6089   22.1391 C   0  0  2  0  0  0  0  0  0  0  0  0
    7.7674  -15.6886   23.3135 N   0  0  0  0  0  0  0  0  0  0  0  0
   10.0271  -15.5471   22.5578 C   0  0  0  0  0  0  0  0  0  0  0  0
   10.9884  -15.4083   21.7640 O   0  0  0  0  0  0  0  0  0  0  0  0
   10.4956  -13.7670   28.7789 C   0  0  0  0  0  0  0  0  0  0  0  0
   11.7543  -14.9578   28.4328 S   0  0  0  0  0  0  0  0  0  0  0  0
   11.6429  -15.8622   26.9033 C   0  0  0  0  0  0  0  0  0  0  0  0
   11.8425  -15.0257   25.6775 C   0  0  0  0  0  0  0  0  0  0  0  0
   11.7609  -15.7294   24.3727 C   0  0  2  0  0  0  0  0  0  0  0  0
   10.3654  -15.6491   23.9403 N   0  0  0  0  0  0  0  0  0  0  0  0
   12.1532  -17.1653   24.4681 C   0  0  0  0  0  0  0  0  0  0  0  0
   11.2300  -18.1359   24.2088 O   0  0  0  0  0  0  0  0  0  0  0  0
   13.3261  -17.5158   24.7830 O   0  0  0  0  0  0  0  0  0  0  0  0
  2  1  1  1
  3  2  1  0
  4  5  2  0
  4  3  1  0
  6  5  1  0
  7  6  2  0
  8  7  1  0
  8  9  2  0
  9  4  1  0
 10 11  2  0
 10  2  1  0
 13 15  1  0
 13 12  1  1
 14 13  1  0
 15 16  1  1
 16 10  1  0
 17 15  1  0
 18 17  2  0
 19 20  1  0
 20 21  1  0
 23 22  1  1
 22 21  1  0
 23 24  1  0
 24 17  1  0
 25 26  1  0
 25 23  1  0
 27 25  2  0
M  END
$$$$
