FVM.pdb
     RDKit          3D

 27 27  0  0  1  0  0  0  0  0999 V2000
    5.7945  -16.3532   24.5860 N   0  0  0  0  0  0  0  0  0  0  0  0
    6.7278  -16.0199   23.5292 C   0  0  1  0  0  0  0  0  0  0  0  0
    6.6335  -14.5157   23.3049 C   0  0  0  0  0  0  0  0  0  0  0  0
    6.9882  -13.7672   24.5351 C   0  0  0  0  0  0  0  0  0  0  0  0
    6.0744  -13.6618   25.5643 C   0  0  0  0  0  0  0  0  0  0  0  0
    6.3347  -12.9841   26.7297 C   0  0  0  0  0  0  0  0  0  0  0  0
    7.5682  -12.3796   26.8795 C   0  0  0  0  0  0  0  0  0  0  0  0
    8.5019  -12.4678   25.8681 C   0  0  0  0  0  0  0  0  0  0  0  0
    8.2100  -13.1554   24.7104 C   0  0  0  0  0  0  0  0  0  0  0  0
    8.0892  -16.4002   24.0003 C   0  0  0  0  0  0  0  0  0  0  0  0
    8.3035  -16.7960   25.1810 O   0  0  0  0  0  0  0  0  0  0  0  0
   11.6759  -15.9889   21.7364 C   0  0  0  0  0  0  0  0  0  0  0  0
   11.2516  -17.3676   22.1891 C   0  0  2  0  0  0  0  0  0  0  0  0
   10.5887  -18.0305   20.9981 C   0  0  0  0  0  0  0  0  0  0  0  0
   10.3521  -17.2278   23.3506 C   0  0  2  0  0  0  0  0  0  0  0  0
    9.2325  -16.3453   23.1644 N   0  0  0  0  0  0  0  0  0  0  0  0
   11.1455  -16.7626   24.5295 C   0  0  0  0  0  0  0  0  0  0  0  0
   11.6881  -15.6348   24.6141 O   0  0  0  0  0  0  0  0  0  0  0  0
    8.8256  -14.8959   29.3636 C   0  0  0  0  0  0  0  0  0  0  0  0
   10.1941  -14.0371   28.6483 S   0  0  0  0  0  0  0  0  0  0  0  0
   11.2312  -14.9306   27.5099 C   0  0  0  0  0  0  0  0  0  0  0  0
   11.1904  -16.4181   27.6773 C   0  0  0  0  0  0  0  0  0  0  0  0
   12.1030  -17.2090   26.8136 C   0  0  2  0  0  0  0  0  0  0  0  0
   11.3202  -17.6280   25.6506 N   0  0  0  0  0  0  0  0  0  0  0  0
   12.6347  -18.4228   27.4983 C   0  0  0  0  0  0  0  0  0  0  0  0
   13.6114  -18.2923   28.4420 O   0  0  0  0  0  0  0  0  0  0  0  0
   12.2038  -19.5807   27.2311 O   0  0  0  0  0  0  0  0  0  0  0  0
  2  1  1  1
  3  2  1  0
  4  5  2  0
  4  3  1  0
  6  5  1  0
  7  6  2  0
  8  7  1  0
  8  9  2  0
  9  4  1  0
 10 11  2  0
 10  2  1  0
 13 15  1  0
 13 12  1  6
 14 13  1  0
 15 16  1  6
 16 10  1  0
 17 15  1  0
 18 17  2  0
 19 20  1  0
 20 21  1  0
 23 22  1  1
 22 21  1  0
 23 24  1  0
 24 17  1  0
 25 26  1  0
 25 23  1  0
 27 25  2  0
M  END
$$$$
