FVM.pdb
     RDKit          3D

 27 27  0  0  1  0  0  0  0  0999 V2000
    7.4502  -21.0078   23.7483 N   0  0  0  0  0  0  0  0  0  0  0  0
    7.1143  -19.7069   24.2902 C   0  0  1  0  0  0  0  0  0  0  0  0
    7.7315  -19.6268   25.6810 C   0  0  0  0  0  0  0  0  0  0  0  0
    7.1722  -20.6686   26.5762 C   0  0  0  0  0  0  0  0  0  0  0  0
    5.8372  -20.6321   26.9250 C   0  0  0  0  0  0  0  0  0  0  0  0
    5.2534  -21.5621   27.7493 C   0  0  0  0  0  0  0  0  0  0  0  0
    6.0381  -22.5818   28.2530 C   0  0  0  0  0  0  0  0  0  0  0  0
    7.3756  -22.6444   27.9221 C   0  0  0  0  0  0  0  0  0  0  0  0
    7.9318  -21.6956   27.0922 C   0  0  0  0  0  0  0  0  0  0  0  0
    7.7084  -18.6809   23.3879 C   0  0  0  0  0  0  0  0  0  0  0  0
    8.7581  -18.9028   22.7202 O   0  0  0  0  0  0  0  0  0  0  0  0
    6.0162  -14.7316   22.5133 C   0  0  0  0  0  0  0  0  0  0  0  0
    6.9365  -15.5285   21.6168 C   0  0  2  0  0  0  0  0  0  0  0  0
    6.0485  -16.3366   20.6917 C   0  0  0  0  0  0  0  0  0  0  0  0
    7.8103  -16.3661   22.4609 C   0  0  2  0  0  0  0  0  0  0  0  0
    7.1436  -17.3925   23.2153 N   0  0  0  0  0  0  0  0  0  0  0  0
    8.5681  -15.4866   23.4031 C   0  0  0  0  0  0  0  0  0  0  0  0
    8.7681  -14.2620   23.2187 O   0  0  0  0  0  0  0  0  0  0  0  0
    6.8656  -10.3479   26.0873 C   0  0  0  0  0  0  0  0  0  0  0  0
    7.0015  -12.0720   26.4490 S   0  0  0  0  0  0  0  0  0  0  0  0
    8.4103  -12.9472   25.8017 C   0  0  0  0  0  0  0  0  0  0  0  0
    8.4566  -14.3978   26.1702 C   0  0  0  0  0  0  0  0  0  0  0  0
    9.6186  -15.1739   25.6685 C   0  0  2  0  0  0  0  0  0  0  0  0
    9.1152  -16.0378   24.6002 N   0  0  0  0  0  0  0  0  0  0  0  0
   10.2401  -16.0257   26.7234 C   0  0  0  0  0  0  0  0  0  0  0  0
   10.1012  -17.3818   26.6647 O   0  0  0  0  0  0  0  0  0  0  0  0
   10.8996  -15.5269   27.6794 O   0  0  0  0  0  0  0  0  0  0  0  0
  2  1  1  6
  3  2  1  0
  4  5  2  0
  4  3  1  0
  6  5  1  0
  7  6  2  0
  8  7  1  0
  8  9  2  0
  9  4  1  0
 10 11  2  0
 10  2  1  0
 13 15  1  0
 13 12  1  1
 14 13  1  0
 15 16  1  1
 16 10  1  0
 17 15  1  0
 18 17  2  0
 19 20  1  0
 20 21  1  0
 23 22  1  1
 22 21  1  0
 23 24  1  0
 24 17  1  0
 25 26  1  0
 25 23  1  0
 27 25  2  0
M  END
$$$$
