FVM.pdb
     RDKit          3D

 27 27  0  0  1  0  0  0  0  0999 V2000
    8.6307  -17.8169   16.7167 N   0  0  0  0  0  0  0  0  0  0  0  0
    7.7703  -17.8095   17.8823 C   0  0  1  0  0  0  0  0  0  0  0  0
    7.7546  -19.2282   18.4378 C   0  0  0  0  0  0  0  0  0  0  0  0
    7.0739  -20.1606   17.5068 C   0  0  0  0  0  0  0  0  0  0  0  0
    5.7591  -19.9393   17.1497 C   0  0  0  0  0  0  0  0  0  0  0  0
    5.0673  -20.7610   16.2945 C   0  0  0  0  0  0  0  0  0  0  0  0
    5.7169  -21.8605   15.7668 C   0  0  0  0  0  0  0  0  0  0  0  0
    7.0310  -22.1076   16.1052 C   0  0  0  0  0  0  0  0  0  0  0  0
    7.6978  -21.2637   16.9664 C   0  0  0  0  0  0  0  0  0  0  0  0
    8.3628  -16.8620   18.8678 C   0  0  0  0  0  0  0  0  0  0  0  0
    9.6122  -16.7182   18.9916 O   0  0  0  0  0  0  0  0  0  0  0  0
    7.2034  -13.2078   19.4461 C   0  0  0  0  0  0  0  0  0  0  0  0
    7.4039  -13.8477   20.8012 C   0  0  2  0  0  0  0  0  0  0  0  0
    8.1270  -12.8289   21.6594 C   0  0  0  0  0  0  0  0  0  0  0  0
    8.1625  -15.1010   20.6247 C   0  0  2  0  0  0  0  0  0  0  0  0
    7.5739  -16.0607   19.7304 N   0  0  0  0  0  0  0  0  0  0  0  0
    8.3636  -15.7424   21.9603 C   0  0  0  0  0  0  0  0  0  0  0  0
    7.6124  -16.6254   22.4392 O   0  0  0  0  0  0  0  0  0  0  0  0
   11.3410  -20.2420   20.8319 C   0  0  0  0  0  0  0  0  0  0  0  0
   12.4365  -19.4246   21.9516 S   0  0  0  0  0  0  0  0  0  0  0  0
   11.7218  -18.3367   23.1663 C   0  0  0  0  0  0  0  0  0  0  0  0
   10.8904  -17.2324   22.5905 C   0  0  0  0  0  0  0  0  0  0  0  0
   10.2128  -16.3359   23.5608 C   0  0  2  0  0  0  0  0  0  0  0  0
    9.4696  -15.3520   22.7731 N   0  0  0  0  0  0  0  0  0  0  0  0
   11.1731  -15.6166   24.4469 C   0  0  0  0  0  0  0  0  0  0  0  0
   11.1381  -15.8296   25.7941 O   0  0  0  0  0  0  0  0  0  0  0  0
   12.0286  -14.8088   23.9850 O   0  0  0  0  0  0  0  0  0  0  0  0
  2  1  1  6
  3  2  1  0
  4  5  2  0
  4  3  1  0
  6  5  1  0
  7  6  2  0
  8  7  1  0
  8  9  2  0
  9  4  1  0
 10 11  2  0
 10  2  1  0
 13 15  1  0
 13 12  1  6
 14 13  1  0
 15 16  1  6
 16 10  1  0
 17 15  1  0
 18 17  2  0
 19 20  1  0
 20 21  1  0
 23 22  1  6
 22 21  1  0
 23 24  1  0
 24 17  1  0
 25 26  1  0
 25 23  1  0
 27 25  2  0
M  END
$$$$
