FVM.pdb
     RDKit          3D

 27 27  0  0  1  0  0  0  0  0999 V2000
    6.1425  -18.4874   21.3212 N   0  0  0  0  0  0  0  0  0  0  0  0
    6.2576  -18.5717   22.7629 C   0  0  1  0  0  0  0  0  0  0  0  0
    6.7410  -19.9784   23.0933 C   0  0  0  0  0  0  0  0  0  0  0  0
    6.9315  -20.1503   24.5540 C   0  0  0  0  0  0  0  0  0  0  0  0
    5.8626  -20.5097   25.3500 C   0  0  0  0  0  0  0  0  0  0  0  0
    5.9664  -20.6850   26.7079 C   0  0  0  0  0  0  0  0  0  0  0  0
    7.1973  -20.4928   27.3055 C   0  0  0  0  0  0  0  0  0  0  0  0
    8.2839  -20.1331   26.5358 C   0  0  0  0  0  0  0  0  0  0  0  0
    8.1472  -19.9650   25.1752 C   0  0  0  0  0  0  0  0  0  0  0  0
    7.2585  -17.5543   23.1907 C   0  0  0  0  0  0  0  0  0  0  0  0
    8.3878  -17.4495   22.6334 O   0  0  0  0  0  0  0  0  0  0  0  0
    6.5118  -14.4608   26.1045 C   0  0  0  0  0  0  0  0  0  0  0  0
    7.5913  -14.3805   25.0490 C   0  0  2  0  0  0  0  0  0  0  0  0
    6.9857  -13.6564   23.8631 C   0  0  0  0  0  0  0  0  0  0  0  0
    8.0397  -15.7489   24.7263 C   0  0  2  0  0  0  0  0  0  0  0  0
    7.0178  -16.6384   24.2451 N   0  0  0  0  0  0  0  0  0  0  0  0
    8.6771  -16.3521   25.9368 C   0  0  0  0  0  0  0  0  0  0  0  0
    8.3738  -17.4741   26.4089 O   0  0  0  0  0  0  0  0  0  0  0  0
    9.3996  -14.3891   29.9645 C   0  0  0  0  0  0  0  0  0  0  0  0
   10.7084  -13.4257   29.2709 S   0  0  0  0  0  0  0  0  0  0  0  0
   11.2379  -13.8145   27.6161 C   0  0  0  0  0  0  0  0  0  0  0  0
   11.8589  -15.1693   27.4707 C   0  0  0  0  0  0  0  0  0  0  0  0
   11.0350  -16.2096   26.8047 C   0  0  2  0  0  0  0  0  0  0  0  0
    9.7002  -15.6370   26.6283 N   0  0  0  0  0  0  0  0  0  0  0  0
   10.9202  -17.4574   27.6137 C   0  0  0  0  0  0  0  0  0  0  0  0
   12.0187  -18.2450   27.7996 O   0  0  0  0  0  0  0  0  0  0  0  0
    9.8268  -17.8119   28.1397 O   0  0  0  0  0  0  0  0  0  0  0  0
  2  1  1  6
  3  2  1  0
  4  5  2  0
  4  3  1  0
  6  5  1  0
  7  6  2  0
  8  7  1  0
  8  9  2  0
  9  4  1  0
 10 11  2  0
 10  2  1  0
 13 15  1  0
 13 12  1  1
 14 13  1  0
 15 16  1  1
 16 10  1  0
 17 15  1  0
 18 17  2  0
 19 20  1  0
 20 21  1  0
 23 22  1  1
 22 21  1  0
 23 24  1  0
 24 17  1  0
 25 26  1  0
 25 23  1  0
 27 25  2  0
M  END
$$$$
