FVM.pdb
     RDKit          3D

 27 27  0  0  1  0  0  0  0  0999 V2000
    6.4017  -17.2180   20.2164 N   0  0  0  0  0  0  0  0  0  0  0  0
    7.5050  -16.5575   20.8838 C   0  0  1  0  0  0  0  0  0  0  0  0
    7.0019  -15.1936   21.3404 C   0  0  0  0  0  0  0  0  0  0  0  0
    7.4188  -14.1262   20.3991 C   0  0  0  0  0  0  0  0  0  0  0  0
    6.5988  -13.7798   19.3441 C   0  0  0  0  0  0  0  0  0  0  0  0
    6.9215  -12.8030   18.4347 C   0  0  0  0  0  0  0  0  0  0  0  0
    8.1224  -12.1357   18.5821 C   0  0  0  0  0  0  0  0  0  0  0  0
    8.9627  -12.4598   19.6267 C   0  0  0  0  0  0  0  0  0  0  0  0
    8.6100  -13.4452   20.5228 C   0  0  0  0  0  0  0  0  0  0  0  0
    7.8872  -17.3988   22.0526 C   0  0  0  0  0  0  0  0  0  0  0  0
    7.0429  -18.1019   22.6769 O   0  0  0  0  0  0  0  0  0  0  0  0
   10.6591  -20.0364   22.5882 C   0  0  0  0  0  0  0  0  0  0  0  0
   10.7961  -18.9885   23.6694 C   0  0  2  0  0  0  0  0  0  0  0  0
   11.1026  -19.7296   24.9556 C   0  0  0  0  0  0  0  0  0  0  0  0
    9.5452  -18.2083   23.7329 C   0  0  2  0  0  0  0  0  0  0  0  0
    9.2145  -17.4701   22.5442 N   0  0  0  0  0  0  0  0  0  0  0  0
    9.6186  -17.2610   24.8874 C   0  0  0  0  0  0  0  0  0  0  0  0
    9.7962  -17.6126   26.0783 O   0  0  0  0  0  0  0  0  0  0  0  0
    6.2065  -11.0689   27.9694 C   0  0  0  0  0  0  0  0  0  0  0  0
    6.3965  -12.5649   27.0486 S   0  0  0  0  0  0  0  0  0  0  0  0
    8.0124  -13.3109   27.0018 C   0  0  0  0  0  0  0  0  0  0  0  0
    8.2130  -14.2750   25.8738 C   0  0  0  0  0  0  0  0  0  0  0  0
    9.5535  -14.9046   25.7685 C   0  0  2  0  0  0  0  0  0  0  0  0
    9.4822  -15.8586   24.6614 N   0  0  0  0  0  0  0  0  0  0  0  0
    9.9448  -15.6351   27.0087 C   0  0  0  0  0  0  0  0  0  0  0  0
   10.1384  -16.9850   26.9644 O   0  0  0  0  0  0  0  0  0  0  0  0
   10.1061  -15.0376   28.1108 O   0  0  0  0  0  0  0  0  0  0  0  0
  2  1  1  1
  3  2  1  0
  4  5  2  0
  4  3  1  0
  6  5  1  0
  7  6  2  0
  8  7  1  0
  8  9  2  0
  9  4  1  0
 10 11  2  0
 10  2  1  0
 13 15  1  0
 13 12  1  6
 14 13  1  0
 15 16  1  6
 16 10  1  0
 17 15  1  0
 18 17  2  0
 19 20  1  0
 20 21  1  0
 23 22  1  1
 22 21  1  0
 23 24  1  0
 24 17  1  0
 25 26  1  0
 25 23  1  0
 27 25  2  0
M  END
$$$$
