FVM.pdb
     RDKit          3D

 27 27  0  0  1  0  0  0  0  0999 V2000
    7.0219  -17.9043   20.1057 N   0  0  0  0  0  0  0  0  0  0  0  0
    7.7057  -16.7466   20.6453 C   0  0  1  0  0  0  0  0  0  0  0  0
    6.6930  -15.6091   20.6937 C   0  0  0  0  0  0  0  0  0  0  0  0
    7.3318  -14.3410   21.1217 C   0  0  0  0  0  0  0  0  0  0  0  0
    7.8883  -13.4986   20.1804 C   0  0  0  0  0  0  0  0  0  0  0  0
    8.4959  -12.3109   20.5051 C   0  0  0  0  0  0  0  0  0  0  0  0
    8.5533  -11.9416   21.8353 C   0  0  0  0  0  0  0  0  0  0  0  0
    8.0059  -12.7630   22.7987 C   0  0  0  0  0  0  0  0  0  0  0  0
    7.4028  -13.9488   22.4405 C   0  0  0  0  0  0  0  0  0  0  0  0
    8.1690  -17.1012   22.0162 C   0  0  0  0  0  0  0  0  0  0  0  0
    7.4402  -17.7427   22.8250 O   0  0  0  0  0  0  0  0  0  0  0  0
   12.2577  -17.2771   23.0718 C   0  0  0  0  0  0  0  0  0  0  0  0
   11.1426  -18.0676   23.7180 C   0  0  2  0  0  0  0  0  0  0  0  0
   10.9556  -19.3176   22.8814 C   0  0  0  0  0  0  0  0  0  0  0  0
    9.9350  -17.2214   23.7754 C   0  0  2  0  0  0  0  0  0  0  0  0
    9.4503  -16.7469   22.5077 N   0  0  0  0  0  0  0  0  0  0  0  0
   10.2026  -16.0479   24.6624 C   0  0  0  0  0  0  0  0  0  0  0  0
   10.8570  -15.0356   24.3149 O   0  0  0  0  0  0  0  0  0  0  0  0
    5.7447  -13.5276   27.5210 C   0  0  0  0  0  0  0  0  0  0  0  0
    7.0902  -12.5200   26.9765 S   0  0  0  0  0  0  0  0  0  0  0  0
    8.7350  -12.9994   27.4611 C   0  0  0  0  0  0  0  0  0  0  0  0
    8.9307  -14.4778   27.5962 C   0  0  0  0  0  0  0  0  0  0  0  0
   10.1513  -15.0461   26.9705 C   0  0  2  0  0  0  0  0  0  0  0  0
    9.6986  -16.0407   25.9974 N   0  0  0  0  0  0  0  0  0  0  0  0
   11.0470  -15.7134   27.9591 C   0  0  0  0  0  0  0  0  0  0  0  0
   11.8302  -14.9552   28.7798 O   0  0  0  0  0  0  0  0  0  0  0  0
   11.1034  -16.9718   28.0636 O   0  0  0  0  0  0  0  0  0  0  0  0
  2  1  1  1
  3  2  1  0
  4  5  2  0
  4  3  1  0
  6  5  1  0
  7  6  2  0
  8  7  1  0
  8  9  2  0
  9  4  1  0
 10 11  2  0
 10  2  1  0
 13 15  1  0
 13 12  1  6
 14 13  1  0
 15 16  1  6
 16 10  1  0
 17 15  1  0
 18 17  2  0
 19 20  1  0
 20 21  1  0
 23 22  1  1
 22 21  1  0
 23 24  1  0
 24 17  1  0
 25 26  1  0
 25 23  1  0
 27 25  2  0
M  END
$$$$
