FVM.pdb
     RDKit          3D

 27 27  0  0  1  0  0  0  0  0999 V2000
    6.5186  -16.4240   25.0980 N   0  0  0  0  0  0  0  0  0  0  0  0
    6.9899  -15.2415   24.4063 C   0  0  1  0  0  0  0  0  0  0  0  0
    8.0406  -14.5893   25.2965 C   0  0  0  0  0  0  0  0  0  0  0  0
    7.4654  -13.4580   26.0637 C   0  0  0  0  0  0  0  0  0  0  0  0
    6.4453  -12.7045   25.5187 C   0  0  0  0  0  0  0  0  0  0  0  0
    5.8673  -11.6438   26.1713 C   0  0  0  0  0  0  0  0  0  0  0  0
    6.3277  -11.3150   27.4319 C   0  0  0  0  0  0  0  0  0  0  0  0
    7.3461  -12.0497   28.0026 C   0  0  0  0  0  0  0  0  0  0  0  0
    7.9055  -13.1088   27.3217 C   0  0  0  0  0  0  0  0  0  0  0  0
    7.5912  -15.6882   23.1184 C   0  0  0  0  0  0  0  0  0  0  0  0
    8.0644  -16.8501   22.9670 O   0  0  0  0  0  0  0  0  0  0  0  0
    9.2420  -13.1957   19.8992 C   0  0  0  0  0  0  0  0  0  0  0  0
    8.2629  -14.3195   19.6457 C   0  0  2  0  0  0  0  0  0  0  0  0
    6.8982  -13.6789   19.4891 C   0  0  0  0  0  0  0  0  0  0  0  0
    8.3321  -15.2701   20.7723 C   0  0  2  0  0  0  0  0  0  0  0  0
    7.6752  -14.8485   21.9797 N   0  0  0  0  0  0  0  0  0  0  0  0
    9.7664  -15.5624   21.0773 C   0  0  0  0  0  0  0  0  0  0  0  0
   10.4389  -14.9618   21.9494 O   0  0  0  0  0  0  0  0  0  0  0  0
   15.3860  -14.0954   19.5991 C   0  0  0  0  0  0  0  0  0  0  0  0
   14.2561  -14.4844   18.2975 S   0  0  0  0  0  0  0  0  0  0  0  0
   12.7307  -15.2909   18.7363 C   0  0  0  0  0  0  0  0  0  0  0  0
   12.5852  -15.5793   20.1984 C   0  0  0  0  0  0  0  0  0  0  0  0
   11.8766  -16.8327   20.5609 C   0  0  2  0  0  0  0  0  0  0  0  0
   10.4502  -16.5828   20.3511 N   0  0  0  0  0  0  0  0  0  0  0  0
   12.0923  -17.2244   21.9839 C   0  0  0  0  0  0  0  0  0  0  0  0
   13.2874  -17.7630   22.3621 O   0  0  0  0  0  0  0  0  0  0  0  0
   11.1947  -17.0703   22.8604 O   0  0  0  0  0  0  0  0  0  0  0  0
  2  1  1  1
  3  2  1  0
  4  5  2  0
  4  3  1  0
  6  5  1  0
  7  6  2  0
  8  7  1  0
  8  9  2  0
  9  4  1  0
 10 11  2  0
 10  2  1  0
 13 15  1  0
 13 12  1  1
 14 13  1  0
 15 16  1  1
 16 10  1  0
 17 15  1  0
 18 17  2  0
 19 20  1  0
 20 21  1  0
 23 22  1  1
 22 21  1  0
 23 24  1  0
 24 17  1  0
 25 26  1  0
 25 23  1  0
 27 25  2  0
M  END
$$$$
