FVM.pdb
     RDKit          3D

 27 27  0  0  1  0  0  0  0  0999 V2000
    5.9555  -18.1786   25.6296 N   0  0  0  0  0  0  0  0  0  0  0  0
    6.1466  -16.7721   25.3396 C   0  0  1  0  0  0  0  0  0  0  0  0
    6.5419  -16.0940   26.6456 C   0  0  0  0  0  0  0  0  0  0  0  0
    6.3527  -14.6253   26.5654 C   0  0  0  0  0  0  0  0  0  0  0  0
    7.4509  -13.7891   26.5568 C   0  0  0  0  0  0  0  0  0  0  0  0
    7.3499  -12.4217   26.4854 C   0  0  0  0  0  0  0  0  0  0  0  0
    6.0910  -11.8561   26.4192 C   0  0  0  0  0  0  0  0  0  0  0  0
    4.9747  -12.6661   26.4259 C   0  0  0  0  0  0  0  0  0  0  0  0
    5.1095  -14.0354   26.4984 C   0  0  0  0  0  0  0  0  0  0  0  0
    7.2436  -16.6686   24.3367 C   0  0  0  0  0  0  0  0  0  0  0  0
    8.1969  -17.4972   24.2984 O   0  0  0  0  0  0  0  0  0  0  0  0
    9.0125  -14.9639   20.0907 C   0  0  0  0  0  0  0  0  0  0  0  0
    7.9384  -14.7892   21.1403 C   0  0  2  0  0  0  0  0  0  0  0  0
    7.9179  -13.3167   21.4992 C   0  0  0  0  0  0  0  0  0  0  0  0
    8.2523  -15.6620   22.2880 C   0  0  2  0  0  0  0  0  0  0  0  0
    7.2962  -15.6414   23.3617 N   0  0  0  0  0  0  0  0  0  0  0  0
    9.5967  -15.2933   22.8287 C   0  0  0  0  0  0  0  0  0  0  0  0
    9.9202  -14.1349   23.1853 O   0  0  0  0  0  0  0  0  0  0  0  0
   11.0126  -12.9822   27.4779 C   0  0  0  0  0  0  0  0  0  0  0  0
   11.7795  -14.5676   27.6212 S   0  0  0  0  0  0  0  0  0  0  0  0
   12.3830  -15.3351   26.1323 C   0  0  0  0  0  0  0  0  0  0  0  0
   11.3300  -15.5827   25.0970 C   0  0  0  0  0  0  0  0  0  0  0  0
   11.8004  -16.0595   23.7719 C   0  0  2  0  0  0  0  0  0  0  0  0
   10.6042  -16.2948   22.9629 N   0  0  0  0  0  0  0  0  0  0  0  0
   12.5786  -17.3289   23.8605 C   0  0  0  0  0  0  0  0  0  0  0  0
   13.8494  -17.3084   24.3568 O   0  0  0  0  0  0  0  0  0  0  0  0
   12.0932  -18.4351   23.4884 O   0  0  0  0  0  0  0  0  0  0  0  0
  2  1  1  1
  3  2  1  0
  4  5  2  0
  4  3  1  0
  6  5  1  0
  7  6  2  0
  8  7  1  0
  8  9  2  0
  9  4  1  0
 10 11  2  0
 10  2  1  0
 13 15  1  0
 13 12  1  6
 14 13  1  0
 15 16  1  1
 16 10  1  0
 17 15  1  0
 18 17  2  0
 19 20  1  0
 20 21  1  0
 23 22  1  1
 22 21  1  0
 23 24  1  0
 24 17  1  0
 25 26  1  0
 25 23  1  0
 27 25  2  0
M  END
$$$$
