FVM.pdb
     RDKit          3D

 27 27  0  0  1  0  0  0  0  0999 V2000
    5.6363  -18.2329   24.6760 N   0  0  0  0  0  0  0  0  0  0  0  0
    6.1614  -16.8843   24.7413 C   0  0  1  0  0  0  0  0  0  0  0  0
    6.7055  -16.6819   26.1501 C   0  0  0  0  0  0  0  0  0  0  0  0
    7.0416  -15.2584   26.3952 C   0  0  0  0  0  0  0  0  0  0  0  0
    8.3589  -14.8470   26.3648 C   0  0  0  0  0  0  0  0  0  0  0  0
    8.7420  -13.5468   26.5835 C   0  0  0  0  0  0  0  0  0  0  0  0
    7.7643  -12.6064   26.8461 C   0  0  0  0  0  0  0  0  0  0  0  0
    6.4392  -12.9877   26.8830 C   0  0  0  0  0  0  0  0  0  0  0  0
    6.0870  -14.3008   26.6593 C   0  0  0  0  0  0  0  0  0  0  0  0
    7.2533  -16.7816   23.7327 C   0  0  0  0  0  0  0  0  0  0  0  0
    7.9885  -17.7664   23.4384 O   0  0  0  0  0  0  0  0  0  0  0  0
    8.3295  -13.1205   21.7060 C   0  0  0  0  0  0  0  0  0  0  0  0
    8.4137  -14.4650   21.0196 C   0  0  2  0  0  0  0  0  0  0  0  0
    7.1389  -14.6218   20.2148 C   0  0  0  0  0  0  0  0  0  0  0  0
    8.5839  -15.5106   22.0470 C   0  0  2  0  0  0  0  0  0  0  0  0
    7.5435  -15.5816   23.0368 N   0  0  0  0  0  0  0  0  0  0  0  0
    9.8957  -15.3095   22.7357 C   0  0  0  0  0  0  0  0  0  0  0  0
   10.5703  -14.2537   22.6743 O   0  0  0  0  0  0  0  0  0  0  0  0
    9.9300  -12.3264   27.7441 C   0  0  0  0  0  0  0  0  0  0  0  0
   10.1978  -14.0463   28.0478 S   0  0  0  0  0  0  0  0  0  0  0  0
   11.2321  -14.9393   26.9065 C   0  0  0  0  0  0  0  0  0  0  0  0
   10.5991  -15.1972   25.5742 C   0  0  0  0  0  0  0  0  0  0  0  0
   11.3483  -16.0770   24.6420 C   0  0  2  0  0  0  0  0  0  0  0  0
   10.4500  -16.3627   23.5230 N   0  0  0  0  0  0  0  0  0  0  0  0
   11.7577  -17.3659   25.2715 C   0  0  0  0  0  0  0  0  0  0  0  0
   11.2051  -18.5351   24.8365 O   0  0  0  0  0  0  0  0  0  0  0  0
   12.6103  -17.4106   26.2036 O   0  0  0  0  0  0  0  0  0  0  0  0
  2  1  1  1
  3  2  1  0
  4  5  2  0
  4  3  1  0
  6  5  1  0
  7  6  2  0
  8  7  1  0
  8  9  2  0
  9  4  1  0
 10 11  2  0
 10  2  1  0
 13 15  1  0
 13 12  1  1
 14 13  1  0
 15 16  1  1
 16 10  1  0
 17 15  1  0
 18 17  2  0
 19 20  1  0
 20 21  1  0
 23 22  1  1
 22 21  1  0
 23 24  1  0
 24 17  1  0
 25 26  1  0
 25 23  1  0
 27 25  2  0
M  END
$$$$
