FVM.pdb
     RDKit          3D

 27 27  0  0  1  0  0  0  0  0999 V2000
    7.3152  -17.6228   18.1840 N   0  0  0  0  0  0  0  0  0  0  0  0
    7.9167  -16.5374   18.9317 C   0  0  1  0  0  0  0  0  0  0  0  0
    6.8639  -15.4435   19.0609 C   0  0  0  0  0  0  0  0  0  0  0  0
    7.3770  -14.2964   19.8485 C   0  0  0  0  0  0  0  0  0  0  0  0
    8.1237  -13.3148   19.2287 C   0  0  0  0  0  0  0  0  0  0  0  0
    8.6306  -12.2269   19.8957 C   0  0  0  0  0  0  0  0  0  0  0  0
    8.3819  -12.1090   21.2497 C   0  0  0  0  0  0  0  0  0  0  0  0
    7.6387  -13.0742   21.8966 C   0  0  0  0  0  0  0  0  0  0  0  0
    7.1439  -14.1544   21.1989 C   0  0  0  0  0  0  0  0  0  0  0  0
    8.2908  -17.0723   20.2711 C   0  0  0  0  0  0  0  0  0  0  0  0
    7.4827  -17.7422   20.9748 O   0  0  0  0  0  0  0  0  0  0  0  0
   12.3101  -17.2226   21.6296 C   0  0  0  0  0  0  0  0  0  0  0  0
   11.2373  -18.1745   22.1078 C   0  0  2  0  0  0  0  0  0  0  0  0
   11.2707  -19.3695   21.1760 C   0  0  0  0  0  0  0  0  0  0  0  0
    9.9413  -17.4688   22.1004 C   0  0  2  0  0  0  0  0  0  0  0  0
    9.5695  -16.8694   20.8475 N   0  0  0  0  0  0  0  0  0  0  0  0
    9.9545  -16.4123   23.1584 C   0  0  0  0  0  0  0  0  0  0  0  0
   10.6231  -15.3532   23.0895 O   0  0  0  0  0  0  0  0  0  0  0  0
    6.2301  -11.7275   27.8180 C   0  0  0  0  0  0  0  0  0  0  0  0
    6.3044  -13.1101   26.7202 S   0  0  0  0  0  0  0  0  0  0  0  0
    7.7104  -14.1951   26.8461 C   0  0  0  0  0  0  0  0  0  0  0  0
    7.8945  -15.1033   25.6700 C   0  0  0  0  0  0  0  0  0  0  0  0
    9.2626  -15.6366   25.4503 C   0  0  2  0  0  0  0  0  0  0  0  0
    9.1696  -16.5825   24.3379 N   0  0  0  0  0  0  0  0  0  0  0  0
    9.8004  -16.3500   26.6447 C   0  0  0  0  0  0  0  0  0  0  0  0
   10.2672  -15.6317   27.7067 O   0  0  0  0  0  0  0  0  0  0  0  0
    9.8366  -17.6120   26.7064 O   0  0  0  0  0  0  0  0  0  0  0  0
  2  1  1  6
  3  2  1  0
  4  5  2  0
  4  3  1  0
  6  5  1  0
  7  6  2  0
  8  7  1  0
  8  9  2  0
  9  4  1  0
 10 11  2  0
 10  2  1  0
 13 15  1  0
 13 12  1  6
 14 13  1  0
 15 16  1  6
 16 10  1  0
 17 15  1  0
 18 17  2  0
 19 20  1  0
 20 21  1  0
 23 22  1  1
 22 21  1  0
 23 24  1  0
 24 17  1  0
 25 26  1  0
 25 23  1  0
 27 25  2  0
M  END
$$$$
