FVM.pdb
     RDKit          3D

 27 27  0  0  1  0  0  0  0  0999 V2000
    7.2404  -20.1543   21.8242 N   0  0  0  0  0  0  0  0  0  0  0  0
    6.7163  -18.9693   22.4722 C   0  0  1  0  0  0  0  0  0  0  0  0
    6.5587  -19.2991   23.9515 C   0  0  0  0  0  0  0  0  0  0  0  0
    5.5441  -20.3607   24.1586 C   0  0  0  0  0  0  0  0  0  0  0  0
    5.8608  -21.4801   24.9016 C   0  0  0  0  0  0  0  0  0  0  0  0
    4.9723  -22.5010   25.1325 C   0  0  0  0  0  0  0  0  0  0  0  0
    3.7024  -22.4040   24.5965 C   0  0  0  0  0  0  0  0  0  0  0  0
    3.3568  -21.2972   23.8495 C   0  0  0  0  0  0  0  0  0  0  0  0
    4.2715  -20.2893   23.6357 C   0  0  0  0  0  0  0  0  0  0  0  0
    7.7109  -17.8773   22.2768 C   0  0  0  0  0  0  0  0  0  0  0  0
    8.9493  -18.1086   22.1776 O   0  0  0  0  0  0  0  0  0  0  0  0
    6.9989  -13.4811   22.3302 C   0  0  0  0  0  0  0  0  0  0  0  0
    7.7613  -14.2590   21.2816 C   0  0  2  0  0  0  0  0  0  0  0  0
    6.7851  -14.5439   20.1576 C   0  0  0  0  0  0  0  0  0  0  0  0
    8.3046  -15.4824   21.9026 C   0  0  2  0  0  0  0  0  0  0  0  0
    7.3424  -16.5116   22.1890 N   0  0  0  0  0  0  0  0  0  0  0  0
    9.0128  -15.1151   23.1672 C   0  0  0  0  0  0  0  0  0  0  0  0
    9.9687  -14.3053   23.2309 O   0  0  0  0  0  0  0  0  0  0  0  0
    5.3696  -12.5125   26.8599 C   0  0  0  0  0  0  0  0  0  0  0  0
    7.0313  -12.3970   27.4493 S   0  0  0  0  0  0  0  0  0  0  0  0
    8.3104  -13.1708   26.4824 C   0  0  0  0  0  0  0  0  0  0  0  0
    8.2771  -14.6677   26.5025 C   0  0  0  0  0  0  0  0  0  0  0  0
    9.2783  -15.3658   25.6572 C   0  0  2  0  0  0  0  0  0  0  0  0
    8.6051  -15.7020   24.4023 N   0  0  0  0  0  0  0  0  0  0  0  0
    9.7842  -16.6216   26.2832 C   0  0  0  0  0  0  0  0  0  0  0  0
    9.5459  -17.8211   25.6782 O   0  0  0  0  0  0  0  0  0  0  0  0
   10.4348  -16.6103   27.3668 O   0  0  0  0  0  0  0  0  0  0  0  0
  2  1  1  6
  3  2  1  0
  4  5  2  0
  4  3  1  0
  6  5  1  0
  7  6  2  0
  8  7  1  0
  8  9  2  0
  9  4  1  0
 10 11  2  0
 10  2  1  0
 13 15  1  0
 13 12  1  1
 14 13  1  0
 15 16  1  1
 16 10  1  0
 17 15  1  0
 18 17  2  0
 19 20  1  0
 20 21  1  0
 23 22  1  1
 22 21  1  0
 23 24  1  0
 24 17  1  0
 25 26  1  0
 25 23  1  0
 27 25  2  0
M  END
$$$$
