FVM.pdb
     RDKit          3D

 27 27  0  0  1  0  0  0  0  0999 V2000
    6.8731  -18.4719   25.6017 N   0  0  0  0  0  0  0  0  0  0  0  0
    6.3262  -17.7757   24.4549 C   0  0  1  0  0  0  0  0  0  0  0  0
    5.3978  -16.6917   24.9884 C   0  0  0  0  0  0  0  0  0  0  0  0
    6.1532  -15.6643   25.7456 C   0  0  0  0  0  0  0  0  0  0  0  0
    5.9194  -14.3246   25.5095 C   0  0  0  0  0  0  0  0  0  0  0  0
    6.5820  -13.3211   26.1722 C   0  0  0  0  0  0  0  0  0  0  0  0
    7.5265  -13.6679   27.1192 C   0  0  0  0  0  0  0  0  0  0  0  0
    7.7819  -14.9987   27.3769 C   0  0  0  0  0  0  0  0  0  0  0  0
    7.0998  -15.9824   26.6947 C   0  0  0  0  0  0  0  0  0  0  0  0
    7.4690  -17.1746   23.7114 C   0  0  0  0  0  0  0  0  0  0  0  0
    8.6035  -17.7292   23.6639 O   0  0  0  0  0  0  0  0  0  0  0  0
    7.9093  -13.1621   22.0437 C   0  0  0  0  0  0  0  0  0  0  0  0
    7.9556  -14.4034   21.1819 C   0  0  2  0  0  0  0  0  0  0  0  0
    6.5810  -14.5517   20.5605 C   0  0  0  0  0  0  0  0  0  0  0  0
    8.3377  -15.5516   22.0266 C   0  0  2  0  0  0  0  0  0  0  0  0
    7.3665  -15.9474   23.0101 N   0  0  0  0  0  0  0  0  0  0  0  0
    9.6279  -15.2426   22.7161 C   0  0  0  0  0  0  0  0  0  0  0  0
    9.9816  -14.0918   23.0685 O   0  0  0  0  0  0  0  0  0  0  0  0
   10.2661  -13.9358   29.0901 C   0  0  0  0  0  0  0  0  0  0  0  0
   10.0537  -15.2239   27.8994 S   0  0  0  0  0  0  0  0  0  0  0  0
   10.9483  -15.0920   26.3658 C   0  0  0  0  0  0  0  0  0  0  0  0
   10.6208  -16.1596   25.3682 C   0  0  0  0  0  0  0  0  0  0  0  0
   11.4614  -16.2064   24.1453 C   0  0  2  0  0  0  0  0  0  0  0  0
   10.5434  -16.2971   23.0095 N   0  0  0  0  0  0  0  0  0  0  0  0
   12.3754  -17.3848   24.1204 C   0  0  0  0  0  0  0  0  0  0  0  0
   12.1304  -18.4111   23.2553 O   0  0  0  0  0  0  0  0  0  0  0  0
   13.3814  -17.4636   24.8817 O   0  0  0  0  0  0  0  0  0  0  0  0
  2  1  1  1
  3  2  1  0
  4  5  2  0
  4  3  1  0
  6  5  1  0
  7  6  2  0
  8  7  1  0
  8  9  2  0
  9  4  1  0
 10 11  2  0
 10  2  1  0
 13 15  1  0
 13 12  1  1
 14 13  1  0
 15 16  1  1
 16 10  1  0
 17 15  1  0
 18 17  2  0
 19 20  1  0
 20 21  1  0
 23 22  1  1
 22 21  1  0
 23 24  1  0
 24 17  1  0
 25 26  1  0
 25 23  1  0
 27 25  2  0
M  END
$$$$
