FVM.pdb
     RDKit          3D

 27 27  0  0  1  0  0  0  0  0999 V2000
    6.3129  -20.4038   22.2174 N   0  0  0  0  0  0  0  0  0  0  0  0
    5.9372  -19.3189   23.1008 C   0  0  1  0  0  0  0  0  0  0  0  0
    6.0611  -19.8384   24.5279 C   0  0  0  0  0  0  0  0  0  0  0  0
    5.1764  -21.0075   24.7512 C   0  0  0  0  0  0  0  0  0  0  0  0
    5.7131  -22.2052   25.1787 C   0  0  0  0  0  0  0  0  0  0  0  0
    4.9545  -23.3272   25.4043 C   0  0  0  0  0  0  0  0  0  0  0  0
    3.5908  -23.2544   25.1938 C   0  0  0  0  0  0  0  0  0  0  0  0
    3.0257  -22.0710   24.7665 C   0  0  0  0  0  0  0  0  0  0  0  0
    3.8144  -20.9624   24.5490 C   0  0  0  0  0  0  0  0  0  0  0  0
    6.8896  -18.1984   22.8612 C   0  0  0  0  0  0  0  0  0  0  0  0
    8.1208  -18.3974   22.6578 O   0  0  0  0  0  0  0  0  0  0  0  0
    6.2259  -14.8200   20.7745 C   0  0  0  0  0  0  0  0  0  0  0  0
    6.8697  -14.5193   22.1090 C   0  0  2  0  0  0  0  0  0  0  0  0
    7.9213  -13.4579   21.8541 C   0  0  0  0  0  0  0  0  0  0  0  0
    7.4286  -15.7703   22.6570 C   0  0  2  0  0  0  0  0  0  0  0  0
    6.4862  -16.8399   22.8446 N   0  0  0  0  0  0  0  0  0  0  0  0
    8.0950  -15.4766   23.9629 C   0  0  0  0  0  0  0  0  0  0  0  0
    7.5702  -14.8135   24.8894 O   0  0  0  0  0  0  0  0  0  0  0  0
    9.4204  -15.4565   30.0346 C   0  0  0  0  0  0  0  0  0  0  0  0
    9.6885  -14.0883   28.9490 S   0  0  0  0  0  0  0  0  0  0  0  0
   10.5542  -14.3963   27.4240 C   0  0  0  0  0  0  0  0  0  0  0  0
    9.7023  -14.9797   26.3394 C   0  0  0  0  0  0  0  0  0  0  0  0
   10.3592  -15.2037   25.0269 C   0  0  2  0  0  0  0  0  0  0  0  0
    9.4132  -15.9641   24.2098 N   0  0  0  0  0  0  0  0  0  0  0  0
   11.6271  -15.9806   25.1435 C   0  0  0  0  0  0  0  0  0  0  0  0
   11.9722  -16.5336   26.3421 O   0  0  0  0  0  0  0  0  0  0  0  0
   12.3997  -16.1464   24.1569 O   0  0  0  0  0  0  0  0  0  0  0  0
  2  1  1  6
  3  2  1  0
  4  5  2  0
  4  3  1  0
  6  5  1  0
  7  6  2  0
  8  7  1  0
  8  9  2  0
  9  4  1  0
 10 11  2  0
 10  2  1  0
 13 15  1  0
 13 12  1  6
 14 13  1  0
 15 16  1  1
 16 10  1  0
 17 15  1  0
 18 17  2  0
 19 20  1  0
 20 21  1  0
 23 22  1  1
 22 21  1  0
 23 24  1  0
 24 17  1  0
 25 26  1  0
 25 23  1  0
 27 25  2  0
M  END
$$$$
