GMM.pdb
     RDKit          3D

 21 20  0  0  1  0  0  0  0  0999 V2000
    6.8073  -19.9518   21.4187 N   0  0  0  0  0  0  0  0  0  0  0  0
    6.0750  -18.7692   21.8223 C   0  0  0  0  0  0  0  0  0  0  0  0
    6.9873  -17.6104   21.7867 C   0  0  0  0  0  0  0  0  0  0  0  0
    8.2149  -17.7756   21.6059 O   0  0  0  0  0  0  0  0  0  0  0  0
    8.0302  -11.4911   19.8043 C   0  0  0  0  0  0  0  0  0  0  0  0
    8.0246  -13.0919   18.9748 S   0  0  0  0  0  0  0  0  0  0  0  0
    6.8101  -14.2299   19.7205 C   0  0  0  0  0  0  0  0  0  0  0  0
    6.7912  -14.0418   21.1995 C   0  0  0  0  0  0  0  0  0  0  0  0
    7.4550  -15.1299   21.9835 C   0  0  2  0  0  0  0  0  0  0  0  0
    6.5562  -16.2682   21.9494 N   0  0  0  0  0  0  0  0  0  0  0  0
    7.8350  -14.7768   23.3402 C   0  0  0  0  0  0  0  0  0  0  0  0
    7.5007  -13.6862   23.8440 O   0  0  0  0  0  0  0  0  0  0  0  0
    6.6351  -11.0112   26.9053 C   0  0  0  0  0  0  0  0  0  0  0  0
    7.6284  -12.4890   27.0026 S   0  0  0  0  0  0  0  0  0  0  0  0
    6.9876  -13.9440   26.2071 C   0  0  0  0  0  0  0  0  0  0  0  0
    7.7507  -15.1997   26.3741 C   0  0  0  0  0  0  0  0  0  0  0  0
    8.9713  -15.3337   25.5344 C   0  0  2  0  0  0  0  0  0  0  0  0
    8.5978  -15.6570   24.1388 N   0  0  0  0  0  0  0  0  0  0  0  0
    9.7541  -16.5116   26.0284 C   0  0  0  0  0  0  0  0  0  0  0  0
   10.4202  -16.3839   27.0926 O   0  0  0  0  0  0  0  0  0  0  0  0
    9.7857  -17.7235   25.3838 O   0  0  0  0  0  0  0  0  0  0  0  0
  1  2  1  0
  2  3  1  0
  3  4  2  0
  6  5  1  0
  7  6  1  0
  8  7  1  0
  9  8  1  1
  9 11  1  0
 10  9  1  0
 10  3  1  0
 11 12  2  0
 13 14  1  0
 15 14  1  0
 16 15  1  0
 17 16  1  1
 18 11  1  0
 18 17  1  0
 19 17  1  0
 19 21  1  0
 20 19  2  0
M  END
$$$$
