GMM.pdb
     RDKit          3D

 21 20  0  0  1  0  0  0  0  0999 V2000
    8.7999  -19.8680   20.1085 N   0  0  0  0  0  0  0  0  0  0  0  0
    7.8875  -19.0571   20.8880 C   0  0  0  0  0  0  0  0  0  0  0  0
    8.6031  -17.8559   21.3585 C   0  0  0  0  0  0  0  0  0  0  0  0
    9.8428  -17.7595   21.2142 O   0  0  0  0  0  0  0  0  0  0  0  0
    8.1556  -11.6004   19.9011 C   0  0  0  0  0  0  0  0  0  0  0  0
    6.9676  -12.9564   19.8883 S   0  0  0  0  0  0  0  0  0  0  0  0
    7.7185  -14.5121   20.4732 C   0  0  0  0  0  0  0  0  0  0  0  0
    8.0362  -14.3988   21.9257 C   0  0  0  0  0  0  0  0  0  0  0  0
    8.6679  -15.6128   22.5310 C   0  0  2  0  0  0  0  0  0  0  0  0
    7.9616  -16.7578   21.9882 N   0  0  0  0  0  0  0  0  0  0  0  0
    8.7076  -15.6357   23.9828 C   0  0  0  0  0  0  0  0  0  0  0  0
    7.7454  -16.0630   24.6510 O   0  0  0  0  0  0  0  0  0  0  0  0
    5.5826  -12.0371   26.2887 C   0  0  0  0  0  0  0  0  0  0  0  0
    7.1605  -12.1540   27.1113 S   0  0  0  0  0  0  0  0  0  0  0  0
    8.4376  -13.0676   26.2778 C   0  0  0  0  0  0  0  0  0  0  0  0
    8.6493  -14.4707   26.6944 C   0  0  0  0  0  0  0  0  0  0  0  0
    9.8782  -15.1247   26.1701 C   0  0  2  0  0  0  0  0  0  0  0  0
    9.8389  -15.1741   24.6910 N   0  0  0  0  0  0  0  0  0  0  0  0
    9.8804  -16.5524   26.6240 C   0  0  0  0  0  0  0  0  0  0  0  0
    9.9962  -16.7879   27.8583 O   0  0  0  0  0  0  0  0  0  0  0  0
    9.7635  -17.6191   25.7674 O   0  0  0  0  0  0  0  0  0  0  0  0
  1  2  1  0
  2  3  1  0
  3  4  2  0
  6  5  1  0
  7  6  1  0
  8  7  1  0
  9  8  1  1
  9 11  1  0
 10  9  1  0
 10  3  1  0
 11 12  2  0
 13 14  1  0
 15 14  1  0
 16 15  1  0
 17 16  1  1
 18 11  1  0
 18 17  1  0
 19 17  1  0
 19 21  1  0
 20 19  2  0
M  END
$$$$
