GMM.pdb
     RDKit          3D

 21 20  0  0  1  0  0  0  0  0999 V2000
    7.8957  -14.4512   19.3254 N   0  0  0  0  0  0  0  0  0  0  0  0
    7.5491  -15.4911   20.2720 C   0  0  0  0  0  0  0  0  0  0  0  0
    8.1418  -15.1584   21.5813 C   0  0  0  0  0  0  0  0  0  0  0  0
    9.1977  -14.4893   21.6474 O   0  0  0  0  0  0  0  0  0  0  0  0
    7.1989  -11.0550   25.8926 C   0  0  0  0  0  0  0  0  0  0  0  0
    6.5606  -12.6841   26.3274 S   0  0  0  0  0  0  0  0  0  0  0  0
    6.3636  -13.7425   24.8553 C   0  0  0  0  0  0  0  0  0  0  0  0
    7.0795  -15.0331   25.0680 C   0  0  0  0  0  0  0  0  0  0  0  0
    8.1959  -15.3021   24.1085 C   0  0  2  0  0  0  0  0  0  0  0  0
    7.5786  -15.5585   22.8209 N   0  0  0  0  0  0  0  0  0  0  0  0
    9.1077  -16.3643   24.4963 C   0  0  0  0  0  0  0  0  0  0  0  0
    8.6869  -17.4870   24.8387 O   0  0  0  0  0  0  0  0  0  0  0  0
   10.0051  -13.1371   29.0236 C   0  0  0  0  0  0  0  0  0  0  0  0
   10.8609  -14.6367   29.4695 S   0  0  0  0  0  0  0  0  0  0  0  0
   11.4435  -15.6584   28.1364 C   0  0  0  0  0  0  0  0  0  0  0  0
   10.8100  -15.4725   26.8131 C   0  0  0  0  0  0  0  0  0  0  0  0
   11.3256  -16.3391   25.7195 C   0  0  2  0  0  0  0  0  0  0  0  0
   10.5056  -16.1635   24.4994 N   0  0  0  0  0  0  0  0  0  0  0  0
   11.1441  -17.7689   26.1281 C   0  0  0  0  0  0  0  0  0  0  0  0
   12.1719  -18.4486   26.4007 O   0  0  0  0  0  0  0  0  0  0  0  0
    9.9179  -18.3797   26.2214 O   0  0  0  0  0  0  0  0  0  0  0  0
  1  2  1  0
  2  3  1  0
  3  4  2  0
  6  5  1  0
  7  6  1  0
  8  7  1  0
  9  8  1  1
  9 11  1  0
 10  9  1  0
 10  3  1  0
 11 12  2  0
 13 14  1  0
 15 14  1  0
 16 15  1  0
 17 16  1  1
 18 11  1  0
 18 17  1  0
 19 17  1  0
 19 21  1  0
 20 19  2  0
M  END
$$$$
