GMM.pdb
     RDKit          3D

 21 20  0  0  1  0  0  0  0  0999 V2000
    7.2636  -17.4241   19.1493 N   0  0  0  0  0  0  0  0  0  0  0  0
    7.2500  -17.8589   20.5308 C   0  0  0  0  0  0  0  0  0  0  0  0
    7.9285  -16.8412   21.3557 C   0  0  0  0  0  0  0  0  0  0  0  0
    9.0392  -16.3807   21.0074 O   0  0  0  0  0  0  0  0  0  0  0  0
    6.8248  -11.7064   27.3089 C   0  0  0  0  0  0  0  0  0  0  0  0
    6.2331  -12.9351   26.1296 S   0  0  0  0  0  0  0  0  0  0  0  0
    7.6001  -13.6323   25.1442 C   0  0  0  0  0  0  0  0  0  0  0  0
    7.0667  -14.6639   24.2088 C   0  0  0  0  0  0  0  0  0  0  0  0
    8.1062  -15.4224   23.4451 C   0  0  2  0  0  0  0  0  0  0  0  0
    7.3912  -16.3263   22.5640 N   0  0  0  0  0  0  0  0  0  0  0  0
    9.0907  -16.1176   24.2558 C   0  0  0  0  0  0  0  0  0  0  0  0
    8.7814  -17.1143   24.9383 O   0  0  0  0  0  0  0  0  0  0  0  0
   10.3857  -12.9979   29.4372 C   0  0  0  0  0  0  0  0  0  0  0  0
   10.6155  -14.7662   29.4275 S   0  0  0  0  0  0  0  0  0  0  0  0
   11.3531  -15.4746   27.9734 C   0  0  0  0  0  0  0  0  0  0  0  0
   10.6472  -15.2750   26.6893 C   0  0  0  0  0  0  0  0  0  0  0  0
   11.2881  -15.8872   25.4946 C   0  0  2  0  0  0  0  0  0  0  0  0
   10.4357  -15.6893   24.3004 N   0  0  0  0  0  0  0  0  0  0  0  0
   11.3545  -17.3690   25.7048 C   0  0  0  0  0  0  0  0  0  0  0  0
   12.4706  -17.9429   25.5725 O   0  0  0  0  0  0  0  0  0  0  0  0
   10.2645  -18.1364   26.0335 O   0  0  0  0  0  0  0  0  0  0  0  0
  1  2  1  0
  2  3  1  0
  3  4  2  0
  6  5  1  0
  7  6  1  0
  8  7  1  0
  9  8  1  1
  9 11  1  0
 10  9  1  0
 10  3  1  0
 11 12  2  0
 13 14  1  0
 15 14  1  0
 16 15  1  0
 17 16  1  1
 18 11  1  0
 18 17  1  0
 19 17  1  0
 19 21  1  0
 20 19  2  0
M  END
$$$$
