GMM.pdb
     RDKit          3D

 21 20  0  0  1  0  0  0  0  0999 V2000
   10.4199  -16.6012   18.7162 N   0  0  0  0  0  0  0  0  0  0  0  0
    9.7624  -17.3125   19.7930 C   0  0  0  0  0  0  0  0  0  0  0  0
    9.7164  -16.4389   20.9809 C   0  0  0  0  0  0  0  0  0  0  0  0
   10.6785  -15.6848   21.2506 O   0  0  0  0  0  0  0  0  0  0  0  0
    7.0734  -12.2157   26.3382 C   0  0  0  0  0  0  0  0  0  0  0  0
    7.4897  -13.8151   25.6178 S   0  0  0  0  0  0  0  0  0  0  0  0
    6.8394  -13.9768   23.9216 C   0  0  0  0  0  0  0  0  0  0  0  0
    7.1475  -15.3377   23.3957 C   0  0  0  0  0  0  0  0  0  0  0  0
    8.5898  -15.5815   23.0799 C   0  0  2  0  0  0  0  0  0  0  0  0
    8.6161  -16.3901   21.8757 N   0  0  0  0  0  0  0  0  0  0  0  0
    9.3700  -16.1753   24.1516 C   0  0  0  0  0  0  0  0  0  0  0  0
    9.3472  -17.4033   24.3664 O   0  0  0  0  0  0  0  0  0  0  0  0
    9.8288  -13.2327   29.9368 C   0  0  0  0  0  0  0  0  0  0  0  0
   10.7492  -14.7480   30.1285 S   0  0  0  0  0  0  0  0  0  0  0  0
   11.1714  -15.6274   28.6423 C   0  0  0  0  0  0  0  0  0  0  0  0
   10.6110  -15.1193   27.3716 C   0  0  0  0  0  0  0  0  0  0  0  0
   10.8900  -15.9425   26.1643 C   0  0  2  0  0  0  0  0  0  0  0  0
   10.1838  -15.3821   24.9901 N   0  0  0  0  0  0  0  0  0  0  0  0
   10.3038  -17.3043   26.3787 C   0  0  0  0  0  0  0  0  0  0  0  0
   11.0911  -18.2702   26.5783 O   0  0  0  0  0  0  0  0  0  0  0  0
    8.9544  -17.5576   26.3690 O   0  0  0  0  0  0  0  0  0  0  0  0
  1  2  1  0
  2  3  1  0
  3  4  2  0
  6  5  1  0
  7  6  1  0
  8  7  1  0
  9  8  1  1
  9 11  1  0
 10  9  1  0
 10  3  1  0
 11 12  2  0
 13 14  1  0
 15 14  1  0
 16 15  1  0
 17 16  1  1
 18 11  1  0
 18 17  1  0
 19 17  1  0
 19 21  1  0
 20 19  2  0
M  END
$$$$
