GMM.pdb
     RDKit          3D

 21 20  0  0  1  0  0  0  0  0999 V2000
    5.9968  -19.6170   23.1349 N   0  0  0  0  0  0  0  0  0  0  0  0
    5.9443  -18.6228   24.1868 C   0  0  0  0  0  0  0  0  0  0  0  0
    6.8275  -17.4988   23.8224 C   0  0  0  0  0  0  0  0  0  0  0  0
    7.5828  -17.5829   22.8278 O   0  0  0  0  0  0  0  0  0  0  0  0
    6.5602  -11.0452   25.8709 C   0  0  0  0  0  0  0  0  0  0  0  0
    5.4319  -12.4232   26.1513 S   0  0  0  0  0  0  0  0  0  0  0  0
    5.8395  -13.8507   25.0920 C   0  0  0  0  0  0  0  0  0  0  0  0
    7.3203  -14.0064   25.0111 C   0  0  0  0  0  0  0  0  0  0  0  0
    7.7891  -15.1919   24.2273 C   0  0  2  0  0  0  0  0  0  0  0  0
    6.8849  -16.2802   24.5475 N   0  0  0  0  0  0  0  0  0  0  0  0
    9.1792  -15.5616   24.4293 C   0  0  0  0  0  0  0  0  0  0  0  0
   10.0981  -14.9935   23.8068 O   0  0  0  0  0  0  0  0  0  0  0  0
    9.7276  -13.8765   30.3024 C   0  0  0  0  0  0  0  0  0  0  0  0
   10.9511  -14.3887   29.1105 S   0  0  0  0  0  0  0  0  0  0  0  0
   10.4047  -15.4692   27.8089 C   0  0  0  0  0  0  0  0  0  0  0  0
   11.3682  -15.7697   26.7280 C   0  0  0  0  0  0  0  0  0  0  0  0
   10.9442  -16.8082   25.7510 C   0  0  2  0  0  0  0  0  0  0  0  0
    9.5406  -16.5792   25.3395 N   0  0  0  0  0  0  0  0  0  0  0  0
   10.9524  -18.1363   26.4441 C   0  0  0  0  0  0  0  0  0  0  0  0
    9.8500  -18.7221   26.6284 O   0  0  0  0  0  0  0  0  0  0  0  0
   12.0967  -18.7501   26.8902 O   0  0  0  0  0  0  0  0  0  0  0  0
  1  2  1  0
  2  3  1  0
  3  4  2  0
  6  5  1  0
  7  6  1  0
  8  7  1  0
  9  8  1  1
  9 11  1  0
 10  9  1  0
 10  3  1  0
 11 12  2  0
 13 14  1  0
 15 14  1  0
 16 15  1  0
 17 16  1  1
 18 11  1  0
 18 17  1  0
 19 17  1  0
 19 21  1  0
 20 19  2  0
M  END
$$$$
