GMM.pdb
     RDKit          3D

 21 20  0  0  1  0  0  0  0  0999 V2000
    7.2192  -17.0327   19.8063 N   0  0  0  0  0  0  0  0  0  0  0  0
    6.5426  -16.7101   21.0456 C   0  0  0  0  0  0  0  0  0  0  0  0
    7.5165  -16.1076   21.9756 C   0  0  0  0  0  0  0  0  0  0  0  0
    8.7446  -16.2831   21.8086 O   0  0  0  0  0  0  0  0  0  0  0  0
    5.5923  -12.0339   26.7151 C   0  0  0  0  0  0  0  0  0  0  0  0
    7.3817  -11.8144   26.7336 S   0  0  0  0  0  0  0  0  0  0  0  0
    8.2414  -13.2498   26.0078 C   0  0  0  0  0  0  0  0  0  0  0  0
    7.4388  -13.7928   24.8745 C   0  0  0  0  0  0  0  0  0  0  0  0
    8.0519  -14.9612   24.1686 C   0  0  2  0  0  0  0  0  0  0  0  0
    7.1465  -15.3116   23.0907 N   0  0  0  0  0  0  0  0  0  0  0  0
    8.3642  -16.1031   25.0102 C   0  0  0  0  0  0  0  0  0  0  0  0
    7.4643  -16.8232   25.4860 O   0  0  0  0  0  0  0  0  0  0  0  0
   13.3513  -20.7411   24.3377 C   0  0  0  0  0  0  0  0  0  0  0  0
   12.4290  -19.6074   23.3158 S   0  0  0  0  0  0  0  0  0  0  0  0
   11.0574  -18.7705   24.0766 C   0  0  0  0  0  0  0  0  0  0  0  0
   11.2252  -18.3296   25.4781 C   0  0  0  0  0  0  0  0  0  0  0  0
   10.0500  -17.6543   26.0910 C   0  0  2  0  0  0  0  0  0  0  0  0
    9.7003  -16.4394   25.3205 N   0  0  0  0  0  0  0  0  0  0  0  0
   10.4434  -17.1715   27.4535 C   0  0  0  0  0  0  0  0  0  0  0  0
   10.9349  -16.0140   27.5596 O   0  0  0  0  0  0  0  0  0  0  0  0
   10.2981  -17.9225   28.5937 O   0  0  0  0  0  0  0  0  0  0  0  0
  1  2  1  0
  2  3  1  0
  3  4  2  0
  6  5  1  0
  7  6  1  0
  8  7  1  0
  9  8  1  1
  9 11  1  0
 10  9  1  0
 10  3  1  0
 11 12  2  0
 13 14  1  0
 15 14  1  0
 16 15  1  0
 17 16  1  6
 18 11  1  0
 18 17  1  0
 19 17  1  0
 19 21  1  0
 20 19  2  0
M  END
$$$$
