GMM.pdb
     RDKit          3D

 21 20  0  0  1  0  0  0  0  0999 V2000
    6.1143  -20.0608   23.2293 N   0  0  0  0  0  0  0  0  0  0  0  0
    5.9071  -19.0027   24.1963 C   0  0  0  0  0  0  0  0  0  0  0  0
    6.6804  -17.8183   23.7774 C   0  0  0  0  0  0  0  0  0  0  0  0
    7.5200  -17.9041   22.8529 O   0  0  0  0  0  0  0  0  0  0  0  0
    6.8398  -10.9252   26.1897 C   0  0  0  0  0  0  0  0  0  0  0  0
    5.7480  -12.3558   26.2979 S   0  0  0  0  0  0  0  0  0  0  0  0
    6.6306  -13.9043   25.9113 C   0  0  0  0  0  0  0  0  0  0  0  0
    6.5432  -14.1777   24.4481 C   0  0  0  0  0  0  0  0  0  0  0  0
    7.3107  -15.3747   23.9819 C   0  0  2  0  0  0  0  0  0  0  0  0
    6.5354  -16.5374   24.3709 N   0  0  0  0  0  0  0  0  0  0  0  0
    8.6837  -15.4546   24.4492 C   0  0  0  0  0  0  0  0  0  0  0  0
    9.5449  -14.6344   24.0744 O   0  0  0  0  0  0  0  0  0  0  0  0
   10.3244  -13.4127   29.7249 C   0  0  0  0  0  0  0  0  0  0  0  0
   11.4093  -14.8279   29.7165 S   0  0  0  0  0  0  0  0  0  0  0  0
   11.4732  -15.7848   28.2196 C   0  0  0  0  0  0  0  0  0  0  0  0
   10.2470  -15.8353   27.3945 C   0  0  0  0  0  0  0  0  0  0  0  0
   10.4020  -16.4246   26.0374 C   0  0  2  0  0  0  0  0  0  0  0  0
    9.0934  -16.4655   25.3462 N   0  0  0  0  0  0  0  0  0  0  0  0
   10.8245  -17.8536   26.1914 C   0  0  0  0  0  0  0  0  0  0  0  0
    9.9516  -18.7542   26.0522 O   0  0  0  0  0  0  0  0  0  0  0  0
   12.1121  -18.2356   26.4767 O   0  0  0  0  0  0  0  0  0  0  0  0
  1  2  1  0
  2  3  1  0
  3  4  2  0
  6  5  1  0
  7  6  1  0
  8  7  1  0
  9  8  1  1
  9 11  1  0
 10  9  1  0
 10  3  1  0
 11 12  2  0
 13 14  1  0
 15 14  1  0
 16 15  1  0
 17 16  1  1
 18 11  1  0
 18 17  1  0
 19 17  1  0
 19 21  1  0
 20 19  2  0
M  END
$$$$
