GMM.pdb
     RDKit          3D

 21 20  0  0  1  0  0  0  0  0999 V2000
    5.5770  -19.9836   22.1627 N   0  0  0  0  0  0  0  0  0  0  0  0
    5.5248  -19.3368   23.4576 C   0  0  0  0  0  0  0  0  0  0  0  0
    6.3400  -18.1082   23.4081 C   0  0  0  0  0  0  0  0  0  0  0  0
    7.1350  -17.9129   22.4611 O   0  0  0  0  0  0  0  0  0  0  0  0
    5.1969  -11.8235   25.5480 C   0  0  0  0  0  0  0  0  0  0  0  0
    6.5493  -12.5151   26.5192 S   0  0  0  0  0  0  0  0  0  0  0  0
    7.4905  -13.7563   25.5707 C   0  0  0  0  0  0  0  0  0  0  0  0
    6.6581  -14.9793   25.3839 C   0  0  0  0  0  0  0  0  0  0  0  0
    7.2766  -16.0401   24.5286 C   0  0  2  0  0  0  0  0  0  0  0  0
    6.2856  -17.0912   24.3963 N   0  0  0  0  0  0  0  0  0  0  0  0
    8.5533  -16.5511   24.9964 C   0  0  0  0  0  0  0  0  0  0  0  0
    8.6167  -17.4094   25.8987 O   0  0  0  0  0  0  0  0  0  0  0  0
    9.8668  -13.4957   29.0955 C   0  0  0  0  0  0  0  0  0  0  0  0
   11.4273  -14.3559   29.0253 S   0  0  0  0  0  0  0  0  0  0  0  0
   11.6677  -15.4788   27.6683 C   0  0  0  0  0  0  0  0  0  0  0  0
   10.5610  -15.6150   26.6969 C   0  0  0  0  0  0  0  0  0  0  0  0
   10.9632  -15.8248   25.2802 C   0  0  2  0  0  0  0  0  0  0  0  0
    9.7705  -16.0937   24.4454 N   0  0  0  0  0  0  0  0  0  0  0  0
   11.7976  -17.0669   25.2080 C   0  0  0  0  0  0  0  0  0  0  0  0
   12.9854  -17.0156   25.6313 O   0  0  0  0  0  0  0  0  0  0  0  0
   11.3383  -18.2591   24.7049 O   0  0  0  0  0  0  0  0  0  0  0  0
  1  2  1  0
  2  3  1  0
  3  4  2  0
  6  5  1  0
  7  6  1  0
  8  7  1  0
  9  8  1  1
  9 11  1  0
 10  9  1  0
 10  3  1  0
 11 12  2  0
 13 14  1  0
 15 14  1  0
 16 15  1  0
 17 16  1  1
 18 11  1  0
 18 17  1  0
 19 17  1  0
 19 21  1  0
 20 19  2  0
M  END
$$$$
