GMM.pdb
     RDKit          3D

 21 20  0  0  1  0  0  0  0  0999 V2000
    4.4526  -19.8445   23.2480 N   0  0  0  0  0  0  0  0  0  0  0  0
    5.5485  -19.4690   24.1173 C   0  0  0  0  0  0  0  0  0  0  0  0
    5.9327  -18.0756   23.8225 C   0  0  0  0  0  0  0  0  0  0  0  0
    5.8936  -17.6422   22.6488 O   0  0  0  0  0  0  0  0  0  0  0  0
    5.5746  -12.1146   27.2040 C   0  0  0  0  0  0  0  0  0  0  0  0
    7.2467  -12.7882   27.1745 S   0  0  0  0  0  0  0  0  0  0  0  0
    7.5679  -13.7197   25.6398 C   0  0  0  0  0  0  0  0  0  0  0  0
    7.0320  -15.1047   25.7742 C   0  0  0  0  0  0  0  0  0  0  0  0
    7.0592  -15.9174   24.5180 C   0  0  2  0  0  0  0  0  0  0  0  0
    6.3609  -17.1543   24.8133 N   0  0  0  0  0  0  0  0  0  0  0  0
    8.3787  -16.1570   23.9599 C   0  0  0  0  0  0  0  0  0  0  0  0
    9.1325  -17.0317   24.4305 O   0  0  0  0  0  0  0  0  0  0  0  0
    6.8338  -12.9805   20.4279 C   0  0  0  0  0  0  0  0  0  0  0  0
    8.4374  -13.2232   19.6868 S   0  0  0  0  0  0  0  0  0  0  0  0
    9.2183  -14.7977   19.9540 C   0  0  0  0  0  0  0  0  0  0  0  0
   10.2884  -14.8594   20.9728 C   0  0  0  0  0  0  0  0  0  0  0  0
   10.0594  -15.8053   22.0979 C   0  0  2  0  0  0  0  0  0  0  0  0
    8.8560  -15.4069   22.8627 N   0  0  0  0  0  0  0  0  0  0  0  0
   11.2064  -15.6844   23.0539 C   0  0  0  0  0  0  0  0  0  0  0  0
   10.9735  -15.2530   24.2167 O   0  0  0  0  0  0  0  0  0  0  0  0
   12.4987  -16.0180   22.7316 O   0  0  0  0  0  0  0  0  0  0  0  0
  1  2  1  0
  2  3  1  0
  3  4  2  0
  6  5  1  0
  7  6  1  0
  8  7  1  0
  9  8  1  1
  9 11  1  0
 10  9  1  0
 10  3  1  0
 11 12  2  0
 13 14  1  0
 15 14  1  0
 16 15  1  0
 17 16  1  6
 18 11  1  0
 18 17  1  0
 19 17  1  0
 19 21  1  0
 20 19  2  0
M  END
$$$$
