GMM.pdb
     RDKit          3D

 21 20  0  0  1  0  0  0  0  0999 V2000
    8.9993  -15.2960   19.4072 N   0  0  0  0  0  0  0  0  0  0  0  0
    8.5105  -16.2177   20.4118 C   0  0  0  0  0  0  0  0  0  0  0  0
    8.6779  -15.6029   21.7423 C   0  0  0  0  0  0  0  0  0  0  0  0
    9.7146  -14.9569   22.0160 O   0  0  0  0  0  0  0  0  0  0  0  0
    6.0869  -11.8237   25.6262 C   0  0  0  0  0  0  0  0  0  0  0  0
    7.2782  -12.9917   26.3096 S   0  0  0  0  0  0  0  0  0  0  0  0
    6.6626  -14.7063   26.2230 C   0  0  0  0  0  0  0  0  0  0  0  0
    6.6236  -15.1522   24.8006 C   0  0  0  0  0  0  0  0  0  0  0  0
    7.9627  -15.3227   24.1548 C   0  0  2  0  0  0  0  0  0  0  0  0
    7.7096  -15.6949   22.7757 N   0  0  0  0  0  0  0  0  0  0  0  0
    8.8580  -16.2566   24.8153 C   0  0  0  0  0  0  0  0  0  0  0  0
    8.7428  -17.4879   24.6560 O   0  0  0  0  0  0  0  0  0  0  0  0
   10.9808  -14.1039   30.3080 C   0  0  0  0  0  0  0  0  0  0  0  0
   10.5315  -13.8065   28.6081 S   0  0  0  0  0  0  0  0  0  0  0  0
   11.5476  -14.5648   27.3620 C   0  0  0  0  0  0  0  0  0  0  0  0
   11.6244  -16.0416   27.3561 C   0  0  0  0  0  0  0  0  0  0  0  0
   10.8831  -16.7255   26.2626 C   0  0  2  0  0  0  0  0  0  0  0  0
    9.8926  -15.8031   25.6628 N   0  0  0  0  0  0  0  0  0  0  0  0
   10.0858  -17.8427   26.8629 C   0  0  0  0  0  0  0  0  0  0  0  0
   10.7074  -18.8254   27.3533 O   0  0  0  0  0  0  0  0  0  0  0  0
    8.7136  -17.8544   26.9075 O   0  0  0  0  0  0  0  0  0  0  0  0
  1  2  1  0
  2  3  1  0
  3  4  2  0
  6  5  1  0
  7  6  1  0
  8  7  1  0
  9  8  1  1
  9 11  1  0
 10  9  1  0
 10  3  1  0
 11 12  2  0
 13 14  1  0
 15 14  1  0
 16 15  1  0
 17 16  1  1
 18 11  1  0
 18 17  1  0
 19 17  1  0
 19 21  1  0
 20 19  2  0
M  END
$$$$
