GMM.pdb
     RDKit          3D

 21 20  0  0  1  0  0  0  0  0999 V2000
    7.9365  -18.1664   20.4476 N   0  0  0  0  0  0  0  0  0  0  0  0
    7.3350  -17.9888   21.7531 C   0  0  0  0  0  0  0  0  0  0  0  0
    7.8678  -16.7529   22.3573 C   0  0  0  0  0  0  0  0  0  0  0  0
    8.8286  -16.1511   21.8267 O   0  0  0  0  0  0  0  0  0  0  0  0
    7.0135  -10.9142   26.0884 C   0  0  0  0  0  0  0  0  0  0  0  0
    5.8977  -12.3173   26.2806 S   0  0  0  0  0  0  0  0  0  0  0  0
    6.0405  -13.4842   24.8863 C   0  0  0  0  0  0  0  0  0  0  0  0
    6.9564  -14.5999   25.2599 C   0  0  0  0  0  0  0  0  0  0  0  0
    7.9218  -15.0094   24.1924 C   0  0  2  0  0  0  0  0  0  0  0  0
    7.3488  -16.1741   23.5445 N   0  0  0  0  0  0  0  0  0  0  0  0
    9.2818  -15.2506   24.6422 C   0  0  0  0  0  0  0  0  0  0  0  0
   10.1947  -14.4325   24.4141 O   0  0  0  0  0  0  0  0  0  0  0  0
   11.1472  -15.0674   30.5770 C   0  0  0  0  0  0  0  0  0  0  0  0
   10.2621  -14.1886   29.3026 S   0  0  0  0  0  0  0  0  0  0  0  0
   10.5167  -14.7270   27.6275 C   0  0  0  0  0  0  0  0  0  0  0  0
   10.8791  -16.1455   27.4191 C   0  0  0  0  0  0  0  0  0  0  0  0
   10.9386  -16.5987   26.0035 C   0  0  2  0  0  0  0  0  0  0  0  0
    9.6195  -16.4220   25.3551 N   0  0  0  0  0  0  0  0  0  0  0  0
   11.2017  -18.0735   25.9933 C   0  0  0  0  0  0  0  0  0  0  0  0
   10.2221  -18.8552   25.8454 O   0  0  0  0  0  0  0  0  0  0  0  0
   12.4530  -18.6202   26.1369 O   0  0  0  0  0  0  0  0  0  0  0  0
  1  2  1  0
  2  3  1  0
  3  4  2  0
  6  5  1  0
  7  6  1  0
  8  7  1  0
  9  8  1  1
  9 11  1  0
 10  9  1  0
 10  3  1  0
 11 12  2  0
 13 14  1  0
 15 14  1  0
 16 15  1  0
 17 16  1  1
 18 11  1  0
 18 17  1  0
 19 17  1  0
 19 21  1  0
 20 19  2  0
M  END
$$$$
