MQC.pdb
     RDKit          3D

 24 23  0  0  1  0  0  0  0  0999 V2000
    7.6588  -12.6481   16.7434 C   0  0  0  0  0  0  0  0  0  0  0  0
    6.8317  -13.1166   18.3052 S   0  0  0  0  0  0  0  0  0  0  0  0
    8.0671  -14.0096   19.2964 C   0  0  0  0  0  0  0  0  0  0  0  0
    7.4671  -14.3451   20.6666 C   0  0  0  0  0  0  0  0  0  0  0  0
    8.5258  -15.1873   21.3712 C   0  0  2  0  0  0  0  0  0  0  0  0
    8.6251  -16.5000   20.7602 N   0  0  0  0  0  0  0  0  0  0  0  0
    8.1197  -15.3509   22.7935 C   0  0  0  0  0  0  0  0  0  0  0  0
    7.8557  -14.3253   23.5059 O   0  0  0  0  0  0  0  0  0  0  0  0
    7.1294  -20.7531   25.6895 N   0  0  0  0  0  0  0  0  0  0  0  0
    6.9853  -19.8863   26.7931 C   0  0  0  0  0  0  0  0  0  0  0  0
    6.7213  -20.2774   27.9378 O   0  0  0  0  0  0  0  0  0  0  0  0
    7.1637  -18.4159   26.5537 C   0  0  0  0  0  0  0  0  0  0  0  0
    7.4632  -18.1596   25.1162 C   0  0  0  0  0  0  0  0  0  0  0  0
    7.5939  -16.7003   24.8365 C   0  0  2  0  0  0  0  0  0  0  0  0
    8.0037  -16.6049   23.4262 N   0  0  0  0  0  0  0  0  0  0  0  0
    8.4895  -15.9397   25.7006 C   0  0  0  0  0  0  0  0  0  0  0  0
    9.7180  -16.1694   25.7262 O   0  0  0  0  0  0  0  0  0  0  0  0
    8.0369  -14.8919   26.5682 N   0  0  0  0  0  0  0  0  0  0  0  0
    8.9713  -14.1703   27.4067 C   0  0  1  0  0  0  0  0  0  0  0  0
    8.4804  -12.7811   27.7405 C   0  0  0  0  0  0  0  0  0  0  0  0
    7.7830  -11.9196   26.3311 S   0  0  0  0  0  0  0  0  0  0  0  0
    9.1814  -14.8746   28.6861 C   0  0  0  0  0  0  0  0  0  0  0  0
   10.0517  -14.4038   29.6417 O   0  0  0  0  0  0  0  0  0  0  0  0
    8.5526  -15.9264   28.9076 O   0  0  0  0  0  0  0  0  0  0  0  0
  1  2  1  0
  3  2  1  0
  4  3  1  0
  5  6  1  6
  5  7  1  0
  5  4  1  0
  7  8  2  0
  7 15  1  0
 10  9  1  0
 11 10  2  0
 12 10  1  0
 13 12  1  0
 14 13  1  1
 15 14  1  0
 16 14  1  0
 17 16  2  0
 18 16  1  0
 19 22  1  0
 19 18  1  0
 20 21  1  0
 19 20  1  1
 22 23  1  0
 24 22  2  0
M  END
$$$$
