MQC.pdb
     RDKit          3D

 24 23  0  0  1  0  0  0  0  0999 V2000
    8.2601  -11.8786   19.7741 C   0  0  0  0  0  0  0  0  0  0  0  0
    6.9835  -12.4519   18.5976 S   0  0  0  0  0  0  0  0  0  0  0  0
    7.6704  -13.9130   17.7613 C   0  0  0  0  0  0  0  0  0  0  0  0
    8.4127  -14.7779   18.7864 C   0  0  0  0  0  0  0  0  0  0  0  0
    8.8824  -16.0038   18.0096 C   0  0  2  0  0  0  0  0  0  0  0  0
    7.7479  -16.7562   17.5067 N   0  0  0  0  0  0  0  0  0  0  0  0
    9.6599  -16.8717   18.9353 C   0  0  0  0  0  0  0  0  0  0  0  0
    9.0673  -17.7738   19.6165 O   0  0  0  0  0  0  0  0  0  0  0  0
   14.5195  -20.2617   19.2329 N   0  0  0  0  0  0  0  0  0  0  0  0
   13.6016  -20.1463   18.1680 C   0  0  0  0  0  0  0  0  0  0  0  0
   13.4644  -21.0077   17.2892 O   0  0  0  0  0  0  0  0  0  0  0  0
   12.7532  -18.9103   18.1085 C   0  0  0  0  0  0  0  0  0  0  0  0
   13.0284  -18.0382   19.2856 C   0  0  0  0  0  0  0  0  0  0  0  0
   11.7729  -17.6819   20.0078 C   0  0  2  0  0  0  0  0  0  0  0  0
   11.0532  -16.7595   19.1149 N   0  0  0  0  0  0  0  0  0  0  0  0
   11.9173  -17.1188   21.3454 C   0  0  0  0  0  0  0  0  0  0  0  0
   12.5459  -16.0558   21.5385 O   0  0  0  0  0  0  0  0  0  0  0  0
   11.3600  -17.7304   22.5163 N   0  0  0  0  0  0  0  0  0  0  0  0
   11.5383  -17.1288   23.8213 C   0  0  1  0  0  0  0  0  0  0  0  0
   10.2200  -16.7820   24.4727 C   0  0  0  0  0  0  0  0  0  0  0  0
    9.1703  -15.7562   23.4428 S   0  0  0  0  0  0  0  0  0  0  0  0
   12.2428  -18.0505   24.7329 C   0  0  0  0  0  0  0  0  0  0  0  0
   12.7204  -17.6408   25.9561 O   0  0  0  0  0  0  0  0  0  0  0  0
   12.4102  -19.2345   24.3850 O   0  0  0  0  0  0  0  0  0  0  0  0
  1  2  1  0
  3  2  1  0
  4  3  1  0
  5  6  1  1
  5  7  1  0
  5  4  1  0
  7  8  2  0
  7 15  1  0
 10  9  1  0
 11 10  2  0
 12 10  1  0
 13 12  1  0
 14 13  1  6
 15 14  1  0
 16 14  1  0
 17 16  2  0
 18 16  1  0
 19 22  1  0
 19 18  1  0
 20 21  1  0
 19 20  1  1
 22 23  1  0
 24 22  2  0
M  END
$$$$
