MQC.pdb
     RDKit          3D

 24 23  0  0  1  0  0  0  0  0999 V2000
    7.0832  -11.7950   19.7068 C   0  0  0  0  0  0  0  0  0  0  0  0
    8.4986  -12.9191   19.4311 S   0  0  0  0  0  0  0  0  0  0  0  0
    7.9964  -14.5474   20.0656 C   0  0  0  0  0  0  0  0  0  0  0  0
    9.2078  -15.4867   20.0582 C   0  0  0  0  0  0  0  0  0  0  0  0
    8.7163  -16.7781   20.7041 C   0  0  2  0  0  0  0  0  0  0  0  0
    7.5737  -17.3080   19.9829 N   0  0  0  0  0  0  0  0  0  0  0  0
    8.3012  -16.4720   22.1000 C   0  0  0  0  0  0  0  0  0  0  0  0
    7.5586  -15.4620   22.3401 O   0  0  0  0  0  0  0  0  0  0  0  0
    7.3169  -20.4349   26.5046 N   0  0  0  0  0  0  0  0  0  0  0  0
    8.2387  -20.5569   25.4438 C   0  0  0  0  0  0  0  0  0  0  0  0
    8.7484  -21.6327   25.1032 O   0  0  0  0  0  0  0  0  0  0  0  0
    8.6129  -19.3104   24.6973 C   0  0  0  0  0  0  0  0  0  0  0  0
    7.8534  -18.1430   25.2285 C   0  0  0  0  0  0  0  0  0  0  0  0
    8.2748  -16.8717   24.5719 C   0  0  2  0  0  0  0  0  0  0  0  0
    8.6866  -17.2494   23.2104 N   0  0  0  0  0  0  0  0  0  0  0  0
    9.3110  -16.0941   25.2419 C   0  0  0  0  0  0  0  0  0  0  0  0
   10.3802  -15.8023   24.6639 O   0  0  0  0  0  0  0  0  0  0  0  0
    9.1833  -15.6153   26.5872 N   0  0  0  0  0  0  0  0  0  0  0  0
   10.2452  -14.8472   27.2031 C   0  0  1  0  0  0  0  0  0  0  0  0
    9.9978  -13.3597   27.1119 C   0  0  0  0  0  0  0  0  0  0  0  0
    8.2981  -12.9030   27.4544 S   0  0  0  0  0  0  0  0  0  0  0  0
   10.3706  -15.1786   28.6354 C   0  0  0  0  0  0  0  0  0  0  0  0
    9.6000  -16.1523   29.2273 O   0  0  0  0  0  0  0  0  0  0  0  0
   11.1984  -14.5587   29.3292 O   0  0  0  0  0  0  0  0  0  0  0  0
  1  2  1  0
  3  2  1  0
  4  3  1  0
  5  6  1  6
  5  7  1  0
  5  4  1  0
  7  8  2  0
  7 15  1  0
 10  9  1  0
 11 10  2  0
 12 10  1  0
 13 12  1  0
 14 13  1  1
 15 14  1  0
 16 14  1  0
 17 16  2  0
 18 16  1  0
 19 22  1  0
 19 18  1  0
 20 21  1  0
 19 20  1  1
 22 23  1  0
 24 22  2  0
M  END
$$$$
