MQC.pdb
     RDKit          3D

 24 23  0  0  1  0  0  0  0  0999 V2000
    7.4214  -11.9976   19.6741 C   0  0  0  0  0  0  0  0  0  0  0  0
    8.1333  -12.8742   18.2363 S   0  0  0  0  0  0  0  0  0  0  0  0
    8.0775  -14.6478   18.6330 C   0  0  0  0  0  0  0  0  0  0  0  0
    7.9032  -14.8206   20.1461 C   0  0  0  0  0  0  0  0  0  0  0  0
    7.9385  -16.3270   20.3832 C   0  0  2  0  0  0  0  0  0  0  0  0
    6.7349  -16.9540   19.8689 N   0  0  0  0  0  0  0  0  0  0  0  0
    8.0131  -16.5658   21.8502 C   0  0  0  0  0  0  0  0  0  0  0  0
    6.9538  -16.5213   22.5608 O   0  0  0  0  0  0  0  0  0  0  0  0
   11.1626  -19.9260   26.3200 N   0  0  0  0  0  0  0  0  0  0  0  0
   10.3342  -18.7924   26.4554 C   0  0  0  0  0  0  0  0  0  0  0  0
    9.2579  -18.8030   27.0675 O   0  0  0  0  0  0  0  0  0  0  0  0
   10.7926  -17.5129   25.8199 C   0  0  0  0  0  0  0  0  0  0  0  0
   10.5403  -17.5467   24.3512 C   0  0  0  0  0  0  0  0  0  0  0  0
    9.2647  -16.8582   23.9993 C   0  0  2  0  0  0  0  0  0  0  0  0
    9.2159  -16.8473   22.5285 N   0  0  0  0  0  0  0  0  0  0  0  0
    9.0634  -15.5209   24.5456 C   0  0  0  0  0  0  0  0  0  0  0  0
    9.6804  -14.5336   24.0906 O   0  0  0  0  0  0  0  0  0  0  0  0
    8.1604  -15.2439   25.6241 N   0  0  0  0  0  0  0  0  0  0  0  0
    8.0350  -13.9039   26.1585 C   0  0  1  0  0  0  0  0  0  0  0  0
    6.5984  -13.5414   26.4536 C   0  0  0  0  0  0  0  0  0  0  0  0
    6.3884  -11.8323   26.9531 S   0  0  0  0  0  0  0  0  0  0  0  0
    8.7840  -13.7703   27.4227 C   0  0  0  0  0  0  0  0  0  0  0  0
    8.9774  -12.5506   28.0286 O   0  0  0  0  0  0  0  0  0  0  0  0
    9.2553  -14.7916   27.9571 O   0  0  0  0  0  0  0  0  0  0  0  0
  1  2  1  0
  3  2  1  0
  4  3  1  0
  5  6  1  1
  5  7  1  0
  5  4  1  0
  7  8  2  0
  7 15  1  0
 10  9  1  0
 11 10  2  0
 12 10  1  0
 13 12  1  0
 14 13  1  6
 15 14  1  0
 16 14  1  0
 17 16  2  0
 18 16  1  0
 19 22  1  0
 19 18  1  0
 20 21  1  0
 19 20  1  1
 22 23  1  0
 24 22  2  0
M  END
$$$$
