MQC.pdb
     RDKit          3D

 24 23  0  0  1  0  0  0  0  0999 V2000
    8.2436  -12.1968   20.0295 C   0  0  0  0  0  0  0  0  0  0  0  0
    7.9103  -13.1763   18.5221 S   0  0  0  0  0  0  0  0  0  0  0  0
    7.6746  -14.8956   19.0648 C   0  0  0  0  0  0  0  0  0  0  0  0
    7.1474  -14.9020   20.5042 C   0  0  0  0  0  0  0  0  0  0  0  0
    7.0041  -16.3757   20.8709 C   0  0  2  0  0  0  0  0  0  0  0  0
    5.8659  -16.9640   20.1893 N   0  0  0  0  0  0  0  0  0  0  0  0
    6.7841  -16.4707   22.3396 C   0  0  0  0  0  0  0  0  0  0  0  0
    5.6269  -16.2470   22.8294 O   0  0  0  0  0  0  0  0  0  0  0  0
    8.1139  -20.6312   26.1471 N   0  0  0  0  0  0  0  0  0  0  0  0
    7.7694  -19.6686   27.1190 C   0  0  0  0  0  0  0  0  0  0  0  0
    7.5824  -19.9406   28.3123 O   0  0  0  0  0  0  0  0  0  0  0  0
    7.6251  -18.2441   26.6702 C   0  0  0  0  0  0  0  0  0  0  0  0
    7.7540  -18.1544   25.1879 C   0  0  0  0  0  0  0  0  0  0  0  0
    7.5544  -16.7573   24.7051 C   0  0  2  0  0  0  0  0  0  0  0  0
    7.8028  -16.8026   23.2552 N   0  0  0  0  0  0  0  0  0  0  0  0
    8.3504  -15.7168   25.3462 C   0  0  0  0  0  0  0  0  0  0  0  0
    9.5332  -15.5005   25.0048 O   0  0  0  0  0  0  0  0  0  0  0  0
    7.8456  -14.8803   26.3955 N   0  0  0  0  0  0  0  0  0  0  0  0
    8.6883  -13.8771   27.0120 C   0  0  1  0  0  0  0  0  0  0  0  0
    7.8812  -12.7822   27.6695 C   0  0  0  0  0  0  0  0  0  0  0  0
    6.5402  -12.1788   26.6437 S   0  0  0  0  0  0  0  0  0  0  0  0
    9.5388  -14.4762   28.0583 C   0  0  0  0  0  0  0  0  0  0  0  0
   10.4577  -13.7337   28.7629 O   0  0  0  0  0  0  0  0  0  0  0  0
    9.4217  -15.6900   28.3111 O   0  0  0  0  0  0  0  0  0  0  0  0
  1  2  1  0
  3  2  1  0
  4  3  1  0
  5  6  1  6
  5  7  1  0
  5  4  1  0
  7  8  2  0
  7 15  1  0
 10  9  1  0
 11 10  2  0
 12 10  1  0
 13 12  1  0
 14 13  1  1
 15 14  1  0
 16 14  1  0
 17 16  2  0
 18 16  1  0
 19 22  1  0
 19 18  1  0
 20 21  1  0
 19 20  1  1
 22 23  1  0
 24 22  2  0
M  END
$$$$
