MQC.pdb
     RDKit          3D

 24 23  0  0  1  0  0  0  0  0999 V2000
    7.8071  -11.8073   20.5525 C   0  0  0  0  0  0  0  0  0  0  0  0
    7.0977  -13.2326   19.6537 S   0  0  0  0  0  0  0  0  0  0  0  0
    7.8252  -14.7250   20.3950 C   0  0  0  0  0  0  0  0  0  0  0  0
    9.3333  -14.5153   20.5731 C   0  0  0  0  0  0  0  0  0  0  0  0
    9.8496  -15.8180   21.1757 C   0  0  2  0  0  0  0  0  0  0  0  0
    9.3834  -16.9573   20.4070 N   0  0  0  0  0  0  0  0  0  0  0  0
    9.3239  -15.9295   22.5635 C   0  0  0  0  0  0  0  0  0  0  0  0
    9.4644  -14.9597   23.3812 O   0  0  0  0  0  0  0  0  0  0  0  0
    6.7353  -20.9833   25.0609 N   0  0  0  0  0  0  0  0  0  0  0  0
    6.7434  -20.1522   26.2007 C   0  0  0  0  0  0  0  0  0  0  0  0
    6.3907  -20.5326   27.3249 O   0  0  0  0  0  0  0  0  0  0  0  0
    7.2057  -18.7352   26.0281 C   0  0  0  0  0  0  0  0  0  0  0  0
    7.6050  -18.4914   24.6128 C   0  0  0  0  0  0  0  0  0  0  0  0
    8.1328  -17.1091   24.4238 C   0  0  2  0  0  0  0  0  0  0  0  0
    8.6592  -17.0731   23.0499 N   0  0  0  0  0  0  0  0  0  0  0  0
    9.1276  -16.6448   25.3841 C   0  0  0  0  0  0  0  0  0  0  0  0
   10.3323  -16.9598   25.2753 O   0  0  0  0  0  0  0  0  0  0  0  0
    8.8045  -15.8087   26.5030 N   0  0  0  0  0  0  0  0  0  0  0  0
    9.8310  -15.3904   27.4349 C   0  0  1  0  0  0  0  0  0  0  0  0
    9.4221  -14.1658   28.2195 C   0  0  0  0  0  0  0  0  0  0  0  0
   10.8114  -13.2913   28.9405 S   0  0  0  0  0  0  0  0  0  0  0  0
   10.1177  -16.4565   28.4138 C   0  0  0  0  0  0  0  0  0  0  0  0
   11.2616  -16.4545   29.1778 O   0  0  0  0  0  0  0  0  0  0  0  0
    9.3003  -17.3856   28.5528 O   0  0  0  0  0  0  0  0  0  0  0  0
  1  2  1  0
  3  2  1  0
  4  3  1  0
  5  6  1  6
  5  7  1  0
  5  4  1  0
  7  8  2  0
  7 15  1  0
 10  9  1  0
 11 10  2  0
 12 10  1  0
 13 12  1  0
 14 13  1  1
 15 14  1  0
 16 14  1  0
 17 16  2  0
 18 16  1  0
 19 22  1  0
 19 18  1  0
 20 21  1  0
 19 20  1  1
 22 23  1  0
 24 22  2  0
M  END
$$$$
