MQC.pdb
     RDKit          3D

 24 23  0  0  1  0  0  0  0  0999 V2000
    7.2956  -13.0027   21.1041 C   0  0  0  0  0  0  0  0  0  0  0  0
    6.9520  -12.3956   19.4141 S   0  0  0  0  0  0  0  0  0  0  0  0
    8.2766  -13.0465   18.3520 C   0  0  0  0  0  0  0  0  0  0  0  0
    9.2289  -13.8985   19.1989 C   0  0  0  0  0  0  0  0  0  0  0  0
   10.2219  -14.4945   18.2063 C   0  0  2  0  0  0  0  0  0  0  0  0
    9.5586  -15.4330   17.3202 N   0  0  0  0  0  0  0  0  0  0  0  0
   11.2695  -15.2203   18.9747 C   0  0  0  0  0  0  0  0  0  0  0  0
   11.0777  -16.4301   19.3334 O   0  0  0  0  0  0  0  0  0  0  0  0
   17.2602  -13.9533   19.3719 N   0  0  0  0  0  0  0  0  0  0  0  0
   16.5268  -14.4138   18.2583 C   0  0  0  0  0  0  0  0  0  0  0  0
   16.9733  -14.4219   17.1035 O   0  0  0  0  0  0  0  0  0  0  0  0
   15.1343  -14.9177   18.4995 C   0  0  0  0  0  0  0  0  0  0  0  0
   14.7781  -14.7807   19.9404 C   0  0  0  0  0  0  0  0  0  0  0  0
   13.4329  -15.3572   20.2285 C   0  0  2  0  0  0  0  0  0  0  0  0
   12.4998  -14.6407   19.3443 N   0  0  0  0  0  0  0  0  0  0  0  0
   12.9819  -15.3209   21.6150 C   0  0  0  0  0  0  0  0  0  0  0  0
   13.0615  -14.2765   22.2970 O   0  0  0  0  0  0  0  0  0  0  0  0
   12.4241  -16.4583   22.2865 N   0  0  0  0  0  0  0  0  0  0  0  0
   12.1123  -16.4037   23.6995 C   0  0  1  0  0  0  0  0  0  0  0  0
   10.6231  -16.4090   23.9540 C   0  0  0  0  0  0  0  0  0  0  0  0
    9.7850  -17.8135   23.2194 S   0  0  0  0  0  0  0  0  0  0  0  0
   12.6770  -17.5687   24.4074 C   0  0  0  0  0  0  0  0  0  0  0  0
   12.7287  -17.6309   25.7806 O   0  0  0  0  0  0  0  0  0  0  0  0
   13.1199  -18.5239   23.7424 O   0  0  0  0  0  0  0  0  0  0  0  0
  1  2  1  0
  3  2  1  0
  4  3  1  0
  5  6  1  6
  5  7  1  0
  5  4  1  0
  7  8  2  0
  7 15  1  0
 10  9  1  0
 11 10  2  0
 12 10  1  0
 13 12  1  0
 14 13  1  1
 15 14  1  0
 16 14  1  0
 17 16  2  0
 18 16  1  0
 19 22  1  0
 19 18  1  0
 20 21  1  0
 19 20  1  6
 22 23  1  0
 24 22  2  0
M  END
$$$$
