MQC.pdb
     RDKit          3D

 24 23  0  0  1  0  0  0  0  0999 V2000
    6.0745  -10.6863   26.6084 C   0  0  0  0  0  0  0  0  0  0  0  0
    7.0357  -12.1613   26.1154 S   0  0  0  0  0  0  0  0  0  0  0  0
    6.2899  -12.7726   24.5738 C   0  0  0  0  0  0  0  0  0  0  0  0
    6.7394  -14.2186   24.3353 C   0  0  0  0  0  0  0  0  0  0  0  0
    8.2532  -14.2025   24.5214 C   0  0  2  0  0  0  0  0  0  0  0  0
    8.9143  -13.7811   23.3001 N   0  0  0  0  0  0  0  0  0  0  0  0
    8.6962  -15.5839   24.8534 C   0  0  0  0  0  0  0  0  0  0  0  0
    8.1249  -16.2308   25.7936 O   0  0  0  0  0  0  0  0  0  0  0  0
   10.7806  -19.5361   20.9246 N   0  0  0  0  0  0  0  0  0  0  0  0
   11.5561  -18.3765   21.1340 C   0  0  0  0  0  0  0  0  0  0  0  0
   12.3721  -17.9434   20.3096 O   0  0  0  0  0  0  0  0  0  0  0  0
   11.3731  -17.6386   22.4276 C   0  0  0  0  0  0  0  0  0  0  0  0
   10.3714  -18.3365   23.2827 C   0  0  0  0  0  0  0  0  0  0  0  0
   10.1430  -17.6073   24.5637 C   0  0  2  0  0  0  0  0  0  0  0  0
    9.7392  -16.2463   24.1754 N   0  0  0  0  0  0  0  0  0  0  0  0
   11.2485  -17.5803   25.5146 C   0  0  0  0  0  0  0  0  0  0  0  0
   11.7345  -18.6355   25.9760 O   0  0  0  0  0  0  0  0  0  0  0  0
   11.8490  -16.3654   25.9823 N   0  0  0  0  0  0  0  0  0  0  0  0
   11.7838  -15.9987   27.3816 C   0  0  1  0  0  0  0  0  0  0  0  0
   10.5723  -15.1509   27.6915 C   0  0  0  0  0  0  0  0  0  0  0  0
   10.3876  -14.7931   29.4387 S   0  0  0  0  0  0  0  0  0  0  0  0
   11.7028  -17.1989   28.2360 C   0  0  0  0  0  0  0  0  0  0  0  0
   12.5057  -17.3611   29.3411 O   0  0  0  0  0  0  0  0  0  0  0  0
   10.8836  -18.0916   27.9484 O   0  0  0  0  0  0  0  0  0  0  0  0
  1  2  1  0
  3  2  1  0
  4  3  1  0
  5  6  1  6
  5  7  1  0
  5  4  1  0
  7  8  2  0
  7 15  1  0
 10  9  1  0
 11 10  2  0
 12 10  1  0
 13 12  1  0
 14 13  1  6
 15 14  1  0
 16 14  1  0
 17 16  2  0
 18 16  1  0
 19 22  1  0
 19 18  1  0
 20 21  1  0
 19 20  1  6
 22 23  1  0
 24 22  2  0
M  END
$$$$
