MQC.pdb
     RDKit          3D

 24 23  0  0  1  0  0  0  0  0999 V2000
    8.1702  -15.1307   16.0162 C   0  0  0  0  0  0  0  0  0  0  0  0
    7.7181  -13.4298   16.5116 S   0  0  0  0  0  0  0  0  0  0  0  0
    7.6427  -13.4236   18.3283 C   0  0  0  0  0  0  0  0  0  0  0  0
    7.5173  -14.8658   18.8325 C   0  0  0  0  0  0  0  0  0  0  0  0
    7.3671  -14.7486   20.3459 C   0  0  2  0  0  0  0  0  0  0  0  0
    7.7530  -13.4243   20.7971 N   0  0  0  0  0  0  0  0  0  0  0  0
    8.2642  -15.7513   20.9819 C   0  0  0  0  0  0  0  0  0  0  0  0
    8.0569  -16.9983   20.8062 O   0  0  0  0  0  0  0  0  0  0  0  0
   11.9915  -18.5692   20.2383 N   0  0  0  0  0  0  0  0  0  0  0  0
   12.6721  -18.5614   21.4739 C   0  0  0  0  0  0  0  0  0  0  0  0
   13.4503  -19.4563   21.8298 O   0  0  0  0  0  0  0  0  0  0  0  0
   12.4319  -17.4023   22.3958 C   0  0  0  0  0  0  0  0  0  0  0  0
   11.4852  -16.4344   21.7723 C   0  0  0  0  0  0  0  0  0  0  0  0
   10.1627  -16.4412   22.4620 C   0  0  2  0  0  0  0  0  0  0  0  0
    9.3637  -15.4028   21.7917 N   0  0  0  0  0  0  0  0  0  0  0  0
   10.1708  -16.2518   23.9081 C   0  0  0  0  0  0  0  0  0  0  0  0
   10.6929  -15.2421   24.4281 O   0  0  0  0  0  0  0  0  0  0  0  0
    9.5918  -17.1909   24.8237 N   0  0  0  0  0  0  0  0  0  0  0  0
    9.6120  -16.9422   26.2501 C   0  0  1  0  0  0  0  0  0  0  0  0
    8.2326  -16.6599   26.7978 C   0  0  0  0  0  0  0  0  0  0  0  0
    7.4205  -15.2794   25.9921 S   0  0  0  0  0  0  0  0  0  0  0  0
   10.1370  -18.1121   26.9799 C   0  0  0  0  0  0  0  0  0  0  0  0
   10.3140  -18.0996   28.3440 O   0  0  0  0  0  0  0  0  0  0  0  0
   10.4286  -19.1414   26.3425 O   0  0  0  0  0  0  0  0  0  0  0  0
  1  2  1  0
  3  2  1  0
  4  3  1  0
  5  6  1  1
  5  7  1  0
  5  4  1  0
  7  8  2  0
  7 15  1  0
 10  9  1  0
 11 10  2  0
 12 10  1  0
 13 12  1  0
 14 13  1  6
 15 14  1  0
 16 14  1  0
 17 16  2  0
 18 16  1  0
 19 22  1  0
 19 18  1  0
 20 21  1  0
 19 20  1  1
 22 23  1  0
 24 22  2  0
M  END
$$$$
