MQC.pdb
     RDKit          3D

 24 23  0  0  1  0  0  0  0  0999 V2000
    6.2929  -11.9298   26.5073 C   0  0  0  0  0  0  0  0  0  0  0  0
    7.1183  -13.2746   27.4310 S   0  0  0  0  0  0  0  0  0  0  0  0
    7.2447  -14.6838   26.2890 C   0  0  0  0  0  0  0  0  0  0  0  0
    5.8428  -15.0608   25.7966 C   0  0  0  0  0  0  0  0  0  0  0  0
    6.0412  -16.3095   24.9433 C   0  0  2  0  0  0  0  0  0  0  0  0
    6.5352  -17.4086   25.7521 N   0  0  0  0  0  0  0  0  0  0  0  0
    7.0472  -15.9995   23.8914 C   0  0  0  0  0  0  0  0  0  0  0  0
    8.0692  -16.7494   23.7420 O   0  0  0  0  0  0  0  0  0  0  0  0
    6.8790  -14.8610   18.8302 N   0  0  0  0  0  0  0  0  0  0  0  0
    8.0433  -14.0647   18.8166 C   0  0  0  0  0  0  0  0  0  0  0  0
    8.8434  -14.0422   17.8719 O   0  0  0  0  0  0  0  0  0  0  0  0
    8.3148  -13.2046   20.0157 C   0  0  0  0  0  0  0  0  0  0  0  0
    7.3882  -13.5615   21.1274 C   0  0  0  0  0  0  0  0  0  0  0  0
    7.9125  -14.7033   21.9312 C   0  0  2  0  0  0  0  0  0  0  0  0
    6.9421  -14.8963   23.0207 N   0  0  0  0  0  0  0  0  0  0  0  0
    9.2707  -14.5787   22.4480 C   0  0  0  0  0  0  0  0  0  0  0  0
    9.5093  -13.9540   23.5041 O   0  0  0  0  0  0  0  0  0  0  0  0
   10.4117  -15.1523   21.7963 N   0  0  0  0  0  0  0  0  0  0  0  0
   11.5093  -15.6959   22.5687 C   0  0  1  0  0  0  0  0  0  0  0  0
   11.0823  -16.8740   23.4126 C   0  0  0  0  0  0  0  0  0  0  0  0
   11.4402  -16.6616   25.1566 S   0  0  0  0  0  0  0  0  0  0  0  0
   12.5921  -16.1665   21.6837 C   0  0  0  0  0  0  0  0  0  0  0  0
   13.9159  -15.9064   21.9518 O   0  0  0  0  0  0  0  0  0  0  0  0
   12.2991  -16.8184   20.6639 O   0  0  0  0  0  0  0  0  0  0  0  0
  1  2  1  0
  3  2  1  0
  4  3  1  0
  5  6  1  1
  5  7  1  0
  5  4  1  0
  7  8  2  0
  7 15  1  0
 10  9  1  0
 11 10  2  0
 12 10  1  0
 13 12  1  0
 14 13  1  1
 15 14  1  0
 16 14  1  0
 17 16  2  0
 18 16  1  0
 19 22  1  0
 19 18  1  0
 20 21  1  0
 19 20  1  6
 22 23  1  0
 24 22  2  0
M  END
$$$$
