VAR.pdb
     RDKit          3D

 24 23  0  0  1  0  0  0  0  0999 V2000
   16.9996  -23.4320   -8.7056 C   0  0  0  0  0  0  0  0  0  0  0  0
   18.4405  -23.8577   -8.5150 C   0  0  2  0  0  0  0  0  0  0  0  0
   19.1852  -23.5129   -9.7939 C   0  0  0  0  0  0  0  0  0  0  0  0
   18.4589  -25.3419   -8.2293 C   0  0  2  0  0  0  0  0  0  0  0  0
   17.9460  -25.9868   -9.4260 N   0  0  0  0  0  0  0  0  0  0  0  0
   17.5961  -25.6145   -7.0562 C   0  0  0  0  0  0  0  0  0  0  0  0
   16.3416  -25.6230   -7.1149 O   0  0  0  0  0  0  0  0  0  0  0  0
   18.1672  -26.4492   -3.3720 C   0  0  0  0  0  0  0  0  0  0  0  0
   17.4101  -25.8939   -4.5536 C   0  0  2  0  0  0  0  0  0  0  0  0
   18.1540  -25.8878   -5.7727 N   0  0  0  0  0  0  0  0  0  0  0  0
   16.8216  -24.6114   -4.1899 C   0  0  0  0  0  0  0  0  0  0  0  0
   16.9600  -23.5339   -4.8624 O   0  0  0  0  0  0  0  0  0  0  0  0
   10.9050  -19.8325   -5.5864 N   0  0  0  0  0  0  0  0  0  0  0  0
   11.6763  -20.6171   -6.4777 C   0  0  0  0  0  0  0  0  0  0  0  0
   11.1379  -21.0221   -7.5605 N   0  0  0  0  0  0  0  0  0  0  0  0
   13.0439  -20.9436   -6.1573 N   0  0  0  0  0  0  0  0  0  0  0  0
   13.3325  -21.7090   -5.0067 C   0  0  0  0  0  0  0  0  0  0  0  0
   13.7055  -23.1432   -5.1520 C   0  0  0  0  0  0  0  0  0  0  0  0
   13.9341  -23.9461   -3.9415 C   0  0  0  0  0  0  0  0  0  0  0  0
   14.9356  -23.4975   -2.9303 C   0  0  2  0  0  0  0  0  0  0  0  0
   16.0334  -24.5090   -3.0180 N   0  0  0  0  0  0  0  0  0  0  0  0
   14.3290  -23.6015   -1.5728 C   0  0  0  0  0  0  0  0  0  0  0  0
   14.0665  -24.7050   -1.0879 O   0  0  0  0  0  0  0  0  0  0  0  0
   14.0813  -22.3997   -0.8991 O   0  0  0  0  0  0  0  0  0  0  0  0
  2  1  1  6
  3  2  1  0
  4  2  1  0
  4  5  1  6
  6  4  1  0
  6  7  2  0
  9  8  1  1
  9 10  1  0
 10  6  1  0
 11  9  1  0
 11 12  2  0
 13 14  1  0
 14 15  2  0
 16 14  1  0
 16 17  1  0
 18 17  1  0
 19 18  1  0
 20 21  1  0
 20 19  1  6
 21 11  1  0
 22 20  1  0
 23 22  2  0
 24 22  1  0
M  END
$$$$
