VAR.pdb
     RDKit          3D

 24 23  0  0  1  0  0  0  0  0999 V2000
   25.0336  -20.2321  -18.4447 C   0  0  0  0  0  0  0  0  0  0  0  0
   24.0081  -19.1499  -18.1786 C   0  0  2  0  0  0  0  0  0  0  0  0
   23.9994  -18.2301  -19.3882 C   0  0  0  0  0  0  0  0  0  0  0  0
   24.4080  -18.4231  -16.9150 C   0  0  2  0  0  0  0  0  0  0  0  0
   25.6556  -17.7441  -17.2209 N   0  0  0  0  0  0  0  0  0  0  0  0
   24.5842  -19.4141  -15.8279 C   0  0  0  0  0  0  0  0  0  0  0  0
   23.6564  -20.1549  -15.4184 O   0  0  0  0  0  0  0  0  0  0  0  0
   27.5122  -20.6412  -13.7035 C   0  0  0  0  0  0  0  0  0  0  0  0
   26.0578  -20.4364  -14.0505 C   0  0  2  0  0  0  0  0  0  0  0  0
   25.8407  -19.5839  -15.1756 N   0  0  0  0  0  0  0  0  0  0  0  0
   25.3233  -20.0619  -12.8489 C   0  0  0  0  0  0  0  0  0  0  0  0
   25.1761  -18.8624  -12.4340 O   0  0  0  0  0  0  0  0  0  0  0  0
   20.2836  -23.6712   -7.9288 N   0  0  0  0  0  0  0  0  0  0  0  0
   19.2905  -22.6644   -8.0003 C   0  0  0  0  0  0  0  0  0  0  0  0
   18.3729  -22.6449   -7.1149 N   0  0  0  0  0  0  0  0  0  0  0  0
   19.3277  -21.6843   -9.0574 N   0  0  0  0  0  0  0  0  0  0  0  0
   20.2914  -21.7934  -10.0833 C   0  0  0  0  0  0  0  0  0  0  0  0
   21.6506  -21.2205   -9.8795 C   0  0  0  0  0  0  0  0  0  0  0  0
   22.6297  -21.3025  -10.9735 C   0  0  0  0  0  0  0  0  0  0  0  0
   23.9860  -20.7039  -10.8035 C   0  0  2  0  0  0  0  0  0  0  0  0
   24.7140  -21.0662  -12.0584 N   0  0  0  0  0  0  0  0  0  0  0  0
   24.6726  -21.3819   -9.6675 C   0  0  0  0  0  0  0  0  0  0  0  0
   25.3561  -22.3904   -9.8620 O   0  0  0  0  0  0  0  0  0  0  0  0
   24.4982  -20.8182   -8.3982 O   0  0  0  0  0  0  0  0  0  0  0  0
  2  1  1  6
  3  2  1  0
  4  2  1  0
  4  5  1  6
  6  4  1  0
  6  7  2  0
  9  8  1  1
  9 10  1  0
 10  6  1  0
 11  9  1  0
 11 12  2  0
 13 14  1  0
 14 15  2  0
 16 14  1  0
 16 17  1  0
 18 17  1  0
 19 18  1  0
 20 21  1  0
 20 19  1  6
 21 11  1  0
 22 20  1  0
 23 22  2  0
 24 22  1  0
M  END
$$$$
