VAR.pdb
     RDKit          3D

 24 23  0  0  1  0  0  0  0  0999 V2000
   22.6186  -18.7928  -14.2685 C   0  0  0  0  0  0  0  0  0  0  0  0
   21.4827  -19.2786  -15.1445 C   0  0  2  0  0  0  0  0  0  0  0  0
   21.7822  -20.7225  -15.5113 C   0  0  0  0  0  0  0  0  0  0  0  0
   21.4125  -18.3859  -16.3623 C   0  0  2  0  0  0  0  0  0  0  0  0
   22.6715  -18.5665  -17.0646 N   0  0  0  0  0  0  0  0  0  0  0  0
   21.2374  -16.9833  -15.9184 C   0  0  0  0  0  0  0  0  0  0  0  0
   20.2312  -16.5867  -15.2799 O   0  0  0  0  0  0  0  0  0  0  0  0
   23.4066  -13.8502  -15.8837 C   0  0  0  0  0  0  0  0  0  0  0  0
   22.1063  -14.6143  -15.8270 C   0  0  2  0  0  0  0  0  0  0  0  0
   22.2207  -15.9889  -16.1970 N   0  0  0  0  0  0  0  0  0  0  0  0
   21.0786  -13.8714  -16.5448 C   0  0  0  0  0  0  0  0  0  0  0  0
   20.7802  -14.0507  -17.7741 O   0  0  0  0  0  0  0  0  0  0  0  0
   13.5579  -11.5097  -13.1448 N   0  0  0  0  0  0  0  0  0  0  0  0
   13.4087  -10.8710  -14.3997 C   0  0  0  0  0  0  0  0  0  0  0  0
   12.2930  -10.3193  -14.6777 N   0  0  0  0  0  0  0  0  0  0  0  0
   14.5050  -10.8495  -15.3363 N   0  0  0  0  0  0  0  0  0  0  0  0
   15.6967  -11.5458  -15.0394 C   0  0  0  0  0  0  0  0  0  0  0  0
   16.8459  -11.4728  -15.9834 C   0  0  0  0  0  0  0  0  0  0  0  0
   18.0772  -12.2111  -15.6653 C   0  0  0  0  0  0  0  0  0  0  0  0
   19.2526  -12.1253  -16.5806 C   0  0  2  0  0  0  0  0  0  0  0  0
   20.3346  -12.8735  -15.8697 N   0  0  0  0  0  0  0  0  0  0  0  0
   19.6782  -10.7006  -16.6854 C   0  0  0  0  0  0  0  0  0  0  0  0
   20.5924  -10.2675  -15.9793 O   0  0  0  0  0  0  0  0  0  0  0  0
   18.9935   -9.9045  -17.6109 O   0  0  0  0  0  0  0  0  0  0  0  0
  2  1  1  1
  3  2  1  0
  4  2  1  0
  4  5  1  1
  6  4  1  0
  6  7  2  0
  9  8  1  6
  9 10  1  0
 10  6  1  0
 11  9  1  0
 11 12  2  0
 13 14  1  0
 14 15  2  0
 16 14  1  0
 16 17  1  0
 18 17  1  0
 19 18  1  0
 20 21  1  0
 20 19  1  1
 21 11  1  0
 22 20  1  0
 23 22  2  0
 24 22  1  0
M  END
$$$$
