VAR.pdb
     RDKit          3D

 24 23  0  0  1  0  0  0  0  0999 V2000
   19.3496  -14.4734  -15.7902 C   0  0  0  0  0  0  0  0  0  0  0  0
   17.8380  -14.5593  -15.8268 C   0  0  2  0  0  0  0  0  0  0  0  0
   17.4761  -15.7898  -16.6417 C   0  0  0  0  0  0  0  0  0  0  0  0
   17.3094  -13.2884  -16.4514 C   0  0  2  0  0  0  0  0  0  0  0  0
   17.8396  -13.2559  -17.8037 N   0  0  0  0  0  0  0  0  0  0  0  0
   17.7832  -12.1312  -15.6568 C   0  0  0  0  0  0  0  0  0  0  0  0
   17.4511  -11.9385  -14.4611 O   0  0  0  0  0  0  0  0  0  0  0  0
   20.3512   -9.3627  -16.1837 C   0  0  0  0  0  0  0  0  0  0  0  0
   19.1863  -10.0377  -15.5017 C   0  0  2  0  0  0  0  0  0  0  0  0
   18.6590  -11.1554  -16.2173 N   0  0  0  0  0  0  0  0  0  0  0  0
   18.2005   -9.0333  -15.1238 C   0  0  0  0  0  0  0  0  0  0  0  0
   17.2151   -8.6746  -15.8538 O   0  0  0  0  0  0  0  0  0  0  0  0
   15.0492   -7.5711   -7.1995 N   0  0  0  0  0  0  0  0  0  0  0  0
   14.4696   -6.4766   -7.8858 C   0  0  0  0  0  0  0  0  0  0  0  0
   13.5143   -5.8409   -7.3293 N   0  0  0  0  0  0  0  0  0  0  0  0
   14.9601   -6.0961   -9.1873 N   0  0  0  0  0  0  0  0  0  0  0  0
   15.7619   -6.9931   -9.9260 C   0  0  0  0  0  0  0  0  0  0  0  0
   16.1301   -6.6647  -11.3309 C   0  0  0  0  0  0  0  0  0  0  0  0
   16.9471   -7.6191  -12.0950 C   0  0  0  0  0  0  0  0  0  0  0  0
   17.3487   -7.2987  -13.4960 C   0  0  2  0  0  0  0  0  0  0  0  0
   18.3045   -8.3867  -13.8684 N   0  0  0  0  0  0  0  0  0  0  0  0
   18.1009   -6.0119  -13.4989 C   0  0  0  0  0  0  0  0  0  0  0  0
   19.3291   -6.0052  -13.3835 O   0  0  0  0  0  0  0  0  0  0  0  0
   17.3465   -4.8409  -13.6368 O   0  0  0  0  0  0  0  0  0  0  0  0
  2  1  1  6
  3  2  1  0
  4  2  1  0
  4  5  1  6
  6  4  1  0
  6  7  2  0
  9  8  1  6
  9 10  1  0
 10  6  1  0
 11  9  1  0
 11 12  2  0
 13 14  1  0
 14 15  2  0
 16 14  1  0
 16 17  1  0
 18 17  1  0
 19 18  1  0
 20 21  1  0
 20 19  1  1
 21 11  1  0
 22 20  1  0
 23 22  2  0
 24 22  1  0
M  END
$$$$
