VAR.pdb
     RDKit          3D

 24 23  0  0  1  0  0  0  0  0999 V2000
   24.9264  -15.6881  -15.5169 C   0  0  0  0  0  0  0  0  0  0  0  0
   26.4107  -15.3881  -15.4958 C   0  0  2  0  0  0  0  0  0  0  0  0
   26.5861  -13.9489  -15.9507 C   0  0  0  0  0  0  0  0  0  0  0  0
   27.1014  -16.3644  -16.4202 C   0  0  2  0  0  0  0  0  0  0  0  0
   26.4864  -16.1852  -17.7242 N   0  0  0  0  0  0  0  0  0  0  0  0
   26.8922  -17.7388  -15.9080 C   0  0  0  0  0  0  0  0  0  0  0  0
   25.8129  -18.3656  -16.0473 O   0  0  0  0  0  0  0  0  0  0  0  0
   29.0082  -20.2488  -13.9415 C   0  0  0  0  0  0  0  0  0  0  0  0
   27.7418  -19.6770  -14.5307 C   0  0  2  0  0  0  0  0  0  0  0  0
   27.9250  -18.4378  -15.2166 N   0  0  0  0  0  0  0  0  0  0  0  0
   26.6992  -19.6642  -13.5128 C   0  0  0  0  0  0  0  0  0  0  0  0
   26.5247  -18.7234  -12.6661 O   0  0  0  0  0  0  0  0  0  0  0  0
   19.6547  -24.3850  -12.9875 N   0  0  0  0  0  0  0  0  0  0  0  0
   19.1462  -23.2110  -12.3808 C   0  0  0  0  0  0  0  0  0  0  0  0
   17.8980  -23.1431  -12.1283 N   0  0  0  0  0  0  0  0  0  0  0  0
   20.0327  -22.1207  -12.0574 N   0  0  0  0  0  0  0  0  0  0  0  0
   21.3334  -22.0863  -12.6052 C   0  0  0  0  0  0  0  0  0  0  0  0
   22.1551  -20.8517  -12.4723 C   0  0  0  0  0  0  0  0  0  0  0  0
   23.4467  -20.7768  -13.1712 C   0  0  0  0  0  0  0  0  0  0  0  0
   24.7159  -20.7519  -12.3868 C   0  0  2  0  0  0  0  0  0  0  0  0
   25.7947  -20.7499  -13.4222 N   0  0  0  0  0  0  0  0  0  0  0  0
   24.8294  -22.0215  -11.6142 C   0  0  0  0  0  0  0  0  0  0  0  0
   25.1421  -23.0721  -12.1802 O   0  0  0  0  0  0  0  0  0  0  0  0
   24.5656  -21.9499  -10.2414 O   0  0  0  0  0  0  0  0  0  0  0  0
  2  1  1  6
  3  2  1  0
  4  2  1  0
  4  5  1  6
  6  4  1  0
  6  7  2  0
  9  8  1  1
  9 10  1  0
 10  6  1  0
 11  9  1  0
 11 12  2  0
 13 14  1  0
 14 15  2  0
 16 14  1  0
 16 17  1  0
 18 17  1  0
 19 18  1  0
 20 21  1  0
 20 19  1  6
 21 11  1  0
 22 20  1  0
 23 22  2  0
 24 22  1  0
M  END
$$$$
