VAR.pdb
     RDKit          3D

 24 23  0  0  1  0  0  0  0  0999 V2000
   19.7041  -14.7129  -15.8961 C   0  0  0  0  0  0  0  0  0  0  0  0
   18.2267  -14.8371  -16.2052 C   0  0  2  0  0  0  0  0  0  0  0  0
   18.0527  -16.0599  -17.0902 C   0  0  0  0  0  0  0  0  0  0  0  0
   17.7821  -13.5680  -16.8956 C   0  0  2  0  0  0  0  0  0  0  0  0
   18.5059  -13.5221  -18.1546 N   0  0  0  0  0  0  0  0  0  0  0  0
   18.1205  -12.4107  -16.0349 C   0  0  0  0  0  0  0  0  0  0  0  0
   17.6585  -12.2591  -14.8769 O   0  0  0  0  0  0  0  0  0  0  0  0
   20.4690   -9.4089  -16.3208 C   0  0  0  0  0  0  0  0  0  0  0  0
   19.3513  -10.2282  -15.7230 C   0  0  2  0  0  0  0  0  0  0  0  0
   19.0065  -11.3871  -16.4829 N   0  0  0  0  0  0  0  0  0  0  0  0
   18.2316   -9.3534  -15.3999 C   0  0  0  0  0  0  0  0  0  0  0  0
   17.2719   -9.0799  -16.1978 O   0  0  0  0  0  0  0  0  0  0  0  0
   14.8235   -7.8392   -7.4973 N   0  0  0  0  0  0  0  0  0  0  0  0
   13.8206   -7.3262   -8.3552 C   0  0  0  0  0  0  0  0  0  0  0  0
   12.6595   -7.1042   -7.8766 N   0  0  0  0  0  0  0  0  0  0  0  0
   14.1188   -7.0619   -9.7411 N   0  0  0  0  0  0  0  0  0  0  0  0
   15.1493   -7.7786  -10.3872 C   0  0  0  0  0  0  0  0  0  0  0  0
   15.5586   -7.3953  -11.7666 C   0  0  0  0  0  0  0  0  0  0  0  0
   16.6031   -8.1784  -12.4433 C   0  0  0  0  0  0  0  0  0  0  0  0
   17.0688   -7.7776  -13.8033 C   0  0  2  0  0  0  0  0  0  0  0  0
   18.1633   -8.7448  -14.1231 N   0  0  0  0  0  0  0  0  0  0  0  0
   17.6728   -6.4173  -13.7239 C   0  0  0  0  0  0  0  0  0  0  0  0
   18.8847   -6.2811  -13.5376 O   0  0  0  0  0  0  0  0  0  0  0  0
   16.8020   -5.3312  -13.8697 O   0  0  0  0  0  0  0  0  0  0  0  0
  2  1  1  6
  3  2  1  0
  4  2  1  0
  4  5  1  6
  6  4  1  0
  6  7  2  0
  9  8  1  6
  9 10  1  0
 10  6  1  0
 11  9  1  0
 11 12  2  0
 13 14  1  0
 14 15  2  0
 16 14  1  0
 16 17  1  0
 18 17  1  0
 19 18  1  0
 20 21  1  0
 20 19  1  1
 21 11  1  0
 22 20  1  0
 23 22  2  0
 24 22  1  0
M  END
$$$$
