VAR.pdb
     RDKit          3D

 24 23  0  0  1  0  0  0  0  0999 V2000
   26.3464  -17.4989  -17.7204 C   0  0  0  0  0  0  0  0  0  0  0  0
   25.4152  -17.4808  -16.5261 C   0  0  2  0  0  0  0  0  0  0  0  0
   26.2299  -17.8974  -15.3130 C   0  0  0  0  0  0  0  0  0  0  0  0
   24.2774  -18.4369  -16.8020 C   0  0  2  0  0  0  0  0  0  0  0  0
   23.6582  -17.9782  -18.0338 N   0  0  0  0  0  0  0  0  0  0  0  0
   23.3254  -18.3885  -15.6678 C   0  0  0  0  0  0  0  0  0  0  0  0
   23.6200  -18.7715  -14.5086 O   0  0  0  0  0  0  0  0  0  0  0  0
   20.1643  -16.6754  -14.7251 C   0  0  0  0  0  0  0  0  0  0  0  0
   20.9890  -17.9355  -14.8244 C   0  0  2  0  0  0  0  0  0  0  0  0
   21.9982  -17.8943  -15.8340 N   0  0  0  0  0  0  0  0  0  0  0  0
   20.1010  -19.0888  -14.8941 C   0  0  0  0  0  0  0  0  0  0  0  0
   19.7462  -19.6657  -15.9775 O   0  0  0  0  0  0  0  0  0  0  0  0
   17.7925  -25.5039  -11.8166 N   0  0  0  0  0  0  0  0  0  0  0  0
   18.9741  -25.7062  -11.0632 C   0  0  0  0  0  0  0  0  0  0  0  0
   19.4373  -26.8897  -10.9560 N   0  0  0  0  0  0  0  0  0  0  0  0
   19.6335  -24.5878  -10.4358 N   0  0  0  0  0  0  0  0  0  0  0  0
   19.1897  -23.2734  -10.6975 C   0  0  0  0  0  0  0  0  0  0  0  0
   19.1592  -22.7729  -12.0996 C   0  0  0  0  0  0  0  0  0  0  0  0
   18.7347  -21.3881  -12.3527 C   0  0  0  0  0  0  0  0  0  0  0  0
   18.7114  -20.8612  -13.7486 C   0  0  2  0  0  0  0  0  0  0  0  0
   19.5737  -19.6405  -13.7013 N   0  0  0  0  0  0  0  0  0  0  0  0
   17.3240  -20.4255  -14.0757 C   0  0  0  0  0  0  0  0  0  0  0  0
   16.9328  -19.2979  -13.7640 O   0  0  0  0  0  0  0  0  0  0  0  0
   16.5127  -21.3517  -14.7414 O   0  0  0  0  0  0  0  0  0  0  0  0
  2  1  1  6
  3  2  1  0
  4  2  1  0
  4  5  1  6
  6  4  1  0
  6  7  2  0
  9  8  1  6
  9 10  1  0
 10  6  1  0
 11  9  1  0
 11 12  2  0
 13 14  1  0
 14 15  2  0
 16 14  1  0
 16 17  1  0
 18 17  1  0
 19 18  1  0
 20 21  1  0
 20 19  1  1
 21 11  1  0
 22 20  1  0
 23 22  2  0
 24 22  1  0
M  END
$$$$
