VAR.pdb
     RDKit          3D

 24 23  0  0  1  0  0  0  0  0999 V2000
   23.0932  -14.5370  -17.3849 C   0  0  0  0  0  0  0  0  0  0  0  0
   22.3136  -15.8279  -17.2465 C   0  0  2  0  0  0  0  0  0  0  0  0
   22.8167  -16.7758  -18.3223 C   0  0  0  0  0  0  0  0  0  0  0  0
   20.8448  -15.5105  -17.4104 C   0  0  2  0  0  0  0  0  0  0  0  0
   20.7055  -14.9310  -18.7354 N   0  0  0  0  0  0  0  0  0  0  0  0
   20.4415  -14.5515  -16.3556 C   0  0  0  0  0  0  0  0  0  0  0  0
   20.5046  -14.8147  -15.1292 O   0  0  0  0  0  0  0  0  0  0  0  0
   20.6830  -11.8038  -14.8266 C   0  0  0  0  0  0  0  0  0  0  0  0
   19.5606  -12.2720  -15.7203 C   0  0  2  0  0  0  0  0  0  0  0  0
   19.9510  -13.2530  -16.6820 N   0  0  0  0  0  0  0  0  0  0  0  0
   18.8696  -11.1145  -16.2735 C   0  0  0  0  0  0  0  0  0  0  0  0
   19.3472  -10.3501  -17.1791 O   0  0  0  0  0  0  0  0  0  0  0  0
   10.3851   -9.6258  -14.7507 N   0  0  0  0  0  0  0  0  0  0  0  0
   11.5175   -9.9734  -13.9751 C   0  0  0  0  0  0  0  0  0  0  0  0
   11.3363  -10.4753  -12.8168 N   0  0  0  0  0  0  0  0  0  0  0  0
   12.8452   -9.7613  -14.4965 N   0  0  0  0  0  0  0  0  0  0  0  0
   13.0286   -8.9700  -15.6512 C   0  0  0  0  0  0  0  0  0  0  0  0
   14.3910   -8.8240  -16.2340 C   0  0  0  0  0  0  0  0  0  0  0  0
   15.4258   -9.8074  -15.8814 C   0  0  0  0  0  0  0  0  0  0  0  0
   16.8008   -9.6741  -16.4458 C   0  0  2  0  0  0  0  0  0  0  0  0
   17.5767  -10.7793  -15.8035 N   0  0  0  0  0  0  0  0  0  0  0  0
   17.3860   -8.3820  -15.9880 C   0  0  0  0  0  0  0  0  0  0  0  0
   18.1390   -8.3476  -15.0115 O   0  0  0  0  0  0  0  0  0  0  0  0
   17.0369   -7.2386  -16.7160 O   0  0  0  0  0  0  0  0  0  0  0  0
  2  1  1  6
  3  2  1  0
  4  2  1  0
  4  5  1  6
  6  4  1  0
  6  7  2  0
  9  8  1  6
  9 10  1  0
 10  6  1  0
 11  9  1  0
 11 12  2  0
 13 14  1  0
 14 15  2  0
 16 14  1  0
 16 17  1  0
 18 17  1  0
 19 18  1  0
 20 21  1  0
 20 19  1  1
 21 11  1  0
 22 20  1  0
 23 22  2  0
 24 22  1  0
M  END
$$$$
