VAR.pdb
     RDKit          3D

 24 23  0  0  1  0  0  0  0  0999 V2000
   20.3617  -18.6353  -14.7861 C   0  0  0  0  0  0  0  0  0  0  0  0
   19.9374  -18.1149  -16.1436 C   0  0  2  0  0  0  0  0  0  0  0  0
   18.5078  -17.6177  -16.0090 C   0  0  0  0  0  0  0  0  0  0  0  0
   20.0541  -19.2465  -17.1390 C   0  0  2  0  0  0  0  0  0  0  0  0
   19.1101  -20.2617  -16.7040 N   0  0  0  0  0  0  0  0  0  0  0  0
   21.4444  -19.7581  -17.1216 C   0  0  0  0  0  0  0  0  0  0  0  0
   21.8496  -20.6146  -16.2972 O   0  0  0  0  0  0  0  0  0  0  0  0
   24.5815  -19.1514  -19.2277 C   0  0  0  0  0  0  0  0  0  0  0  0
   23.7733  -19.7397  -18.0969 C   0  0  2  0  0  0  0  0  0  0  0  0
   22.4160  -19.2975  -18.0582 N   0  0  0  0  0  0  0  0  0  0  0  0
   24.5047  -19.5789  -16.8468 C   0  0  0  0  0  0  0  0  0  0  0  0
   24.2467  -18.6905  -15.9655 O   0  0  0  0  0  0  0  0  0  0  0  0
   23.0835  -20.8722   -9.5643 N   0  0  0  0  0  0  0  0  0  0  0  0
   24.4691  -21.0110   -9.3081 C   0  0  0  0  0  0  0  0  0  0  0  0
   24.8702  -21.0236   -8.0976 N   0  0  0  0  0  0  0  0  0  0  0  0
   25.3990  -21.1372  -10.4031 N   0  0  0  0  0  0  0  0  0  0  0  0
   24.9512  -20.9560  -11.7297 C   0  0  0  0  0  0  0  0  0  0  0  0
   25.9228  -21.0539  -12.8537 C   0  0  0  0  0  0  0  0  0  0  0  0
   25.4386  -20.8797  -14.2312 C   0  0  0  0  0  0  0  0  0  0  0  0
   26.3413  -20.3003  -15.2686 C   0  0  2  0  0  0  0  0  0  0  0  0
   25.5822  -20.4478  -16.5484 N   0  0  0  0  0  0  0  0  0  0  0  0
   27.5661  -21.1441  -15.3666 C   0  0  0  0  0  0  0  0  0  0  0  0
   27.6410  -22.0423  -16.2089 O   0  0  0  0  0  0  0  0  0  0  0  0
   28.5999  -20.8618  -14.4662 O   0  0  0  0  0  0  0  0  0  0  0  0
  2  1  1  1
  3  2  1  0
  4  2  1  0
  4  5  1  1
  6  4  1  0
  6  7  2  0
  9  8  1  6
  9 10  1  0
 10  6  1  0
 11  9  1  0
 11 12  2  0
 13 14  1  0
 14 15  2  0
 16 14  1  0
 16 17  1  0
 18 17  1  0
 19 18  1  0
 20 21  1  0
 20 19  1  1
 21 11  1  0
 22 20  1  0
 23 22  2  0
 24 22  1  0
M  END
$$$$
