VAR.pdb
     RDKit          3D

 24 23  0  0  1  0  0  0  0  0999 V2000
   19.1506  -12.4379  -18.3050 C   0  0  0  0  0  0  0  0  0  0  0  0
   20.1681  -13.4639  -18.7588 C   0  0  2  0  0  0  0  0  0  0  0  0
   19.4478  -14.4375  -19.6765 C   0  0  0  0  0  0  0  0  0  0  0  0
   20.7270  -14.1471  -17.5317 C   0  0  2  0  0  0  0  0  0  0  0  0
   19.6621  -14.9963  -17.0259 N   0  0  0  0  0  0  0  0  0  0  0  0
   21.1113  -13.1142  -16.5417 C   0  0  0  0  0  0  0  0  0  0  0  0
   20.2734  -12.4185  -15.9162 O   0  0  0  0  0  0  0  0  0  0  0  0
   24.4223  -11.7290  -15.2150 C   0  0  0  0  0  0  0  0  0  0  0  0
   22.9361  -11.7309  -15.4775 C   0  0  2  0  0  0  0  0  0  0  0  0
   22.4794  -12.8493  -16.2392 N   0  0  0  0  0  0  0  0  0  0  0  0
   22.5371  -10.4307  -16.0009 C   0  0  0  0  0  0  0  0  0  0  0  0
   22.4502  -10.1454  -17.2433 O   0  0  0  0  0  0  0  0  0  0  0  0
   15.5027   -6.7458  -14.9745 N   0  0  0  0  0  0  0  0  0  0  0  0
   16.1381   -5.7003  -15.6873 C   0  0  0  0  0  0  0  0  0  0  0  0
   15.5719   -4.5585  -15.7344 N   0  0  0  0  0  0  0  0  0  0  0  0
   17.4019   -5.9335  -16.3414 N   0  0  0  0  0  0  0  0  0  0  0  0
   18.2277   -6.9966  -15.9161 C   0  0  0  0  0  0  0  0  0  0  0  0
   19.5072   -7.2645  -16.6289 C   0  0  0  0  0  0  0  0  0  0  0  0
   20.3653   -8.3643  -16.1636 C   0  0  0  0  0  0  0  0  0  0  0  0
   21.7238   -8.0688  -15.6215 C   0  0  2  0  0  0  0  0  0  0  0  0
   22.2134   -9.3836  -15.1044 N   0  0  0  0  0  0  0  0  0  0  0  0
   21.5880   -7.1452  -14.4595 C   0  0  0  0  0  0  0  0  0  0  0  0
   21.4660   -7.5922  -13.3162 O   0  0  0  0  0  0  0  0  0  0  0  0
   21.6067   -5.7737  -14.7387 O   0  0  0  0  0  0  0  0  0  0  0  0
  2  1  1  1
  3  2  1  0
  4  2  1  0
  4  5  1  1
  6  4  1  0
  6  7  2  0
  9  8  1  6
  9 10  1  0
 10  6  1  0
 11  9  1  0
 11 12  2  0
 13 14  1  0
 14 15  2  0
 16 14  1  0
 16 17  1  0
 18 17  1  0
 19 18  1  0
 20 21  1  0
 20 19  1  1
 21 11  1  0
 22 20  1  0
 23 22  2  0
 24 22  1  0
M  END
$$$$
