WMC.pdb
     RDKit          3D

 29 30  0  0  1  0  0  0  0  0999 V2000
    6.1667  -18.3394   24.3872 N   0  0  0  0  0  0  0  0  0  0  0  0
    6.7483  -17.0388   24.2809 C   0  0  1  0  0  0  0  0  0  0  0  0
    7.3307  -16.4843   25.5384 C   0  0  0  0  0  0  0  0  0  0  0  0
    6.7415  -15.1938   25.9735 C   0  0  0  0  0  0  0  0  0  0  0  0
    5.4076  -14.9058   26.2284 C   0  0  0  0  0  0  0  0  0  0  0  0
    5.2465  -13.6313   26.6174 N   0  0  0  0  0  0  0  0  0  0  0  0
    6.4673  -13.0701   26.6223 C   0  0  0  0  0  0  0  0  0  0  0  0
    6.8737  -11.7911   26.9357 C   0  0  0  0  0  0  0  0  0  0  0  0
    8.2119  -11.4148   26.8674 C   0  0  0  0  0  0  0  0  0  0  0  0
    9.1578  -12.3362   26.4783 C   0  0  0  0  0  0  0  0  0  0  0  0
    8.7329  -13.6065   26.1700 C   0  0  0  0  0  0  0  0  0  0  0  0
    7.4189  -14.0097   26.2280 C   0  0  0  0  0  0  0  0  0  0  0  0
    7.8847  -17.1119   23.2904 C   0  0  0  0  0  0  0  0  0  0  0  0
    8.5193  -18.1907   23.1249 O   0  0  0  0  0  0  0  0  0  0  0  0
    6.7340  -12.9866   17.7786 C   0  0  0  0  0  0  0  0  0  0  0  0
    8.1616  -13.1925   18.8432 S   0  0  0  0  0  0  0  0  0  0  0  0
    8.0425  -14.6990   19.8730 C   0  0  0  0  0  0  0  0  0  0  0  0
    9.2620  -14.7278   20.7424 C   0  0  0  0  0  0  0  0  0  0  0  0
    9.3051  -15.9347   21.6599 C   0  0  2  0  0  0  0  0  0  0  0  0
    8.1893  -15.9274   22.5745 N   0  0  0  0  0  0  0  0  0  0  0  0
   10.6084  -15.9942   22.3943 C   0  0  0  0  0  0  0  0  0  0  0  0
   10.8253  -15.1772   23.3237 O   0  0  0  0  0  0  0  0  0  0  0  0
   11.6192  -16.9431   22.0829 N   0  0  0  0  0  0  0  0  0  0  0  0
   12.9206  -16.9916   22.6915 C   0  0  1  0  0  0  0  0  0  0  0  0
   13.1872  -18.3226   23.3662 C   0  0  0  0  0  0  0  0  0  0  0  0
   12.0900  -18.4190   24.8168 S   0  0  0  0  0  0  0  0  0  0  0  0
   13.9621  -16.7755   21.6758 C   0  0  0  0  0  0  0  0  0  0  0  0
   13.7247  -16.6173   20.4542 O   0  0  0  0  0  0  0  0  0  0  0  0
   15.2899  -16.7435   22.0855 O   0  0  0  0  0  0  0  0  0  0  0  0
  2  1  1  1
  2 13  1  0
  3  2  1  0
  4  3  1  0
  4 12  1  0
  5  6  1  0
  5  4  2  0
  6  7  1  0
  7 12  2  0
  7  8  1  0
  8  9  2  0
  9 10  1  0
 11 10  2  0
 12 11  1  0
 13 14  2  0
 16 15  1  0
 17 18  1  0
 17 16  1  0
 19 18  1  1
 19 21  1  0
 20 19  1  0
 20 13  1  0
 21 22  2  0
 23 21  1  0
 23 24  1  0
 24 27  1  0
 24 25  1  6
 26 25  1  0
 27 28  2  0
 27 29  1  0
M  END
$$$$
