WMC.pdb
     RDKit          3D

 29 30  0  0  1  0  0  0  0  0999 V2000
    8.6277  -16.2552   20.9529 N   0  0  0  0  0  0  0  0  0  0  0  0
    8.4128  -15.8010   22.2902 C   0  0  1  0  0  0  0  0  0  0  0  0
    7.4571  -16.6090   23.1037 C   0  0  0  0  0  0  0  0  0  0  0  0
    6.6671  -15.8249   24.0849 C   0  0  0  0  0  0  0  0  0  0  0  0
    5.6007  -16.2550   24.8628 C   0  0  0  0  0  0  0  0  0  0  0  0
    5.1384  -15.2703   25.6491 N   0  0  0  0  0  0  0  0  0  0  0  0
    5.8924  -14.1870   25.3977 C   0  0  0  0  0  0  0  0  0  0  0  0
    5.8479  -12.9127   25.9205 C   0  0  0  0  0  0  0  0  0  0  0  0
    6.7366  -11.9245   25.5073 C   0  0  0  0  0  0  0  0  0  0  0  0
    7.6852  -12.2191   24.5541 C   0  0  0  0  0  0  0  0  0  0  0  0
    7.7137  -13.4953   24.0449 C   0  0  0  0  0  0  0  0  0  0  0  0
    6.8505  -14.4940   24.4324 C   0  0  0  0  0  0  0  0  0  0  0  0
    9.7320  -15.8525   23.0215 C   0  0  0  0  0  0  0  0  0  0  0  0
   10.8139  -15.9626   22.3803 O   0  0  0  0  0  0  0  0  0  0  0  0
    9.9582  -13.6805   29.0765 C   0  0  0  0  0  0  0  0  0  0  0  0
   11.4071  -14.7347   29.1300 S   0  0  0  0  0  0  0  0  0  0  0  0
   11.8791  -15.3429   27.4712 C   0  0  0  0  0  0  0  0  0  0  0  0
   10.6568  -15.2485   26.6105 C   0  0  0  0  0  0  0  0  0  0  0  0
   10.9216  -15.6243   25.1652 C   0  0  2  0  0  0  0  0  0  0  0  0
    9.6856  -15.7713   24.4357 N   0  0  0  0  0  0  0  0  0  0  0  0
   11.7499  -16.8690   25.0858 C   0  0  0  0  0  0  0  0  0  0  0  0
   11.2830  -17.9448   25.5362 O   0  0  0  0  0  0  0  0  0  0  0  0
   13.0524  -16.8860   24.5181 N   0  0  0  0  0  0  0  0  0  0  0  0
   13.8770  -18.0554   24.3809 C   0  0  1  0  0  0  0  0  0  0  0  0
   14.9194  -17.8958   23.2920 C   0  0  0  0  0  0  0  0  0  0  0  0
   15.9004  -16.4164   23.7000 S   0  0  0  0  0  0  0  0  0  0  0  0
   14.5740  -18.3339   25.6457 C   0  0  0  0  0  0  0  0  0  0  0  0
   14.5114  -17.5927   26.6559 O   0  0  0  0  0  0  0  0  0  0  0  0
   15.3498  -19.4837   25.7349 O   0  0  0  0  0  0  0  0  0  0  0  0
  2  1  1  6
  2 13  1  0
  3  2  1  0
  4  3  1  0
  4 12  1  0
  5  6  1  0
  5  4  2  0
  6  7  1  0
  7 12  2  0
  7  8  1  0
  8  9  2  0
  9 10  1  0
 11 10  2  0
 12 11  1  0
 13 14  2  0
 16 15  1  0
 17 18  1  0
 17 16  1  0
 19 18  1  1
 19 21  1  0
 20 19  1  0
 20 13  1  0
 21 22  2  0
 23 21  1  0
 23 24  1  0
 24 27  1  0
 24 25  1  6
 26 25  1  0
 27 28  2  0
 27 29  1  0
M  END
$$$$
