WMC.pdb
     RDKit          3D

 29 30  0  0  1  0  0  0  0  0999 V2000
    9.4931  -17.6881   25.4361 N   0  0  0  0  0  0  0  0  0  0  0  0
    8.1326  -18.0192   25.7195 C   0  0  1  0  0  0  0  0  0  0  0  0
    7.7673  -18.0780   27.1656 C   0  0  0  0  0  0  0  0  0  0  0  0
    8.8027  -17.5440   28.0847 C   0  0  0  0  0  0  0  0  0  0  0  0
    9.4972  -18.2227   29.0768 C   0  0  0  0  0  0  0  0  0  0  0  0
   10.3704  -17.4179   29.7026 N   0  0  0  0  0  0  0  0  0  0  0  0
   10.2598  -16.2069   29.1312 C   0  0  0  0  0  0  0  0  0  0  0  0
   10.9149  -15.0220   29.3884 C   0  0  0  0  0  0  0  0  0  0  0  0
   10.6374  -13.8648   28.6668 C   0  0  0  0  0  0  0  0  0  0  0  0
    9.6873  -13.8963   27.6711 C   0  0  0  0  0  0  0  0  0  0  0  0
    9.0450  -15.0872   27.4294 C   0  0  0  0  0  0  0  0  0  0  0  0
    9.2966  -16.2477   28.1240 C   0  0  0  0  0  0  0  0  0  0  0  0
    7.2532  -16.9554   25.1090 C   0  0  0  0  0  0  0  0  0  0  0  0
    5.9996  -17.1020   25.0804 O   0  0  0  0  0  0  0  0  0  0  0  0
    5.8011  -12.0997   26.6460 C   0  0  0  0  0  0  0  0  0  0  0  0
    6.9493  -12.6354   25.3778 S   0  0  0  0  0  0  0  0  0  0  0  0
    6.1392  -13.6717   24.1073 C   0  0  0  0  0  0  0  0  0  0  0  0
    7.1881  -14.0155   23.0946 C   0  0  0  0  0  0  0  0  0  0  0  0
    7.6689  -15.4497   23.2058 C   0  0  2  0  0  0  0  0  0  0  0  0
    7.9018  -15.8103   24.5831 N   0  0  0  0  0  0  0  0  0  0  0  0
    8.8958  -15.6619   22.3743 C   0  0  0  0  0  0  0  0  0  0  0  0
    8.9144  -15.2393   21.1914 O   0  0  0  0  0  0  0  0  0  0  0  0
   10.0499  -16.3264   22.8697 N   0  0  0  0  0  0  0  0  0  0  0  0
   11.2224  -16.6307   22.0956 C   0  0  1  0  0  0  0  0  0  0  0  0
   12.3250  -15.6114   22.3027 C   0  0  0  0  0  0  0  0  0  0  0  0
   12.8217  -15.7051   24.0526 S   0  0  0  0  0  0  0  0  0  0  0  0
   11.7451  -17.9539   22.4685 C   0  0  0  0  0  0  0  0  0  0  0  0
   12.6950  -18.5218   21.8777 O   0  0  0  0  0  0  0  0  0  0  0  0
   11.1576  -18.6209   23.5371 O   0  0  0  0  0  0  0  0  0  0  0  0
  2  1  1  1
  2 13  1  0
  3  2  1  0
  4  3  1  0
  4 12  1  0
  5  6  1  0
  5  4  2  0
  6  7  1  0
  7 12  2  0
  7  8  1  0
  8  9  2  0
  9 10  1  0
 11 10  2  0
 12 11  1  0
 13 14  2  0
 16 15  1  0
 17 18  1  0
 17 16  1  0
 19 18  1  1
 19 21  1  0
 20 19  1  0
 20 13  1  0
 21 22  2  0
 23 21  1  0
 23 24  1  0
 24 27  1  0
 24 25  1  1
 26 25  1  0
 27 28  2  0
 27 29  1  0
M  END
$$$$
