WMC.pdb
     RDKit          3D

 29 30  0  0  1  0  0  0  0  0999 V2000
    6.3359  -17.9923   23.8393 N   0  0  0  0  0  0  0  0  0  0  0  0
    7.0558  -16.7705   23.6663 C   0  0  1  0  0  0  0  0  0  0  0  0
    7.7059  -16.2218   24.8927 C   0  0  0  0  0  0  0  0  0  0  0  0
    6.9487  -15.1318   25.5563 C   0  0  0  0  0  0  0  0  0  0  0  0
    5.6371  -15.1559   26.0107 C   0  0  0  0  0  0  0  0  0  0  0  0
    5.2912  -13.9872   26.5731 N   0  0  0  0  0  0  0  0  0  0  0  0
    6.3668  -13.1858   26.4946 C   0  0  0  0  0  0  0  0  0  0  0  0
    6.5591  -11.8865   26.9118 C   0  0  0  0  0  0  0  0  0  0  0  0
    7.7735  -11.2333   26.7234 C   0  0  0  0  0  0  0  0  0  0  0  0
    8.8119  -11.8938   26.1065 C   0  0  0  0  0  0  0  0  0  0  0  0
    8.6007  -13.1889   25.6978 C   0  0  0  0  0  0  0  0  0  0  0  0
    7.4134  -13.8623   25.8696 C   0  0  0  0  0  0  0  0  0  0  0  0
    8.1690  -17.0172   22.6775 C   0  0  0  0  0  0  0  0  0  0  0  0
    8.7624  -18.1312   22.6486 O   0  0  0  0  0  0  0  0  0  0  0  0
    6.0167  -14.0439   19.3659 C   0  0  0  0  0  0  0  0  0  0  0  0
    7.7051  -13.4421   19.3927 S   0  0  0  0  0  0  0  0  0  0  0  0
    8.9124  -14.7571   18.9960 C   0  0  0  0  0  0  0  0  0  0  0  0
    9.8773  -14.8197   20.1401 C   0  0  0  0  0  0  0  0  0  0  0  0
    9.6938  -16.0550   21.0008 C   0  0  2  0  0  0  0  0  0  0  0  0
    8.5004  -15.9509   21.8048 N   0  0  0  0  0  0  0  0  0  0  0  0
   10.9028  -16.2907   21.8520 C   0  0  0  0  0  0  0  0  0  0  0  0
   11.1904  -15.4607   22.7501 O   0  0  0  0  0  0  0  0  0  0  0  0
   11.7460  -17.4223   21.6863 N   0  0  0  0  0  0  0  0  0  0  0  0
   13.0372  -17.5850   22.2968 C   0  0  1  0  0  0  0  0  0  0  0  0
   13.2107  -18.9603   22.9102 C   0  0  0  0  0  0  0  0  0  0  0  0
   12.0159  -19.0929   24.2786 S   0  0  0  0  0  0  0  0  0  0  0  0
   14.0976  -17.3922   21.2960 C   0  0  0  0  0  0  0  0  0  0  0  0
   13.8803  -17.2096   20.0741 O   0  0  0  0  0  0  0  0  0  0  0  0
   15.4208  -17.4123   21.7211 O   0  0  0  0  0  0  0  0  0  0  0  0
  2  1  1  1
  2 13  1  0
  3  2  1  0
  4  3  1  0
  4 12  1  0
  5  6  1  0
  5  4  2  0
  6  7  1  0
  7 12  2  0
  7  8  1  0
  8  9  2  0
  9 10  1  0
 11 10  2  0
 12 11  1  0
 13 14  2  0
 16 15  1  0
 17 18  1  0
 17 16  1  0
 19 18  1  1
 19 21  1  0
 20 19  1  0
 20 13  1  0
 21 22  2  0
 23 21  1  0
 23 24  1  0
 24 27  1  0
 24 25  1  6
 26 25  1  0
 27 28  2  0
 27 29  1  0
M  END
$$$$
