WMC.pdb
     RDKit          3D

 29 30  0  0  1  0  0  0  0  0999 V2000
    6.6213  -18.5504   24.7863 N   0  0  0  0  0  0  0  0  0  0  0  0
    6.9745  -17.1850   24.5582 C   0  0  1  0  0  0  0  0  0  0  0  0
    7.4776  -16.4379   25.7484 C   0  0  0  0  0  0  0  0  0  0  0  0
    6.7286  -15.1948   26.0573 C   0  0  0  0  0  0  0  0  0  0  0  0
    5.3556  -15.0330   26.1831 C   0  0  0  0  0  0  0  0  0  0  0  0
    5.0366  -13.7640   26.4828 N   0  0  0  0  0  0  0  0  0  0  0  0
    6.1912  -13.0810   26.5567 C   0  0  0  0  0  0  0  0  0  0  0  0
    6.4410  -11.7532   26.8281 C   0  0  0  0  0  0  0  0  0  0  0  0
    7.7367  -11.2454   26.8497 C   0  0  0  0  0  0  0  0  0  0  0  0
    8.7991  -12.0830   26.5948 C   0  0  0  0  0  0  0  0  0  0  0  0
    8.5297  -13.4038   26.3265 C   0  0  0  0  0  0  0  0  0  0  0  0
    7.2615  -13.9363   26.2982 C   0  0  0  0  0  0  0  0  0  0  0  0
    8.0894  -17.1518   23.5415 C   0  0  0  0  0  0  0  0  0  0  0  0
    8.8176  -18.1668   23.3587 O   0  0  0  0  0  0  0  0  0  0  0  0
    6.3545  -12.4063   18.9380 C   0  0  0  0  0  0  0  0  0  0  0  0
    7.9766  -12.8196   19.5795 S   0  0  0  0  0  0  0  0  0  0  0  0
    7.9904  -14.4391   20.4287 C   0  0  0  0  0  0  0  0  0  0  0  0
    9.3179  -14.5593   21.1121 C   0  0  0  0  0  0  0  0  0  0  0  0
    9.4268  -15.8003   21.9772 C   0  0  2  0  0  0  0  0  0  0  0  0
    8.2659  -15.9438   22.8217 N   0  0  0  0  0  0  0  0  0  0  0  0
   10.6863  -15.7720   22.7862 C   0  0  0  0  0  0  0  0  0  0  0  0
   10.6250  -15.4692   24.0040 O   0  0  0  0  0  0  0  0  0  0  0  0
   11.9587  -16.0755   22.2314 N   0  0  0  0  0  0  0  0  0  0  0  0
   13.0338  -16.7186   22.9364 C   0  0  1  0  0  0  0  0  0  0  0  0
   12.6521  -18.1029   23.4219 C   0  0  0  0  0  0  0  0  0  0  0  0
   13.2189  -18.2426   25.1472 S   0  0  0  0  0  0  0  0  0  0  0  0
   14.2077  -16.8474   22.0599 C   0  0  0  0  0  0  0  0  0  0  0  0
   14.1529  -17.2517   20.8736 O   0  0  0  0  0  0  0  0  0  0  0  0
   15.4547  -16.5032   22.5683 O   0  0  0  0  0  0  0  0  0  0  0  0
  2  1  1  1
  2 13  1  0
  3  2  1  0
  4  3  1  0
  4 12  1  0
  5  6  1  0
  5  4  2  0
  6  7  1  0
  7 12  2  0
  7  8  1  0
  8  9  2  0
  9 10  1  0
 11 10  2  0
 12 11  1  0
 13 14  2  0
 16 15  1  0
 17 18  1  0
 17 16  1  0
 19 18  1  1
 19 21  1  0
 20 19  1  0
 20 13  1  0
 21 22  2  0
 23 21  1  0
 23 24  1  0
 24 27  1  0
 24 25  1  6
 26 25  1  0
 27 28  2  0
 27 29  1  0
M  END
$$$$
