WMC.pdb
     RDKit          3D

 29 30  0  0  1  0  0  0  0  0999 V2000
    6.5592  -18.0296   24.2537 N   0  0  0  0  0  0  0  0  0  0  0  0
    7.1484  -16.7818   23.8838 C   0  0  1  0  0  0  0  0  0  0  0  0
    8.0231  -16.1473   24.9134 C   0  0  0  0  0  0  0  0  0  0  0  0
    7.3109  -15.2566   25.8628 C   0  0  0  0  0  0  0  0  0  0  0  0
    6.4520  -15.6167   26.8923 C   0  0  0  0  0  0  0  0  0  0  0  0
    6.0022  -14.5397   27.5552 N   0  0  0  0  0  0  0  0  0  0  0  0
    6.5579  -13.4649   26.9712 C   0  0  0  0  0  0  0  0  0  0  0  0
    6.4358  -12.1204   27.2482 C   0  0  0  0  0  0  0  0  0  0  0  0
    7.1089  -11.1586   26.5006 C   0  0  0  0  0  0  0  0  0  0  0  0
    7.9174  -11.5517   25.4580 C   0  0  0  0  0  0  0  0  0  0  0  0
    8.0265  -12.8967   25.1975 C   0  0  0  0  0  0  0  0  0  0  0  0
    7.3754  -13.8715   25.9176 C   0  0  0  0  0  0  0  0  0  0  0  0
    8.0244  -17.0154   22.6772 C   0  0  0  0  0  0  0  0  0  0  0  0
    8.5608  -18.1420   22.4858 O   0  0  0  0  0  0  0  0  0  0  0  0
    6.4657  -11.7901   18.5117 C   0  0  0  0  0  0  0  0  0  0  0  0
    7.9712  -12.7594   18.5970 S   0  0  0  0  0  0  0  0  0  0  0  0
    7.7991  -14.2049   19.7038 C   0  0  0  0  0  0  0  0  0  0  0  0
    9.1643  -14.8039   19.8506 C   0  0  0  0  0  0  0  0  0  0  0  0
    9.1765  -16.0370   20.7336 C   0  0  2  0  0  0  0  0  0  0  0  0
    8.2042  -15.9223   21.7933 N   0  0  0  0  0  0  0  0  0  0  0  0
   10.5486  -16.2823   21.2802 C   0  0  0  0  0  0  0  0  0  0  0  0
   10.7677  -16.0753   22.4998 O   0  0  0  0  0  0  0  0  0  0  0  0
   11.6227  -16.7430   20.4721 N   0  0  0  0  0  0  0  0  0  0  0  0
   12.7521  -17.4926   20.9506 C   0  0  1  0  0  0  0  0  0  0  0  0
   12.3452  -18.8333   21.5291 C   0  0  0  0  0  0  0  0  0  0  0  0
   13.8689  -19.6660   22.0790 S   0  0  0  0  0  0  0  0  0  0  0  0
   13.6997  -17.7356   19.8524 C   0  0  0  0  0  0  0  0  0  0  0  0
   13.3672  -18.1837   18.7288 O   0  0  0  0  0  0  0  0  0  0  0  0
   15.0445  -17.4548   20.0638 O   0  0  0  0  0  0  0  0  0  0  0  0
  2  1  1  1
  2 13  1  0
  3  2  1  0
  4  3  1  0
  4 12  1  0
  5  6  1  0
  5  4  2  0
  6  7  1  0
  7 12  2  0
  7  8  1  0
  8  9  2  0
  9 10  1  0
 11 10  2  0
 12 11  1  0
 13 14  2  0
 16 15  1  0
 17 18  1  0
 17 16  1  0
 19 18  1  1
 19 21  1  0
 20 19  1  0
 20 13  1  0
 21 22  2  0
 23 21  1  0
 23 24  1  0
 24 27  1  0
 24 25  1  6
 26 25  1  0
 27 28  2  0
 27 29  1  0
M  END
$$$$
