WMC.pdb
     RDKit          3D

 29 30  0  0  1  0  0  0  0  0999 V2000
    6.4854  -18.9319   24.9407 N   0  0  0  0  0  0  0  0  0  0  0  0
    6.8654  -17.5607   24.8131 C   0  0  1  0  0  0  0  0  0  0  0  0
    7.6088  -16.9834   25.9716 C   0  0  0  0  0  0  0  0  0  0  0  0
    7.2649  -15.5741   26.2838 C   0  0  0  0  0  0  0  0  0  0  0  0
    6.0828  -14.9010   26.0062 C   0  0  0  0  0  0  0  0  0  0  0  0
    6.1238  -13.6346   26.4492 N   0  0  0  0  0  0  0  0  0  0  0  0
    7.3279  -13.4622   27.0200 C   0  0  0  0  0  0  0  0  0  0  0  0
    7.8922  -12.3608   27.6263 C   0  0  0  0  0  0  0  0  0  0  0  0
    9.1786  -12.4002   28.1560 C   0  0  0  0  0  0  0  0  0  0  0  0
    9.9110  -13.5631   28.0761 C   0  0  0  0  0  0  0  0  0  0  0  0
    9.3310  -14.6507   27.4681 C   0  0  0  0  0  0  0  0  0  0  0  0
    8.0625  -14.6442   26.9356 C   0  0  0  0  0  0  0  0  0  0  0  0
    7.7849  -17.4369   23.6227 C   0  0  0  0  0  0  0  0  0  0  0  0
    8.2765  -18.4681   23.0854 O   0  0  0  0  0  0  0  0  0  0  0  0
    8.1999  -11.6622   20.7222 C   0  0  0  0  0  0  0  0  0  0  0  0
    6.8787  -12.7865   20.2709 S   0  0  0  0  0  0  0  0  0  0  0  0
    7.0602  -14.4208   21.0712 C   0  0  0  0  0  0  0  0  0  0  0  0
    8.5271  -14.6414   21.2793 C   0  0  0  0  0  0  0  0  0  0  0  0
    8.8358  -15.9654   21.9516 C   0  0  2  0  0  0  0  0  0  0  0  0
    8.0565  -16.1269   23.1549 N   0  0  0  0  0  0  0  0  0  0  0  0
   10.3013  -16.0861   22.2338 C   0  0  0  0  0  0  0  0  0  0  0  0
   11.1163  -16.0144   21.2804 O   0  0  0  0  0  0  0  0  0  0  0  0
   10.8143  -16.2798   23.5446 N   0  0  0  0  0  0  0  0  0  0  0  0
   12.2069  -16.4184   23.8731 C   0  0  1  0  0  0  0  0  0  0  0  0
   12.4672  -16.2261   25.3539 C   0  0  0  0  0  0  0  0  0  0  0  0
   11.0018  -16.8439   26.2418 S   0  0  0  0  0  0  0  0  0  0  0  0
   12.6853  -17.7563   23.4932 C   0  0  0  0  0  0  0  0  0  0  0  0
   11.9321  -18.6884   23.1223 O   0  0  0  0  0  0  0  0  0  0  0  0
   14.0507  -18.0109   23.5459 O   0  0  0  0  0  0  0  0  0  0  0  0
  2  1  1  1
  2 13  1  0
  3  2  1  0
  4  3  1  0
  4 12  1  0
  5  6  1  0
  5  4  2  0
  6  7  1  0
  7 12  2  0
  7  8  1  0
  8  9  2  0
  9 10  1  0
 11 10  2  0
 12 11  1  0
 13 14  2  0
 16 15  1  0
 17 18  1  0
 17 16  1  0
 19 18  1  1
 19 21  1  0
 20 19  1  0
 20 13  1  0
 21 22  2  0
 23 21  1  0
 23 24  1  0
 24 27  1  0
 24 25  1  1
 26 25  1  0
 27 28  2  0
 27 29  1  0
M  END
$$$$
