WMC.pdb
     RDKit          3D

 29 30  0  0  1  0  0  0  0  0999 V2000
    9.6386  -18.2569   25.9425 N   0  0  0  0  0  0  0  0  0  0  0  0
    8.2364  -18.4710   26.1127 C   0  0  1  0  0  0  0  0  0  0  0  0
    7.7395  -18.4250   27.5195 C   0  0  0  0  0  0  0  0  0  0  0  0
    8.6576  -17.7582   28.4757 C   0  0  0  0  0  0  0  0  0  0  0  0
    9.4441  -18.3460   29.4571 C   0  0  0  0  0  0  0  0  0  0  0  0
   10.1604  -17.4291   30.1263 N   0  0  0  0  0  0  0  0  0  0  0  0
    9.8538  -16.2339   29.5945 C   0  0  0  0  0  0  0  0  0  0  0  0
   10.2957  -14.9658   29.9042 C   0  0  0  0  0  0  0  0  0  0  0  0
    9.8358  -13.8462   29.2172 C   0  0  0  0  0  0  0  0  0  0  0  0
    8.9176  -14.0009   28.2031 C   0  0  0  0  0  0  0  0  0  0  0  0
    8.4893  -15.2733   27.9090 C   0  0  0  0  0  0  0  0  0  0  0  0
    8.9246  -16.3995   28.5684 C   0  0  0  0  0  0  0  0  0  0  0  0
    7.5014  -17.3794   25.3737 C   0  0  0  0  0  0  0  0  0  0  0  0
    6.2544  -17.4582   25.1930 O   0  0  0  0  0  0  0  0  0  0  0  0
    8.2768  -11.3874   26.4493 C   0  0  0  0  0  0  0  0  0  0  0  0
    6.7412  -12.3120   26.4286 S   0  0  0  0  0  0  0  0  0  0  0  0
    6.9890  -14.0495   25.9149 C   0  0  0  0  0  0  0  0  0  0  0  0
    7.4811  -14.0177   24.5004 C   0  0  0  0  0  0  0  0  0  0  0  0
    7.7040  -15.4016   23.9213 C   0  0  2  0  0  0  0  0  0  0  0  0
    8.2747  -16.2874   24.9067 N   0  0  0  0  0  0  0  0  0  0  0  0
    8.5604  -15.3300   22.6952 C   0  0  0  0  0  0  0  0  0  0  0  0
    8.2167  -14.5751   21.7516 O   0  0  0  0  0  0  0  0  0  0  0  0
    9.7551  -16.0855   22.5516 N   0  0  0  0  0  0  0  0  0  0  0  0
   10.5372  -16.1712   21.3485 C   0  0  1  0  0  0  0  0  0  0  0  0
   12.0157  -16.3383   21.6380 C   0  0  0  0  0  0  0  0  0  0  0  0
   12.4077  -15.2747   23.0637 S   0  0  0  0  0  0  0  0  0  0  0  0
   10.0960  -17.3172   20.5391 C   0  0  0  0  0  0  0  0  0  0  0  0
    9.2168  -18.1339   20.9051 O   0  0  0  0  0  0  0  0  0  0  0  0
   10.6827  -17.5139   19.2946 O   0  0  0  0  0  0  0  0  0  0  0  0
  2  1  1  1
  2 13  1  0
  3  2  1  0
  4  3  1  0
  4 12  1  0
  5  6  1  0
  5  4  2  0
  6  7  1  0
  7 12  2  0
  7  8  1  0
  8  9  2  0
  9 10  1  0
 11 10  2  0
 12 11  1  0
 13 14  2  0
 16 15  1  0
 17 18  1  0
 17 16  1  0
 19 18  1  1
 19 21  1  0
 20 19  1  0
 20 13  1  0
 21 22  2  0
 23 21  1  0
 23 24  1  0
 24 27  1  0
 24 25  1  1
 26 25  1  0
 27 28  2  0
 27 29  1  0
M  END
$$$$
