WMC.pdb
     RDKit          3D

 29 30  0  0  1  0  0  0  0  0999 V2000
    6.5095  -18.3193   25.0451 N   0  0  0  0  0  0  0  0  0  0  0  0
    6.8788  -16.9487   24.8842 C   0  0  1  0  0  0  0  0  0  0  0  0
    8.0089  -16.4773   25.7378 C   0  0  0  0  0  0  0  0  0  0  0  0
    7.6147  -15.5430   26.8211 C   0  0  0  0  0  0  0  0  0  0  0  0
    7.3028  -15.8456   28.1396 C   0  0  0  0  0  0  0  0  0  0  0  0
    7.0040  -14.7398   28.8393 N   0  0  0  0  0  0  0  0  0  0  0  0
    7.1155  -13.7030   27.9921 C   0  0  0  0  0  0  0  0  0  0  0  0
    6.9194  -12.3525   28.1844 C   0  0  0  0  0  0  0  0  0  0  0  0
    7.0880  -11.4374   27.1495 C   0  0  0  0  0  0  0  0  0  0  0  0
    7.4592  -11.8839   25.9013 C   0  0  0  0  0  0  0  0  0  0  0  0
    7.6503  -13.2341   25.7294 C   0  0  0  0  0  0  0  0  0  0  0  0
    7.4924  -14.1636   26.7313 C   0  0  0  0  0  0  0  0  0  0  0  0
    7.3210  -16.7459   23.4555 C   0  0  0  0  0  0  0  0  0  0  0  0
    7.9242  -17.6663   22.8368 O   0  0  0  0  0  0  0  0  0  0  0  0
    8.3841  -13.2822   17.1894 C   0  0  0  0  0  0  0  0  0  0  0  0
    7.5730  -13.8845   18.6703 S   0  0  0  0  0  0  0  0  0  0  0  0
    8.2552  -13.1251   20.1876 C   0  0  0  0  0  0  0  0  0  0  0  0
    7.4396  -13.6389   21.3343 C   0  0  0  0  0  0  0  0  0  0  0  0
    7.8070  -15.0555   21.7325 C   0  0  2  0  0  0  0  0  0  0  0  0
    7.0257  -15.4923   22.8640 N   0  0  0  0  0  0  0  0  0  0  0  0
    9.2740  -15.1626   22.0121 C   0  0  0  0  0  0  0  0  0  0  0  0
    9.7510  -14.5725   23.0133 O   0  0  0  0  0  0  0  0  0  0  0  0
   10.1573  -15.9092   21.1867 N   0  0  0  0  0  0  0  0  0  0  0  0
   11.5789  -16.0070   21.3768 C   0  0  1  0  0  0  0  0  0  0  0  0
   11.9533  -17.1287   22.3251 C   0  0  0  0  0  0  0  0  0  0  0  0
   11.7826  -16.4803   24.0186 S   0  0  0  0  0  0  0  0  0  0  0  0
   12.2455  -16.2533   20.0892 C   0  0  0  0  0  0  0  0  0  0  0  0
   13.4909  -16.2813   19.9412 O   0  0  0  0  0  0  0  0  0  0  0  0
   11.4562  -16.4683   18.9655 O   0  0  0  0  0  0  0  0  0  0  0  0
  2  1  1  6
  2 13  1  0
  3  2  1  0
  4  3  1  0
  4 12  1  0
  5  6  1  0
  5  4  2  0
  6  7  1  0
  7 12  2  0
  7  8  1  0
  8  9  2  0
  9 10  1  0
 11 10  2  0
 12 11  1  0
 13 14  2  0
 16 15  1  0
 17 18  1  0
 17 16  1  0
 19 18  1  1
 19 21  1  0
 20 19  1  0
 20 13  1  0
 21 22  2  0
 23 21  1  0
 23 24  1  0
 24 27  1  0
 24 25  1  1
 26 25  1  0
 27 28  2  0
 27 29  1  0
M  END
$$$$
