WMC.pdb
     RDKit          3D

 29 30  0  0  1  0  0  0  0  0999 V2000
    4.9465  -19.6230   22.7638 N   0  0  0  0  0  0  0  0  0  0  0  0
    5.7227  -19.1950   23.8843 C   0  0  1  0  0  0  0  0  0  0  0  0
    6.9134  -20.0352   24.2072 C   0  0  0  0  0  0  0  0  0  0  0  0
    6.7736  -20.8555   25.4358 C   0  0  0  0  0  0  0  0  0  0  0  0
    6.2358  -22.1297   25.5563 C   0  0  0  0  0  0  0  0  0  0  0  0
    6.2873  -22.5659   26.8247 N   0  0  0  0  0  0  0  0  0  0  0  0
    6.8568  -21.5876   27.5484 C   0  0  0  0  0  0  0  0  0  0  0  0
    7.1458  -21.5085   28.8936 C   0  0  0  0  0  0  0  0  0  0  0  0
    7.7437  -20.3792   29.4449 C   0  0  0  0  0  0  0  0  0  0  0  0
    8.0568  -19.3117   28.6340 C   0  0  0  0  0  0  0  0  0  0  0  0
    7.7611  -19.4096   27.2954 C   0  0  0  0  0  0  0  0  0  0  0  0
    7.1713  -20.5112   26.7199 C   0  0  0  0  0  0  0  0  0  0  0  0
    6.2535  -17.8136   23.5879 C   0  0  0  0  0  0  0  0  0  0  0  0
    6.5102  -17.4692   22.4008 O   0  0  0  0  0  0  0  0  0  0  0  0
    7.3856  -10.5869   26.5293 C   0  0  0  0  0  0  0  0  0  0  0  0
    6.8519  -12.2857   26.7359 S   0  0  0  0  0  0  0  0  0  0  0  0
    7.3988  -13.3532   25.3555 C   0  0  0  0  0  0  0  0  0  0  0  0
    6.7758  -14.6979   25.5737 C   0  0  0  0  0  0  0  0  0  0  0  0
    7.1298  -15.6961   24.4882 C   0  0  2  0  0  0  0  0  0  0  0  0
    6.4416  -16.9473   24.6936 N   0  0  0  0  0  0  0  0  0  0  0  0
    8.6118  -15.8972   24.4177 C   0  0  0  0  0  0  0  0  0  0  0  0
    9.1895  -16.5222   25.3418 O   0  0  0  0  0  0  0  0  0  0  0  0
    9.3997  -15.4074   23.3414 N   0  0  0  0  0  0  0  0  0  0  0  0
   10.7462  -15.8188   23.0511 C   0  0  1  0  0  0  0  0  0  0  0  0
   11.2642  -15.2125   21.7620 C   0  0  0  0  0  0  0  0  0  0  0  0
   10.1494  -15.7544   20.4274 S   0  0  0  0  0  0  0  0  0  0  0  0
   11.6452  -15.4133   24.1423 C   0  0  0  0  0  0  0  0  0  0  0  0
   11.2643  -14.8077   25.1728 O   0  0  0  0  0  0  0  0  0  0  0  0
   12.9975  -15.7150   24.0327 O   0  0  0  0  0  0  0  0  0  0  0  0
  2  1  1  6
  2 13  1  0
  3  2  1  0
  4  3  1  0
  4 12  1  0
  5  6  1  0
  5  4  2  0
  6  7  1  0
  7 12  2  0
  7  8  1  0
  8  9  2  0
  9 10  1  0
 11 10  2  0
 12 11  1  0
 13 14  2  0
 16 15  1  0
 17 18  1  0
 17 16  1  0
 19 18  1  1
 19 21  1  0
 20 19  1  0
 20 13  1  0
 21 22  2  0
 23 21  1  0
 23 24  1  0
 24 27  1  0
 24 25  1  6
 26 25  1  0
 27 28  2  0
 27 29  1  0
M  END
$$$$
