WMC.pdb
     RDKit          3D

 29 30  0  0  1  0  0  0  0  0999 V2000
    7.7570  -18.0782   21.9470 N   0  0  0  0  0  0  0  0  0  0  0  0
    7.9718  -16.7143   21.5802 C   0  0  1  0  0  0  0  0  0  0  0  0
    6.8760  -16.0739   20.7947 C   0  0  0  0  0  0  0  0  0  0  0  0
    7.3215  -15.4068   19.5463 C   0  0  0  0  0  0  0  0  0  0  0  0
    7.3564  -15.9325   18.2618 C   0  0  0  0  0  0  0  0  0  0  0  0
    7.8073  -15.0313   17.3751 N   0  0  0  0  0  0  0  0  0  0  0  0
    8.0725  -13.9086   18.0639 C   0  0  0  0  0  0  0  0  0  0  0  0
    8.5573  -12.6867   17.6502 C   0  0  0  0  0  0  0  0  0  0  0  0
    8.7658  -11.6440   18.5482 C   0  0  0  0  0  0  0  0  0  0  0  0
    8.4835  -11.8298   19.8827 C   0  0  0  0  0  0  0  0  0  0  0  0
    8.0007  -13.0551   20.2757 C   0  0  0  0  0  0  0  0  0  0  0  0
    7.7833  -14.1050   19.4136 C   0  0  0  0  0  0  0  0  0  0  0  0
    8.1083  -15.9033   22.8457 C   0  0  0  0  0  0  0  0  0  0  0  0
    8.4510  -14.6895   22.7926 O   0  0  0  0  0  0  0  0  0  0  0  0
    6.9786  -11.7178   27.4976 C   0  0  0  0  0  0  0  0  0  0  0  0
    6.9456  -13.0777   26.3300 S   0  0  0  0  0  0  0  0  0  0  0  0
    6.8130  -14.6997   27.1640 C   0  0  0  0  0  0  0  0  0  0  0  0
    6.7490  -15.7379   26.0860 C   0  0  0  0  0  0  0  0  0  0  0  0
    8.0443  -15.8609   25.3067 C   0  0  2  0  0  0  0  0  0  0  0  0
    7.8351  -16.5685   24.0669 N   0  0  0  0  0  0  0  0  0  0  0  0
    9.1003  -16.5217   26.1372 C   0  0  0  0  0  0  0  0  0  0  0  0
    9.1417  -17.7762   26.1900 O   0  0  0  0  0  0  0  0  0  0  0  0
   10.0659  -15.7848   26.8745 N   0  0  0  0  0  0  0  0  0  0  0  0
   11.1051  -16.3638   27.6816 C   0  0  1  0  0  0  0  0  0  0  0  0
   11.8703  -15.3167   28.4662 C   0  0  0  0  0  0  0  0  0  0  0  0
   10.6522  -14.1115   29.0840 S   0  0  0  0  0  0  0  0  0  0  0  0
   10.5288  -17.3223   28.6367 C   0  0  0  0  0  0  0  0  0  0  0  0
    9.2965  -17.4805   28.8103 O   0  0  0  0  0  0  0  0  0  0  0  0
   11.3937  -18.1022   29.3954 O   0  0  0  0  0  0  0  0  0  0  0  0
  2  1  1  1
  2 13  1  0
  3  2  1  0
  4  3  1  0
  4 12  1  0
  5  6  1  0
  5  4  2  0
  6  7  1  0
  7 12  2  0
  7  8  1  0
  8  9  2  0
  9 10  1  0
 11 10  2  0
 12 11  1  0
 13 14  2  0
 16 15  1  0
 17 18  1  0
 17 16  1  0
 19 18  1  1
 19 21  1  0
 20 19  1  0
 20 13  1  0
 21 22  2  0
 23 21  1  0
 23 24  1  0
 24 27  1  0
 24 25  1  1
 26 25  1  0
 27 28  2  0
 27 29  1  0
M  END
$$$$
