WWW.pdb
     RDKit          3D

 43 48  0  0  1  0  0  0  0  0999 V2000
    8.6238  -20.5957   21.6952 N   0  0  0  0  0  0  0  0  0  0  0  0
    9.8284  -19.8520   21.4354 C   0  0  1  0  0  0  0  0  0  0  0  0
   10.5401  -20.3341   20.1919 C   0  0  0  0  0  0  0  0  0  0  0  0
   10.7975  -21.7980   20.4289 C   0  0  0  0  0  0  0  0  0  0  0  0
   10.0267  -22.8323   19.9681 C   0  0  0  0  0  0  0  0  0  0  0  0
   10.5442  -23.9871   20.3766 N   0  0  0  0  0  0  0  0  0  0  0  0
   11.6666  -23.7547   21.1153 C   0  0  0  0  0  0  0  0  0  0  0  0
   12.5367  -24.6124   21.7485 C   0  0  0  0  0  0  0  0  0  0  0  0
   13.6027  -24.0394   22.4345 C   0  0  0  0  0  0  0  0  0  0  0  0
   13.7485  -22.6663   22.4570 C   0  0  0  0  0  0  0  0  0  0  0  0
   12.8708  -21.8144   21.8199 C   0  0  0  0  0  0  0  0  0  0  0  0
   11.8206  -22.3782   21.1446 C   0  0  0  0  0  0  0  0  0  0  0  0
    9.5789  -18.3733   21.4220 C   0  0  0  0  0  0  0  0  0  0  0  0
   10.3317  -17.6467   20.7345 O   0  0  0  0  0  0  0  0  0  0  0  0
    8.5098  -17.8353   22.1781 N   0  0  0  0  0  0  0  0  0  0  0  0
    8.2860  -16.4539   22.4959 C   0  0  1  0  0  0  0  0  0  0  0  0
    7.1078  -15.8225   21.7449 C   0  0  0  0  0  0  0  0  0  0  0  0
    7.4330  -15.4314   20.3686 C   0  0  0  0  0  0  0  0  0  0  0  0
    7.4149  -16.1524   19.2153 C   0  0  0  0  0  0  0  0  0  0  0  0
    7.7916  -15.3243   18.2185 N   0  0  0  0  0  0  0  0  0  0  0  0
    8.0467  -14.1004   18.7066 C   0  0  0  0  0  0  0  0  0  0  0  0
    8.4520  -12.9209   18.1007 C   0  0  0  0  0  0  0  0  0  0  0  0
    8.6302  -11.7977   18.8719 C   0  0  0  0  0  0  0  0  0  0  0  0
    8.4071  -11.8437   20.2408 C   0  0  0  0  0  0  0  0  0  0  0  0
    8.0045  -13.0091   20.8566 C   0  0  0  0  0  0  0  0  0  0  0  0
    7.8318  -14.1316   20.0523 C   0  0  0  0  0  0  0  0  0  0  0  0
    8.1183  -16.2572   23.9375 C   0  0  0  0  0  0  0  0  0  0  0  0
    7.2158  -15.4868   24.3367 O   0  0  0  0  0  0  0  0  0  0  0  0
    8.9415  -16.9102   24.8593 N   0  0  0  0  0  0  0  0  0  0  0  0
   10.0163  -16.3237   25.6261 C   0  0  1  0  0  0  0  0  0  0  0  0
    9.6635  -14.9717   26.1739 C   0  0  0  0  0  0  0  0  0  0  0  0
    8.2156  -14.7938   26.2992 C   0  0  0  0  0  0  0  0  0  0  0  0
    7.2801  -15.7659   26.1170 C   0  0  0  0  0  0  0  0  0  0  0  0
    6.0725  -15.2031   26.2775 N   0  0  0  0  0  0  0  0  0  0  0  0
    6.2275  -13.9055   26.5568 C   0  0  0  0  0  0  0  0  0  0  0  0
    5.2425  -12.9489   26.8147 C   0  0  0  0  0  0  0  0  0  0  0  0
    5.6500  -11.6677   27.1019 C   0  0  0  0  0  0  0  0  0  0  0  0
    6.9891  -11.3539   27.1304 C   0  0  0  0  0  0  0  0  0  0  0  0
    7.9373  -12.3103   26.8728 C   0  0  0  0  0  0  0  0  0  0  0  0
    7.5664  -13.6222   26.5765 C   0  0  0  0  0  0  0  0  0  0  0  0
   10.6342  -17.2455   26.5619 C   0  0  0  0  0  0  0  0  0  0  0  0
   10.1863  -18.5049   26.9091 O   0  0  0  0  0  0  0  0  0  0  0  0
   11.7099  -16.8483   27.1340 O   0  0  0  0  0  0  0  0  0  0  0  0
  2  1  1  6
  3  2  1  0
  4  5  2  0
  4  3  1  0
  6  5  1  0
  7 12  2  0
  7  6  1  0
  8  7  1  0
  9 10  1  0
  9  8  2  0
 10 11  2  0
 11 12  1  0
 12  4  1  0
 13 15  1  0
 13  2  1  0
 14 13  2  0
 16 27  1  0
 16 15  1  0
 16 17  1  6
 18 26  1  0
 18 17  1  0
 19 18  2  0
 20 19  1  0
 20 21  1  0
 21 22  1  0
 21 26  2  0
 22 23  2  0
 23 24  1  0
 25 24  2  0
 26 25  1  0
 27 28  2  0
 29 30  1  0
 29 27  1  0
 30 41  1  0
 30 31  1  1
 32 31  1  0
 33 32  2  0
 34 35  1  0
 34 33  1  0
 35 40  2  0
 36 37  2  0
 36 35  1  0
 37 38  1  0
 38 39  2  0
 40 39  1  0
 40 32  1  0
 41 42  1  0
 43 41  2  0
M  END
$$$$
