WWW.pdb
     RDKit          3D

 43 48  0  0  1  0  0  0  0  0999 V2000
    7.1552  -19.8116   24.0143 N   0  0  0  0  0  0  0  0  0  0  0  0
    8.1053  -18.8167   24.4377 C   0  0  1  0  0  0  0  0  0  0  0  0
    9.1626  -19.3900   25.3534 C   0  0  0  0  0  0  0  0  0  0  0  0
    8.7121  -19.0347   26.7448 C   0  0  0  0  0  0  0  0  0  0  0  0
    7.6236  -19.5561   27.3927 C   0  0  0  0  0  0  0  0  0  0  0  0
    7.5208  -19.0069   28.5994 N   0  0  0  0  0  0  0  0  0  0  0  0
    8.5316  -18.1110   28.7867 C   0  0  0  0  0  0  0  0  0  0  0  0
    8.8469  -17.3000   29.8528 C   0  0  0  0  0  0  0  0  0  0  0  0
    9.9652  -16.4838   29.7177 C   0  0  0  0  0  0  0  0  0  0  0  0
   10.7021  -16.5135   28.5501 C   0  0  0  0  0  0  0  0  0  0  0  0
   10.3780  -17.3293   27.4864 C   0  0  0  0  0  0  0  0  0  0  0  0
    9.2765  -18.1329   27.6188 C   0  0  0  0  0  0  0  0  0  0  0  0
    8.6899  -18.0729   23.2739 C   0  0  0  0  0  0  0  0  0  0  0  0
    9.7998  -18.4408   22.8267 O   0  0  0  0  0  0  0  0  0  0  0  0
    7.9832  -16.9828   22.7114 N   0  0  0  0  0  0  0  0  0  0  0  0
    8.3020  -15.5894   22.8379 C   0  0  1  0  0  0  0  0  0  0  0  0
    7.2051  -14.6481   22.3263 C   0  0  0  0  0  0  0  0  0  0  0  0
    6.8069  -14.9128   20.9391 C   0  0  0  0  0  0  0  0  0  0  0  0
    5.8562  -15.7442   20.4338 C   0  0  0  0  0  0  0  0  0  0  0  0
    5.8812  -15.6132   19.0909 N   0  0  0  0  0  0  0  0  0  0  0  0
    6.8190  -14.7229   18.7313 C   0  0  0  0  0  0  0  0  0  0  0  0
    7.2241  -14.2435   17.4949 C   0  0  0  0  0  0  0  0  0  0  0  0
    8.2285  -13.3080   17.4347 C   0  0  0  0  0  0  0  0  0  0  0  0
    8.8303  -12.8485   18.5977 C   0  0  0  0  0  0  0  0  0  0  0  0
    8.4383  -13.3164   19.8335 C   0  0  0  0  0  0  0  0  0  0  0  0
    7.4191  -14.2634   19.8657 C   0  0  0  0  0  0  0  0  0  0  0  0
    8.6487  -15.2433   24.2181 C   0  0  0  0  0  0  0  0  0  0  0  0
    7.9810  -14.3588   24.8006 O   0  0  0  0  0  0  0  0  0  0  0  0
    9.7007  -15.8797   24.8831 N   0  0  0  0  0  0  0  0  0  0  0  0
   10.7821  -15.2433   25.5990 C   0  0  1  0  0  0  0  0  0  0  0  0
   10.2956  -14.3037   26.6633 C   0  0  0  0  0  0  0  0  0  0  0  0
    8.8372  -14.1745   26.6531 C   0  0  0  0  0  0  0  0  0  0  0  0
    7.9515  -15.1888   26.8531 C   0  0  0  0  0  0  0  0  0  0  0  0
    6.7160  -14.6807   26.7254 N   0  0  0  0  0  0  0  0  0  0  0  0
    6.8052  -13.3756   26.4525 C   0  0  0  0  0  0  0  0  0  0  0  0
    5.7712  -12.4560   26.2597 C   0  0  0  0  0  0  0  0  0  0  0  0
    6.1124  -11.1479   26.0096 C   0  0  0  0  0  0  0  0  0  0  0  0
    7.4348  -10.7727   25.9542 C   0  0  0  0  0  0  0  0  0  0  0  0
    8.4320  -11.6941   26.1460 C   0  0  0  0  0  0  0  0  0  0  0  0
    8.1290  -13.0317   26.4016 C   0  0  0  0  0  0  0  0  0  0  0  0
   11.8364  -16.1591   25.9953 C   0  0  0  0  0  0  0  0  0  0  0  0
   11.8111  -17.5382   25.9264 O   0  0  0  0  0  0  0  0  0  0  0  0
   12.9065  -15.6343   26.4659 O   0  0  0  0  0  0  0  0  0  0  0  0
  2  1  1  6
  3  2  1  0
  4  5  2  0
  4  3  1  0
  6  5  1  0
  7 12  2  0
  7  6  1  0
  8  7  1  0
  9 10  1  0
  9  8  2  0
 10 11  2  0
 11 12  1  0
 12  4  1  0
 13 15  1  0
 13  2  1  0
 14 13  2  0
 16 27  1  0
 16 15  1  0
 16 17  1  1
 18 26  1  0
 18 17  1  0
 19 18  2  0
 20 19  1  0
 20 21  1  0
 21 22  1  0
 21 26  2  0
 22 23  2  0
 23 24  1  0
 25 24  2  0
 26 25  1  0
 27 28  2  0
 29 30  1  0
 29 27  1  0
 30 41  1  0
 30 31  1  1
 32 31  1  0
 33 32  2  0
 34 35  1  0
 34 33  1  0
 35 40  2  0
 36 37  2  0
 36 35  1  0
 37 38  1  0
 38 39  2  0
 40 39  1  0
 40 32  1  0
 41 42  1  0
 43 41  2  0
M  END
$$$$
