WWW.pdb
     RDKit          3D

 43 48  0  0  1  0  0  0  0  0999 V2000
    9.6284  -18.9705   19.8813 N   0  0  0  0  0  0  0  0  0  0  0  0
   10.3508  -17.7615   19.5844 C   0  0  1  0  0  0  0  0  0  0  0  0
   10.1525  -17.3145   18.1540 C   0  0  0  0  0  0  0  0  0  0  0  0
   10.4531  -18.5289   17.3174 C   0  0  0  0  0  0  0  0  0  0  0  0
    9.5318  -19.4286   16.8502 C   0  0  0  0  0  0  0  0  0  0  0  0
   10.1522  -20.3795   16.1580 N   0  0  0  0  0  0  0  0  0  0  0  0
   11.4946  -20.1403   16.1452 C   0  0  0  0  0  0  0  0  0  0  0  0
   12.5395  -20.8297   15.5737 C   0  0  0  0  0  0  0  0  0  0  0  0
   13.8162  -20.3079   15.7552 C   0  0  0  0  0  0  0  0  0  0  0  0
   13.9883  -19.1469   16.4831 C   0  0  0  0  0  0  0  0  0  0  0  0
   12.9349  -18.4631   17.0529 C   0  0  0  0  0  0  0  0  0  0  0  0
   11.6775  -18.9768   16.8748 C   0  0  0  0  0  0  0  0  0  0  0  0
   10.0531  -16.6763   20.5758 C   0  0  0  0  0  0  0  0  0  0  0  0
   10.5902  -15.5569   20.4152 O   0  0  0  0  0  0  0  0  0  0  0  0
    9.1811  -16.9365   21.6602 N   0  0  0  0  0  0  0  0  0  0  0  0
    8.7886  -16.0198   22.6920 C   0  0  1  0  0  0  0  0  0  0  0  0
    7.2724  -15.8262   22.8129 C   0  0  0  0  0  0  0  0  0  0  0  0
    6.8591  -15.2220   24.0846 C   0  0  0  0  0  0  0  0  0  0  0  0
    6.3589  -15.7911   25.2143 C   0  0  0  0  0  0  0  0  0  0  0  0
    6.1483  -14.7986   26.1041 N   0  0  0  0  0  0  0  0  0  0  0  0
    6.5012  -13.6184   25.5714 C   0  0  0  0  0  0  0  0  0  0  0  0
    6.4823  -12.3259   26.0733 C   0  0  0  0  0  0  0  0  0  0  0  0
    6.9211  -11.2925   25.2813 C   0  0  0  0  0  0  0  0  0  0  0  0
    7.3778  -11.5397   23.9944 C   0  0  0  0  0  0  0  0  0  0  0  0
    7.4019  -12.8190   23.4821 C   0  0  0  0  0  0  0  0  0  0  0  0
    6.9517  -13.8468   24.3053 C   0  0  0  0  0  0  0  0  0  0  0  0
    9.3445  -16.4064   23.9907 C   0  0  0  0  0  0  0  0  0  0  0  0
    8.6192  -16.3096   25.0065 O   0  0  0  0  0  0  0  0  0  0  0  0
   10.6560  -16.8757   24.1076 N   0  0  0  0  0  0  0  0  0  0  0  0
   11.3908  -17.0929   25.3323 C   0  0  1  0  0  0  0  0  0  0  0  0
   10.5410  -17.6864   26.4177 C   0  0  0  0  0  0  0  0  0  0  0  0
   10.5491  -16.8641   27.6292 C   0  0  0  0  0  0  0  0  0  0  0  0
   10.6282  -17.3344   28.9042 C   0  0  0  0  0  0  0  0  0  0  0  0
   10.5645  -16.2794   29.7312 N   0  0  0  0  0  0  0  0  0  0  0  0
   10.4494  -15.1618   29.0076 C   0  0  0  0  0  0  0  0  0  0  0  0
   10.3699  -13.8411   29.4561 C   0  0  0  0  0  0  0  0  0  0  0  0
   10.2773  -12.8460   28.5120 C   0  0  0  0  0  0  0  0  0  0  0  0
   10.2645  -13.1576   27.1722 C   0  0  0  0  0  0  0  0  0  0  0  0
   10.3428  -14.4620   26.7566 C   0  0  0  0  0  0  0  0  0  0  0  0
   10.4373  -15.5019   27.6819 C   0  0  0  0  0  0  0  0  0  0  0  0
   12.6874  -17.7139   25.1311 C   0  0  0  0  0  0  0  0  0  0  0  0
   12.9376  -18.9742   24.6247 O   0  0  0  0  0  0  0  0  0  0  0  0
   13.7135  -17.0222   25.4636 O   0  0  0  0  0  0  0  0  0  0  0  0
  2  1  1  1
  3  2  1  0
  4  5  2  0
  4  3  1  0
  6  5  1  0
  7 12  2  0
  7  6  1  0
  8  7  1  0
  9 10  1  0
  9  8  2  0
 10 11  2  0
 11 12  1  0
 12  4  1  0
 13 15  1  0
 13  2  1  0
 14 13  2  0
 16 27  1  0
 16 15  1  0
 16 17  1  1
 18 26  1  0
 18 17  1  0
 19 18  2  0
 20 19  1  0
 20 21  1  0
 21 22  1  0
 21 26  2  0
 22 23  2  0
 23 24  1  0
 25 24  2  0
 26 25  1  0
 27 28  2  0
 29 30  1  0
 29 27  1  0
 30 41  1  0
 30 31  1  1
 32 31  1  0
 33 32  2  0
 34 35  1  0
 34 33  1  0
 35 40  2  0
 36 37  2  0
 36 35  1  0
 37 38  1  0
 38 39  2  0
 40 39  1  0
 40 32  1  0
 41 42  1  0
 43 41  2  0
M  END
$$$$
