WWW.pdb
     RDKit          3D

 43 48  0  0  1  0  0  0  0  0999 V2000
    5.3308  -20.2298   22.0851 N   0  0  0  0  0  0  0  0  0  0  0  0
    6.0369  -19.0015   21.8308 C   0  0  1  0  0  0  0  0  0  0  0  0
    5.3339  -18.1403   20.8066 C   0  0  0  0  0  0  0  0  0  0  0  0
    6.4246  -17.3303   20.1589 C   0  0  0  0  0  0  0  0  0  0  0  0
    7.3146  -17.7874   19.2233 C   0  0  0  0  0  0  0  0  0  0  0  0
    8.1426  -16.8046   18.8817 N   0  0  0  0  0  0  0  0  0  0  0  0
    7.8283  -15.6736   19.5757 C   0  0  0  0  0  0  0  0  0  0  0  0
    8.3871  -14.4161   19.5735 C   0  0  0  0  0  0  0  0  0  0  0  0
    7.8188  -13.4698   20.4201 C   0  0  0  0  0  0  0  0  0  0  0  0
    6.7419  -13.8142   21.2132 C   0  0  0  0  0  0  0  0  0  0  0  0
    6.1889  -15.0776   21.2092 C   0  0  0  0  0  0  0  0  0  0  0  0
    6.7486  -16.0099   20.3760 C   0  0  0  0  0  0  0  0  0  0  0  0
    6.3408  -18.2603   23.0987 C   0  0  0  0  0  0  0  0  0  0  0  0
    5.5505  -17.3632   23.4701 O   0  0  0  0  0  0  0  0  0  0  0  0
    7.5014  -18.5862   23.8409 N   0  0  0  0  0  0  0  0  0  0  0  0
    8.1086  -17.8060   24.8810 C   0  0  1  0  0  0  0  0  0  0  0  0
    8.4253  -18.5997   26.1541 C   0  0  0  0  0  0  0  0  0  0  0  0
    9.1749  -17.8293   27.1528 C   0  0  0  0  0  0  0  0  0  0  0  0
   10.2149  -18.1902   27.9518 C   0  0  0  0  0  0  0  0  0  0  0  0
   10.5499  -17.1093   28.6871 N   0  0  0  0  0  0  0  0  0  0  0  0
    9.7533  -16.0748   28.3767 C   0  0  0  0  0  0  0  0  0  0  0  0
    9.6981  -14.7689   28.8394 C   0  0  0  0  0  0  0  0  0  0  0  0
    8.7581  -13.9123   28.3194 C   0  0  0  0  0  0  0  0  0  0  0  0
    7.8745  -14.3493   27.3426 C   0  0  0  0  0  0  0  0  0  0  0  0
    7.9173  -15.6446   26.8735 C   0  0  0  0  0  0  0  0  0  0  0  0
    8.8789  -16.4910   27.4173 C   0  0  0  0  0  0  0  0  0  0  0  0
    9.3169  -17.1286   24.4053 C   0  0  0  0  0  0  0  0  0  0  0  0
   10.2338  -17.8187   23.9048 O   0  0  0  0  0  0  0  0  0  0  0  0
    9.4562  -15.7411   24.5018 N   0  0  0  0  0  0  0  0  0  0  0  0
   10.4481  -14.9237   23.8423 C   0  0  1  0  0  0  0  0  0  0  0  0
   10.2071  -13.4551   24.0357 C   0  0  0  0  0  0  0  0  0  0  0  0
    8.9523  -13.1960   24.7444 C   0  0  0  0  0  0  0  0  0  0  0  0
    7.7504  -13.7690   24.4608 C   0  0  0  0  0  0  0  0  0  0  0  0
    6.8427  -13.2457   25.2994 N   0  0  0  0  0  0  0  0  0  0  0  0
    7.4449  -12.3622   26.1010 C   0  0  0  0  0  0  0  0  0  0  0  0
    6.8852  -11.6003   27.1295 C   0  0  0  0  0  0  0  0  0  0  0  0
    7.7175  -10.7666   27.8383 C   0  0  0  0  0  0  0  0  0  0  0  0
    9.0567  -10.6965   27.5318 C   0  0  0  0  0  0  0  0  0  0  0  0
    9.5826  -11.4538   26.5168 C   0  0  0  0  0  0  0  0  0  0  0  0
    8.7727  -12.3121   25.7726 C   0  0  0  0  0  0  0  0  0  0  0  0
   11.8108  -15.3761   24.0558 C   0  0  0  0  0  0  0  0  0  0  0  0
   12.2244  -16.4285   24.8488 O   0  0  0  0  0  0  0  0  0  0  0  0
   12.7335  -14.7272   23.4479 O   0  0  0  0  0  0  0  0  0  0  0  0
  2  1  1  1
  3  2  1  0
  4  5  2  0
  4  3  1  0
  6  5  1  0
  7 12  2  0
  7  6  1  0
  8  7  1  0
  9 10  1  0
  9  8  2  0
 10 11  2  0
 11 12  1  0
 12  4  1  0
 13 15  1  0
 13  2  1  0
 14 13  2  0
 16 27  1  0
 16 15  1  0
 16 17  1  1
 18 26  1  0
 18 17  1  0
 19 18  2  0
 20 19  1  0
 20 21  1  0
 21 22  1  0
 21 26  2  0
 22 23  2  0
 23 24  1  0
 25 24  2  0
 26 25  1  0
 27 28  2  0
 29 30  1  0
 29 27  1  0
 30 41  1  0
 30 31  1  1
 32 31  1  0
 33 32  2  0
 34 35  1  0
 34 33  1  0
 35 40  2  0
 36 37  2  0
 36 35  1  0
 37 38  1  0
 38 39  2  0
 40 39  1  0
 40 32  1  0
 41 42  1  0
 43 41  2  0
M  END
$$$$
