WWW.pdb
     RDKit          3D

 43 48  0  0  1  0  0  0  0  0999 V2000
   10.6290  -18.7499   18.7072 N   0  0  0  0  0  0  0  0  0  0  0  0
   11.5606  -18.2464   19.6820 C   0  0  1  0  0  0  0  0  0  0  0  0
   12.8339  -17.7379   19.0455 C   0  0  0  0  0  0  0  0  0  0  0  0
   13.4013  -18.9183   18.3039 C   0  0  0  0  0  0  0  0  0  0  0  0
   12.6769  -19.9396   17.7483 C   0  0  0  0  0  0  0  0  0  0  0  0
   13.5044  -20.8142   17.1838 N   0  0  0  0  0  0  0  0  0  0  0  0
   14.7939  -20.4015   17.3467 C   0  0  0  0  0  0  0  0  0  0  0  0
   15.9879  -20.9590   16.9503 C   0  0  0  0  0  0  0  0  0  0  0  0
   17.1496  -20.2712   17.2860 C   0  0  0  0  0  0  0  0  0  0  0  0
   17.0684  -19.0839   17.9869 C   0  0  0  0  0  0  0  0  0  0  0  0
   15.8669  -18.5331   18.3806 C   0  0  0  0  0  0  0  0  0  0  0  0
   14.7227  -19.2104   18.0507 C   0  0  0  0  0  0  0  0  0  0  0  0
   10.9254  -17.2367   20.5909 C   0  0  0  0  0  0  0  0  0  0  0  0
   11.0573  -16.0219   20.3189 O   0  0  0  0  0  0  0  0  0  0  0  0
   10.1983  -17.6726   21.7247 N   0  0  0  0  0  0  0  0  0  0  0  0
    9.4995  -16.8507   22.6709 C   0  0  1  0  0  0  0  0  0  0  0  0
    7.9726  -16.9159   22.5481 C   0  0  0  0  0  0  0  0  0  0  0  0
    7.4462  -16.1778   21.3944 C   0  0  0  0  0  0  0  0  0  0  0  0
    6.7945  -16.6173   20.2842 C   0  0  0  0  0  0  0  0  0  0  0  0
    6.5145  -15.5349   19.5284 N   0  0  0  0  0  0  0  0  0  0  0  0
    6.9689  -14.4233   20.1277 C   0  0  0  0  0  0  0  0  0  0  0  0
    6.9255  -13.0853   19.7667 C   0  0  0  0  0  0  0  0  0  0  0  0
    7.4804  -12.1468   20.6028 C   0  0  0  0  0  0  0  0  0  0  0  0
    8.0773  -12.5338   21.7944 C   0  0  0  0  0  0  0  0  0  0  0  0
    8.1282  -13.8601   22.1659 C   0  0  0  0  0  0  0  0  0  0  0  0
    7.5589  -14.7896   21.3007 C   0  0  0  0  0  0  0  0  0  0  0  0
    9.9003  -17.1588   24.0455 C   0  0  0  0  0  0  0  0  0  0  0  0
   10.3402  -18.3029   24.3000 O   0  0  0  0  0  0  0  0  0  0  0  0
    9.7993  -16.2042   25.0617 N   0  0  0  0  0  0  0  0  0  0  0  0
   10.0290  -16.4153   26.4723 C   0  0  1  0  0  0  0  0  0  0  0  0
    9.6542  -15.2228   27.3029 C   0  0  0  0  0  0  0  0  0  0  0  0
    8.3562  -14.6702   26.9110 C   0  0  0  0  0  0  0  0  0  0  0  0
    7.2567  -15.3973   26.5706 C   0  0  0  0  0  0  0  0  0  0  0  0
    6.2859  -14.5335   26.2356 N   0  0  0  0  0  0  0  0  0  0  0  0
    6.7480  -13.2857   26.3590 C   0  0  0  0  0  0  0  0  0  0  0  0
    6.0737  -12.0834   26.1318 C   0  0  0  0  0  0  0  0  0  0  0  0
    6.7584  -10.9112   26.3491 C   0  0  0  0  0  0  0  0  0  0  0  0
    8.0657  -10.9385   26.7766 C   0  0  0  0  0  0  0  0  0  0  0  0
    8.7065  -12.1316   26.9917 C   0  0  0  0  0  0  0  0  0  0  0  0
    8.0482  -13.3438   26.7826 C   0  0  0  0  0  0  0  0  0  0  0  0
    9.5521  -17.6989   26.9542 C   0  0  0  0  0  0  0  0  0  0  0  0
    8.7489  -18.5961   26.2781 O   0  0  0  0  0  0  0  0  0  0  0  0
    9.9091  -18.0370   28.1375 O   0  0  0  0  0  0  0  0  0  0  0  0
  2  1  1  6
  3  2  1  0
  4  5  2  0
  4  3  1  0
  6  5  1  0
  7 12  2  0
  7  6  1  0
  8  7  1  0
  9 10  1  0
  9  8  2  0
 10 11  2  0
 11 12  1  0
 12  4  1  0
 13 15  1  0
 13  2  1  0
 14 13  2  0
 16 27  1  0
 16 15  1  0
 16 17  1  1
 18 26  1  0
 18 17  1  0
 19 18  2  0
 20 19  1  0
 20 21  1  0
 21 22  1  0
 21 26  2  0
 22 23  2  0
 23 24  1  0
 25 24  2  0
 26 25  1  0
 27 28  2  0
 29 30  1  0
 29 27  1  0
 30 41  1  0
 30 31  1  1
 32 31  1  0
 33 32  2  0
 34 35  1  0
 34 33  1  0
 35 40  2  0
 36 37  2  0
 36 35  1  0
 37 38  1  0
 38 39  2  0
 40 39  1  0
 40 32  1  0
 41 42  1  0
 43 41  2  0
M  END
$$$$
