WWW.pdb
     RDKit          3D

 43 48  0  0  1  0  0  0  0  0999 V2000
    6.4527  -17.7532   24.5701 N   0  0  0  0  0  0  0  0  0  0  0  0
    7.4508  -16.9198   23.9529 C   0  0  1  0  0  0  0  0  0  0  0  0
    8.1716  -16.0519   24.9589 C   0  0  0  0  0  0  0  0  0  0  0  0
    7.1128  -15.1448   25.5257 C   0  0  0  0  0  0  0  0  0  0  0  0
    6.1415  -15.5078   26.4209 C   0  0  0  0  0  0  0  0  0  0  0  0
    5.3738  -14.4567   26.6927 N   0  0  0  0  0  0  0  0  0  0  0  0
    5.8102  -13.3721   25.9907 C   0  0  0  0  0  0  0  0  0  0  0  0
    5.3497  -12.0767   25.9322 C   0  0  0  0  0  0  0  0  0  0  0  0
    6.0332  -11.1995   25.0964 C   0  0  0  0  0  0  0  0  0  0  0  0
    7.1216  -11.6454   24.3727 C   0  0  0  0  0  0  0  0  0  0  0  0
    7.5756  -12.9460   24.4373 C   0  0  0  0  0  0  0  0  0  0  0  0
    6.9025  -13.8104   25.2598 C   0  0  0  0  0  0  0  0  0  0  0  0
    8.3909  -17.7161   23.0977 C   0  0  0  0  0  0  0  0  0  0  0  0
    8.7957  -18.8213   23.5242 O   0  0  0  0  0  0  0  0  0  0  0  0
    8.7969  -17.2078   21.8403 N   0  0  0  0  0  0  0  0  0  0  0  0
   10.1417  -16.9840   21.3926 C   0  0  1  0  0  0  0  0  0  0  0  0
   10.2473  -16.0843   20.1555 C   0  0  0  0  0  0  0  0  0  0  0  0
    8.9457  -15.6599   19.6276 C   0  0  0  0  0  0  0  0  0  0  0  0
    8.0824  -16.2910   18.7870 C   0  0  0  0  0  0  0  0  0  0  0  0
    7.0191  -15.4773   18.6187 N   0  0  0  0  0  0  0  0  0  0  0  0
    7.1834  -14.3503   19.3286 C   0  0  0  0  0  0  0  0  0  0  0  0
    6.3876  -13.2264   19.4912 C   0  0  0  0  0  0  0  0  0  0  0  0
    6.8229  -12.2086   20.3050 C   0  0  0  0  0  0  0  0  0  0  0  0
    8.0444  -12.3045   20.9565 C   0  0  0  0  0  0  0  0  0  0  0  0
    8.8460  -13.4152   20.8040 C   0  0  0  0  0  0  0  0  0  0  0  0
    8.3813  -14.4310   19.9740 C   0  0  0  0  0  0  0  0  0  0  0  0
   10.9813  -16.4501   22.4674 C   0  0  0  0  0  0  0  0  0  0  0  0
   10.9079  -15.2296   22.7359 O   0  0  0  0  0  0  0  0  0  0  0  0
   11.8506  -17.2754   23.1866 N   0  0  0  0  0  0  0  0  0  0  0  0
   12.9821  -16.8560   23.9808 C   0  0  1  0  0  0  0  0  0  0  0  0
   12.6174  -15.8190   25.0026 C   0  0  0  0  0  0  0  0  0  0  0  0
   11.8383  -16.3877   26.1041 C   0  0  0  0  0  0  0  0  0  0  0  0
   11.5127  -17.7017   26.2474 C   0  0  0  0  0  0  0  0  0  0  0  0
   10.7617  -17.8161   27.3537 N   0  0  0  0  0  0  0  0  0  0  0  0
   10.6103  -16.6093   27.9071 C   0  0  0  0  0  0  0  0  0  0  0  0
    9.9214  -16.2692   29.0740 C   0  0  0  0  0  0  0  0  0  0  0  0
    9.9232  -14.9498   29.4603 C   0  0  0  0  0  0  0  0  0  0  0  0
   10.5871  -14.0066   28.7105 C   0  0  0  0  0  0  0  0  0  0  0  0
   11.2555  -14.3650   27.5681 C   0  0  0  0  0  0  0  0  0  0  0  0
   11.2780  -15.6929   27.1405 C   0  0  0  0  0  0  0  0  0  0  0  0
   13.7983  -17.9573   24.4585 C   0  0  0  0  0  0  0  0  0  0  0  0
   13.5904  -19.3048   24.2381 O   0  0  0  0  0  0  0  0  0  0  0  0
   14.8210  -17.6496   25.1666 O   0  0  0  0  0  0  0  0  0  0  0  0
  2  1  1  1
  3  2  1  0
  4  5  2  0
  4  3  1  0
  6  5  1  0
  7 12  2  0
  7  6  1  0
  8  7  1  0
  9 10  1  0
  9  8  2  0
 10 11  2  0
 11 12  1  0
 12  4  1  0
 13 15  1  0
 13  2  1  0
 14 13  2  0
 16 27  1  0
 16 15  1  0
 16 17  1  6
 18 26  1  0
 18 17  1  0
 19 18  2  0
 20 19  1  0
 20 21  1  0
 21 22  1  0
 21 26  2  0
 22 23  2  0
 23 24  1  0
 25 24  2  0
 26 25  1  0
 27 28  2  0
 29 30  1  0
 29 27  1  0
 30 41  1  0
 30 31  1  1
 32 31  1  0
 33 32  2  0
 34 35  1  0
 34 33  1  0
 35 40  2  0
 36 37  2  0
 36 35  1  0
 37 38  1  0
 38 39  2  0
 40 39  1  0
 40 32  1  0
 41 42  1  0
 43 41  2  0
M  END
$$$$
