WWW.pdb
     RDKit          3D

 43 48  0  0  1  0  0  0  0  0999 V2000
    9.4706  -18.7059   19.2610 N   0  0  0  0  0  0  0  0  0  0  0  0
    9.4931  -17.2740   19.4057 C   0  0  1  0  0  0  0  0  0  0  0  0
    9.2434  -16.5637   18.0949 C   0  0  0  0  0  0  0  0  0  0  0  0
    9.3377  -15.0968   18.4185 C   0  0  0  0  0  0  0  0  0  0  0  0
   10.4439  -14.3074   18.2461 C   0  0  0  0  0  0  0  0  0  0  0  0
   10.1719  -13.0692   18.6475 N   0  0  0  0  0  0  0  0  0  0  0  0
    8.8855  -13.0008   19.0948 C   0  0  0  0  0  0  0  0  0  0  0  0
    8.1512  -11.9556   19.6066 C   0  0  0  0  0  0  0  0  0  0  0  0
    6.8391  -12.2275   19.9803 C   0  0  0  0  0  0  0  0  0  0  0  0
    6.3305  -13.5026   19.8295 C   0  0  0  0  0  0  0  0  0  0  0  0
    7.0744  -14.5443   19.3161 C   0  0  0  0  0  0  0  0  0  0  0  0
    8.3668  -14.2771   18.9485 C   0  0  0  0  0  0  0  0  0  0  0  0
    8.5772  -16.8095   20.4986 C   0  0  0  0  0  0  0  0  0  0  0  0
    7.6307  -16.0463   20.2006 O   0  0  0  0  0  0  0  0  0  0  0  0
    8.7989  -17.2384   21.8295 N   0  0  0  0  0  0  0  0  0  0  0  0
    8.5965  -16.4753   23.0278 C   0  0  1  0  0  0  0  0  0  0  0  0
    7.1959  -16.6229   23.6339 C   0  0  0  0  0  0  0  0  0  0  0  0
    7.0487  -15.9610   24.9351 C   0  0  0  0  0  0  0  0  0  0  0  0
    6.8071  -16.4785   26.1697 C   0  0  0  0  0  0  0  0  0  0  0  0
    6.7710  -15.4457   27.0376 N   0  0  0  0  0  0  0  0  0  0  0  0
    6.9834  -14.2901   26.3892 C   0  0  0  0  0  0  0  0  0  0  0  0
    7.0479  -12.9751   26.8242 C   0  0  0  0  0  0  0  0  0  0  0  0
    7.2923  -11.9779   25.9111 C   0  0  0  0  0  0  0  0  0  0  0  0
    7.4725  -12.2835   24.5695 C   0  0  0  0  0  0  0  0  0  0  0  0
    7.4106  -13.5859   24.1227 C   0  0  0  0  0  0  0  0  0  0  0  0
    7.1616  -14.5760   25.0683 C   0  0  0  0  0  0  0  0  0  0  0  0
    9.6098  -16.7876   24.0382 C   0  0  0  0  0  0  0  0  0  0  0  0
    9.3115  -17.5773   24.9627 O   0  0  0  0  0  0  0  0  0  0  0  0
   10.8873  -16.2230   23.9829 N   0  0  0  0  0  0  0  0  0  0  0  0
   11.9525  -16.3985   24.9429 C   0  0  1  0  0  0  0  0  0  0  0  0
   11.6465  -17.4621   25.9566 C   0  0  0  0  0  0  0  0  0  0  0  0
   10.6692  -17.0074   26.9475 C   0  0  0  0  0  0  0  0  0  0  0  0
    9.6551  -17.7568   27.4606 C   0  0  0  0  0  0  0  0  0  0  0  0
    8.9582  -16.9766   28.3011 N   0  0  0  0  0  0  0  0  0  0  0  0
    9.5100  -15.7598   28.3288 C   0  0  0  0  0  0  0  0  0  0  0  0
    9.1208  -14.6465   29.0776 C   0  0  0  0  0  0  0  0  0  0  0  0
    9.8647  -13.4969   28.9545 C   0  0  0  0  0  0  0  0  0  0  0  0
   10.9548  -13.4605   28.1162 C   0  0  0  0  0  0  0  0  0  0  0  0
   11.3165  -14.5663   27.3906 C   0  0  0  0  0  0  0  0  0  0  0  0
   10.5884  -15.7526   27.4859 C   0  0  0  0  0  0  0  0  0  0  0  0
   13.2733  -16.4555   24.3431 C   0  0  0  0  0  0  0  0  0  0  0  0
   14.4704  -16.7000   24.9868 O   0  0  0  0  0  0  0  0  0  0  0  0
   13.3398  -16.2517   23.0798 O   0  0  0  0  0  0  0  0  0  0  0  0
  2  1  1  6
  3  2  1  0
  4  5  2  0
  4  3  1  0
  6  5  1  0
  7 12  2  0
  7  6  1  0
  8  7  1  0
  9 10  1  0
  9  8  2  0
 10 11  2  0
 11 12  1  0
 12  4  1  0
 13 15  1  0
 13  2  1  0
 14 13  2  0
 16 27  1  0
 16 15  1  0
 16 17  1  1
 18 26  1  0
 18 17  1  0
 19 18  2  0
 20 19  1  0
 20 21  1  0
 21 22  1  0
 21 26  2  0
 22 23  2  0
 23 24  1  0
 25 24  2  0
 26 25  1  0
 27 28  2  0
 29 30  1  0
 29 27  1  0
 30 41  1  0
 30 31  1  6
 32 31  1  0
 33 32  2  0
 34 35  1  0
 34 33  1  0
 35 40  2  0
 36 37  2  0
 36 35  1  0
 37 38  1  0
 38 39  2  0
 40 39  1  0
 40 32  1  0
 41 42  1  0
 43 41  2  0
M  END
$$$$
