WWW.pdb
     RDKit          3D

 43 48  0  0  1  0  0  0  0  0999 V2000
    6.6323  -18.4984   24.2539 N   0  0  0  0  0  0  0  0  0  0  0  0
    7.4287  -17.2996   24.2449 C   0  0  1  0  0  0  0  0  0  0  0  0
    7.9077  -16.9219   25.6280 C   0  0  0  0  0  0  0  0  0  0  0  0
    7.1034  -15.7066   26.0042 C   0  0  0  0  0  0  0  0  0  0  0  0
    5.8058  -15.7083   26.4431 C   0  0  0  0  0  0  0  0  0  0  0  0
    5.4130  -14.4585   26.6706 N   0  0  0  0  0  0  0  0  0  0  0  0
    6.4318  -13.5961   26.3915 C   0  0  0  0  0  0  0  0  0  0  0  0
    6.5125  -12.2242   26.4640 C   0  0  0  0  0  0  0  0  0  0  0  0
    7.7210  -11.6414   26.0966 C   0  0  0  0  0  0  0  0  0  0  0  0
    8.7712  -12.4369   25.6824 C   0  0  0  0  0  0  0  0  0  0  0  0
    8.6807  -13.8113   25.6123 C   0  0  0  0  0  0  0  0  0  0  0  0
    7.4906  -14.3857   25.9736 C   0  0  0  0  0  0  0  0  0  0  0  0
    8.5463  -17.3801   23.2481 C   0  0  0  0  0  0  0  0  0  0  0  0
    9.2392  -18.4220   23.2105 O   0  0  0  0  0  0  0  0  0  0  0  0
    8.7923  -16.2890   22.3801 N   0  0  0  0  0  0  0  0  0  0  0  0
   10.0664  -15.8423   21.8941 C   0  0  1  0  0  0  0  0  0  0  0  0
   10.0232  -14.4848   21.1826 C   0  0  0  0  0  0  0  0  0  0  0  0
    8.7004  -14.1479   20.6444 C   0  0  0  0  0  0  0  0  0  0  0  0
    7.6052  -13.6184   21.2530 C   0  0  0  0  0  0  0  0  0  0  0  0
    6.6447  -13.4941   20.3132 N   0  0  0  0  0  0  0  0  0  0  0  0
    7.0998  -13.9284   19.1277 C   0  0  0  0  0  0  0  0  0  0  0  0
    6.5124  -14.0024   17.8739 C   0  0  0  0  0  0  0  0  0  0  0  0
    7.2417  -14.4973   16.8198 C   0  0  0  0  0  0  0  0  0  0  0  0
    8.5506  -14.9180   17.0082 C   0  0  0  0  0  0  0  0  0  0  0  0
    9.1473  -14.8507   18.2488 C   0  0  0  0  0  0  0  0  0  0  0  0
    8.3862  -14.3457   19.2987 C   0  0  0  0  0  0  0  0  0  0  0  0
   11.0656  -15.8100   22.9644 C   0  0  0  0  0  0  0  0  0  0  0  0
   11.3501  -14.7082   23.4863 O   0  0  0  0  0  0  0  0  0  0  0  0
   11.6959  -16.9777   23.4037 N   0  0  0  0  0  0  0  0  0  0  0  0
   12.9233  -17.0655   24.1607 C   0  0  1  0  0  0  0  0  0  0  0  0
   12.9793  -16.0745   25.2863 C   0  0  0  0  0  0  0  0  0  0  0  0
   11.9512  -16.3354   26.2956 C   0  0  0  0  0  0  0  0  0  0  0  0
   11.3936  -17.5483   26.5621 C   0  0  0  0  0  0  0  0  0  0  0  0
   10.4674  -17.3690   27.5166 N   0  0  0  0  0  0  0  0  0  0  0  0
   10.4320  -16.0769   27.8554 C   0  0  0  0  0  0  0  0  0  0  0  0
    9.6319  -15.4524   28.8155 C   0  0  0  0  0  0  0  0  0  0  0  0
    9.7909  -14.0998   29.0038 C   0  0  0  0  0  0  0  0  0  0  0  0
   10.7128  -13.3982   28.2622 C   0  0  0  0  0  0  0  0  0  0  0  0
   11.4861  -14.0335   27.3248 C   0  0  0  0  0  0  0  0  0  0  0  0
   11.3559  -15.4046   27.1020 C   0  0  0  0  0  0  0  0  0  0  0  0
   13.3058  -18.4257   24.4937 C   0  0  0  0  0  0  0  0  0  0  0  0
   12.5519  -19.5695   24.3187 O   0  0  0  0  0  0  0  0  0  0  0  0
   14.4669  -18.5854   25.0117 O   0  0  0  0  0  0  0  0  0  0  0  0
  2  1  1  1
  3  2  1  0
  4  5  2  0
  4  3  1  0
  6  5  1  0
  7 12  2  0
  7  6  1  0
  8  7  1  0
  9 10  1  0
  9  8  2  0
 10 11  2  0
 11 12  1  0
 12  4  1  0
 13 15  1  0
 13  2  1  0
 14 13  2  0
 16 27  1  0
 16 15  1  0
 16 17  1  1
 18 26  1  0
 18 17  1  0
 19 18  2  0
 20 19  1  0
 20 21  1  0
 21 22  1  0
 21 26  2  0
 22 23  2  0
 23 24  1  0
 25 24  2  0
 26 25  1  0
 27 28  2  0
 29 30  1  0
 29 27  1  0
 30 41  1  0
 30 31  1  1
 32 31  1  0
 33 32  2  0
 34 35  1  0
 34 33  1  0
 35 40  2  0
 36 37  2  0
 36 35  1  0
 37 38  1  0
 38 39  2  0
 40 39  1  0
 40 32  1  0
 41 42  1  0
 43 41  2  0
M  END
$$$$
