WWW.pdb
     RDKit          3D

 43 48  0  0  1  0  0  0  0  0999 V2000
    8.2639  -18.7963   19.1814 N   0  0  0  0  0  0  0  0  0  0  0  0
    9.3835  -17.8937   19.1228 C   0  0  1  0  0  0  0  0  0  0  0  0
    9.4822  -17.1923   17.7873 C   0  0  0  0  0  0  0  0  0  0  0  0
   10.0152  -18.2303   16.8366 C   0  0  0  0  0  0  0  0  0  0  0  0
   10.1926  -18.0665   15.4882 C   0  0  0  0  0  0  0  0  0  0  0  0
   10.6694  -19.1917   14.9639 N   0  0  0  0  0  0  0  0  0  0  0  0
   10.8217  -20.1290   15.9426 C   0  0  0  0  0  0  0  0  0  0  0  0
   11.2711  -21.4291   15.8997 C   0  0  0  0  0  0  0  0  0  0  0  0
   11.3001  -22.1283   17.1020 C   0  0  0  0  0  0  0  0  0  0  0  0
   10.8881  -21.5117   18.2671 C   0  0  0  0  0  0  0  0  0  0  0  0
   10.4386  -20.2083   18.3001 C   0  0  0  0  0  0  0  0  0  0  0  0
   10.4094  -19.5194   17.1163 C   0  0  0  0  0  0  0  0  0  0  0  0
    9.3911  -16.9388   20.2792 C   0  0  0  0  0  0  0  0  0  0  0  0
   10.1812  -15.9683   20.2471 O   0  0  0  0  0  0  0  0  0  0  0  0
    8.5151  -17.1517   21.3707 N   0  0  0  0  0  0  0  0  0  0  0  0
    8.5051  -16.4465   22.6204 C   0  0  1  0  0  0  0  0  0  0  0  0
    7.6613  -17.1178   23.7105 C   0  0  0  0  0  0  0  0  0  0  0  0
    7.1553  -16.1802   24.7193 C   0  0  0  0  0  0  0  0  0  0  0  0
    6.3732  -16.3919   25.8120 C   0  0  0  0  0  0  0  0  0  0  0  0
    6.2002  -15.1991   26.4188 N   0  0  0  0  0  0  0  0  0  0  0  0
    6.8501  -14.2388   25.7431 C   0  0  0  0  0  0  0  0  0  0  0  0
    6.9841  -12.8755   25.9577 C   0  0  0  0  0  0  0  0  0  0  0  0
    7.7345  -12.1292   25.0815 C   0  0  0  0  0  0  0  0  0  0  0  0
    8.3509  -12.7331   23.9946 C   0  0  0  0  0  0  0  0  0  0  0  0
    8.2261  -14.0870   23.7685 C   0  0  0  0  0  0  0  0  0  0  0  0
    7.4605  -14.8189   24.6712 C   0  0  0  0  0  0  0  0  0  0  0  0
    9.8642  -16.2172   23.1159 C   0  0  0  0  0  0  0  0  0  0  0  0
   10.4296  -15.1354   22.8374 O   0  0  0  0  0  0  0  0  0  0  0  0
   10.5275  -17.1776   23.8850 N   0  0  0  0  0  0  0  0  0  0  0  0
   11.8186  -17.0376   24.5179 C   0  0  1  0  0  0  0  0  0  0  0  0
   11.9209  -15.7937   25.3515 C   0  0  0  0  0  0  0  0  0  0  0  0
   11.1729  -15.9128   26.6045 C   0  0  0  0  0  0  0  0  0  0  0  0
   11.0081  -17.0578   27.3221 C   0  0  0  0  0  0  0  0  0  0  0  0
   10.2311  -16.7680   28.3772 N   0  0  0  0  0  0  0  0  0  0  0  0
    9.9068  -15.4721   28.3396 C   0  0  0  0  0  0  0  0  0  0  0  0
    9.1319  -14.7442   29.2459 C   0  0  0  0  0  0  0  0  0  0  0  0
    8.9524  -13.4024   29.0059 C   0  0  0  0  0  0  0  0  0  0  0  0
    9.5245  -12.8106   27.9037 C   0  0  0  0  0  0  0  0  0  0  0  0
   10.2804  -13.5466   27.0278 C   0  0  0  0  0  0  0  0  0  0  0  0
   10.4867  -14.9110   27.2341 C   0  0  0  0  0  0  0  0  0  0  0  0
   12.2978  -18.2587   25.1395 C   0  0  0  0  0  0  0  0  0  0  0  0
   13.5463  -18.4802   25.6868 O   0  0  0  0  0  0  0  0  0  0  0  0
   11.4773  -19.2420   25.1820 O   0  0  0  0  0  0  0  0  0  0  0  0
  2  1  1  6
  3  2  1  0
  4  5  2  0
  4  3  1  0
  6  5  1  0
  7 12  2  0
  7  6  1  0
  8  7  1  0
  9 10  1  0
  9  8  2  0
 10 11  2  0
 11 12  1  0
 12  4  1  0
 13 15  1  0
 13  2  1  0
 14 13  2  0
 16 27  1  0
 16 15  1  0
 16 17  1  1
 18 26  1  0
 18 17  1  0
 19 18  2  0
 20 19  1  0
 20 21  1  0
 21 22  1  0
 21 26  2  0
 22 23  2  0
 23 24  1  0
 25 24  2  0
 26 25  1  0
 27 28  2  0
 29 30  1  0
 29 27  1  0
 30 41  1  0
 30 31  1  1
 32 31  1  0
 33 32  2  0
 34 35  1  0
 34 33  1  0
 35 40  2  0
 36 37  2  0
 36 35  1  0
 37 38  1  0
 38 39  2  0
 40 39  1  0
 40 32  1  0
 41 42  1  0
 43 41  2  0
M  END
$$$$
