VQG.pdb
     RDKit          3D

 21 20  0  0  1  0  0  0  0  0999 V2000
   16.4428  -22.7937  -13.7519 C   0  0  0  0  0  0  0  0  0  0  0  0
   17.5034  -21.7186  -13.8262 C   0  0  2  0  0  0  0  0  0  0  0  0
   18.1234  -21.7631  -15.2196 C   0  0  0  0  0  0  0  0  0  0  0  0
   18.5927  -22.0611  -12.8368 C   0  0  2  0  0  0  0  0  0  0  0  0
   18.0817  -22.1195  -11.4860 N   0  0  0  0  0  0  0  0  0  0  0  0
   19.7569  -21.1745  -12.9225 C   0  0  0  0  0  0  0  0  0  0  0  0
   19.7672  -19.9683  -12.6111 O   0  0  0  0  0  0  0  0  0  0  0  0
   25.6953  -22.8146  -11.9487 N   0  0  0  0  0  0  0  0  0  0  0  0
   25.8130  -21.5902  -12.6483 C   0  0  0  0  0  0  0  0  0  0  0  0
   26.9490  -21.0939  -12.8049 O   0  0  0  0  0  0  0  0  0  0  0  0
   24.6338  -20.9047  -13.1852 C   0  0  0  0  0  0  0  0  0  0  0  0
   23.3655  -21.6695  -13.0151 C   0  0  0  0  0  0  0  0  0  0  0  0
   22.1772  -20.8937  -13.5361 C   0  0  2  0  0  0  0  0  0  0  0  0
   20.9926  -21.7197  -13.4006 N   0  0  0  0  0  0  0  0  0  0  0  0
   22.4046  -20.5877  -14.9795 C   0  0  0  0  0  0  0  0  0  0  0  0
   22.2488  -21.5005  -15.8442 O   0  0  0  0  0  0  0  0  0  0  0  0
   22.7900  -19.3191  -15.4473 N   0  0  0  0  0  0  0  0  0  0  0  0
   22.8821  -19.0502  -16.8673 C   0  0  0  0  0  0  0  0  0  0  0  0
   24.2102  -19.4144  -17.3843 C   0  0  0  0  0  0  0  0  0  0  0  0
   25.0527  -19.9876  -16.6499 O   0  0  0  0  0  0  0  0  0  0  0  0
   24.5394  -19.1215  -18.7018 O   0  0  0  0  0  0  0  0  0  0  0  0
  2  1  1  6
  2  3  1  0
  4  2  1  0
  4  5  1  1
  6  4  1  0
  7  6  2  0
  8  9  1  0
  9 11  1  0
 10  9  2  0
 11 12  1  0
 13 12  1  6
 13 14  1  0
 13 15  1  0
 14  6  1  0
 15 16  2  0
 15 17  1  0
 17 18  1  0
 18 19  1  0
 19 21  1  0
 20 19  2  0
M  END
$$$$
