VQG.pdb
     RDKit          3D

 21 20  0  0  1  0  0  0  0  0999 V2000
   19.3707  -13.7599  -16.1115 C   0  0  0  0  0  0  0  0  0  0  0  0
   19.8234  -13.5618  -17.5405 C   0  0  2  0  0  0  0  0  0  0  0  0
   18.9897  -14.4786  -18.4308 C   0  0  0  0  0  0  0  0  0  0  0  0
   21.2609  -14.0147  -17.6474 C   0  0  2  0  0  0  0  0  0  0  0  0
   21.3969  -15.4209  -17.3422 N   0  0  0  0  0  0  0  0  0  0  0  0
   22.1863  -13.2090  -16.8454 C   0  0  0  0  0  0  0  0  0  0  0  0
   22.7091  -13.5676  -15.7731 O   0  0  0  0  0  0  0  0  0  0  0  0
   27.9074   -9.7711  -15.9413 N   0  0  0  0  0  0  0  0  0  0  0  0
   26.7495  -10.4619  -16.3708 C   0  0  0  0  0  0  0  0  0  0  0  0
   26.7829  -11.7093  -16.4353 O   0  0  0  0  0  0  0  0  0  0  0  0
   25.5262   -9.7419  -16.7365 C   0  0  0  0  0  0  0  0  0  0  0  0
   24.5333  -10.5785  -17.4690 C   0  0  0  0  0  0  0  0  0  0  0  0
   23.4172  -11.0375  -16.5584 C   0  0  2  0  0  0  0  0  0  0  0  0
   22.5303  -11.9000  -17.3155 N   0  0  0  0  0  0  0  0  0  0  0  0
   22.6612   -9.8381  -16.0909 C   0  0  0  0  0  0  0  0  0  0  0  0
   21.7601   -9.3401  -16.8293 O   0  0  0  0  0  0  0  0  0  0  0  0
   22.8942   -9.2139  -14.8528 N   0  0  0  0  0  0  0  0  0  0  0  0
   22.0637   -8.1132  -14.4106 C   0  0  0  0  0  0  0  0  0  0  0  0
   22.3605   -6.8926  -15.1761 C   0  0  0  0  0  0  0  0  0  0  0  0
   23.2973   -6.8684  -16.0126 O   0  0  0  0  0  0  0  0  0  0  0  0
   21.5963   -5.7504  -14.9730 O   0  0  0  0  0  0  0  0  0  0  0  0
  2  1  1  1
  2  3  1  0
  4  2  1  0
  4  5  1  1
  6  4  1  0
  7  6  2  0
  8  9  1  0
  9 11  1  0
 10  9  2  0
 11 12  1  0
 13 12  1  6
 13 14  1  0
 13 15  1  0
 14  6  1  0
 15 16  2  0
 15 17  1  0
 17 18  1  0
 18 19  1  0
 19 21  1  0
 20 19  2  0
M  END
$$$$
