VQG.pdb
     RDKit          3D

 21 20  0  0  1  0  0  0  0  0999 V2000
   32.6773  -28.1437  -18.6804 C   0  0  0  0  0  0  0  0  0  0  0  0
   32.9799  -29.6052  -18.9224 C   0  0  2  0  0  0  0  0  0  0  0  0
   32.6549  -29.9192  -20.3797 C   0  0  0  0  0  0  0  0  0  0  0  0
   32.0473  -30.4286  -18.0649 C   0  0  2  0  0  0  0  0  0  0  0  0
   32.2926  -31.8441  -18.2246 N   0  0  0  0  0  0  0  0  0  0  0  0
   30.6315  -30.1117  -18.2744 C   0  0  0  0  0  0  0  0  0  0  0  0
   29.8434  -30.7702  -18.9794 O   0  0  0  0  0  0  0  0  0  0  0  0
   25.6736  -32.3298  -16.8958 N   0  0  0  0  0  0  0  0  0  0  0  0
   27.0101  -31.9268  -16.6642 C   0  0  0  0  0  0  0  0  0  0  0  0
   27.6424  -32.4528  -15.7236 O   0  0  0  0  0  0  0  0  0  0  0  0
   27.6547  -30.9124  -17.5034 C   0  0  0  0  0  0  0  0  0  0  0  0
   27.9413  -29.6358  -16.7889 C   0  0  0  0  0  0  0  0  0  0  0  0
   28.6725  -28.6558  -17.6780 C   0  0  2  0  0  0  0  0  0  0  0  0
   30.0907  -28.9550  -17.6246 N   0  0  0  0  0  0  0  0  0  0  0  0
   28.4379  -27.2759  -17.1588 C   0  0  0  0  0  0  0  0  0  0  0  0
   29.0386  -26.8914  -16.1117 O   0  0  0  0  0  0  0  0  0  0  0  0
   27.5709  -26.3569  -17.7757 N   0  0  0  0  0  0  0  0  0  0  0  0
   27.4260  -25.0127  -17.2570 C   0  0  0  0  0  0  0  0  0  0  0  0
   26.2688  -24.9219  -16.3534 C   0  0  0  0  0  0  0  0  0  0  0  0
   25.5782  -25.9366  -16.0866 O   0  0  0  0  0  0  0  0  0  0  0  0
   25.9333  -23.6989  -15.7863 O   0  0  0  0  0  0  0  0  0  0  0  0
  2  1  1  6
  2  3  1  0
  4  2  1  0
  4  5  1  6
  6  4  1  0
  7  6  2  0
  8  9  1  0
  9 11  1  0
 10  9  2  0
 11 12  1  0
 13 12  1  1
 13 14  1  0
 13 15  1  0
 14  6  1  0
 15 16  2  0
 15 17  1  0
 17 18  1  0
 18 19  1  0
 19 21  1  0
 20 19  2  0
M  END
$$$$
