VQG.pdb
     RDKit          3D

 21 20  0  0  1  0  0  0  0  0999 V2000
   18.0752  -12.4286  -17.5263 C   0  0  0  0  0  0  0  0  0  0  0  0
   16.9224  -12.4030  -16.5483 C   0  0  2  0  0  0  0  0  0  0  0  0
   15.6245  -12.3713  -17.3497 C   0  0  0  0  0  0  0  0  0  0  0  0
   16.9987  -11.1147  -15.7624 C   0  0  2  0  0  0  0  0  0  0  0  0
   16.6682   -9.9728  -16.5846 N   0  0  0  0  0  0  0  0  0  0  0  0
   18.2835  -10.9219  -15.0838 C   0  0  0  0  0  0  0  0  0  0  0  0
   18.7774  -11.6983  -14.2440 O   0  0  0  0  0  0  0  0  0  0  0  0
   23.5543  -11.0141  -17.2608 N   0  0  0  0  0  0  0  0  0  0  0  0
   23.8323  -10.5075  -15.9691 C   0  0  0  0  0  0  0  0  0  0  0  0
   25.0125  -10.5213  -15.5590 O   0  0  0  0  0  0  0  0  0  0  0  0
   22.7666   -9.9730  -15.1162 C   0  0  0  0  0  0  0  0  0  0  0  0
   21.4123  -10.0380  -15.7359 C   0  0  0  0  0  0  0  0  0  0  0  0
   20.3480   -9.5190  -14.7960 C   0  0  2  0  0  0  0  0  0  0  0  0
   19.0489   -9.7521  -15.3975 N   0  0  0  0  0  0  0  0  0  0  0  0
   20.5515   -8.0517  -14.6107 C   0  0  0  0  0  0  0  0  0  0  0  0
   20.2013   -7.2512  -15.5281 O   0  0  0  0  0  0  0  0  0  0  0  0
   21.1212   -7.4923  -13.4535 N   0  0  0  0  0  0  0  0  0  0  0  0
   21.2130   -6.0560  -13.2934 C   0  0  0  0  0  0  0  0  0  0  0  0
   22.3272   -5.5110  -14.0843 C   0  0  0  0  0  0  0  0  0  0  0  0
   23.0031   -6.2515  -14.8409 O   0  0  0  0  0  0  0  0  0  0  0  0
   22.6378   -4.1599  -13.9948 O   0  0  0  0  0  0  0  0  0  0  0  0
  2  1  1  6
  2  3  1  0
  4  2  1  0
  4  5  1  6
  6  4  1  0
  7  6  2  0
  8  9  1  0
  9 11  1  0
 10  9  2  0
 11 12  1  0
 13 12  1  6
 13 14  1  0
 13 15  1  0
 14  6  1  0
 15 16  2  0
 15 17  1  0
 17 18  1  0
 18 19  1  0
 19 21  1  0
 20 19  2  0
M  END
$$$$
