VQG.pdb
     RDKit          3D

 21 20  0  0  1  0  0  0  0  0999 V2000
   24.1401  -11.5667  -20.7421 C   0  0  0  0  0  0  0  0  0  0  0  0
   23.2146  -10.9344  -19.7275 C   0  0  2  0  0  0  0  0  0  0  0  0
   23.9769   -9.8132  -19.0278 C   0  0  0  0  0  0  0  0  0  0  0  0
   22.8799  -11.9728  -18.6822 C   0  0  2  0  0  0  0  0  0  0  0  0
   22.3089  -13.1592  -19.2785 N   0  0  0  0  0  0  0  0  0  0  0  0
   22.0272  -11.4611  -17.6053 C   0  0  0  0  0  0  0  0  0  0  0  0
   20.8029  -11.2497  -17.6957 O   0  0  0  0  0  0  0  0  0  0  0  0
   23.3869  -14.2535  -14.5180 N   0  0  0  0  0  0  0  0  0  0  0  0
   21.9727  -14.2549  -14.5702 C   0  0  0  0  0  0  0  0  0  0  0  0
   21.3822  -15.3220  -14.8421 O   0  0  0  0  0  0  0  0  0  0  0  0
   21.2010  -13.0355  -14.3127 C   0  0  0  0  0  0  0  0  0  0  0  0
   22.0446  -11.8251  -14.0988 C   0  0  0  0  0  0  0  0  0  0  0  0
   21.8290  -10.8005  -15.1892 C   0  0  2  0  0  0  0  0  0  0  0  0
   22.6314  -11.1747  -16.3381 N   0  0  0  0  0  0  0  0  0  0  0  0
   22.2769   -9.4684  -14.6855 C   0  0  0  0  0  0  0  0  0  0  0  0
   23.5035   -9.1573  -14.7462 O   0  0  0  0  0  0  0  0  0  0  0  0
   21.3997   -8.5172  -14.1355 N   0  0  0  0  0  0  0  0  0  0  0  0
   21.8699   -7.1942  -13.7811 C   0  0  0  0  0  0  0  0  0  0  0  0
   21.4829   -6.2096  -14.8032 C   0  0  0  0  0  0  0  0  0  0  0  0
   20.9093   -6.5702  -15.8609 O   0  0  0  0  0  0  0  0  0  0  0  0
   21.7544   -4.8627  -14.5982 O   0  0  0  0  0  0  0  0  0  0  0  0
  2  1  1  6
  2  3  1  0
  4  2  1  0
  4  5  1  6
  6  4  1  0
  7  6  2  0
  8  9  1  0
  9 11  1  0
 10  9  2  0
 11 12  1  0
 13 12  1  1
 13 14  1  0
 13 15  1  0
 14  6  1  0
 15 16  2  0
 15 17  1  0
 17 18  1  0
 18 19  1  0
 19 21  1  0
 20 19  2  0
M  END
$$$$
