VQG.pdb
     RDKit          3D

 21 20  0  0  1  0  0  0  0  0999 V2000
   18.4996  -12.5858  -17.8820 C   0  0  0  0  0  0  0  0  0  0  0  0
   19.8282  -12.4705  -18.5944 C   0  0  2  0  0  0  0  0  0  0  0  0
   20.4399  -13.8656  -18.6807 C   0  0  0  0  0  0  0  0  0  0  0  0
   20.7483  -11.6265  -17.7437 C   0  0  2  0  0  0  0  0  0  0  0  0
   21.1222  -12.3123  -16.5275 N   0  0  0  0  0  0  0  0  0  0  0  0
   20.2133  -10.2929  -17.4540 C   0  0  0  0  0  0  0  0  0  0  0  0
   19.9203   -9.4341  -18.3076 O   0  0  0  0  0  0  0  0  0  0  0  0
   15.4752   -9.0452  -14.2372 N   0  0  0  0  0  0  0  0  0  0  0  0
   15.7116   -8.9742  -15.6306 C   0  0  0  0  0  0  0  0  0  0  0  0
   14.7403   -9.0686  -16.4109 O   0  0  0  0  0  0  0  0  0  0  0  0
   17.0650   -8.7937  -16.1641 C   0  0  0  0  0  0  0  0  0  0  0  0
   18.1259   -8.7778  -15.1169 C   0  0  0  0  0  0  0  0  0  0  0  0
   19.5008   -8.6156  -15.7242 C   0  0  2  0  0  0  0  0  0  0  0  0
   20.0028   -9.9278  -16.0846 N   0  0  0  0  0  0  0  0  0  0  0  0
   20.4025   -8.0040  -14.7036 C   0  0  0  0  0  0  0  0  0  0  0  0
   20.8032   -8.7017  -13.7250 O   0  0  0  0  0  0  0  0  0  0  0  0
   20.8435   -6.6704  -14.7645 N   0  0  0  0  0  0  0  0  0  0  0  0
   21.6328   -6.1018  -13.6918 C   0  0  0  0  0  0  0  0  0  0  0  0
   22.0969   -4.7507  -14.0423 C   0  0  0  0  0  0  0  0  0  0  0  0
   21.9348   -4.2940  -15.2012 O   0  0  0  0  0  0  0  0  0  0  0  0
   22.7231   -3.9675  -13.0809 O   0  0  0  0  0  0  0  0  0  0  0  0
  2  1  1  1
  2  3  1  0
  4  2  1  0
  4  5  1  1
  6  4  1  0
  7  6  2  0
  8  9  1  0
  9 11  1  0
 10  9  2  0
 11 12  1  0
 13 12  1  1
 13 14  1  0
 13 15  1  0
 14  6  1  0
 15 16  2  0
 15 17  1  0
 17 18  1  0
 18 19  1  0
 19 21  1  0
 20 19  2  0
M  END
$$$$
