VQG.pdb
     RDKit          3D

 21 20  0  0  1  0  0  0  0  0999 V2000
   22.3427  -15.6967  -17.3059 C   0  0  0  0  0  0  0  0  0  0  0  0
   23.1671  -14.7968  -16.4134 C   0  0  2  0  0  0  0  0  0  0  0  0
   22.9527  -15.2400  -14.9692 C   0  0  0  0  0  0  0  0  0  0  0  0
   22.6310  -13.3895  -16.5375 C   0  0  2  0  0  0  0  0  0  0  0  0
   22.5936  -12.9570  -17.9162 N   0  0  0  0  0  0  0  0  0  0  0  0
   23.3421  -12.4196  -15.6995 C   0  0  0  0  0  0  0  0  0  0  0  0
   23.5150  -12.5212  -14.4700 O   0  0  0  0  0  0  0  0  0  0  0  0
   28.4562   -9.7782  -17.2058 N   0  0  0  0  0  0  0  0  0  0  0  0
   28.1313  -10.9196  -16.4350 C   0  0  0  0  0  0  0  0  0  0  0  0
   29.0055  -11.7949  -16.2589 O   0  0  0  0  0  0  0  0  0  0  0  0
   26.7988  -11.0864  -15.8475 C   0  0  0  0  0  0  0  0  0  0  0  0
   25.8863   -9.9331  -16.0918 C   0  0  0  0  0  0  0  0  0  0  0  0
   24.5023  -10.1964  -15.5435 C   0  0  2  0  0  0  0  0  0  0  0  0
   23.8904  -11.2535  -16.3258 N   0  0  0  0  0  0  0  0  0  0  0  0
   23.6924   -8.9494  -15.6774 C   0  0  0  0  0  0  0  0  0  0  0  0
   23.1260   -8.6872  -16.7799 O   0  0  0  0  0  0  0  0  0  0  0  0
   23.5165   -8.0280  -14.6302 N   0  0  0  0  0  0  0  0  0  0  0  0
   22.7241   -6.8312  -14.8222 C   0  0  0  0  0  0  0  0  0  0  0  0
   21.3639   -7.0131  -14.2925 C   0  0  0  0  0  0  0  0  0  0  0  0
   20.9436   -8.1529  -13.9735 O   0  0  0  0  0  0  0  0  0  0  0  0
   20.5313   -5.9112  -14.1422 O   0  0  0  0  0  0  0  0  0  0  0  0
  2  1  1  6
  2  3  1  0
  4  2  1  0
  4  5  1  6
  6  4  1  0
  7  6  2  0
  8  9  1  0
  9 11  1  0
 10  9  2  0
 11 12  1  0
 13 12  1  6
 13 14  1  0
 13 15  1  0
 14  6  1  0
 15 16  2  0
 15 17  1  0
 17 18  1  0
 18 19  1  0
 19 21  1  0
 20 19  2  0
M  END
$$$$
