VQG.pdb
     RDKit          3D

 21 20  0  0  1  0  0  0  0  0999 V2000
   15.2199  -10.6489  -12.1902 C   0  0  0  0  0  0  0  0  0  0  0  0
   15.3865  -11.1732  -10.7818 C   0  0  2  0  0  0  0  0  0  0  0  0
   14.1778  -12.0457  -10.4571 C   0  0  0  0  0  0  0  0  0  0  0  0
   15.3610   -9.9966   -9.8341 C   0  0  2  0  0  0  0  0  0  0  0  0
   14.1133   -9.2725   -9.9228 N   0  0  0  0  0  0  0  0  0  0  0  0
   16.5063   -9.0957   -9.9935 C   0  0  0  0  0  0  0  0  0  0  0  0
   17.6957   -9.3993   -9.7813 O   0  0  0  0  0  0  0  0  0  0  0  0
   20.5509   -5.7173  -12.1343 N   0  0  0  0  0  0  0  0  0  0  0  0
   20.3793   -7.1172  -12.0191 C   0  0  0  0  0  0  0  0  0  0  0  0
   21.3923   -7.8487  -12.0133 O   0  0  0  0  0  0  0  0  0  0  0  0
   19.0447   -7.7131  -11.9079 C   0  0  0  0  0  0  0  0  0  0  0  0
   17.9479   -6.7108  -11.7857 C   0  0  0  0  0  0  0  0  0  0  0  0
   17.3097   -6.7528  -10.4160 C   0  0  2  0  0  0  0  0  0  0  0  0
   16.2592   -7.7529  -10.4277 N   0  0  0  0  0  0  0  0  0  0  0  0
   16.7154   -5.4142  -10.1269 C   0  0  0  0  0  0  0  0  0  0  0  0
   15.6824   -5.0395  -10.7573 O   0  0  0  0  0  0  0  0  0  0  0  0
   17.2451   -4.5244   -9.1758 N   0  0  0  0  0  0  0  0  0  0  0  0
   16.6995   -3.1916   -9.0243 C   0  0  0  0  0  0  0  0  0  0  0  0
   15.5189   -3.2055   -8.1469 C   0  0  0  0  0  0  0  0  0  0  0  0
   14.9554   -2.1353   -7.8078 O   0  0  0  0  0  0  0  0  0  0  0  0
   15.0187   -4.4167   -7.6860 O   0  0  0  0  0  0  0  0  0  0  0  0
  2  1  1  6
  2  3  1  0
  4  2  1  0
  4  5  1  6
  6  4  1  0
  7  6  2  0
  8  9  1  0
  9 11  1  0
 10  9  2  0
 11 12  1  0
 13 12  1  6
 13 14  1  0
 13 15  1  0
 14  6  1  0
 15 16  2  0
 15 17  1  0
 17 18  1  0
 18 19  1  0
 19 21  1  0
 20 19  2  0
M  END
$$$$
