VQG.pdb
     RDKit          3D

 21 20  0  0  1  0  0  0  0  0999 V2000
   23.0814  -13.5233  -14.7453 C   0  0  0  0  0  0  0  0  0  0  0  0
   23.1991  -12.2505  -15.5529 C   0  0  2  0  0  0  0  0  0  0  0  0
   23.3805  -11.0894  -14.5798 C   0  0  0  0  0  0  0  0  0  0  0  0
   21.8928  -12.0300  -16.2795 C   0  0  2  0  0  0  0  0  0  0  0  0
   21.5664  -13.1498  -17.1332 N   0  0  0  0  0  0  0  0  0  0  0  0
   21.8465  -10.7681  -17.0239 C   0  0  0  0  0  0  0  0  0  0  0  0
   22.4967  -10.5175  -18.0565 O   0  0  0  0  0  0  0  0  0  0  0  0
   19.6300  -11.3875  -20.3733 N   0  0  0  0  0  0  0  0  0  0  0  0
   19.0786  -10.3528  -19.5809 C   0  0  0  0  0  0  0  0  0  0  0  0
   17.9686  -10.5378  -19.0379 O   0  0  0  0  0  0  0  0  0  0  0  0
   19.7844   -9.0821  -19.3913 C   0  0  0  0  0  0  0  0  0  0  0  0
   19.5842   -8.4797  -18.0424 C   0  0  0  0  0  0  0  0  0  0  0  0
   20.8696   -8.4640  -17.2468 C   0  0  2  0  0  0  0  0  0  0  0  0
   20.9902   -9.7256  -16.5415 N   0  0  0  0  0  0  0  0  0  0  0  0
   20.8029   -7.3482  -16.2572 C   0  0  0  0  0  0  0  0  0  0  0  0
   19.9699   -7.4065  -15.3044 O   0  0  0  0  0  0  0  0  0  0  0  0
   21.6273   -6.2111  -16.3205 N   0  0  0  0  0  0  0  0  0  0  0  0
   21.5510   -5.1837  -15.3028 C   0  0  0  0  0  0  0  0  0  0  0  0
   22.0736   -5.6777  -14.0195 C   0  0  0  0  0  0  0  0  0  0  0  0
   22.4034   -6.8815  -13.8786 O   0  0  0  0  0  0  0  0  0  0  0  0
   22.2050   -4.8034  -12.9481 O   0  0  0  0  0  0  0  0  0  0  0  0
  2  1  1  1
  2  3  1  0
  4  2  1  0
  4  5  1  6
  6  4  1  0
  7  6  2  0
  8  9  1  0
  9 11  1  0
 10  9  2  0
 11 12  1  0
 13 12  1  1
 13 14  1  0
 13 15  1  0
 14  6  1  0
 15 16  2  0
 15 17  1  0
 17 18  1  0
 18 19  1  0
 19 21  1  0
 20 19  2  0
M  END
$$$$
