VQG.pdb
     RDKit          3D

 21 20  0  0  1  0  0  0  0  0999 V2000
   20.4943  -13.1295  -16.8455 C   0  0  0  0  0  0  0  0  0  0  0  0
   21.8496  -13.1887  -17.5131 C   0  0  2  0  0  0  0  0  0  0  0  0
   22.5121  -14.5056  -17.1199 C   0  0  0  0  0  0  0  0  0  0  0  0
   22.7001  -12.0717  -16.9546 C   0  0  2  0  0  0  0  0  0  0  0  0
   22.9661  -12.2621  -15.5467 N   0  0  0  0  0  0  0  0  0  0  0  0
   22.1507  -10.7372  -17.2118 C   0  0  0  0  0  0  0  0  0  0  0  0
   22.0205  -10.2171  -18.3363 O   0  0  0  0  0  0  0  0  0  0  0  0
   18.0666   -5.5899  -14.8785 N   0  0  0  0  0  0  0  0  0  0  0  0
   18.1174   -6.9614  -15.2235 C   0  0  0  0  0  0  0  0  0  0  0  0
   17.4204   -7.7707  -14.5750 O   0  0  0  0  0  0  0  0  0  0  0  0
   18.9667   -7.4392  -16.3185 C   0  0  0  0  0  0  0  0  0  0  0  0
   19.6524   -8.7304  -16.0269 C   0  0  0  0  0  0  0  0  0  0  0  0
   21.1405   -8.6356  -16.2761 C   0  0  2  0  0  0  0  0  0  0  0  0
   21.7230   -9.9512  -16.0929 N   0  0  0  0  0  0  0  0  0  0  0  0
   21.7299   -7.6906  -15.2820 C   0  0  0  0  0  0  0  0  0  0  0  0
   21.9861   -8.0962  -14.1094 O   0  0  0  0  0  0  0  0  0  0  0  0
   22.0245   -6.3475  -15.5754 N   0  0  0  0  0  0  0  0  0  0  0  0
   22.6579   -5.4961  -14.5900 C   0  0  0  0  0  0  0  0  0  0  0  0
   21.6531   -4.7324  -13.8344 C   0  0  0  0  0  0  0  0  0  0  0  0
   21.3594   -3.5553  -14.1600 O   0  0  0  0  0  0  0  0  0  0  0  0
   21.0193   -5.3184  -12.7459 O   0  0  0  0  0  0  0  0  0  0  0  0
  2  1  1  1
  2  3  1  0
  4  2  1  0
  4  5  1  1
  6  4  1  0
  7  6  2  0
  8  9  1  0
  9 11  1  0
 10  9  2  0
 11 12  1  0
 13 12  1  1
 13 14  1  0
 13 15  1  0
 14  6  1  0
 15 16  2  0
 15 17  1  0
 17 18  1  0
 18 19  1  0
 19 21  1  0
 20 19  2  0
M  END
$$$$
