VQG.pdb
     RDKit          3D

 21 20  0  0  1  0  0  0  0  0999 V2000
   22.9493  -13.2278  -18.0403 C   0  0  0  0  0  0  0  0  0  0  0  0
   23.5718  -12.5781  -19.2554 C   0  0  2  0  0  0  0  0  0  0  0  0
   24.8446  -13.3453  -19.6006 C   0  0  0  0  0  0  0  0  0  0  0  0
   23.9800  -11.1721  -18.8818 C   0  0  2  0  0  0  0  0  0  0  0  0
   24.9566  -11.1700  -17.8162 N   0  0  0  0  0  0  0  0  0  0  0  0
   22.8450  -10.3026  -18.5588 C   0  0  0  0  0  0  0  0  0  0  0  0
   21.8558  -10.1090  -19.2908 O   0  0  0  0  0  0  0  0  0  0  0  0
   17.8338   -9.8798  -16.1028 N   0  0  0  0  0  0  0  0  0  0  0  0
   18.7980   -9.8800  -15.0671 C   0  0  0  0  0  0  0  0  0  0  0  0
   18.4159  -10.0516  -13.8899 O   0  0  0  0  0  0  0  0  0  0  0  0
   20.2221   -9.6840  -15.3539 C   0  0  0  0  0  0  0  0  0  0  0  0
   20.5137   -9.4153  -16.7909 C   0  0  0  0  0  0  0  0  0  0  0  0
   21.8130   -8.6614  -16.9605 C   0  0  2  0  0  0  0  0  0  0  0  0
   22.8547   -9.6103  -17.3045 N   0  0  0  0  0  0  0  0  0  0  0  0
   22.1528   -8.0016  -15.6651 C   0  0  0  0  0  0  0  0  0  0  0  0
   22.7625   -8.6588  -14.7699 O   0  0  0  0  0  0  0  0  0  0  0  0
   21.8294   -6.6650  -15.3724 N   0  0  0  0  0  0  0  0  0  0  0  0
   22.2107   -6.0709  -14.1080 C   0  0  0  0  0  0  0  0  0  0  0  0
   21.8429   -4.6472  -14.0662 C   0  0  0  0  0  0  0  0  0  0  0  0
   21.3156   -4.0884  -15.0599 O   0  0  0  0  0  0  0  0  0  0  0  0
   22.0807   -3.9090  -12.9137 O   0  0  0  0  0  0  0  0  0  0  0  0
  2  1  1  1
  2  3  1  0
  4  2  1  0
  4  5  1  1
  6  4  1  0
  7  6  2  0
  8  9  1  0
  9 11  1  0
 10  9  2  0
 11 12  1  0
 13 12  1  1
 13 14  1  0
 13 15  1  0
 14  6  1  0
 15 16  2  0
 15 17  1  0
 17 18  1  0
 18 19  1  0
 19 21  1  0
 20 19  2  0
M  END
$$$$
