RFN.pdb
     RDKit          3D

 31 31  0  0  1  0  0  0  0  0999 V2000
   29.0429  -20.1061  -21.7091 N   0  0  0  0  0  0  0  0  0  0  0  0
   27.6450  -19.9064  -21.7104 C   0  0  0  0  0  0  0  0  0  0  0  0
   26.9242  -20.4001  -22.6716 N   0  0  0  0  0  0  0  0  0  0  0  0
   26.9543  -19.1743  -20.6924 N   0  0  0  0  0  0  0  0  0  0  0  0
   27.6070  -18.6417  -19.5351 C   0  0  0  0  0  0  0  0  0  0  0  0
   28.0772  -19.7870  -18.6761 C   0  0  0  0  0  0  0  0  0  0  0  0
   27.1424  -20.0505  -17.5118 C   0  0  0  0  0  0  0  0  0  0  0  0
   27.7189  -21.1993  -16.7213 C   0  0  2  0  0  0  0  0  0  0  0  0
   27.7453  -22.4112  -17.5104 N   0  0  0  0  0  0  0  0  0  0  0  0
   26.9068  -21.4738  -15.4969 C   0  0  0  0  0  0  0  0  0  0  0  0
   25.8066  -22.0651  -15.5888 O   0  0  0  0  0  0  0  0  0  0  0  0
   25.8853  -20.2701  -22.7017 N   0  0  0  0  0  0  0  0  0  0  0  0
   27.3552  -21.0755  -14.2078 C   0  0  1  0  0  0  0  0  0  0  0  0
   26.5741  -21.0544  -13.0054 C   0  0  0  0  0  0  0  0  0  0  0  0
   27.3188  -20.7025  -11.7731 C   0  0  0  0  0  0  0  0  0  0  0  0
   26.4896  -20.6880  -10.5554 C   0  0  0  0  0  0  0  0  0  0  0  0
   26.2301  -19.4862   -9.9123 C   0  0  0  0  0  0  0  0  0  0  0  0
   25.4557  -19.4999   -8.7729 C   0  0  0  0  0  0  0  0  0  0  0  0
   24.9619  -20.7096   -8.3065 C   0  0  0  0  0  0  0  0  0  0  0  0
   25.2126  -21.9096   -8.9362 C   0  0  0  0  0  0  0  0  0  0  0  0
   25.9851  -21.8797  -10.0692 C   0  0  0  0  0  0  0  0  0  0  0  0
   25.2656  -20.3683  -13.1588 O   0  0  0  0  0  0  0  0  0  0  0  0
   25.2562  -19.1840  -13.5550 N   0  0  0  0  0  0  0  0  0  0  0  0
   20.9257  -18.2272  -14.9982 C   0  0  0  0  0  0  0  0  0  0  0  0
   20.9858  -19.5502  -14.5223 O   0  0  0  0  0  0  0  0  0  0  0  0
   19.9304  -20.1249  -14.1574 C   0  0  0  0  0  0  0  0  0  0  0  0
   22.2604  -20.2903  -14.4376 C   0  0  1  0  0  0  0  0  0  0  0  0
   22.7972  -20.1958  -13.0341 N   0  0  0  0  0  0  0  0  0  0  0  0
   24.0283  -20.9854  -12.8788 C   0  0  0  0  0  0  0  0  0  0  0  0
   21.7862  -20.6151  -12.0393 O   0  0  0  0  0  0  0  0  0  0  0  0
   20.9189  -19.6725  -11.5291 O   0  0  0  0  0  0  0  0  0  0  0  0
  2  3  2  0
  2  1  1  0
  4  2  1  0
  5  4  1  0
  6  5  1  0
  7  6  1  0
  8  7  1  0
  8  9  1  6
 10 12  1  0
 10  8  1  0
 11 10  2  0
 13 12  1  0
 13 14  1  1
 15 20  2  0
 15 14  1  0
 16 15  1  0
 17 18  1  0
 17 16  2  0
 18 19  2  0
 19 20  1  0
 21 13  1  0
 21 22  2  0
 24 26  1  0
 24 23  1  0
 25 24  2  0
 27 28  1  0
 27 26  1  6
 28 21  1  0
 29 27  1  0
 30 29  1  0
 31 29  2  0
M  END
$$$$
