RFN.pdb
     RDKit          3D

 31 31  0  0  1  0  0  0  0  0999 V2000
   25.2596  -19.4573  -17.6933 N   0  0  0  0  0  0  0  0  0  0  0  0
   25.2156  -20.0511  -18.9737 C   0  0  0  0  0  0  0  0  0  0  0  0
   24.5972  -19.4474  -19.9434 N   0  0  0  0  0  0  0  0  0  0  0  0
   25.8255  -21.3099  -19.2781 N   0  0  0  0  0  0  0  0  0  0  0  0
   26.9498  -21.8267  -18.5583 C   0  0  0  0  0  0  0  0  0  0  0  0
   26.5148  -23.0541  -17.8001 C   0  0  0  0  0  0  0  0  0  0  0  0
   27.0665  -23.0800  -16.3881 C   0  0  0  0  0  0  0  0  0  0  0  0
   26.8723  -21.7029  -15.8023 C   0  0  2  0  0  0  0  0  0  0  0  0
   28.1409  -21.1059  -15.4474 N   0  0  0  0  0  0  0  0  0  0  0  0
   26.0347  -21.7552  -14.5655 C   0  0  0  0  0  0  0  0  0  0  0  0
   25.3819  -22.7876  -14.2886 O   0  0  0  0  0  0  0  0  0  0  0  0
   24.6398  -19.8029  -20.9277 N   0  0  0  0  0  0  0  0  0  0  0  0
   25.9559  -20.6468  -13.6786 C   0  0  2  0  0  0  0  0  0  0  0  0
   25.0984  -20.5328  -12.5349 C   0  0  0  0  0  0  0  0  0  0  0  0
   25.6839  -19.8225  -11.3732 C   0  0  0  0  0  0  0  0  0  0  0  0
   26.9287  -20.4264  -10.8668 C   0  0  0  0  0  0  0  0  0  0  0  0
   28.0137  -20.5849  -11.7169 C   0  0  0  0  0  0  0  0  0  0  0  0
   29.1647  -21.1564  -11.2203 C   0  0  0  0  0  0  0  0  0  0  0  0
   29.2024  -21.5536   -9.8916 C   0  0  0  0  0  0  0  0  0  0  0  0
   28.1316  -21.4017   -9.0374 C   0  0  0  0  0  0  0  0  0  0  0  0
   26.9929  -20.8311   -9.5465 C   0  0  0  0  0  0  0  0  0  0  0  0
   23.7081  -20.1332  -12.8722 O   0  0  0  0  0  0  0  0  0  0  0  0
   23.5254  -19.3770  -13.8491 N   0  0  0  0  0  0  0  0  0  0  0  0
   19.5595  -23.2118  -14.8060 C   0  0  0  0  0  0  0  0  0  0  0  0
   20.1831  -21.9585  -14.6618 O   0  0  0  0  0  0  0  0  0  0  0  0
   19.6385  -20.9370  -15.1487 C   0  0  0  0  0  0  0  0  0  0  0  0
   21.4676  -21.8050  -13.9506 C   0  0  2  0  0  0  0  0  0  0  0  0
   21.3143  -20.7721  -12.8659 N   0  0  0  0  0  0  0  0  0  0  0  0
   22.5788  -20.5636  -12.1443 C   0  0  0  0  0  0  0  0  0  0  0  0
   20.2353  -21.1355  -11.9219 O   0  0  0  0  0  0  0  0  0  0  0  0
   20.5375  -21.9240  -10.8320 O   0  0  0  0  0  0  0  0  0  0  0  0
  2  3  2  0
  2  1  1  0
  4  2  1  0
  5  4  1  0
  6  5  1  0
  7  6  1  0
  8  7  1  0
  8  9  1  1
 10 12  1  0
 10  8  1  0
 11 10  2  0
 13 12  1  0
 13 14  1  6
 15 20  2  0
 15 14  1  0
 16 15  1  0
 17 18  1  0
 17 16  2  0
 18 19  2  0
 19 20  1  0
 21 13  1  0
 21 22  2  0
 24 26  1  0
 24 23  1  0
 25 24  2  0
 27 28  1  0
 27 26  1  6
 28 21  1  0
 29 27  1  0
 30 29  1  0
 31 29  2  0
M  END
$$$$
