RFN.pdb
     RDKit          3D

 31 31  0  0  1  0  0  0  0  0999 V2000
   29.0059  -23.2062  -17.5901 N   0  0  0  0  0  0  0  0  0  0  0  0
   28.9039  -21.9876  -18.2961 C   0  0  0  0  0  0  0  0  0  0  0  0
   28.9489  -21.9889  -19.5942 N   0  0  0  0  0  0  0  0  0  0  0  0
   28.7503  -20.7173  -17.6541 N   0  0  0  0  0  0  0  0  0  0  0  0
   28.6276  -20.5696  -16.2356 C   0  0  0  0  0  0  0  0  0  0  0  0
   27.1974  -20.8382  -15.8442 C   0  0  0  0  0  0  0  0  0  0  0  0
   26.9503  -20.5851  -14.3698 C   0  0  0  0  0  0  0  0  0  0  0  0
   27.1952  -21.8839  -13.6417 C   0  0  2  0  0  0  0  0  0  0  0  0
   26.5100  -22.9801  -14.2903 N   0  0  0  0  0  0  0  0  0  0  0  0
   26.7040  -21.8137  -12.2317 C   0  0  0  0  0  0  0  0  0  0  0  0
   25.5246  -22.1338  -11.9577 O   0  0  0  0  0  0  0  0  0  0  0  0
   28.7894  -21.1158  -20.1503 N   0  0  0  0  0  0  0  0  0  0  0  0
   27.5521  -21.3858  -11.1739 C   0  0  2  0  0  0  0  0  0  0  0  0
   27.1546  -21.1133   -9.8233 C   0  0  0  0  0  0  0  0  0  0  0  0
   28.2282  -20.6019   -8.9386 C   0  0  0  0  0  0  0  0  0  0  0  0
   27.7765  -20.2767   -7.5745 C   0  0  0  0  0  0  0  0  0  0  0  0
   27.6898  -21.2796   -6.6196 C   0  0  0  0  0  0  0  0  0  0  0  0
   27.2604  -20.9506   -5.3525 C   0  0  0  0  0  0  0  0  0  0  0  0
   26.9296  -19.6327   -5.0725 C   0  0  0  0  0  0  0  0  0  0  0  0
   27.0114  -18.6278   -6.0122 C   0  0  0  0  0  0  0  0  0  0  0  0
   27.4405  -18.9710   -7.2690 C   0  0  0  0  0  0  0  0  0  0  0  0
   25.8635  -20.3863   -9.7191 O   0  0  0  0  0  0  0  0  0  0  0  0
   25.8490  -19.1601   -9.9551 N   0  0  0  0  0  0  0  0  0  0  0  0
   20.4665  -19.8904  -11.5369 C   0  0  0  0  0  0  0  0  0  0  0  0
   21.6320  -19.4141  -10.9084 O   0  0  0  0  0  0  0  0  0  0  0  0
   21.6232  -18.2818  -10.3652 C   0  0  0  0  0  0  0  0  0  0  0  0
   22.8750  -20.2095  -10.8667 C   0  0  2  0  0  0  0  0  0  0  0  0
   23.4048  -20.2297   -9.4576 N   0  0  0  0  0  0  0  0  0  0  0  0
   24.6483  -21.0096   -9.3655 C   0  0  0  0  0  0  0  0  0  0  0  0
   22.3971  -20.7510   -8.5087 O   0  0  0  0  0  0  0  0  0  0  0  0
   22.7188  -21.8355   -7.7203 O   0  0  0  0  0  0  0  0  0  0  0  0
  2  3  2  0
  2  1  1  0
  4  2  1  0
  5  4  1  0
  6  5  1  0
  7  6  1  0
  8  7  1  0
  8  9  1  6
 10 12  1  0
 10  8  1  0
 11 10  2  0
 13 12  1  0
 13 14  1  1
 15 20  2  0
 15 14  1  0
 16 15  1  0
 17 18  1  0
 17 16  2  0
 18 19  2  0
 19 20  1  0
 21 13  1  0
 21 22  2  0
 24 26  1  0
 24 23  1  0
 25 24  2  0
 27 28  1  0
 27 26  1  6
 28 21  1  0
 29 27  1  0
 30 29  1  0
 31 29  2  0
M  END
$$$$
