RFN.pdb
     RDKit          3D

 31 31  0  0  1  0  0  0  0  0999 V2000
   29.6885  -21.9365  -20.2741 N   0  0  0  0  0  0  0  0  0  0  0  0
   28.9555  -21.5861  -21.4291 C   0  0  0  0  0  0  0  0  0  0  0  0
   29.4597  -20.7468  -22.2826 N   0  0  0  0  0  0  0  0  0  0  0  0
   27.6574  -22.1114  -21.7260 N   0  0  0  0  0  0  0  0  0  0  0  0
   26.6803  -22.3929  -20.7185 C   0  0  0  0  0  0  0  0  0  0  0  0
   26.8070  -21.3662  -19.6228 C   0  0  0  0  0  0  0  0  0  0  0  0
   25.8944  -21.6656  -18.4496 C   0  0  0  0  0  0  0  0  0  0  0  0
   26.7645  -22.1343  -17.3092 C   0  0  2  0  0  0  0  0  0  0  0  0
   27.2685  -23.4676  -17.5545 N   0  0  0  0  0  0  0  0  0  0  0  0
   26.0000  -22.1684  -16.0252 C   0  0  0  0  0  0  0  0  0  0  0  0
   24.9047  -22.7720  -15.9588 O   0  0  0  0  0  0  0  0  0  0  0  0
   28.9759  -20.5228  -23.1841 N   0  0  0  0  0  0  0  0  0  0  0  0
   26.4891  -21.5235  -14.8564 C   0  0  2  0  0  0  0  0  0  0  0  0
   25.8215  -21.4386  -13.5901 C   0  0  0  0  0  0  0  0  0  0  0  0
   26.6883  -21.0893  -12.4397 C   0  0  0  0  0  0  0  0  0  0  0  0
   25.9699  -20.9863  -11.1576 C   0  0  0  0  0  0  0  0  0  0  0  0
   25.8351  -22.1070  -10.3509 C   0  0  0  0  0  0  0  0  0  0  0  0
   25.1551  -21.9857   -9.1588 C   0  0  0  0  0  0  0  0  0  0  0  0
   24.6288  -20.7520   -8.8043 C   0  0  0  0  0  0  0  0  0  0  0  0
   24.7559  -19.6316   -9.5968 C   0  0  0  0  0  0  0  0  0  0  0  0
   25.4355  -19.7684  -10.7803 C   0  0  0  0  0  0  0  0  0  0  0  0
   24.5339  -20.7001  -13.6457 O   0  0  0  0  0  0  0  0  0  0  0  0
   24.5231  -19.5576  -14.1499 N   0  0  0  0  0  0  0  0  0  0  0  0
   19.5894  -19.7302  -15.8159 C   0  0  0  0  0  0  0  0  0  0  0  0
   20.6259  -19.3355  -14.9497 O   0  0  0  0  0  0  0  0  0  0  0  0
   20.5018  -18.2830  -14.2759 C   0  0  0  0  0  0  0  0  0  0  0  0
   21.8646  -20.1257  -14.8067 C   0  0  2  0  0  0  0  0  0  0  0  0
   22.0876  -20.4406  -13.3514 N   0  0  0  0  0  0  0  0  0  0  0  0
   23.3180  -21.2223  -13.1564 C   0  0  0  0  0  0  0  0  0  0  0  0
   20.9280  -21.1493  -12.7678 O   0  0  0  0  0  0  0  0  0  0  0  0
   19.8784  -20.4118  -12.2623 O   0  0  0  0  0  0  0  0  0  0  0  0
  2  3  2  0
  2  1  1  0
  4  2  1  0
  5  4  1  0
  6  5  1  0
  7  6  1  0
  8  7  1  0
  8  9  1  6
 10 12  1  0
 10  8  1  0
 11 10  2  0
 13 12  1  0
 13 14  1  1
 15 20  2  0
 15 14  1  0
 16 15  1  0
 17 18  1  0
 17 16  2  0
 18 19  2  0
 19 20  1  0
 21 13  1  0
 21 22  2  0
 24 26  1  0
 24 23  1  0
 25 24  2  0
 27 28  1  0
 27 26  1  1
 28 21  1  0
 29 27  1  0
 30 29  1  0
 31 29  2  0
M  END
$$$$
