RFN.pdb
     RDKit          3D

 31 31  0  0  1  0  0  0  0  0999 V2000
   19.7428  -12.7961  -20.9835 N   0  0  0  0  0  0  0  0  0  0  0  0
   18.6240  -13.4646  -20.4399 C   0  0  0  0  0  0  0  0  0  0  0  0
   18.1523  -14.5194  -21.0333 N   0  0  0  0  0  0  0  0  0  0  0  0
   17.9592  -13.0413  -19.2449 N   0  0  0  0  0  0  0  0  0  0  0  0
   18.4288  -11.9611  -18.4314 C   0  0  0  0  0  0  0  0  0  0  0  0
   17.4817  -11.7821  -17.2731 C   0  0  0  0  0  0  0  0  0  0  0  0
   17.8594  -10.5996  -16.4025 C   0  0  0  0  0  0  0  0  0  0  0  0
   19.1552  -10.9445  -15.7102 C   0  0  2  0  0  0  0  0  0  0  0  0
   19.0339  -12.1790  -14.9664 N   0  0  0  0  0  0  0  0  0  0  0  0
   19.5550   -9.8733  -14.7475 C   0  0  0  0  0  0  0  0  0  0  0  0
   18.8839   -9.6758  -13.7087 O   0  0  0  0  0  0  0  0  0  0  0  0
   17.3338  -15.0469  -20.6475 N   0  0  0  0  0  0  0  0  0  0  0  0
   20.6955   -9.0573  -14.9816 C   0  0  2  0  0  0  0  0  0  0  0  0
   21.1310   -7.9541  -14.1755 C   0  0  0  0  0  0  0  0  0  0  0  0
   22.3862   -8.1788  -13.4202 C   0  0  0  0  0  0  0  0  0  0  0  0
   23.4700   -8.7731  -14.2221 C   0  0  0  0  0  0  0  0  0  0  0  0
   23.8788  -10.0750  -13.9713 C   0  0  0  0  0  0  0  0  0  0  0  0
   24.8972  -10.6062  -14.7321 C   0  0  0  0  0  0  0  0  0  0  0  0
   25.4794   -9.8260  -15.7206 C   0  0  0  0  0  0  0  0  0  0  0  0
   25.0822   -8.5318  -15.9791 C   0  0  0  0  0  0  0  0  0  0  0  0
   24.0672   -8.0171  -15.2135 C   0  0  0  0  0  0  0  0  0  0  0  0
   21.0481   -6.6428  -14.8685 O   0  0  0  0  0  0  0  0  0  0  0  0
   21.2981   -6.5977  -16.0912 N   0  0  0  0  0  0  0  0  0  0  0  0
   20.2732   -2.0268  -16.7582 C   0  0  0  0  0  0  0  0  0  0  0  0
   19.6575   -2.0794  -15.4938 O   0  0  0  0  0  0  0  0  0  0  0  0
   19.1965   -1.0273  -14.9860 C   0  0  0  0  0  0  0  0  0  0  0  0
   19.5353   -3.3422  -14.7390 C   0  0  1  0  0  0  0  0  0  0  0  0
   20.7600   -4.1845  -14.9784 N   0  0  0  0  0  0  0  0  0  0  0  0
   20.7018   -5.4408  -14.2160 C   0  0  0  0  0  0  0  0  0  0  0  0
   21.9980   -3.4422  -14.6562 O   0  0  0  0  0  0  0  0  0  0  0  0
   22.7539   -3.8400  -13.5738 O   0  0  0  0  0  0  0  0  0  0  0  0
  2  3  2  0
  2  1  1  0
  4  2  1  0
  5  4  1  0
  6  5  1  0
  7  6  1  0
  8  7  1  0
  8  9  1  1
 10 12  1  0
 10  8  1  0
 11 10  2  0
 13 12  1  0
 13 14  1  1
 15 20  2  0
 15 14  1  0
 16 15  1  0
 17 18  1  0
 17 16  2  0
 18 19  2  0
 19 20  1  0
 21 13  1  0
 21 22  2  0
 24 26  1  0
 24 23  1  0
 25 24  2  0
 27 28  1  0
 27 26  1  6
 28 21  1  0
 29 27  1  0
 30 29  1  0
 31 29  2  0
M  END
$$$$
