RFN.pdb
     RDKit          3D

 31 31  0  0  1  0  0  0  0  0999 V2000
   31.7813  -25.0009  -17.4700 N   0  0  0  0  0  0  0  0  0  0  0  0
   31.4128  -25.0518  -18.8323 C   0  0  0  0  0  0  0  0  0  0  0  0
   31.5973  -26.1447  -19.5096 N   0  0  0  0  0  0  0  0  0  0  0  0
   30.8339  -23.9453  -19.5321 N   0  0  0  0  0  0  0  0  0  0  0  0
   30.0618  -22.9293  -18.8835 C   0  0  0  0  0  0  0  0  0  0  0  0
   29.1097  -23.5884  -17.9192 C   0  0  0  0  0  0  0  0  0  0  0  0
   28.2210  -22.5821  -17.2145 C   0  0  0  0  0  0  0  0  0  0  0  0
   28.8699  -22.2554  -15.8918 C   0  0  2  0  0  0  0  0  0  0  0  0
   29.8357  -23.2670  -15.5233 N   0  0  0  0  0  0  0  0  0  0  0  0
   27.8552  -22.1779  -14.7970 C   0  0  0  0  0  0  0  0  0  0  0  0
   27.1438  -23.1719  -14.5243 O   0  0  0  0  0  0  0  0  0  0  0  0
   31.4978  -26.1683  -20.5520 N   0  0  0  0  0  0  0  0  0  0  0  0
   27.6709  -20.9867  -14.0431 C   0  0  1  0  0  0  0  0  0  0  0  0
   26.7340  -20.7935  -12.9748 C   0  0  0  0  0  0  0  0  0  0  0  0
   27.1470  -19.8162  -11.9398 C   0  0  0  0  0  0  0  0  0  0  0  0
   27.8219  -20.4222  -10.7788 C   0  0  0  0  0  0  0  0  0  0  0  0
   29.0920  -20.9614  -10.9237 C   0  0  0  0  0  0  0  0  0  0  0  0
   29.6999  -21.5262   -9.8239 C   0  0  0  0  0  0  0  0  0  0  0  0
   29.0258  -21.5379   -8.6114 C   0  0  0  0  0  0  0  0  0  0  0  0
   27.7642  -21.0058   -8.4547 C   0  0  0  0  0  0  0  0  0  0  0  0
   27.1722  -20.4470   -9.5587 C   0  0  0  0  0  0  0  0  0  0  0  0
   25.3284  -20.6559  -13.4348 O   0  0  0  0  0  0  0  0  0  0  0  0
   25.0825  -19.8696  -14.3734 N   0  0  0  0  0  0  0  0  0  0  0  0
   20.3720  -22.7535  -15.4672 C   0  0  0  0  0  0  0  0  0  0  0  0
   20.8865  -22.1858  -14.2868 O   0  0  0  0  0  0  0  0  0  0  0  0
   20.1568  -21.4365  -13.5916 C   0  0  0  0  0  0  0  0  0  0  0  0
   22.2681  -22.4452  -13.8358 C   0  0  1  0  0  0  0  0  0  0  0  0
   22.9007  -21.1494  -13.4026 N   0  0  0  0  0  0  0  0  0  0  0  0
   24.2521  -21.3681  -12.8651 C   0  0  0  0  0  0  0  0  0  0  0  0
   22.0598  -20.4417  -12.4128 O   0  0  0  0  0  0  0  0  0  0  0  0
   22.3923  -20.5173  -11.0769 O   0  0  0  0  0  0  0  0  0  0  0  0
  2  3  2  0
  2  1  1  0
  4  2  1  0
  5  4  1  0
  6  5  1  0
  7  6  1  0
  8  7  1  0
  8  9  1  1
 10 12  1  0
 10  8  1  0
 11 10  2  0
 13 12  1  0
 13 14  1  6
 15 20  2  0
 15 14  1  0
 16 15  1  0
 17 18  1  0
 17 16  2  0
 18 19  2  0
 19 20  1  0
 21 13  1  0
 21 22  2  0
 24 26  1  0
 24 23  1  0
 25 24  2  0
 27 28  1  0
 27 26  1  6
 28 21  1  0
 29 27  1  0
 30 29  1  0
 31 29  2  0
M  END
$$$$
