RFN.pdb
     RDKit          3D

 31 31  0  0  1  0  0  0  0  0999 V2000
   28.6924  -19.5399  -18.4986 N   0  0  0  0  0  0  0  0  0  0  0  0
   27.4818  -18.8512  -18.2657 C   0  0  0  0  0  0  0  0  0  0  0  0
   26.4256  -19.1513  -18.9596 N   0  0  0  0  0  0  0  0  0  0  0  0
   27.3419  -17.8154  -17.2875 N   0  0  0  0  0  0  0  0  0  0  0  0
   28.3645  -17.4951  -16.3384 C   0  0  0  0  0  0  0  0  0  0  0  0
   28.6046  -18.6979  -15.4631 C   0  0  0  0  0  0  0  0  0  0  0  0
   27.4658  -18.9342  -14.4903 C   0  0  0  0  0  0  0  0  0  0  0  0
   27.8385  -20.1235  -13.6394 C   0  0  2  0  0  0  0  0  0  0  0  0
   28.4230  -21.1742  -14.4432 N   0  0  0  0  0  0  0  0  0  0  0  0
   26.6395  -20.6929  -12.9522 C   0  0  0  0  0  0  0  0  0  0  0  0
   25.9224  -21.5399  -13.5326 O   0  0  0  0  0  0  0  0  0  0  0  0
   25.5092  -18.6692  -18.8017 N   0  0  0  0  0  0  0  0  0  0  0  0
   26.2831  -20.2932  -11.6352 C   0  0  1  0  0  0  0  0  0  0  0  0
   25.1315  -20.7258  -10.8982 C   0  0  0  0  0  0  0  0  0  0  0  0
   25.1395  -20.3868   -9.4553 C   0  0  0  0  0  0  0  0  0  0  0  0
   26.4697  -20.4704   -8.8274 C   0  0  0  0  0  0  0  0  0  0  0  0
   26.8125  -19.5825   -7.8178 C   0  0  0  0  0  0  0  0  0  0  0  0
   28.0640  -19.6785   -7.2498 C   0  0  0  0  0  0  0  0  0  0  0  0
   28.9382  -20.6556   -7.7033 C   0  0  0  0  0  0  0  0  0  0  0  0
   28.6096  -21.5430   -8.7053 C   0  0  0  0  0  0  0  0  0  0  0  0
   27.3602  -21.4349   -9.2607 C   0  0  0  0  0  0  0  0  0  0  0  0
   23.8463  -20.4579  -11.5931 O   0  0  0  0  0  0  0  0  0  0  0  0
   23.7487  -19.4257  -12.2892 N   0  0  0  0  0  0  0  0  0  0  0  0
   20.8074  -21.8860  -15.7640 C   0  0  0  0  0  0  0  0  0  0  0  0
   20.6636  -22.3620  -14.4475 O   0  0  0  0  0  0  0  0  0  0  0  0
   19.5413  -22.7666  -14.0552 C   0  0  0  0  0  0  0  0  0  0  0  0
   21.7993  -22.4013  -13.5051 C   0  0  1  0  0  0  0  0  0  0  0  0
   21.7011  -21.2335  -12.5600 N   0  0  0  0  0  0  0  0  0  0  0  0
   22.7255  -21.3104  -11.5075 C   0  0  0  0  0  0  0  0  0  0  0  0
   20.3523  -21.1346  -11.9612 O   0  0  0  0  0  0  0  0  0  0  0  0
   19.3236  -20.6078  -12.7131 O   0  0  0  0  0  0  0  0  0  0  0  0
  2  3  2  0
  2  1  1  0
  4  2  1  0
  5  4  1  0
  6  5  1  0
  7  6  1  0
  8  7  1  0
  8  9  1  6
 10 12  1  0
 10  8  1  0
 11 10  2  0
 13 12  1  0
 13 14  1  6
 15 20  2  0
 15 14  1  0
 16 15  1  0
 17 18  1  0
 17 16  2  0
 18 19  2  0
 19 20  1  0
 21 13  1  0
 21 22  2  0
 24 26  1  0
 24 23  1  0
 25 24  2  0
 27 28  1  0
 27 26  1  6
 28 21  1  0
 29 27  1  0
 30 29  1  0
 31 29  2  0
M  END
$$$$
