RFN.pdb
     RDKit          3D

 31 31  0  0  1  0  0  0  0  0999 V2000
   20.5677  -14.3825  -18.8928 N   0  0  0  0  0  0  0  0  0  0  0  0
   19.2060  -14.5298  -19.2364 C   0  0  0  0  0  0  0  0  0  0  0  0
   18.7372  -15.7065  -19.5239 N   0  0  0  0  0  0  0  0  0  0  0  0
   18.2856  -13.4347  -19.2895 N   0  0  0  0  0  0  0  0  0  0  0  0
   18.4550  -12.2351  -18.5271 C   0  0  0  0  0  0  0  0  0  0  0  0
   17.7313  -12.3911  -17.2146 C   0  0  0  0  0  0  0  0  0  0  0  0
   17.8019  -11.1344  -16.3692 C   0  0  0  0  0  0  0  0  0  0  0  0
   19.0936  -10.4329  -16.7105 C   0  0  2  0  0  0  0  0  0  0  0  0
   20.2324  -11.2850  -16.4481 N   0  0  0  0  0  0  0  0  0  0  0  0
   19.2630   -9.1885  -15.8999 C   0  0  0  0  0  0  0  0  0  0  0  0
   18.5323   -8.9795  -14.9044 O   0  0  0  0  0  0  0  0  0  0  0  0
   17.7341  -15.8484  -19.7897 N   0  0  0  0  0  0  0  0  0  0  0  0
   20.2470   -8.2178  -16.2326 C   0  0  1  0  0  0  0  0  0  0  0  0
   20.5445   -7.0228  -15.4978 C   0  0  0  0  0  0  0  0  0  0  0  0
   21.8803   -6.9902  -14.8565 C   0  0  0  0  0  0  0  0  0  0  0  0
   22.0921   -8.0534  -13.8587 C   0  0  0  0  0  0  0  0  0  0  0  0
   22.8625   -9.1605  -14.1840 C   0  0  0  0  0  0  0  0  0  0  0  0
   23.0419  -10.1430  -13.2350 C   0  0  0  0  0  0  0  0  0  0  0  0
   22.4490   -9.9951  -11.9895 C   0  0  0  0  0  0  0  0  0  0  0  0
   21.6817   -8.9004  -11.6544 C   0  0  0  0  0  0  0  0  0  0  0  0
   21.5124   -7.9308  -12.6097 C   0  0  0  0  0  0  0  0  0  0  0  0
   20.1669   -5.7765  -16.2124 O   0  0  0  0  0  0  0  0  0  0  0  0
   20.7356   -5.5128  -17.2925 N   0  0  0  0  0  0  0  0  0  0  0  0
   16.8817   -0.7434  -16.5737 C   0  0  0  0  0  0  0  0  0  0  0  0
   17.2375   -1.9936  -17.1130 O   0  0  0  0  0  0  0  0  0  0  0  0
   17.3297   -2.1264  -18.3584 C   0  0  0  0  0  0  0  0  0  0  0  0
   17.5081   -3.1636  -16.2544 C   0  0  2  0  0  0  0  0  0  0  0  0
   18.8972   -3.6733  -16.5327 N   0  0  0  0  0  0  0  0  0  0  0  0
   19.1969   -4.8709  -15.7334 C   0  0  0  0  0  0  0  0  0  0  0  0
   19.9147   -2.6264  -16.2954 O   0  0  0  0  0  0  0  0  0  0  0  0
   20.4809   -1.9865  -17.3776 O   0  0  0  0  0  0  0  0  0  0  0  0
  2  3  2  0
  2  1  1  0
  4  2  1  0
  5  4  1  0
  6  5  1  0
  7  6  1  0
  8  7  1  0
  8  9  1  1
 10 12  1  0
 10  8  1  0
 11 10  2  0
 13 12  1  0
 13 14  1  1
 15 20  2  0
 15 14  1  0
 16 15  1  0
 17 18  1  0
 17 16  2  0
 18 19  2  0
 19 20  1  0
 21 13  1  0
 21 22  2  0
 24 26  1  0
 24 23  1  0
 25 24  2  0
 27 28  1  0
 27 26  1  6
 28 21  1  0
 29 27  1  0
 30 29  1  0
 31 29  2  0
M  END
$$$$
