RFN.pdb
     RDKit          3D

 31 31  0  0  1  0  0  0  0  0999 V2000
   27.3210  -25.7177  -19.0219 N   0  0  0  0  0  0  0  0  0  0  0  0
   28.1303  -24.5704  -19.1726 C   0  0  0  0  0  0  0  0  0  0  0  0
   28.6947  -24.3254  -20.3166 N   0  0  0  0  0  0  0  0  0  0  0  0
   28.3746  -23.6361  -18.1159 N   0  0  0  0  0  0  0  0  0  0  0  0
   27.8082  -23.7713  -16.8083 C   0  0  0  0  0  0  0  0  0  0  0  0
   28.2437  -22.5973  -15.9699 C   0  0  0  0  0  0  0  0  0  0  0  0
   27.3702  -22.4139  -14.7443 C   0  0  0  0  0  0  0  0  0  0  0  0
   26.0485  -21.8556  -15.2115 C   0  0  2  0  0  0  0  0  0  0  0  0
   26.1664  -20.4537  -15.5473 N   0  0  0  0  0  0  0  0  0  0  0  0
   25.0037  -21.9805  -14.1499 C   0  0  0  0  0  0  0  0  0  0  0  0
   24.7877  -23.0869  -13.6042 O   0  0  0  0  0  0  0  0  0  0  0  0
   29.3378  -23.5092  -20.4482 N   0  0  0  0  0  0  0  0  0  0  0  0
   24.2340  -20.8596  -13.7347 C   0  0  1  0  0  0  0  0  0  0  0  0
   23.1779  -20.8662  -12.7647 C   0  0  0  0  0  0  0  0  0  0  0  0
   23.2452  -19.7894  -11.7485 C   0  0  0  0  0  0  0  0  0  0  0  0
   23.8974  -20.1925  -10.4904 C   0  0  0  0  0  0  0  0  0  0  0  0
   23.1601  -20.8365   -9.5072 C   0  0  0  0  0  0  0  0  0  0  0  0
   23.7922  -21.1992   -8.3379 C   0  0  0  0  0  0  0  0  0  0  0  0
   25.1400  -20.9104   -8.1812 C   0  0  0  0  0  0  0  0  0  0  0  0
   25.8830  -20.2712   -9.1502 C   0  0  0  0  0  0  0  0  0  0  0  0
   25.2397  -19.9165  -10.3086 C   0  0  0  0  0  0  0  0  0  0  0  0
   21.8315  -21.0826  -13.3537 O   0  0  0  0  0  0  0  0  0  0  0  0
   21.4556  -20.3282  -14.2751 N   0  0  0  0  0  0  0  0  0  0  0  0
   16.8962  -24.4099  -14.0828 C   0  0  0  0  0  0  0  0  0  0  0  0
   17.9477  -23.6121  -14.5712 O   0  0  0  0  0  0  0  0  0  0  0  0
   17.7604  -22.8948  -15.5850 C   0  0  0  0  0  0  0  0  0  0  0  0
   19.2746  -23.5913  -13.9246 C   0  0  2  0  0  0  0  0  0  0  0  0
   19.6164  -22.1770  -13.5377 N   0  0  0  0  0  0  0  0  0  0  0  0
   20.9512  -22.0984  -12.9252 C   0  0  0  0  0  0  0  0  0  0  0  0
   18.5981  -21.6035  -12.6312 O   0  0  0  0  0  0  0  0  0  0  0  0
   17.3436  -21.3201  -13.1283 O   0  0  0  0  0  0  0  0  0  0  0  0
  2  3  2  0
  2  1  1  0
  4  2  1  0
  5  4  1  0
  6  5  1  0
  7  6  1  0
  8  7  1  0
  8  9  1  1
 10 12  1  0
 10  8  1  0
 11 10  2  0
 13 12  1  0
 13 14  1  1
 15 20  2  0
 15 14  1  0
 16 15  1  0
 17 18  1  0
 17 16  2  0
 18 19  2  0
 19 20  1  0
 21 13  1  0
 21 22  2  0
 24 26  1  0
 24 23  1  0
 25 24  2  0
 27 28  1  0
 27 26  1  6
 28 21  1  0
 29 27  1  0
 30 29  1  0
 31 29  2  0
M  END
$$$$
