RFN.pdb
     RDKit          3D

 31 31  0  0  1  0  0  0  0  0999 V2000
   24.0345  -39.8376  -13.5806 N   0  0  0  0  0  0  0  0  0  0  0  0
   24.5942  -39.6354  -12.3000 C   0  0  0  0  0  0  0  0  0  0  0  0
   25.2114  -40.6111  -11.7048 N   0  0  0  0  0  0  0  0  0  0  0  0
   24.5217  -38.3900  -11.5978 N   0  0  0  0  0  0  0  0  0  0  0  0
   23.7890  -37.2609  -12.0850 C   0  0  0  0  0  0  0  0  0  0  0  0
   24.7182  -36.3964  -12.8974 C   0  0  0  0  0  0  0  0  0  0  0  0
   25.3219  -35.2748  -12.0749 C   0  0  0  0  0  0  0  0  0  0  0  0
   24.2639  -34.2102  -11.9182 C   0  0  2  0  0  0  0  0  0  0  0  0
   24.2667  -33.3053  -13.0465 N   0  0  0  0  0  0  0  0  0  0  0  0
   24.4942  -33.3973  -10.6852 C   0  0  0  0  0  0  0  0  0  0  0  0
   25.3780  -32.5100  -10.6702 O   0  0  0  0  0  0  0  0  0  0  0  0
   25.6180  -40.5003  -10.7460 N   0  0  0  0  0  0  0  0  0  0  0  0
   23.7253  -33.6063   -9.5077 C   0  0  2  0  0  0  0  0  0  0  0  0
   23.8297  -32.8686   -8.2825 C   0  0  0  0  0  0  0  0  0  0  0  0
   22.6824  -31.9807   -7.9786 C   0  0  0  0  0  0  0  0  0  0  0  0
   22.4941  -30.8907   -8.9518 C   0  0  0  0  0  0  0  0  0  0  0  0
   23.3311  -29.7845   -8.9186 C   0  0  0  0  0  0  0  0  0  0  0  0
   23.1315  -28.7767   -9.8365 C   0  0  0  0  0  0  0  0  0  0  0  0
   22.1044  -28.8991  -10.7611 C   0  0  0  0  0  0  0  0  0  0  0  0
   21.2665  -29.9925  -10.8042 C   0  0  0  0  0  0  0  0  0  0  0  0
   21.4779  -30.9874   -9.8840 C   0  0  0  0  0  0  0  0  0  0  0  0
   24.3053  -33.6848   -7.1362 O   0  0  0  0  0  0  0  0  0  0  0  0
   23.9677  -34.8858   -7.0787 N   0  0  0  0  0  0  0  0  0  0  0  0
   27.7500  -34.6360   -6.2892 C   0  0  0  0  0  0  0  0  0  0  0  0
   27.8701  -33.9438   -5.0698 O   0  0  0  0  0  0  0  0  0  0  0  0
   29.0094  -33.6196   -4.6522 C   0  0  0  0  0  0  0  0  0  0  0  0
   26.6901  -33.5838   -4.2591 C   0  0  2  0  0  0  0  0  0  0  0  0
   25.4430  -34.0453   -4.9650 N   0  0  0  0  0  0  0  0  0  0  0  0
   25.1203  -33.1732   -6.1045 C   0  0  0  0  0  0  0  0  0  0  0  0
   24.2948  -34.1268   -4.0362 O   0  0  0  0  0  0  0  0  0  0  0  0
   24.0836  -35.2948   -3.3346 O   0  0  0  0  0  0  0  0  0  0  0  0
  2  3  2  0
  2  1  1  0
  4  2  1  0
  5  4  1  0
  6  5  1  0
  7  6  1  0
  8  7  1  0
  8  9  1  6
 10 12  1  0
 10  8  1  0
 11 10  2  0
 13 12  1  0
 13 14  1  6
 15 20  2  0
 15 14  1  0
 16 15  1  0
 17 18  1  0
 17 16  2  0
 18 19  2  0
 19 20  1  0
 21 13  1  0
 21 22  2  0
 24 26  1  0
 24 23  1  0
 25 24  2  0
 27 28  1  0
 27 26  1  6
 28 21  1  0
 29 27  1  0
 30 29  1  0
 31 29  2  0
M  END
$$$$
