RFN.pdb
     RDKit          3D

 31 31  0  0  1  0  0  0  0  0999 V2000
   26.2434  -18.4200  -17.3279 N   0  0  0  0  0  0  0  0  0  0  0  0
   25.0147  -18.8379  -16.7713 C   0  0  0  0  0  0  0  0  0  0  0  0
   24.0794  -19.2984  -17.5462 N   0  0  0  0  0  0  0  0  0  0  0  0
   24.7275  -18.7841  -15.3700 N   0  0  0  0  0  0  0  0  0  0  0  0
   25.7310  -18.9398  -14.3611 C   0  0  0  0  0  0  0  0  0  0  0  0
   26.4611  -20.2357  -14.6025 C   0  0  0  0  0  0  0  0  0  0  0  0
   26.2219  -21.2425  -13.4944 C   0  0  0  0  0  0  0  0  0  0  0  0
   27.1124  -20.8604  -12.3375 C   0  0  2  0  0  0  0  0  0  0  0  0
   28.3760  -21.5612  -12.4014 N   0  0  0  0  0  0  0  0  0  0  0  0
   26.4731  -21.1980  -11.0293 C   0  0  0  0  0  0  0  0  0  0  0  0
   26.2697  -22.3934  -10.7162 O   0  0  0  0  0  0  0  0  0  0  0  0
   24.1855  -19.3103  -18.5881 N   0  0  0  0  0  0  0  0  0  0  0  0
   26.0819  -20.1828  -10.1140 C   0  0  1  0  0  0  0  0  0  0  0  0
   25.4194  -20.3807   -8.8577 C   0  0  0  0  0  0  0  0  0  0  0  0
   25.6280  -19.3081   -7.8563 C   0  0  0  0  0  0  0  0  0  0  0  0
   26.8265  -19.4941   -7.0198 C   0  0  0  0  0  0  0  0  0  0  0  0
   27.8290  -18.5349   -7.0285 C   0  0  0  0  0  0  0  0  0  0  0  0
   28.9416  -18.7344   -6.2409 C   0  0  0  0  0  0  0  0  0  0  0  0
   29.0242  -19.8831   -5.4673 C   0  0  0  0  0  0  0  0  0  0  0  0
   28.0355  -20.8430   -5.4502 C   0  0  0  0  0  0  0  0  0  0  0  0
   26.9341  -20.6302   -6.2395 C   0  0  0  0  0  0  0  0  0  0  0  0
   24.0133  -20.8401   -8.9934 O   0  0  0  0  0  0  0  0  0  0  0  0
   23.4458  -20.7050  -10.0976 N   0  0  0  0  0  0  0  0  0  0  0  0
   19.5589  -24.1593   -7.7588 C   0  0  0  0  0  0  0  0  0  0  0  0
   19.8973  -22.8818   -7.2748 O   0  0  0  0  0  0  0  0  0  0  0  0
   18.9918  -22.0325   -7.0850 C   0  0  0  0  0  0  0  0  0  0  0  0
   21.2940  -22.5052   -6.9806 C   0  0  1  0  0  0  0  0  0  0  0  0
   21.8848  -21.8127   -8.1798 N   0  0  0  0  0  0  0  0  0  0  0  0
   23.2818  -21.4223   -7.9368 C   0  0  0  0  0  0  0  0  0  0  0  0
   21.0812  -20.6354   -8.5744 O   0  0  0  0  0  0  0  0  0  0  0  0
   20.0770  -20.7928   -9.5060 O   0  0  0  0  0  0  0  0  0  0  0  0
  2  3  2  0
  2  1  1  0
  4  2  1  0
  5  4  1  0
  6  5  1  0
  7  6  1  0
  8  7  1  0
  8  9  1  6
 10 12  1  0
 10  8  1  0
 11 10  2  0
 13 12  1  0
 13 14  1  1
 15 20  2  0
 15 14  1  0
 16 15  1  0
 17 18  1  0
 17 16  2  0
 18 19  2  0
 19 20  1  0
 21 13  1  0
 21 22  2  0
 24 26  1  0
 24 23  1  0
 25 24  2  0
 27 28  1  0
 27 26  1  6
 28 21  1  0
 29 27  1  0
 30 29  1  0
 31 29  2  0
M  END
$$$$
