EGS.pdb
     RDKit          3D

 20 19  0  0  1  0  0  0  0  0999 V2000
    9.0452  -14.8637   20.6113 N   0  0  0  0  0  0  0  0  0  0  0  0
    7.5881  -14.9511   20.7979 C   0  0  1  0  0  0  0  0  0  0  0  0
    7.0275  -16.0735   19.9898 C   0  0  0  0  0  0  0  0  0  0  0  0
    7.8898  -17.2840   20.0643 C   0  0  0  0  0  0  0  0  0  0  0  0
    7.2807  -18.3958   19.2663 C   0  0  0  0  0  0  0  0  0  0  0  0
    6.2975  -18.1448   18.5500 O   0  0  0  0  0  0  0  0  0  0  0  0
    7.2959  -15.1162   22.2176 C   0  0  0  0  0  0  0  0  0  0  0  0
    6.1407  -15.2261   22.6563 O   0  0  0  0  0  0  0  0  0  0  0  0
    7.8113  -19.6516   19.3398 O   0  0  0  0  0  0  0  0  0  0  0  0
    8.3642  -15.1567   23.1665 N   0  0  0  0  0  0  0  0  0  0  0  0
    8.0631  -15.2767   24.5556 C   0  0  0  0  0  0  0  0  0  0  0  0
    9.3070  -15.1720   25.4002 C   0  0  0  0  0  0  0  0  0  0  0  0
   10.2761  -14.4648   25.0482 O   0  0  0  0  0  0  0  0  0  0  0  0
    8.9434  -13.9731   28.5694 O   0  0  0  0  0  0  0  0  0  0  0  0
   10.2064  -14.1462   28.0549 C   0  0  0  0  0  0  0  0  0  0  0  0
   10.4551  -15.5764   27.5893 C   0  0  2  0  0  0  0  0  0  0  0  0
    9.4140  -15.8786   26.6283 N   0  0  0  0  0  0  0  0  0  0  0  0
   10.4358  -16.5091   28.7385 C   0  0  0  0  0  0  0  0  0  0  0  0
    9.4493  -17.4744   28.7904 O   0  0  0  0  0  0  0  0  0  0  0  0
   11.2788  -16.4520   29.6587 O   0  0  0  0  0  0  0  0  0  0  0  0
  2  1  1  1
  3  4  1  0
  3  2  1  0
  4  5  1  0
  5  9  1  0
  5  6  2  0
  7  2  1  0
  8  7  2  0
 10  7  1  0
 11 10  1  0
 11 12  1  0
 12 13  2  0
 16 15  1  1
 15 14  1  0
 17 12  1  0
 17 16  1  0
 18 16  1  0
 18 19  1  0
 20 18  2  0
M  END
$$$$
