EGS.pdb
     RDKit          3D

 20 19  0  0  1  0  0  0  0  0999 V2000
   10.5143  -18.7392   21.4085 N   0  0  0  0  0  0  0  0  0  0  0  0
   10.9690  -17.6006   22.2226 C   0  0  1  0  0  0  0  0  0  0  0  0
   12.2070  -17.0063   21.6386 C   0  0  0  0  0  0  0  0  0  0  0  0
   13.4151  -17.3812   22.4225 C   0  0  0  0  0  0  0  0  0  0  0  0
   14.6283  -16.7255   21.8375 C   0  0  0  0  0  0  0  0  0  0  0  0
   14.8732  -15.5468   22.1429 O   0  0  0  0  0  0  0  0  0  0  0  0
    9.8951  -16.6174   22.3133 C   0  0  0  0  0  0  0  0  0  0  0  0
    9.3937  -16.0778   21.3150 O   0  0  0  0  0  0  0  0  0  0  0  0
   15.4344  -17.4277   20.9883 O   0  0  0  0  0  0  0  0  0  0  0  0
    9.3786  -16.2400   23.5915 N   0  0  0  0  0  0  0  0  0  0  0  0
    8.2938  -15.3166   23.6639 C   0  0  0  0  0  0  0  0  0  0  0  0
    8.4019  -14.4335   24.8805 C   0  0  0  0  0  0  0  0  0  0  0  0
    9.3574  -14.5395   25.6798 O   0  0  0  0  0  0  0  0  0  0  0  0
    5.0751  -12.4267   26.4800 O   0  0  0  0  0  0  0  0  0  0  0  0
    6.2447  -11.7255   26.3059 C   0  0  0  0  0  0  0  0  0  0  0  0
    7.4749  -12.6252   26.3448 C   0  0  2  0  0  0  0  0  0  0  0  0
    7.4144  -13.4493   25.1549 N   0  0  0  0  0  0  0  0  0  0  0  0
    7.4867  -13.4381   27.5816 C   0  0  0  0  0  0  0  0  0  0  0  0
    7.8209  -12.8246   28.7732 O   0  0  0  0  0  0  0  0  0  0  0  0
    7.2056  -14.6553   27.5832 O   0  0  0  0  0  0  0  0  0  0  0  0
  2  1  1  6
  3  4  1  0
  3  2  1  0
  4  5  1  0
  5  9  1  0
  5  6  2  0
  7  2  1  0
  8  7  2  0
 10  7  1  0
 11 10  1  0
 11 12  1  0
 12 13  2  0
 16 15  1  1
 15 14  1  0
 17 12  1  0
 17 16  1  0
 18 16  1  0
 18 19  1  0
 20 18  2  0
M  END
$$$$
