EGS.pdb
     RDKit          3D

 20 19  0  0  1  0  0  0  0  0999 V2000
    9.6783  -15.3217   20.3510 N   0  0  0  0  0  0  0  0  0  0  0  0
    8.3338  -15.9121   20.4472 C   0  0  1  0  0  0  0  0  0  0  0  0
    8.3174  -17.2697   19.8278 C   0  0  0  0  0  0  0  0  0  0  0  0
    9.5912  -17.5606   19.1155 C   0  0  0  0  0  0  0  0  0  0  0  0
   10.1270  -18.8908   19.5481 C   0  0  0  0  0  0  0  0  0  0  0  0
   11.3515  -19.0885   19.4842 O   0  0  0  0  0  0  0  0  0  0  0  0
    7.9300  -15.9586   21.8482 C   0  0  0  0  0  0  0  0  0  0  0  0
    6.7750  -16.2384   22.2044 O   0  0  0  0  0  0  0  0  0  0  0  0
    9.2690  -19.8519   20.0001 O   0  0  0  0  0  0  0  0  0  0  0  0
    8.8823  -15.6748   22.8756 N   0  0  0  0  0  0  0  0  0  0  0  0
    8.4655  -15.6861   24.2397 C   0  0  0  0  0  0  0  0  0  0  0  0
    9.6141  -15.3895   25.1695 C   0  0  0  0  0  0  0  0  0  0  0  0
   10.7947  -15.3629   24.7589 O   0  0  0  0  0  0  0  0  0  0  0  0
    9.0333  -13.2464   28.5015 O   0  0  0  0  0  0  0  0  0  0  0  0
   10.2858  -13.4495   27.9725 C   0  0  0  0  0  0  0  0  0  0  0  0
   10.4794  -14.8731   27.4626 C   0  0  2  0  0  0  0  0  0  0  0  0
    9.3859  -15.1302   26.5478 N   0  0  0  0  0  0  0  0  0  0  0  0
   10.4958  -15.8323   28.5897 C   0  0  0  0  0  0  0  0  0  0  0  0
   11.5660  -15.8090   29.4626 O   0  0  0  0  0  0  0  0  0  0  0  0
    9.5775  -16.6585   28.7766 O   0  0  0  0  0  0  0  0  0  0  0  0
  2  1  1  1
  3  4  1  0
  3  2  1  0
  4  5  1  0
  5  9  1  0
  5  6  2  0
  7  2  1  0
  8  7  2  0
 10  7  1  0
 11 10  1  0
 11 12  1  0
 12 13  2  0
 16 15  1  1
 15 14  1  0
 17 12  1  0
 17 16  1  0
 18 16  1  0
 18 19  1  0
 20 18  2  0
M  END
$$$$
