EGS.pdb
     RDKit          3D

 20 19  0  0  1  0  0  0  0  0999 V2000
    2.5171  -20.6175   19.0948 N   0  0  0  0  0  0  0  0  0  0  0  0
    2.5460  -19.2821   19.7125 C   0  0  1  0  0  0  0  0  0  0  0  0
    1.5830  -19.2155   20.8506 C   0  0  0  0  0  0  0  0  0  0  0  0
    0.8372  -20.4933   21.0106 C   0  0  0  0  0  0  0  0  0  0  0  0
   -0.4946  -20.3967   20.3317 C   0  0  0  0  0  0  0  0  0  0  0  0
   -0.6862  -19.4708   19.5263 O   0  0  0  0  0  0  0  0  0  0  0  0
    3.9068  -18.9837   20.1452 C   0  0  0  0  0  0  0  0  0  0  0  0
    4.8005  -19.8431   20.1884 O   0  0  0  0  0  0  0  0  0  0  0  0
   -1.4636  -21.3182   20.6074 O   0  0  0  0  0  0  0  0  0  0  0  0
    4.2548  -17.6553   20.5418 N   0  0  0  0  0  0  0  0  0  0  0  0
    5.5936  -17.3727   20.9450 C   0  0  0  0  0  0  0  0  0  0  0  0
    5.8418  -17.7987   22.3693 C   0  0  0  0  0  0  0  0  0  0  0  0
    4.9460  -18.3400   23.0531 O   0  0  0  0  0  0  0  0  0  0  0  0
    9.4037  -18.9750   23.7444 O   0  0  0  0  0  0  0  0  0  0  0  0
    8.8481  -18.0098   24.5503 C   0  0  0  0  0  0  0  0  0  0  0  0
    7.3373  -17.9037   24.3759 C   0  0  2  0  0  0  0  0  0  0  0  0
    7.1093  -17.5958   22.9788 N   0  0  0  0  0  0  0  0  0  0  0  0
    6.7815  -16.8636   25.2702 C   0  0  0  0  0  0  0  0  0  0  0  0
    6.4350  -17.2164   26.5599 O   0  0  0  0  0  0  0  0  0  0  0  0
    6.6163  -15.6823   24.8986 O   0  0  0  0  0  0  0  0  0  0  0  0
  2  1  1  1
  3  4  1  0
  3  2  1  0
  4  5  1  0
  5  9  1  0
  5  6  2  0
  7  2  1  0
  8  7  2  0
 10  7  1  0
 11 10  1  0
 11 12  1  0
 12 13  2  0
 16 15  1  6
 15 14  1  0
 17 12  1  0
 17 16  1  0
 18 16  1  0
 18 19  1  0
 20 18  2  0
M  END
$$$$
