EGS.pdb
     RDKit          3D

 20 19  0  0  1  0  0  0  0  0999 V2000
    6.7259  -16.7657   14.7802 N   0  0  0  0  0  0  0  0  0  0  0  0
    7.9863  -17.4990   14.9777 C   0  0  1  0  0  0  0  0  0  0  0  0
    8.7405  -17.5905   13.6932 C   0  0  0  0  0  0  0  0  0  0  0  0
    8.2185  -16.6299   12.6837 C   0  0  0  0  0  0  0  0  0  0  0  0
    9.0463  -16.6976   11.4371 C   0  0  0  0  0  0  0  0  0  0  0  0
    8.8014  -17.5893   10.6078 O   0  0  0  0  0  0  0  0  0  0  0  0
    8.7707  -16.8337   16.0122 C   0  0  0  0  0  0  0  0  0  0  0  0
    9.8648  -17.2659   16.4063 O   0  0  0  0  0  0  0  0  0  0  0  0
   10.0445  -15.7879   11.2369 O   0  0  0  0  0  0  0  0  0  0  0  0
    8.2845  -15.6325   16.6153 N   0  0  0  0  0  0  0  0  0  0  0  0
    9.0571  -14.9965   17.6317 C   0  0  0  0  0  0  0  0  0  0  0  0
    9.0698  -15.8067   18.9026 C   0  0  0  0  0  0  0  0  0  0  0  0
    8.3977  -15.4651   19.8999 O   0  0  0  0  0  0  0  0  0  0  0  0
    9.3886  -19.7299   18.8657 O   0  0  0  0  0  0  0  0  0  0  0  0
    8.9676  -18.9888   19.9443 C   0  0  0  0  0  0  0  0  0  0  0  0
    9.8668  -17.7873   20.2125 C   0  0  2  0  0  0  0  0  0  0  0  0
    9.8512  -16.9892   19.0036 N   0  0  0  0  0  0  0  0  0  0  0  0
   11.2342  -18.2289   20.5671 C   0  0  0  0  0  0  0  0  0  0  0  0
   11.4133  -18.9624   21.7237 O   0  0  0  0  0  0  0  0  0  0  0  0
   12.2272  -17.9612   19.8579 O   0  0  0  0  0  0  0  0  0  0  0  0
  2  1  1  6
  3  4  1  0
  3  2  1  0
  4  5  1  0
  5  9  1  0
  5  6  2  0
  7  2  1  0
  8  7  2  0
 10  7  1  0
 11 10  1  0
 11 12  1  0
 12 13  2  0
 16 15  1  6
 15 14  1  0
 17 12  1  0
 17 16  1  0
 18 16  1  0
 18 19  1  0
 20 18  2  0
M  END
$$$$
