EGS.pdb
     RDKit          3D

 20 19  0  0  1  0  0  0  0  0999 V2000
   10.5634  -17.4048   21.3560 N   0  0  0  0  0  0  0  0  0  0  0  0
    9.9884  -16.3245   20.5388 C   0  0  1  0  0  0  0  0  0  0  0  0
    9.4382  -16.8738   19.2649 C   0  0  0  0  0  0  0  0  0  0  0  0
    8.5646  -18.0531   19.5107 C   0  0  0  0  0  0  0  0  0  0  0  0
    8.0997  -18.6259   18.2071 C   0  0  0  0  0  0  0  0  0  0  0  0
    6.9710  -19.1415   18.1524 O   0  0  0  0  0  0  0  0  0  0  0  0
    8.9613  -15.6342   21.3112 C   0  0  0  0  0  0  0  0  0  0  0  0
    8.3412  -14.6520   20.8755 O   0  0  0  0  0  0  0  0  0  0  0  0
    8.9160  -18.5718   17.1140 O   0  0  0  0  0  0  0  0  0  0  0  0
    8.6341  -16.0851   22.6276 N   0  0  0  0  0  0  0  0  0  0  0  0
    7.5245  -15.5051   23.3111 C   0  0  0  0  0  0  0  0  0  0  0  0
    7.9749  -14.4966   24.3367 C   0  0  0  0  0  0  0  0  0  0  0  0
    9.1877  -14.2728   24.5416 O   0  0  0  0  0  0  0  0  0  0  0  0
    5.3012  -12.9561   27.1523 O   0  0  0  0  0  0  0  0  0  0  0  0
    6.1627  -12.0771   26.5398 C   0  0  0  0  0  0  0  0  0  0  0  0
    7.4395  -12.7548   26.0551 C   0  0  2  0  0  0  0  0  0  0  0  0
    7.0274  -13.7673   25.1045 N   0  0  0  0  0  0  0  0  0  0  0  0
    8.1857  -13.3351   27.1939 C   0  0  0  0  0  0  0  0  0  0  0  0
    8.2957  -14.7093   27.2813 O   0  0  0  0  0  0  0  0  0  0  0  0
    8.7170  -12.6262   28.0748 O   0  0  0  0  0  0  0  0  0  0  0  0
  2  1  1  1
  3  4  1  0
  3  2  1  0
  4  5  1  0
  5  9  1  0
  5  6  2  0
  7  2  1  0
  8  7  2  0
 10  7  1  0
 11 10  1  0
 11 12  1  0
 12 13  2  0
 16 15  1  1
 15 14  1  0
 17 12  1  0
 17 16  1  0
 18 16  1  0
 18 19  1  0
 20 18  2  0
M  END
$$$$
