EGS.pdb
     RDKit          3D

 20 19  0  0  1  0  0  0  0  0999 V2000
    8.9545  -18.4311   19.9340 N   0  0  0  0  0  0  0  0  0  0  0  0
    9.8045  -17.8380   20.9787 C   0  0  1  0  0  0  0  0  0  0  0  0
   11.2304  -17.8185   20.5390 C   0  0  0  0  0  0  0  0  0  0  0  0
   11.5233  -18.9235   19.5862 C   0  0  0  0  0  0  0  0  0  0  0  0
   12.9667  -18.8856   19.1872 C   0  0  0  0  0  0  0  0  0  0  0  0
   13.8073  -19.3968   19.9453 O   0  0  0  0  0  0  0  0  0  0  0  0
    9.3209  -16.4962   21.2853 C   0  0  0  0  0  0  0  0  0  0  0  0
    9.9752  -15.4732   21.0313 O   0  0  0  0  0  0  0  0  0  0  0  0
   13.3285  -18.2964   18.0099 O   0  0  0  0  0  0  0  0  0  0  0  0
    8.0443  -16.3213   21.9038 N   0  0  0  0  0  0  0  0  0  0  0  0
    7.5645  -15.0025   22.1594 C   0  0  0  0  0  0  0  0  0  0  0  0
    7.9722  -14.5235   23.5291 C   0  0  0  0  0  0  0  0  0  0  0  0
    8.9134  -15.0595   24.1534 O   0  0  0  0  0  0  0  0  0  0  0  0
    6.8495  -11.3941   27.1065 O   0  0  0  0  0  0  0  0  0  0  0  0
    6.6700  -11.8730   25.8305 C   0  0  0  0  0  0  0  0  0  0  0  0
    7.6342  -13.0042   25.4915 C   0  0  2  0  0  0  0  0  0  0  0  0
    7.2937  -13.4422   24.1533 N   0  0  0  0  0  0  0  0  0  0  0  0
    7.5189  -14.1004   26.4793 C   0  0  0  0  0  0  0  0  0  0  0  0
    8.3990  -14.1271   27.5436 O   0  0  0  0  0  0  0  0  0  0  0  0
    6.6557  -14.9983   26.3825 O   0  0  0  0  0  0  0  0  0  0  0  0
  2  1  1  6
  3  4  1  0
  3  2  1  0
  4  5  1  0
  5  9  1  0
  5  6  2  0
  7  2  1  0
  8  7  2  0
 10  7  1  0
 11 10  1  0
 11 12  1  0
 12 13  2  0
 16 15  1  1
 15 14  1  0
 17 12  1  0
 17 16  1  0
 18 16  1  0
 18 19  1  0
 20 18  2  0
M  END
$$$$
