EGS.pdb
     RDKit          3D

 20 19  0  0  1  0  0  0  0  0999 V2000
   10.4905  -15.2229   16.4766 N   0  0  0  0  0  0  0  0  0  0  0  0
   10.7545  -16.0799   17.6434 C   0  0  1  0  0  0  0  0  0  0  0  0
   12.2015  -16.0330   18.0054 C   0  0  0  0  0  0  0  0  0  0  0  0
   12.8012  -14.7086   17.6880 C   0  0  0  0  0  0  0  0  0  0  0  0
   14.2603  -14.7133   18.0269 C   0  0  0  0  0  0  0  0  0  0  0  0
   14.9954  -15.5523   17.4807 O   0  0  0  0  0  0  0  0  0  0  0  0
    9.9112  -15.6507   18.7537 C   0  0  0  0  0  0  0  0  0  0  0  0
    9.4423  -14.5051   18.8358 O   0  0  0  0  0  0  0  0  0  0  0  0
   14.7508  -13.8051   18.9206 O   0  0  0  0  0  0  0  0  0  0  0  0
    9.5947  -16.5657   19.8052 N   0  0  0  0  0  0  0  0  0  0  0  0
    8.6869  -16.1674   20.8308 C   0  0  0  0  0  0  0  0  0  0  0  0
    9.3978  -15.9490   22.1418 C   0  0  0  0  0  0  0  0  0  0  0  0
   10.6350  -16.0968   22.2448 O   0  0  0  0  0  0  0  0  0  0  0  0
    7.7349  -13.6449   25.0778 O   0  0  0  0  0  0  0  0  0  0  0  0
    8.2857  -14.8201   25.5310 C   0  0  0  0  0  0  0  0  0  0  0  0
    9.3395  -15.3750   24.5792 C   0  0  2  0  0  0  0  0  0  0  0  0
    8.6771  -15.5664   23.3052 N   0  0  0  0  0  0  0  0  0  0  0  0
    9.9034  -16.6381   25.1056 C   0  0  0  0  0  0  0  0  0  0  0  0
   10.6795  -16.5909   26.2473 O   0  0  0  0  0  0  0  0  0  0  0  0
    9.7015  -17.7405   24.5537 O   0  0  0  0  0  0  0  0  0  0  0  0
  2  1  1  6
  3  4  1  0
  3  2  1  0
  4  5  1  0
  5  9  1  0
  5  6  2  0
  7  2  1  0
  8  7  2  0
 10  7  1  0
 11 10  1  0
 11 12  1  0
 12 13  2  0
 16 15  1  1
 15 14  1  0
 17 12  1  0
 17 16  1  0
 18 16  1  0
 18 19  1  0
 20 18  2  0
M  END
$$$$
