EGS.pdb
     RDKit          3D

 20 19  0  0  1  0  0  0  0  0999 V2000
    9.2900  -17.7381   20.1261 N   0  0  0  0  0  0  0  0  0  0  0  0
   10.7134  -18.0855   19.9896 C   0  0  1  0  0  0  0  0  0  0  0  0
   11.1766  -17.8384   18.5927 C   0  0  0  0  0  0  0  0  0  0  0  0
   11.2978  -19.1074   17.8250 C   0  0  0  0  0  0  0  0  0  0  0  0
   12.2741  -18.9347   16.7020 C   0  0  0  0  0  0  0  0  0  0  0  0
   12.7900  -17.8182   16.5285 O   0  0  0  0  0  0  0  0  0  0  0  0
   11.4895  -17.3143   20.9546 C   0  0  0  0  0  0  0  0  0  0  0  0
   12.6724  -16.9943   20.7614 O   0  0  0  0  0  0  0  0  0  0  0  0
   12.5761  -19.9960   15.8980 O   0  0  0  0  0  0  0  0  0  0  0  0
   10.8892  -16.8959   22.1825 N   0  0  0  0  0  0  0  0  0  0  0  0
   11.6636  -16.1556   23.1243 C   0  0  0  0  0  0  0  0  0  0  0  0
   11.2710  -16.4859   24.5415 C   0  0  0  0  0  0  0  0  0  0  0  0
   10.1391  -16.9408   24.8149 O   0  0  0  0  0  0  0  0  0  0  0  0
   13.8019  -15.4225   27.6918 O   0  0  0  0  0  0  0  0  0  0  0  0
   13.1303  -16.6193   27.7714 C   0  0  0  0  0  0  0  0  0  0  0  0
   11.8270  -16.6099   26.9806 C   0  0  2  0  0  0  0  0  0  0  0  0
   12.1824  -16.2882   25.6136 N   0  0  0  0  0  0  0  0  0  0  0  0
   10.8782  -15.6280   27.5519 C   0  0  0  0  0  0  0  0  0  0  0  0
   10.3897  -15.8441   28.8258 O   0  0  0  0  0  0  0  0  0  0  0  0
   10.5063  -14.6148   26.9227 O   0  0  0  0  0  0  0  0  0  0  0  0
  2  1  1  6
  3  4  1  0
  3  2  1  0
  4  5  1  0
  5  9  1  0
  5  6  2  0
  7  2  1  0
  8  7  2  0
 10  7  1  0
 11 10  1  0
 11 12  1  0
 12 13  2  0
 16 15  1  1
 15 14  1  0
 17 12  1  0
 17 16  1  0
 18 16  1  0
 18 19  1  0
 20 18  2  0
M  END
$$$$
