EGS.pdb
     RDKit          3D

 20 19  0  0  1  0  0  0  0  0999 V2000
   -2.8999  -28.3265   30.4193 N   0  0  0  0  0  0  0  0  0  0  0  0
   -2.7480  -27.3048   31.4674 C   0  0  1  0  0  0  0  0  0  0  0  0
   -1.3143  -27.1727   31.8600 C   0  0  0  0  0  0  0  0  0  0  0  0
   -0.4468  -26.9097   30.6798 C   0  0  0  0  0  0  0  0  0  0  0  0
    0.9579  -26.6432   31.1267 C   0  0  0  0  0  0  0  0  0  0  0  0
    1.2618  -25.4917   31.4795 O   0  0  0  0  0  0  0  0  0  0  0  0
   -3.2890  -26.0389   30.9845 C   0  0  0  0  0  0  0  0  0  0  0  0
   -3.3134  -25.0114   31.6793 O   0  0  0  0  0  0  0  0  0  0  0  0
    1.8691  -27.6599   31.1383 O   0  0  0  0  0  0  0  0  0  0  0  0
   -3.8200  -25.9480   29.6605 N   0  0  0  0  0  0  0  0  0  0  0  0
   -4.2668  -24.6852   29.1702 C   0  0  0  0  0  0  0  0  0  0  0  0
   -5.6373  -24.3434   29.6959 C   0  0  0  0  0  0  0  0  0  0  0  0
   -6.3611  -25.2065   30.2385 O   0  0  0  0  0  0  0  0  0  0  0  0
   -6.5507  -20.6776   31.0237 O   0  0  0  0  0  0  0  0  0  0  0  0
   -7.5154  -21.1631   30.1731 C   0  0  0  0  0  0  0  0  0  0  0  0
   -7.4775  -22.6826   30.0555 C   0  0  2  0  0  0  0  0  0  0  0  0
   -6.1487  -23.0219   29.5890 N   0  0  0  0  0  0  0  0  0  0  0  0
   -8.5285  -23.1597   29.1290 C   0  0  0  0  0  0  0  0  0  0  0  0
   -9.7942  -23.3954   29.6295 O   0  0  0  0  0  0  0  0  0  0  0  0
   -8.3094  -23.3553   27.9147 O   0  0  0  0  0  0  0  0  0  0  0  0
  2  1  1  6
  3  4  1  0
  3  2  1  0
  4  5  1  0
  5  9  1  0
  5  6  2  0
  7  2  1  0
  8  7  2  0
 10  7  1  0
 11 10  1  0
 11 12  1  0
 12 13  2  0
 16 15  1  6
 15 14  1  0
 17 12  1  0
 17 16  1  0
 18 16  1  0
 18 19  1  0
 20 18  2  0
M  END
$$$$
