EGS.pdb
     RDKit          3D

 20 19  0  0  1  0  0  0  0  0999 V2000
    8.1230  -18.4634   19.2842 N   0  0  0  0  0  0  0  0  0  0  0  0
    8.7630  -17.3035   18.6434 C   0  0  1  0  0  0  0  0  0  0  0  0
    8.1063  -17.0039   17.3372 C   0  0  0  0  0  0  0  0  0  0  0  0
    7.9080  -18.2381   16.5298 C   0  0  0  0  0  0  0  0  0  0  0  0
    8.5350  -18.0722   15.1795 C   0  0  0  0  0  0  0  0  0  0  0  0
    9.4914  -18.8032   14.8736 O   0  0  0  0  0  0  0  0  0  0  0  0
    8.7000  -16.1609   19.5482 C   0  0  0  0  0  0  0  0  0  0  0  0
    9.3252  -15.1089   19.3446 O   0  0  0  0  0  0  0  0  0  0  0  0
    8.0493  -17.1305   14.3184 O   0  0  0  0  0  0  0  0  0  0  0  0
    7.8929  -16.2266   20.7261 N   0  0  0  0  0  0  0  0  0  0  0  0
    7.9798  -15.1824   21.6940 C   0  0  0  0  0  0  0  0  0  0  0  0
    9.0756  -15.4478   22.6942 C   0  0  0  0  0  0  0  0  0  0  0  0
   10.2757  -15.2304   22.4191 O   0  0  0  0  0  0  0  0  0  0  0  0
   10.2150  -15.4307   27.2669 O   0  0  0  0  0  0  0  0  0  0  0  0
    9.3101  -15.3824   26.2331 C   0  0  0  0  0  0  0  0  0  0  0  0
    9.8002  -16.1240   24.9945 C   0  0  2  0  0  0  0  0  0  0  0  0
    8.7735  -15.9558   23.9864 N   0  0  0  0  0  0  0  0  0  0  0  0
   10.0441  -17.5507   25.3041 C   0  0  0  0  0  0  0  0  0  0  0  0
   11.2173  -17.8972   25.9454 O   0  0  0  0  0  0  0  0  0  0  0  0
    9.2273  -18.4476   25.0057 O   0  0  0  0  0  0  0  0  0  0  0  0
  2  1  1  1
  3  4  1  0
  3  2  1  0
  4  5  1  0
  5  9  1  0
  5  6  2  0
  7  2  1  0
  8  7  2  0
 10  7  1  0
 11 10  1  0
 11 12  1  0
 12 13  2  0
 16 15  1  1
 15 14  1  0
 17 12  1  0
 17 16  1  0
 18 16  1  0
 18 19  1  0
 20 18  2  0
M  END
$$$$
