EGS.pdb
     RDKit          3D

 20 19  0  0  1  0  0  0  0  0999 V2000
    7.5634  -18.5918   24.6012 N   0  0  0  0  0  0  0  0  0  0  0  0
    7.1587  -17.5475   25.5558 C   0  0  1  0  0  0  0  0  0  0  0  0
    8.1034  -17.5052   26.7103 C   0  0  0  0  0  0  0  0  0  0  0  0
    8.4391  -18.8726   27.1919 C   0  0  0  0  0  0  0  0  0  0  0  0
    9.1163  -18.7933   28.5257 C   0  0  0  0  0  0  0  0  0  0  0  0
    9.2809  -17.6766   29.0440 O   0  0  0  0  0  0  0  0  0  0  0  0
    7.1000  -16.2638   24.8654 C   0  0  0  0  0  0  0  0  0  0  0  0
    6.7345  -15.2180   25.4238 O   0  0  0  0  0  0  0  0  0  0  0  0
    9.5359  -19.9375   29.1411 O   0  0  0  0  0  0  0  0  0  0  0  0
    7.4731  -16.1760   23.4883 N   0  0  0  0  0  0  0  0  0  0  0  0
    7.4383  -14.9097   22.8325 C   0  0  0  0  0  0  0  0  0  0  0  0
    7.9725  -15.0025   21.4262 C   0  0  0  0  0  0  0  0  0  0  0  0
    8.4739  -16.0607   20.9881 O   0  0  0  0  0  0  0  0  0  0  0  0
    6.6632  -12.6234   18.3336 O   0  0  0  0  0  0  0  0  0  0  0  0
    8.0257  -12.6636   18.5118 C   0  0  0  0  0  0  0  0  0  0  0  0
    8.4838  -13.9339   19.2193 C   0  0  2  0  0  0  0  0  0  0  0  0
    7.9209  -13.8826   20.5532 N   0  0  0  0  0  0  0  0  0  0  0  0
    9.9616  -14.0121   19.2444 C   0  0  0  0  0  0  0  0  0  0  0  0
   10.6196  -14.4590   18.1150 O   0  0  0  0  0  0  0  0  0  0  0  0
   10.6304  -13.6888   20.2488 O   0  0  0  0  0  0  0  0  0  0  0  0
  2  1  1  6
  3  4  1  0
  3  2  1  0
  4  5  1  0
  5  9  1  0
  5  6  2  0
  7  2  1  0
  8  7  2  0
 10  7  1  0
 11 10  1  0
 11 12  1  0
 12 13  2  0
 16 15  1  6
 15 14  1  0
 17 12  1  0
 17 16  1  0
 18 16  1  0
 18 19  1  0
 20 18  2  0
M  END
$$$$
