EGS.pdb
     RDKit          3D

 20 19  0  0  1  0  0  0  0  0999 V2000
   14.6180  -17.2027   19.3665 N   0  0  0  0  0  0  0  0  0  0  0  0
   13.7870  -18.3309   18.9170 C   0  0  1  0  0  0  0  0  0  0  0  0
   14.5885  -19.5896   18.8946 C   0  0  0  0  0  0  0  0  0  0  0  0
   15.7489  -19.5148   19.8232 C   0  0  0  0  0  0  0  0  0  0  0  0
   16.8076  -20.4856   19.3981 C   0  0  0  0  0  0  0  0  0  0  0  0
   17.9985  -20.1447   19.4887 O   0  0  0  0  0  0  0  0  0  0  0  0
   12.6273  -18.4510   19.7938 C   0  0  0  0  0  0  0  0  0  0  0  0
   11.5940  -19.0513   19.4606 O   0  0  0  0  0  0  0  0  0  0  0  0
   16.4485  -21.7145   18.9240 O   0  0  0  0  0  0  0  0  0  0  0  0
   12.6529  -17.8630   21.0963 N   0  0  0  0  0  0  0  0  0  0  0  0
   11.5556  -18.0753   21.9825 C   0  0  0  0  0  0  0  0  0  0  0  0
   11.3684  -16.9081   22.9176 C   0  0  0  0  0  0  0  0  0  0  0  0
   12.3382  -16.2186   23.3014 O   0  0  0  0  0  0  0  0  0  0  0  0
    7.5137  -15.9193   24.3735 O   0  0  0  0  0  0  0  0  0  0  0  0
    8.4590  -14.9595   24.0992 C   0  0  0  0  0  0  0  0  0  0  0  0
    9.8811  -15.4620   24.3213 C   0  0  2  0  0  0  0  0  0  0  0  0
   10.0761  -16.5563   23.3923 N   0  0  0  0  0  0  0  0  0  0  0  0
   10.0696  -15.8879   25.7262 C   0  0  0  0  0  0  0  0  0  0  0  0
   10.2258  -17.2339   25.9941 O   0  0  0  0  0  0  0  0  0  0  0  0
   10.0919  -15.0736   26.6734 O   0  0  0  0  0  0  0  0  0  0  0  0
  2  1  1  1
  3  4  1  0
  3  2  1  0
  4  5  1  0
  5  9  1  0
  5  6  2  0
  7  2  1  0
  8  7  2  0
 10  7  1  0
 11 10  1  0
 11 12  1  0
 12 13  2  0
 16 15  1  1
 15 14  1  0
 17 12  1  0
 17 16  1  0
 18 16  1  0
 18 19  1  0
 20 18  2  0
M  END
$$$$
