AKP.pdb
     RDKit          3D

 22 22  0  0  1  0  0  0  0  0999 V2000
   30.8608  -23.3775  -15.9083 C   0  0  0  0  0  0  0  0  0  0  0  0
   30.3916  -24.8233  -16.0979 C   0  0  2  0  0  0  0  0  0  0  0  0
   31.5529  -25.6193  -16.3765 N   0  0  0  0  0  0  0  0  0  0  0  0
   29.4817  -24.8348  -17.2966 C   0  0  0  0  0  0  0  0  0  0  0  0
   29.9322  -24.6871  -18.4561 O   0  0  0  0  0  0  0  0  0  0  0  0
   28.0899  -25.0151  -17.1210 N   0  0  0  0  0  0  0  0  0  0  0  0
   27.1136  -24.9514  -18.2022 C   0  0  1  0  0  0  0  0  0  0  0  0
   25.9131  -25.6847  -17.6736 C   0  0  0  0  0  0  0  0  0  0  0  0
   26.0067  -27.1600  -17.6750 C   0  0  0  0  0  0  0  0  0  0  0  0
   24.6772  -27.7263  -17.1406 C   0  0  0  0  0  0  0  0  0  0  0  0
   24.7943  -29.2168  -17.0181 C   0  0  0  0  0  0  0  0  0  0  0  0
   23.5138  -29.7639  -16.5471 N   0  0  0  0  0  0  0  0  0  0  0  0
   26.7816  -23.5953  -18.6497 C   0  0  0  0  0  0  0  0  0  0  0  0
   26.8376  -22.6901  -17.7152 O   0  0  0  0  0  0  0  0  0  0  0  0
   26.4159  -23.1164  -19.9029 N   0  0  0  0  0  0  0  0  0  0  0  0
   26.2663  -23.7826  -21.1557 C   0  0  0  0  0  0  0  0  0  0  0  0
   27.0112  -22.7707  -22.0581 C   0  0  0  0  0  0  0  0  0  0  0  0
   26.2888  -21.5053  -21.6517 C   0  0  0  0  0  0  0  0  0  0  0  0
   26.0569  -21.7131  -20.1828 C   0  0  1  0  0  0  0  0  0  0  0  0
   24.6327  -21.4643  -19.8822 C   0  0  0  0  0  0  0  0  0  0  0  0
   24.1924  -20.1504  -19.9526 O   0  0  0  0  0  0  0  0  0  0  0  0
   23.8120  -22.3548  -19.5723 O   0  0  0  0  0  0  0  0  0  0  0  0
  2  1  1  6
  2  4  1  0
  3  2  1  0
  4  5  2  0
  6  4  1  0
  6  7  1  0
  7 13  1  0
  7  8  1  1
  9 10  1  0
  9  8  1  0
 10 11  1  0
 11 12  1  0
 13 14  2  0
 13 15  1  0
 15 19  1  0
 15 16  1  0
 17 16  1  0
 18 17  1  0
 18 19  1  0
 19 20  1  6
 20 21  1  0
 22 20  2  0
M  END
$$$$
