AKP.pdb
     RDKit          3D

 22 22  0  0  1  0  0  0  0  0999 V2000
   14.1529   -9.5239  -15.1207 C   0  0  0  0  0  0  0  0  0  0  0  0
   14.6076  -10.7398  -15.9339 C   0  0  2  0  0  0  0  0  0  0  0  0
   14.0998  -11.9106  -15.2774 N   0  0  0  0  0  0  0  0  0  0  0  0
   16.1119  -10.7582  -15.8900 C   0  0  0  0  0  0  0  0  0  0  0  0
   16.7288  -11.4151  -15.0199 O   0  0  0  0  0  0  0  0  0  0  0  0
   16.8520  -10.0230  -16.8451 N   0  0  0  0  0  0  0  0  0  0  0  0
   18.3085  -10.0016  -16.9118 C   0  0  1  0  0  0  0  0  0  0  0  0
   18.6251  -10.2041  -18.3668 C   0  0  0  0  0  0  0  0  0  0  0  0
   20.0612  -10.2272  -18.7170 C   0  0  0  0  0  0  0  0  0  0  0  0
   20.1816  -10.4481  -20.2370 C   0  0  0  0  0  0  0  0  0  0  0  0
   21.6308  -10.5893  -20.5976 C   0  0  0  0  0  0  0  0  0  0  0  0
   22.1242  -11.8862  -20.1125 N   0  0  0  0  0  0  0  0  0  0  0  0
   18.9294   -8.7874  -16.3736 C   0  0  0  0  0  0  0  0  0  0  0  0
   18.2481   -7.6967  -16.5790 O   0  0  0  0  0  0  0  0  0  0  0  0
   20.1230   -8.6069  -15.6834 N   0  0  0  0  0  0  0  0  0  0  0  0
   21.1643   -9.5245  -15.3525 C   0  0  0  0  0  0  0  0  0  0  0  0
   21.3734   -9.1289  -13.8717 C   0  0  0  0  0  0  0  0  0  0  0  0
   21.5481   -7.6360  -14.0415 C   0  0  0  0  0  0  0  0  0  0  0  0
   20.5829   -7.3126  -15.1452 C   0  0  1  0  0  0  0  0  0  0  0  0
   21.2852   -6.5310  -16.1828 C   0  0  0  0  0  0  0  0  0  0  0  0
   21.5679   -5.2043  -15.8911 O   0  0  0  0  0  0  0  0  0  0  0  0
   21.6350   -6.9875  -17.2927 O   0  0  0  0  0  0  0  0  0  0  0  0
  2  1  1  1
  2  4  1  0
  3  2  1  0
  4  5  2  0
  6  4  1  0
  6  7  1  0
  7 13  1  0
  7  8  1  6
  9 10  1  0
  9  8  1  0
 10 11  1  0
 11 12  1  0
 13 14  2  0
 13 15  1  0
 15 19  1  0
 15 16  1  0
 17 16  1  0
 18 17  1  0
 18 19  1  0
 19 20  1  6
 20 21  1  0
 22 20  2  0
M  END
$$$$
