AKP.pdb
     RDKit          3D

 22 22  0  0  1  0  0  0  0  0999 V2000
   27.5976  -11.7085  -15.3996 C   0  0  0  0  0  0  0  0  0  0  0  0
   26.7334  -12.5998  -16.2969 C   0  0  2  0  0  0  0  0  0  0  0  0
   27.5042  -12.9078  -17.4676 N   0  0  0  0  0  0  0  0  0  0  0  0
   25.5304  -11.7868  -16.6934 C   0  0  0  0  0  0  0  0  0  0  0  0
   25.6147  -10.8766  -17.5500 O   0  0  0  0  0  0  0  0  0  0  0  0
   24.2767  -12.0478  -16.0931 N   0  0  0  0  0  0  0  0  0  0  0  0
   23.0332  -11.3897  -16.4762 C   0  0  1  0  0  0  0  0  0  0  0  0
   21.9611  -12.3990  -16.1755 C   0  0  0  0  0  0  0  0  0  0  0  0
   20.5722  -11.9574  -16.4235 C   0  0  0  0  0  0  0  0  0  0  0  0
   19.6345  -13.1517  -16.1622 C   0  0  0  0  0  0  0  0  0  0  0  0
   18.2314  -12.7594  -16.5196 C   0  0  0  0  0  0  0  0  0  0  0  0
   17.3225  -13.8666  -16.1899 N   0  0  0  0  0  0  0  0  0  0  0  0
   22.7880  -10.1064  -15.8109 C   0  0  0  0  0  0  0  0  0  0  0  0
   23.2185  -10.0443  -14.5835 O   0  0  0  0  0  0  0  0  0  0  0  0
   22.1721   -8.9478  -16.2712 N   0  0  0  0  0  0  0  0  0  0  0  0
   21.5620   -8.6430  -17.5244 C   0  0  0  0  0  0  0  0  0  0  0  0
   22.1851   -7.2475  -17.7635 C   0  0  0  0  0  0  0  0  0  0  0  0
   21.8371   -6.5967  -16.4431 C   0  0  0  0  0  0  0  0  0  0  0  0
   21.9970   -7.7247  -15.4652 C   0  0  1  0  0  0  0  0  0  0  0  0
   20.7810   -7.8131  -14.6320 C   0  0  0  0  0  0  0  0  0  0  0  0
   20.6612   -6.9039  -13.5907 O   0  0  0  0  0  0  0  0  0  0  0  0
   19.8661   -8.6469  -14.8068 O   0  0  0  0  0  0  0  0  0  0  0  0
  2  1  1  1
  2  4  1  0
  3  2  1  0
  4  5  2  0
  6  4  1  0
  6  7  1  0
  7 13  1  0
  7  8  1  1
  9 10  1  0
  9  8  1  0
 10 11  1  0
 11 12  1  0
 13 14  2  0
 13 15  1  0
 15 19  1  0
 15 16  1  0
 17 16  1  0
 18 17  1  0
 18 19  1  0
 19 20  1  6
 20 21  1  0
 22 20  2  0
M  END
$$$$
