AKP.pdb
     RDKit          3D

 22 22  0  0  1  0  0  0  0  0999 V2000
   14.4225  -21.4282    3.6172 C   0  0  0  0  0  0  0  0  0  0  0  0
   15.0313  -20.5194    2.5449 C   0  0  2  0  0  0  0  0  0  0  0  0
   15.3651  -21.3456    1.4199 N   0  0  0  0  0  0  0  0  0  0  0  0
   16.2920  -19.9390    3.1271 C   0  0  0  0  0  0  0  0  0  0  0  0
   17.3944  -20.5203    2.9997 O   0  0  0  0  0  0  0  0  0  0  0  0
   16.2415  -18.7146    3.8330 N   0  0  0  0  0  0  0  0  0  0  0  0
   17.4135  -18.0234    4.3575 C   0  0  1  0  0  0  0  0  0  0  0  0
   17.0011  -16.5802    4.4331 C   0  0  0  0  0  0  0  0  0  0  0  0
   18.0296  -15.6410    4.9284 C   0  0  0  0  0  0  0  0  0  0  0  0
   17.4182  -14.2269    4.9505 C   0  0  0  0  0  0  0  0  0  0  0  0
   18.4833  -13.2391    5.3249 C   0  0  0  0  0  0  0  0  0  0  0  0
   17.9299  -11.8797    5.2443 N   0  0  0  0  0  0  0  0  0  0  0  0
   17.8985  -18.5290    5.6454 C   0  0  0  0  0  0  0  0  0  0  0  0
   16.9643  -18.9708    6.4378 O   0  0  0  0  0  0  0  0  0  0  0  0
   19.1872  -18.6134    6.1609 N   0  0  0  0  0  0  0  0  0  0  0  0
   20.4463  -18.2323    5.6085 C   0  0  0  0  0  0  0  0  0  0  0  0
   21.2613  -19.4966    5.9697 C   0  0  0  0  0  0  0  0  0  0  0  0
   20.9451  -19.5754    7.4469 C   0  0  0  0  0  0  0  0  0  0  0  0
   19.5117  -19.1320    7.5033 C   0  0  1  0  0  0  0  0  0  0  0  0
   19.3772  -18.0727    8.5233 C   0  0  0  0  0  0  0  0  0  0  0  0
   19.1875  -16.7764    8.0665 O   0  0  0  0  0  0  0  0  0  0  0  0
   19.4235  -18.2720    9.7565 O   0  0  0  0  0  0  0  0  0  0  0  0
  2  1  1  1
  2  4  1  0
  3  2  1  0
  4  5  2  0
  6  4  1  0
  6  7  1  0
  7 13  1  0
  7  8  1  1
  9 10  1  0
  9  8  1  0
 10 11  1  0
 11 12  1  0
 13 14  2  0
 13 15  1  0
 15 19  1  0
 15 16  1  0
 17 16  1  0
 18 17  1  0
 18 19  1  0
 19 20  1  1
 20 21  1  0
 22 20  2  0
M  END
$$$$
