AKP.pdb
     RDKit          3D

 22 22  0  0  1  0  0  0  0  0999 V2000
   21.5147  -18.9685  -13.3821 C   0  0  0  0  0  0  0  0  0  0  0  0
   20.3665  -19.4750  -14.2604 C   0  0  2  0  0  0  0  0  0  0  0  0
   20.3463  -20.9064  -14.1585 N   0  0  0  0  0  0  0  0  0  0  0  0
   20.6920  -19.0819  -15.6763 C   0  0  0  0  0  0  0  0  0  0  0  0
   21.4542  -19.7785  -16.3854 O   0  0  0  0  0  0  0  0  0  0  0  0
   20.1314  -17.9053  -16.2256 N   0  0  0  0  0  0  0  0  0  0  0  0
   20.3499  -17.4573  -17.5959 C   0  0  1  0  0  0  0  0  0  0  0  0
   19.0124  -16.9388  -18.0438 C   0  0  0  0  0  0  0  0  0  0  0  0
   18.0454  -17.9594  -18.5006 C   0  0  0  0  0  0  0  0  0  0  0  0
   16.7729  -17.2350  -18.9802 C   0  0  0  0  0  0  0  0  0  0  0  0
   15.7498  -18.2565  -19.3803 C   0  0  0  0  0  0  0  0  0  0  0  0
   14.6079  -17.5753  -20.0070 N   0  0  0  0  0  0  0  0  0  0  0  0
   21.4119  -16.4588  -17.7529 C   0  0  0  0  0  0  0  0  0  0  0  0
   21.5678  -15.6715  -16.7273 O   0  0  0  0  0  0  0  0  0  0  0  0
   22.2772  -16.2120  -18.8131 N   0  0  0  0  0  0  0  0  0  0  0  0
   22.4500  -16.8838  -20.0599 C   0  0  0  0  0  0  0  0  0  0  0  0
   23.9950  -16.9572  -20.0829 C   0  0  0  0  0  0  0  0  0  0  0  0
   24.3111  -15.5004  -19.8261 C   0  0  0  0  0  0  0  0  0  0  0  0
   23.2391  -15.0944  -18.8564 C   0  0  1  0  0  0  0  0  0  0  0  0
   22.5911  -13.8612  -19.3465 C   0  0  0  0  0  0  0  0  0  0  0  0
   23.3277  -12.6878  -19.2711 O   0  0  0  0  0  0  0  0  0  0  0  0
   21.4346  -13.8127  -19.8185 O   0  0  0  0  0  0  0  0  0  0  0  0
  2  1  1  1
  2  4  1  0
  3  2  1  0
  4  5  2  0
  6  4  1  0
  6  7  1  0
  7 13  1  0
  7  8  1  1
  9 10  1  0
  9  8  1  0
 10 11  1  0
 11 12  1  0
 13 14  2  0
 13 15  1  0
 15 19  1  0
 15 16  1  0
 17 16  1  0
 18 17  1  0
 18 19  1  0
 19 20  1  6
 20 21  1  0
 22 20  2  0
M  END
$$$$
