AKP.pdb
     RDKit          3D

 22 22  0  0  1  0  0  0  0  0999 V2000
   29.6844  -20.3806  -20.3016 C   0  0  0  0  0  0  0  0  0  0  0  0
   29.2441  -21.2723  -19.1365 C   0  0  2  0  0  0  0  0  0  0  0  0
   28.0749  -21.9882  -19.5608 N   0  0  0  0  0  0  0  0  0  0  0  0
   28.8812  -20.3576  -17.9978 C   0  0  0  0  0  0  0  0  0  0  0  0
   29.3380  -19.1932  -17.9285 O   0  0  0  0  0  0  0  0  0  0  0  0
   28.0085  -20.8120  -16.9819 N   0  0  0  0  0  0  0  0  0  0  0  0
   27.3099  -19.9344  -16.0502 C   0  0  1  0  0  0  0  0  0  0  0  0
   26.5158  -19.0062  -16.9255 C   0  0  0  0  0  0  0  0  0  0  0  0
   25.7669  -17.9418  -16.2242 C   0  0  0  0  0  0  0  0  0  0  0  0
   24.2656  -18.2797  -16.3018 C   0  0  0  0  0  0  0  0  0  0  0  0
   23.4798  -17.1613  -15.6839 C   0  0  0  0  0  0  0  0  0  0  0  0
   22.0499  -17.5002  -15.7186 N   0  0  0  0  0  0  0  0  0  0  0  0
   26.4681  -20.6265  -15.0695 C   0  0  0  0  0  0  0  0  0  0  0  0
   25.6533  -21.5038  -15.5816 O   0  0  0  0  0  0  0  0  0  0  0  0
   26.3940  -20.5008  -13.6866 N   0  0  0  0  0  0  0  0  0  0  0  0
   26.9603  -19.5374  -12.7996 C   0  0  0  0  0  0  0  0  0  0  0  0
   27.4988  -20.4971  -11.7123 C   0  0  0  0  0  0  0  0  0  0  0  0
   26.2405  -21.2934  -11.4465 C   0  0  0  0  0  0  0  0  0  0  0  0
   25.6243  -21.4051  -12.8112 C   0  0  1  0  0  0  0  0  0  0  0  0
   24.2104  -20.9860  -12.7347 C   0  0  0  0  0  0  0  0  0  0  0  0
   23.3229  -21.8649  -12.1305 O   0  0  0  0  0  0  0  0  0  0  0  0
   23.7720  -19.9017  -13.1759 O   0  0  0  0  0  0  0  0  0  0  0  0
  2  1  1  6
  2  4  1  0
  3  2  1  0
  4  5  2  0
  6  4  1  0
  6  7  1  0
  7 13  1  0
  7  8  1  6
  9 10  1  0
  9  8  1  0
 10 11  1  0
 11 12  1  0
 13 14  2  0
 13 15  1  0
 15 19  1  0
 15 16  1  0
 17 16  1  0
 18 17  1  0
 18 19  1  0
 19 20  1  1
 20 21  1  0
 22 20  2  0
M  END
$$$$
