AKP.pdb
     RDKit          3D

 22 22  0  0  1  0  0  0  0  0999 V2000
   22.6448  -16.3431  -19.2636 C   0  0  0  0  0  0  0  0  0  0  0  0
   21.6996  -16.8248  -18.1587 C   0  0  2  0  0  0  0  0  0  0  0  0
   20.9033  -15.7016  -17.7538 N   0  0  0  0  0  0  0  0  0  0  0  0
   22.5616  -17.2645  -17.0060 C   0  0  0  0  0  0  0  0  0  0  0  0
   23.2254  -16.4380  -16.3385 O   0  0  0  0  0  0  0  0  0  0  0  0
   22.6301  -18.6346  -16.6620 N   0  0  0  0  0  0  0  0  0  0  0  0
   23.4539  -19.1673  -15.5832 C   0  0  1  0  0  0  0  0  0  0  0  0
   22.7047  -20.3747  -15.0939 C   0  0  0  0  0  0  0  0  0  0  0  0
   21.4909  -20.1005  -14.2958 C   0  0  0  0  0  0  0  0  0  0  0  0
   20.9185  -21.4472  -13.8136 C   0  0  0  0  0  0  0  0  0  0  0  0
   19.5830  -21.2100  -13.1731 C   0  0  0  0  0  0  0  0  0  0  0  0
   19.1080  -22.4636  -12.5701 N   0  0  0  0  0  0  0  0  0  0  0  0
   24.8325  -19.4882  -15.9653 C   0  0  0  0  0  0  0  0  0  0  0  0
   24.9654  -19.9325  -17.1821 O   0  0  0  0  0  0  0  0  0  0  0  0
   26.0188  -19.3989  -15.2453 N   0  0  0  0  0  0  0  0  0  0  0  0
   26.2732  -18.9929  -13.9013 C   0  0  0  0  0  0  0  0  0  0  0  0
   27.4890  -18.0703  -14.1536 C   0  0  0  0  0  0  0  0  0  0  0  0
   28.3516  -19.0192  -14.9560 C   0  0  0  0  0  0  0  0  0  0  0  0
   27.3436  -19.7677  -15.7795 C   0  0  1  0  0  0  0  0  0  0  0  0
   27.5853  -21.2170  -15.6325 C   0  0  0  0  0  0  0  0  0  0  0  0
   28.7203  -21.7330  -16.2414 O   0  0  0  0  0  0  0  0  0  0  0  0
   26.8385  -21.9954  -15.0009 O   0  0  0  0  0  0  0  0  0  0  0  0
  2  1  1  6
  2  4  1  0
  3  2  1  0
  4  5  2  0
  6  4  1  0
  6  7  1  0
  7 13  1  0
  7  8  1  6
  9 10  1  0
  9  8  1  0
 10 11  1  0
 11 12  1  0
 13 14  2  0
 13 15  1  0
 15 19  1  0
 15 16  1  0
 17 16  1  0
 18 17  1  0
 18 19  1  0
 19 20  1  1
 20 21  1  0
 22 20  2  0
M  END
$$$$
