AKP.pdb
     RDKit          3D

 22 22  0  0  1  0  0  0  0  0999 V2000
   16.0046  -11.9430  -17.1719 C   0  0  0  0  0  0  0  0  0  0  0  0
   17.0884  -13.0253  -17.1889 C   0  0  2  0  0  0  0  0  0  0  0  0
   16.6653  -14.0716  -16.3024 N   0  0  0  0  0  0  0  0  0  0  0  0
   18.3448  -12.3953  -16.6505 C   0  0  0  0  0  0  0  0  0  0  0  0
   18.5401  -12.2852  -15.4181 O   0  0  0  0  0  0  0  0  0  0  0  0
   19.3295  -11.9154  -17.5452 N   0  0  0  0  0  0  0  0  0  0  0  0
   20.6111  -11.3580  -17.1291 C   0  0  1  0  0  0  0  0  0  0  0  0
   21.4843  -11.4626  -18.3478 C   0  0  0  0  0  0  0  0  0  0  0  0
   22.8711  -10.9750  -18.1909 C   0  0  0  0  0  0  0  0  0  0  0  0
   23.5895  -11.1257  -19.5456 C   0  0  0  0  0  0  0  0  0  0  0  0
   25.0394  -10.7829  -19.3713 C   0  0  0  0  0  0  0  0  0  0  0  0
   25.7372  -10.9739  -20.6509 N   0  0  0  0  0  0  0  0  0  0  0  0
   20.5450   -9.9880  -16.6111 C   0  0  0  0  0  0  0  0  0  0  0  0
   19.6516   -9.2360  -17.1875 O   0  0  0  0  0  0  0  0  0  0  0  0
   21.2771   -9.3592  -15.6101 N   0  0  0  0  0  0  0  0  0  0  0  0
   22.3460   -9.8310  -14.7911 C   0  0  0  0  0  0  0  0  0  0  0  0
   21.8549   -9.3006  -13.4235 C   0  0  0  0  0  0  0  0  0  0  0  0
   21.6148   -7.8543  -13.7960 C   0  0  0  0  0  0  0  0  0  0  0  0
   21.0830   -7.9565  -15.1964 C   0  0  1  0  0  0  0  0  0  0  0  0
   21.8467   -7.0406  -16.0675 C   0  0  0  0  0  0  0  0  0  0  0  0
   21.5989   -5.6826  -15.9275 O   0  0  0  0  0  0  0  0  0  0  0  0
   22.6911   -7.4112  -16.9114 O   0  0  0  0  0  0  0  0  0  0  0  0
  2  1  1  1
  2  4  1  0
  3  2  1  0
  4  5  2  0
  6  4  1  0
  6  7  1  0
  7 13  1  0
  7  8  1  6
  9 10  1  0
  9  8  1  0
 10 11  1  0
 11 12  1  0
 13 14  2  0
 13 15  1  0
 15 19  1  0
 15 16  1  0
 17 16  1  0
 18 17  1  0
 18 19  1  0
 19 20  1  6
 20 21  1  0
 22 20  2  0
M  END
$$$$
