AKP.pdb
     RDKit          3D

 22 22  0  0  1  0  0  0  0  0999 V2000
   25.9568  -20.3594   -8.9795 C   0  0  0  0  0  0  0  0  0  0  0  0
   24.5133  -20.3072   -9.4895 C   0  0  2  0  0  0  0  0  0  0  0  0
   23.7113  -21.0879   -8.5913 N   0  0  0  0  0  0  0  0  0  0  0  0
   24.5060  -20.9508  -10.8500 C   0  0  0  0  0  0  0  0  0  0  0  0
   24.7645  -22.1680  -10.9945 O   0  0  0  0  0  0  0  0  0  0  0  0
   24.2028  -20.1750  -11.9930 N   0  0  0  0  0  0  0  0  0  0  0  0
   24.1275  -20.7088  -13.3479 C   0  0  1  0  0  0  0  0  0  0  0  0
   22.9454  -20.0153  -13.9642 C   0  0  0  0  0  0  0  0  0  0  0  0
   21.6477  -20.7104  -13.8294 C   0  0  0  0  0  0  0  0  0  0  0  0
   20.5788  -19.8796  -14.5649 C   0  0  0  0  0  0  0  0  0  0  0  0
   19.2352  -20.5114  -14.3510 C   0  0  0  0  0  0  0  0  0  0  0  0
   18.2033  -19.6744  -14.9797 N   0  0  0  0  0  0  0  0  0  0  0  0
   25.3471  -20.5373  -14.1433 C   0  0  0  0  0  0  0  0  0  0  0  0
   25.9592  -19.4035  -13.9544 O   0  0  0  0  0  0  0  0  0  0  0  0
   25.9564  -21.3813  -15.0653 N   0  0  0  0  0  0  0  0  0  0  0  0
   25.6366  -22.7094  -15.4770 C   0  0  0  0  0  0  0  0  0  0  0  0
   27.0554  -23.3243  -15.4332 C   0  0  0  0  0  0  0  0  0  0  0  0
   27.7886  -22.3033  -16.2746 C   0  0  0  0  0  0  0  0  0  0  0  0
   27.1315  -21.0129  -15.8776 C   0  0  1  0  0  0  0  0  0  0  0  0
   26.7217  -20.2882  -17.0973 C   0  0  0  0  0  0  0  0  0  0  0  0
   25.3724  -20.3073  -17.4200 O   0  0  0  0  0  0  0  0  0  0  0  0
   27.5075  -19.6674  -17.8454 O   0  0  0  0  0  0  0  0  0  0  0  0
  2  1  1  1
  2  4  1  0
  3  2  1  0
  4  5  2  0
  6  4  1  0
  6  7  1  0
  7 13  1  0
  7  8  1  6
  9 10  1  0
  9  8  1  0
 10 11  1  0
 11 12  1  0
 13 14  2  0
 13 15  1  0
 15 19  1  0
 15 16  1  0
 17 16  1  0
 18 17  1  0
 18 19  1  0
 19 20  1  6
 20 21  1  0
 22 20  2  0
M  END
$$$$
