AKP.pdb
     RDKit          3D

 22 22  0  0  1  0  0  0  0  0999 V2000
   28.3838  -16.9193  -16.1667 C   0  0  0  0  0  0  0  0  0  0  0  0
   27.1579  -17.4742  -15.4347 C   0  0  2  0  0  0  0  0  0  0  0  0
   27.1451  -18.8954  -15.6335 N   0  0  0  0  0  0  0  0  0  0  0  0
   25.9456  -16.8695  -16.0903 C   0  0  0  0  0  0  0  0  0  0  0  0
   25.5421  -17.2706  -17.2063 O   0  0  0  0  0  0  0  0  0  0  0  0
   25.2418  -15.8281  -15.4419 N   0  0  0  0  0  0  0  0  0  0  0  0
   24.0400  -15.1971  -15.9748 C   0  0  1  0  0  0  0  0  0  0  0  0
   23.3004  -14.7044  -14.7629 C   0  0  0  0  0  0  0  0  0  0  0  0
   21.9928  -14.0650  -15.0215 C   0  0  0  0  0  0  0  0  0  0  0  0
   20.9550  -15.1766  -15.2686 C   0  0  0  0  0  0  0  0  0  0  0  0
   19.6285  -14.5477  -15.5774 C   0  0  0  0  0  0  0  0  0  0  0  0
   18.6355  -15.6063  -15.8097 N   0  0  0  0  0  0  0  0  0  0  0  0
   24.2883  -14.1266  -16.9454 C   0  0  0  0  0  0  0  0  0  0  0  0
   25.3135  -13.3734  -16.6672 O   0  0  0  0  0  0  0  0  0  0  0  0
   23.6114  -13.7816  -18.1100 N   0  0  0  0  0  0  0  0  0  0  0  0
   22.4573  -14.3485  -18.7283 C   0  0  0  0  0  0  0  0  0  0  0  0
   22.9636  -14.3942  -20.1893 C   0  0  0  0  0  0  0  0  0  0  0  0
   23.4140  -12.9575  -20.3352 C   0  0  0  0  0  0  0  0  0  0  0  0
   23.9801  -12.6482  -18.9794 C   0  0  1  0  0  0  0  0  0  0  0  0
   23.3834  -11.3907  -18.4860 C   0  0  0  0  0  0  0  0  0  0  0  0
   22.5014  -11.4861  -17.4192 O   0  0  0  0  0  0  0  0  0  0  0  0
   23.6226  -10.2615  -18.9658 O   0  0  0  0  0  0  0  0  0  0  0  0
  2  1  1  6
  2  4  1  0
  3  2  1  0
  4  5  2  0
  6  4  1  0
  6  7  1  0
  7 13  1  0
  7  8  1  1
  9 10  1  0
  9  8  1  0
 10 11  1  0
 11 12  1  0
 13 14  2  0
 13 15  1  0
 15 19  1  0
 15 16  1  0
 17 16  1  0
 18 17  1  0
 18 19  1  0
 19 20  1  1
 20 21  1  0
 22 20  2  0
M  END
$$$$
