AKP.pdb
     RDKit          3D

 22 22  0  0  1  0  0  0  0  0999 V2000
   22.6018  -17.9180  -19.6706 C   0  0  0  0  0  0  0  0  0  0  0  0
   22.0500  -17.3361  -18.3655 C   0  0  2  0  0  0  0  0  0  0  0  0
   21.8989  -15.9216  -18.5553 N   0  0  0  0  0  0  0  0  0  0  0  0
   23.0848  -17.5874  -17.3020 C   0  0  0  0  0  0  0  0  0  0  0  0
   24.1774  -16.9746  -17.3005 O   0  0  0  0  0  0  0  0  0  0  0  0
   22.8281  -18.5313  -16.2805 N   0  0  0  0  0  0  0  0  0  0  0  0
   23.7497  -18.8280  -15.1901 C   0  0  1  0  0  0  0  0  0  0  0  0
   22.8880  -19.4360  -14.1194 C   0  0  0  0  0  0  0  0  0  0  0  0
   23.6010  -19.9363  -12.9249 C   0  0  0  0  0  0  0  0  0  0  0  0
   22.5517  -20.4331  -11.9120 C   0  0  0  0  0  0  0  0  0  0  0  0
   23.2418  -20.7946  -10.6301 C   0  0  0  0  0  0  0  0  0  0  0  0
   22.2377  -21.2268   -9.6474 N   0  0  0  0  0  0  0  0  0  0  0  0
   24.8735  -19.6957  -15.5557 C   0  0  0  0  0  0  0  0  0  0  0  0
   24.5683  -20.6538  -16.3831 O   0  0  0  0  0  0  0  0  0  0  0  0
   26.2079  -19.6666  -15.1654 N   0  0  0  0  0  0  0  0  0  0  0  0
   26.8830  -18.8777  -14.1868 C   0  0  0  0  0  0  0  0  0  0  0  0
   28.1236  -18.4723  -15.0172 C   0  0  0  0  0  0  0  0  0  0  0  0
   28.5608  -19.8426  -15.4854 C   0  0  0  0  0  0  0  0  0  0  0  0
   27.2547  -20.5444  -15.7222 C   0  0  1  0  0  0  0  0  0  0  0  0
   27.2761  -21.8457  -15.0245 C   0  0  0  0  0  0  0  0  0  0  0  0
   28.1462  -22.8100  -15.5128 O   0  0  0  0  0  0  0  0  0  0  0  0
   26.5669  -22.1259  -14.0340 O   0  0  0  0  0  0  0  0  0  0  0  0
  2  1  1  6
  2  4  1  0
  3  2  1  0
  4  5  2  0
  6  4  1  0
  6  7  1  0
  7 13  1  0
  7  8  1  1
  9 10  1  0
  9  8  1  0
 10 11  1  0
 11 12  1  0
 13 14  2  0
 13 15  1  0
 15 19  1  0
 15 16  1  0
 17 16  1  0
 18 17  1  0
 18 19  1  0
 19 20  1  1
 20 21  1  0
 22 20  2  0
M  END
$$$$
