VIC.pdb
     RDKit          3D

 22 21  0  0  1  0  0  0  0  0999 V2000
    6.9257  -19.3610   23.2240 C   0  0  0  0  0  0  0  0  0  0  0  0
    5.6608  -18.5577   23.4078 C   0  0  2  0  0  0  0  0  0  0  0  0
    4.5031  -19.2837   22.7587 C   0  0  0  0  0  0  0  0  0  0  0  0
    5.7325  -17.1981   22.8109 C   0  0  2  0  0  0  0  0  0  0  0  0
    5.8213  -17.1878   21.3734 N   0  0  0  0  0  0  0  0  0  0  0  0
    6.7981  -16.3340   23.3790 C   0  0  0  0  0  0  0  0  0  0  0  0
    7.9301  -16.2158   22.8218 O   0  0  0  0  0  0  0  0  0  0  0  0
    5.6548  -12.0519   26.5248 C   0  0  0  0  0  0  0  0  0  0  0  0
    6.5269  -12.8150   25.5522 C   0  0  0  0  0  0  0  0  0  0  0  0
    7.3199  -13.9247   26.2659 C   0  0  2  0  0  0  0  0  0  0  0  0
    8.4475  -13.2753   27.0330 C   0  0  0  0  0  0  0  0  0  0  0  0
    7.6946  -15.0182   25.3664 C   0  0  2  0  0  0  0  0  0  0  0  0
    6.6230  -15.5887   24.5800 N   0  0  0  0  0  0  0  0  0  0  0  0
    8.6798  -16.0115   25.8210 C   0  0  0  0  0  0  0  0  0  0  0  0
    8.4954  -16.9231   26.6545 O   0  0  0  0  0  0  0  0  0  0  0  0
   10.0217  -15.9764   25.2869 N   0  0  0  0  0  0  0  0  0  0  0  0
   11.0047  -16.9770   25.5588 C   0  0  1  0  0  0  0  0  0  0  0  0
   11.7669  -17.4972   24.3894 C   0  0  0  0  0  0  0  0  0  0  0  0
   12.9521  -18.7772   24.7548 S   0  0  0  0  0  0  0  0  0  0  0  0
   11.8679  -16.6648   26.7292 C   0  0  0  0  0  0  0  0  0  0  0  0
   12.1648  -17.4276   27.6570 O   0  0  0  0  0  0  0  0  0  0  0  0
   12.3968  -15.3804   26.7851 O   0  0  0  0  0  0  0  0  0  0  0  0
  2  1  1  6
  2  3  1  0
  4  2  1  0
  4  6  1  0
  4  5  1  6
  6 13  1  0
  6  7  2  0
  8  9  1  0
  9 10  1  0
 10 12  1  0
 10 11  1  6
 12 14  1  0
 12 13  1  1
 14 15  2  0
 16 14  1  0
 16 17  1  0
 17 20  1  0
 17 18  1  6
 19 18  1  0
 20 22  1  0
 21 20  2  0
M  END
$$$$
