VIC.pdb
     RDKit          3D

 22 21  0  0  1  0  0  0  0  0999 V2000
    8.2813  -17.5079   21.2227 C   0  0  0  0  0  0  0  0  0  0  0  0
    7.2009  -16.4615   21.0941 C   0  0  2  0  0  0  0  0  0  0  0  0
    6.6178  -16.5069   19.6989 C   0  0  0  0  0  0  0  0  0  0  0  0
    7.6871  -15.0775   21.3351 C   0  0  2  0  0  0  0  0  0  0  0  0
    8.6138  -14.5958   20.3433 N   0  0  0  0  0  0  0  0  0  0  0  0
    8.2510  -14.8525   22.6901 C   0  0  0  0  0  0  0  0  0  0  0  0
    9.5009  -14.8234   22.8972 O   0  0  0  0  0  0  0  0  0  0  0  0
    5.9696  -11.4170   26.1798 C   0  0  0  0  0  0  0  0  0  0  0  0
    6.9211  -12.2652   25.3649 C   0  0  0  0  0  0  0  0  0  0  0  0
    7.2094  -13.6069   26.0622 C   0  0  2  0  0  0  0  0  0  0  0  0
    7.8506  -13.3125   27.3978 C   0  0  0  0  0  0  0  0  0  0  0  0
    7.9203  -14.5511   25.1971 C   0  0  2  0  0  0  0  0  0  0  0  0
    7.4325  -14.6594   23.8397 N   0  0  0  0  0  0  0  0  0  0  0  0
    8.3754  -15.8320   25.7594 C   0  0  0  0  0  0  0  0  0  0  0  0
    7.6577  -16.7784   26.1455 O   0  0  0  0  0  0  0  0  0  0  0  0
    9.7909  -16.0779   25.9111 N   0  0  0  0  0  0  0  0  0  0  0  0
   10.3267  -17.2755   26.4768 C   0  0  1  0  0  0  0  0  0  0  0  0
   11.5563  -17.8220   25.8376 C   0  0  0  0  0  0  0  0  0  0  0  0
   11.8424  -17.3020   24.1571 S   0  0  0  0  0  0  0  0  0  0  0  0
   10.3976  -17.2555   27.9624 C   0  0  0  0  0  0  0  0  0  0  0  0
   10.1456  -16.2983   28.7048 O   0  0  0  0  0  0  0  0  0  0  0  0
   10.7875  -18.4378   28.5810 O   0  0  0  0  0  0  0  0  0  0  0  0
  2  1  1  6
  2  3  1  0
  4  2  1  0
  4  6  1  0
  4  5  1  6
  6 13  1  0
  6  7  2  0
  8  9  1  0
  9 10  1  0
 10 12  1  0
 10 11  1  1
 12 14  1  0
 12 13  1  6
 14 15  2  0
 16 14  1  0
 16 17  1  0
 17 20  1  0
 17 18  1  6
 19 18  1  0
 20 22  1  0
 21 20  2  0
M  END
$$$$
