VIC.pdb
     RDKit          3D

 22 21  0  0  1  0  0  0  0  0999 V2000
    8.0749  -17.7490   21.4431 C   0  0  0  0  0  0  0  0  0  0  0  0
    6.8896  -16.8144   21.4660 C   0  0  2  0  0  0  0  0  0  0  0  0
    6.0902  -16.9819   20.1926 C   0  0  0  0  0  0  0  0  0  0  0  0
    7.2693  -15.3812   21.5750 C   0  0  2  0  0  0  0  0  0  0  0  0
    8.0056  -14.8774   20.4444 N   0  0  0  0  0  0  0  0  0  0  0  0
    7.9843  -15.0296   22.8280 C   0  0  0  0  0  0  0  0  0  0  0  0
    9.2436  -14.8926   22.8627 O   0  0  0  0  0  0  0  0  0  0  0  0
    6.0127  -11.5249   26.3211 C   0  0  0  0  0  0  0  0  0  0  0  0
    6.9999  -12.3432   25.5181 C   0  0  0  0  0  0  0  0  0  0  0  0
    7.3531  -13.6565   26.2393 C   0  0  2  0  0  0  0  0  0  0  0  0
    8.1376  -13.3116   27.4831 C   0  0  0  0  0  0  0  0  0  0  0  0
    7.9593  -14.6458   25.3454 C   0  0  2  0  0  0  0  0  0  0  0  0
    7.3095  -14.8276   24.0660 N   0  0  0  0  0  0  0  0  0  0  0  0
    8.4891  -15.8940   25.9155 C   0  0  0  0  0  0  0  0  0  0  0  0
    7.8276  -16.8441   26.3840 O   0  0  0  0  0  0  0  0  0  0  0  0
    9.9181  -16.0984   25.9720 N   0  0  0  0  0  0  0  0  0  0  0  0
   10.5245  -17.2939   26.4664 C   0  0  1  0  0  0  0  0  0  0  0  0
   11.7507  -17.7600   25.7606 C   0  0  0  0  0  0  0  0  0  0  0  0
   11.7679  -17.4954   23.9981 S   0  0  0  0  0  0  0  0  0  0  0  0
   10.6507  -17.3318   27.9480 C   0  0  0  0  0  0  0  0  0  0  0  0
   11.0291  -18.2876   28.6365 O   0  0  0  0  0  0  0  0  0  0  0  0
   10.3078  -16.1698   28.6298 O   0  0  0  0  0  0  0  0  0  0  0  0
  2  1  1  6
  2  3  1  0
  4  2  1  0
  4  6  1  0
  4  5  1  6
  6 13  1  0
  6  7  2  0
  8  9  1  0
  9 10  1  0
 10 12  1  0
 10 11  1  1
 12 14  1  0
 12 13  1  6
 14 15  2  0
 16 14  1  0
 16 17  1  0
 17 20  1  0
 17 18  1  6
 19 18  1  0
 20 22  1  0
 21 20  2  0
M  END
$$$$
