VIC.pdb
     RDKit          3D

 22 21  0  0  1  0  0  0  0  0999 V2000
    1.6300  -26.9622   31.3429 C   0  0  0  0  0  0  0  0  0  0  0  0
    0.3565  -27.3033   30.6075 C   0  0  2  0  0  0  0  0  0  0  0  0
    0.5098  -26.9530   29.1438 C   0  0  0  0  0  0  0  0  0  0  0  0
   -0.8352  -26.5790   31.1224 C   0  0  2  0  0  0  0  0  0  0  0  0
   -0.7734  -25.1493   30.9601 N   0  0  0  0  0  0  0  0  0  0  0  0
   -1.1904  -26.9029   32.5273 C   0  0  0  0  0  0  0  0  0  0  0  0
   -1.3095  -28.0994   32.9274 O   0  0  0  0  0  0  0  0  0  0  0  0
    1.5901  -26.0771   36.7031 C   0  0  0  0  0  0  0  0  0  0  0  0
    0.5595  -26.5244   35.6898 C   0  0  0  0  0  0  0  0  0  0  0  0
   -0.7775  -25.7888   35.8918 C   0  0  2  0  0  0  0  0  0  0  0  0
   -1.1878  -25.9510   37.3364 C   0  0  0  0  0  0  0  0  0  0  0  0
   -1.7803  -26.1553   34.8891 C   0  0  2  0  0  0  0  0  0  0  0  0
   -1.4229  -25.8995   33.5110 N   0  0  0  0  0  0  0  0  0  0  0  0
   -3.2021  -25.9146   35.1795 C   0  0  0  0  0  0  0  0  0  0  0  0
   -3.7732  -24.8070   35.2623 O   0  0  0  0  0  0  0  0  0  0  0  0
   -4.0803  -27.0388   35.4077 N   0  0  0  0  0  0  0  0  0  0  0  0
   -5.4937  -26.9135   35.5759 C   0  0  1  0  0  0  0  0  0  0  0  0
   -6.3472  -27.7450   34.6818 C   0  0  0  0  0  0  0  0  0  0  0  0
   -5.9830  -27.6208   32.9415 S   0  0  0  0  0  0  0  0  0  0  0  0
   -5.9316  -26.9417   36.9971 C   0  0  0  0  0  0  0  0  0  0  0  0
   -5.2537  -27.2774   37.9761 O   0  0  0  0  0  0  0  0  0  0  0  0
   -7.2406  -26.5484   37.2509 O   0  0  0  0  0  0  0  0  0  0  0  0
  2  1  1  1
  2  3  1  0
  4  2  1  0
  4  6  1  0
  4  5  1  1
  6 13  1  0
  6  7  2  0
  8  9  1  0
  9 10  1  0
 10 12  1  0
 10 11  1  1
 12 14  1  0
 12 13  1  6
 14 15  2  0
 16 14  1  0
 16 17  1  0
 17 20  1  0
 17 18  1  6
 19 18  1  0
 20 22  1  0
 21 20  2  0
M  END
$$$$
