VIC.pdb
     RDKit          3D

 22 21  0  0  1  0  0  0  0  0999 V2000
    8.2012  -17.5533   21.1799 C   0  0  0  0  0  0  0  0  0  0  0  0
    7.1129  -16.5073   21.1567 C   0  0  2  0  0  0  0  0  0  0  0  0
    6.4006  -16.5496   19.8228 C   0  0  0  0  0  0  0  0  0  0  0  0
    7.6192  -15.1236   21.3542 C   0  0  2  0  0  0  0  0  0  0  0  0
    8.5004  -14.6626   20.3124 N   0  0  0  0  0  0  0  0  0  0  0  0
    8.2487  -14.8835   22.6774 C   0  0  0  0  0  0  0  0  0  0  0  0
    9.5072  -14.8646   22.8249 O   0  0  0  0  0  0  0  0  0  0  0  0
    6.0334  -11.5327   26.3416 C   0  0  0  0  0  0  0  0  0  0  0  0
    7.0229  -12.3061   25.4979 C   0  0  0  0  0  0  0  0  0  0  0  0
    7.3334  -13.6793   26.1202 C   0  0  2  0  0  0  0  0  0  0  0  0
    7.9949  -13.4485   27.4584 C   0  0  0  0  0  0  0  0  0  0  0  0
    8.0367  -14.5716   25.1959 C   0  0  2  0  0  0  0  0  0  0  0  0
    7.4874  -14.6637   23.8610 N   0  0  0  0  0  0  0  0  0  0  0  0
    8.5676  -15.8477   25.6997 C   0  0  0  0  0  0  0  0  0  0  0  0
    7.9138  -16.8763   25.9720 O   0  0  0  0  0  0  0  0  0  0  0  0
    9.9874  -15.9850   25.9288 N   0  0  0  0  0  0  0  0  0  0  0  0
   10.5935  -17.1788   26.4277 C   0  0  1  0  0  0  0  0  0  0  0  0
   11.9163  -17.5461   25.8494 C   0  0  0  0  0  0  0  0  0  0  0  0
   11.8792  -18.8084   24.5917 S   0  0  0  0  0  0  0  0  0  0  0  0
   10.5479  -17.2983   27.9096 C   0  0  0  0  0  0  0  0  0  0  0  0
   10.8290  -18.2977   28.5827 O   0  0  0  0  0  0  0  0  0  0  0  0
   10.1479  -16.1669   28.6114 O   0  0  0  0  0  0  0  0  0  0  0  0
  2  1  1  6
  2  3  1  0
  4  2  1  0
  4  6  1  0
  4  5  1  6
  6 13  1  0
  6  7  2  0
  8  9  1  0
  9 10  1  0
 10 12  1  0
 10 11  1  1
 12 14  1  0
 12 13  1  6
 14 15  2  0
 16 14  1  0
 16 17  1  0
 17 20  1  0
 17 18  1  1
 19 18  1  0
 20 22  1  0
 21 20  2  0
M  END
$$$$
