VIC.pdb
     RDKit          3D

 22 21  0  0  1  0  0  0  0  0999 V2000
    7.7496  -17.2706   21.0954 C   0  0  0  0  0  0  0  0  0  0  0  0
    6.8490  -16.0618   21.0142 C   0  0  2  0  0  0  0  0  0  0  0  0
    6.2229  -15.9904   19.6389 C   0  0  0  0  0  0  0  0  0  0  0  0
    7.5600  -14.7783   21.2535 C   0  0  2  0  0  0  0  0  0  0  0  0
    8.5641  -14.4667   20.2691 N   0  0  0  0  0  0  0  0  0  0  0  0
    8.1409  -14.6429   22.6133 C   0  0  0  0  0  0  0  0  0  0  0  0
    9.3623  -14.8880   22.8454 O   0  0  0  0  0  0  0  0  0  0  0  0
    5.9666  -11.2088   26.3495 C   0  0  0  0  0  0  0  0  0  0  0  0
    6.9217  -12.0096   25.4918 C   0  0  0  0  0  0  0  0  0  0  0  0
    7.1287  -13.4252   26.0598 C   0  0  2  0  0  0  0  0  0  0  0  0
    7.7600  -13.2943   27.4258 C   0  0  0  0  0  0  0  0  0  0  0  0
    7.8060  -14.3181   25.1167 C   0  0  2  0  0  0  0  0  0  0  0  0
    7.3706  -14.2353   23.7398 N   0  0  0  0  0  0  0  0  0  0  0  0
    8.1424  -15.6852   25.5430 C   0  0  0  0  0  0  0  0  0  0  0  0
    7.4991  -16.7269   25.2966 O   0  0  0  0  0  0  0  0  0  0  0  0
    9.3277  -15.9095   26.3380 N   0  0  0  0  0  0  0  0  0  0  0  0
    9.9617  -17.1836   26.4657 C   0  0  1  0  0  0  0  0  0  0  0  0
   10.6688  -17.6996   25.2603 C   0  0  0  0  0  0  0  0  0  0  0  0
    9.6193  -18.3594   23.9797 S   0  0  0  0  0  0  0  0  0  0  0  0
   10.7495  -17.3367   27.7180 C   0  0  0  0  0  0  0  0  0  0  0  0
   10.9385  -16.4755   28.5860 O   0  0  0  0  0  0  0  0  0  0  0  0
   11.3339  -18.5792   27.9353 O   0  0  0  0  0  0  0  0  0  0  0  0
  2  1  1  6
  2  3  1  0
  4  2  1  0
  4  6  1  0
  4  5  1  6
  6 13  1  0
  6  7  2  0
  8  9  1  0
  9 10  1  0
 10 12  1  0
 10 11  1  1
 12 14  1  0
 12 13  1  6
 14 15  2  0
 16 14  1  0
 16 17  1  0
 17 20  1  0
 17 18  1  6
 19 18  1  0
 20 22  1  0
 21 20  2  0
M  END
$$$$
