VIC.pdb
     RDKit          3D

 22 21  0  0  1  0  0  0  0  0999 V2000
    7.3379  -19.8704   24.0132 C   0  0  0  0  0  0  0  0  0  0  0  0
    6.0366  -19.2177   24.4125 C   0  0  2  0  0  0  0  0  0  0  0  0
    4.8948  -20.1809   24.1737 C   0  0  0  0  0  0  0  0  0  0  0  0
    5.7430  -17.9731   23.6544 C   0  0  2  0  0  0  0  0  0  0  0  0
    5.5537  -18.1731   22.2407 N   0  0  0  0  0  0  0  0  0  0  0  0
    6.7202  -16.8766   23.8728 C   0  0  0  0  0  0  0  0  0  0  0  0
    7.6722  -16.6595   23.0650 O   0  0  0  0  0  0  0  0  0  0  0  0
    5.4346  -12.2338   26.3839 C   0  0  0  0  0  0  0  0  0  0  0  0
    6.1510  -13.1669   25.4327 C   0  0  0  0  0  0  0  0  0  0  0  0
    7.2980  -13.9116   26.1395 C   0  0  2  0  0  0  0  0  0  0  0  0
    8.3839  -12.9096   26.4531 C   0  0  0  0  0  0  0  0  0  0  0  0
    7.7171  -15.1161   25.4193 C   0  0  2  0  0  0  0  0  0  0  0  0
    6.6566  -16.0045   24.9971 N   0  0  0  0  0  0  0  0  0  0  0  0
    8.9333  -15.8209   25.8529 C   0  0  0  0  0  0  0  0  0  0  0  0
    9.2204  -16.1744   27.0158 O   0  0  0  0  0  0  0  0  0  0  0  0
    9.9420  -16.1627   24.8767 N   0  0  0  0  0  0  0  0  0  0  0  0
   11.1788  -16.7958   25.2099 C   0  0  1  0  0  0  0  0  0  0  0  0
   11.1948  -18.2851   25.1771 C   0  0  0  0  0  0  0  0  0  0  0  0
   10.2712  -19.0902   26.4715 S   0  0  0  0  0  0  0  0  0  0  0  0
   12.3617  -16.1821   24.5492 C   0  0  0  0  0  0  0  0  0  0  0  0
   12.3590  -15.2353   23.7528 O   0  0  0  0  0  0  0  0  0  0  0  0
   13.6005  -16.7306   24.8610 O   0  0  0  0  0  0  0  0  0  0  0  0
  2  1  1  6
  2  3  1  0
  4  2  1  0
  4  6  1  0
  4  5  1  6
  6 13  1  0
  6  7  2  0
  8  9  1  0
  9 10  1  0
 10 12  1  0
 10 11  1  6
 12 14  1  0
 12 13  1  1
 14 15  2  0
 16 14  1  0
 16 17  1  0
 17 20  1  0
 17 18  1  6
 19 18  1  0
 20 22  1  0
 21 20  2  0
M  END
$$$$
