VIC.pdb
     RDKit          3D

 22 21  0  0  1  0  0  0  0  0999 V2000
    6.8979  -16.9678   19.8087 C   0  0  0  0  0  0  0  0  0  0  0  0
    7.6047  -16.7131   21.1181 C   0  0  2  0  0  0  0  0  0  0  0  0
    6.9653  -17.5461   22.2071 C   0  0  0  0  0  0  0  0  0  0  0  0
    7.5548  -15.2913   21.5495 C   0  0  2  0  0  0  0  0  0  0  0  0
    8.0349  -14.3576   20.5637 N   0  0  0  0  0  0  0  0  0  0  0  0
    8.2170  -15.0215   22.8509 C   0  0  0  0  0  0  0  0  0  0  0  0
    9.4744  -14.8974   22.9475 O   0  0  0  0  0  0  0  0  0  0  0  0
    6.1070  -11.5904   26.3324 C   0  0  0  0  0  0  0  0  0  0  0  0
    7.1088  -12.4077   25.5468 C   0  0  0  0  0  0  0  0  0  0  0  0
    7.4188  -13.7398   26.2532 C   0  0  2  0  0  0  0  0  0  0  0  0
    8.1194  -13.4279   27.5546 C   0  0  0  0  0  0  0  0  0  0  0  0
    8.0855  -14.7030   25.3740 C   0  0  2  0  0  0  0  0  0  0  0  0
    7.4905  -14.8886   24.0687 N   0  0  0  0  0  0  0  0  0  0  0  0
    8.6266  -15.9426   25.9522 C   0  0  0  0  0  0  0  0  0  0  0  0
    7.9736  -16.9002   26.4175 O   0  0  0  0  0  0  0  0  0  0  0  0
   10.0577  -16.1279   26.0220 N   0  0  0  0  0  0  0  0  0  0  0  0
   10.6757  -17.2968   26.5635 C   0  0  1  0  0  0  0  0  0  0  0  0
   11.9322  -17.7517   25.9052 C   0  0  0  0  0  0  0  0  0  0  0  0
   11.9208  -17.7144   24.1233 S   0  0  0  0  0  0  0  0  0  0  0  0
   10.7591  -17.2957   28.0486 C   0  0  0  0  0  0  0  0  0  0  0  0
   10.4588  -16.3664   28.8082 O   0  0  0  0  0  0  0  0  0  0  0  0
   11.2229  -18.4627   28.6449 O   0  0  0  0  0  0  0  0  0  0  0  0
  2  1  1  6
  2  3  1  0
  4  2  1  0
  4  6  1  0
  4  5  1  6
  6 13  1  0
  6  7  2  0
  8  9  1  0
  9 10  1  0
 10 12  1  0
 10 11  1  1
 12 14  1  0
 12 13  1  6
 14 15  2  0
 16 14  1  0
 16 17  1  0
 17 20  1  0
 17 18  1  6
 19 18  1  0
 20 22  1  0
 21 20  2  0
M  END
$$$$
