VIC.pdb
     RDKit          3D

 22 21  0  0  1  0  0  0  0  0999 V2000
    9.5587  -19.5301   21.3173 C   0  0  0  0  0  0  0  0  0  0  0  0
    9.8096  -18.4038   22.2906 C   0  0  2  0  0  0  0  0  0  0  0  0
    9.6473  -18.9140   23.7055 C   0  0  0  0  0  0  0  0  0  0  0  0
    8.8827  -17.2547   22.1162 C   0  0  2  0  0  0  0  0  0  0  0  0
    8.7725  -16.7853   20.7591 N   0  0  0  0  0  0  0  0  0  0  0  0
    9.1535  -16.1058   23.0170 C   0  0  0  0  0  0  0  0  0  0  0  0
   10.2684  -15.5034   23.0147 O   0  0  0  0  0  0  0  0  0  0  0  0
    6.2566  -12.0052   26.7807 C   0  0  0  0  0  0  0  0  0  0  0  0
    7.4873  -12.5468   26.0872 C   0  0  0  0  0  0  0  0  0  0  0  0
    7.2117  -13.9235   25.4561 C   0  0  2  0  0  0  0  0  0  0  0  0
    6.4675  -14.7623   26.4681 C   0  0  0  0  0  0  0  0  0  0  0  0
    8.4118  -14.5271   24.8725 C   0  0  2  0  0  0  0  0  0  0  0  0
    8.1883  -15.6095   23.9393 N   0  0  0  0  0  0  0  0  0  0  0  0
    9.5986  -14.7205   25.7198 C   0  0  0  0  0  0  0  0  0  0  0  0
   10.7209  -14.1936   25.5695 O   0  0  0  0  0  0  0  0  0  0  0  0
    9.5213  -15.6064   26.8584 N   0  0  0  0  0  0  0  0  0  0  0  0
   10.6107  -15.8358   27.7540 C   0  0  1  0  0  0  0  0  0  0  0  0
   10.7470  -14.8866   28.8940 C   0  0  0  0  0  0  0  0  0  0  0  0
   10.2273  -13.2138   28.5649 S   0  0  0  0  0  0  0  0  0  0  0  0
   10.7655  -17.2598   28.1550 C   0  0  0  0  0  0  0  0  0  0  0  0
   11.6111  -17.7252   28.9291 O   0  0  0  0  0  0  0  0  0  0  0  0
    9.8639  -18.1617   27.6017 O   0  0  0  0  0  0  0  0  0  0  0  0
  2  1  1  6
  2  3  1  0
  4  2  1  0
  4  6  1  0
  4  5  1  6
  6 13  1  0
  6  7  2  0
  8  9  1  0
  9 10  1  0
 10 12  1  0
 10 11  1  1
 12 14  1  0
 12 13  1  1
 14 15  2  0
 16 14  1  0
 16 17  1  0
 17 20  1  0
 17 18  1  1
 19 18  1  0
 20 22  1  0
 21 20  2  0
M  END
$$$$
