VIC.pdb
     RDKit          3D

 22 21  0  0  1  0  0  0  0  0999 V2000
    8.7084  -20.7726   17.7644 C   0  0  0  0  0  0  0  0  0  0  0  0
    9.1086  -19.7751   18.8244 C   0  0  2  0  0  0  0  0  0  0  0  0
    8.2210  -19.9446   20.0377 C   0  0  0  0  0  0  0  0  0  0  0  0
    8.9969  -18.3615   18.3777 C   0  0  2  0  0  0  0  0  0  0  0  0
    9.7097  -18.0685   17.1610 N   0  0  0  0  0  0  0  0  0  0  0  0
    9.3545  -17.3604   19.4143 C   0  0  0  0  0  0  0  0  0  0  0  0
   10.5521  -17.1871   19.7907 O   0  0  0  0  0  0  0  0  0  0  0  0
    6.8357  -12.5003   19.7948 C   0  0  0  0  0  0  0  0  0  0  0  0
    7.8409  -13.6310   19.7947 C   0  0  0  0  0  0  0  0  0  0  0  0
    7.8301  -14.3875   21.1352 C   0  0  2  0  0  0  0  0  0  0  0  0
    8.1223  -13.3949   22.2356 C   0  0  0  0  0  0  0  0  0  0  0  0
    8.6646  -15.5909   21.1108 C   0  0  2  0  0  0  0  0  0  0  0  0
    8.3838  -16.5367   20.0530 N   0  0  0  0  0  0  0  0  0  0  0  0
    9.0356  -16.2290   22.3832 C   0  0  0  0  0  0  0  0  0  0  0  0
    8.2590  -16.7086   23.2357 O   0  0  0  0  0  0  0  0  0  0  0  0
   10.4306  -16.3371   22.7431 N   0  0  0  0  0  0  0  0  0  0  0  0
   10.8874  -16.9379   23.9562 C   0  0  1  0  0  0  0  0  0  0  0  0
   11.2479  -18.3818   23.8899 C   0  0  0  0  0  0  0  0  0  0  0  0
    9.9162  -19.4854   23.4596 S   0  0  0  0  0  0  0  0  0  0  0  0
   11.8871  -16.1171   24.6906 C   0  0  0  0  0  0  0  0  0  0  0  0
   12.3945  -16.3733   25.7896 O   0  0  0  0  0  0  0  0  0  0  0  0
   12.2942  -14.9386   24.0759 O   0  0  0  0  0  0  0  0  0  0  0  0
  2  1  1  6
  2  3  1  0
  4  2  1  0
  4  6  1  0
  4  5  1  6
  6 13  1  0
  6  7  2  0
  8  9  1  0
  9 10  1  0
 10 12  1  0
 10 11  1  1
 12 14  1  0
 12 13  1  6
 14 15  2  0
 16 14  1  0
 16 17  1  0
 17 20  1  0
 17 18  1  6
 19 18  1  0
 20 22  1  0
 21 20  2  0
M  END
$$$$
