VIC.pdb
     RDKit          3D

 22 21  0  0  1  0  0  0  0  0999 V2000
    6.8922  -18.8781   22.7539 C   0  0  0  0  0  0  0  0  0  0  0  0
    5.8418  -17.8119   22.5570 C   0  0  2  0  0  0  0  0  0  0  0  0
    4.9106  -18.2215   21.4373 C   0  0  0  0  0  0  0  0  0  0  0  0
    6.4079  -16.4820   22.2093 C   0  0  2  0  0  0  0  0  0  0  0  0
    7.0077  -16.4189   20.9014 N   0  0  0  0  0  0  0  0  0  0  0  0
    7.3542  -15.9360   23.2149 C   0  0  0  0  0  0  0  0  0  0  0  0
    8.6090  -15.9759   23.0421 O   0  0  0  0  0  0  0  0  0  0  0  0
    5.9805  -11.7162   26.2858 C   0  0  0  0  0  0  0  0  0  0  0  0
    6.8422  -12.6589   25.4747 C   0  0  0  0  0  0  0  0  0  0  0  0
    7.3547  -13.8272   26.3361 C   0  0  2  0  0  0  0  0  0  0  0  0
    8.3674  -13.2793   27.3137 C   0  0  0  0  0  0  0  0  0  0  0  0
    7.7850  -14.9740   25.5330 C   0  0  2  0  0  0  0  0  0  0  0  0
    6.9198  -15.3388   24.4328 N   0  0  0  0  0  0  0  0  0  0  0  0
    8.3931  -16.1309   26.2080 C   0  0  0  0  0  0  0  0  0  0  0  0
    7.8067  -16.9861   26.9040 O   0  0  0  0  0  0  0  0  0  0  0  0
    9.8164  -16.3512   26.0953 N   0  0  0  0  0  0  0  0  0  0  0  0
   10.4872  -17.4772   26.6642 C   0  0  1  0  0  0  0  0  0  0  0  0
   11.5540  -18.1055   25.8357 C   0  0  0  0  0  0  0  0  0  0  0  0
   11.0042  -18.8442   24.3097 S   0  0  0  0  0  0  0  0  0  0  0  0
   10.8863  -17.2812   28.0836 C   0  0  0  0  0  0  0  0  0  0  0  0
   11.4104  -18.1177   28.8296 O   0  0  0  0  0  0  0  0  0  0  0  0
   10.6452  -16.0251   28.6281 O   0  0  0  0  0  0  0  0  0  0  0  0
  2  1  1  6
  2  3  1  0
  4  2  1  0
  4  6  1  0
  4  5  1  6
  6 13  1  0
  6  7  2  0
  8  9  1  0
  9 10  1  0
 10 12  1  0
 10 11  1  6
 12 14  1  0
 12 13  1  1
 14 15  2  0
 16 14  1  0
 16 17  1  0
 17 20  1  0
 17 18  1  6
 19 18  1  0
 20 22  1  0
 21 20  2  0
M  END
$$$$
