VIC.pdb
     RDKit          3D

 22 21  0  0  1  0  0  0  0  0999 V2000
    6.9051  -16.9593   19.4992 C   0  0  0  0  0  0  0  0  0  0  0  0
    7.5362  -16.7855   20.8594 C   0  0  2  0  0  0  0  0  0  0  0  0
    6.7116  -17.5171   21.8955 C   0  0  0  0  0  0  0  0  0  0  0  0
    7.6393  -15.3650   21.2858 C   0  0  2  0  0  0  0  0  0  0  0  0
    8.2939  -14.5078   20.3313 N   0  0  0  0  0  0  0  0  0  0  0  0
    8.2478  -15.1693   22.6260 C   0  0  0  0  0  0  0  0  0  0  0  0
    9.4968  -15.2721   22.8141 O   0  0  0  0  0  0  0  0  0  0  0  0
    6.1603  -11.5586   26.1333 C   0  0  0  0  0  0  0  0  0  0  0  0
    7.0872  -12.4301   25.3147 C   0  0  0  0  0  0  0  0  0  0  0  0
    7.3287  -13.7866   26.0010 C   0  0  2  0  0  0  0  0  0  0  0  0
    7.9873  -13.5259   27.3351 C   0  0  0  0  0  0  0  0  0  0  0  0
    7.9994  -14.7505   25.1256 C   0  0  2  0  0  0  0  0  0  0  0  0
    7.4754  -14.8590   23.7817 N   0  0  0  0  0  0  0  0  0  0  0  0
    8.4441  -16.0358   25.6860 C   0  0  0  0  0  0  0  0  0  0  0  0
    7.7248  -17.0119   25.9856 O   0  0  0  0  0  0  0  0  0  0  0  0
    9.8492  -16.2495   25.9446 N   0  0  0  0  0  0  0  0  0  0  0  0
   10.3794  -17.4739   26.4558 C   0  0  1  0  0  0  0  0  0  0  0  0
   11.1325  -18.3266   25.4940 C   0  0  0  0  0  0  0  0  0  0  0  0
   11.7731  -19.8507   26.1597 S   0  0  0  0  0  0  0  0  0  0  0  0
   11.0623  -17.3278   27.7691 C   0  0  0  0  0  0  0  0  0  0  0  0
   11.3123  -16.2712   28.3622 O   0  0  0  0  0  0  0  0  0  0  0  0
   11.4603  -18.5033   28.3955 O   0  0  0  0  0  0  0  0  0  0  0  0
  2  1  1  6
  2  3  1  0
  4  2  1  0
  4  6  1  0
  4  5  1  6
  6 13  1  0
  6  7  2  0
  8  9  1  0
  9 10  1  0
 10 12  1  0
 10 11  1  1
 12 14  1  0
 12 13  1  6
 14 15  2  0
 16 14  1  0
 16 17  1  0
 17 20  1  0
 17 18  1  6
 19 18  1  0
 20 22  1  0
 21 20  2  0
M  END
$$$$
