VIC.pdb
     RDKit          3D

 22 21  0  0  1  0  0  0  0  0999 V2000
    7.6426  -17.7492   21.3145 C   0  0  0  0  0  0  0  0  0  0  0  0
    6.5840  -16.6737   21.2744 C   0  0  2  0  0  0  0  0  0  0  0  0
    5.8067  -16.7786   19.9808 C   0  0  0  0  0  0  0  0  0  0  0  0
    7.1375  -15.2965   21.3577 C   0  0  2  0  0  0  0  0  0  0  0  0
    7.9492  -14.9169   20.2302 N   0  0  0  0  0  0  0  0  0  0  0  0
    7.8703  -15.0048   22.6159 C   0  0  0  0  0  0  0  0  0  0  0  0
    9.1315  -15.1012   22.6921 O   0  0  0  0  0  0  0  0  0  0  0  0
    6.0420  -11.3770   26.2097 C   0  0  0  0  0  0  0  0  0  0  0  0
    7.0162  -12.2038   25.3997 C   0  0  0  0  0  0  0  0  0  0  0  0
    7.2662  -13.5735   26.0561 C   0  0  2  0  0  0  0  0  0  0  0  0
    8.0453  -13.3472   27.3302 C   0  0  0  0  0  0  0  0  0  0  0  0
    7.8244  -14.5536   25.1217 C   0  0  2  0  0  0  0  0  0  0  0  0
    7.2107  -14.6039   23.8129 N   0  0  0  0  0  0  0  0  0  0  0  0
    8.2306  -15.8733   25.6288 C   0  0  0  0  0  0  0  0  0  0  0  0
    7.4838  -16.8426   25.8790 O   0  0  0  0  0  0  0  0  0  0  0  0
    9.6274  -16.1346   25.8896 N   0  0  0  0  0  0  0  0  0  0  0  0
   10.1286  -17.4099   26.2940 C   0  0  1  0  0  0  0  0  0  0  0  0
   11.0974  -18.0675   25.3730 C   0  0  0  0  0  0  0  0  0  0  0  0
   12.5152  -17.0856   24.9234 S   0  0  0  0  0  0  0  0  0  0  0  0
   10.5471  -17.4631   27.7204 C   0  0  0  0  0  0  0  0  0  0  0  0
   10.6448  -16.5084   28.5013 O   0  0  0  0  0  0  0  0  0  0  0  0
   10.8606  -18.7184   28.2286 O   0  0  0  0  0  0  0  0  0  0  0  0
  2  1  1  6
  2  3  1  0
  4  2  1  0
  4  6  1  0
  4  5  1  6
  6 13  1  0
  6  7  2  0
  8  9  1  0
  9 10  1  0
 10 12  1  0
 10 11  1  1
 12 14  1  0
 12 13  1  6
 14 15  2  0
 16 14  1  0
 16 17  1  0
 17 20  1  0
 17 18  1  6
 19 18  1  0
 20 22  1  0
 21 20  2  0
M  END
$$$$
