VIC.pdb
     RDKit          3D

 22 21  0  0  1  0  0  0  0  0999 V2000
    5.5959  -17.2539   22.2139 C   0  0  0  0  0  0  0  0  0  0  0  0
    6.2879  -16.5384   21.0789 C   0  0  2  0  0  0  0  0  0  0  0  0
    7.6012  -17.2252   20.7754 C   0  0  0  0  0  0  0  0  0  0  0  0
    6.5825  -15.1111   21.3725 C   0  0  2  0  0  0  0  0  0  0  0  0
    7.1121  -14.3750   20.2537 N   0  0  0  0  0  0  0  0  0  0  0  0
    7.4460  -14.8948   22.5609 C   0  0  0  0  0  0  0  0  0  0  0  0
    8.7100  -14.8706   22.4728 O   0  0  0  0  0  0  0  0  0  0  0  0
    5.9440  -11.3365   26.2767 C   0  0  0  0  0  0  0  0  0  0  0  0
    6.7296  -12.2114   25.3247 C   0  0  0  0  0  0  0  0  0  0  0  0
    7.1924  -13.5086   26.0121 C   0  0  2  0  0  0  0  0  0  0  0  0
    8.1117  -13.1334   27.1504 C   0  0  0  0  0  0  0  0  0  0  0  0
    7.7084  -14.4973   25.0626 C   0  0  2  0  0  0  0  0  0  0  0  0
    6.9171  -14.7050   23.8697 N   0  0  0  0  0  0  0  0  0  0  0  0
    8.3243  -15.7296   25.5783 C   0  0  0  0  0  0  0  0  0  0  0  0
    7.7501  -16.6567   26.1868 O   0  0  0  0  0  0  0  0  0  0  0  0
    9.7414  -15.9447   25.3970 N   0  0  0  0  0  0  0  0  0  0  0  0
   10.4097  -17.1511   25.7705 C   0  0  1  0  0  0  0  0  0  0  0  0
   11.6467  -17.4893   25.0125 C   0  0  0  0  0  0  0  0  0  0  0  0
   12.8441  -16.1764   24.8742 S   0  0  0  0  0  0  0  0  0  0  0  0
   10.5576  -17.3223   27.2405 C   0  0  0  0  0  0  0  0  0  0  0  0
   10.3581  -16.4664   28.1114 O   0  0  0  0  0  0  0  0  0  0  0  0
   10.9618  -18.5772   27.6814 O   0  0  0  0  0  0  0  0  0  0  0  0
  2  1  1  1
  2  3  1  0
  4  2  1  0
  4  6  1  0
  4  5  1  6
  6 13  1  0
  6  7  2  0
  8  9  1  0
  9 10  1  0
 10 12  1  0
 10 11  1  1
 12 14  1  0
 12 13  1  6
 14 15  2  0
 16 14  1  0
 16 17  1  0
 17 20  1  0
 17 18  1  6
 19 18  1  0
 20 22  1  0
 21 20  2  0
M  END
$$$$
