VIC.pdb
     RDKit          3D

 22 21  0  0  1  0  0  0  0  0999 V2000
    7.7482  -17.3365   21.2177 C   0  0  0  0  0  0  0  0  0  0  0  0
    6.7699  -16.2024   21.0282 C   0  0  2  0  0  0  0  0  0  0  0  0
    6.2177  -16.2422   19.6204 C   0  0  0  0  0  0  0  0  0  0  0  0
    7.3735  -14.8602   21.2384 C   0  0  2  0  0  0  0  0  0  0  0  0
    8.2910  -14.4566   20.2042 N   0  0  0  0  0  0  0  0  0  0  0  0
    8.0119  -14.6756   22.5662 C   0  0  0  0  0  0  0  0  0  0  0  0
    9.2704  -14.7024   22.7120 O   0  0  0  0  0  0  0  0  0  0  0  0
    5.8971  -11.3140   26.2336 C   0  0  0  0  0  0  0  0  0  0  0  0
    6.8351  -12.1248   25.3667 C   0  0  0  0  0  0  0  0  0  0  0  0
    7.1688  -13.4783   26.0197 C   0  0  2  0  0  0  0  0  0  0  0  0
    7.9035  -13.2068   27.3112 C   0  0  0  0  0  0  0  0  0  0  0  0
    7.8145  -14.4089   25.0911 C   0  0  2  0  0  0  0  0  0  0  0  0
    7.2594  -14.4613   23.7564 N   0  0  0  0  0  0  0  0  0  0  0  0
    8.2655  -15.7175   25.5892 C   0  0  0  0  0  0  0  0  0  0  0  0
    7.5448  -16.6807   25.9247 O   0  0  0  0  0  0  0  0  0  0  0  0
    9.6800  -15.9735   25.7326 N   0  0  0  0  0  0  0  0  0  0  0  0
   10.2110  -17.1848   26.2732 C   0  0  1  0  0  0  0  0  0  0  0  0
   11.3250  -17.8204   25.5154 C   0  0  0  0  0  0  0  0  0  0  0  0
   11.4230  -17.3872   23.7893 S   0  0  0  0  0  0  0  0  0  0  0  0
   10.4564  -17.1285   27.7391 C   0  0  0  0  0  0  0  0  0  0  0  0
   10.3072  -16.1486   28.4796 O   0  0  0  0  0  0  0  0  0  0  0  0
   10.8992  -18.3015   28.3396 O   0  0  0  0  0  0  0  0  0  0  0  0
  2  1  1  6
  2  3  1  0
  4  2  1  0
  4  6  1  0
  4  5  1  6
  6 13  1  0
  6  7  2  0
  8  9  1  0
  9 10  1  0
 10 12  1  0
 10 11  1  1
 12 14  1  0
 12 13  1  6
 14 15  2  0
 16 14  1  0
 16 17  1  0
 17 20  1  0
 17 18  1  6
 19 18  1  0
 20 22  1  0
 21 20  2  0
M  END
$$$$
