VIC.pdb
     RDKit          3D

 22 21  0  0  1  0  0  0  0  0999 V2000
    9.1979  -15.1223   19.8033 C   0  0  0  0  0  0  0  0  0  0  0  0
    7.7847  -15.2208   20.3247 C   0  0  2  0  0  0  0  0  0  0  0  0
    7.2536  -13.8331   20.6088 C   0  0  0  0  0  0  0  0  0  0  0  0
    7.6711  -16.0127   21.5778 C   0  0  2  0  0  0  0  0  0  0  0  0
    6.3194  -16.3496   21.9433 N   0  0  0  0  0  0  0  0  0  0  0  0
    8.3656  -15.4151   22.7462 C   0  0  0  0  0  0  0  0  0  0  0  0
    9.5948  -15.1093   22.7081 O   0  0  0  0  0  0  0  0  0  0  0  0
    6.3327  -12.2551   27.3750 C   0  0  0  0  0  0  0  0  0  0  0  0
    6.6668  -13.5530   26.6731 C   0  0  0  0  0  0  0  0  0  0  0  0
    7.8318  -13.3687   25.6839 C   0  0  2  0  0  0  0  0  0  0  0  0
    7.4101  -12.3541   24.6473 C   0  0  0  0  0  0  0  0  0  0  0  0
    8.3446  -14.6417   25.1724 C   0  0  2  0  0  0  0  0  0  0  0  0
    7.7041  -15.1507   23.9796 N   0  0  0  0  0  0  0  0  0  0  0  0
    8.7246  -15.6943   26.1272 C   0  0  0  0  0  0  0  0  0  0  0  0
    7.9555  -16.3751   26.8377 O   0  0  0  0  0  0  0  0  0  0  0  0
   10.1210  -16.0161   26.3105 N   0  0  0  0  0  0  0  0  0  0  0  0
   10.5909  -16.9755   27.2592 C   0  0  1  0  0  0  0  0  0  0  0  0
   11.7105  -17.8542   26.8194 C   0  0  0  0  0  0  0  0  0  0  0  0
   12.0093  -17.8936   25.0627 S   0  0  0  0  0  0  0  0  0  0  0  0
   10.7831  -16.4206   28.6258 C   0  0  0  0  0  0  0  0  0  0  0  0
   10.7119  -15.2318   28.9610 O   0  0  0  0  0  0  0  0  0  0  0  0
   11.0726  -17.3353   29.6318 O   0  0  0  0  0  0  0  0  0  0  0  0
  2  1  1  1
  2  3  1  0
  4  2  1  0
  4  6  1  0
  4  5  1  1
  6 13  1  0
  6  7  2  0
  8  9  1  0
  9 10  1  0
 10 12  1  0
 10 11  1  6
 12 14  1  0
 12 13  1  6
 14 15  2  0
 16 14  1  0
 16 17  1  0
 17 20  1  0
 17 18  1  6
 19 18  1  0
 20 22  1  0
 21 20  2  0
M  END
$$$$
