MNV.pdb
     RDKit          3D

 24 23  0  0  1  0  0  0  0  0999 V2000
    7.4026  -12.1628   19.7489 C   0  0  0  0  0  0  0  0  0  0  0  0
    8.5738  -13.2260   18.9296 S   0  0  0  0  0  0  0  0  0  0  0  0
    7.9470  -14.8963   18.7544 C   0  0  0  0  0  0  0  0  0  0  0  0
    7.1189  -15.3284   19.9049 C   0  0  0  0  0  0  0  0  0  0  0  0
    7.5660  -16.5121   20.6742 C   0  0  2  0  0  0  0  0  0  0  0  0
    7.6269  -17.7267   19.8737 N   0  0  0  0  0  0  0  0  0  0  0  0
    6.5324  -16.7292   21.7569 C   0  0  0  0  0  0  0  0  0  0  0  0
    5.6956  -17.6596   21.6361 O   0  0  0  0  0  0  0  0  0  0  0  0
    6.0033  -18.5225   25.4759 N   0  0  0  0  0  0  0  0  0  0  0  0
    7.1445  -18.8147   24.6547 C   0  0  0  0  0  0  0  0  0  0  0  0
    7.6156  -19.9729   24.5797 O   0  0  0  0  0  0  0  0  0  0  0  0
    7.7541  -17.7013   23.8931 C   0  0  0  0  0  0  0  0  0  0  0  0
    7.0047  -16.4222   24.1587 C   0  0  2  0  0  0  0  0  0  0  0  0
    6.4713  -15.9187   22.9086 N   0  0  0  0  0  0  0  0  0  0  0  0
    7.9351  -15.4012   24.7747 C   0  0  0  0  0  0  0  0  0  0  0  0
    9.1207  -15.5265   24.4409 O   0  0  0  0  0  0  0  0  0  0  0  0
    6.1089  -12.5579   27.6172 C   0  0  0  0  0  0  0  0  0  0  0  0
    7.2663  -12.1964   26.7254 C   0  0  2  0  0  0  0  0  0  0  0  0
    6.7377  -11.4986   25.4906 C   0  0  0  0  0  0  0  0  0  0  0  0
    8.1419  -13.3825   26.3447 C   0  0  2  0  0  0  0  0  0  0  0  0
    7.4324  -14.4286   25.6372 N   0  0  0  0  0  0  0  0  0  0  0  0
    8.6921  -14.0346   27.5412 C   0  0  0  0  0  0  0  0  0  0  0  0
    9.5447  -13.4306   28.2357 O   0  0  0  0  0  0  0  0  0  0  0  0
    8.3056  -15.2956   27.9360 O   0  0  0  0  0  0  0  0  0  0  0  0
  1  2  1  0
  3  2  1  0
  4  3  1  0
  5  4  1  0
  5  6  1  6
  7  5  1  0
  8  7  2  0
  9 10  1  0
 10 12  1  0
 11 10  2  0
 13 12  1  6
 13 14  1  0
 14  7  1  0
 15 21  1  0
 15 13  1  0
 16 15  2  0
 18 17  1  1
 18 20  1  0
 19 18  1  0
 20 22  1  0
 20 21  1  1
 22 24  1  0
 23 22  2  0
M  END
$$$$
