MNV.pdb
     RDKit          3D

 24 23  0  0  1  0  0  0  0  0999 V2000
    8.9141  -11.8041   20.0664 C   0  0  0  0  0  0  0  0  0  0  0  0
    7.4146  -12.2504   19.2145 S   0  0  0  0  0  0  0  0  0  0  0  0
    7.0638  -14.0024   19.3582 C   0  0  0  0  0  0  0  0  0  0  0  0
    7.0634  -14.4804   20.7610 C   0  0  0  0  0  0  0  0  0  0  0  0
    8.3133  -15.0711   21.2918 C   0  0  2  0  0  0  0  0  0  0  0  0
    8.7540  -16.2432   20.5492 N   0  0  0  0  0  0  0  0  0  0  0  0
    8.0062  -15.5136   22.7050 C   0  0  0  0  0  0  0  0  0  0  0  0
    7.4877  -14.6988   23.5099 O   0  0  0  0  0  0  0  0  0  0  0  0
    6.5824  -18.5571   26.8421 N   0  0  0  0  0  0  0  0  0  0  0  0
    7.7635  -18.9744   26.1398 C   0  0  0  0  0  0  0  0  0  0  0  0
    8.6701  -19.6207   26.7135 O   0  0  0  0  0  0  0  0  0  0  0  0
    7.8816  -18.6170   24.7081 C   0  0  0  0  0  0  0  0  0  0  0  0
    8.1045  -17.1346   24.5622 C   0  0  2  0  0  0  0  0  0  0  0  0
    8.2825  -16.8194   23.1587 N   0  0  0  0  0  0  0  0  0  0  0  0
    9.3296  -16.7206   25.3465 C   0  0  0  0  0  0  0  0  0  0  0  0
   10.4030  -17.0505   24.8251 O   0  0  0  0  0  0  0  0  0  0  0  0
    8.6065  -13.9673   28.7052 C   0  0  0  0  0  0  0  0  0  0  0  0
    9.8436  -14.0098   27.8489 C   0  0  2  0  0  0  0  0  0  0  0  0
    9.6657  -13.0662   26.6789 C   0  0  0  0  0  0  0  0  0  0  0  0
   10.2093  -15.4074   27.3674 C   0  0  2  0  0  0  0  0  0  0  0  0
    9.1889  -16.0280   26.5478 N   0  0  0  0  0  0  0  0  0  0  0  0
   10.3972  -16.3215   28.5026 C   0  0  0  0  0  0  0  0  0  0  0  0
    9.5423  -17.2125   28.7248 O   0  0  0  0  0  0  0  0  0  0  0  0
   11.4853  -16.2392   29.3419 O   0  0  0  0  0  0  0  0  0  0  0  0
  1  2  1  0
  3  2  1  0
  4  3  1  0
  5  4  1  0
  5  6  1  6
  7  5  1  0
  8  7  2  0
  9 10  1  0
 10 12  1  0
 11 10  2  0
 13 12  1  6
 13 14  1  0
 14  7  1  0
 15 21  1  0
 15 13  1  0
 16 15  2  0
 18 17  1  6
 18 20  1  0
 19 18  1  0
 20 22  1  0
 20 21  1  6
 22 24  1  0
 23 22  2  0
M  END
$$$$
