MNV.pdb
     RDKit          3D

 24 23  0  0  1  0  0  0  0  0999 V2000
    6.9774  -11.7739   20.2210 C   0  0  0  0  0  0  0  0  0  0  0  0
    8.0151  -12.1949   18.8357 S   0  0  0  0  0  0  0  0  0  0  0  0
    8.3246  -13.9583   18.7477 C   0  0  0  0  0  0  0  0  0  0  0  0
    8.3553  -14.6087   20.0790 C   0  0  0  0  0  0  0  0  0  0  0  0
    8.7283  -16.0403   20.1421 C   0  0  2  0  0  0  0  0  0  0  0  0
    7.8300  -16.9009   19.3858 N   0  0  0  0  0  0  0  0  0  0  0  0
    8.6283  -16.4408   21.5971 C   0  0  0  0  0  0  0  0  0  0  0  0
    7.5265  -16.8358   22.0560 O   0  0  0  0  0  0  0  0  0  0  0  0
    9.3959  -19.9059   24.1330 N   0  0  0  0  0  0  0  0  0  0  0  0
   10.3305  -18.9646   23.5829 C   0  0  0  0  0  0  0  0  0  0  0  0
   10.9447  -19.2013   22.5173 O   0  0  0  0  0  0  0  0  0  0  0  0
   10.5503  -17.6970   24.3151 C   0  0  0  0  0  0  0  0  0  0  0  0
    9.5437  -16.6659   23.8769 C   0  0  2  0  0  0  0  0  0  0  0  0
    9.7358  -16.3871   22.4676 N   0  0  0  0  0  0  0  0  0  0  0  0
    9.7213  -15.4000   24.6853 C   0  0  0  0  0  0  0  0  0  0  0  0
   10.8576  -14.9122   24.6237 O   0  0  0  0  0  0  0  0  0  0  0  0
    6.1745  -13.9823   26.9177 C   0  0  0  0  0  0  0  0  0  0  0  0
    7.3145  -13.0895   26.5069 C   0  0  2  0  0  0  0  0  0  0  0  0
    6.9594  -12.4043   25.2048 C   0  0  0  0  0  0  0  0  0  0  0  0
    8.6499  -13.8123   26.3923 C   0  0  2  0  0  0  0  0  0  0  0  0
    8.6531  -14.8814   25.4149 N   0  0  0  0  0  0  0  0  0  0  0  0
    9.0100  -14.4549   27.6639 C   0  0  0  0  0  0  0  0  0  0  0  0
    8.8228  -15.6872   27.8067 O   0  0  0  0  0  0  0  0  0  0  0  0
    9.5506  -13.7520   28.7170 O   0  0  0  0  0  0  0  0  0  0  0  0
  1  2  1  0
  3  2  1  0
  4  3  1  0
  5  4  1  0
  5  6  1  6
  7  5  1  0
  8  7  2  0
  9 10  1  0
 10 12  1  0
 11 10  2  0
 13 12  1  1
 13 14  1  0
 14  7  1  0
 15 21  1  0
 15 13  1  0
 16 15  2  0
 18 17  1  6
 18 20  1  0
 19 18  1  0
 20 22  1  0
 20 21  1  6
 22 24  1  0
 23 22  2  0
M  END
$$$$
