MNV.pdb
     RDKit          3D

 24 23  0  0  1  0  0  0  0  0999 V2000
    7.8168  -11.9791   20.1463 C   0  0  0  0  0  0  0  0  0  0  0  0
    8.5715  -13.1586   19.0452 S   0  0  0  0  0  0  0  0  0  0  0  0
    7.7910  -14.7684   19.1581 C   0  0  0  0  0  0  0  0  0  0  0  0
    7.2430  -15.0538   20.5051 C   0  0  0  0  0  0  0  0  0  0  0  0
    7.2515  -16.4587   20.9729 C   0  0  2  0  0  0  0  0  0  0  0  0
    6.4867  -17.3531   20.1157 N   0  0  0  0  0  0  0  0  0  0  0  0
    6.5932  -16.4562   22.3345 C   0  0  0  0  0  0  0  0  0  0  0  0
    5.4418  -16.9436   22.4663 O   0  0  0  0  0  0  0  0  0  0  0  0
    7.4369  -20.2366   25.5439 N   0  0  0  0  0  0  0  0  0  0  0  0
    6.9171  -19.1079   24.8242 C   0  0  0  0  0  0  0  0  0  0  0  0
    5.7055  -19.0320   24.5156 O   0  0  0  0  0  0  0  0  0  0  0  0
    7.8593  -18.0279   24.4537 C   0  0  0  0  0  0  0  0  0  0  0  0
    7.2298  -16.6834   24.7072 C   0  0  2  0  0  0  0  0  0  0  0  0
    7.2288  -15.9220   23.4738 N   0  0  0  0  0  0  0  0  0  0  0  0
    8.0092  -15.9448   25.7723 C   0  0  0  0  0  0  0  0  0  0  0  0
    8.1376  -16.5691   26.8337 O   0  0  0  0  0  0  0  0  0  0  0  0
    6.4844  -13.2311   27.4825 C   0  0  0  0  0  0  0  0  0  0  0  0
    7.5815  -12.6514   26.6306 C   0  0  2  0  0  0  0  0  0  0  0  0
    7.0013  -12.2350   25.2960 C   0  0  0  0  0  0  0  0  0  0  0  0
    8.7681  -13.5861   26.4378 C   0  0  2  0  0  0  0  0  0  0  0  0
    8.5122  -14.6711   25.5130 N   0  0  0  0  0  0  0  0  0  0  0  0
    9.1332  -14.2390   27.7027 C   0  0  0  0  0  0  0  0  0  0  0  0
    9.8019  -13.6044   28.5536 O   0  0  0  0  0  0  0  0  0  0  0  0
    8.7670  -15.5334   27.9957 O   0  0  0  0  0  0  0  0  0  0  0  0
  1  2  1  0
  3  2  1  0
  4  3  1  0
  5  4  1  0
  5  6  1  6
  7  5  1  0
  8  7  2  0
  9 10  1  0
 10 12  1  0
 11 10  2  0
 13 12  1  6
 13 14  1  0
 14  7  1  0
 15 21  1  0
 15 13  1  0
 16 15  2  0
 18 17  1  1
 18 20  1  0
 19 18  1  0
 20 22  1  0
 20 21  1  6
 22 24  1  0
 23 22  2  0
M  END
$$$$
