MNV.pdb
     RDKit          3D

 24 23  0  0  1  0  0  0  0  0999 V2000
    6.7691  -15.7637   16.6427 C   0  0  0  0  0  0  0  0  0  0  0  0
    7.8456  -14.4408   16.1289 S   0  0  0  0  0  0  0  0  0  0  0  0
    8.7856  -13.7760   17.5028 C   0  0  0  0  0  0  0  0  0  0  0  0
    7.9541  -13.5141   18.7012 C   0  0  0  0  0  0  0  0  0  0  0  0
    8.6352  -13.0344   19.9255 C   0  0  2  0  0  0  0  0  0  0  0  0
   10.0856  -13.0083   19.8019 N   0  0  0  0  0  0  0  0  0  0  0  0
    8.2868  -14.0202   21.0183 C   0  0  0  0  0  0  0  0  0  0  0  0
    7.0849  -14.1736   21.3535 O   0  0  0  0  0  0  0  0  0  0  0  0
    9.5586  -18.1785   20.6140 N   0  0  0  0  0  0  0  0  0  0  0  0
    8.8907  -17.8109   21.8310 C   0  0  0  0  0  0  0  0  0  0  0  0
    7.7448  -18.2382   22.1015 O   0  0  0  0  0  0  0  0  0  0  0  0
    9.5987  -16.9062   22.7646 C   0  0  0  0  0  0  0  0  0  0  0  0
    8.8917  -15.5781   22.8331 C   0  0  2  0  0  0  0  0  0  0  0  0
    9.2698  -14.7817   21.6826 N   0  0  0  0  0  0  0  0  0  0  0  0
    9.2717  -14.8601   24.1088 C   0  0  0  0  0  0  0  0  0  0  0  0
   10.4649  -14.5367   24.1746 O   0  0  0  0  0  0  0  0  0  0  0  0
    5.9940  -13.4489   26.6157 C   0  0  0  0  0  0  0  0  0  0  0  0
    7.4045  -12.9269   26.6751 C   0  0  2  0  0  0  0  0  0  0  0  0
    7.5355  -11.7523   25.7296 C   0  0  0  0  0  0  0  0  0  0  0  0
    8.4625  -13.9814   26.3794 C   0  0  2  0  0  0  0  0  0  0  0  0
    8.3087  -14.6159   25.0864 N   0  0  0  0  0  0  0  0  0  0  0  0
    8.3972  -15.0787   27.3547 C   0  0  0  0  0  0  0  0  0  0  0  0
    7.7402  -16.1112   27.0782 O   0  0  0  0  0  0  0  0  0  0  0  0
    9.0348  -15.0195   28.5734 O   0  0  0  0  0  0  0  0  0  0  0  0
  1  2  1  0
  3  2  1  0
  4  3  1  0
  5  4  1  0
  5  6  1  6
  7  5  1  0
  8  7  2  0
  9 10  1  0
 10 12  1  0
 11 10  2  0
 13 12  1  6
 13 14  1  0
 14  7  1  0
 15 21  1  0
 15 13  1  0
 16 15  2  0
 18 17  1  6
 18 20  1  0
 19 18  1  0
 20 22  1  0
 20 21  1  6
 22 24  1  0
 23 22  2  0
M  END
$$$$
