MNV.pdb
     RDKit          3D

 24 23  0  0  1  0  0  0  0  0999 V2000
    8.7596  -12.1117   20.1199 C   0  0  0  0  0  0  0  0  0  0  0  0
    7.9056  -12.7813   18.7072 S   0  0  0  0  0  0  0  0  0  0  0  0
    7.5267  -14.5202   18.9214 C   0  0  0  0  0  0  0  0  0  0  0  0
    8.6849  -15.3112   19.4000 C   0  0  0  0  0  0  0  0  0  0  0  0
    8.4590  -16.7350   19.7384 C   0  0  2  0  0  0  0  0  0  0  0  0
    7.6703  -17.4434   18.7405 N   0  0  0  0  0  0  0  0  0  0  0  0
    7.6751  -16.7441   21.0318 C   0  0  0  0  0  0  0  0  0  0  0  0
    6.4659  -17.0881   21.0203 O   0  0  0  0  0  0  0  0  0  0  0  0
    7.2514  -19.2287   26.0248 N   0  0  0  0  0  0  0  0  0  0  0  0
    6.7730  -18.2073   25.1359 C   0  0  0  0  0  0  0  0  0  0  0  0
    5.7811  -17.5002   25.4276 O   0  0  0  0  0  0  0  0  0  0  0  0
    7.4892  -18.0113   23.8553 C   0  0  0  0  0  0  0  0  0  0  0  0
    7.4952  -16.5516   23.4847 C   0  0  2  0  0  0  0  0  0  0  0  0
    8.2554  -16.3773   22.2630 N   0  0  0  0  0  0  0  0  0  0  0  0
    8.1148  -15.7415   24.6015 C   0  0  0  0  0  0  0  0  0  0  0  0
    9.3168  -15.9709   24.7901 O   0  0  0  0  0  0  0  0  0  0  0  0
    5.6850  -12.3742   25.7730 C   0  0  0  0  0  0  0  0  0  0  0  0
    6.6174  -12.9642   26.7967 C   0  0  2  0  0  0  0  0  0  0  0  0
    7.1376  -11.8557   27.6864 C   0  0  0  0  0  0  0  0  0  0  0  0
    7.7673  -13.7598   26.1936 C   0  0  2  0  0  0  0  0  0  0  0  0
    7.3395  -14.8310   25.3173 N   0  0  0  0  0  0  0  0  0  0  0  0
    8.5588  -14.4166   27.2432 C   0  0  0  0  0  0  0  0  0  0  0  0
    9.4512  -13.7673   27.8398 O   0  0  0  0  0  0  0  0  0  0  0  0
    8.3586  -15.7304   27.6029 O   0  0  0  0  0  0  0  0  0  0  0  0
  1  2  1  0
  3  2  1  0
  4  3  1  0
  5  4  1  0
  5  6  1  6
  7  5  1  0
  8  7  2  0
  9 10  1  0
 10 12  1  0
 11 10  2  0
 13 12  1  1
 13 14  1  0
 14  7  1  0
 15 21  1  0
 15 13  1  0
 16 15  2  0
 18 17  1  6
 18 20  1  0
 19 18  1  0
 20 22  1  0
 20 21  1  6
 22 24  1  0
 23 22  2  0
M  END
$$$$
