MNV.pdb
     RDKit          3D

 24 23  0  0  1  0  0  0  0  0999 V2000
    7.6583  -12.1326   21.3878 C   0  0  0  0  0  0  0  0  0  0  0  0
    7.4788  -12.9337   19.8069 S   0  0  0  0  0  0  0  0  0  0  0  0
    8.5975  -14.3237   19.6344 C   0  0  0  0  0  0  0  0  0  0  0  0
    7.9032  -15.6328   19.6565 C   0  0  0  0  0  0  0  0  0  0  0  0
    8.2038  -16.5575   20.7734 C   0  0  2  0  0  0  0  0  0  0  0  0
    7.4960  -16.2233   22.0009 N   0  0  0  0  0  0  0  0  0  0  0  0
    9.6850  -16.4229   21.0482 C   0  0  0  0  0  0  0  0  0  0  0  0
   10.4817  -16.2729   20.0874 O   0  0  0  0  0  0  0  0  0  0  0  0
    7.5471  -15.2556   25.2478 N   0  0  0  0  0  0  0  0  0  0  0  0
    7.2088  -16.4554   24.5348 C   0  0  0  0  0  0  0  0  0  0  0  0
    6.1328  -17.0601   24.7481 O   0  0  0  0  0  0  0  0  0  0  0  0
    8.1737  -16.9623   23.5331 C   0  0  0  0  0  0  0  0  0  0  0  0
    9.3750  -16.0562   23.4681 C   0  0  2  0  0  0  0  0  0  0  0  0
   10.2115  -16.4598   22.3554 N   0  0  0  0  0  0  0  0  0  0  0  0
   10.1540  -16.1439   24.7615 C   0  0  0  0  0  0  0  0  0  0  0  0
   11.3059  -16.5792   24.6332 O   0  0  0  0  0  0  0  0  0  0  0  0
   10.1670  -13.8380   29.2238 C   0  0  0  0  0  0  0  0  0  0  0  0
    9.5000  -14.2350   27.9342 C   0  0  2  0  0  0  0  0  0  0  0  0
    8.0513  -14.5737   28.2125 C   0  0  0  0  0  0  0  0  0  0  0  0
   10.1951  -15.3804   27.2106 C   0  0  2  0  0  0  0  0  0  0  0  0
    9.5630  -15.7506   25.9609 N   0  0  0  0  0  0  0  0  0  0  0  0
   10.1783  -16.6033   28.0253 C   0  0  0  0  0  0  0  0  0  0  0  0
   10.8910  -16.6675   29.0558 O   0  0  0  0  0  0  0  0  0  0  0  0
    9.4036  -17.6939   27.7003 O   0  0  0  0  0  0  0  0  0  0  0  0
  1  2  1  0
  3  2  1  0
  4  3  1  0
  5  4  1  0
  5  6  1  1
  7  5  1  0
  8  7  2  0
  9 10  1  0
 10 12  1  0
 11 10  2  0
 13 12  1  1
 13 14  1  0
 14  7  1  0
 15 21  1  0
 15 13  1  0
 16 15  2  0
 18 17  1  1
 18 20  1  0
 19 18  1  0
 20 22  1  0
 20 21  1  6
 22 24  1  0
 23 22  2  0
M  END
$$$$
