MNV.pdb
     RDKit          3D

 24 23  0  0  1  0  0  0  0  0999 V2000
    5.7870  -12.5128   25.8589 C   0  0  0  0  0  0  0  0  0  0  0  0
    7.0223  -11.8887   24.7374 S   0  0  0  0  0  0  0  0  0  0  0  0
    6.8792  -12.6286   23.1110 C   0  0  0  0  0  0  0  0  0  0  0  0
    7.7616  -13.8053   22.9298 C   0  0  0  0  0  0  0  0  0  0  0  0
    7.2222  -15.1372   23.2873 C   0  0  2  0  0  0  0  0  0  0  0  0
    6.8442  -15.2453   24.6891 N   0  0  0  0  0  0  0  0  0  0  0  0
    8.3374  -16.1276   23.0366 C   0  0  0  0  0  0  0  0  0  0  0  0
    8.6312  -16.4430   21.8556 O   0  0  0  0  0  0  0  0  0  0  0  0
   12.8802  -17.5282   22.3090 N   0  0  0  0  0  0  0  0  0  0  0  0
   12.4599  -16.2019   22.6646 C   0  0  0  0  0  0  0  0  0  0  0  0
   13.2837  -15.2660   22.7836 O   0  0  0  0  0  0  0  0  0  0  0  0
   11.0153  -15.9689   22.8886 C   0  0  0  0  0  0  0  0  0  0  0  0
   10.4946  -16.9195   23.9343 C   0  0  2  0  0  0  0  0  0  0  0  0
    9.0677  -16.7168   24.0886 N   0  0  0  0  0  0  0  0  0  0  0  0
   11.1992  -16.6714   25.2493 C   0  0  0  0  0  0  0  0  0  0  0  0
   12.4171  -16.8928   25.2237 O   0  0  0  0  0  0  0  0  0  0  0  0
    9.5488  -13.7949   27.7137 C   0  0  0  0  0  0  0  0  0  0  0  0
   10.0080  -15.0098   28.4743 C   0  0  2  0  0  0  0  0  0  0  0  0
   10.6452  -14.5661   29.7736 C   0  0  0  0  0  0  0  0  0  0  0  0
   10.9526  -15.9071   27.6861 C   0  0  2  0  0  0  0  0  0  0  0  0
   10.4767  -16.2309   26.3568 N   0  0  0  0  0  0  0  0  0  0  0  0
   11.1276  -17.2030   28.3565 C   0  0  0  0  0  0  0  0  0  0  0  0
   11.9920  -17.3189   29.2584 O   0  0  0  0  0  0  0  0  0  0  0  0
   10.3731  -18.3078   28.0317 O   0  0  0  0  0  0  0  0  0  0  0  0
  1  2  1  0
  3  2  1  0
  4  3  1  0
  5  4  1  0
  5  6  1  1
  7  5  1  0
  8  7  2  0
  9 10  1  0
 10 12  1  0
 11 10  2  0
 13 12  1  6
 13 14  1  0
 14  7  1  0
 15 21  1  0
 15 13  1  0
 16 15  2  0
 18 17  1  6
 18 20  1  0
 19 18  1  0
 20 22  1  0
 20 21  1  6
 22 24  1  0
 23 22  2  0
M  END
$$$$
