MNV.pdb
     RDKit          3D

 24 23  0  0  1  0  0  0  0  0999 V2000
    8.5322  -11.7720   19.8639 C   0  0  0  0  0  0  0  0  0  0  0  0
    7.4129  -12.5895   18.7449 S   0  0  0  0  0  0  0  0  0  0  0  0
    7.4784  -14.3720   18.9223 C   0  0  0  0  0  0  0  0  0  0  0  0
    7.3344  -14.8205   20.3274 C   0  0  0  0  0  0  0  0  0  0  0  0
    7.3261  -16.2774   20.5921 C   0  0  2  0  0  0  0  0  0  0  0  0
    6.1556  -16.9521   20.0495 N   0  0  0  0  0  0  0  0  0  0  0  0
    7.2888  -16.4349   22.0959 C   0  0  0  0  0  0  0  0  0  0  0  0
    6.1944  -16.3181   22.7035 O   0  0  0  0  0  0  0  0  0  0  0  0
    7.8466  -18.7380   26.8563 N   0  0  0  0  0  0  0  0  0  0  0  0
    9.0143  -18.2401   26.1849 C   0  0  0  0  0  0  0  0  0  0  0  0
   10.0359  -17.8943   26.8218 O   0  0  0  0  0  0  0  0  0  0  0  0
    8.9777  -18.1455   24.7081 C   0  0  0  0  0  0  0  0  0  0  0  0
    8.3408  -16.8466   24.2891 C   0  0  2  0  0  0  0  0  0  0  0  0
    8.4475  -16.7106   22.8500 N   0  0  0  0  0  0  0  0  0  0  0  0
    9.0362  -15.6905   24.9725 C   0  0  0  0  0  0  0  0  0  0  0  0
   10.2061  -15.5131   24.6081 O   0  0  0  0  0  0  0  0  0  0  0  0
    6.5649  -12.7876   27.0412 C   0  0  0  0  0  0  0  0  0  0  0  0
    8.0067  -12.5797   26.6624 C   0  0  2  0  0  0  0  0  0  0  0  0
    8.0700  -11.9784   25.2748 C   0  0  0  0  0  0  0  0  0  0  0  0
    8.8515  -13.8440   26.7443 C   0  0  2  0  0  0  0  0  0  0  0  0
    8.3574  -14.9303   25.9233 N   0  0  0  0  0  0  0  0  0  0  0  0
    8.8688  -14.3762   28.1139 C   0  0  0  0  0  0  0  0  0  0  0  0
    9.4650  -13.7393   29.0155 O   0  0  0  0  0  0  0  0  0  0  0  0
    8.2503  -15.5588   28.4522 O   0  0  0  0  0  0  0  0  0  0  0  0
  1  2  1  0
  3  2  1  0
  4  3  1  0
  5  4  1  0
  5  6  1  6
  7  5  1  0
  8  7  2  0
  9 10  1  0
 10 12  1  0
 11 10  2  0
 13 12  1  1
 13 14  1  0
 14  7  1  0
 15 21  1  0
 15 13  1  0
 16 15  2  0
 18 17  1  6
 18 20  1  0
 19 18  1  0
 20 22  1  0
 20 21  1  6
 22 24  1  0
 23 22  2  0
M  END
$$$$
