MNV.pdb
     RDKit          3D

 24 23  0  0  1  0  0  0  0  0999 V2000
    7.3146  -11.7510   18.3691 C   0  0  0  0  0  0  0  0  0  0  0  0
    7.3764  -13.3390   17.5644 S   0  0  0  0  0  0  0  0  0  0  0  0
    8.2521  -14.5519   18.5519 C   0  0  0  0  0  0  0  0  0  0  0  0
    8.9360  -13.9593   19.7255 C   0  0  0  0  0  0  0  0  0  0  0  0
    9.6743  -14.8702   20.6299 C   0  0  2  0  0  0  0  0  0  0  0  0
    9.9985  -16.1496   20.0155 N   0  0  0  0  0  0  0  0  0  0  0  0
    8.7547  -15.1441   21.7990 C   0  0  0  0  0  0  0  0  0  0  0  0
    8.0051  -14.2288   22.2245 O   0  0  0  0  0  0  0  0  0  0  0  0
    6.1335  -17.0505   25.5829 N   0  0  0  0  0  0  0  0  0  0  0  0
    6.7438  -18.2184   25.0121 C   0  0  0  0  0  0  0  0  0  0  0  0
    6.5023  -19.3644   25.4563 O   0  0  0  0  0  0  0  0  0  0  0  0
    7.6736  -18.0299   23.8758 C   0  0  0  0  0  0  0  0  0  0  0  0
    7.8921  -16.5610   23.6250 C   0  0  2  0  0  0  0  0  0  0  0  0
    8.7059  -16.4004   22.4364 N   0  0  0  0  0  0  0  0  0  0  0  0
    8.5832  -15.9347   24.8157 C   0  0  0  0  0  0  0  0  0  0  0  0
    9.7515  -16.3098   24.9811 O   0  0  0  0  0  0  0  0  0  0  0  0
    6.1853  -13.7755   27.7993 C   0  0  0  0  0  0  0  0  0  0  0  0
    7.4084  -13.1504   27.1841 C   0  0  2  0  0  0  0  0  0  0  0  0
    6.9780  -12.2048   26.0834 C   0  0  0  0  0  0  0  0  0  0  0  0
    8.4199  -14.1629   26.6641 C   0  0  2  0  0  0  0  0  0  0  0  0
    7.9026  -15.0196   25.6168 N   0  0  0  0  0  0  0  0  0  0  0  0
    8.8440  -15.0780   27.7329 C   0  0  0  0  0  0  0  0  0  0  0  0
    8.3872  -16.2461   27.7618 O   0  0  0  0  0  0  0  0  0  0  0  0
    9.7324  -14.7016   28.7149 O   0  0  0  0  0  0  0  0  0  0  0  0
  1  2  1  0
  3  2  1  0
  4  3  1  0
  5  4  1  0
  5  6  1  6
  7  5  1  0
  8  7  2  0
  9 10  1  0
 10 12  1  0
 11 10  2  0
 13 12  1  1
 13 14  1  0
 14  7  1  0
 15 21  1  0
 15 13  1  0
 16 15  2  0
 18 17  1  6
 18 20  1  0
 19 18  1  0
 20 22  1  0
 20 21  1  6
 22 24  1  0
 23 22  2  0
M  END
$$$$
