MNV.pdb
     RDKit          3D

 24 23  0  0  1  0  0  0  0  0999 V2000
    7.6313  -11.6714   20.0882 C   0  0  0  0  0  0  0  0  0  0  0  0
    8.0713  -12.4113   18.5287 S   0  0  0  0  0  0  0  0  0  0  0  0
    7.9605  -14.1995   18.5856 C   0  0  0  0  0  0  0  0  0  0  0  0
    7.9344  -14.7350   19.9672 C   0  0  0  0  0  0  0  0  0  0  0  0
    7.8584  -16.2038   20.1394 C   0  0  2  0  0  0  0  0  0  0  0  0
    6.6999  -16.7983   19.4882 N   0  0  0  0  0  0  0  0  0  0  0  0
    7.7242  -16.4500   21.6256 C   0  0  0  0  0  0  0  0  0  0  0  0
    6.5917  -16.3731   22.1660 O   0  0  0  0  0  0  0  0  0  0  0  0
   10.3435  -18.9089   26.4969 N   0  0  0  0  0  0  0  0  0  0  0  0
    9.2351  -18.3565   25.7699 C   0  0  0  0  0  0  0  0  0  0  0  0
    8.1701  -18.0371   26.3468 O   0  0  0  0  0  0  0  0  0  0  0  0
    9.3862  -18.1735   24.3088 C   0  0  0  0  0  0  0  0  0  0  0  0
    8.6411  -16.9431   23.8623 C   0  0  2  0  0  0  0  0  0  0  0  0
    8.8332  -16.7657   22.4366 N   0  0  0  0  0  0  0  0  0  0  0  0
    9.1550  -15.7329   24.6097 C   0  0  0  0  0  0  0  0  0  0  0  0
   10.3152  -15.4114   24.3210 O   0  0  0  0  0  0  0  0  0  0  0  0
    6.1750  -13.4619   26.8626 C   0  0  0  0  0  0  0  0  0  0  0  0
    7.4687  -12.8952   26.3423 C   0  0  2  0  0  0  0  0  0  0  0  0
    7.2338  -12.3154   24.9641 C   0  0  0  0  0  0  0  0  0  0  0  0
    8.6137  -13.8988   26.3202 C   0  0  2  0  0  0  0  0  0  0  0  0
    8.3374  -15.0824   25.5322 N   0  0  0  0  0  0  0  0  0  0  0  0
    8.9011  -14.3975   27.6724 C   0  0  0  0  0  0  0  0  0  0  0  0
    8.5621  -15.5645   27.9842 O   0  0  0  0  0  0  0  0  0  0  0  0
    9.5346  -13.6276   28.6218 O   0  0  0  0  0  0  0  0  0  0  0  0
  1  2  1  0
  3  2  1  0
  4  3  1  0
  5  4  1  0
  5  6  1  6
  7  5  1  0
  8  7  2  0
  9 10  1  0
 10 12  1  0
 11 10  2  0
 13 12  1  1
 13 14  1  0
 14  7  1  0
 15 21  1  0
 15 13  1  0
 16 15  2  0
 18 17  1  6
 18 20  1  0
 19 18  1  0
 20 22  1  0
 20 21  1  6
 22 24  1  0
 23 22  2  0
M  END
$$$$
