MNV.pdb
     RDKit          3D

 24 23  0  0  1  0  0  0  0  0999 V2000
    7.9356  -11.3696   20.3586 C   0  0  0  0  0  0  0  0  0  0  0  0
    8.3695  -12.4176   18.9850 S   0  0  0  0  0  0  0  0  0  0  0  0
    7.3953  -13.9221   18.9620 C   0  0  0  0  0  0  0  0  0  0  0  0
    7.2804  -14.5588   20.2953 C   0  0  0  0  0  0  0  0  0  0  0  0
    7.7163  -15.9676   20.4300 C   0  0  2  0  0  0  0  0  0  0  0  0
    6.7956  -16.9138   19.8163 N   0  0  0  0  0  0  0  0  0  0  0  0
    7.7518  -16.2604   21.9134 C   0  0  0  0  0  0  0  0  0  0  0  0
    6.6748  -16.4562   22.5316 O   0  0  0  0  0  0  0  0  0  0  0  0
   10.1183  -19.4809   22.6039 N   0  0  0  0  0  0  0  0  0  0  0  0
    9.3918  -18.9781   23.7360 C   0  0  0  0  0  0  0  0  0  0  0  0
    8.3841  -19.5735   24.1819 O   0  0  0  0  0  0  0  0  0  0  0  0
    9.8697  -17.7270   24.3667 C   0  0  0  0  0  0  0  0  0  0  0  0
    8.9212  -16.5982   24.0592 C   0  0  2  0  0  0  0  0  0  0  0  0
    8.9601  -16.3225   22.6368 N   0  0  0  0  0  0  0  0  0  0  0  0
    9.3219  -15.3652   24.8380 C   0  0  0  0  0  0  0  0  0  0  0  0
   10.5106  -15.0447   24.7071 O   0  0  0  0  0  0  0  0  0  0  0  0
    6.1961  -13.4803   27.4020 C   0  0  0  0  0  0  0  0  0  0  0  0
    7.3286  -12.7400   26.7426 C   0  0  2  0  0  0  0  0  0  0  0  0
    6.8418  -12.1612   25.4315 C   0  0  0  0  0  0  0  0  0  0  0  0
    8.5757  -13.5878   26.5311 C   0  0  2  0  0  0  0  0  0  0  0  0
    8.3809  -14.6948   25.6175 N   0  0  0  0  0  0  0  0  0  0  0  0
    9.0119  -14.2039   27.7919 C   0  0  0  0  0  0  0  0  0  0  0  0
    8.7550  -15.4126   28.0088 O   0  0  0  0  0  0  0  0  0  0  0  0
    9.6990  -13.5010   28.7559 O   0  0  0  0  0  0  0  0  0  0  0  0
  1  2  1  0
  3  2  1  0
  4  3  1  0
  5  4  1  0
  5  6  1  6
  7  5  1  0
  8  7  2  0
  9 10  1  0
 10 12  1  0
 11 10  2  0
 13 12  1  6
 13 14  1  0
 14  7  1  0
 15 21  1  0
 15 13  1  0
 16 15  2  0
 18 17  1  6
 18 20  1  0
 19 18  1  0
 20 22  1  0
 20 21  1  6
 22 24  1  0
 23 22  2  0
M  END
$$$$
