MNV.pdb
     RDKit          3D

 24 23  0  0  1  0  0  0  0  0999 V2000
    8.7032  -11.5525   19.5666 C   0  0  0  0  0  0  0  0  0  0  0  0
    8.0629  -12.4678   18.1790 S   0  0  0  0  0  0  0  0  0  0  0  0
    8.2520  -14.2361   18.4039 C   0  0  0  0  0  0  0  0  0  0  0  0
    7.7973  -14.7031   19.7348 C   0  0  0  0  0  0  0  0  0  0  0  0
    8.1366  -16.0876   20.1362 C   0  0  2  0  0  0  0  0  0  0  0  0
    7.4537  -17.0986   19.3417 N   0  0  0  0  0  0  0  0  0  0  0  0
    7.6723  -16.2399   21.5675 C   0  0  0  0  0  0  0  0  0  0  0  0
    6.4411  -16.2914   21.8166 O   0  0  0  0  0  0  0  0  0  0  0  0
   10.6441  -18.2125   25.5825 N   0  0  0  0  0  0  0  0  0  0  0  0
    9.8365  -18.0122   24.4121 C   0  0  0  0  0  0  0  0  0  0  0  0
   10.3252  -18.0866   23.2612 O   0  0  0  0  0  0  0  0  0  0  0  0
    8.3995  -17.7129   24.6040 C   0  0  0  0  0  0  0  0  0  0  0  0
    8.0651  -16.3747   23.9993 C   0  0  2  0  0  0  0  0  0  0  0  0
    8.5777  -16.3270   22.6444 N   0  0  0  0  0  0  0  0  0  0  0  0
    8.6824  -15.2694   24.8269 C   0  0  0  0  0  0  0  0  0  0  0  0
    9.8886  -15.0881   24.6149 O   0  0  0  0  0  0  0  0  0  0  0  0
    5.9598  -13.1205   27.5614 C   0  0  0  0  0  0  0  0  0  0  0  0
    7.1693  -12.4941   26.9211 C   0  0  2  0  0  0  0  0  0  0  0  0
    6.7418  -11.7723   25.6612 C   0  0  0  0  0  0  0  0  0  0  0  0
    8.2892  -13.4828   26.6258 C   0  0  2  0  0  0  0  0  0  0  0  0
    7.9005  -14.5554   25.7331 N   0  0  0  0  0  0  0  0  0  0  0  0
    8.7373  -14.1513   27.8554 C   0  0  0  0  0  0  0  0  0  0  0  0
    8.3901  -15.3369   28.0742 O   0  0  0  0  0  0  0  0  0  0  0  0
    9.5316  -13.5227   28.7876 O   0  0  0  0  0  0  0  0  0  0  0  0
  1  2  1  0
  3  2  1  0
  4  3  1  0
  5  4  1  0
  5  6  1  6
  7  5  1  0
  8  7  2  0
  9 10  1  0
 10 12  1  0
 11 10  2  0
 13 12  1  1
 13 14  1  0
 14  7  1  0
 15 21  1  0
 15 13  1  0
 16 15  2  0
 18 17  1  6
 18 20  1  0
 19 18  1  0
 20 22  1  0
 20 21  1  6
 22 24  1  0
 23 22  2  0
M  END
$$$$
