LSC.pdb
     RDKit          3D

 21 20  0  0  1  0  0  0  0  0999 V2000
    9.6049  -13.0285   18.9898 C   0  0  0  0  0  0  0  0  0  0  0  0
    8.1780  -13.5037   19.2392 C   0  0  2  0  0  0  0  0  0  0  0  0
    7.3094  -12.2644   19.4146 C   0  0  0  0  0  0  0  0  0  0  0  0
    8.1829  -14.2628   20.5372 C   0  0  0  0  0  0  0  0  0  0  0  0
    8.9825  -15.4893   20.5178 C   0  0  2  0  0  0  0  0  0  0  0  0
    8.5392  -16.4080   19.4952 N   0  0  0  0  0  0  0  0  0  0  0  0
    9.1165  -16.1927   21.8083 C   0  0  0  0  0  0  0  0  0  0  0  0
    8.0448  -16.6747   22.2961 O   0  0  0  0  0  0  0  0  0  0  0  0
   12.7703  -17.1757   23.4969 O   0  0  0  0  0  0  0  0  0  0  0  0
   11.6302  -17.8830   23.7775 C   0  0  0  0  0  0  0  0  0  0  0  0
   10.3755  -16.9997   23.8377 C   0  0  2  0  0  0  0  0  0  0  0  0
   10.2959  -16.3750   22.5336 N   0  0  0  0  0  0  0  0  0  0  0  0
   10.5863  -16.0263   24.9203 C   0  0  0  0  0  0  0  0  0  0  0  0
   11.0822  -14.9093   24.6805 O   0  0  0  0  0  0  0  0  0  0  0  0
   10.2235  -16.3608   26.2400 N   0  0  0  0  0  0  0  0  0  0  0  0
   10.4771  -15.4075   27.2948 C   0  0  1  0  0  0  0  0  0  0  0  0
    9.2810  -14.4862   27.4991 C   0  0  0  0  0  0  0  0  0  0  0  0
    9.5502  -13.3986   28.9287 S   0  0  0  0  0  0  0  0  0  0  0  0
   10.6748  -16.1498   28.5597 C   0  0  0  0  0  0  0  0  0  0  0  0
   11.2540  -15.5789   29.6845 O   0  0  0  0  0  0  0  0  0  0  0  0
   10.3120  -17.3475   28.6444 O   0  0  0  0  0  0  0  0  0  0  0  0
  2  4  1  0
  2  3  1  1
  2  1  1  0
  5  7  1  0
  5  4  1  0
  5  6  1  6
  7  8  2  0
  9 10  1  0
 11 10  1  6
 12 11  1  0
 12  7  1  0
 13 14  2  0
 13 11  1  0
 15 13  1  0
 16 15  1  0
 16 19  1  0
 17 18  1  0
 16 17  1  1
 19 20  1  0
 21 19  2  0
M  END
$$$$
