LSC.pdb
     RDKit          3D

 21 20  0  0  1  0  0  0  0  0999 V2000
    7.3122  -12.2027   20.5745 C   0  0  0  0  0  0  0  0  0  0  0  0
    8.0688  -13.5063   20.8032 C   0  0  2  0  0  0  0  0  0  0  0  0
    9.3752  -13.4172   20.0247 C   0  0  0  0  0  0  0  0  0  0  0  0
    7.2404  -14.6110   20.2080 C   0  0  0  0  0  0  0  0  0  0  0  0
    7.6971  -15.9602   20.5479 C   0  0  2  0  0  0  0  0  0  0  0  0
    6.9007  -16.9790   19.9045 N   0  0  0  0  0  0  0  0  0  0  0  0
    7.8284  -16.2531   21.9883 C   0  0  0  0  0  0  0  0  0  0  0  0
    6.7424  -16.3090   22.6487 O   0  0  0  0  0  0  0  0  0  0  0  0
   11.1888  -17.8998   23.6645 O   0  0  0  0  0  0  0  0  0  0  0  0
    9.9419  -18.0159   24.2219 C   0  0  0  0  0  0  0  0  0  0  0  0
    9.1106  -16.7300   24.1058 C   0  0  2  0  0  0  0  0  0  0  0  0
    9.0197  -16.4714   22.6838 N   0  0  0  0  0  0  0  0  0  0  0  0
    9.8428  -15.6778   24.8274 C   0  0  0  0  0  0  0  0  0  0  0  0
   10.8202  -15.1121   24.3024 O   0  0  0  0  0  0  0  0  0  0  0  0
    9.4341  -15.3067   26.1237 N   0  0  0  0  0  0  0  0  0  0  0  0
   10.2820  -14.4296   26.8968 C   0  0  1  0  0  0  0  0  0  0  0  0
    9.6791  -13.0340   26.9969 C   0  0  0  0  0  0  0  0  0  0  0  0
    7.8774  -13.1308   27.2051 S   0  0  0  0  0  0  0  0  0  0  0  0
   10.3754  -14.9625   28.2742 C   0  0  0  0  0  0  0  0  0  0  0  0
   11.1843  -14.3933   29.2478 O   0  0  0  0  0  0  0  0  0  0  0  0
    9.7048  -15.9710   28.6006 O   0  0  0  0  0  0  0  0  0  0  0  0
  2  4  1  0
  2  3  1  6
  2  1  1  0
  5  7  1  0
  5  4  1  0
  5  6  1  1
  7  8  2  0
  9 10  1  0
 11 10  1  6
 12 11  1  0
 12  7  1  0
 13 14  2  0
 13 11  1  0
 15 13  1  0
 16 15  1  0
 16 19  1  0
 17 18  1  0
 16 17  1  1
 19 20  1  0
 21 19  2  0
M  END
$$$$
