LSC.pdb
     RDKit          3D

 21 20  0  0  1  0  0  0  0  0999 V2000
    9.4769  -13.3954   19.1086 C   0  0  0  0  0  0  0  0  0  0  0  0
    8.0276  -13.5660   19.5494 C   0  0  2  0  0  0  0  0  0  0  0  0
    7.4357  -12.1724   19.7177 C   0  0  0  0  0  0  0  0  0  0  0  0
    8.0485  -14.2345   20.8961 C   0  0  0  0  0  0  0  0  0  0  0  0
    8.5763  -15.6004   20.8855 C   0  0  2  0  0  0  0  0  0  0  0  0
    7.8011  -16.4733   20.0350 N   0  0  0  0  0  0  0  0  0  0  0  0
    8.7752  -16.2255   22.2074 C   0  0  0  0  0  0  0  0  0  0  0  0
    7.7183  -16.5084   22.8567 O   0  0  0  0  0  0  0  0  0  0  0  0
   12.5694  -17.1285   23.8737 O   0  0  0  0  0  0  0  0  0  0  0  0
   11.4569  -17.9064   24.0638 C   0  0  0  0  0  0  0  0  0  0  0  0
   10.1580  -17.0899   24.1298 C   0  0  2  0  0  0  0  0  0  0  0  0
   10.0009  -16.5306   22.8033 N   0  0  0  0  0  0  0  0  0  0  0  0
   10.3504  -16.0581   25.1606 C   0  0  0  0  0  0  0  0  0  0  0  0
   10.4564  -14.8583   24.8442 O   0  0  0  0  0  0  0  0  0  0  0  0
   10.4148  -16.4311   26.5178 N   0  0  0  0  0  0  0  0  0  0  0  0
   10.6182  -15.4045   27.5131 C   0  0  1  0  0  0  0  0  0  0  0  0
    9.4585  -14.4164   27.5251 C   0  0  0  0  0  0  0  0  0  0  0  0
    9.6187  -13.2616   28.9178 S   0  0  0  0  0  0  0  0  0  0  0  0
   10.6567  -16.0456   28.8463 C   0  0  0  0  0  0  0  0  0  0  0  0
   10.3184  -17.3759   29.0515 O   0  0  0  0  0  0  0  0  0  0  0  0
   11.0067  -15.3795   29.8499 O   0  0  0  0  0  0  0  0  0  0  0  0
  2  4  1  0
  2  3  1  1
  2  1  1  0
  5  7  1  0
  5  4  1  0
  5  6  1  6
  7  8  2  0
  9 10  1  0
 11 10  1  6
 12 11  1  0
 12  7  1  0
 13 14  2  0
 13 11  1  0
 15 13  1  0
 16 15  1  0
 16 19  1  0
 17 18  1  0
 16 17  1  1
 19 20  1  0
 21 19  2  0
M  END
$$$$
