LSC.pdb
     RDKit          3D

 21 20  0  0  1  0  0  0  0  0999 V2000
    6.0887  -12.0786   24.1002 C   0  0  0  0  0  0  0  0  0  0  0  0
    5.9153  -12.6445   25.5051 C   0  0  2  0  0  0  0  0  0  0  0  0
    6.1684  -11.5085   26.4880 C   0  0  0  0  0  0  0  0  0  0  0  0
    6.9844  -13.6835   25.7006 C   0  0  0  0  0  0  0  0  0  0  0  0
    6.7456  -14.9395   24.9865 C   0  0  2  0  0  0  0  0  0  0  0  0
    5.4979  -15.5543   25.3758 N   0  0  0  0  0  0  0  0  0  0  0  0
    7.8380  -15.9302   25.0405 C   0  0  0  0  0  0  0  0  0  0  0  0
    7.8410  -16.7045   26.0500 O   0  0  0  0  0  0  0  0  0  0  0  0
   11.2720  -15.6371   22.6843 O   0  0  0  0  0  0  0  0  0  0  0  0
   10.7526  -16.8829   22.9235 C   0  0  0  0  0  0  0  0  0  0  0  0
    9.9958  -16.9716   24.2568 C   0  0  2  0  0  0  0  0  0  0  0  0
    8.8555  -16.0933   24.0978 N   0  0  0  0  0  0  0  0  0  0  0  0
   10.9198  -16.5162   25.3070 C   0  0  0  0  0  0  0  0  0  0  0  0
   11.2961  -15.3298   25.3490 O   0  0  0  0  0  0  0  0  0  0  0  0
   11.3825  -17.4306   26.2740 N   0  0  0  0  0  0  0  0  0  0  0  0
   11.8045  -16.9290   27.5609 C   0  0  1  0  0  0  0  0  0  0  0  0
   10.6596  -16.2215   28.2749 C   0  0  0  0  0  0  0  0  0  0  0  0
   11.2731  -15.3218   29.7285 S   0  0  0  0  0  0  0  0  0  0  0  0
   12.1990  -18.0785   28.4053 C   0  0  0  0  0  0  0  0  0  0  0  0
   12.9313  -17.9360   29.5757 O   0  0  0  0  0  0  0  0  0  0  0  0
   11.8697  -19.2416   28.0706 O   0  0  0  0  0  0  0  0  0  0  0  0
  2  4  1  0
  2  3  1  1
  2  1  1  0
  5  7  1  0
  5  4  1  0
  5  6  1  1
  7  8  2  0
  9 10  1  0
 11 10  1  6
 12 11  1  0
 12  7  1  0
 13 14  2  0
 13 11  1  0
 15 13  1  0
 16 15  1  0
 16 19  1  0
 17 18  1  0
 16 17  1  1
 19 20  1  0
 21 19  2  0
M  END
$$$$
