LSC.pdb
     RDKit          3D

 21 20  0  0  1  0  0  0  0  0999 V2000
   10.5111  -22.0666   20.4404 C   0  0  0  0  0  0  0  0  0  0  0  0
   10.5213  -20.7889   19.6090 C   0  0  2  0  0  0  0  0  0  0  0  0
   11.0134  -21.1565   18.2149 C   0  0  0  0  0  0  0  0  0  0  0  0
   11.5259  -19.8605   20.2334 C   0  0  0  0  0  0  0  0  0  0  0  0
   11.1790  -18.4410   20.1383 C   0  0  2  0  0  0  0  0  0  0  0  0
   10.9818  -18.0228   18.7699 N   0  0  0  0  0  0  0  0  0  0  0  0
   12.0894  -17.5067   20.8282 C   0  0  0  0  0  0  0  0  0  0  0  0
   12.9372  -16.9071   20.0931 O   0  0  0  0  0  0  0  0  0  0  0  0
   11.9044  -16.7030   24.9545 O   0  0  0  0  0  0  0  0  0  0  0  0
   12.2401  -15.7423   24.0362 C   0  0  0  0  0  0  0  0  0  0  0  0
   13.0201  -16.3034   22.8384 C   0  0  2  0  0  0  0  0  0  0  0  0
   12.1057  -17.2244   22.1959 N   0  0  0  0  0  0  0  0  0  0  0  0
   14.2133  -16.9737   23.3780 C   0  0  0  0  0  0  0  0  0  0  0  0
   14.1873  -18.1876   23.6550 O   0  0  0  0  0  0  0  0  0  0  0  0
   15.3958  -16.2355   23.5827 N   0  0  0  0  0  0  0  0  0  0  0  0
   16.5829  -16.9303   24.0230 C   0  0  1  0  0  0  0  0  0  0  0  0
   17.7110  -16.7827   23.0096 C   0  0  0  0  0  0  0  0  0  0  0  0
   17.9191  -15.0417   22.5357 S   0  0  0  0  0  0  0  0  0  0  0  0
   17.0478  -16.3108   25.2840 C   0  0  0  0  0  0  0  0  0  0  0  0
   18.1135  -16.8104   26.0195 O   0  0  0  0  0  0  0  0  0  0  0  0
   16.4705  -15.2896   25.7282 O   0  0  0  0  0  0  0  0  0  0  0  0
  2  4  1  0
  2  3  1  6
  2  1  1  0
  5  7  1  0
  5  4  1  0
  5  6  1  6
  7  8  2  0
  9 10  1  0
 11 10  1  1
 12 11  1  0
 12  7  1  0
 13 14  2  0
 13 11  1  0
 15 13  1  0
 16 15  1  0
 16 19  1  0
 17 18  1  0
 16 17  1  6
 19 20  1  0
 21 19  2  0
M  END
$$$$
