LSC.pdb
     RDKit          3D

 21 20  0  0  1  0  0  0  0  0999 V2000
    6.6099  -11.9913   24.4737 C   0  0  0  0  0  0  0  0  0  0  0  0
    6.1093  -12.6618   25.7480 C   0  0  2  0  0  0  0  0  0  0  0  0
    6.1914  -11.6316   26.8672 C   0  0  0  0  0  0  0  0  0  0  0  0
    7.0633  -13.7797   26.0660 C   0  0  0  0  0  0  0  0  0  0  0  0
    6.9652  -14.9327   25.1686 C   0  0  2  0  0  0  0  0  0  0  0  0
    5.6444  -15.5170   25.1808 N   0  0  0  0  0  0  0  0  0  0  0  0
    7.9862  -15.9823   25.3528 C   0  0  0  0  0  0  0  0  0  0  0  0
    7.7865  -16.7941   26.3118 O   0  0  0  0  0  0  0  0  0  0  0  0
   11.6117  -15.9038   23.3286 O   0  0  0  0  0  0  0  0  0  0  0  0
   11.0730  -17.1293   23.6235 C   0  0  0  0  0  0  0  0  0  0  0  0
   10.1905  -17.1103   24.8800 C   0  0  2  0  0  0  0  0  0  0  0  0
    9.1362  -16.1635   24.5814 N   0  0  0  0  0  0  0  0  0  0  0  0
   11.0426  -16.6754   25.9976 C   0  0  0  0  0  0  0  0  0  0  0  0
   11.7594  -15.6626   25.8911 O   0  0  0  0  0  0  0  0  0  0  0  0
   11.0472  -17.4114   27.1991 N   0  0  0  0  0  0  0  0  0  0  0  0
   11.8675  -16.9506   28.2948 C   0  0  1  0  0  0  0  0  0  0  0  0
   11.0966  -15.9866   29.1879 C   0  0  0  0  0  0  0  0  0  0  0  0
   10.4196  -14.6138   28.2101 S   0  0  0  0  0  0  0  0  0  0  0  0
   12.2339  -18.1170   29.1286 C   0  0  0  0  0  0  0  0  0  0  0  0
   13.0209  -18.0107   30.2669 O   0  0  0  0  0  0  0  0  0  0  0  0
   11.8282  -19.2616   28.8144 O   0  0  0  0  0  0  0  0  0  0  0  0
  2  4  1  0
  2  3  1  1
  2  1  1  0
  5  7  1  0
  5  4  1  0
  5  6  1  1
  7  8  2  0
  9 10  1  0
 11 10  1  6
 12 11  1  0
 12  7  1  0
 13 14  2  0
 13 11  1  0
 15 13  1  0
 16 15  1  0
 16 19  1  0
 17 18  1  0
 16 17  1  1
 19 20  1  0
 21 19  2  0
M  END
$$$$
