LSC.pdb
     RDKit          3D

 21 20  0  0  1  0  0  0  0  0999 V2000
    9.3034  -12.8496   18.8312 C   0  0  0  0  0  0  0  0  0  0  0  0
    8.0595  -13.6846   19.1133 C   0  0  2  0  0  0  0  0  0  0  0  0
    6.8487  -12.7866   18.8935 C   0  0  0  0  0  0  0  0  0  0  0  0
    8.1027  -14.0695   20.5661 C   0  0  0  0  0  0  0  0  0  0  0  0
    9.2005  -14.9715   20.9208 C   0  0  2  0  0  0  0  0  0  0  0  0
    9.3954  -16.0027   19.9284 N   0  0  0  0  0  0  0  0  0  0  0  0
    9.1341  -15.5700   22.2681 C   0  0  0  0  0  0  0  0  0  0  0  0
    8.3565  -14.9974   23.0964 O   0  0  0  0  0  0  0  0  0  0  0  0
   11.9622  -18.2353   23.8580 O   0  0  0  0  0  0  0  0  0  0  0  0
   10.6271  -18.5070   24.0092 C   0  0  0  0  0  0  0  0  0  0  0  0
    9.7580  -17.2417   24.0489 C   0  0  2  0  0  0  0  0  0  0  0  0
    9.8376  -16.6921   22.7114 N   0  0  0  0  0  0  0  0  0  0  0  0
   10.3418  -16.3504   25.0633 C   0  0  0  0  0  0  0  0  0  0  0  0
   11.2229  -15.5273   24.7519 O   0  0  0  0  0  0  0  0  0  0  0  0
    9.8995  -16.4289   26.3988 N   0  0  0  0  0  0  0  0  0  0  0  0
   10.3974  -15.4676   27.3547 C   0  0  1  0  0  0  0  0  0  0  0  0
    9.3653  -14.3801   27.6255 C   0  0  0  0  0  0  0  0  0  0  0  0
   10.1055  -13.0205   28.5756 S   0  0  0  0  0  0  0  0  0  0  0  0
   10.6406  -16.1650   28.6372 C   0  0  0  0  0  0  0  0  0  0  0  0
   11.3579  -15.5946   29.6795 O   0  0  0  0  0  0  0  0  0  0  0  0
   10.1895  -17.3219   28.8144 O   0  0  0  0  0  0  0  0  0  0  0  0
  2  4  1  0
  2  3  1  1
  2  1  1  0
  5  7  1  0
  5  4  1  0
  5  6  1  6
  7  8  2  0
  9 10  1  0
 11 10  1  6
 12 11  1  0
 12  7  1  0
 13 14  2  0
 13 11  1  0
 15 13  1  0
 16 15  1  0
 16 19  1  0
 17 18  1  0
 16 17  1  1
 19 20  1  0
 21 19  2  0
M  END
$$$$
