LSC.pdb
     RDKit          3D

 21 20  0  0  1  0  0  0  0  0999 V2000
    6.4196  -12.0410   26.3751 C   0  0  0  0  0  0  0  0  0  0  0  0
    6.8185  -13.1562   25.4153 C   0  0  2  0  0  0  0  0  0  0  0  0
    6.5223  -12.6689   24.0027 C   0  0  0  0  0  0  0  0  0  0  0  0
    5.9265  -14.3316   25.7047 C   0  0  0  0  0  0  0  0  0  0  0  0
    6.2586  -15.5431   24.9521 C   0  0  2  0  0  0  0  0  0  0  0  0
    5.3322  -16.6181   25.2211 N   0  0  0  0  0  0  0  0  0  0  0  0
    7.6472  -16.0248   25.0850 C   0  0  0  0  0  0  0  0  0  0  0  0
    7.9650  -16.5087   26.2178 O   0  0  0  0  0  0  0  0  0  0  0  0
   10.6654  -15.0268   22.5476 O   0  0  0  0  0  0  0  0  0  0  0  0
   10.6139  -16.3619   22.8539 C   0  0  0  0  0  0  0  0  0  0  0  0
    9.9238  -16.6434   24.1965 C   0  0  2  0  0  0  0  0  0  0  0  0
    8.6314  -15.9981   24.0944 N   0  0  0  0  0  0  0  0  0  0  0  0
   10.7695  -16.0548   25.2465 C   0  0  0  0  0  0  0  0  0  0  0  0
   10.8529  -14.8188   25.3743 O   0  0  0  0  0  0  0  0  0  0  0  0
   11.4910  -16.8973   26.1154 N   0  0  0  0  0  0  0  0  0  0  0  0
   11.6874  -16.4817   27.4845 C   0  0  1  0  0  0  0  0  0  0  0  0
   10.3899  -15.9609   28.0898 C   0  0  0  0  0  0  0  0  0  0  0  0
   10.4776  -14.1637   28.3373 S   0  0  0  0  0  0  0  0  0  0  0  0
   12.0944  -17.6622   28.2787 C   0  0  0  0  0  0  0  0  0  0  0  0
   13.0591  -17.6026   29.2748 O   0  0  0  0  0  0  0  0  0  0  0  0
   11.5595  -18.7757   28.0616 O   0  0  0  0  0  0  0  0  0  0  0  0
  2  4  1  0
  2  3  1  6
  2  1  1  0
  5  7  1  0
  5  4  1  0
  5  6  1  1
  7  8  2  0
  9 10  1  0
 11 10  1  6
 12 11  1  0
 12  7  1  0
 13 14  2  0
 13 11  1  0
 15 13  1  0
 16 15  1  0
 16 19  1  0
 17 18  1  0
 16 17  1  1
 19 20  1  0
 21 19  2  0
M  END
$$$$
