LSC.pdb
     RDKit          3D

 21 20  0  0  1  0  0  0  0  0999 V2000
    9.3453  -13.2683   18.8761 C   0  0  0  0  0  0  0  0  0  0  0  0
    7.9260  -13.5676   19.3452 C   0  0  2  0  0  0  0  0  0  0  0  0
    7.2137  -12.2326   19.5218 C   0  0  0  0  0  0  0  0  0  0  0  0
    8.0329  -14.2261   20.6927 C   0  0  0  0  0  0  0  0  0  0  0  0
    8.6433  -15.5570   20.6691 C   0  0  2  0  0  0  0  0  0  0  0  0
    7.9202  -16.4688   19.8135 N   0  0  0  0  0  0  0  0  0  0  0  0
    8.8846  -16.1796   21.9852 C   0  0  0  0  0  0  0  0  0  0  0  0
    7.8497  -16.5432   22.6297 O   0  0  0  0  0  0  0  0  0  0  0  0
   12.7236  -16.8771   23.5709 O   0  0  0  0  0  0  0  0  0  0  0  0
   11.6600  -17.7010   23.8333 C   0  0  0  0  0  0  0  0  0  0  0  0
   10.3228  -16.9496   23.9071 C   0  0  2  0  0  0  0  0  0  0  0  0
   10.1282  -16.4030   22.5803 N   0  0  0  0  0  0  0  0  0  0  0  0
   10.4717  -15.9063   24.9335 C   0  0  0  0  0  0  0  0  0  0  0  0
   10.5497  -14.7061   24.6103 O   0  0  0  0  0  0  0  0  0  0  0  0
   10.5259  -16.2685   26.2940 N   0  0  0  0  0  0  0  0  0  0  0  0
   10.5110  -15.2259   27.2932 C   0  0  1  0  0  0  0  0  0  0  0  0
    9.1929  -14.4621   27.2676 C   0  0  0  0  0  0  0  0  0  0  0  0
    9.1082  -13.2892   28.6518 S   0  0  0  0  0  0  0  0  0  0  0  0
   10.6229  -15.8547   28.6282 C   0  0  0  0  0  0  0  0  0  0  0  0
   10.5040  -17.2231   28.8276 O   0  0  0  0  0  0  0  0  0  0  0  0
   10.8342  -15.1421   29.6386 O   0  0  0  0  0  0  0  0  0  0  0  0
  2  4  1  0
  2  3  1  1
  2  1  1  0
  5  7  1  0
  5  4  1  0
  5  6  1  6
  7  8  2  0
  9 10  1  0
 11 10  1  6
 12 11  1  0
 12  7  1  0
 13 14  2  0
 13 11  1  0
 15 13  1  0
 16 15  1  0
 16 19  1  0
 17 18  1  0
 16 17  1  1
 19 20  1  0
 21 19  2  0
M  END
$$$$
