LSC.pdb
     RDKit          3D

 21 20  0  0  1  0  0  0  0  0999 V2000
    9.5209  -13.4542   19.9614 C   0  0  0  0  0  0  0  0  0  0  0  0
    8.2659  -13.5863   19.1061 C   0  0  2  0  0  0  0  0  0  0  0  0
    7.7132  -12.1835   18.8885 C   0  0  0  0  0  0  0  0  0  0  0  0
    7.2625  -14.3688   19.9073 C   0  0  0  0  0  0  0  0  0  0  0  0
    7.7614  -15.6465   20.4199 C   0  0  2  0  0  0  0  0  0  0  0  0
    7.2345  -16.7693   19.6796 N   0  0  0  0  0  0  0  0  0  0  0  0
    7.5933  -15.8702   21.8689 C   0  0  0  0  0  0  0  0  0  0  0  0
    6.3942  -15.9439   22.2877 O   0  0  0  0  0  0  0  0  0  0  0  0
   10.6372  -17.1499   24.3059 O   0  0  0  0  0  0  0  0  0  0  0  0
    9.3194  -17.3675   24.6141 C   0  0  0  0  0  0  0  0  0  0  0  0
    8.4113  -16.1896   24.2319 C   0  0  2  0  0  0  0  0  0  0  0  0
    8.6161  -16.0064   22.8100 N   0  0  0  0  0  0  0  0  0  0  0  0
    8.8546  -15.0306   25.0221 C   0  0  0  0  0  0  0  0  0  0  0  0
    9.8624  -14.3816   24.6844 O   0  0  0  0  0  0  0  0  0  0  0  0
    8.1321  -14.6517   26.1708 N   0  0  0  0  0  0  0  0  0  0  0  0
    8.6551  -13.5954   27.0053 C   0  0  1  0  0  0  0  0  0  0  0  0
    7.5674  -12.5896   27.3611 C   0  0  0  0  0  0  0  0  0  0  0  0
    5.9382  -13.3921   27.3808 S   0  0  0  0  0  0  0  0  0  0  0  0
    9.1276  -14.1916   28.2747 C   0  0  0  0  0  0  0  0  0  0  0  0
    8.9790  -15.5386   28.5744 O   0  0  0  0  0  0  0  0  0  0  0  0
    9.6897  -13.4698   29.1328 O   0  0  0  0  0  0  0  0  0  0  0  0
  2  4  1  0
  2  3  1  1
  2  1  1  0
  5  7  1  0
  5  4  1  0
  5  6  1  6
  7  8  2  0
  9 10  1  0
 11 10  1  1
 12 11  1  0
 12  7  1  0
 13 14  2  0
 13 11  1  0
 15 13  1  0
 16 15  1  0
 16 19  1  0
 17 18  1  0
 16 17  1  1
 19 20  1  0
 21 19  2  0
M  END
$$$$
