LSC.pdb
     RDKit          3D

 21 20  0  0  1  0  0  0  0  0999 V2000
    9.3471  -13.2929   19.1318 C   0  0  0  0  0  0  0  0  0  0  0  0
    7.8742  -13.5655   19.4154 C   0  0  2  0  0  0  0  0  0  0  0  0
    7.1786  -12.2165   19.5472 C   0  0  0  0  0  0  0  0  0  0  0  0
    7.7998  -14.2654   20.7441 C   0  0  0  0  0  0  0  0  0  0  0  0
    8.3755  -15.6118   20.7519 C   0  0  2  0  0  0  0  0  0  0  0  0
    7.5994  -16.5366   19.9590 N   0  0  0  0  0  0  0  0  0  0  0  0
    8.6484  -16.1891   22.0824 C   0  0  0  0  0  0  0  0  0  0  0  0
    7.6289  -16.4665   22.7912 O   0  0  0  0  0  0  0  0  0  0  0  0
   12.5410  -16.8161   23.6728 O   0  0  0  0  0  0  0  0  0  0  0  0
   11.4922  -17.6698   23.8968 C   0  0  0  0  0  0  0  0  0  0  0  0
   10.1376  -16.9501   23.9687 C   0  0  2  0  0  0  0  0  0  0  0  0
    9.9064  -16.4550   22.6276 N   0  0  0  0  0  0  0  0  0  0  0  0
   10.2770  -15.8684   24.9559 C   0  0  0  0  0  0  0  0  0  0  0  0
   10.2908  -14.6772   24.5928 O   0  0  0  0  0  0  0  0  0  0  0  0
   10.3954  -16.1832   26.3241 N   0  0  0  0  0  0  0  0  0  0  0  0
   10.4465  -15.1059   27.2846 C   0  0  1  0  0  0  0  0  0  0  0  0
    9.1462  -14.3119   27.2861 C   0  0  0  0  0  0  0  0  0  0  0  0
    9.1508  -13.0829   28.6234 S   0  0  0  0  0  0  0  0  0  0  0  0
   10.6008  -15.6897   28.6356 C   0  0  0  0  0  0  0  0  0  0  0  0
   10.4760  -17.0491   28.8866 O   0  0  0  0  0  0  0  0  0  0  0  0
   10.8555  -14.9453   29.6125 O   0  0  0  0  0  0  0  0  0  0  0  0
  2  4  1  0
  2  3  1  1
  2  1  1  0
  5  7  1  0
  5  4  1  0
  5  6  1  1
  7  8  2  0
  9 10  1  0
 11 10  1  6
 12 11  1  0
 12  7  1  0
 13 14  2  0
 13 11  1  0
 15 13  1  0
 16 15  1  0
 16 19  1  0
 17 18  1  0
 16 17  1  1
 19 20  1  0
 21 19  2  0
M  END
$$$$
