LSC.pdb
     RDKit          3D

 21 20  0  0  1  0  0  0  0  0999 V2000
    6.1879  -12.3150   24.1708 C   0  0  0  0  0  0  0  0  0  0  0  0
    6.0145  -12.8773   25.5771 C   0  0  2  0  0  0  0  0  0  0  0  0
    6.2371  -11.7316   26.5563 C   0  0  0  0  0  0  0  0  0  0  0  0
    7.1026  -13.8938   25.7865 C   0  0  0  0  0  0  0  0  0  0  0  0
    6.9411  -15.1225   25.0065 C   0  0  2  0  0  0  0  0  0  0  0  0
    5.6925  -15.7878   25.2976 N   0  0  0  0  0  0  0  0  0  0  0  0
    8.0577  -16.0846   25.0796 C   0  0  0  0  0  0  0  0  0  0  0  0
    8.0872  -16.8295   26.1106 O   0  0  0  0  0  0  0  0  0  0  0  0
   11.4492  -15.8393   22.6294 O   0  0  0  0  0  0  0  0  0  0  0  0
   10.9462  -17.0743   22.9468 C   0  0  0  0  0  0  0  0  0  0  0  0
   10.2314  -17.1000   24.3057 C   0  0  2  0  0  0  0  0  0  0  0  0
    9.0717  -16.2500   24.1336 N   0  0  0  0  0  0  0  0  0  0  0  0
   11.1784  -16.5717   25.2999 C   0  0  0  0  0  0  0  0  0  0  0  0
   11.6654  -15.4330   25.1686 O   0  0  0  0  0  0  0  0  0  0  0  0
   11.5370  -17.3612   26.4105 N   0  0  0  0  0  0  0  0  0  0  0  0
   11.5848  -16.7455   27.7160 C   0  0  1  0  0  0  0  0  0  0  0  0
   10.3288  -15.9246   27.9803 C   0  0  0  0  0  0  0  0  0  0  0  0
   10.6574  -14.6364   29.2179 S   0  0  0  0  0  0  0  0  0  0  0  0
   11.6276  -17.8155   28.7374 C   0  0  0  0  0  0  0  0  0  0  0  0
   12.3453  -17.6990   29.9196 O   0  0  0  0  0  0  0  0  0  0  0  0
   10.9965  -18.8833   28.5502 O   0  0  0  0  0  0  0  0  0  0  0  0
  2  4  1  0
  2  3  1  1
  2  1  1  0
  5  7  1  0
  5  4  1  0
  5  6  1  1
  7  8  2  0
  9 10  1  0
 11 10  1  6
 12 11  1  0
 12  7  1  0
 13 14  2  0
 13 11  1  0
 15 13  1  0
 16 15  1  0
 16 19  1  0
 17 18  1  0
 16 17  1  1
 19 20  1  0
 21 19  2  0
M  END
$$$$
