LSC.pdb
     RDKit          3D

 21 20  0  0  1  0  0  0  0  0999 V2000
    8.0482  -13.4566   21.0838 C   0  0  0  0  0  0  0  0  0  0  0  0
    8.5623  -13.8567   19.7056 C   0  0  2  0  0  0  0  0  0  0  0  0
    8.1474  -12.7631   18.7295 C   0  0  0  0  0  0  0  0  0  0  0  0
    7.8551  -15.1261   19.3189 C   0  0  0  0  0  0  0  0  0  0  0  0
    8.0835  -16.2482   20.2316 C   0  0  2  0  0  0  0  0  0  0  0  0
    7.7122  -17.5119   19.6388 N   0  0  0  0  0  0  0  0  0  0  0  0
    7.4825  -16.1211   21.5734 C   0  0  0  0  0  0  0  0  0  0  0  0
    6.2156  -16.0106   21.6103 O   0  0  0  0  0  0  0  0  0  0  0  0
    8.7023  -17.9599   24.8576 O   0  0  0  0  0  0  0  0  0  0  0  0
    7.4681  -17.4022   24.6461 C   0  0  0  0  0  0  0  0  0  0  0  0
    7.5428  -15.9731   24.0893 C   0  0  2  0  0  0  0  0  0  0  0  0
    8.1679  -16.1108   22.7903 N   0  0  0  0  0  0  0  0  0  0  0  0
    8.3570  -15.1871   25.0293 C   0  0  0  0  0  0  0  0  0  0  0  0
    9.5905  -15.1014   24.8809 O   0  0  0  0  0  0  0  0  0  0  0  0
    7.7351  -14.5253   26.1066 N   0  0  0  0  0  0  0  0  0  0  0  0
    8.5452  -13.7190   26.9895 C   0  0  1  0  0  0  0  0  0  0  0  0
    7.6864  -12.7350   27.7740 C   0  0  0  0  0  0  0  0  0  0  0  0
    6.3367  -12.0993   26.7381 S   0  0  0  0  0  0  0  0  0  0  0  0
    9.1942  -14.6115   27.9755 C   0  0  0  0  0  0  0  0  0  0  0  0
   10.1392  -14.1637   28.8881 O   0  0  0  0  0  0  0  0  0  0  0  0
    8.8946  -15.8291   28.0082 O   0  0  0  0  0  0  0  0  0  0  0  0
  2  4  1  0
  2  3  1  6
  2  1  1  0
  5  7  1  0
  5  4  1  0
  5  6  1  6
  7  8  2  0
  9 10  1  0
 11 10  1  1
 12 11  1  0
 12  7  1  0
 13 14  2  0
 13 11  1  0
 15 13  1  0
 16 15  1  0
 16 19  1  0
 17 18  1  0
 16 17  1  1
 19 20  1  0
 21 19  2  0
M  END
$$$$
