VYH.pdb
     RDKit          3D

 30 31  0  0  1  0  0  0  0  0999 V2000
   44.6136   -8.9470   -7.0401 C   0  0  0  0  0  0  0  0  0  0  0  0
   43.9367  -10.0336   -6.1895 C   0  0  2  0  0  0  0  0  0  0  0  0
   45.0328  -10.9730   -5.7699 C   0  0  0  0  0  0  0  0  0  0  0  0
   42.9281  -10.6828   -7.1145 C   0  0  2  0  0  0  0  0  0  0  0  0
   43.7208  -11.1108   -8.2848 N   0  0  0  0  0  0  0  0  0  0  0  0
   41.8987   -9.7532   -7.6119 C   0  0  0  0  0  0  0  0  0  0  0  0
   42.0299   -9.2602   -8.7516 O   0  0  0  0  0  0  0  0  0  0  0  0
   37.4114  -12.4743  -11.6396 O   0  0  0  0  0  0  0  0  0  0  0  0
   37.6347  -11.5940  -10.5947 C   0  0  0  0  0  0  0  0  0  0  0  0
   37.6971  -12.0189   -9.2861 C   0  0  0  0  0  0  0  0  0  0  0  0
   37.9182  -11.1495   -8.2477 C   0  0  0  0  0  0  0  0  0  0  0  0
   38.0927   -9.7757   -8.4689 C   0  0  0  0  0  0  0  0  0  0  0  0
   38.3421   -8.8747   -7.3029 C   0  0  0  0  0  0  0  0  0  0  0  0
   39.7817   -8.3885   -7.2458 C   0  0  2  0  0  0  0  0  0  0  0  0
   40.7420   -9.3688   -6.8744 N   0  0  0  0  0  0  0  0  0  0  0  0
   39.9311   -7.0724   -6.6067 C   0  0  0  0  0  0  0  0  0  0  0  0
   39.2526   -6.0858   -6.9934 O   0  0  0  0  0  0  0  0  0  0  0  0
   38.0289   -9.3648   -9.7753 C   0  0  0  0  0  0  0  0  0  0  0  0
   37.8034  -10.2528  -10.8307 C   0  0  0  0  0  0  0  0  0  0  0  0
   40.8309   -6.8221   -5.5307 N   0  0  0  0  0  0  0  0  0  0  0  0
   41.0237   -5.5159   -4.9503 C   0  0  1  0  0  0  0  0  0  0  0  0
   41.8645   -5.6655   -3.6934 C   0  0  0  0  0  0  0  0  0  0  0  0
   42.0370   -4.3434   -3.0303 C   0  0  0  0  0  0  0  0  0  0  0  0
   41.3362   -3.1833   -3.2943 C   0  0  0  0  0  0  0  0  0  0  0  0
   41.8138   -2.2358   -2.4677 N   0  0  0  0  0  0  0  0  0  0  0  0
   42.7929   -2.7711   -1.6951 C   0  0  0  0  0  0  0  0  0  0  0  0
   42.9172   -4.0522   -2.0483 N   0  0  0  0  0  0  0  0  0  0  0  0
   41.6793   -4.5833   -5.8782 C   0  0  0  0  0  0  0  0  0  0  0  0
   41.1921   -3.4401   -6.0650 O   0  0  0  0  0  0  0  0  0  0  0  0
   42.8283   -4.9114   -6.5676 O   0  0  0  0  0  0  0  0  0  0  0  0
  2  4  1  0
  2  3  1  6
  2  1  1  0
  4  5  1  6
  6  4  1  0
  6  7  2  0
  8  9  1  0
  9 19  2  0
  9 10  1  0
 10 11  2  0
 11 12  1  0
 12 13  1  0
 14 13  1  1
 14 15  1  0
 15  6  1  0
 16 14  1  0
 16 20  1  0
 17 16  2  0
 18 12  2  0
 19 18  1  0
 21 20  1  0
 21 28  1  0
 22 23  1  0
 21 22  1  1
 23 27  1  0
 24 25  1  0
 24 23  2  0
 25 26  1  0
 26 27  2  0
 28 29  2  0
 28 30  1  0
M  END
$$$$
