VYH.pdb
     RDKit          3D

 30 31  0  0  1  0  0  0  0  0999 V2000
   31.0307  -21.5214   -8.1517 C   0  0  0  0  0  0  0  0  0  0  0  0
   31.0678  -22.4914   -9.3436 C   0  0  2  0  0  0  0  0  0  0  0  0
   32.4903  -22.4957   -9.8293 C   0  0  0  0  0  0  0  0  0  0  0  0
   30.1031  -21.9063  -10.3542 C   0  0  2  0  0  0  0  0  0  0  0  0
   30.6055  -20.5389  -10.5970 N   0  0  0  0  0  0  0  0  0  0  0  0
   28.7259  -21.7724   -9.8477 C   0  0  0  0  0  0  0  0  0  0  0  0
   28.0410  -22.8030   -9.6801 O   0  0  0  0  0  0  0  0  0  0  0  0
   29.6628  -20.5190   -3.3709 O   0  0  0  0  0  0  0  0  0  0  0  0
   28.9015  -20.2338   -4.4916 C   0  0  0  0  0  0  0  0  0  0  0  0
   29.2153  -19.1945   -5.3390 C   0  0  0  0  0  0  0  0  0  0  0  0
   28.4632  -18.9086   -6.4506 C   0  0  0  0  0  0  0  0  0  0  0  0
   27.3300  -19.6656   -6.7811 C   0  0  0  0  0  0  0  0  0  0  0  0
   26.5532  -19.3182   -8.0098 C   0  0  0  0  0  0  0  0  0  0  0  0
   26.7575  -20.3285   -9.1277 C   0  0  2  0  0  0  0  0  0  0  0  0
   28.1065  -20.5298   -9.5283 N   0  0  0  0  0  0  0  0  0  0  0  0
   25.7784  -20.2027  -10.2177 C   0  0  0  0  0  0  0  0  0  0  0  0
   25.2506  -19.0926  -10.4871 O   0  0  0  0  0  0  0  0  0  0  0  0
   27.0278  -20.6975   -5.9305 C   0  0  0  0  0  0  0  0  0  0  0  0
   27.7958  -20.9860   -4.7991 C   0  0  0  0  0  0  0  0  0  0  0  0
   25.3647  -21.2986  -11.0289 N   0  0  0  0  0  0  0  0  0  0  0  0
   24.4737  -21.1559  -12.1540 C   0  0  1  0  0  0  0  0  0  0  0  0
   24.3635  -22.4991  -12.8559 C   0  0  0  0  0  0  0  0  0  0  0  0
   23.4173  -22.4040  -14.0018 C   0  0  0  0  0  0  0  0  0  0  0  0
   22.7561  -21.2746  -14.4423 C   0  0  0  0  0  0  0  0  0  0  0  0
   22.0078  -21.6409  -15.4982 N   0  0  0  0  0  0  0  0  0  0  0  0
   22.1828  -22.9667  -15.7298 C   0  0  0  0  0  0  0  0  0  0  0  0
   23.0419  -23.4166  -14.8126 N   0  0  0  0  0  0  0  0  0  0  0  0
   23.1370  -20.6939  -11.7534 C   0  0  0  0  0  0  0  0  0  0  0  0
   22.5453  -19.8213  -12.4370 O   0  0  0  0  0  0  0  0  0  0  0  0
   22.4886  -21.1840  -10.6387 O   0  0  0  0  0  0  0  0  0  0  0  0
  2  4  1  0
  2  3  1  6
  2  1  1  0
  4  5  1  1
  6  4  1  0
  6  7  2  0
  8  9  1  0
  9 19  2  0
  9 10  1  0
 10 11  2  0
 11 12  1  0
 12 13  1  0
 14 13  1  6
 14 15  1  0
 15  6  1  0
 16 14  1  0
 16 20  1  0
 17 16  2  0
 18 12  2  0
 19 18  1  0
 21 20  1  0
 21 28  1  0
 22 23  1  0
 21 22  1  1
 23 27  1  0
 24 25  1  0
 24 23  2  0
 25 26  1  0
 26 27  2  0
 28 29  2  0
 28 30  1  0
M  END
$$$$
