VYH.pdb
     RDKit          3D

 30 31  0  0  1  0  0  0  0  0999 V2000
   22.4367  -24.2524  -20.6536 C   0  0  0  0  0  0  0  0  0  0  0  0
   21.8049  -25.5059  -20.0273 C   0  0  2  0  0  0  0  0  0  0  0  0
   20.4635  -25.6664  -20.6866 C   0  0  0  0  0  0  0  0  0  0  0  0
   21.6998  -25.1939  -18.5488 C   0  0  2  0  0  0  0  0  0  0  0  0
   21.0431  -23.8722  -18.4950 N   0  0  0  0  0  0  0  0  0  0  0  0
   23.0054  -25.0504  -17.8809 C   0  0  0  0  0  0  0  0  0  0  0  0
   23.7818  -24.1487  -18.2597 O   0  0  0  0  0  0  0  0  0  0  0  0
   21.2528  -20.7839  -14.0528 O   0  0  0  0  0  0  0  0  0  0  0  0
   22.0747  -21.8857  -14.2180 C   0  0  0  0  0  0  0  0  0  0  0  0
   23.4393  -21.7612  -14.3565 C   0  0  0  0  0  0  0  0  0  0  0  0
   24.2572  -22.8507  -14.5205 C   0  0  0  0  0  0  0  0  0  0  0  0
   23.7407  -24.1541  -14.5555 C   0  0  0  0  0  0  0  0  0  0  0  0
   24.6776  -25.3061  -14.7248 C   0  0  0  0  0  0  0  0  0  0  0  0
   24.7147  -25.8152  -16.1572 C   0  0  2  0  0  0  0  0  0  0  0  0
   23.4555  -25.8800  -16.8138 N   0  0  0  0  0  0  0  0  0  0  0  0
   25.5937  -26.9794  -16.3430 C   0  0  0  0  0  0  0  0  0  0  0  0
   25.1142  -28.1292  -16.5205 O   0  0  0  0  0  0  0  0  0  0  0  0
   22.3813  -24.2654  -14.4163 C   0  0  0  0  0  0  0  0  0  0  0  0
   21.5510  -23.1537  -14.2496 C   0  0  0  0  0  0  0  0  0  0  0  0
   27.0161  -26.8956  -16.3361 N   0  0  0  0  0  0  0  0  0  0  0  0
   27.8751  -28.0324  -16.5595 C   0  0  1  0  0  0  0  0  0  0  0  0
   27.3095  -29.2213  -15.8007 C   0  0  0  0  0  0  0  0  0  0  0  0
   28.1965  -30.4058  -15.9665 C   0  0  0  0  0  0  0  0  0  0  0  0
   29.4308  -30.4401  -16.5847 C   0  0  0  0  0  0  0  0  0  0  0  0
   29.8771  -31.7065  -16.5072 N   0  0  0  0  0  0  0  0  0  0  0  0
   28.9568  -32.4642  -15.8583 C   0  0  0  0  0  0  0  0  0  0  0  0
   27.9413  -31.6601  -15.5359 N   0  0  0  0  0  0  0  0  0  0  0  0
   27.9998  -28.3672  -17.9853 C   0  0  0  0  0  0  0  0  0  0  0  0
   28.6942  -29.3532  -18.3385 O   0  0  0  0  0  0  0  0  0  0  0  0
   27.3771  -27.6340  -18.9742 O   0  0  0  0  0  0  0  0  0  0  0  0
  2  4  1  0
  2  3  1  6
  2  1  1  0
  4  5  1  6
  6  4  1  0
  6  7  2  0
  8  9  1  0
  9 19  2  0
  9 10  1  0
 10 11  2  0
 11 12  1  0
 12 13  1  0
 14 13  1  1
 14 15  1  0
 15  6  1  0
 16 14  1  0
 16 20  1  0
 17 16  2  0
 18 12  2  0
 19 18  1  0
 21 20  1  0
 21 28  1  0
 22 23  1  0
 21 22  1  1
 23 27  1  0
 24 25  1  0
 24 23  2  0
 25 26  1  0
 26 27  2  0
 28 29  2  0
 28 30  1  0
M  END
$$$$
