VYH.pdb
     RDKit          3D

 30 31  0  0  1  0  0  0  0  0999 V2000
   20.0379  -12.3150  -17.4448 C   0  0  0  0  0  0  0  0  0  0  0  0
   21.0586  -12.3934  -18.5914 C   0  0  2  0  0  0  0  0  0  0  0  0
   20.7615  -13.6724  -19.3230 C   0  0  0  0  0  0  0  0  0  0  0  0
   22.4116  -12.4061  -17.9105 C   0  0  2  0  0  0  0  0  0  0  0  0
   22.3883  -13.6157  -17.0633 N   0  0  0  0  0  0  0  0  0  0  0  0
   22.6319  -11.2590  -17.0122 C   0  0  0  0  0  0  0  0  0  0  0  0
   22.1478  -11.2910  -15.8617 O   0  0  0  0  0  0  0  0  0  0  0  0
   28.9489  -12.4680  -16.1606 O   0  0  0  0  0  0  0  0  0  0  0  0
   27.9853  -11.4796  -16.2664 C   0  0  0  0  0  0  0  0  0  0  0  0
   27.4579  -10.8560  -15.1575 C   0  0  0  0  0  0  0  0  0  0  0  0
   26.5027   -9.8760  -15.2582 C   0  0  0  0  0  0  0  0  0  0  0  0
   26.0126   -9.4580  -16.5040 C   0  0  0  0  0  0  0  0  0  0  0  0
   24.9805   -8.3784  -16.5572 C   0  0  0  0  0  0  0  0  0  0  0  0
   23.5646   -8.9326  -16.5698 C   0  0  2  0  0  0  0  0  0  0  0  0
   23.3716  -10.0941  -17.3664 N   0  0  0  0  0  0  0  0  0  0  0  0
   22.5299   -7.8946  -16.6909 C   0  0  0  0  0  0  0  0  0  0  0  0
   22.2561   -7.3826  -17.8073 O   0  0  0  0  0  0  0  0  0  0  0  0
   26.5452  -10.0857  -17.6003 C   0  0  0  0  0  0  0  0  0  0  0  0
   27.5179  -11.0835  -17.4943 C   0  0  0  0  0  0  0  0  0  0  0  0
   21.7797   -7.4038  -15.5835 N   0  0  0  0  0  0  0  0  0  0  0  0
   20.6731   -6.4892  -15.7225 C   0  0  1  0  0  0  0  0  0  0  0  0
   19.6511   -7.1074  -16.6618 C   0  0  0  0  0  0  0  0  0  0  0  0
   18.5308   -6.1559  -16.9002 C   0  0  0  0  0  0  0  0  0  0  0  0
   18.6091   -4.7787  -16.9633 C   0  0  0  0  0  0  0  0  0  0  0  0
   17.3654   -4.3219  -17.1950 N   0  0  0  0  0  0  0  0  0  0  0  0
   16.5126   -5.3746  -17.2784 C   0  0  0  0  0  0  0  0  0  0  0  0
   17.2352   -6.4821  -17.0973 N   0  0  0  0  0  0  0  0  0  0  0  0
   20.0390   -6.1791  -14.4332 C   0  0  0  0  0  0  0  0  0  0  0  0
   20.4095   -6.7788  -13.3930 O   0  0  0  0  0  0  0  0  0  0  0  0
   19.0351   -5.2409  -14.3096 O   0  0  0  0  0  0  0  0  0  0  0  0
  2  4  1  0
  2  3  1  1
  2  1  1  0
  4  5  1  1
  6  4  1  0
  6  7  2  0
  8  9  1  0
  9 19  2  0
  9 10  1  0
 10 11  2  0
 11 12  1  0
 12 13  1  0
 14 13  1  6
 14 15  1  0
 15  6  1  0
 16 14  1  0
 16 20  1  0
 17 16  2  0
 18 12  2  0
 19 18  1  0
 21 20  1  0
 21 28  1  0
 22 23  1  0
 21 22  1  6
 23 27  1  0
 24 25  1  0
 24 23  2  0
 25 26  1  0
 26 27  2  0
 28 29  2  0
 28 30  1  0
M  END
$$$$
