VYH.pdb
     RDKit          3D

 30 31  0  0  1  0  0  0  0  0999 V2000
   26.1893  -11.2305  -15.4825 C   0  0  0  0  0  0  0  0  0  0  0  0
   25.7669  -11.4354  -16.9462 C   0  0  2  0  0  0  0  0  0  0  0  0
   26.6482  -12.5291  -17.4818 C   0  0  0  0  0  0  0  0  0  0  0  0
   26.0149  -10.0995  -17.6156 C   0  0  2  0  0  0  0  0  0  0  0  0
   27.4351   -9.8043  -17.3379 N   0  0  0  0  0  0  0  0  0  0  0  0
   25.2279   -8.9949  -17.0399 C   0  0  0  0  0  0  0  0  0  0  0  0
   25.6011   -8.4843  -15.9632 O   0  0  0  0  0  0  0  0  0  0  0  0
   28.4320   -3.6975  -16.8589 O   0  0  0  0  0  0  0  0  0  0  0  0
   27.1950   -4.2813  -17.0729 C   0  0  0  0  0  0  0  0  0  0  0  0
   26.1648   -4.1557  -16.1675 C   0  0  0  0  0  0  0  0  0  0  0  0
   24.9375   -4.7329  -16.3759 C   0  0  0  0  0  0  0  0  0  0  0  0
   24.6694   -5.4845  -17.5291 C   0  0  0  0  0  0  0  0  0  0  0  0
   23.3115   -6.0818  -17.7115 C   0  0  0  0  0  0  0  0  0  0  0  0
   23.1973   -7.4609  -17.0814 C   0  0  2  0  0  0  0  0  0  0  0  0
   24.0502   -8.4556  -17.6330 N   0  0  0  0  0  0  0  0  0  0  0  0
   21.8096   -7.8767  -16.8284 C   0  0  0  0  0  0  0  0  0  0  0  0
   21.0355   -8.1571  -17.7800 O   0  0  0  0  0  0  0  0  0  0  0  0
   25.7021   -5.6022  -18.4230 C   0  0  0  0  0  0  0  0  0  0  0  0
   26.9511   -5.0132  -18.2077 C   0  0  0  0  0  0  0  0  0  0  0  0
   21.2521   -7.9904  -15.5221 N   0  0  0  0  0  0  0  0  0  0  0  0
   19.9015   -8.4323  -15.2758 C   0  0  1  0  0  0  0  0  0  0  0  0
   19.9070   -9.3489  -14.0639 C   0  0  0  0  0  0  0  0  0  0  0  0
   20.3146  -10.7246  -14.4619 C   0  0  0  0  0  0  0  0  0  0  0  0
   20.6368  -11.1615  -15.7316 C   0  0  0  0  0  0  0  0  0  0  0  0
   20.9437  -12.4675  -15.6346 N   0  0  0  0  0  0  0  0  0  0  0  0
   20.8224  -12.8587  -14.3406 C   0  0  0  0  0  0  0  0  0  0  0  0
   20.4395  -11.7889  -13.6401 N   0  0  0  0  0  0  0  0  0  0  0  0
   18.9795   -7.3107  -15.0460 C   0  0  0  0  0  0  0  0  0  0  0  0
   19.4344   -6.1760  -14.7554 O   0  0  0  0  0  0  0  0  0  0  0  0
   17.6099   -7.4489  -15.1364 O   0  0  0  0  0  0  0  0  0  0  0  0
  2  4  1  0
  2  3  1  6
  2  1  1  0
  4  5  1  1
  6  4  1  0
  6  7  2  0
  8  9  1  0
  9 19  2  0
  9 10  1  0
 10 11  2  0
 11 12  1  0
 12 13  1  0
 14 13  1  6
 14 15  1  0
 15  6  1  0
 16 14  1  0
 16 20  1  0
 17 16  2  0
 18 12  2  0
 19 18  1  0
 21 20  1  0
 21 28  1  0
 22 23  1  0
 21 22  1  1
 23 27  1  0
 24 25  1  0
 24 23  2  0
 25 26  1  0
 26 27  2  0
 28 29  2  0
 28 30  1  0
M  END
$$$$
