VYH.pdb
     RDKit          3D

 30 31  0  0  1  0  0  0  0  0999 V2000
   19.3471   -7.8209  -19.8803 C   0  0  0  0  0  0  0  0  0  0  0  0
   20.6870   -7.0854  -20.0429 C   0  0  2  0  0  0  0  0  0  0  0  0
   21.2792   -7.5848  -21.3312 C   0  0  0  0  0  0  0  0  0  0  0  0
   21.5011   -7.4823  -18.8288 C   0  0  2  0  0  0  0  0  0  0  0  0
   21.4712   -8.9589  -18.8296 N   0  0  0  0  0  0  0  0  0  0  0  0
   20.9106   -7.0433  -17.5522 C   0  0  0  0  0  0  0  0  0  0  0  0
   20.0817   -7.7842  -16.9836 O   0  0  0  0  0  0  0  0  0  0  0  0
   22.6705  -10.7779  -12.9841 O   0  0  0  0  0  0  0  0  0  0  0  0
   22.3907   -9.4689  -13.3374 C   0  0  0  0  0  0  0  0  0  0  0  0
   23.1133   -8.8059  -14.3044 C   0  0  0  0  0  0  0  0  0  0  0  0
   22.8391   -7.5085  -14.6572 C   0  0  0  0  0  0  0  0  0  0  0  0
   21.8024   -6.7882  -14.0465 C   0  0  0  0  0  0  0  0  0  0  0  0
   21.5391   -5.3814  -14.4769 C   0  0  0  0  0  0  0  0  0  0  0  0
   20.6475   -5.3105  -15.7066 C   0  0  2  0  0  0  0  0  0  0  0  0
   21.2223   -5.8125  -16.9060 N   0  0  0  0  0  0  0  0  0  0  0  0
   19.9186   -4.0392  -15.8298 C   0  0  0  0  0  0  0  0  0  0  0  0
   20.5239   -2.9719  -16.1093 O   0  0  0  0  0  0  0  0  0  0  0  0
   21.0900   -7.4585  -13.0859 C   0  0  0  0  0  0  0  0  0  0  0  0
   21.3718   -8.7800  -12.7287 C   0  0  0  0  0  0  0  0  0  0  0  0
   18.5104   -3.9231  -15.6468 N   0  0  0  0  0  0  0  0  0  0  0  0
   17.7828   -2.6988  -15.8747 C   0  0  1  0  0  0  0  0  0  0  0  0
   16.7310   -2.9538  -16.9413 C   0  0  0  0  0  0  0  0  0  0  0  0
   17.3837   -3.2336  -18.2501 C   0  0  0  0  0  0  0  0  0  0  0  0
   17.9220   -4.4336  -18.6709 C   0  0  0  0  0  0  0  0  0  0  0  0
   18.4041   -4.2376  -19.9112 N   0  0  0  0  0  0  0  0  0  0  0  0
   18.1823   -2.9495  -20.2770 C   0  0  0  0  0  0  0  0  0  0  0  0
   17.5616   -2.3520  -19.2576 N   0  0  0  0  0  0  0  0  0  0  0  0
   17.1391   -2.1955  -14.6528 C   0  0  0  0  0  0  0  0  0  0  0  0
   17.1386   -2.8977  -13.6107 O   0  0  0  0  0  0  0  0  0  0  0  0
   16.5228   -0.9625  -14.5958 O   0  0  0  0  0  0  0  0  0  0  0  0
  2  4  1  0
  2  3  1  6
  2  1  1  0
  4  5  1  1
  6  4  1  0
  6  7  2  0
  8  9  1  0
  9 19  2  0
  9 10  1  0
 10 11  2  0
 11 12  1  0
 12 13  1  0
 14 13  1  1
 14 15  1  0
 15  6  1  0
 16 14  1  0
 16 20  1  0
 17 16  2  0
 18 12  2  0
 19 18  1  0
 21 20  1  0
 21 28  1  0
 22 23  1  0
 21 22  1  6
 23 27  1  0
 24 25  1  0
 24 23  2  0
 25 26  1  0
 26 27  2  0
 28 29  2  0
 28 30  1  0
M  END
$$$$
