VYH.pdb
     RDKit          3D

 30 31  0  0  1  0  0  0  0  0999 V2000
   19.6258  -10.4109  -15.7094 C   0  0  0  0  0  0  0  0  0  0  0  0
   18.4079   -9.7847  -15.0114 C   0  0  2  0  0  0  0  0  0  0  0  0
   18.7983   -8.3692  -14.6893 C   0  0  0  0  0  0  0  0  0  0  0  0
   18.1885  -10.6302  -13.7740 C   0  0  2  0  0  0  0  0  0  0  0  0
   17.9723  -11.9961  -14.2925 N   0  0  0  0  0  0  0  0  0  0  0  0
   16.9796  -10.2645  -13.0151 C   0  0  0  0  0  0  0  0  0  0  0  0
   15.8593  -10.4806  -13.5226 O   0  0  0  0  0  0  0  0  0  0  0  0
   11.2964   -7.3242   -6.8337 O   0  0  0  0  0  0  0  0  0  0  0  0
   12.4153   -7.8163   -7.4837 C   0  0  0  0  0  0  0  0  0  0  0  0
   13.6058   -7.1242   -7.5081 C   0  0  0  0  0  0  0  0  0  0  0  0
   14.7169   -7.6085   -8.1513 C   0  0  0  0  0  0  0  0  0  0  0  0
   14.6954   -8.8408   -8.8204 C   0  0  0  0  0  0  0  0  0  0  0  0
   15.9374   -9.3267   -9.4950 C   0  0  0  0  0  0  0  0  0  0  0  0
   15.8791   -9.1571  -11.0050 C   0  0  2  0  0  0  0  0  0  0  0  0
   16.9950   -9.6716  -11.7197 N   0  0  0  0  0  0  0  0  0  0  0  0
   15.4046   -7.8310  -11.4281 C   0  0  0  0  0  0  0  0  0  0  0  0
   14.2138   -7.4768  -11.2280 O   0  0  0  0  0  0  0  0  0  0  0  0
   13.5053   -9.5206   -8.7890 C   0  0  0  0  0  0  0  0  0  0  0  0
   12.3753   -9.0245   -8.1331 C   0  0  0  0  0  0  0  0  0  0  0  0
   16.2349   -6.8732  -12.0787 N   0  0  0  0  0  0  0  0  0  0  0  0
   15.7627   -5.5786  -12.5045 C   0  0  1  0  0  0  0  0  0  0  0  0
   15.3476   -4.7879  -11.2751 C   0  0  0  0  0  0  0  0  0  0  0  0
   14.8723   -3.4335  -11.6717 C   0  0  0  0  0  0  0  0  0  0  0  0
   14.8035   -2.9182  -12.9510 C   0  0  0  0  0  0  0  0  0  0  0  0
   14.3182   -1.6681  -12.8483 N   0  0  0  0  0  0  0  0  0  0  0  0
   14.0818   -1.3878  -11.5415 C   0  0  0  0  0  0  0  0  0  0  0  0
   14.4233   -2.4700  -10.8387 N   0  0  0  0  0  0  0  0  0  0  0  0
   16.7819   -4.8311  -13.2549 C   0  0  0  0  0  0  0  0  0  0  0  0
   16.5275   -3.6741  -13.6741 O   0  0  0  0  0  0  0  0  0  0  0  0
   18.0305   -5.3514  -13.5259 O   0  0  0  0  0  0  0  0  0  0  0  0
  2  4  1  0
  2  3  1  1
  2  1  1  0
  4  5  1  6
  6  4  1  0
  6  7  2  0
  8  9  1  0
  9 19  2  0
  9 10  1  0
 10 11  2  0
 11 12  1  0
 12 13  1  0
 14 13  1  1
 14 15  1  0
 15  6  1  0
 16 14  1  0
 16 20  1  0
 17 16  2  0
 18 12  2  0
 19 18  1  0
 21 20  1  0
 21 28  1  0
 22 23  1  0
 21 22  1  1
 23 27  1  0
 24 25  1  0
 24 23  2  0
 25 26  1  0
 26 27  2  0
 28 29  2  0
 28 30  1  0
M  END
$$$$
