VYH.pdb
     RDKit          3D

 30 31  0  0  1  0  0  0  0  0999 V2000
   44.3839   -7.6246   -7.2840 C   0  0  0  0  0  0  0  0  0  0  0  0
   43.0652   -7.3056   -8.0063 C   0  0  2  0  0  0  0  0  0  0  0  0
   43.3035   -6.0247   -8.7560 C   0  0  0  0  0  0  0  0  0  0  0  0
   42.0397   -7.1580   -6.9013 C   0  0  2  0  0  0  0  0  0  0  0  0
   41.9584   -8.5000   -6.2901 N   0  0  0  0  0  0  0  0  0  0  0  0
   40.6890   -6.8276   -7.3889 C   0  0  0  0  0  0  0  0  0  0  0  0
   40.0863   -7.6542   -8.1050 O   0  0  0  0  0  0  0  0  0  0  0  0
   38.0457   -1.8531   -2.1221 O   0  0  0  0  0  0  0  0  0  0  0  0
   37.9302   -2.6935   -3.2162 C   0  0  0  0  0  0  0  0  0  0  0  0
   38.4752   -3.9583   -3.2229 C   0  0  0  0  0  0  0  0  0  0  0  0
   38.3630   -4.7941   -4.3053 C   0  0  0  0  0  0  0  0  0  0  0  0
   37.6832   -4.3992   -5.4666 C   0  0  0  0  0  0  0  0  0  0  0  0
   37.5807   -5.3534   -6.6124 C   0  0  0  0  0  0  0  0  0  0  0  0
   38.7359   -5.2082   -7.5905 C   0  0  2  0  0  0  0  0  0  0  0  0
   40.0067   -5.6115   -7.0972 N   0  0  0  0  0  0  0  0  0  0  0  0
   38.7129   -3.9439   -8.3412 C   0  0  0  0  0  0  0  0  0  0  0  0
   39.3294   -2.9311   -7.9198 O   0  0  0  0  0  0  0  0  0  0  0  0
   37.1448   -3.1386   -5.4481 C   0  0  0  0  0  0  0  0  0  0  0  0
   37.2609   -2.2896   -4.3440 C   0  0  0  0  0  0  0  0  0  0  0  0
   38.0099   -3.7749   -9.5690 N   0  0  0  0  0  0  0  0  0  0  0  0
   37.8961   -2.5062  -10.2455 C   0  0  1  0  0  0  0  0  0  0  0  0
   38.9620   -2.4382  -11.3263 C   0  0  0  0  0  0  0  0  0  0  0  0
   38.7779   -3.5496  -12.3002 C   0  0  0  0  0  0  0  0  0  0  0  0
   37.7960   -4.5201  -12.2780 C   0  0  0  0  0  0  0  0  0  0  0  0
   38.0048   -5.3185  -13.3401 N   0  0  0  0  0  0  0  0  0  0  0  0
   39.0892   -4.8743  -14.0249 C   0  0  0  0  0  0  0  0  0  0  0  0
   39.5482   -3.7989  -13.3811 N   0  0  0  0  0  0  0  0  0  0  0  0
   36.5683   -2.3094  -10.8445 C   0  0  0  0  0  0  0  0  0  0  0  0
   35.6965   -3.2089  -10.7439 O   0  0  0  0  0  0  0  0  0  0  0  0
   36.2276   -1.1594  -11.5261 O   0  0  0  0  0  0  0  0  0  0  0  0
  2  4  1  0
  2  3  1  1
  2  1  1  0
  4  5  1  6
  6  4  1  0
  6  7  2  0
  8  9  1  0
  9 19  2  0
  9 10  1  0
 10 11  2  0
 11 12  1  0
 12 13  1  0
 14 13  1  1
 14 15  1  0
 15  6  1  0
 16 14  1  0
 16 20  1  0
 17 16  2  0
 18 12  2  0
 19 18  1  0
 21 20  1  0
 21 28  1  0
 22 23  1  0
 21 22  1  6
 23 27  1  0
 24 25  1  0
 24 23  2  0
 25 26  1  0
 26 27  2  0
 28 29  2  0
 28 30  1  0
M  END
$$$$
