VYH.pdb
     RDKit          3D

 30 31  0  0  1  0  0  0  0  0999 V2000
   16.4718   -8.9678  -13.8517 C   0  0  0  0  0  0  0  0  0  0  0  0
   17.5416   -9.3309  -12.8094 C   0  0  2  0  0  0  0  0  0  0  0  0
   18.2457  -10.5460  -13.3454 C   0  0  0  0  0  0  0  0  0  0  0  0
   16.7689   -9.6122  -11.5373 C   0  0  2  0  0  0  0  0  0  0  0  0
   15.7968  -10.6569  -11.9181 N   0  0  0  0  0  0  0  0  0  0  0  0
   15.9899   -8.4595  -11.0519 C   0  0  0  0  0  0  0  0  0  0  0  0
   14.8535   -8.2552  -11.5274 O   0  0  0  0  0  0  0  0  0  0  0  0
   10.3466   -8.9002   -7.0772 O   0  0  0  0  0  0  0  0  0  0  0  0
   11.5712   -8.3003   -7.3160 C   0  0  0  0  0  0  0  0  0  0  0  0
   12.7385   -9.0287   -7.3776 C   0  0  0  0  0  0  0  0  0  0  0  0
   13.9542   -8.4378   -7.6138 C   0  0  0  0  0  0  0  0  0  0  0  0
   14.0693   -7.0533   -7.8056 C   0  0  0  0  0  0  0  0  0  0  0  0
   15.4163   -6.4629   -8.0712 C   0  0  0  0  0  0  0  0  0  0  0  0
   15.7443   -6.4157   -9.5552 C   0  0  2  0  0  0  0  0  0  0  0  0
   16.4463   -7.5439  -10.0605 N   0  0  0  0  0  0  0  0  0  0  0  0
   16.2325   -5.1038  -10.0062 C   0  0  0  0  0  0  0  0  0  0  0  0
   17.3890   -4.7075   -9.7081 O   0  0  0  0  0  0  0  0  0  0  0  0
   12.9008   -6.3390   -7.7424 C   0  0  0  0  0  0  0  0  0  0  0  0
   11.6642   -6.9438   -7.5014 C   0  0  0  0  0  0  0  0  0  0  0  0
   15.4539   -4.2071  -10.7935 N   0  0  0  0  0  0  0  0  0  0  0  0
   15.9115   -2.8953  -11.1807 C   0  0  1  0  0  0  0  0  0  0  0  0
   15.6622   -2.7169  -12.6690 C   0  0  0  0  0  0  0  0  0  0  0  0
   16.5821   -3.5877  -13.4520 C   0  0  0  0  0  0  0  0  0  0  0  0
   17.9178   -3.8275  -13.1970 C   0  0  0  0  0  0  0  0  0  0  0  0
   18.3574   -4.6693  -14.1494 N   0  0  0  0  0  0  0  0  0  0  0  0
   17.3344   -4.9621  -14.9920 C   0  0  0  0  0  0  0  0  0  0  0  0
   16.2623   -4.2975  -14.5554 N   0  0  0  0  0  0  0  0  0  0  0  0
   15.2372   -1.8247  -10.4325 C   0  0  0  0  0  0  0  0  0  0  0  0
   14.2775   -2.1023   -9.6703 O   0  0  0  0  0  0  0  0  0  0  0  0
   15.6168   -0.5020  -10.5302 O   0  0  0  0  0  0  0  0  0  0  0  0
  2  4  1  0
  2  3  1  6
  2  1  1  0
  4  5  1  6
  6  4  1  0
  6  7  2  0
  8  9  1  0
  9 19  2  0
  9 10  1  0
 10 11  2  0
 11 12  1  0
 12 13  1  0
 14 13  1  1
 14 15  1  0
 15  6  1  0
 16 14  1  0
 16 20  1  0
 17 16  2  0
 18 12  2  0
 19 18  1  0
 21 20  1  0
 21 28  1  0
 22 23  1  0
 21 22  1  6
 23 27  1  0
 24 25  1  0
 24 23  2  0
 25 26  1  0
 26 27  2  0
 28 29  2  0
 28 30  1  0
M  END
$$$$
