VYH.pdb
     RDKit          3D

 30 31  0  0  1  0  0  0  0  0999 V2000
   19.2624  -15.7504  -16.4735 C   0  0  0  0  0  0  0  0  0  0  0  0
   18.0009  -15.1406  -15.8414 C   0  0  2  0  0  0  0  0  0  0  0  0
   16.8500  -15.9784  -16.3242 C   0  0  0  0  0  0  0  0  0  0  0  0
   17.9515  -13.7185  -16.3605 C   0  0  2  0  0  0  0  0  0  0  0  0
   17.9349  -13.8613  -17.8304 N   0  0  0  0  0  0  0  0  0  0  0  0
   19.1452  -12.9239  -16.0214 C   0  0  0  0  0  0  0  0  0  0  0  0
   19.2205  -12.3992  -14.8908 O   0  0  0  0  0  0  0  0  0  0  0  0
   27.1340   -9.0494  -16.0987 O   0  0  0  0  0  0  0  0  0  0  0  0
   26.0594   -9.8767  -16.3771 C   0  0  0  0  0  0  0  0  0  0  0  0
   25.6683  -10.8766  -15.5145 C   0  0  0  0  0  0  0  0  0  0  0  0
   24.6039  -11.6986  -15.7870 C   0  0  0  0  0  0  0  0  0  0  0  0
   23.8563  -11.5605  -16.9654 C   0  0  0  0  0  0  0  0  0  0  0  0
   22.6993  -12.4752  -17.2071 C   0  0  0  0  0  0  0  0  0  0  0  0
   21.3975  -11.9197  -16.6512 C   0  0  2  0  0  0  0  0  0  0  0  0
   20.2412  -12.7067  -16.9053 N   0  0  0  0  0  0  0  0  0  0  0  0
   21.2433  -10.4716  -16.8557 C   0  0  0  0  0  0  0  0  0  0  0  0
   21.0778   -9.9960  -18.0089 O   0  0  0  0  0  0  0  0  0  0  0  0
   24.2547  -10.5618  -17.8159 C   0  0  0  0  0  0  0  0  0  0  0  0
   25.3394   -9.7262  -17.5356 C   0  0  0  0  0  0  0  0  0  0  0  0
   21.2692   -9.5235  -15.7924 N   0  0  0  0  0  0  0  0  0  0  0  0
   21.0867   -8.1070  -15.9930 C   0  0  1  0  0  0  0  0  0  0  0  0
   19.6098   -7.7841  -15.8404 C   0  0  0  0  0  0  0  0  0  0  0  0
   19.3634   -6.3481  -16.1478 C   0  0  0  0  0  0  0  0  0  0  0  0
   20.2958   -5.4119  -16.5488 C   0  0  0  0  0  0  0  0  0  0  0  0
   19.6421   -4.2482  -16.7146 N   0  0  0  0  0  0  0  0  0  0  0  0
   18.3279   -4.4309  -16.4287 C   0  0  0  0  0  0  0  0  0  0  0  0
   18.1738   -5.7117  -16.0859 N   0  0  0  0  0  0  0  0  0  0  0  0
   21.8713   -7.3027  -15.0451 C   0  0  0  0  0  0  0  0  0  0  0  0
   21.9996   -7.6859  -13.8553 O   0  0  0  0  0  0  0  0  0  0  0  0
   22.4859   -6.1224  -15.4087 O   0  0  0  0  0  0  0  0  0  0  0  0
  2  4  1  0
  2  3  1  6
  2  1  1  0
  4  5  1  6
  6  4  1  0
  6  7  2  0
  8  9  1  0
  9 19  2  0
  9 10  1  0
 10 11  2  0
 11 12  1  0
 12 13  1  0
 14 13  1  6
 14 15  1  0
 15  6  1  0
 16 14  1  0
 16 20  1  0
 17 16  2  0
 18 12  2  0
 19 18  1  0
 21 20  1  0
 21 28  1  0
 22 23  1  0
 21 22  1  1
 23 27  1  0
 24 25  1  0
 24 23  2  0
 25 26  1  0
 26 27  2  0
 28 29  2  0
 28 30  1  0
M  END
$$$$
