VYH.pdb
     RDKit          3D

 30 31  0  0  1  0  0  0  0  0999 V2000
   26.1466  -19.5439  -17.6550 C   0  0  0  0  0  0  0  0  0  0  0  0
   27.0143  -18.6048  -16.8020 C   0  0  2  0  0  0  0  0  0  0  0  0
   27.9058  -17.8747  -17.7674 C   0  0  0  0  0  0  0  0  0  0  0  0
   27.7814  -19.5197  -15.8699 C   0  0  2  0  0  0  0  0  0  0  0  0
   28.3842  -20.5331  -16.7592 N   0  0  0  0  0  0  0  0  0  0  0  0
   26.9240  -20.2442  -14.9153 C   0  0  0  0  0  0  0  0  0  0  0  0
   26.4886  -21.3715  -15.2294 O   0  0  0  0  0  0  0  0  0  0  0  0
   31.3154  -21.8976   -9.9420 O   0  0  0  0  0  0  0  0  0  0  0  0
   30.0359  -21.4629  -10.2432 C   0  0  0  0  0  0  0  0  0  0  0  0
   29.7695  -20.7046  -11.3616 C   0  0  0  0  0  0  0  0  0  0  0  0
   28.5029  -20.2718  -11.6634 C   0  0  0  0  0  0  0  0  0  0  0  0
   27.4091  -20.5823  -10.8425 C   0  0  0  0  0  0  0  0  0  0  0  0
   26.0486  -20.0952  -11.2242 C   0  0  0  0  0  0  0  0  0  0  0  0
   25.7171  -20.3879  -12.6790 C   0  0  2  0  0  0  0  0  0  0  0  0
   26.5487  -19.7437  -13.6353 N   0  0  0  0  0  0  0  0  0  0  0  0
   24.2752  -20.3664  -12.9675 C   0  0  0  0  0  0  0  0  0  0  0  0
   23.6652  -19.2780  -13.1305 O   0  0  0  0  0  0  0  0  0  0  0  0
   27.6864  -21.3378   -9.7327 C   0  0  0  0  0  0  0  0  0  0  0  0
   28.9777  -21.7770   -9.4279 C   0  0  0  0  0  0  0  0  0  0  0  0
   23.4818  -21.5444  -13.0811 N   0  0  0  0  0  0  0  0  0  0  0  0
   22.0603  -21.5186  -13.3237 C   0  0  1  0  0  0  0  0  0  0  0  0
   21.5728  -22.9483  -13.4887 C   0  0  0  0  0  0  0  0  0  0  0  0
   20.1156  -22.9621  -13.7951 C   0  0  0  0  0  0  0  0  0  0  0  0
   19.2841  -21.8679  -13.9298 C   0  0  0  0  0  0  0  0  0  0  0  0
   18.0541  -22.3373  -14.2051 N   0  0  0  0  0  0  0  0  0  0  0  0
   18.0936  -23.6934  -14.2461 C   0  0  0  0  0  0  0  0  0  0  0  0
   19.3527  -24.0584  -13.9951 N   0  0  0  0  0  0  0  0  0  0  0  0
   21.3195  -20.8637  -12.2360 C   0  0  0  0  0  0  0  0  0  0  0  0
   21.6562  -21.0615  -11.0416 O   0  0  0  0  0  0  0  0  0  0  0  0
   20.2497  -20.0248  -12.4705 O   0  0  0  0  0  0  0  0  0  0  0  0
  2  4  1  0
  2  3  1  6
  2  1  1  0
  4  5  1  6
  6  4  1  0
  6  7  2  0
  8  9  1  0
  9 19  2  0
  9 10  1  0
 10 11  2  0
 11 12  1  0
 12 13  1  0
 14 13  1  1
 14 15  1  0
 15  6  1  0
 16 14  1  0
 16 20  1  0
 17 16  2  0
 18 12  2  0
 19 18  1  0
 21 20  1  0
 21 28  1  0
 22 23  1  0
 21 22  1  1
 23 27  1  0
 24 25  1  0
 24 23  2  0
 25 26  1  0
 26 27  2  0
 28 29  2  0
 28 30  1  0
M  END
$$$$
