VYH.pdb
     RDKit          3D

 30 31  0  0  1  0  0  0  0  0999 V2000
   16.2527  -19.1984    6.1077 C   0  0  0  0  0  0  0  0  0  0  0  0
   15.3003  -18.4711    5.1451 C   0  0  2  0  0  0  0  0  0  0  0  0
   14.3340  -19.5125    4.6537 C   0  0  0  0  0  0  0  0  0  0  0  0
   16.1920  -17.9312    4.0461 C   0  0  2  0  0  0  0  0  0  0  0  0
   16.8642  -19.1250    3.4948 N   0  0  0  0  0  0  0  0  0  0  0  0
   17.2514  -17.0306    4.5337 C   0  0  0  0  0  0  0  0  0  0  0  0
   18.4057  -17.4822    4.6851 O   0  0  0  0  0  0  0  0  0  0  0  0
   22.0009  -10.0668    7.2369 O   0  0  0  0  0  0  0  0  0  0  0  0
   20.9681  -10.8453    6.7429 C   0  0  0  0  0  0  0  0  0  0  0  0
   21.0358  -11.4428    5.5039 C   0  0  0  0  0  0  0  0  0  0  0  0
   20.0144  -12.2149    5.0107 C   0  0  0  0  0  0  0  0  0  0  0  0
   18.8426  -12.4356    5.7489 C   0  0  0  0  0  0  0  0  0  0  0  0
   17.7657  -13.2947    5.1692 C   0  0  0  0  0  0  0  0  0  0  0  0
   17.9956  -14.7727    5.4424 C   0  0  2  0  0  0  0  0  0  0  0  0
   17.0521  -15.6560    4.8504 N   0  0  0  0  0  0  0  0  0  0  0  0
   18.3539  -15.0619    6.8391 C   0  0  0  0  0  0  0  0  0  0  0  0
   17.4675  -15.3300    7.6912 O   0  0  0  0  0  0  0  0  0  0  0  0
   18.7868  -11.8362    6.9807 C   0  0  0  0  0  0  0  0  0  0  0  0
   19.8289  -11.0502    7.4801 C   0  0  0  0  0  0  0  0  0  0  0  0
   19.6951  -15.0603    7.3199 N   0  0  0  0  0  0  0  0  0  0  0  0
   20.0514  -15.4318    8.6672 C   0  0  1  0  0  0  0  0  0  0  0  0
   21.2602  -16.3507    8.6108 C   0  0  0  0  0  0  0  0  0  0  0  0
   20.8225  -17.7734    8.5671 C   0  0  0  0  0  0  0  0  0  0  0  0
   19.5244  -18.2443    8.5729 C   0  0  0  0  0  0  0  0  0  0  0  0
   19.5904  -19.5868    8.5232 N   0  0  0  0  0  0  0  0  0  0  0  0
   20.8926  -19.9677    8.4866 C   0  0  0  0  0  0  0  0  0  0  0  0
   21.6293  -18.8551    8.5139 N   0  0  0  0  0  0  0  0  0  0  0  0
   20.3540  -14.2642    9.5074 C   0  0  0  0  0  0  0  0  0  0  0  0
   21.0273  -13.3127    9.0379 O   0  0  0  0  0  0  0  0  0  0  0  0
   19.9243  -14.1624   10.8143 O   0  0  0  0  0  0  0  0  0  0  0  0
  2  4  1  0
  2  3  1  6
  2  1  1  0
  4  5  1  1
  6  4  1  0
  6  7  2  0
  8  9  1  0
  9 19  2  0
  9 10  1  0
 10 11  2  0
 11 12  1  0
 12 13  1  0
 14 13  1  1
 14 15  1  0
 15  6  1  0
 16 14  1  0
 16 20  1  0
 17 16  2  0
 18 12  2  0
 19 18  1  0
 21 20  1  0
 21 28  1  0
 22 23  1  0
 21 22  1  6
 23 27  1  0
 24 25  1  0
 24 23  2  0
 25 26  1  0
 26 27  2  0
 28 29  2  0
 28 30  1  0
M  END
$$$$
