VYH.pdb
     RDKit          3D

 30 31  0  0  1  0  0  0  0  0999 V2000
   26.1212  -21.0894  -18.6182 C   0  0  0  0  0  0  0  0  0  0  0  0
   27.5061  -20.5506  -18.2254 C   0  0  2  0  0  0  0  0  0  0  0  0
   28.3028  -20.4902  -19.4987 C   0  0  0  0  0  0  0  0  0  0  0  0
   28.0528  -21.5601  -17.2371 C   0  0  2  0  0  0  0  0  0  0  0  0
   27.9393  -22.8580  -17.9327 N   0  0  0  0  0  0  0  0  0  0  0  0
   27.2583  -21.6665  -16.0008 C   0  0  0  0  0  0  0  0  0  0  0  0
   26.2539  -22.4084  -15.9900 O   0  0  0  0  0  0  0  0  0  0  0  0
   24.0215  -20.5125   -7.8156 O   0  0  0  0  0  0  0  0  0  0  0  0
   24.8662  -20.5052   -8.9125 C   0  0  0  0  0  0  0  0  0  0  0  0
   25.3550  -21.6696   -9.4622 C   0  0  0  0  0  0  0  0  0  0  0  0
   26.1925  -21.6665  -10.5492 C   0  0  0  0  0  0  0  0  0  0  0  0
   26.5951  -20.4694  -11.1586 C   0  0  0  0  0  0  0  0  0  0  0  0
   27.4993  -20.5237  -12.3473 C   0  0  0  0  0  0  0  0  0  0  0  0
   26.7645  -20.9326  -13.6142 C   0  0  2  0  0  0  0  0  0  0  0  0
   27.5579  -20.9725  -14.7931 N   0  0  0  0  0  0  0  0  0  0  0  0
   25.4424  -20.3039  -13.7538 C   0  0  0  0  0  0  0  0  0  0  0  0
   25.3282  -19.1307  -14.1944 O   0  0  0  0  0  0  0  0  0  0  0  0
   26.1020  -19.3171  -10.6030 C   0  0  0  0  0  0  0  0  0  0  0  0
   25.2493  -19.3236   -9.4957 C   0  0  0  0  0  0  0  0  0  0  0  0
   24.2242  -20.9580  -13.4101 N   0  0  0  0  0  0  0  0  0  0  0  0
   22.9238  -20.3824  -13.6507 C   0  0  1  0  0  0  0  0  0  0  0  0
   22.7743  -20.1339  -15.1423 C   0  0  0  0  0  0  0  0  0  0  0  0
   21.5090  -19.3981  -15.4163 C   0  0  0  0  0  0  0  0  0  0  0  0
   20.5985  -18.9354  -14.4870 C   0  0  0  0  0  0  0  0  0  0  0  0
   19.6088  -18.3321  -15.1693 N   0  0  0  0  0  0  0  0  0  0  0  0
   19.8752  -18.4047  -16.4982 C   0  0  0  0  0  0  0  0  0  0  0  0
   21.0330  -19.0552  -16.6327 N   0  0  0  0  0  0  0  0  0  0  0  0
   21.8334  -21.2484  -13.1798 C   0  0  0  0  0  0  0  0  0  0  0  0
   20.6384  -20.9125  -13.3750 O   0  0  0  0  0  0  0  0  0  0  0  0
   22.0659  -22.4373  -12.5198 O   0  0  0  0  0  0  0  0  0  0  0  0
  2  4  1  0
  2  3  1  6
  2  1  1  0
  4  5  1  6
  6  4  1  0
  6  7  2  0
  8  9  1  0
  9 19  2  0
  9 10  1  0
 10 11  2  0
 11 12  1  0
 12 13  1  0
 14 13  1  1
 14 15  1  0
 15  6  1  0
 16 14  1  0
 16 20  1  0
 17 16  2  0
 18 12  2  0
 19 18  1  0
 21 20  1  0
 21 28  1  0
 22 23  1  0
 21 22  1  6
 23 27  1  0
 24 25  1  0
 24 23  2  0
 25 26  1  0
 26 27  2  0
 28 29  2  0
 28 30  1  0
M  END
$$$$
