VYH.pdb
     RDKit          3D

 30 31  0  0  1  0  0  0  0  0999 V2000
   30.3446  -21.2084  -18.2650 C   0  0  0  0  0  0  0  0  0  0  0  0
   29.3044  -21.4371  -19.3733 C   0  0  2  0  0  0  0  0  0  0  0  0
   29.9225  -20.9066  -20.6367 C   0  0  0  0  0  0  0  0  0  0  0  0
   28.0879  -20.6468  -18.9371 C   0  0  2  0  0  0  0  0  0  0  0  0
   28.5519  -19.2453  -18.8966 N   0  0  0  0  0  0  0  0  0  0  0  0
   27.6209  -20.9820  -17.5804 C   0  0  0  0  0  0  0  0  0  0  0  0
   27.0715  -22.0864  -17.3863 O   0  0  0  0  0  0  0  0  0  0  0  0
   25.2521  -20.8198   -9.0366 O   0  0  0  0  0  0  0  0  0  0  0  0
   25.9067  -20.6013  -10.2369 C   0  0  0  0  0  0  0  0  0  0  0  0
   25.8217  -19.3992  -10.9036 C   0  0  0  0  0  0  0  0  0  0  0  0
   26.4689  -19.1789  -12.0934 C   0  0  0  0  0  0  0  0  0  0  0  0
   27.2543  -20.1736  -12.6936 C   0  0  0  0  0  0  0  0  0  0  0  0
   27.9470  -19.8766  -13.9843 C   0  0  0  0  0  0  0  0  0  0  0  0
   27.1093  -20.2650  -15.1925 C   0  0  2  0  0  0  0  0  0  0  0  0
   27.7532  -20.1226  -16.4518 N   0  0  0  0  0  0  0  0  0  0  0  0
   25.7226  -19.7802  -15.1246 C   0  0  0  0  0  0  0  0  0  0  0  0
   25.4444  -18.5801  -15.3811 O   0  0  0  0  0  0  0  0  0  0  0  0
   27.3316  -21.3655  -12.0207 C   0  0  0  0  0  0  0  0  0  0  0  0
   26.6711  -21.5869  -10.8091 C   0  0  0  0  0  0  0  0  0  0  0  0
   24.6193  -20.6104  -14.7727 N   0  0  0  0  0  0  0  0  0  0  0  0
   23.2535  -20.1470  -14.7649 C   0  0  1  0  0  0  0  0  0  0  0  0
   22.4858  -20.8889  -15.8462 C   0  0  0  0  0  0  0  0  0  0  0  0
   21.0736  -20.4185  -15.8884 C   0  0  0  0  0  0  0  0  0  0  0  0
   20.5713  -19.2473  -15.3565 C   0  0  0  0  0  0  0  0  0  0  0  0
   19.2532  -19.2252  -15.6231 N   0  0  0  0  0  0  0  0  0  0  0  0
   18.9179  -20.3490  -16.3062 C   0  0  0  0  0  0  0  0  0  0  0  0
   20.0343  -21.0643  -16.4599 N   0  0  0  0  0  0  0  0  0  0  0  0
   22.6013  -20.3518  -13.4635 C   0  0  0  0  0  0  0  0  0  0  0  0
   22.8799  -21.3664  -12.7765 O   0  0  0  0  0  0  0  0  0  0  0  0
   21.6786  -19.4635  -12.9509 O   0  0  0  0  0  0  0  0  0  0  0  0
  2  4  1  0
  2  3  1  6
  2  1  1  0
  4  5  1  1
  6  4  1  0
  6  7  2  0
  8  9  1  0
  9 19  2  0
  9 10  1  0
 10 11  2  0
 11 12  1  0
 12 13  1  0
 14 13  1  1
 14 15  1  0
 15  6  1  0
 16 14  1  0
 16 20  1  0
 17 16  2  0
 18 12  2  0
 19 18  1  0
 21 20  1  0
 21 28  1  0
 22 23  1  0
 21 22  1  6
 23 27  1  0
 24 25  1  0
 24 23  2  0
 25 26  1  0
 26 27  2  0
 28 29  2  0
 28 30  1  0
M  END
$$$$
