TFT.pdb
     RDKit          3D

 26 26  0  0  1  0  0  0  0  0999 V2000
   21.9395  -10.5643  -21.3170 C   0  0  0  0  0  0  0  0  0  0  0  0
   21.9509   -9.9674  -19.9285 C   0  0  1  0  0  0  0  0  0  0  0  0
   20.6557   -9.8486  -19.4730 O   0  0  0  0  0  0  0  0  0  0  0  0
   22.8231  -10.8049  -19.0505 C   0  0  2  0  0  0  0  0  0  0  0  0
   22.3418  -12.1387  -18.8880 N   0  0  0  0  0  0  0  0  0  0  0  0
   22.9990  -10.1710  -17.7071 C   0  0  0  0  0  0  0  0  0  0  0  0
   22.3376  -10.5399  -16.7130 O   0  0  0  0  0  0  0  0  0  0  0  0
   23.9230   -9.1193  -17.4860 N   0  0  0  0  0  0  0  0  0  0  0  0
   24.2022   -8.5890  -16.1856 C   0  0  1  0  0  0  0  0  0  0  0  0
   25.6077   -8.5803  -15.7686 C   0  0  0  0  0  0  0  0  0  0  0  0
   26.3863   -9.8023  -15.9819 C   0  0  0  0  0  0  0  0  0  0  0  0
   27.3265   -9.9539  -16.9875 C   0  0  0  0  0  0  0  0  0  0  0  0
   28.0224  -11.1158  -17.1646 C   0  0  0  0  0  0  0  0  0  0  0  0
   27.8026  -12.1868  -16.3315 C   0  0  0  0  0  0  0  0  0  0  0  0
   26.8771  -12.0795  -15.3193 C   0  0  0  0  0  0  0  0  0  0  0  0
   26.1874  -10.8932  -15.1629 C   0  0  0  0  0  0  0  0  0  0  0  0
   23.6160   -7.2171  -16.1219 C   0  0  0  0  0  0  0  0  0  0  0  0
   24.0123   -6.3268  -16.9556 O   0  0  0  0  0  0  0  0  0  0  0  0
   20.3177   -6.0140  -16.8247 C   0  0  0  0  0  0  0  0  0  0  0  0
   20.5491   -5.4850  -15.4111 C   0  0  1  0  0  0  0  0  0  0  0  0
   19.7383   -6.2774  -14.5716 O   0  0  0  0  0  0  0  0  0  0  0  0
   21.9863   -5.5696  -15.0171 C   0  0  2  0  0  0  0  0  0  0  0  0
   22.6307   -6.8152  -15.1934 N   0  0  0  0  0  0  0  0  0  0  0  0
   22.2787   -4.8195  -13.7652 C   0  0  0  0  0  0  0  0  0  0  0  0
   22.8900   -5.5026  -12.6786 O   0  0  0  0  0  0  0  0  0  0  0  0
   22.0532   -3.6239  -13.5244 O   0  0  0  0  0  0  0  0  0  0  0  0
  2  1  1  6
  2  3  1  0
  2  4  1  0
  4  6  1  0
  4  5  1  1
  6  7  2  0
  8  9  1  0
  8  6  1  0
  9 10  1  6
 10 11  1  0
 11 16  2  0
 12 11  1  0
 12 13  2  0
 13 14  1  0
 14 15  2  0
 16 15  1  0
 17 18  2  0
 17  9  1  0
 20 19  1  6
 20 22  1  0
 21 20  1  0
 22 24  1  0
 22 23  1  1
 23 17  1  0
 24 25  1  0
 26 24  2  0
M  END
$$$$
