TFT.pdb
     RDKit          3D

 26 26  0  0  1  0  0  0  0  0999 V2000
   28.7559  -20.1961  -17.4382 C   0  0  0  0  0  0  0  0  0  0  0  0
   27.5243  -20.4083  -16.5882 C   0  0  1  0  0  0  0  0  0  0  0  0
   26.4284  -20.5741  -17.4072 O   0  0  0  0  0  0  0  0  0  0  0  0
   27.7665  -21.5597  -15.6668 C   0  0  2  0  0  0  0  0  0  0  0  0
   27.9304  -22.8018  -16.3504 N   0  0  0  0  0  0  0  0  0  0  0  0
   26.6649  -21.6845  -14.6626 C   0  0  0  0  0  0  0  0  0  0  0  0
   25.8323  -22.6153  -14.7106 O   0  0  0  0  0  0  0  0  0  0  0  0
   26.5033  -20.7572  -13.6031 N   0  0  0  0  0  0  0  0  0  0  0  0
   25.4447  -20.8488  -12.6432 C   0  0  1  0  0  0  0  0  0  0  0  0
   25.6695  -20.1882  -11.3538 C   0  0  0  0  0  0  0  0  0  0  0  0
   24.6399  -20.3425  -10.3238 C   0  0  0  0  0  0  0  0  0  0  0  0
   24.7902  -21.1270   -9.1922 C   0  0  0  0  0  0  0  0  0  0  0  0
   23.8002  -21.2585   -8.2605 C   0  0  0  0  0  0  0  0  0  0  0  0
   22.6041  -20.6015   -8.4257 C   0  0  0  0  0  0  0  0  0  0  0  0
   22.4122  -19.8117   -9.5357 C   0  0  0  0  0  0  0  0  0  0  0  0
   23.4300  -19.6966  -10.4622 C   0  0  0  0  0  0  0  0  0  0  0  0
   24.1997  -20.3432  -13.2944 C   0  0  0  0  0  0  0  0  0  0  0  0
   24.1787  -19.1508  -13.7659 O   0  0  0  0  0  0  0  0  0  0  0  0
   22.6000  -20.7060  -16.3094 C   0  0  0  0  0  0  0  0  0  0  0  0
   21.4639  -21.1129  -15.3737 C   0  0  1  0  0  0  0  0  0  0  0  0
   21.3357  -22.5104  -15.5173 O   0  0  0  0  0  0  0  0  0  0  0  0
   21.7510  -20.7354  -13.9584 C   0  0  2  0  0  0  0  0  0  0  0  0
   23.0145  -21.0975  -13.4384 N   0  0  0  0  0  0  0  0  0  0  0  0
   20.5696  -20.9135  -13.0707 C   0  0  0  0  0  0  0  0  0  0  0  0
   19.3421  -20.2886  -13.4226 O   0  0  0  0  0  0  0  0  0  0  0  0
   20.5016  -21.5617  -12.0155 O   0  0  0  0  0  0  0  0  0  0  0  0
  2  1  1  6
  2  3  1  0
  2  4  1  0
  4  6  1  0
  4  5  1  6
  6  7  2  0
  8  9  1  0
  8  6  1  0
  9 10  1  1
 10 11  1  0
 11 16  2  0
 12 11  1  0
 12 13  2  0
 13 14  1  0
 14 15  2  0
 16 15  1  0
 17 18  2  0
 17  9  1  0
 20 19  1  6
 20 22  1  0
 21 20  1  0
 22 24  1  0
 22 23  1  1
 23 17  1  0
 24 25  1  0
 26 24  2  0
M  END
$$$$
