TFT.pdb
     RDKit          3D

 26 26  0  0  1  0  0  0  0  0999 V2000
   27.7139  -21.3239  -19.2780 C   0  0  0  0  0  0  0  0  0  0  0  0
   26.8043  -21.4167  -18.0744 C   0  0  1  0  0  0  0  0  0  0  0  0
   25.6810  -22.1423  -18.4072 O   0  0  0  0  0  0  0  0  0  0  0  0
   27.5750  -21.9916  -16.9304 C   0  0  2  0  0  0  0  0  0  0  0  0
   28.0368  -23.3198  -17.1747 N   0  0  0  0  0  0  0  0  0  0  0  0
   26.7659  -21.9683  -15.6725 C   0  0  0  0  0  0  0  0  0  0  0  0
   26.2665  -23.0080  -15.1912 O   0  0  0  0  0  0  0  0  0  0  0  0
   26.5204  -20.7697  -14.9573 N   0  0  0  0  0  0  0  0  0  0  0  0
   25.7977  -20.7346  -13.7216 C   0  0  1  0  0  0  0  0  0  0  0  0
   26.3421  -19.8733  -12.6675 C   0  0  0  0  0  0  0  0  0  0  0  0
   26.0760  -20.2510  -11.2778 C   0  0  0  0  0  0  0  0  0  0  0  0
   25.0016  -19.7803  -10.5412 C   0  0  0  0  0  0  0  0  0  0  0  0
   24.7950  -20.1436   -9.2409 C   0  0  0  0  0  0  0  0  0  0  0  0
   25.6667  -21.0040   -8.6169 C   0  0  0  0  0  0  0  0  0  0  0  0
   26.7477  -21.4954   -9.3117 C   0  0  0  0  0  0  0  0  0  0  0  0
   26.9329  -21.1114  -10.6253 C   0  0  0  0  0  0  0  0  0  0  0  0
   24.3843  -20.3693  -14.0353 C   0  0  0  0  0  0  0  0  0  0  0  0
   24.1476  -19.3107  -14.7194 O   0  0  0  0  0  0  0  0  0  0  0  0
   21.7187  -22.6941  -15.5358 C   0  0  0  0  0  0  0  0  0  0  0  0
   21.0584  -22.0194  -14.3356 C   0  0  1  0  0  0  0  0  0  0  0  0
   20.9110  -23.0319  -13.3644 O   0  0  0  0  0  0  0  0  0  0  0  0
   21.8787  -20.8846  -13.8184 C   0  0  2  0  0  0  0  0  0  0  0  0
   23.2594  -21.1208  -13.6300 N   0  0  0  0  0  0  0  0  0  0  0  0
   21.1697  -20.1007  -12.7705 C   0  0  0  0  0  0  0  0  0  0  0  0
   19.8516  -19.6359  -13.0302 O   0  0  0  0  0  0  0  0  0  0  0  0
   21.5871  -19.7800  -11.6474 O   0  0  0  0  0  0  0  0  0  0  0  0
  2  1  1  6
  2  3  1  0
  2  4  1  0
  4  6  1  0
  4  5  1  6
  6  7  2  0
  8  9  1  0
  8  6  1  0
  9 10  1  1
 10 11  1  0
 11 16  2  0
 12 11  1  0
 12 13  2  0
 13 14  1  0
 14 15  2  0
 16 15  1  0
 17 18  2  0
 17  9  1  0
 20 19  1  6
 20 22  1  0
 21 20  1  0
 22 24  1  0
 22 23  1  1
 23 17  1  0
 24 25  1  0
 26 24  2  0
M  END
$$$$
