TFT.pdb
     RDKit          3D

 26 26  0  0  1  0  0  0  0  0999 V2000
   24.5281  -27.2575  -18.1700 C   0  0  0  0  0  0  0  0  0  0  0  0
   25.7235  -28.0793  -17.7457 C   0  0  1  0  0  0  0  0  0  0  0  0
   25.9750  -29.0432  -18.6981 O   0  0  0  0  0  0  0  0  0  0  0  0
   26.8769  -27.1616  -17.4993 C   0  0  2  0  0  0  0  0  0  0  0  0
   28.0265  -27.8303  -16.9814 N   0  0  0  0  0  0  0  0  0  0  0  0
   26.4899  -26.0487  -16.5779 C   0  0  0  0  0  0  0  0  0  0  0  0
   26.6300  -26.1400  -15.3394 O   0  0  0  0  0  0  0  0  0  0  0  0
   25.9441  -24.8311  -17.0556 N   0  0  0  0  0  0  0  0  0  0  0  0
   25.7390  -23.6882  -16.2176 C   0  0  1  0  0  0  0  0  0  0  0  0
   26.6238  -22.5414  -16.4443 C   0  0  0  0  0  0  0  0  0  0  0  0
   28.0478  -22.8135  -16.6509 C   0  0  0  0  0  0  0  0  0  0  0  0
   28.8901  -23.3099  -15.6697 C   0  0  0  0  0  0  0  0  0  0  0  0
   30.2179  -23.5365  -15.8961 C   0  0  0  0  0  0  0  0  0  0  0  0
   30.7636  -23.2719  -17.1296 C   0  0  0  0  0  0  0  0  0  0  0  0
   29.9628  -22.7775  -18.1331 C   0  0  0  0  0  0  0  0  0  0  0  0
   28.6236  -22.5575  -17.8769 C   0  0  0  0  0  0  0  0  0  0  0  0
   24.3048  -23.2907  -16.3391 C   0  0  0  0  0  0  0  0  0  0  0  0
   23.8708  -22.8447  -17.4604 O   0  0  0  0  0  0  0  0  0  0  0  0
   20.8934  -25.1794  -14.5313 C   0  0  0  0  0  0  0  0  0  0  0  0
   21.1588  -23.7111  -14.2065 C   0  0  1  0  0  0  0  0  0  0  0  0
   21.8164  -23.7111  -12.9585 O   0  0  0  0  0  0  0  0  0  0  0  0
   21.9881  -23.0530  -15.2586 C   0  0  2  0  0  0  0  0  0  0  0  0
   23.3644  -23.3739  -15.2888 N   0  0  0  0  0  0  0  0  0  0  0  0
   21.6133  -21.6283  -15.4707 C   0  0  0  0  0  0  0  0  0  0  0  0
   20.2464  -21.2984  -15.6800 O   0  0  0  0  0  0  0  0  0  0  0  0
   22.3620  -20.6397  -15.4918 O   0  0  0  0  0  0  0  0  0  0  0  0
  2  1  1  6
  2  3  1  0
  2  4  1  0
  4  6  1  0
  4  5  1  1
  6  7  2  0
  8  9  1  0
  8  6  1  0
  9 10  1  6
 10 11  1  0
 11 16  2  0
 12 11  1  0
 12 13  2  0
 13 14  1  0
 14 15  2  0
 16 15  1  0
 17 18  2  0
 17  9  1  0
 20 19  1  6
 20 22  1  0
 21 20  1  0
 22 24  1  0
 22 23  1  1
 23 17  1  0
 24 25  1  0
 26 24  2  0
M  END
$$$$
