TFT.pdb
     RDKit          3D

 26 26  0  0  1  0  0  0  0  0999 V2000
   28.2224  -20.7261  -17.7661 C   0  0  0  0  0  0  0  0  0  0  0  0
   27.3201  -20.7649  -16.5542 C   0  0  1  0  0  0  0  0  0  0  0  0
   26.0139  -20.5802  -16.9525 O   0  0  0  0  0  0  0  0  0  0  0  0
   27.5503  -22.0473  -15.8222 C   0  0  2  0  0  0  0  0  0  0  0  0
   27.1806  -23.2001  -16.5780 N   0  0  0  0  0  0  0  0  0  0  0  0
   26.8262  -22.0556  -14.5134 C   0  0  0  0  0  0  0  0  0  0  0  0
   25.8020  -22.7484  -14.3316 O   0  0  0  0  0  0  0  0  0  0  0  0
   27.2591  -21.2808  -13.4085 N   0  0  0  0  0  0  0  0  0  0  0  0
   26.5431  -21.2234  -12.1697 C   0  0  1  0  0  0  0  0  0  0  0  0
   27.2898  -20.7454  -11.0020 C   0  0  0  0  0  0  0  0  0  0  0  0
   26.5433  -20.5317   -9.7603 C   0  0  0  0  0  0  0  0  0  0  0  0
   25.3618  -21.1830   -9.4470 C   0  0  0  0  0  0  0  0  0  0  0  0
   24.6855  -20.9454   -8.2843 C   0  0  0  0  0  0  0  0  0  0  0  0
   25.1706  -20.0344   -7.3764 C   0  0  0  0  0  0  0  0  0  0  0  0
   26.3412  -19.3646   -7.6478 C   0  0  0  0  0  0  0  0  0  0  0  0
   27.0047  -19.6239   -8.8311 C   0  0  0  0  0  0  0  0  0  0  0  0
   25.3167  -20.4019  -12.3945 C   0  0  0  0  0  0  0  0  0  0  0  0
   25.4355  -19.1418  -12.6011 O   0  0  0  0  0  0  0  0  0  0  0  0
   23.2528  -19.8584  -15.0153 C   0  0  0  0  0  0  0  0  0  0  0  0
   22.2059  -20.2771  -13.9855 C   0  0  1  0  0  0  0  0  0  0  0  0
   21.7903  -21.5691  -14.3701 O   0  0  0  0  0  0  0  0  0  0  0  0
   22.7608  -20.2739  -12.5999 C   0  0  2  0  0  0  0  0  0  0  0  0
   24.0026  -20.9192  -12.4015 N   0  0  0  0  0  0  0  0  0  0  0  0
   21.7106  -20.4790  -11.5654 C   0  0  0  0  0  0  0  0  0  0  0  0
   20.5413  -19.6712  -11.5999 O   0  0  0  0  0  0  0  0  0  0  0  0
   21.7116  -21.2952  -10.6315 O   0  0  0  0  0  0  0  0  0  0  0  0
  2  1  1  6
  2  3  1  0
  2  4  1  0
  4  6  1  0
  4  5  1  6
  6  7  2  0
  8  9  1  0
  8  6  1  0
  9 10  1  1
 10 11  1  0
 11 16  2  0
 12 11  1  0
 12 13  2  0
 13 14  1  0
 14 15  2  0
 16 15  1  0
 17 18  2  0
 17  9  1  0
 20 19  1  6
 20 22  1  0
 21 20  1  0
 22 24  1  0
 22 23  1  6
 23 17  1  0
 24 25  1  0
 26 24  2  0
M  END
$$$$
