TFT.pdb
     RDKit          3D

 26 26  0  0  1  0  0  0  0  0999 V2000
   22.0017  -10.5373  -21.7417 C   0  0  0  0  0  0  0  0  0  0  0  0
   21.6454   -9.9345  -20.4022 C   0  0  1  0  0  0  0  0  0  0  0  0
   20.4188  -10.4155  -19.9980 O   0  0  0  0  0  0  0  0  0  0  0  0
   22.7505  -10.2171  -19.4367 C   0  0  2  0  0  0  0  0  0  0  0  0
   22.9421  -11.6104  -19.1940 N   0  0  0  0  0  0  0  0  0  0  0  0
   22.5219   -9.5114  -18.1378 C   0  0  0  0  0  0  0  0  0  0  0  0
   22.0223  -10.0932  -17.1510 O   0  0  0  0  0  0  0  0  0  0  0  0
   22.8580   -8.1470  -17.9530 N   0  0  0  0  0  0  0  0  0  0  0  0
   22.6243   -7.4470  -16.7259 C   0  0  1  0  0  0  0  0  0  0  0  0
   23.8108   -7.0143  -15.9813 C   0  0  0  0  0  0  0  0  0  0  0  0
   24.8047   -8.0334  -15.6368 C   0  0  0  0  0  0  0  0  0  0  0  0
   26.0445   -8.1403  -16.2449 C   0  0  0  0  0  0  0  0  0  0  0  0
   26.9397   -9.1150  -15.9069 C   0  0  0  0  0  0  0  0  0  0  0  0
   26.6261  -10.0341  -14.9340 C   0  0  0  0  0  0  0  0  0  0  0  0
   25.4049   -9.9646  -14.3044 C   0  0  0  0  0  0  0  0  0  0  0  0
   24.5185   -8.9690  -14.6658 C   0  0  0  0  0  0  0  0  0  0  0  0
   21.7306   -6.2899  -17.0291 C   0  0  0  0  0  0  0  0  0  0  0  0
   22.0555   -5.4753  -17.9648 O   0  0  0  0  0  0  0  0  0  0  0  0
   17.2342   -4.1685  -16.7143 C   0  0  0  0  0  0  0  0  0  0  0  0
   18.1670   -5.2586  -16.1914 C   0  0  1  0  0  0  0  0  0  0  0  0
   17.7397   -6.4526  -16.8093 O   0  0  0  0  0  0  0  0  0  0  0  0
   19.5954   -4.9631  -16.5080 C   0  0  2  0  0  0  0  0  0  0  0  0
   20.5222   -6.0186  -16.3504 N   0  0  0  0  0  0  0  0  0  0  0  0
   20.0133   -3.6114  -16.0458 C   0  0  0  0  0  0  0  0  0  0  0  0
   19.8048   -2.4950  -16.9009 O   0  0  0  0  0  0  0  0  0  0  0  0
   20.5439   -3.3066  -14.9670 O   0  0  0  0  0  0  0  0  0  0  0  0
  2  1  1  6
  2  3  1  0
  2  4  1  0
  4  6  1  0
  4  5  1  1
  6  7  2  0
  8  9  1  0
  8  6  1  0
  9 10  1  6
 10 11  1  0
 11 16  2  0
 12 11  1  0
 12 13  2  0
 13 14  1  0
 14 15  2  0
 16 15  1  0
 17 18  2  0
 17  9  1  0
 20 19  1  6
 20 22  1  0
 21 20  1  0
 22 24  1  0
 22 23  1  1
 23 17  1  0
 24 25  1  0
 26 24  2  0
M  END
$$$$
