TFT.pdb
     RDKit          3D

 26 26  0  0  1  0  0  0  0  0999 V2000
   28.4043  -20.1764  -18.6811 C   0  0  0  0  0  0  0  0  0  0  0  0
   27.4807  -20.3661  -17.4998 C   0  0  1  0  0  0  0  0  0  0  0  0
   26.1734  -20.3432  -17.9353 O   0  0  0  0  0  0  0  0  0  0  0  0
   27.8568  -21.6268  -16.7910 C   0  0  2  0  0  0  0  0  0  0  0  0
   27.6519  -22.7980  -17.5805 N   0  0  0  0  0  0  0  0  0  0  0  0
   27.1131  -21.7591  -15.5000 C   0  0  0  0  0  0  0  0  0  0  0  0
   26.1610  -22.5577  -15.3671 O   0  0  0  0  0  0  0  0  0  0  0  0
   27.4449  -20.9887  -14.3577 N   0  0  0  0  0  0  0  0  0  0  0  0
   26.7012  -21.0486  -13.1354 C   0  0  1  0  0  0  0  0  0  0  0  0
   27.3219  -20.4322  -11.9590 C   0  0  0  0  0  0  0  0  0  0  0  0
   26.5760  -20.4714  -10.6993 C   0  0  0  0  0  0  0  0  0  0  0  0
   26.2603  -19.3482   -9.9528 C   0  0  0  0  0  0  0  0  0  0  0  0
   25.5757  -19.4264   -8.7735 C   0  0  0  0  0  0  0  0  0  0  0  0
   25.1742  -20.6478   -8.2871 C   0  0  0  0  0  0  0  0  0  0  0  0
   25.4672  -21.7894   -8.9967 C   0  0  0  0  0  0  0  0  0  0  0  0
   26.1607  -21.6816  -10.1862 C   0  0  0  0  0  0  0  0  0  0  0  0
   25.3527  -20.4636  -13.3982 C   0  0  0  0  0  0  0  0  0  0  0  0
   25.2671  -19.3018  -13.9345 O   0  0  0  0  0  0  0  0  0  0  0  0
   21.8913  -22.6826  -14.5415 C   0  0  0  0  0  0  0  0  0  0  0  0
   22.1374  -21.1758  -14.5684 C   0  0  1  0  0  0  0  0  0  0  0  0
   20.8667  -20.5863  -14.7350 O   0  0  0  0  0  0  0  0  0  0  0  0
   22.7977  -20.7008  -13.3169 C   0  0  2  0  0  0  0  0  0  0  0  0
   24.1331  -21.1091  -13.0977 N   0  0  0  0  0  0  0  0  0  0  0  0
   21.8776  -20.7147  -12.1470 C   0  0  0  0  0  0  0  0  0  0  0  0
   20.5651  -20.1891  -12.2954 O   0  0  0  0  0  0  0  0  0  0  0  0
   22.1056  -21.1410  -11.0048 O   0  0  0  0  0  0  0  0  0  0  0  0
  2  1  1  6
  2  3  1  0
  2  4  1  0
  4  6  1  0
  4  5  1  6
  6  7  2  0
  8  9  1  0
  8  6  1  0
  9 10  1  1
 10 11  1  0
 11 16  2  0
 12 11  1  0
 12 13  2  0
 13 14  1  0
 14 15  2  0
 16 15  1  0
 17 18  2  0
 17  9  1  0
 20 19  1  1
 20 22  1  0
 21 20  1  0
 22 24  1  0
 22 23  1  1
 23 17  1  0
 24 25  1  0
 26 24  2  0
M  END
$$$$
