TFT.pdb
     RDKit          3D

 26 26  0  0  1  0  0  0  0  0999 V2000
   23.9558   -8.1216  -22.6593 C   0  0  0  0  0  0  0  0  0  0  0  0
   23.4239   -8.0582  -21.2460 C   0  0  1  0  0  0  0  0  0  0  0  0
   22.0569   -8.2314  -21.2654 O   0  0  0  0  0  0  0  0  0  0  0  0
   24.1464   -9.0667  -20.4128 C   0  0  2  0  0  0  0  0  0  0  0  0
   23.9605  -10.4072  -20.8662 N   0  0  0  0  0  0  0  0  0  0  0  0
   23.7417   -8.9654  -18.9764 C   0  0  0  0  0  0  0  0  0  0  0  0
   23.1088   -9.8786  -18.4043 O   0  0  0  0  0  0  0  0  0  0  0  0
   24.0521   -7.8314  -18.1850 N   0  0  0  0  0  0  0  0  0  0  0  0
   23.6832   -7.7201  -16.8058 C   0  0  1  0  0  0  0  0  0  0  0  0
   24.7778   -7.5465  -15.8461 C   0  0  0  0  0  0  0  0  0  0  0  0
   25.7944   -8.5985  -15.7786 C   0  0  0  0  0  0  0  0  0  0  0  0
   26.9750   -8.5800  -16.5027 C   0  0  0  0  0  0  0  0  0  0  0  0
   27.8928   -9.5885  -16.4250 C   0  0  0  0  0  0  0  0  0  0  0  0
   27.6633  -10.6705  -15.6089 C   0  0  0  0  0  0  0  0  0  0  0  0
   26.5030  -10.7296  -14.8720 C   0  0  0  0  0  0  0  0  0  0  0  0
   25.5919   -9.6962  -14.9697 C   0  0  0  0  0  0  0  0  0  0  0  0
   22.6900   -6.6110  -16.6921 C   0  0  0  0  0  0  0  0  0  0  0  0
   23.0861   -5.3986  -16.8261 O   0  0  0  0  0  0  0  0  0  0  0  0
   20.1678   -5.5004  -18.8181 C   0  0  0  0  0  0  0  0  0  0  0  0
   19.3681   -5.7093  -17.5341 C   0  0  1  0  0  0  0  0  0  0  0  0
   18.5977   -6.8708  -17.7512 O   0  0  0  0  0  0  0  0  0  0  0  0
   20.2590   -5.8614  -16.3462 C   0  0  2  0  0  0  0  0  0  0  0  0
   21.3121   -6.7990  -16.4462 N   0  0  0  0  0  0  0  0  0  0  0  0
   19.5091   -5.8098  -15.0616 C   0  0  0  0  0  0  0  0  0  0  0  0
   18.6894   -4.6814  -14.7862 O   0  0  0  0  0  0  0  0  0  0  0  0
   19.4979   -6.6537  -14.1527 O   0  0  0  0  0  0  0  0  0  0  0  0
  2  1  1  6
  2  3  1  0
  2  4  1  0
  4  6  1  0
  4  5  1  6
  6  7  2  0
  8  9  1  0
  8  6  1  0
  9 10  1  1
 10 11  1  0
 11 16  2  0
 12 11  1  0
 12 13  2  0
 13 14  1  0
 14 15  2  0
 16 15  1  0
 17 18  2  0
 17  9  1  0
 20 19  1  6
 20 22  1  0
 21 20  1  0
 22 24  1  0
 22 23  1  6
 23 17  1  0
 24 25  1  0
 26 24  2  0
M  END
$$$$
