TFT.pdb
     RDKit          3D

 26 26  0  0  1  0  0  0  0  0999 V2000
   14.5836  -16.2223    6.4349 C   0  0  0  0  0  0  0  0  0  0  0  0
   15.2464  -17.4164    5.7875 C   0  0  1  0  0  0  0  0  0  0  0  0
   14.2800  -18.3177    5.3967 O   0  0  0  0  0  0  0  0  0  0  0  0
   16.1123  -16.9390    4.6671 C   0  0  2  0  0  0  0  0  0  0  0  0
   16.5705  -17.9939    3.8220 N   0  0  0  0  0  0  0  0  0  0  0  0
   17.2858  -16.1700    5.1857 C   0  0  0  0  0  0  0  0  0  0  0  0
   18.4031  -16.7051    5.3510 O   0  0  0  0  0  0  0  0  0  0  0  0
   17.1976  -14.7951    5.5181 N   0  0  0  0  0  0  0  0  0  0  0  0
   18.3074  -14.0433    6.0219 C   0  0  1  0  0  0  0  0  0  0  0  0
   18.3418  -12.6174    5.6826 C   0  0  0  0  0  0  0  0  0  0  0  0
   19.4428  -11.8176    6.2236 C   0  0  0  0  0  0  0  0  0  0  0  0
   19.3460  -11.0436    7.3681 C   0  0  0  0  0  0  0  0  0  0  0  0
   20.3916  -10.2980    7.8336 C   0  0  0  0  0  0  0  0  0  0  0  0
   21.5919  -10.2969    7.1637 C   0  0  0  0  0  0  0  0  0  0  0  0
   21.7315  -11.0517    6.0220 C   0  0  0  0  0  0  0  0  0  0  0  0
   20.6582  -11.7960    5.5733 C   0  0  0  0  0  0  0  0  0  0  0  0
   18.3544  -14.2434    7.5008 C   0  0  0  0  0  0  0  0  0  0  0  0
   17.2910  -14.0561    8.1928 O   0  0  0  0  0  0  0  0  0  0  0  0
   19.4822  -17.4241    9.3332 C   0  0  0  0  0  0  0  0  0  0  0  0
   20.2941  -16.2666    9.9102 C   0  0  1  0  0  0  0  0  0  0  0  0
   21.5828  -16.3903    9.3500 O   0  0  0  0  0  0  0  0  0  0  0  0
   19.6829  -14.9449    9.5826 C   0  0  2  0  0  0  0  0  0  0  0  0
   19.5078  -14.6371    8.2142 N   0  0  0  0  0  0  0  0  0  0  0  0
   20.1715  -13.8556   10.4715 C   0  0  0  0  0  0  0  0  0  0  0  0
   20.0381  -14.0019   11.8792 O   0  0  0  0  0  0  0  0  0  0  0  0
   20.7047  -12.7856   10.1410 O   0  0  0  0  0  0  0  0  0  0  0  0
  2  1  1  6
  2  3  1  0
  2  4  1  0
  4  6  1  0
  4  5  1  1
  6  7  2  0
  8  9  1  0
  8  6  1  0
  9 10  1  1
 10 11  1  0
 11 16  2  0
 12 11  1  0
 12 13  2  0
 13 14  1  0
 14 15  2  0
 16 15  1  0
 17 18  2  0
 17  9  1  0
 20 19  1  6
 20 22  1  0
 21 20  1  0
 22 24  1  0
 22 23  1  6
 23 17  1  0
 24 25  1  0
 26 24  2  0
M  END
$$$$
