TFT.pdb
     RDKit          3D

 26 26  0  0  1  0  0  0  0  0999 V2000
   20.7139  -12.4191  -18.6797 C   0  0  0  0  0  0  0  0  0  0  0  0
   21.3896  -13.6529  -18.1269 C   0  0  1  0  0  0  0  0  0  0  0  0
   21.1239  -14.7255  -18.9505 O   0  0  0  0  0  0  0  0  0  0  0  0
   22.8473  -13.3702  -17.9585 C   0  0  2  0  0  0  0  0  0  0  0  0
   23.5926  -14.5049  -17.5179 N   0  0  0  0  0  0  0  0  0  0  0  0
   23.0675  -12.2314  -17.0139 C   0  0  0  0  0  0  0  0  0  0  0  0
   22.9516  -12.3695  -15.7773 O   0  0  0  0  0  0  0  0  0  0  0  0
   23.4191  -10.9352  -17.4665 N   0  0  0  0  0  0  0  0  0  0  0  0
   23.6922   -9.8474  -16.5762 C   0  0  1  0  0  0  0  0  0  0  0  0
   25.0235   -9.2406  -16.6710 C   0  0  0  0  0  0  0  0  0  0  0  0
   26.1792  -10.0911  -16.3782 C   0  0  0  0  0  0  0  0  0  0  0  0
   26.5006  -10.5489  -15.1111 C   0  0  0  0  0  0  0  0  0  0  0  0
   27.5969  -11.3286  -14.8749 C   0  0  0  0  0  0  0  0  0  0  0  0
   28.4267  -11.6863  -15.9108 C   0  0  0  0  0  0  0  0  0  0  0  0
   28.1447  -11.2531  -17.1857 C   0  0  0  0  0  0  0  0  0  0  0  0
   27.0298  -10.4656  -17.3963 C   0  0  0  0  0  0  0  0  0  0  0  0
   22.6220   -8.8245  -16.7714 C   0  0  0  0  0  0  0  0  0  0  0  0
   22.5516   -8.1962  -17.8872 O   0  0  0  0  0  0  0  0  0  0  0  0
   18.9768   -9.3924  -16.5666 C   0  0  0  0  0  0  0  0  0  0  0  0
   19.1978   -8.1718  -15.6760 C   0  0  1  0  0  0  0  0  0  0  0  0
   19.0033   -8.6256  -14.3546 O   0  0  0  0  0  0  0  0  0  0  0  0
   20.5622   -7.5944  -15.8577 C   0  0  2  0  0  0  0  0  0  0  0  0
   21.6542   -8.4900  -15.7989 N   0  0  0  0  0  0  0  0  0  0  0  0
   20.7190   -6.2793  -15.1785 C   0  0  0  0  0  0  0  0  0  0  0  0
   19.7459   -5.2673  -15.4017 O   0  0  0  0  0  0  0  0  0  0  0  0
   21.6234   -5.9242  -14.4075 O   0  0  0  0  0  0  0  0  0  0  0  0
  2  1  1  6
  2  3  1  0
  2  4  1  0
  4  6  1  0
  4  5  1  1
  6  7  2  0
  8  9  1  0
  8  6  1  0
  9 10  1  6
 10 11  1  0
 11 16  2  0
 12 11  1  0
 12 13  2  0
 13 14  1  0
 14 15  2  0
 16 15  1  0
 17 18  2  0
 17  9  1  0
 20 19  1  6
 20 22  1  0
 21 20  1  0
 22 24  1  0
 22 23  1  1
 23 17  1  0
 24 25  1  0
 26 24  2  0
M  END
$$$$
