TFT.pdb
     RDKit          3D

 26 26  0  0  1  0  0  0  0  0999 V2000
   21.6575   -9.9872  -21.5820 C   0  0  0  0  0  0  0  0  0  0  0  0
   21.2913   -9.2814  -20.2967 C   0  0  1  0  0  0  0  0  0  0  0  0
   19.9633   -9.5145  -20.0113 O   0  0  0  0  0  0  0  0  0  0  0  0
   22.2256   -9.7264  -19.2187 C   0  0  2  0  0  0  0  0  0  0  0  0
   22.1627  -11.1294  -18.9644 N   0  0  0  0  0  0  0  0  0  0  0  0
   21.9750   -8.9776  -17.9483 C   0  0  0  0  0  0  0  0  0  0  0  0
   21.4345   -9.5191  -16.9601 O   0  0  0  0  0  0  0  0  0  0  0  0
   22.3353   -7.6157  -17.7936 N   0  0  0  0  0  0  0  0  0  0  0  0
   22.1175   -6.8857  -16.5811 C   0  0  1  0  0  0  0  0  0  0  0  0
   23.2909   -6.6594  -15.7319 C   0  0  0  0  0  0  0  0  0  0  0  0
   23.9658   -7.8358  -15.1794 C   0  0  0  0  0  0  0  0  0  0  0  0
   23.4391   -8.6268  -14.1718 C   0  0  0  0  0  0  0  0  0  0  0  0
   24.1062   -9.7085  -13.6712 C   0  0  0  0  0  0  0  0  0  0  0  0
   25.3436  -10.0466  -14.1652 C   0  0  0  0  0  0  0  0  0  0  0  0
   25.9042   -9.2878  -15.1665 C   0  0  0  0  0  0  0  0  0  0  0  0
   25.2079   -8.1993  -15.6542 C   0  0  0  0  0  0  0  0  0  0  0  0
   21.4610   -5.5944  -16.9431 C   0  0  0  0  0  0  0  0  0  0  0  0
   22.0648   -4.7840  -17.7327 O   0  0  0  0  0  0  0  0  0  0  0  0
   17.9091   -5.2573  -18.3863 C   0  0  0  0  0  0  0  0  0  0  0  0
   17.9992   -4.2914  -17.2070 C   0  0  1  0  0  0  0  0  0  0  0  0
   17.2548   -4.8893  -16.1686 O   0  0  0  0  0  0  0  0  0  0  0  0
   19.4137   -4.0524  -16.7946 C   0  0  2  0  0  0  0  0  0  0  0  0
   20.1923   -5.1879  -16.4745 N   0  0  0  0  0  0  0  0  0  0  0  0
   19.5578   -2.8561  -15.9210 C   0  0  0  0  0  0  0  0  0  0  0  0
   18.9973   -1.6205  -16.3454 O   0  0  0  0  0  0  0  0  0  0  0  0
   20.1258   -2.7812  -14.8209 O   0  0  0  0  0  0  0  0  0  0  0  0
  2  1  1  6
  2  3  1  0
  2  4  1  0
  4  6  1  0
  4  5  1  1
  6  7  2  0
  8  9  1  0
  8  6  1  0
  9 10  1  6
 10 11  1  0
 11 16  2  0
 12 11  1  0
 12 13  2  0
 13 14  1  0
 14 15  2  0
 16 15  1  0
 17 18  2  0
 17  9  1  0
 20 19  1  6
 20 22  1  0
 21 20  1  0
 22 24  1  0
 22 23  1  1
 23 17  1  0
 24 25  1  0
 26 24  2  0
M  END
$$$$
