TFT.pdb
     RDKit          3D

 26 26  0  0  1  0  0  0  0  0999 V2000
   26.1031    7.0912   -7.3212 C   0  0  0  0  0  0  0  0  0  0  0  0
   27.1610    6.2914   -6.5963 C   0  0  1  0  0  0  0  0  0  0  0  0
   27.5833    6.9933   -5.4880 O   0  0  0  0  0  0  0  0  0  0  0  0
   26.6100    4.9392   -6.2781 C   0  0  2  0  0  0  0  0  0  0  0  0
   27.5237    4.1162   -5.5536 N   0  0  0  0  0  0  0  0  0  0  0  0
   26.1779    4.2294   -7.5219 C   0  0  0  0  0  0  0  0  0  0  0  0
   26.9629    3.5102   -8.1764 O   0  0  0  0  0  0  0  0  0  0  0  0
   24.8578    4.3320   -8.0271 N   0  0  0  0  0  0  0  0  0  0  0  0
   24.4192    3.6446   -9.2043 C   0  0  1  0  0  0  0  0  0  0  0  0
   23.6478    2.4152   -8.9969 C   0  0  0  0  0  0  0  0  0  0  0  0
   24.2917    1.3265   -8.2588 C   0  0  0  0  0  0  0  0  0  0  0  0
   25.1668    0.4173   -8.8298 C   0  0  0  0  0  0  0  0  0  0  0  0
   25.7361   -0.5953   -8.1115 C   0  0  0  0  0  0  0  0  0  0  0  0
   25.4489   -0.7409   -6.7751 C   0  0  0  0  0  0  0  0  0  0  0  0
   24.5844    0.1402   -6.1677 C   0  0  0  0  0  0  0  0  0  0  0  0
   24.0227    1.1548   -6.9177 C   0  0  0  0  0  0  0  0  0  0  0  0
   23.6580    4.6203  -10.0398 C   0  0  0  0  0  0  0  0  0  0  0  0
   22.5831    5.1409   -9.5727 O   0  0  0  0  0  0  0  0  0  0  0  0
   24.9764    7.8237  -11.5180 C   0  0  0  0  0  0  0  0  0  0  0  0
   24.3206    7.0897  -12.6854 C   0  0  1  0  0  0  0  0  0  0  0  0
   25.3840    6.6225  -13.4858 O   0  0  0  0  0  0  0  0  0  0  0  0
   23.4574    5.9656  -12.2171 C   0  0  2  0  0  0  0  0  0  0  0  0
   24.0422    5.0276  -11.3363 N   0  0  0  0  0  0  0  0  0  0  0  0
   22.5780    5.4358  -13.2948 C   0  0  0  0  0  0  0  0  0  0  0  0
   21.6632    6.3164  -13.9340 O   0  0  0  0  0  0  0  0  0  0  0  0
   22.5283    4.2775  -13.7355 O   0  0  0  0  0  0  0  0  0  0  0  0
  2  1  1  1
  2  3  1  0
  2  4  1  0
  4  6  1  0
  4  5  1  6
  6  7  2  0
  8  9  1  0
  8  6  1  0
  9 10  1  1
 10 11  1  0
 11 16  2  0
 12 11  1  0
 12 13  2  0
 13 14  1  0
 14 15  2  0
 16 15  1  0
 17 18  2  0
 17  9  1  0
 20 19  1  1
 20 22  1  0
 21 20  1  0
 22 24  1  0
 22 23  1  6
 23 17  1  0
 24 25  1  0
 26 24  2  0
M  END
$$$$
