TFT.pdb
     RDKit          3D

 26 26  0  0  1  0  0  0  0  0999 V2000
   26.9170  -19.4511  -16.2748 C   0  0  0  0  0  0  0  0  0  0  0  0
   27.3083  -20.8172  -16.7898 C   0  0  1  0  0  0  0  0  0  0  0  0
   28.2833  -20.6786  -17.7538 O   0  0  0  0  0  0  0  0  0  0  0  0
   27.7222  -21.6684  -15.6333 C   0  0  2  0  0  0  0  0  0  0  0  0
   28.1379  -22.9779  -16.0197 N   0  0  0  0  0  0  0  0  0  0  0  0
   26.6242  -21.7715  -14.6227 C   0  0  0  0  0  0  0  0  0  0  0  0
   25.7395  -22.6509  -14.6987 O   0  0  0  0  0  0  0  0  0  0  0  0
   26.5252  -20.8806  -13.5250 N   0  0  0  0  0  0  0  0  0  0  0  0
   25.4745  -20.9543  -12.5549 C   0  0  1  0  0  0  0  0  0  0  0  0
   25.7082  -20.2668  -11.2813 C   0  0  0  0  0  0  0  0  0  0  0  0
   24.6587  -20.3489  -10.2633 C   0  0  0  0  0  0  0  0  0  0  0  0
   23.4153  -19.7508  -10.3852 C   0  0  0  0  0  0  0  0  0  0  0  0
   22.4667  -19.8368   -9.4062 C   0  0  0  0  0  0  0  0  0  0  0  0
   22.7275  -20.5339   -8.2506 C   0  0  0  0  0  0  0  0  0  0  0  0
   23.9502  -21.1434   -8.0879 C   0  0  0  0  0  0  0  0  0  0  0  0
   24.8911  -21.0403   -9.0936 C   0  0  0  0  0  0  0  0  0  0  0  0
   24.2233  -20.4649  -13.2063 C   0  0  0  0  0  0  0  0  0  0  0  0
   24.1796  -19.2654  -13.6579 O   0  0  0  0  0  0  0  0  0  0  0  0
   22.7248  -21.3639  -16.2544 C   0  0  0  0  0  0  0  0  0  0  0  0
   21.5337  -21.5123  -15.3105 C   0  0  1  0  0  0  0  0  0  0  0  0
   21.2895  -22.8989  -15.2223 O   0  0  0  0  0  0  0  0  0  0  0  0
   21.8148  -20.9229  -13.9683 C   0  0  2  0  0  0  0  0  0  0  0  0
   23.0557  -21.2420  -13.3713 N   0  0  0  0  0  0  0  0  0  0  0  0
   20.6148  -20.9133  -13.0879 C   0  0  0  0  0  0  0  0  0  0  0  0
   20.7120  -21.4694  -11.7831 O   0  0  0  0  0  0  0  0  0  0  0  0
   19.4865  -20.4669  -13.3445 O   0  0  0  0  0  0  0  0  0  0  0  0
  2  1  1  1
  2  3  1  0
  2  4  1  0
  4  6  1  0
  4  5  1  6
  6  7  2  0
  8  9  1  0
  8  6  1  0
  9 10  1  1
 10 11  1  0
 11 16  2  0
 12 11  1  0
 12 13  2  0
 13 14  1  0
 14 15  2  0
 16 15  1  0
 17 18  2  0
 17  9  1  0
 20 19  1  6
 20 22  1  0
 21 20  1  0
 22 24  1  0
 22 23  1  1
 23 17  1  0
 24 25  1  0
 26 24  2  0
M  END
$$$$
