EAS.pdb
     RDKit          3D

 21 20  0  0  1  0  0  0  0  0999 V2000
   17.5872  -11.2550  -16.2702 N   0  0  0  0  0  0  0  0  0  0  0  0
   18.7583  -10.7294  -16.8903 C   0  0  1  0  0  0  0  0  0  0  0  0
   18.4650   -9.8376  -18.0434 C   0  0  0  0  0  0  0  0  0  0  0  0
   18.2098  -10.4764  -19.3557 C   0  0  0  0  0  0  0  0  0  0  0  0
   19.3262  -11.1352  -20.0274 C   0  0  0  0  0  0  0  0  0  0  0  0
   20.3659  -11.5374  -19.4785 O   0  0  0  0  0  0  0  0  0  0  0  0
   19.5463   -9.9489  -15.9056 C   0  0  0  0  0  0  0  0  0  0  0  0
   18.9096   -9.1977  -15.1257 O   0  0  0  0  0  0  0  0  0  0  0  0
   19.2446  -11.3458  -21.4166 O   0  0  0  0  0  0  0  0  0  0  0  0
   23.1362   -9.7609  -14.8607 C   0  0  0  0  0  0  0  0  0  0  0  0
   21.7191   -9.1867  -14.9037 C   0  0  2  0  0  0  0  0  0  0  0  0
   20.9364  -10.0132  -15.8127 N   0  0  0  0  0  0  0  0  0  0  0  0
   21.7418   -7.7652  -15.3263 C   0  0  0  0  0  0  0  0  0  0  0  0
   21.4058   -7.4900  -16.5062 O   0  0  0  0  0  0  0  0  0  0  0  0
   20.1043   -3.7584  -15.0007 O   0  0  0  0  0  0  0  0  0  0  0  0
   20.3960   -5.0956  -14.8565 C   0  0  0  0  0  0  0  0  0  0  0  0
   21.8832   -5.3454  -14.6718 C   0  0  2  0  0  0  0  0  0  0  0  0
   22.1316   -6.7367  -14.4267 N   0  0  0  0  0  0  0  0  0  0  0  0
   22.4971   -4.4402  -13.6990 C   0  0  0  0  0  0  0  0  0  0  0  0
   22.5836   -4.8312  -12.5051 O   0  0  0  0  0  0  0  0  0  0  0  0
   22.9961   -3.1798  -13.9764 O   0  0  0  0  0  0  0  0  0  0  0  0
  2  1  1  1
  3  2  1  0
  4  3  1  0
  4  5  1  0
  5  6  2  0
  7  2  1  0
  8  7  2  0
  9  5  1  0
 11 10  1  6
 11 13  1  0
 11 12  1  0
 12  7  1  0
 13 18  1  0
 14 13  2  0
 16 15  1  0
 17 16  1  1
 18 17  1  0
 19 21  1  0
 19 17  1  0
 20 19  2  0
M  END
$$$$
