EAS.pdb
     RDKit          3D

 21 20  0  0  1  0  0  0  0  0999 V2000
   17.0618  -12.8043  -14.6518 N   0  0  0  0  0  0  0  0  0  0  0  0
   15.8852  -12.0029  -14.5769 C   0  0  1  0  0  0  0  0  0  0  0  0
   14.8496  -12.5600  -13.6669 C   0  0  0  0  0  0  0  0  0  0  0  0
   14.2786  -13.8840  -14.0082 C   0  0  0  0  0  0  0  0  0  0  0  0
   13.3067  -14.4700  -13.0897 C   0  0  0  0  0  0  0  0  0  0  0  0
   12.8774  -13.9365  -12.0528 O   0  0  0  0  0  0  0  0  0  0  0  0
   16.2279  -10.6439  -14.0917 C   0  0  0  0  0  0  0  0  0  0  0  0
   17.2072  -10.5418  -13.3119 O   0  0  0  0  0  0  0  0  0  0  0  0
   12.7951  -15.7488  -13.3791 O   0  0  0  0  0  0  0  0  0  0  0  0
   15.1224   -7.1590  -14.8778 C   0  0  0  0  0  0  0  0  0  0  0  0
   15.8612   -8.1616  -13.9900 C   0  0  2  0  0  0  0  0  0  0  0  0
   15.5211   -9.4986  -14.4580 N   0  0  0  0  0  0  0  0  0  0  0  0
   15.5017   -7.9645  -12.5645 C   0  0  0  0  0  0  0  0  0  0  0  0
   14.8212   -8.8546  -11.9941 O   0  0  0  0  0  0  0  0  0  0  0  0
   16.1097   -7.6069   -8.3025 O   0  0  0  0  0  0  0  0  0  0  0  0
   16.2617   -7.7746   -9.6600 C   0  0  0  0  0  0  0  0  0  0  0  0
   15.6792   -6.6173  -10.4533 C   0  0  2  0  0  0  0  0  0  0  0  0
   15.9124   -6.8031  -11.8564 N   0  0  0  0  0  0  0  0  0  0  0  0
   16.0897   -5.3097   -9.9393 C   0  0  0  0  0  0  0  0  0  0  0  0
   16.9821   -4.6837  -10.5700 O   0  0  0  0  0  0  0  0  0  0  0  0
   15.5798   -4.6929   -8.8105 O   0  0  0  0  0  0  0  0  0  0  0  0
  2  1  1  1
  3  2  1  0
  4  3  1  0
  4  5  1  0
  5  6  2  0
  7  2  1  0
  8  7  2  0
  9  5  1  0
 11 10  1  6
 11 13  1  0
 11 12  1  0
 12  7  1  0
 13 18  1  0
 14 13  2  0
 16 15  1  0
 17 16  1  1
 18 17  1  0
 19 21  1  0
 19 17  1  0
 20 19  2  0
M  END
$$$$
