EAS.pdb
     RDKit          3D

 21 20  0  0  1  0  0  0  0  0999 V2000
   21.9010  -10.3168  -20.3562 N   0  0  0  0  0  0  0  0  0  0  0  0
   22.4294  -10.1719  -19.0401 C   0  0  1  0  0  0  0  0  0  0  0  0
   23.7454   -9.4808  -19.0060 C   0  0  0  0  0  0  0  0  0  0  0  0
   24.8879  -10.1500  -19.6712 C   0  0  0  0  0  0  0  0  0  0  0  0
   26.1812   -9.4727  -19.6607 C   0  0  0  0  0  0  0  0  0  0  0  0
   26.4231   -8.3824  -19.1159 O   0  0  0  0  0  0  0  0  0  0  0  0
   21.4886   -9.3921  -18.1995 C   0  0  0  0  0  0  0  0  0  0  0  0
   20.9706   -8.3696  -18.7133 O   0  0  0  0  0  0  0  0  0  0  0  0
   27.2654  -10.0850  -20.3167 O   0  0  0  0  0  0  0  0  0  0  0  0
   19.8439   -9.8330  -14.8737 C   0  0  0  0  0  0  0  0  0  0  0  0
   20.2773   -8.9495  -16.0447 C   0  0  2  0  0  0  0  0  0  0  0  0
   21.1631   -9.7403  -16.8888 N   0  0  0  0  0  0  0  0  0  0  0  0
   20.9351   -7.7140  -15.5541 C   0  0  0  0  0  0  0  0  0  0  0  0
   22.1903   -7.6531  -15.5921 O   0  0  0  0  0  0  0  0  0  0  0  0
   22.2565   -4.6663  -12.7866 O   0  0  0  0  0  0  0  0  0  0  0  0
   21.7220   -5.7849  -13.3842 C   0  0  0  0  0  0  0  0  0  0  0  0
   20.7666   -5.4357  -14.5126 C   0  0  2  0  0  0  0  0  0  0  0  0
   20.1730   -6.6243  -15.0533 N   0  0  0  0  0  0  0  0  0  0  0  0
   21.3642   -4.5488  -15.5120 C   0  0  0  0  0  0  0  0  0  0  0  0
   22.1034   -5.0664  -16.3905 O   0  0  0  0  0  0  0  0  0  0  0  0
   21.1880   -3.1781  -15.5791 O   0  0  0  0  0  0  0  0  0  0  0  0
  2  1  1  6
  3  2  1  0
  4  3  1  0
  4  5  1  0
  5  6  2  0
  7  2  1  0
  8  7  2  0
  9  5  1  0
 11 10  1  1
 11 13  1  0
 11 12  1  0
 12  7  1  0
 13 18  1  0
 14 13  2  0
 16 15  1  0
 17 16  1  1
 18 17  1  0
 19 21  1  0
 19 17  1  0
 20 19  2  0
M  END
$$$$
