EAS.pdb
     RDKit          3D

 21 20  0  0  1  0  0  0  0  0999 V2000
   16.4271  -11.3858  -16.0958 N   0  0  0  0  0  0  0  0  0  0  0  0
   16.2849   -9.9770  -15.9307 C   0  0  1  0  0  0  0  0  0  0  0  0
   15.7042   -9.5931  -14.6168 C   0  0  0  0  0  0  0  0  0  0  0  0
   14.2819   -9.9289  -14.3723 C   0  0  0  0  0  0  0  0  0  0  0  0
   13.2670   -9.2304  -15.1557 C   0  0  0  0  0  0  0  0  0  0  0  0
   12.7528   -8.1373  -14.8643 O   0  0  0  0  0  0  0  0  0  0  0  0
   17.6078   -9.3168  -16.0491 C   0  0  0  0  0  0  0  0  0  0  0  0
   18.5643   -9.8283  -15.4155 O   0  0  0  0  0  0  0  0  0  0  0  0
   12.8134   -9.8234  -16.3487 O   0  0  0  0  0  0  0  0  0  0  0  0
   19.0420   -6.5416  -18.1105 C   0  0  0  0  0  0  0  0  0  0  0  0
   19.1301   -7.5346  -16.9505 C   0  0  2  0  0  0  0  0  0  0  0  0
   17.8282   -8.1748  -16.8187 N   0  0  0  0  0  0  0  0  0  0  0  0
   19.5396   -6.8472  -15.7016 C   0  0  0  0  0  0  0  0  0  0  0  0
   18.6443   -6.3289  -14.9870 O   0  0  0  0  0  0  0  0  0  0  0  0
   21.6017   -8.1233  -12.8085 O   0  0  0  0  0  0  0  0  0  0  0  0
   22.2660   -7.0339  -13.3242 C   0  0  0  0  0  0  0  0  0  0  0  0
   21.3476   -6.1206  -14.1183 C   0  0  2  0  0  0  0  0  0  0  0  0
   20.9054   -6.7730  -15.3169 N   0  0  0  0  0  0  0  0  0  0  0  0
   21.9122   -4.7865  -14.3281 C   0  0  0  0  0  0  0  0  0  0  0  0
   22.4150   -4.5313  -15.4542 O   0  0  0  0  0  0  0  0  0  0  0  0
   21.9434   -3.7697  -13.3903 O   0  0  0  0  0  0  0  0  0  0  0  0
  2  1  1  1
  3  2  1  0
  4  3  1  0
  4  5  1  0
  5  6  2  0
  7  2  1  0
  8  7  2  0
  9  5  1  0
 11 10  1  6
 11 13  1  0
 11 12  1  0
 12  7  1  0
 13 18  1  0
 14 13  2  0
 16 15  1  0
 17 16  1  6
 18 17  1  0
 19 21  1  0
 19 17  1  0
 20 19  2  0
M  END
$$$$
