EAS.pdb
     RDKit          3D

 21 20  0  0  1  0  0  0  0  0999 V2000
   21.8379  -14.2985  -16.5550 N   0  0  0  0  0  0  0  0  0  0  0  0
   20.9004  -13.2386  -16.7278 C   0  0  1  0  0  0  0  0  0  0  0  0
   19.7722  -13.2861  -15.7604 C   0  0  0  0  0  0  0  0  0  0  0  0
   18.8555  -14.4479  -15.8339 C   0  0  0  0  0  0  0  0  0  0  0  0
   17.7395  -14.5025  -14.8942 C   0  0  0  0  0  0  0  0  0  0  0  0
   17.6428  -15.2795  -13.9293 O   0  0  0  0  0  0  0  0  0  0  0  0
   21.5793  -11.9300  -16.5648 C   0  0  0  0  0  0  0  0  0  0  0  0
   22.4196  -11.8300  -15.6365 O   0  0  0  0  0  0  0  0  0  0  0  0
   16.6666  -13.6092  -15.0729 O   0  0  0  0  0  0  0  0  0  0  0  0
   22.0370   -8.9102  -18.6573 C   0  0  0  0  0  0  0  0  0  0  0  0
   22.0495   -9.5681  -17.2766 C   0  0  2  0  0  0  0  0  0  0  0  0
   21.3273  -10.8288  -17.3827 N   0  0  0  0  0  0  0  0  0  0  0  0
   21.4494   -8.6685  -16.2614 C   0  0  0  0  0  0  0  0  0  0  0  0
   20.2108   -8.7425  -16.0591 O   0  0  0  0  0  0  0  0  0  0  0  0
   22.3423   -5.1054  -13.0182 O   0  0  0  0  0  0  0  0  0  0  0  0
   22.7978   -5.9252  -14.0254 C   0  0  0  0  0  0  0  0  0  0  0  0
   21.7051   -6.8264  -14.5747 C   0  0  2  0  0  0  0  0  0  0  0  0
   22.2474   -7.7453  -15.5334 N   0  0  0  0  0  0  0  0  0  0  0  0
   20.5346   -6.0829  -15.0435 C   0  0  0  0  0  0  0  0  0  0  0  0
   19.5080   -6.0817  -14.3142 O   0  0  0  0  0  0  0  0  0  0  0  0
   20.4540   -5.3737  -16.2289 O   0  0  0  0  0  0  0  0  0  0  0  0
  2  1  1  1
  3  2  1  0
  4  3  1  0
  4  5  1  0
  5  6  2  0
  7  2  1  0
  8  7  2  0
  9  5  1  0
 11 10  1  6
 11 13  1  0
 11 12  1  0
 12  7  1  0
 13 18  1  0
 14 13  2  0
 16 15  1  0
 17 16  1  6
 18 17  1  0
 19 21  1  0
 19 17  1  0
 20 19  2  0
M  END
$$$$
