EAS.pdb
     RDKit          3D

 21 20  0  0  1  0  0  0  0  0999 V2000
   22.3377  -16.4840  -16.8744 N   0  0  0  0  0  0  0  0  0  0  0  0
   21.2139  -15.6343  -16.6567 C   0  0  1  0  0  0  0  0  0  0  0  0
   20.5853  -15.8186  -15.3219 C   0  0  0  0  0  0  0  0  0  0  0  0
   19.8132  -17.0626  -15.0943 C   0  0  0  0  0  0  0  0  0  0  0  0
   20.5525  -18.3139  -14.9559 C   0  0  0  0  0  0  0  0  0  0  0  0
   21.7895  -18.4226  -14.9079 O   0  0  0  0  0  0  0  0  0  0  0  0
   21.6236  -14.2134  -16.7699 C   0  0  0  0  0  0  0  0  0  0  0  0
   22.4396  -13.7808  -15.9185 O   0  0  0  0  0  0  0  0  0  0  0  0
   19.8269  -19.5166  -14.8668 O   0  0  0  0  0  0  0  0  0  0  0  0
   21.0990  -11.4722  -19.2651 C   0  0  0  0  0  0  0  0  0  0  0  0
   21.5869  -11.9736  -17.9049 C   0  0  2  0  0  0  0  0  0  0  0  0
   21.1490  -13.3557  -17.7619 N   0  0  0  0  0  0  0  0  0  0  0  0
   21.0716  -11.1123  -16.8128 C   0  0  0  0  0  0  0  0  0  0  0  0
   19.9554  -11.3957  -16.3081 O   0  0  0  0  0  0  0  0  0  0  0  0
   23.1704   -9.4908  -13.7518 O   0  0  0  0  0  0  0  0  0  0  0  0
   21.8172   -9.6554  -13.9415 C   0  0  0  0  0  0  0  0  0  0  0  0
   21.3562   -9.1349  -15.2922 C   0  0  2  0  0  0  0  0  0  0  0  0
   21.8144   -9.9953  -16.3445 N   0  0  0  0  0  0  0  0  0  0  0  0
   21.6628   -7.7176  -15.4922 C   0  0  0  0  0  0  0  0  0  0  0  0
   22.4519   -7.4128  -16.4251 O   0  0  0  0  0  0  0  0  0  0  0  0
   21.1581   -6.6715  -14.7403 O   0  0  0  0  0  0  0  0  0  0  0  0
  2  1  1  1
  3  2  1  0
  4  3  1  0
  4  5  1  0
  5  6  2  0
  7  2  1  0
  8  7  2  0
  9  5  1  0
 11 10  1  6
 11 13  1  0
 11 12  1  0
 12  7  1  0
 13 18  1  0
 14 13  2  0
 16 15  1  0
 17 16  1  1
 18 17  1  0
 19 21  1  0
 19 17  1  0
 20 19  2  0
M  END
$$$$
