EAS.pdb
     RDKit          3D

 21 20  0  0  1  0  0  0  0  0999 V2000
   15.1391  -10.4047  -15.5109 N   0  0  0  0  0  0  0  0  0  0  0  0
   16.1872  -10.7504  -14.6085 C   0  0  1  0  0  0  0  0  0  0  0  0
   17.2648  -11.5584  -15.2384 C   0  0  0  0  0  0  0  0  0  0  0  0
   16.9174  -12.9235  -15.6982 C   0  0  0  0  0  0  0  0  0  0  0  0
   17.9319  -13.6828  -16.4233 C   0  0  0  0  0  0  0  0  0  0  0  0
   17.8438  -14.0676  -17.6016 O   0  0  0  0  0  0  0  0  0  0  0  0
   16.8084   -9.5209  -14.0586 C   0  0  0  0  0  0  0  0  0  0  0  0
   16.9775   -8.5594  -14.8489 O   0  0  0  0  0  0  0  0  0  0  0  0
   19.1228  -14.0221  -15.7542 O   0  0  0  0  0  0  0  0  0  0  0  0
   17.9073   -8.3534  -10.6693 C   0  0  0  0  0  0  0  0  0  0  0  0
   17.8255   -8.1897  -12.1879 C   0  0  2  0  0  0  0  0  0  0  0  0
   17.2048   -9.3921  -12.7277 N   0  0  0  0  0  0  0  0  0  0  0  0
   19.1720   -7.9540  -12.7634 C   0  0  0  0  0  0  0  0  0  0  0  0
   19.7421   -8.9071  -13.3528 O   0  0  0  0  0  0  0  0  0  0  0  0
   22.0204   -6.3346  -15.5331 O   0  0  0  0  0  0  0  0  0  0  0  0
   20.9143   -6.7269  -14.8142 C   0  0  0  0  0  0  0  0  0  0  0  0
   21.0205   -6.3574  -13.3444 C   0  0  2  0  0  0  0  0  0  0  0  0
   19.8065   -6.6873  -12.6552 N   0  0  0  0  0  0  0  0  0  0  0  0
   21.4828   -4.9847  -13.1333 C   0  0  0  0  0  0  0  0  0  0  0  0
   20.6151   -4.0735  -13.0818 O   0  0  0  0  0  0  0  0  0  0  0  0
   22.8017   -4.5942  -12.9836 O   0  0  0  0  0  0  0  0  0  0  0  0
  2  1  1  6
  3  2  1  0
  4  3  1  0
  4  5  1  0
  5  6  2  0
  7  2  1  0
  8  7  2  0
  9  5  1  0
 11 10  1  1
 11 13  1  0
 11 12  1  0
 12  7  1  0
 13 18  1  0
 14 13  2  0
 16 15  1  0
 17 16  1  6
 18 17  1  0
 19 21  1  0
 19 17  1  0
 20 19  2  0
M  END
$$$$
