EAS.pdb
     RDKit          3D

 21 20  0  0  1  0  0  0  0  0999 V2000
   12.6957   -9.4287   -9.5622 N   0  0  0  0  0  0  0  0  0  0  0  0
   14.0919   -9.6782   -9.7059 C   0  0  1  0  0  0  0  0  0  0  0  0
   14.4049  -10.6979  -10.7418 C   0  0  0  0  0  0  0  0  0  0  0  0
   13.9987  -12.0968  -10.4705 C   0  0  0  0  0  0  0  0  0  0  0  0
   14.2265  -13.0925  -11.5137 C   0  0  0  0  0  0  0  0  0  0  0  0
   14.9982  -14.0631  -11.4322 O   0  0  0  0  0  0  0  0  0  0  0  0
   14.7946   -8.4264  -10.0785 C   0  0  0  0  0  0  0  0  0  0  0  0
   14.2866   -7.7327  -10.9943 O   0  0  0  0  0  0  0  0  0  0  0  0
   13.5246  -12.9667  -12.7271 O   0  0  0  0  0  0  0  0  0  0  0  0
   17.0322   -5.9831   -8.6744 C   0  0  0  0  0  0  0  0  0  0  0  0
   16.7284   -6.8334   -9.9090 C   0  0  2  0  0  0  0  0  0  0  0  0
   15.9723   -7.9975   -9.4669 N   0  0  0  0  0  0  0  0  0  0  0  0
   17.9819   -7.2166  -10.6032 C   0  0  0  0  0  0  0  0  0  0  0  0
   18.5590   -8.2755  -10.2474 O   0  0  0  0  0  0  0  0  0  0  0  0
   20.3435   -7.8989  -14.4348 O   0  0  0  0  0  0  0  0  0  0  0  0
   19.2639   -7.5434  -13.6589 C   0  0  0  0  0  0  0  0  0  0  0  0
   19.6767   -6.7902  -12.4058 C   0  0  2  0  0  0  0  0  0  0  0  0
   18.5215   -6.4132  -11.6435 N   0  0  0  0  0  0  0  0  0  0  0  0
   20.6057   -5.6927  -12.6800 C   0  0  0  0  0  0  0  0  0  0  0  0
   20.1196   -4.5516  -12.8983 O   0  0  0  0  0  0  0  0  0  0  0  0
   21.9847   -5.7975  -12.7214 O   0  0  0  0  0  0  0  0  0  0  0  0
  2  1  1  6
  3  2  1  0
  4  3  1  0
  4  5  1  0
  5  6  2  0
  7  2  1  0
  8  7  2  0
  9  5  1  0
 11 10  1  1
 11 13  1  0
 11 12  1  0
 12  7  1  0
 13 18  1  0
 14 13  2  0
 16 15  1  0
 17 16  1  6
 18 17  1  0
 19 21  1  0
 19 17  1  0
 20 19  2  0
M  END
$$$$
