EAS.pdb
     RDKit          3D

 21 20  0  0  1  0  0  0  0  0999 V2000
   20.0721  -13.0669  -16.8715 N   0  0  0  0  0  0  0  0  0  0  0  0
   19.1570  -11.9738  -16.8839 C   0  0  1  0  0  0  0  0  0  0  0  0
   18.2203  -11.9761  -15.7291 C   0  0  0  0  0  0  0  0  0  0  0  0
   17.3070  -13.1345  -15.5904 C   0  0  0  0  0  0  0  0  0  0  0  0
   16.3415  -13.1204  -14.4953 C   0  0  0  0  0  0  0  0  0  0  0  0
   16.2185  -12.2177  -13.6501 O   0  0  0  0  0  0  0  0  0  0  0  0
   19.9002  -10.6905  -16.8592 C   0  0  0  0  0  0  0  0  0  0  0  0
   20.9784  -10.6629  -16.2152 O   0  0  0  0  0  0  0  0  0  0  0  0
   15.4616  -14.2106  -14.3614 O   0  0  0  0  0  0  0  0  0  0  0  0
   19.6223   -7.4196  -18.6474 C   0  0  0  0  0  0  0  0  0  0  0  0
   20.2241   -8.2978  -17.5491 C   0  0  2  0  0  0  0  0  0  0  0  0
   19.4595   -9.5371  -17.5076 N   0  0  0  0  0  0  0  0  0  0  0  0
   20.2075   -7.5915  -16.2449 C   0  0  0  0  0  0  0  0  0  0  0  0
   19.2313   -7.7843  -15.4765 O   0  0  0  0  0  0  0  0  0  0  0  0
   22.7752   -4.7639  -13.1823 O   0  0  0  0  0  0  0  0  0  0  0  0
   22.6842   -5.4229  -14.3871 C   0  0  0  0  0  0  0  0  0  0  0  0
   21.3236   -6.0672  -14.5912 C   0  0  2  0  0  0  0  0  0  0  0  0
   21.2636   -6.7190  -15.8677 N   0  0  0  0  0  0  0  0  0  0  0  0
   20.2132   -5.1511  -14.3264 C   0  0  0  0  0  0  0  0  0  0  0  0
   19.8133   -4.4228  -15.2728 O   0  0  0  0  0  0  0  0  0  0  0  0
   19.5563   -5.0118  -13.1166 O   0  0  0  0  0  0  0  0  0  0  0  0
  2  1  1  1
  3  2  1  0
  4  3  1  0
  4  5  1  0
  5  6  2  0
  7  2  1  0
  8  7  2  0
  9  5  1  0
 11 10  1  6
 11 13  1  0
 11 12  1  0
 12  7  1  0
 13 18  1  0
 14 13  2  0
 16 15  1  0
 17 16  1  6
 18 17  1  0
 19 21  1  0
 19 17  1  0
 20 19  2  0
M  END
$$$$
