EAS.pdb
     RDKit          3D

 21 20  0  0  1  0  0  0  0  0999 V2000
   18.1798  -12.7928  -15.6130 N   0  0  0  0  0  0  0  0  0  0  0  0
   18.4050  -11.6201  -16.3917 C   0  0  1  0  0  0  0  0  0  0  0  0
   17.1800  -10.8015  -16.5924 C   0  0  0  0  0  0  0  0  0  0  0  0
   16.0334  -11.4417  -17.2787 C   0  0  0  0  0  0  0  0  0  0  0  0
   14.9444  -11.9614  -16.4568 C   0  0  0  0  0  0  0  0  0  0  0  0
   15.0633  -12.7848  -15.5336 O   0  0  0  0  0  0  0  0  0  0  0  0
   19.4184  -10.7610  -15.7324 C   0  0  0  0  0  0  0  0  0  0  0  0
   19.1878  -10.4035  -14.5505 O   0  0  0  0  0  0  0  0  0  0  0  0
   13.6363  -11.5079  -16.7099 O   0  0  0  0  0  0  0  0  0  0  0  0
   22.9010   -9.6596  -16.4696 C   0  0  0  0  0  0  0  0  0  0  0  0
   21.5798   -9.4825  -15.7198 C   0  0  2  0  0  0  0  0  0  0  0  0
   20.5921  -10.3420  -16.3585 N   0  0  0  0  0  0  0  0  0  0  0  0
   21.1618   -8.0594  -15.7226 C   0  0  0  0  0  0  0  0  0  0  0  0
   20.3100   -7.6913  -16.5710 O   0  0  0  0  0  0  0  0  0  0  0  0
   19.3351   -4.3837  -14.4104 O   0  0  0  0  0  0  0  0  0  0  0  0
   19.7756   -5.6801  -14.5490 C   0  0  0  0  0  0  0  0  0  0  0  0
   21.2834   -5.7627  -14.7156 C   0  0  2  0  0  0  0  0  0  0  0  0
   21.7054   -7.1314  -14.7940 N   0  0  0  0  0  0  0  0  0  0  0  0
   22.0108   -4.9604  -13.7308 C   0  0  0  0  0  0  0  0  0  0  0  0
   22.5259   -5.5588  -12.7498 O   0  0  0  0  0  0  0  0  0  0  0  0
   22.1852   -3.5887  -13.7815 O   0  0  0  0  0  0  0  0  0  0  0  0
  2  1  1  1
  3  2  1  0
  4  3  1  0
  4  5  1  0
  5  6  2  0
  7  2  1  0
  8  7  2  0
  9  5  1  0
 11 10  1  6
 11 13  1  0
 11 12  1  0
 12  7  1  0
 13 18  1  0
 14 13  2  0
 16 15  1  0
 17 16  1  1
 18 17  1  0
 19 21  1  0
 19 17  1  0
 20 19  2  0
M  END
$$$$
