EAS.pdb
     RDKit          3D

 21 20  0  0  1  0  0  0  0  0999 V2000
   19.8170  -13.1712  -16.5304 N   0  0  0  0  0  0  0  0  0  0  0  0
   19.3390  -11.8676  -16.8535 C   0  0  1  0  0  0  0  0  0  0  0  0
   18.1174  -11.4837  -16.0978 C   0  0  0  0  0  0  0  0  0  0  0  0
   17.1841  -12.5667  -15.7086 C   0  0  0  0  0  0  0  0  0  0  0  0
   16.0385  -12.2187  -14.8731 C   0  0  0  0  0  0  0  0  0  0  0  0
   15.2942  -13.0265  -14.2920 O   0  0  0  0  0  0  0  0  0  0  0  0
   20.3855  -10.8577  -16.5623 C   0  0  0  0  0  0  0  0  0  0  0  0
   21.0130  -10.9756  -15.4805 O   0  0  0  0  0  0  0  0  0  0  0  0
   15.7271  -10.8580  -14.6931 O   0  0  0  0  0  0  0  0  0  0  0  0
   22.0814   -8.1015  -18.4151 C   0  0  0  0  0  0  0  0  0  0  0  0
   21.6617   -8.7633  -17.1016 C   0  0  2  0  0  0  0  0  0  0  0  0
   20.6940   -9.8040  -17.4222 N   0  0  0  0  0  0  0  0  0  0  0  0
   21.1058   -7.7589  -16.1624 C   0  0  0  0  0  0  0  0  0  0  0  0
   19.8655   -7.5536  -16.1767 O   0  0  0  0  0  0  0  0  0  0  0  0
   22.0394   -4.8003  -12.3948 O   0  0  0  0  0  0  0  0  0  0  0  0
   22.5138   -5.6753  -13.3453 C   0  0  0  0  0  0  0  0  0  0  0  0
   21.4644   -6.0179  -14.3892 C   0  0  2  0  0  0  0  0  0  0  0  0
   21.9470   -7.0443  -15.2675 N   0  0  0  0  0  0  0  0  0  0  0  0
   20.9324   -4.8376  -15.0719 C   0  0  0  0  0  0  0  0  0  0  0  0
   21.5245   -4.4424  -16.1108 O   0  0  0  0  0  0  0  0  0  0  0  0
   19.8253   -4.1090  -14.6742 O   0  0  0  0  0  0  0  0  0  0  0  0
  2  1  1  1
  3  2  1  0
  4  3  1  0
  4  5  1  0
  5  6  2  0
  7  2  1  0
  8  7  2  0
  9  5  1  0
 11 10  1  6
 11 13  1  0
 11 12  1  0
 12  7  1  0
 13 18  1  0
 14 13  2  0
 16 15  1  0
 17 16  1  1
 18 17  1  0
 19 21  1  0
 19 17  1  0
 20 19  2  0
M  END
$$$$
