EAS.pdb
     RDKit          3D

 21 20  0  0  1  0  0  0  0  0999 V2000
   12.9460  -11.0139  -10.9642 N   0  0  0  0  0  0  0  0  0  0  0  0
   14.2495  -10.4396  -11.0206 C   0  0  1  0  0  0  0  0  0  0  0  0
   14.8347  -10.4387  -12.3875 C   0  0  0  0  0  0  0  0  0  0  0  0
   15.1575  -11.7510  -12.9952 C   0  0  0  0  0  0  0  0  0  0  0  0
   16.1733  -12.5761  -12.3479 C   0  0  0  0  0  0  0  0  0  0  0  0
   16.0264  -13.7568  -11.9893 O   0  0  0  0  0  0  0  0  0  0  0  0
   14.2049   -9.0344  -10.5482 C   0  0  0  0  0  0  0  0  0  0  0  0
   13.2915   -8.3031  -11.0050 O   0  0  0  0  0  0  0  0  0  0  0  0
   17.4374  -12.0108  -12.0960 O   0  0  0  0  0  0  0  0  0  0  0  0
   15.7275   -7.0577   -7.8073 C   0  0  0  0  0  0  0  0  0  0  0  0
   15.0986   -7.1132   -9.2004 C   0  0  2  0  0  0  0  0  0  0  0  0
   15.1175   -8.5028   -9.6373 N   0  0  0  0  0  0  0  0  0  0  0  0
   15.8266   -6.2261  -10.1402 C   0  0  0  0  0  0  0  0  0  0  0  0
   16.4937   -6.7576  -11.0639 O   0  0  0  0  0  0  0  0  0  0  0  0
   15.7632   -3.3256  -13.3383 O   0  0  0  0  0  0  0  0  0  0  0  0
   15.4380   -4.2057  -12.3314 C   0  0  0  0  0  0  0  0  0  0  0  0
   16.1875   -3.9113  -11.0432 C   0  0  2  0  0  0  0  0  0  0  0  0
   15.7756   -4.8125  -10.0059 N   0  0  0  0  0  0  0  0  0  0  0  0
   16.1446   -2.4969  -10.6687 C   0  0  0  0  0  0  0  0  0  0  0  0
   15.1837   -2.1068   -9.9543 O   0  0  0  0  0  0  0  0  0  0  0  0
   17.0749   -1.5398  -11.0332 O   0  0  0  0  0  0  0  0  0  0  0  0
  2  1  1  6
  3  2  1  0
  4  3  1  0
  4  5  1  0
  5  6  2  0
  7  2  1  0
  8  7  2  0
  9  5  1  0
 11 10  1  1
 11 13  1  0
 11 12  1  0
 12  7  1  0
 13 18  1  0
 14 13  2  0
 16 15  1  0
 17 16  1  6
 18 17  1  0
 19 21  1  0
 19 17  1  0
 20 19  2  0
M  END
$$$$
