EAS.pdb
     RDKit          3D

 21 20  0  0  1  0  0  0  0  0999 V2000
   18.4867  -12.5664  -16.5060 N   0  0  0  0  0  0  0  0  0  0  0  0
   19.5729  -11.8236  -17.0544 C   0  0  1  0  0  0  0  0  0  0  0  0
   19.1728  -10.9380  -18.1798 C   0  0  0  0  0  0  0  0  0  0  0  0
   18.6115  -11.5810  -19.3910 C   0  0  0  0  0  0  0  0  0  0  0  0
   18.2511  -10.7257  -20.5179 C   0  0  0  0  0  0  0  0  0  0  0  0
   18.3478   -9.4871  -20.5468 O   0  0  0  0  0  0  0  0  0  0  0  0
   20.1847  -10.9717  -16.0057 C   0  0  0  0  0  0  0  0  0  0  0  0
   19.4045  -10.3394  -15.2511 O   0  0  0  0  0  0  0  0  0  0  0  0
   17.7478  -11.3293  -21.6855 O   0  0  0  0  0  0  0  0  0  0  0  0
   23.6083  -10.3761  -14.6437 C   0  0  0  0  0  0  0  0  0  0  0  0
   22.1679   -9.9196  -14.8804 C   0  0  2  0  0  0  0  0  0  0  0  0
   21.5622  -10.8460  -15.8276 N   0  0  0  0  0  0  0  0  0  0  0  0
   22.1352   -8.5212  -15.3736 C   0  0  0  0  0  0  0  0  0  0  0  0
   21.9617   -8.3283  -16.6038 O   0  0  0  0  0  0  0  0  0  0  0  0
   20.2572   -4.6384  -15.6652 O   0  0  0  0  0  0  0  0  0  0  0  0
   20.6048   -5.9441  -15.4034 C   0  0  0  0  0  0  0  0  0  0  0  0
   22.0172   -6.0669  -14.8575 C   0  0  2  0  0  0  0  0  0  0  0  0
   22.2949   -7.4241  -14.4850 N   0  0  0  0  0  0  0  0  0  0  0  0
   22.3146   -5.0807  -13.8175 C   0  0  0  0  0  0  0  0  0  0  0  0
   22.1469   -5.4232  -12.6173 O   0  0  0  0  0  0  0  0  0  0  0  0
   22.7682   -3.7921  -14.0370 O   0  0  0  0  0  0  0  0  0  0  0  0
  2  1  1  1
  3  2  1  0
  4  3  1  0
  4  5  1  0
  5  6  2  0
  7  2  1  0
  8  7  2  0
  9  5  1  0
 11 10  1  6
 11 13  1  0
 11 12  1  0
 12  7  1  0
 13 18  1  0
 14 13  2  0
 16 15  1  0
 17 16  1  1
 18 17  1  0
 19 21  1  0
 19 17  1  0
 20 19  2  0
M  END
$$$$
