WPT.pdb
     RDKit          3D

 29 31  0  0  1  0  0  0  0  0999 V2000
    6.3701  -17.5718   24.0464 N   0  0  0  0  0  0  0  0  0  0  0  0
    6.9268  -16.4015   23.5060 C   0  0  1  0  0  0  0  0  0  0  0  0
    7.7656  -15.7096   24.5414 C   0  0  0  0  0  0  0  0  0  0  0  0
    7.0065  -14.8637   25.4790 C   0  0  0  0  0  0  0  0  0  0  0  0
    5.8978  -15.1615   26.2362 C   0  0  0  0  0  0  0  0  0  0  0  0
    5.5418  -14.0902   26.9464 N   0  0  0  0  0  0  0  0  0  0  0  0
    6.3873  -13.0861   26.6802 C   0  0  0  0  0  0  0  0  0  0  0  0
    6.4486  -11.7719   27.1581 C   0  0  0  0  0  0  0  0  0  0  0  0
    7.4419  -10.9379   26.7071 C   0  0  0  0  0  0  0  0  0  0  0  0
    8.3772  -11.3709   25.7947 C   0  0  0  0  0  0  0  0  0  0  0  0
    8.2851  -12.6792   25.3435 C   0  0  0  0  0  0  0  0  0  0  0  0
    7.3058  -13.5521   25.7677 C   0  0  0  0  0  0  0  0  0  0  0  0
    7.5818  -16.5187   22.1850 C   0  0  0  0  0  0  0  0  0  0  0  0
    7.6682  -17.6946   21.7413 O   0  0  0  0  0  0  0  0  0  0  0  0
    8.0990  -15.4735   21.4077 N   0  0  0  0  0  0  0  0  0  0  0  0
    8.1592  -14.0475   21.6594 C   0  0  0  0  0  0  0  0  0  0  0  0
    8.2797  -13.3685   20.2990 C   0  0  0  0  0  0  0  0  0  0  0  0
    8.0354  -14.5317   19.3366 C   0  0  0  0  0  0  0  0  0  0  0  0
    8.7177  -15.6405   20.1086 C   0  0  1  0  0  0  0  0  0  0  0  0
   10.1743  -15.3424   20.1488 C   0  0  0  0  0  0  0  0  0  0  0  0
   10.7086  -14.5386   20.9547 O   0  0  0  0  0  0  0  0  0  0  0  0
   11.0827  -17.5829   21.7740 C   0  0  0  0  0  0  0  0  0  0  0  0
   11.7300  -17.9791   20.5016 C   0  0  1  0  0  0  0  0  0  0  0  0
   10.8565  -18.8339   19.8290 O   0  0  0  0  0  0  0  0  0  0  0  0
   12.1477  -16.8433   19.6202 C   0  0  2  0  0  0  0  0  0  0  0  0
   11.0443  -15.9917   19.2304 N   0  0  0  0  0  0  0  0  0  0  0  0
   12.9610  -17.2153   18.4717 C   0  0  0  0  0  0  0  0  0  0  0  0
   12.3969  -17.3113   17.3340 O   0  0  0  0  0  0  0  0  0  0  0  0
   14.3157  -17.4821   18.4843 O   0  0  0  0  0  0  0  0  0  0  0  0
  2  1  1  1
  2 13  1  0
  3  2  1  0
  4  3  1  0
  4 12  1  0
  5  6  1  0
  5  4  2  0
  6  7  1  0
  7  8  2  0
  7 12  1  0
  8  9  1  0
  9 10  2  0
 11 10  1  0
 12 11  2  0
 13 15  1  0
 13 14  2  0
 15 16  1  0
 17 16  1  0
 18 17  1  0
 19 20  1  1
 19 18  1  0
 19 15  1  0
 20 21  2  0
 23 22  1  1
 23 25  1  0
 24 23  1  0
 25 26  1  6
 25 27  1  0
 26 20  1  0
 27 28  2  0
 27 29  1  0
M  END
$$$$
