WPT.pdb
     RDKit          3D

 29 31  0  0  1  0  0  0  0  0999 V2000
    6.6717  -18.4680   24.9995 N   0  0  0  0  0  0  0  0  0  0  0  0
    6.9482  -17.2172   24.4246 C   0  0  1  0  0  0  0  0  0  0  0  0
    7.6657  -16.3470   25.4157 C   0  0  0  0  0  0  0  0  0  0  0  0
    6.8363  -15.2844   26.0106 C   0  0  0  0  0  0  0  0  0  0  0  0
    5.5357  -15.3254   26.4555 C   0  0  0  0  0  0  0  0  0  0  0  0
    5.1858  -14.1261   26.9222 N   0  0  0  0  0  0  0  0  0  0  0  0
    6.2226  -13.2872   26.7987 C   0  0  0  0  0  0  0  0  0  0  0  0
    6.3697  -11.9363   27.1345 C   0  0  0  0  0  0  0  0  0  0  0  0
    7.5678  -11.3101   26.8937 C   0  0  0  0  0  0  0  0  0  0  0  0
    8.6253  -11.9864   26.3287 C   0  0  0  0  0  0  0  0  0  0  0  0
    8.4429  -13.3237   26.0091 C   0  0  0  0  0  0  0  0  0  0  0  0
    7.2588  -13.9938   26.2324 C   0  0  0  0  0  0  0  0  0  0  0  0
    7.5582  -17.2189   23.0771 C   0  0  0  0  0  0  0  0  0  0  0  0
    7.7701  -18.3634   22.5952 O   0  0  0  0  0  0  0  0  0  0  0  0
    7.9109  -16.0983   22.3129 N   0  0  0  0  0  0  0  0  0  0  0  0
    7.7470  -14.6829   22.5778 C   0  0  0  0  0  0  0  0  0  0  0  0
    7.7682  -13.9799   21.2244 C   0  0  0  0  0  0  0  0  0  0  0  0
    7.7134  -15.1573   20.2499 C   0  0  0  0  0  0  0  0  0  0  0  0
    8.5555  -16.1541   21.0169 C   0  0  1  0  0  0  0  0  0  0  0  0
    9.9477  -15.6335   21.0702 C   0  0  0  0  0  0  0  0  0  0  0  0
   10.2681  -14.5237   21.5670 O   0  0  0  0  0  0  0  0  0  0  0  0
   11.2750  -16.0639   23.4474 C   0  0  0  0  0  0  0  0  0  0  0  0
   12.0863  -17.0190   22.6568 C   0  0  1  0  0  0  0  0  0  0  0  0
   11.5060  -18.2806   22.7898 O   0  0  0  0  0  0  0  0  0  0  0  0
   12.2603  -16.6623   21.2132 C   0  0  2  0  0  0  0  0  0  0  0  0
   11.0060  -16.4172   20.5338 N   0  0  0  0  0  0  0  0  0  0  0  0
   13.1092  -17.5644   20.4488 C   0  0  0  0  0  0  0  0  0  0  0  0
   12.5656  -18.3163   19.5764 O   0  0  0  0  0  0  0  0  0  0  0  0
   14.4783  -17.6955   20.5716 O   0  0  0  0  0  0  0  0  0  0  0  0
  2  1  1  1
  2 13  1  0
  3  2  1  0
  4  3  1  0
  4 12  1  0
  5  6  1  0
  5  4  2  0
  6  7  1  0
  7  8  2  0
  7 12  1  0
  8  9  1  0
  9 10  2  0
 11 10  1  0
 12 11  2  0
 13 15  1  0
 13 14  2  0
 15 16  1  0
 17 16  1  0
 18 17  1  0
 19 20  1  1
 19 18  1  0
 19 15  1  0
 20 21  2  0
 23 22  1  6
 23 25  1  0
 24 23  1  0
 25 26  1  6
 25 27  1  0
 26 20  1  0
 27 28  2  0
 27 29  1  0
M  END
$$$$
