WPT.pdb
     RDKit          3D

 29 31  0  0  1  0  0  0  0  0999 V2000
    6.0657  -17.6355   24.3087 N   0  0  0  0  0  0  0  0  0  0  0  0
    6.6853  -16.4991   23.7643 C   0  0  1  0  0  0  0  0  0  0  0  0
    7.5149  -15.8175   24.8139 C   0  0  0  0  0  0  0  0  0  0  0  0
    6.7674  -14.8836   25.6741 C   0  0  0  0  0  0  0  0  0  0  0  0
    5.5655  -15.0501   26.3214 C   0  0  0  0  0  0  0  0  0  0  0  0
    5.2634  -13.9389   26.9940 N   0  0  0  0  0  0  0  0  0  0  0  0
    6.2356  -13.0362   26.8101 C   0  0  0  0  0  0  0  0  0  0  0  0
    6.3951  -11.7315   27.2915 C   0  0  0  0  0  0  0  0  0  0  0  0
    7.5127  -11.0161   26.9379 C   0  0  0  0  0  0  0  0  0  0  0  0
    8.4774  -11.5586   26.1195 C   0  0  0  0  0  0  0  0  0  0  0  0
    8.2856  -12.8537   25.6617 C   0  0  0  0  0  0  0  0  0  0  0  0
    7.1802  -13.6096   25.9900 C   0  0  0  0  0  0  0  0  0  0  0  0
    7.3795  -16.6696   22.4694 C   0  0  0  0  0  0  0  0  0  0  0  0
    7.3926  -17.8498   22.0290 O   0  0  0  0  0  0  0  0  0  0  0  0
    8.0046  -15.6691   21.7128 N   0  0  0  0  0  0  0  0  0  0  0  0
    8.1990  -14.2590   21.9856 C   0  0  0  0  0  0  0  0  0  0  0  0
    8.4010  -13.5768   20.6365 C   0  0  0  0  0  0  0  0  0  0  0  0
    8.0573  -14.6981   19.6549 C   0  0  0  0  0  0  0  0  0  0  0  0
    8.6200  -15.8778   20.4182 C   0  0  1  0  0  0  0  0  0  0  0  0
   10.0979  -15.7225   20.4784 C   0  0  0  0  0  0  0  0  0  0  0  0
   10.6918  -14.8978   21.2188 O   0  0  0  0  0  0  0  0  0  0  0  0
   13.0095  -19.6841   19.7443 C   0  0  0  0  0  0  0  0  0  0  0  0
   11.8055  -18.8348   19.5882 C   0  0  1  0  0  0  0  0  0  0  0  0
   10.7266  -19.5212   20.1456 O   0  0  0  0  0  0  0  0  0  0  0  0
   11.9185  -17.4591   20.1681 C   0  0  2  0  0  0  0  0  0  0  0  0
   10.9192  -16.5444   19.6587 N   0  0  0  0  0  0  0  0  0  0  0  0
   13.2493  -16.8715   20.1175 C   0  0  0  0  0  0  0  0  0  0  0  0
   14.0864  -17.1853   21.0245 O   0  0  0  0  0  0  0  0  0  0  0  0
   13.7138  -15.9862   19.1650 O   0  0  0  0  0  0  0  0  0  0  0  0
  2  1  1  1
  2 13  1  0
  3  2  1  0
  4  3  1  0
  4 12  1  0
  5  6  1  0
  5  4  2  0
  6  7  1  0
  7  8  2  0
  7 12  1  0
  8  9  1  0
  9 10  2  0
 11 10  1  0
 12 11  2  0
 13 15  1  0
 13 14  2  0
 15 16  1  0
 17 16  1  0
 18 17  1  0
 19 20  1  1
 19 18  1  0
 19 15  1  0
 20 21  2  0
 23 22  1  1
 23 25  1  0
 24 23  1  0
 25 26  1  6
 25 27  1  0
 26 20  1  0
 27 28  2  0
 27 29  1  0
M  END
$$$$
