WPT.pdb
     RDKit          3D

 29 31  0  0  1  0  0  0  0  0999 V2000
    6.6021  -17.4485   23.4120 N   0  0  0  0  0  0  0  0  0  0  0  0
    6.9769  -16.2086   22.8699 C   0  0  1  0  0  0  0  0  0  0  0  0
    7.8626  -15.4757   23.8358 C   0  0  0  0  0  0  0  0  0  0  0  0
    7.1472  -14.8107   24.9389 C   0  0  0  0  0  0  0  0  0  0  0  0
    5.9626  -15.1465   25.5514 C   0  0  0  0  0  0  0  0  0  0  0  0
    5.6887  -14.2599   26.5093 N   0  0  0  0  0  0  0  0  0  0  0  0
    6.6629  -13.3415   26.5492 C   0  0  0  0  0  0  0  0  0  0  0  0
    6.8466  -12.2169   27.3622 C   0  0  0  0  0  0  0  0  0  0  0  0
    7.9596  -11.4327   27.1837 C   0  0  0  0  0  0  0  0  0  0  0  0
    8.8965  -11.7325   26.2209 C   0  0  0  0  0  0  0  0  0  0  0  0
    8.6812  -12.8543   25.4342 C   0  0  0  0  0  0  0  0  0  0  0  0
    7.5792  -13.6707   25.5769 C   0  0  0  0  0  0  0  0  0  0  0  0
    7.4792  -16.2094   21.4787 C   0  0  0  0  0  0  0  0  0  0  0  0
    7.3581  -17.3083   20.8746 O   0  0  0  0  0  0  0  0  0  0  0  0
    8.0595  -15.1330   20.7941 N   0  0  0  0  0  0  0  0  0  0  0  0
    8.4099  -13.8018   21.2475 C   0  0  0  0  0  0  0  0  0  0  0  0
    8.4553  -12.9156   20.0070 C   0  0  0  0  0  0  0  0  0  0  0  0
    7.8716  -13.8355   18.9336 C   0  0  0  0  0  0  0  0  0  0  0  0
    8.4467  -15.1561   19.3985 C   0  0  1  0  0  0  0  0  0  0  0  0
    9.9237  -15.0963   19.2346 C   0  0  0  0  0  0  0  0  0  0  0  0
   10.5040  -14.8419   18.1486 O   0  0  0  0  0  0  0  0  0  0  0  0
   14.1359  -13.7262   19.7203 C   0  0  0  0  0  0  0  0  0  0  0  0
   12.6681  -13.9286   19.7176 C   0  0  1  0  0  0  0  0  0  0  0  0
   12.2288  -13.8321   18.3971 O   0  0  0  0  0  0  0  0  0  0  0  0
   12.2015  -15.2068   20.3420 C   0  0  2  0  0  0  0  0  0  0  0  0
   10.7602  -15.3373   20.3590 N   0  0  0  0  0  0  0  0  0  0  0  0
   12.7759  -15.5069   21.6454 C   0  0  0  0  0  0  0  0  0  0  0  0
   11.9874  -15.6910   22.6284 O   0  0  0  0  0  0  0  0  0  0  0  0
   14.1209  -15.6164   21.9379 O   0  0  0  0  0  0  0  0  0  0  0  0
  2  1  1  1
  2 13  1  0
  3  2  1  0
  4  3  1  0
  4 12  1  0
  5  6  1  0
  5  4  2  0
  6  7  1  0
  7  8  2  0
  7 12  1  0
  8  9  1  0
  9 10  2  0
 11 10  1  0
 12 11  2  0
 13 15  1  0
 13 14  2  0
 15 16  1  0
 17 16  1  0
 18 17  1  0
 19 20  1  1
 19 18  1  0
 19 15  1  0
 20 21  2  0
 23 22  1  6
 23 25  1  0
 24 23  1  0
 25 26  1  1
 25 27  1  0
 26 20  1  0
 27 28  2  0
 27 29  1  0
M  END
$$$$
