WPT.pdb
     RDKit          3D

 29 31  0  0  1  0  0  0  0  0999 V2000
    5.9295  -18.2557   24.8342 N   0  0  0  0  0  0  0  0  0  0  0  0
    6.4505  -17.0631   24.3071 C   0  0  1  0  0  0  0  0  0  0  0  0
    7.3656  -16.4191   25.3082 C   0  0  0  0  0  0  0  0  0  0  0  0
    6.8241  -15.2027   25.9391 C   0  0  0  0  0  0  0  0  0  0  0  0
    5.5428  -14.9174   26.3492 C   0  0  0  0  0  0  0  0  0  0  0  0
    5.5043  -13.6907   26.8712 N   0  0  0  0  0  0  0  0  0  0  0  0
    6.7297  -13.1524   26.8185 C   0  0  0  0  0  0  0  0  0  0  0  0
    7.2151  -11.9057   27.2302 C   0  0  0  0  0  0  0  0  0  0  0  0
    8.5442  -11.6096   27.0528 C   0  0  0  0  0  0  0  0  0  0  0  0
    9.4064  -12.5158   26.4782 C   0  0  0  0  0  0  0  0  0  0  0  0
    8.8899  -13.7407   26.0826 C   0  0  0  0  0  0  0  0  0  0  0  0
    7.5633  -14.0820   26.2404 C   0  0  0  0  0  0  0  0  0  0  0  0
    7.0068  -17.1220   22.9379 C   0  0  0  0  0  0  0  0  0  0  0  0
    6.8609  -18.2299   22.3562 O   0  0  0  0  0  0  0  0  0  0  0  0
    7.6613  -16.0901   22.2515 N   0  0  0  0  0  0  0  0  0  0  0  0
    7.9183  -14.7154   22.6317 C   0  0  0  0  0  0  0  0  0  0  0  0
    8.1278  -13.9361   21.3374 C   0  0  0  0  0  0  0  0  0  0  0  0
    7.7228  -14.9606   20.2765 C   0  0  0  0  0  0  0  0  0  0  0  0
    8.2476  -16.2192   20.9333 C   0  0  1  0  0  0  0  0  0  0  0  0
    9.7315  -16.1287   20.9782 C   0  0  0  0  0  0  0  0  0  0  0  0
   10.3678  -15.3077   21.6867 O   0  0  0  0  0  0  0  0  0  0  0  0
   10.7040  -19.9415   21.0599 C   0  0  0  0  0  0  0  0  0  0  0  0
   11.7228  -19.1432   20.3388 C   0  0  1  0  0  0  0  0  0  0  0  0
   11.5528  -19.3717   18.9732 O   0  0  0  0  0  0  0  0  0  0  0  0
   11.7104  -17.6765   20.6390 C   0  0  2  0  0  0  0  0  0  0  0  0
   10.5083  -17.0134   20.1808 N   0  0  0  0  0  0  0  0  0  0  0  0
   12.9041  -16.9494   20.2323 C   0  0  0  0  0  0  0  0  0  0  0  0
   12.7886  -16.0373   19.3511 O   0  0  0  0  0  0  0  0  0  0  0  0
   14.1831  -17.1484   20.7131 O   0  0  0  0  0  0  0  0  0  0  0  0
  2  1  1  1
  2 13  1  0
  3  2  1  0
  4  3  1  0
  4 12  1  0
  5  6  1  0
  5  4  2  0
  6  7  1  0
  7  8  2  0
  7 12  1  0
  8  9  1  0
  9 10  2  0
 11 10  1  0
 12 11  2  0
 13 15  1  0
 13 14  2  0
 15 16  1  0
 17 16  1  0
 18 17  1  0
 19 20  1  1
 19 18  1  0
 19 15  1  0
 20 21  2  0
 23 22  1  1
 23 25  1  0
 24 23  1  0
 25 26  1  6
 25 27  1  0
 26 20  1  0
 27 28  2  0
 27 29  1  0
M  END
$$$$
