WPT.pdb
     RDKit          3D

 29 31  0  0  1  0  0  0  0  0999 V2000
    6.4557  -17.0524   24.9968 N   0  0  0  0  0  0  0  0  0  0  0  0
    6.9500  -15.9974   24.2131 C   0  0  1  0  0  0  0  0  0  0  0  0
    8.0736  -15.3093   24.9330 C   0  0  0  0  0  0  0  0  0  0  0  0
    7.6806  -14.6444   26.1878 C   0  0  0  0  0  0  0  0  0  0  0  0
    7.6302  -15.1391   27.4700 C   0  0  0  0  0  0  0  0  0  0  0  0
    7.2162  -14.1820   28.3014 N   0  0  0  0  0  0  0  0  0  0  0  0
    6.9898  -13.0616   27.6033 C   0  0  0  0  0  0  0  0  0  0  0  0
    6.5503  -11.7931   27.9995 C   0  0  0  0  0  0  0  0  0  0  0  0
    6.4023  -10.8073   27.0550 C   0  0  0  0  0  0  0  0  0  0  0  0
    6.6781  -11.0442   25.7274 C   0  0  0  0  0  0  0  0  0  0  0  0
    7.1114  -12.3129   25.3719 C   0  0  0  0  0  0  0  0  0  0  0  0
    7.2745  -13.3333   26.2847 C   0  0  0  0  0  0  0  0  0  0  0  0
    7.2416  -16.2960   22.7941 C   0  0  0  0  0  0  0  0  0  0  0  0
    6.9348  -17.4611   22.4260 O   0  0  0  0  0  0  0  0  0  0  0  0
    7.8108  -15.4280   21.8524 N   0  0  0  0  0  0  0  0  0  0  0  0
    8.2621  -14.0568   21.9811 C   0  0  0  0  0  0  0  0  0  0  0  0
    8.2416  -13.4567   20.5790 C   0  0  0  0  0  0  0  0  0  0  0  0
    7.5239  -14.5421   19.7755 C   0  0  0  0  0  0  0  0  0  0  0  0
    8.0738  -15.7697   20.4695 C   0  0  1  0  0  0  0  0  0  0  0  0
    9.5322  -15.8418   20.1868 C   0  0  0  0  0  0  0  0  0  0  0  0
   10.3592  -14.9518   20.5107 O   0  0  0  0  0  0  0  0  0  0  0  0
   11.1030  -18.2991   22.1007 C   0  0  0  0  0  0  0  0  0  0  0  0
   11.3979  -18.6588   20.6939 C   0  0  1  0  0  0  0  0  0  0  0  0
   10.4908  -19.6462   20.3092 O   0  0  0  0  0  0  0  0  0  0  0  0
   11.3811  -17.5147   19.7284 C   0  0  2  0  0  0  0  0  0  0  0  0
   10.0555  -16.9768   19.5086 N   0  0  0  0  0  0  0  0  0  0  0  0
   12.0708  -17.7547   18.4693 C   0  0  0  0  0  0  0  0  0  0  0  0
   13.3384  -17.8758   18.4849 O   0  0  0  0  0  0  0  0  0  0  0  0
   11.4813  -17.8685   17.2258 O   0  0  0  0  0  0  0  0  0  0  0  0
  2  1  1  1
  2 13  1  0
  3  2  1  0
  4  3  1  0
  4 12  1  0
  5  6  1  0
  5  4  2  0
  6  7  1  0
  7  8  2  0
  7 12  1  0
  8  9  1  0
  9 10  2  0
 11 10  1  0
 12 11  2  0
 13 15  1  0
 13 14  2  0
 15 16  1  0
 17 16  1  0
 18 17  1  0
 19 20  1  1
 19 18  1  0
 19 15  1  0
 20 21  2  0
 23 22  1  1
 23 25  1  0
 24 23  1  0
 25 26  1  6
 25 27  1  0
 26 20  1  0
 27 28  2  0
 27 29  1  0
M  END
$$$$
