WPT.pdb
     RDKit          3D

 29 31  0  0  1  0  0  0  0  0999 V2000
    6.5610  -18.1576   25.6444 N   0  0  0  0  0  0  0  0  0  0  0  0
    6.1791  -17.2893   24.6091 C   0  0  1  0  0  0  0  0  0  0  0  0
    5.9221  -15.9172   25.1620 C   0  0  0  0  0  0  0  0  0  0  0  0
    7.0474  -15.3414   25.9189 C   0  0  0  0  0  0  0  0  0  0  0  0
    8.2252  -15.9225   26.3270 C   0  0  0  0  0  0  0  0  0  0  0  0
    8.9590  -15.0264   26.9883 N   0  0  0  0  0  0  0  0  0  0  0  0
    8.2978  -13.8623   27.0302 C   0  0  0  0  0  0  0  0  0  0  0  0
    8.6285  -12.6260   27.5974 C   0  0  0  0  0  0  0  0  0  0  0  0
    7.7465  -11.5791   27.4893 C   0  0  0  0  0  0  0  0  0  0  0  0
    6.5446  -11.7237   26.8341 C   0  0  0  0  0  0  0  0  0  0  0  0
    6.2509  -12.9629   26.2847 C   0  0  0  0  0  0  0  0  0  0  0  0
    7.1050  -14.0421   26.3682 C   0  0  0  0  0  0  0  0  0  0  0  0
    7.0121  -17.2963   23.3869 C   0  0  0  0  0  0  0  0  0  0  0  0
    7.1425  -18.4254   22.8435 O   0  0  0  0  0  0  0  0  0  0  0  0
    7.6494  -16.1958   22.7979 N   0  0  0  0  0  0  0  0  0  0  0  0
    7.7403  -14.8143   23.2264 C   0  0  0  0  0  0  0  0  0  0  0  0
    8.0296  -13.9877   21.9777 C   0  0  0  0  0  0  0  0  0  0  0  0
    7.8405  -15.0156   20.8612 C   0  0  0  0  0  0  0  0  0  0  0  0
    8.3932  -16.2416   21.5558 C   0  0  1  0  0  0  0  0  0  0  0  0
    9.8484  -16.0272   21.7759 C   0  0  0  0  0  0  0  0  0  0  0  0
   10.3260  -15.3106   22.6921 O   0  0  0  0  0  0  0  0  0  0  0  0
   11.1893  -19.6321   21.4057 C   0  0  0  0  0  0  0  0  0  0  0  0
   12.1928  -18.6724   20.8886 C   0  0  1  0  0  0  0  0  0  0  0  0
   12.1652  -18.7388   19.4955 O   0  0  0  0  0  0  0  0  0  0  0  0
   12.0233  -17.2609   21.3579 C   0  0  2  0  0  0  0  0  0  0  0  0
   10.7847  -16.6593   20.9123 N   0  0  0  0  0  0  0  0  0  0  0  0
   13.1578  -16.3834   21.1092 C   0  0  0  0  0  0  0  0  0  0  0  0
   13.0054  -15.4071   20.3058 O   0  0  0  0  0  0  0  0  0  0  0  0
   14.4157  -16.4996   21.6666 O   0  0  0  0  0  0  0  0  0  0  0  0
  2  1  1  1
  2 13  1  0
  3  2  1  0
  4  3  1  0
  4 12  1  0
  5  6  1  0
  5  4  2  0
  6  7  1  0
  7  8  2  0
  7 12  1  0
  8  9  1  0
  9 10  2  0
 11 10  1  0
 12 11  2  0
 13 15  1  0
 13 14  2  0
 15 16  1  0
 17 16  1  0
 18 17  1  0
 19 20  1  1
 19 18  1  0
 19 15  1  0
 20 21  2  0
 23 22  1  1
 23 25  1  0
 24 23  1  0
 25 26  1  6
 25 27  1  0
 26 20  1  0
 27 28  2  0
 27 29  1  0
M  END
$$$$
