WPT.pdb
     RDKit          3D

 29 31  0  0  1  0  0  0  0  0999 V2000
    6.4588  -18.0391   25.6368 N   0  0  0  0  0  0  0  0  0  0  0  0
    6.1558  -17.2279   24.5315 C   0  0  1  0  0  0  0  0  0  0  0  0
    5.8731  -15.8261   24.9891 C   0  0  0  0  0  0  0  0  0  0  0  0
    6.9412  -15.2209   25.8038 C   0  0  0  0  0  0  0  0  0  0  0  0
    8.1179  -15.7661   26.2615 C   0  0  0  0  0  0  0  0  0  0  0  0
    8.7885  -14.8531   26.9653 N   0  0  0  0  0  0  0  0  0  0  0  0
    8.0863  -13.7127   26.9873 C   0  0  0  0  0  0  0  0  0  0  0  0
    8.3472  -12.4724   27.5814 C   0  0  0  0  0  0  0  0  0  0  0  0
    7.4356  -11.4550   27.4421 C   0  0  0  0  0  0  0  0  0  0  0  0
    6.2714  -11.6329   26.7294 C   0  0  0  0  0  0  0  0  0  0  0  0
    6.0468  -12.8752   26.1548 C   0  0  0  0  0  0  0  0  0  0  0  0
    6.9327  -13.9256   26.2680 C   0  0  0  0  0  0  0  0  0  0  0  0
    7.0701  -17.3065   23.3715 C   0  0  0  0  0  0  0  0  0  0  0  0
    7.2344  -18.4657   22.9066 O   0  0  0  0  0  0  0  0  0  0  0  0
    7.7490  -16.2421   22.7629 N   0  0  0  0  0  0  0  0  0  0  0  0
    7.7960  -14.8334   23.1004 C   0  0  0  0  0  0  0  0  0  0  0  0
    8.1852  -14.0916   21.8258 C   0  0  0  0  0  0  0  0  0  0  0  0
    8.0965  -15.1959   20.7716 C   0  0  0  0  0  0  0  0  0  0  0  0
    8.5952  -16.3649   21.5937 C   0  0  1  0  0  0  0  0  0  0  0  0
   10.0255  -16.1196   21.9195 C   0  0  0  0  0  0  0  0  0  0  0  0
   10.4293  -15.2041   22.6810 O   0  0  0  0  0  0  0  0  0  0  0  0
   11.6993  -19.3873   23.0938 C   0  0  0  0  0  0  0  0  0  0  0  0
   12.5825  -18.6869   22.1322 C   0  0  1  0  0  0  0  0  0  0  0  0
   12.4917  -19.3528   20.9097 O   0  0  0  0  0  0  0  0  0  0  0  0
   12.3064  -17.2251   21.9641 C   0  0  2  0  0  0  0  0  0  0  0  0
   11.0238  -16.9565   21.3496 N   0  0  0  0  0  0  0  0  0  0  0  0
   13.3693  -16.4618   21.3264 C   0  0  0  0  0  0  0  0  0  0  0  0
   13.1415  -15.9376   20.1883 O   0  0  0  0  0  0  0  0  0  0  0  0
   14.6325  -16.2392   21.8376 O   0  0  0  0  0  0  0  0  0  0  0  0
  2  1  1  1
  2 13  1  0
  3  2  1  0
  4  3  1  0
  4 12  1  0
  5  6  1  0
  5  4  2  0
  6  7  1  0
  7  8  2  0
  7 12  1  0
  8  9  1  0
  9 10  2  0
 11 10  1  0
 12 11  2  0
 13 15  1  0
 13 14  2  0
 15 16  1  0
 17 16  1  0
 18 17  1  0
 19 20  1  1
 19 18  1  0
 19 15  1  0
 20 21  2  0
 23 22  1  1
 23 25  1  0
 24 23  1  0
 25 26  1  6
 25 27  1  0
 26 20  1  0
 27 28  2  0
 27 29  1  0
M  END
$$$$
