WPT.pdb
     RDKit          3D

 29 31  0  0  1  0  0  0  0  0999 V2000
    6.5185  -17.4033   23.5405 N   0  0  0  0  0  0  0  0  0  0  0  0
    6.9229  -16.1894   22.9621 C   0  0  1  0  0  0  0  0  0  0  0  0
    7.7971  -15.4332   23.9204 C   0  0  0  0  0  0  0  0  0  0  0  0
    7.0957  -14.9072   25.1045 C   0  0  0  0  0  0  0  0  0  0  0  0
    6.2604  -15.5458   25.9911 C   0  0  0  0  0  0  0  0  0  0  0  0
    5.8486  -14.6803   26.9184 N   0  0  0  0  0  0  0  0  0  0  0  0
    6.3898  -13.4804   26.6705 C   0  0  0  0  0  0  0  0  0  0  0  0
    6.2761  -12.2545   27.3365 C   0  0  0  0  0  0  0  0  0  0  0  0
    6.9546  -11.1621   26.8550 C   0  0  0  0  0  0  0  0  0  0  0  0
    7.7435  -11.2511   25.7305 C   0  0  0  0  0  0  0  0  0  0  0  0
    7.8322  -12.4817   25.0969 C   0  0  0  0  0  0  0  0  0  0  0  0
    7.1695  -13.6053   25.5436 C   0  0  0  0  0  0  0  0  0  0  0  0
    7.4560  -16.2484   21.5837 C   0  0  0  0  0  0  0  0  0  0  0  0
    7.3860  -17.3820   21.0388 O   0  0  0  0  0  0  0  0  0  0  0  0
    8.0147  -15.1911   20.8527 N   0  0  0  0  0  0  0  0  0  0  0  0
    8.3182  -13.8284   21.2418 C   0  0  0  0  0  0  0  0  0  0  0  0
    8.3567  -13.0058   19.9580 C   0  0  0  0  0  0  0  0  0  0  0  0
    7.8174  -13.9967   18.9254 C   0  0  0  0  0  0  0  0  0  0  0  0
    8.4242  -15.2737   19.4658 C   0  0  1  0  0  0  0  0  0  0  0  0
    9.9012  -15.1773   19.3199 C   0  0  0  0  0  0  0  0  0  0  0  0
   10.6653  -14.6787   20.1852 O   0  0  0  0  0  0  0  0  0  0  0  0
   11.0574  -17.5765   20.3955 C   0  0  0  0  0  0  0  0  0  0  0  0
   11.3146  -17.8456   18.9613 C   0  0  1  0  0  0  0  0  0  0  0  0
   10.2192  -18.5476   18.4580 O   0  0  0  0  0  0  0  0  0  0  0  0
   11.5994  -16.6345   18.1285 C   0  0  2  0  0  0  0  0  0  0  0  0
   10.5188  -15.6717   18.1384 N   0  0  0  0  0  0  0  0  0  0  0  0
   12.0542  -16.9063   16.7727 C   0  0  0  0  0  0  0  0  0  0  0  0
   11.2554  -16.6788   15.8074 O   0  0  0  0  0  0  0  0  0  0  0  0
   13.2931  -17.3977   16.4116 O   0  0  0  0  0  0  0  0  0  0  0  0
  2  1  1  1
  2 13  1  0
  3  2  1  0
  4  3  1  0
  4 12  1  0
  5  6  1  0
  5  4  2  0
  6  7  1  0
  7  8  2  0
  7 12  1  0
  8  9  1  0
  9 10  2  0
 11 10  1  0
 12 11  2  0
 13 15  1  0
 13 14  2  0
 15 16  1  0
 17 16  1  0
 18 17  1  0
 19 20  1  1
 19 18  1  0
 19 15  1  0
 20 21  2  0
 23 22  1  1
 23 25  1  0
 24 23  1  0
 25 26  1  6
 25 27  1  0
 26 20  1  0
 27 28  2  0
 27 29  1  0
M  END
$$$$
