WPT.pdb
     RDKit          3D

 29 31  0  0  1  0  0  0  0  0999 V2000
    6.4081  -18.4866   24.9602 N   0  0  0  0  0  0  0  0  0  0  0  0
    6.6912  -17.2488   24.3606 C   0  0  1  0  0  0  0  0  0  0  0  0
    7.5326  -16.4150   25.2832 C   0  0  0  0  0  0  0  0  0  0  0  0
    6.8150  -15.3005   25.9266 C   0  0  0  0  0  0  0  0  0  0  0  0
    5.4995  -15.2062   26.3163 C   0  0  0  0  0  0  0  0  0  0  0  0
    5.2804  -14.0089   26.8613 N   0  0  0  0  0  0  0  0  0  0  0  0
    6.4189  -13.3035   26.8438 C   0  0  0  0  0  0  0  0  0  0  0  0
    6.7176  -12.0106   27.2894 C   0  0  0  0  0  0  0  0  0  0  0  0
    7.9949  -11.5277   27.1447 C   0  0  0  0  0  0  0  0  0  0  0  0
    8.9854  -12.2915   26.5699 C   0  0  0  0  0  0  0  0  0  0  0  0
    8.6526  -13.5676   26.1402 C   0  0  0  0  0  0  0  0  0  0  0  0
    7.3846  -14.0944   26.2646 C   0  0  0  0  0  0  0  0  0  0  0  0
    7.1799  -17.2763   22.9648 C   0  0  0  0  0  0  0  0  0  0  0  0
    7.0435  -18.3835   22.3795 O   0  0  0  0  0  0  0  0  0  0  0  0
    7.7629  -16.2161   22.2575 N   0  0  0  0  0  0  0  0  0  0  0  0
    8.0467  -14.8530   22.6600 C   0  0  0  0  0  0  0  0  0  0  0  0
    8.1319  -14.0282   21.3799 C   0  0  0  0  0  0  0  0  0  0  0  0
    7.6359  -15.0191   20.3258 C   0  0  0  0  0  0  0  0  0  0  0  0
    8.2257  -16.2950   20.8872 C   0  0  1  0  0  0  0  0  0  0  0  0
    9.7068  -16.1937   20.7983 C   0  0  0  0  0  0  0  0  0  0  0  0
   10.3943  -15.3387   21.4127 O   0  0  0  0  0  0  0  0  0  0  0  0
   11.1107  -19.5996   21.6560 C   0  0  0  0  0  0  0  0  0  0  0  0
   11.7964  -19.0872   20.4466 C   0  0  1  0  0  0  0  0  0  0  0  0
   11.2479  -19.7365   19.3404 O   0  0  0  0  0  0  0  0  0  0  0  0
   11.7480  -17.6013   20.2701 C   0  0  2  0  0  0  0  0  0  0  0  0
   10.4200  -17.1075   19.9748 N   0  0  0  0  0  0  0  0  0  0  0  0
   12.7336  -17.0531   19.3498 C   0  0  0  0  0  0  0  0  0  0  0  0
   13.9681  -17.1810   19.6355 O   0  0  0  0  0  0  0  0  0  0  0  0
   12.4659  -16.3913   18.1679 O   0  0  0  0  0  0  0  0  0  0  0  0
  2  1  1  1
  2 13  1  0
  3  2  1  0
  4  3  1  0
  4 12  1  0
  5  6  1  0
  5  4  2  0
  6  7  1  0
  7  8  2  0
  7 12  1  0
  8  9  1  0
  9 10  2  0
 11 10  1  0
 12 11  2  0
 13 15  1  0
 13 14  2  0
 15 16  1  0
 17 16  1  0
 18 17  1  0
 19 20  1  1
 19 18  1  0
 19 15  1  0
 20 21  2  0
 23 22  1  1
 23 25  1  0
 24 23  1  0
 25 26  1  6
 25 27  1  0
 26 20  1  0
 27 28  2  0
 27 29  1  0
M  END
$$$$
