WPT.pdb
     RDKit          3D

 29 31  0  0  1  0  0  0  0  0999 V2000
    7.5726  -17.2033   24.0456 N   0  0  0  0  0  0  0  0  0  0  0  0
    6.8083  -16.4278   23.1590 C   0  0  1  0  0  0  0  0  0  0  0  0
    6.5635  -15.0692   23.7496 C   0  0  0  0  0  0  0  0  0  0  0  0
    7.4256  -14.7360   24.8971 C   0  0  0  0  0  0  0  0  0  0  0  0
    8.4932  -15.4221   25.4269 C   0  0  0  0  0  0  0  0  0  0  0  0
    8.9828  -14.7494   26.4692 N   0  0  0  0  0  0  0  0  0  0  0  0
    8.2665  -13.6315   26.6461 C   0  0  0  0  0  0  0  0  0  0  0  0
    8.3710  -12.6004   27.5870 C   0  0  0  0  0  0  0  0  0  0  0  0
    7.4862  -11.5516   27.5363 C   0  0  0  0  0  0  0  0  0  0  0  0
    6.4996  -11.4963   26.5779 C   0  0  0  0  0  0  0  0  0  0  0  0
    6.4265  -12.5357   25.6624 C   0  0  0  0  0  0  0  0  0  0  0  0
    7.2924  -13.6085   25.6745 C   0  0  0  0  0  0  0  0  0  0  0  0
    7.2466  -16.3969   21.7467 C   0  0  0  0  0  0  0  0  0  0  0  0
    7.1673  -17.5010   21.1452 O   0  0  0  0  0  0  0  0  0  0  0  0
    7.7273  -15.2861   21.0400 N   0  0  0  0  0  0  0  0  0  0  0  0
    8.2624  -14.0243   21.5111 C   0  0  0  0  0  0  0  0  0  0  0  0
    8.0834  -13.0225   20.3750 C   0  0  0  0  0  0  0  0  0  0  0  0
    7.2081  -13.8030   19.3934 C   0  0  0  0  0  0  0  0  0  0  0  0
    7.7824  -15.1887   19.5958 C   0  0  1  0  0  0  0  0  0  0  0  0
    9.1834  -15.1820   19.0964 C   0  0  0  0  0  0  0  0  0  0  0  0
    9.5007  -15.0663   17.8852 O   0  0  0  0  0  0  0  0  0  0  0  0
   12.2151  -13.0698   20.0613 C   0  0  0  0  0  0  0  0  0  0  0  0
   12.5537  -14.4926   20.2988 C   0  0  1  0  0  0  0  0  0  0  0  0
   12.5948  -14.6945   21.6785 O   0  0  0  0  0  0  0  0  0  0  0  0
   11.6407  -15.4813   19.6429 C   0  0  2  0  0  0  0  0  0  0  0  0
   10.2543  -15.3127   20.0226 N   0  0  0  0  0  0  0  0  0  0  0  0
   12.0535  -16.8731   19.7493 C   0  0  0  0  0  0  0  0  0  0  0  0
   11.2917  -17.6868   20.3651 O   0  0  0  0  0  0  0  0  0  0  0  0
   13.2143  -17.4203   19.2397 O   0  0  0  0  0  0  0  0  0  0  0  0
  2  1  1  1
  2 13  1  0
  3  2  1  0
  4  3  1  0
  4 12  1  0
  5  6  1  0
  5  4  2  0
  6  7  1  0
  7  8  2  0
  7 12  1  0
  8  9  1  0
  9 10  2  0
 11 10  1  0
 12 11  2  0
 13 15  1  0
 13 14  2  0
 15 16  1  0
 17 16  1  0
 18 17  1  0
 19 20  1  1
 19 18  1  0
 19 15  1  0
 20 21  2  0
 23 22  1  1
 23 25  1  0
 24 23  1  0
 25 26  1  1
 25 27  1  0
 26 20  1  0
 27 28  2  0
 27 29  1  0
M  END
$$$$
