CAI.pdb
     RDKit          3D

 20 19  0  0  1  0  0  0  0  0999 V2000
   18.7745  -14.9064  -18.6178 N   0  0  0  0  0  0  0  0  0  0  0  0
   18.0805  -13.9155  -17.8582 C   0  0  1  0  0  0  0  0  0  0  0  0
   17.9144  -14.4481  -16.4422 C   0  0  0  0  0  0  0  0  0  0  0  0
   16.7766  -15.8410  -16.3772 S   0  0  0  0  0  0  0  0  0  0  0  0
   18.9174  -12.6819  -17.7717 C   0  0  0  0  0  0  0  0  0  0  0  0
   20.1397  -12.7145  -17.4648 O   0  0  0  0  0  0  0  0  0  0  0  0
   18.4020   -9.0237  -18.6889 C   0  0  0  0  0  0  0  0  0  0  0  0
   19.1539  -10.1815  -18.0729 C   0  0  2  0  0  0  0  0  0  0  0  0
   18.3698  -11.3911  -18.0349 N   0  0  0  0  0  0  0  0  0  0  0  0
   19.6361   -9.8686  -16.7071 C   0  0  0  0  0  0  0  0  0  0  0  0
   18.9029  -10.0621  -15.6830 O   0  0  0  0  0  0  0  0  0  0  0  0
   24.0476  -11.6639  -14.8250 C   0  0  0  0  0  0  0  0  0  0  0  0
   22.7184  -11.0260  -15.1416 C   0  0  0  0  0  0  0  0  0  0  0  0
   22.7080   -9.5741  -14.7715 C   0  0  2  0  0  0  0  0  0  0  0  0
   23.1034   -9.4014  -13.3252 C   0  0  0  0  0  0  0  0  0  0  0  0
   21.3863   -8.9742  -15.0984 C   0  0  2  0  0  0  0  0  0  0  0  0
   20.9272   -9.3397  -16.4421 N   0  0  0  0  0  0  0  0  0  0  0  0
   21.2657   -7.5304  -14.8716 C   0  0  0  0  0  0  0  0  0  0  0  0
   21.5136   -6.7409  -15.8469 O   0  0  0  0  0  0  0  0  0  0  0  0
   20.9049   -6.9253  -13.6906 O   0  0  0  0  0  0  0  0  0  0  0  0
  2  1  1  6
  3  4  1  0
  3  2  1  0
  5  2  1  0
  6  5  2  0
  8  9  1  0
  8  7  1  1
  9  5  1  0
 10  8  1  0
 11 10  2  0
 12 13  1  0
 13 14  1  0
 14 15  1  1
 14 16  1  0
 16 18  1  0
 16 17  1  6
 17 10  1  0
 18 20  1  0
 19 18  2  0
M  END
$$$$
