CAI.pdb
     RDKit          3D

 20 19  0  0  1  0  0  0  0  0999 V2000
   16.0918  -12.7276  -13.6526 N   0  0  0  0  0  0  0  0  0  0  0  0
   15.7737  -11.3873  -14.0309 C   0  0  1  0  0  0  0  0  0  0  0  0
   14.2585  -11.2781  -14.1226 C   0  0  0  0  0  0  0  0  0  0  0  0
   13.6020  -12.1973  -15.5237 S   0  0  0  0  0  0  0  0  0  0  0  0
   16.2208  -10.4505  -12.9574 C   0  0  0  0  0  0  0  0  0  0  0  0
   15.9553  -10.6415  -11.7400 O   0  0  0  0  0  0  0  0  0  0  0  0
   18.4795   -7.3889  -12.8075 C   0  0  0  0  0  0  0  0  0  0  0  0
   17.4516   -8.3533  -12.2610 C   0  0  2  0  0  0  0  0  0  0  0  0
   16.9789   -9.2802  -13.2592 N   0  0  0  0  0  0  0  0  0  0  0  0
   16.2940   -7.6509  -11.6590 C   0  0  0  0  0  0  0  0  0  0  0  0
   15.2655   -7.3522  -12.3497 O   0  0  0  0  0  0  0  0  0  0  0  0
   12.2892   -7.1634   -7.6625 C   0  0  0  0  0  0  0  0  0  0  0  0
   13.4541   -6.2589   -7.9770 C   0  0  0  0  0  0  0  0  0  0  0  0
   14.6404   -7.0418   -8.4510 C   0  0  2  0  0  0  0  0  0  0  0  0
   15.6825   -7.1208   -7.3620 C   0  0  0  0  0  0  0  0  0  0  0  0
   15.1566   -6.4656   -9.7219 C   0  0  2  0  0  0  0  0  0  0  0  0
   16.2448   -7.2653  -10.2930 N   0  0  0  0  0  0  0  0  0  0  0  0
   15.5091   -5.0426   -9.6820 C   0  0  0  0  0  0  0  0  0  0  0  0
   16.7372   -4.7269   -9.5145 O   0  0  0  0  0  0  0  0  0  0  0  0
   14.6341   -3.9894   -9.8095 O   0  0  0  0  0  0  0  0  0  0  0  0
  2  1  1  1
  3  4  1  0
  3  2  1  0
  5  2  1  0
  6  5  2  0
  8  9  1  0
  8  7  1  6
  9  5  1  0
 10  8  1  0
 11 10  2  0
 12 13  1  0
 13 14  1  0
 14 15  1  1
 14 16  1  0
 16 18  1  0
 16 17  1  1
 17 10  1  0
 18 20  1  0
 19 18  2  0
M  END
$$$$
