CAI.pdb
     RDKit          3D

 20 19  0  0  1  0  0  0  0  0999 V2000
   20.2163  -13.2387  -17.2764 N   0  0  0  0  0  0  0  0  0  0  0  0
   20.5709  -11.9131  -17.6736 C   0  0  1  0  0  0  0  0  0  0  0  0
   19.7695  -11.5726  -18.9218 C   0  0  0  0  0  0  0  0  0  0  0  0
   20.6085  -12.1005  -20.4239 S   0  0  0  0  0  0  0  0  0  0  0  0
   20.1609  -10.9506  -16.6081 C   0  0  0  0  0  0  0  0  0  0  0  0
   18.9906  -10.9178  -16.1408 O   0  0  0  0  0  0  0  0  0  0  0  0
   21.8867   -8.5176  -14.2825 C   0  0  0  0  0  0  0  0  0  0  0  0
   20.7145   -8.9858  -15.1143 C   0  0  2  0  0  0  0  0  0  0  0  0
   21.0830  -10.0101  -16.0600 N   0  0  0  0  0  0  0  0  0  0  0  0
   20.0612   -7.8677  -15.8348 C   0  0  0  0  0  0  0  0  0  0  0  0
   20.4493   -7.5072  -16.9939 O   0  0  0  0  0  0  0  0  0  0  0  0
   15.0232   -7.5140  -16.3724 C   0  0  0  0  0  0  0  0  0  0  0  0
   16.3461   -6.9734  -16.8536 C   0  0  0  0  0  0  0  0  0  0  0  0
   16.9019   -5.9613  -15.8986 C   0  0  2  0  0  0  0  0  0  0  0  0
   16.2901   -4.6065  -16.1597 C   0  0  0  0  0  0  0  0  0  0  0  0
   18.3883   -5.9610  -15.9644 C   0  0  2  0  0  0  0  0  0  0  0  0
   18.9743   -7.1281  -15.2977 N   0  0  0  0  0  0  0  0  0  0  0  0
   19.0468   -4.7216  -15.5391 C   0  0  0  0  0  0  0  0  0  0  0  0
   19.2953   -4.5636  -14.2944 O   0  0  0  0  0  0  0  0  0  0  0  0
   19.4334   -3.6889  -16.3607 O   0  0  0  0  0  0  0  0  0  0  0  0
  2  1  1  1
  3  4  1  0
  3  2  1  0
  5  2  1  0
  6  5  2  0
  8  9  1  0
  8  7  1  6
  9  5  1  0
 10  8  1  0
 11 10  2  0
 12 13  1  0
 13 14  1  0
 14 15  1  6
 14 16  1  0
 16 18  1  0
 16 17  1  1
 17 10  1  0
 18 20  1  0
 19 18  2  0
M  END
$$$$
