CAI.pdb
     RDKit          3D

 20 19  0  0  1  0  0  0  0  0999 V2000
   27.0538  -19.4282  -16.0205 N   0  0  0  0  0  0  0  0  0  0  0  0
   27.0135  -20.4008  -14.9750 C   0  0  1  0  0  0  0  0  0  0  0  0
   28.4477  -20.6975  -14.5615 C   0  0  0  0  0  0  0  0  0  0  0  0
   28.5288  -21.9345  -13.2568 S   0  0  0  0  0  0  0  0  0  0  0  0
   26.3209  -19.8209  -13.7859 C   0  0  0  0  0  0  0  0  0  0  0  0
   26.5745  -18.6643  -13.3535 O   0  0  0  0  0  0  0  0  0  0  0  0
   23.1228  -20.1060  -12.0859 C   0  0  0  0  0  0  0  0  0  0  0  0
   24.6243  -20.0411  -11.9228 C   0  0  2  0  0  0  0  0  0  0  0  0
   25.3271  -20.5546  -13.0723 N   0  0  0  0  0  0  0  0  0  0  0  0
   25.0839  -20.7566  -10.7092 C   0  0  0  0  0  0  0  0  0  0  0  0
   25.2958  -22.0131  -10.7189 O   0  0  0  0  0  0  0  0  0  0  0  0
   28.3296  -18.5978   -6.9271 C   0  0  0  0  0  0  0  0  0  0  0  0
   27.6123  -19.5683   -7.8311 C   0  0  0  0  0  0  0  0  0  0  0  0
   26.3165  -20.0194   -7.2289 C   0  0  2  0  0  0  0  0  0  0  0  0
   26.5691  -20.7392   -5.9265 C   0  0  0  0  0  0  0  0  0  0  0  0
   25.5519  -20.8310   -8.2138 C   0  0  2  0  0  0  0  0  0  0  0  0
   25.3181  -20.1077   -9.4677 N   0  0  0  0  0  0  0  0  0  0  0  0
   24.3152  -21.4421   -7.7161 C   0  0  0  0  0  0  0  0  0  0  0  0
   24.4083  -22.4696   -6.9602 O   0  0  0  0  0  0  0  0  0  0  0  0
   23.0366  -21.0130   -7.9852 O   0  0  0  0  0  0  0  0  0  0  0  0
  2  1  1  6
  3  4  1  0
  3  2  1  0
  5  2  1  0
  6  5  2  0
  8  9  1  0
  8  7  1  6
  9  5  1  0
 10  8  1  0
 11 10  2  0
 12 13  1  0
 13 14  1  0
 14 15  1  1
 14 16  1  0
 16 18  1  0
 16 17  1  6
 17 10  1  0
 18 20  1  0
 19 18  2  0
M  END
$$$$
