CAI.pdb
     RDKit          3D

 20 19  0  0  1  0  0  0  0  0999 V2000
   16.4692  -13.4822  -18.5779 N   0  0  0  0  0  0  0  0  0  0  0  0
   16.3132  -12.7926  -17.3366 C   0  0  1  0  0  0  0  0  0  0  0  0
   17.0079  -13.6130  -16.2593 C   0  0  0  0  0  0  0  0  0  0  0  0
   16.6517  -12.9929  -14.6078 S   0  0  0  0  0  0  0  0  0  0  0  0
   17.0133  -11.4757  -17.4105 C   0  0  0  0  0  0  0  0  0  0  0  0
   18.1317  -11.3355  -17.9749 O   0  0  0  0  0  0  0  0  0  0  0  0
   16.0598   -7.8735  -16.7562 C   0  0  0  0  0  0  0  0  0  0  0  0
   17.0603   -8.9958  -16.9142 C   0  0  2  0  0  0  0  0  0  0  0  0
   16.4453  -10.2978  -16.8399 N   0  0  0  0  0  0  0  0  0  0  0  0
   18.1519   -8.9132  -15.9155 C   0  0  0  0  0  0  0  0  0  0  0  0
   18.0680   -9.5029  -14.7890 O   0  0  0  0  0  0  0  0  0  0  0  0
   22.7157  -10.0882  -13.9002 C   0  0  0  0  0  0  0  0  0  0  0  0
   22.7331   -8.7462  -14.5876 C   0  0  0  0  0  0  0  0  0  0  0  0
   21.7100   -8.6796  -15.6803 C   0  0  2  0  0  0  0  0  0  0  0  0
   22.2599   -7.9222  -16.8645 C   0  0  0  0  0  0  0  0  0  0  0  0
   20.4390   -8.1122  -15.1547 C   0  0  2  0  0  0  0  0  0  0  0  0
   19.3509   -8.1843  -16.1349 N   0  0  0  0  0  0  0  0  0  0  0  0
   20.5325   -6.7731  -14.5642 C   0  0  0  0  0  0  0  0  0  0  0  0
   21.1679   -6.6396  -13.4621 O   0  0  0  0  0  0  0  0  0  0  0  0
   19.9947   -5.6203  -15.0864 O   0  0  0  0  0  0  0  0  0  0  0  0
  2  1  1  6
  3  4  1  0
  3  2  1  0
  5  2  1  0
  6  5  2  0
  8  9  1  0
  8  7  1  1
  9  5  1  0
 10  8  1  0
 11 10  2  0
 12 13  1  0
 13 14  1  0
 14 15  1  6
 14 16  1  0
 16 18  1  0
 16 17  1  6
 17 10  1  0
 18 20  1  0
 19 18  2  0
M  END
$$$$
