CAI.pdb
     RDKit          3D

 20 19  0  0  1  0  0  0  0  0999 V2000
   18.4367  -15.1388  -17.6245 N   0  0  0  0  0  0  0  0  0  0  0  0
   18.0863  -14.0323  -16.7916 C   0  0  1  0  0  0  0  0  0  0  0  0
   18.1586  -14.4992  -15.3449 C   0  0  0  0  0  0  0  0  0  0  0  0
   16.7665  -15.5530  -14.9084 S   0  0  0  0  0  0  0  0  0  0  0  0
   19.0988  -12.9474  -16.9578 C   0  0  0  0  0  0  0  0  0  0  0  0
   20.3392  -13.1703  -16.9292 O   0  0  0  0  0  0  0  0  0  0  0  0
   18.9218   -9.3722  -18.1934 C   0  0  0  0  0  0  0  0  0  0  0  0
   19.6229  -10.5431  -17.5432 C   0  0  2  0  0  0  0  0  0  0  0  0
   18.7087  -11.5900  -17.1594 N   0  0  0  0  0  0  0  0  0  0  0  0
   20.4170  -10.1304  -16.3620 C   0  0  0  0  0  0  0  0  0  0  0  0
   19.9080  -10.1082  -15.1940 O   0  0  0  0  0  0  0  0  0  0  0  0
   25.9328   -9.1289  -15.9195 C   0  0  0  0  0  0  0  0  0  0  0  0
   24.7080   -9.9219  -16.3004 C   0  0  0  0  0  0  0  0  0  0  0  0
   23.8077  -10.1352  -15.1218 C   0  0  2  0  0  0  0  0  0  0  0  0
   23.5434  -11.6084  -14.9271 C   0  0  0  0  0  0  0  0  0  0  0  0
   22.5676   -9.3277  -15.2750 C   0  0  2  0  0  0  0  0  0  0  0  0
   21.7790   -9.7362  -16.4418 N   0  0  0  0  0  0  0  0  0  0  0  0
   22.7436   -7.8722  -15.2376 C   0  0  0  0  0  0  0  0  0  0  0  0
   22.6491   -7.2219  -16.3349 O   0  0  0  0  0  0  0  0  0  0  0  0
   23.0056   -7.1184  -14.1177 O   0  0  0  0  0  0  0  0  0  0  0  0
  2  1  1  6
  3  4  1  0
  3  2  1  0
  5  2  1  0
  6  5  2  0
  8  9  1  0
  8  7  1  1
  9  5  1  0
 10  8  1  0
 11 10  2  0
 12 13  1  0
 13 14  1  0
 14 15  1  6
 14 16  1  0
 16 18  1  0
 16 17  1  6
 17 10  1  0
 18 20  1  0
 19 18  2  0
M  END
$$$$
