CAI.pdb
     RDKit          3D

 20 19  0  0  1  0  0  0  0  0999 V2000
   18.1744  -24.4115   -9.0615 N   0  0  0  0  0  0  0  0  0  0  0  0
   19.1513  -24.4811  -10.1015 C   0  0  1  0  0  0  0  0  0  0  0  0
   18.6668  -25.4968  -11.1261 C   0  0  0  0  0  0  0  0  0  0  0  0
   19.8863  -25.7816  -12.4186 S   0  0  0  0  0  0  0  0  0  0  0  0
   19.2336  -23.1599  -10.7926 C   0  0  0  0  0  0  0  0  0  0  0  0
   18.2098  -22.4848  -11.0844 O   0  0  0  0  0  0  0  0  0  0  0  0
   22.0393  -20.8030  -11.8207 C   0  0  0  0  0  0  0  0  0  0  0  0
   20.6236  -21.3321  -11.8534 C   0  0  2  0  0  0  0  0  0  0  0  0
   20.4884  -22.5896  -11.1609 N   0  0  0  0  0  0  0  0  0  0  0  0
   20.1162  -21.4795  -13.2378 C   0  0  0  0  0  0  0  0  0  0  0  0
   20.1562  -22.5995  -13.8445 O   0  0  0  0  0  0  0  0  0  0  0  0
   16.1472  -19.1864  -17.2634 C   0  0  0  0  0  0  0  0  0  0  0  0
   17.5114  -19.8017  -17.0784 C   0  0  0  0  0  0  0  0  0  0  0  0
   18.0493  -19.5337  -15.7059 C   0  0  2  0  0  0  0  0  0  0  0  0
   18.5316  -18.1071  -15.6039 C   0  0  0  0  0  0  0  0  0  0  0  0
   19.0936  -20.5364  -15.3629 C   0  0  2  0  0  0  0  0  0  0  0  0
   19.5577  -20.4040  -13.9783 N   0  0  0  0  0  0  0  0  0  0  0  0
   20.2229  -20.6274  -16.2940 C   0  0  0  0  0  0  0  0  0  0  0  0
   20.0115  -21.1149  -17.4575 O   0  0  0  0  0  0  0  0  0  0  0  0
   21.5152  -20.2330  -16.0379 O   0  0  0  0  0  0  0  0  0  0  0  0
  2  1  1  1
  3  4  1  0
  3  2  1  0
  5  2  1  0
  6  5  2  0
  8  9  1  0
  8  7  1  6
  9  5  1  0
 10  8  1  0
 11 10  2  0
 12 13  1  0
 13 14  1  0
 14 15  1  6
 14 16  1  0
 16 18  1  0
 16 17  1  1
 17 10  1  0
 18 20  1  0
 19 18  2  0
M  END
$$$$
