CAI.pdb
     RDKit          3D

 20 19  0  0  1  0  0  0  0  0999 V2000
   15.6195  -13.3901  -12.7738 N   0  0  0  0  0  0  0  0  0  0  0  0
   15.2813  -12.0746  -13.2162 C   0  0  1  0  0  0  0  0  0  0  0  0
   13.7772  -11.9040  -13.0580 C   0  0  0  0  0  0  0  0  0  0  0  0
   12.8591  -12.9216  -14.2244 S   0  0  0  0  0  0  0  0  0  0  0  0
   15.9366  -11.0695  -12.3272 C   0  0  0  0  0  0  0  0  0  0  0  0
   15.7982  -11.0832  -11.0744 O   0  0  0  0  0  0  0  0  0  0  0  0
   18.5211   -8.3219  -12.7690 C   0  0  0  0  0  0  0  0  0  0  0  0
   17.3886   -9.0171  -12.0485 C   0  0  2  0  0  0  0  0  0  0  0  0
   16.7609  -10.0326  -12.8571 N   0  0  0  0  0  0  0  0  0  0  0  0
   16.3585   -8.0616  -11.5775 C   0  0  0  0  0  0  0  0  0  0  0  0
   15.3914   -7.7044  -12.3266 O   0  0  0  0  0  0  0  0  0  0  0  0
   13.3376   -8.0895   -7.2485 C   0  0  0  0  0  0  0  0  0  0  0  0
   14.0028   -7.8463   -8.5798 C   0  0  0  0  0  0  0  0  0  0  0  0
   14.8696   -6.6246   -8.5416 C   0  0  2  0  0  0  0  0  0  0  0  0
   14.0838   -5.4433   -8.0266 C   0  0  0  0  0  0  0  0  0  0  0  0
   15.4800   -6.3908   -9.8781 C   0  0  2  0  0  0  0  0  0  0  0  0
   16.3716   -7.4832  -10.2805 N   0  0  0  0  0  0  0  0  0  0  0  0
   16.1213   -5.0858  -10.0687 C   0  0  0  0  0  0  0  0  0  0  0  0
   15.3736   -4.0564  -10.1995 O   0  0  0  0  0  0  0  0  0  0  0  0
   17.4752   -4.8508  -10.1222 O   0  0  0  0  0  0  0  0  0  0  0  0
  2  1  1  1
  3  4  1  0
  3  2  1  0
  5  2  1  0
  6  5  2  0
  8  9  1  0
  8  7  1  6
  9  5  1  0
 10  8  1  0
 11 10  2  0
 12 13  1  0
 13 14  1  0
 14 15  1  6
 14 16  1  0
 16 18  1  0
 16 17  1  1
 17 10  1  0
 18 20  1  0
 19 18  2  0
M  END
$$$$
