CAI.pdb
     RDKit          3D

 20 19  0  0  1  0  0  0  0  0999 V2000
   24.5715  -21.7267  -10.6730 N   0  0  0  0  0  0  0  0  0  0  0  0
   25.1105  -20.4336  -10.3939 C   0  0  1  0  0  0  0  0  0  0  0  0
   26.0083  -20.5590   -9.1714 C   0  0  0  0  0  0  0  0  0  0  0  0
   25.0842  -21.0463   -7.7060 S   0  0  0  0  0  0  0  0  0  0  0  0
   25.9725  -20.0000  -11.5335 C   0  0  0  0  0  0  0  0  0  0  0  0
   26.6934  -18.9672  -11.4810 O   0  0  0  0  0  0  0  0  0  0  0  0
   27.2229  -21.5353  -14.7427 C   0  0  0  0  0  0  0  0  0  0  0  0
   26.8181  -20.3537  -13.8911 C   0  0  2  0  0  0  0  0  0  0  0  0
   26.0239  -20.7409  -12.7516 N   0  0  0  0  0  0  0  0  0  0  0  0
   26.0853  -19.3295  -14.6722 C   0  0  0  0  0  0  0  0  0  0  0  0
   24.8210  -19.3864  -14.8212 O   0  0  0  0  0  0  0  0  0  0  0  0
   24.0386  -14.7949  -15.7615 C   0  0  0  0  0  0  0  0  0  0  0  0
   25.4313  -14.8497  -16.3371 C   0  0  0  0  0  0  0  0  0  0  0  0
   26.2880  -15.8335  -15.6000 C   0  0  2  0  0  0  0  0  0  0  0  0
   27.7427  -15.4479  -15.7155 C   0  0  0  0  0  0  0  0  0  0  0  0
   26.0031  -17.2141  -16.0756 C   0  0  2  0  0  0  0  0  0  0  0  0
   26.7251  -18.2287  -15.3013 N   0  0  0  0  0  0  0  0  0  0  0  0
   26.1571  -17.4385  -17.5166 C   0  0  0  0  0  0  0  0  0  0  0  0
   25.1451  -17.2382  -18.2727 O   0  0  0  0  0  0  0  0  0  0  0  0
   27.3045  -17.8515  -18.1521 O   0  0  0  0  0  0  0  0  0  0  0  0
  2  1  1  6
  3  4  1  0
  3  2  1  0
  5  2  1  0
  6  5  2  0
  8  9  1  0
  8  7  1  6
  9  5  1  0
 10  8  1  0
 11 10  2  0
 12 13  1  0
 13 14  1  0
 14 15  1  6
 14 16  1  0
 16 18  1  0
 16 17  1  1
 17 10  1  0
 18 20  1  0
 19 18  2  0
M  END
$$$$
