CAI.pdb
     RDKit          3D

 20 19  0  0  1  0  0  0  0  0999 V2000
   14.8721  -22.7696   -1.1686 N   0  0  0  0  0  0  0  0  0  0  0  0
   14.6784  -22.9597    0.2340 C   0  0  1  0  0  0  0  0  0  0  0  0
   15.7363  -23.9399    0.7199 C   0  0  0  0  0  0  0  0  0  0  0  0
   15.4539  -25.6013    0.0882 S   0  0  0  0  0  0  0  0  0  0  0  0
   14.9118  -21.6678    0.9455 C   0  0  0  0  0  0  0  0  0  0  0  0
   15.6882  -20.7808    0.4989 O   0  0  0  0  0  0  0  0  0  0  0  0
   13.2731  -19.8893    3.8724 C   0  0  0  0  0  0  0  0  0  0  0  0
   14.3738  -20.1026    2.8584 C   0  0  2  0  0  0  0  0  0  0  0  0
   14.2609  -21.3696    2.1795 N   0  0  0  0  0  0  0  0  0  0  0  0
   15.7205  -19.9927    3.4671 C   0  0  0  0  0  0  0  0  0  0  0  0
   16.3261  -21.0142    3.9293 O   0  0  0  0  0  0  0  0  0  0  0  0
   19.7562  -17.2573    1.3681 C   0  0  0  0  0  0  0  0  0  0  0  0
   18.8974  -18.2180    2.1513 C   0  0  0  0  0  0  0  0  0  0  0  0
   18.6399  -17.7133    3.5385 C   0  0  2  0  0  0  0  0  0  0  0  0
   19.9450  -17.4882    4.2624 C   0  0  0  0  0  0  0  0  0  0  0  0
   17.7191  -18.6372    4.2541 C   0  0  2  0  0  0  0  0  0  0  0  0
   16.4236  -18.7638    3.5790 N   0  0  0  0  0  0  0  0  0  0  0  0
   17.5467  -18.3841    5.6883 C   0  0  0  0  0  0  0  0  0  0  0  0
   18.3494  -18.9538    6.5051 O   0  0  0  0  0  0  0  0  0  0  0  0
   16.5884  -17.5784    6.2572 O   0  0  0  0  0  0  0  0  0  0  0  0
  2  1  1  6
  3  4  1  0
  3  2  1  0
  5  2  1  0
  6  5  2  0
  8  9  1  0
  8  7  1  1
  9  5  1  0
 10  8  1  0
 11 10  2  0
 12 13  1  0
 13 14  1  0
 14 15  1  1
 14 16  1  0
 16 18  1  0
 16 17  1  6
 17 10  1  0
 18 20  1  0
 19 18  2  0
M  END
$$$$
