CAI.pdb
     RDKit          3D

 20 19  0  0  1  0  0  0  0  0999 V2000
   15.8307  -13.2963  -17.7977 N   0  0  0  0  0  0  0  0  0  0  0  0
   15.5791  -12.1287  -17.0140 C   0  0  1  0  0  0  0  0  0  0  0  0
   15.5120  -12.5550  -15.5545 C   0  0  0  0  0  0  0  0  0  0  0  0
   13.9666  -13.3931  -15.1696 S   0  0  0  0  0  0  0  0  0  0  0  0
   16.7292  -11.1857  -17.1472 C   0  0  0  0  0  0  0  0  0  0  0  0
   17.9273  -11.5777  -17.1550 O   0  0  0  0  0  0  0  0  0  0  0  0
   17.0682   -7.4801  -17.9485 C   0  0  0  0  0  0  0  0  0  0  0  0
   17.5883   -8.8388  -17.5378 C   0  0  2  0  0  0  0  0  0  0  0  0
   16.5275   -9.7791  -17.2737 N   0  0  0  0  0  0  0  0  0  0  0  0
   18.4774   -8.7604  -16.3548 C   0  0  0  0  0  0  0  0  0  0  0  0
   18.0278   -8.9235  -15.1737 O   0  0  0  0  0  0  0  0  0  0  0  0
   23.4935  -10.7200  -13.9401 C   0  0  0  0  0  0  0  0  0  0  0  0
   22.5355   -9.5574  -14.0070 C   0  0  0  0  0  0  0  0  0  0  0  0
   21.7315   -9.5851  -15.2711 C   0  0  2  0  0  0  0  0  0  0  0  0
   22.6465   -9.5984  -16.4714 C   0  0  0  0  0  0  0  0  0  0  0  0
   20.7596   -8.4586  -15.2817 C   0  0  2  0  0  0  0  0  0  0  0  0
   19.8709   -8.5023  -16.4472 N   0  0  0  0  0  0  0  0  0  0  0  0
   21.3303   -7.1200  -15.1004 C   0  0  0  0  0  0  0  0  0  0  0  0
   21.5461   -6.4071  -16.1403 O   0  0  0  0  0  0  0  0  0  0  0  0
   21.6645   -6.5398  -13.8992 O   0  0  0  0  0  0  0  0  0  0  0  0
  2  1  1  6
  3  4  1  0
  3  2  1  0
  5  2  1  0
  6  5  2  0
  8  9  1  0
  8  7  1  1
  9  5  1  0
 10  8  1  0
 11 10  2  0
 12 13  1  0
 13 14  1  0
 14 15  1  6
 14 16  1  0
 16 18  1  0
 16 17  1  6
 17 10  1  0
 18 20  1  0
 19 18  2  0
M  END
$$$$
