CAI.pdb
     RDKit          3D

 20 19  0  0  1  0  0  0  0  0999 V2000
   15.1468  -10.9525  -16.7627 N   0  0  0  0  0  0  0  0  0  0  0  0
   15.2724  -10.0774  -15.6407 C   0  0  1  0  0  0  0  0  0  0  0  0
   15.5721  -10.9315  -14.4172 C   0  0  0  0  0  0  0  0  0  0  0  0
   14.1161  -11.8221  -13.8463 S   0  0  0  0  0  0  0  0  0  0  0  0
   16.4428   -9.1731  -15.8466 C   0  0  0  0  0  0  0  0  0  0  0  0
   17.5458   -9.5868  -16.2955 O   0  0  0  0  0  0  0  0  0  0  0  0
   16.9747   -5.4109  -15.7657 C   0  0  0  0  0  0  0  0  0  0  0  0
   17.4398   -6.8489  -15.8001 C   0  0  2  0  0  0  0  0  0  0  0  0
   16.3704   -7.7811  -15.5426 N   0  0  0  0  0  0  0  0  0  0  0  0
   18.5463   -7.0991  -14.8467 C   0  0  0  0  0  0  0  0  0  0  0  0
   18.3192   -7.4146  -13.6331 O   0  0  0  0  0  0  0  0  0  0  0  0
   23.4253  -10.1496  -13.7644 C   0  0  0  0  0  0  0  0  0  0  0  0
   22.7428   -8.8276  -13.5189 C   0  0  0  0  0  0  0  0  0  0  0  0
   21.7569   -8.5129  -14.6025 C   0  0  2  0  0  0  0  0  0  0  0  0
   22.4529   -8.4564  -15.9407 C   0  0  0  0  0  0  0  0  0  0  0  0
   21.0141   -7.2675  -14.2699 C   0  0  2  0  0  0  0  0  0  0  0  0
   19.9170   -7.0076  -15.2073 N   0  0  0  0  0  0  0  0  0  0  0  0
   21.8341   -6.0685  -14.0683 C   0  0  0  0  0  0  0  0  0  0  0  0
   22.4839   -5.9557  -12.9723 O   0  0  0  0  0  0  0  0  0  0  0  0
   21.9790   -5.0296  -14.9576 O   0  0  0  0  0  0  0  0  0  0  0  0
  2  1  1  6
  3  4  1  0
  3  2  1  0
  5  2  1  0
  6  5  2  0
  8  9  1  0
  8  7  1  1
  9  5  1  0
 10  8  1  0
 11 10  2  0
 12 13  1  0
 13 14  1  0
 14 15  1  6
 14 16  1  0
 16 18  1  0
 16 17  1  6
 17 10  1  0
 18 20  1  0
 19 18  2  0
M  END
$$$$
