CAI.pdb
     RDKit          3D

 20 19  0  0  1  0  0  0  0  0999 V2000
   26.2358  -33.6649  -12.1262 N   0  0  0  0  0  0  0  0  0  0  0  0
   25.0540  -34.1710  -11.5034 C   0  0  1  0  0  0  0  0  0  0  0  0
   25.1864  -35.6847  -11.4177 C   0  0  0  0  0  0  0  0  0  0  0  0
   23.9766  -36.5248  -12.4518 S   0  0  0  0  0  0  0  0  0  0  0  0
   24.9711  -33.6540  -10.1050 C   0  0  0  0  0  0  0  0  0  0  0  0
   25.9960  -33.3945   -9.4184 O   0  0  0  0  0  0  0  0  0  0  0  0
   22.1377  -32.5449   -7.8046 C   0  0  0  0  0  0  0  0  0  0  0  0
   23.5758  -32.8554   -8.1521 C   0  0  2  0  0  0  0  0  0  0  0  0
   23.7146  -33.4256   -9.4692 N   0  0  0  0  0  0  0  0  0  0  0  0
   24.2059  -33.7580   -7.1600 C   0  0  0  0  0  0  0  0  0  0  0  0
   24.2612  -35.0171   -7.3481 O   0  0  0  0  0  0  0  0  0  0  0  0
   29.0197  -34.3683   -3.6605 C   0  0  0  0  0  0  0  0  0  0  0  0
   27.5893  -34.7691   -3.9200 C   0  0  0  0  0  0  0  0  0  0  0  0
   26.8776  -33.7447   -4.7503 C   0  0  2  0  0  0  0  0  0  0  0  0
   26.9801  -32.3854   -4.1025 C   0  0  0  0  0  0  0  0  0  0  0  0
   25.4758  -34.1759   -5.0003 C   0  0  2  0  0  0  0  0  0  0  0  0
   24.7845  -33.2961   -5.9480 N   0  0  0  0  0  0  0  0  0  0  0  0
   24.6581  -34.4160   -3.8069 C   0  0  0  0  0  0  0  0  0  0  0  0
   24.9553  -35.4098   -3.0584 O   0  0  0  0  0  0  0  0  0  0  0  0
   23.5802  -33.6646   -3.4012 O   0  0  0  0  0  0  0  0  0  0  0  0
  2  1  1  1
  3  4  1  0
  3  2  1  0
  5  2  1  0
  6  5  2  0
  8  9  1  0
  8  7  1  1
  9  5  1  0
 10  8  1  0
 11 10  2  0
 12 13  1  0
 13 14  1  0
 14 15  1  1
 14 16  1  0
 16 18  1  0
 16 17  1  6
 17 10  1  0
 18 20  1  0
 19 18  2  0
M  END
$$$$
