CAI.pdb
     RDKit          3D

 20 19  0  0  1  0  0  0  0  0999 V2000
   16.2842  -11.4519  -17.5861 N   0  0  0  0  0  0  0  0  0  0  0  0
   16.0826  -10.6110  -16.4490 C   0  0  1  0  0  0  0  0  0  0  0  0
   16.3072  -11.4545  -15.2023 C   0  0  0  0  0  0  0  0  0  0  0  0
   14.8984  -12.5165  -14.8467 S   0  0  0  0  0  0  0  0  0  0  0  0
   17.1129   -9.5301  -16.4437 C   0  0  0  0  0  0  0  0  0  0  0  0
   18.3164   -9.7420  -16.7533 O   0  0  0  0  0  0  0  0  0  0  0  0
   17.0173   -5.7447  -16.0474 C   0  0  0  0  0  0  0  0  0  0  0  0
   17.7041   -7.0844  -16.1842 C   0  0  2  0  0  0  0  0  0  0  0  0
   16.7832   -8.1895  -16.0842 N   0  0  0  0  0  0  0  0  0  0  0  0
   18.7872   -7.2591  -15.1880 C   0  0  0  0  0  0  0  0  0  0  0  0
   18.5498   -7.7130  -14.0212 O   0  0  0  0  0  0  0  0  0  0  0  0
   23.7333   -9.9941  -14.0050 C   0  0  0  0  0  0  0  0  0  0  0  0
   22.9579   -8.7330  -13.7181 C   0  0  0  0  0  0  0  0  0  0  0  0
   21.9988   -8.4183  -14.8255 C   0  0  2  0  0  0  0  0  0  0  0  0
   22.7310   -8.3378  -16.1428 C   0  0  0  0  0  0  0  0  0  0  0  0
   21.2310   -7.1862  -14.5000 C   0  0  2  0  0  0  0  0  0  0  0  0
   20.1452   -6.9398  -15.4541 N   0  0  0  0  0  0  0  0  0  0  0  0
   22.0284   -5.9752  -14.2803 C   0  0  0  0  0  0  0  0  0  0  0  0
   22.1655   -5.1552  -15.2523 O   0  0  0  0  0  0  0  0  0  0  0  0
   22.6579   -5.6235  -13.1094 O   0  0  0  0  0  0  0  0  0  0  0  0
  2  1  1  6
  3  4  1  0
  3  2  1  0
  5  2  1  0
  6  5  2  0
  8  9  1  0
  8  7  1  1
  9  5  1  0
 10  8  1  0
 11 10  2  0
 12 13  1  0
 13 14  1  0
 14 15  1  6
 14 16  1  0
 16 18  1  0
 16 17  1  6
 17 10  1  0
 18 20  1  0
 19 18  2  0
M  END
$$$$
