CAI.pdb
     RDKit          3D

 20 19  0  0  1  0  0  0  0  0999 V2000
   26.9139  -20.3154  -15.6432 N   0  0  0  0  0  0  0  0  0  0  0  0
   27.0429  -21.1562  -14.4956 C   0  0  1  0  0  0  0  0  0  0  0  0
   28.5252  -21.4290  -14.2845 C   0  0  0  0  0  0  0  0  0  0  0  0
   29.1685  -22.6093  -15.4812 S   0  0  0  0  0  0  0  0  0  0  0  0
   26.5509  -20.4265  -13.2893 C   0  0  0  0  0  0  0  0  0  0  0  0
   26.8052  -19.2087  -13.0856 O   0  0  0  0  0  0  0  0  0  0  0  0
   23.6948  -20.5294  -11.0857 C   0  0  0  0  0  0  0  0  0  0  0  0
   25.1999  -20.4049  -11.1510 C   0  0  2  0  0  0  0  0  0  0  0  0
   25.7602  -21.0779  -12.2965 N   0  0  0  0  0  0  0  0  0  0  0  0
   25.8541  -20.9083   -9.9202 C   0  0  0  0  0  0  0  0  0  0  0  0
   26.1918  -22.1311   -9.7998 O   0  0  0  0  0  0  0  0  0  0  0  0
   29.2983  -19.5045   -5.0491 C   0  0  0  0  0  0  0  0  0  0  0  0
   28.2373  -20.3671   -5.6848 C   0  0  0  0  0  0  0  0  0  0  0  0
   27.7178  -19.7510   -6.9480 C   0  0  2  0  0  0  0  0  0  0  0  0
   27.2847  -18.3275   -6.6946 C   0  0  0  0  0  0  0  0  0  0  0  0
   26.6425  -20.6018   -7.5253 C   0  0  2  0  0  0  0  0  0  0  0  0
   26.1480  -20.0812   -8.8038 N   0  0  0  0  0  0  0  0  0  0  0  0
   25.5343  -20.9315   -6.6232 C   0  0  0  0  0  0  0  0  0  0  0  0
   25.7656  -21.7172   -5.6408 O   0  0  0  0  0  0  0  0  0  0  0  0
   24.2426  -20.4713   -6.7281 O   0  0  0  0  0  0  0  0  0  0  0  0
  2  1  1  6
  3  4  1  0
  3  2  1  0
  5  2  1  0
  6  5  2  0
  8  9  1  0
  8  7  1  1
  9  5  1  0
 10  8  1  0
 11 10  2  0
 12 13  1  0
 13 14  1  0
 14 15  1  1
 14 16  1  0
 16 18  1  0
 16 17  1  6
 17 10  1  0
 18 20  1  0
 19 18  2  0
M  END
$$$$
