NVI.pdb
     RDKit          3D

 24 23  0  0  1  0  0  0  0  0999 V2000
   12.8023  -19.6762   19.5927 N   0  0  0  0  0  0  0  0  0  0  0  0
   12.3818  -19.6619   20.9499 C   0  0  0  0  0  0  0  0  0  0  0  0
   12.6507  -20.6558   21.6665 O   0  0  0  0  0  0  0  0  0  0  0  0
   11.6465  -18.4810   21.4633 C   0  0  0  0  0  0  0  0  0  0  0  0
   11.2505  -17.5333   20.3864 C   0  0  2  0  0  0  0  0  0  0  0  0
   12.3077  -17.2376   19.4266 N   0  0  0  0  0  0  0  0  0  0  0  0
   10.6460  -16.2855   20.9043 C   0  0  0  0  0  0  0  0  0  0  0  0
   11.3130  -15.2329   21.0010 O   0  0  0  0  0  0  0  0  0  0  0  0
    7.6747  -14.2293   19.8083 C   0  0  0  0  0  0  0  0  0  0  0  0
    7.3796  -14.6439   21.2452 C   0  0  1  0  0  0  0  0  0  0  0  0
    6.3230  -15.7088   21.2203 C   0  0  0  0  0  0  0  0  0  0  0  0
    8.6485  -15.0568   21.8778 C   0  0  2  0  0  0  0  0  0  0  0  0
    9.2814  -16.2086   21.3192 N   0  0  0  0  0  0  0  0  0  0  0  0
    8.6053  -15.1365   23.3794 C   0  0  0  0  0  0  0  0  0  0  0  0
    8.9886  -16.1835   23.9152 O   0  0  0  0  0  0  0  0  0  0  0  0
    7.2204  -11.0519   27.7394 C   0  0  0  0  0  0  0  0  0  0  0  0
    7.6021  -12.5292   27.5443 C   0  0  0  0  0  0  0  0  0  0  0  0
    7.3771  -12.8999   26.1153 C   0  0  2  0  0  0  0  0  0  0  0  0
    5.8614  -13.0372   25.9143 C   0  0  0  0  0  0  0  0  0  0  0  0
    8.0580  -14.1592   25.6635 C   0  0  2  0  0  0  0  0  0  0  0  0
    8.1540  -14.0761   24.1936 N   0  0  0  0  0  0  0  0  0  0  0  0
    7.4485  -15.3997   26.1183 C   0  0  0  0  0  0  0  0  0  0  0  0
    7.8653  -15.8602   27.2335 O   0  0  0  0  0  0  0  0  0  0  0  0
    6.4766  -16.1341   25.4896 O   0  0  0  0  0  0  0  0  0  0  0  0
  2  1  1  0
  3  2  2  0
  4  2  1  0
  5  4  1  0
  5  6  1  1
  7  5  1  0
  7  8  2  0
 10  9  1  6
 10 12  1  0
 10 11  1  0
 12 13  1  6
 13  7  1  0
 14 12  1  0
 15 14  2  0
 17 16  1  0
 18 17  1  0
 18 19  1  1
 20 18  1  0
 20 21  1  6
 21 14  1  0
 22 20  1  0
 23 22  2  0
 24 22  1  0
M  END
$$$$
