NVI.pdb
     RDKit          3D

 24 23  0  0  1  0  0  0  0  0999 V2000
   14.6679  -18.7179   20.1723 N   0  0  0  0  0  0  0  0  0  0  0  0
   13.7455  -18.2436   19.2011 C   0  0  0  0  0  0  0  0  0  0  0  0
   13.7300  -18.7968   18.0753 O   0  0  0  0  0  0  0  0  0  0  0  0
   12.8431  -17.1209   19.5533 C   0  0  0  0  0  0  0  0  0  0  0  0
   11.7560  -17.5236   20.4864 C   0  0  2  0  0  0  0  0  0  0  0  0
   10.9089  -18.6031   19.9929 N   0  0  0  0  0  0  0  0  0  0  0  0
   10.9365  -16.3820   20.9505 C   0  0  0  0  0  0  0  0  0  0  0  0
   11.4664  -15.3231   21.3508 O   0  0  0  0  0  0  0  0  0  0  0  0
    6.5247  -16.5774   21.3653 C   0  0  0  0  0  0  0  0  0  0  0  0
    7.3021  -15.3232   20.9830 C   0  0  1  0  0  0  0  0  0  0  0  0
    6.5255  -14.1274   21.4497 C   0  0  0  0  0  0  0  0  0  0  0  0
    8.6608  -15.4294   21.5518 C   0  0  2  0  0  0  0  0  0  0  0  0
    9.5087  -16.4193   20.9686 N   0  0  0  0  0  0  0  0  0  0  0  0
    8.7101  -15.4898   23.0541 C   0  0  0  0  0  0  0  0  0  0  0  0
    9.2554  -16.4695   23.5768 O   0  0  0  0  0  0  0  0  0  0  0  0
    6.6165  -11.8761   27.6469 C   0  0  0  0  0  0  0  0  0  0  0  0
    7.4818  -13.1038   27.3150 C   0  0  0  0  0  0  0  0  0  0  0  0
    7.4357  -13.3412   25.8414 C   0  0  2  0  0  0  0  0  0  0  0  0
    5.9599  -13.5103   25.4540 C   0  0  0  0  0  0  0  0  0  0  0  0
    8.2193  -14.5264   25.3568 C   0  0  2  0  0  0  0  0  0  0  0  0
    8.1693  -14.4841   23.8829 N   0  0  0  0  0  0  0  0  0  0  0  0
    7.8084  -15.8135   25.8970 C   0  0  0  0  0  0  0  0  0  0  0  0
    6.8171  -16.3780   25.3242 O   0  0  0  0  0  0  0  0  0  0  0  0
    8.3616  -16.4937   26.9508 O   0  0  0  0  0  0  0  0  0  0  0  0
  2  1  1  0
  3  2  2  0
  4  2  1  0
  5  4  1  0
  5  6  1  6
  7  5  1  0
  7  8  2  0
 10  9  1  1
 10 12  1  0
 10 11  1  0
 12 13  1  6
 13  7  1  0
 14 12  1  0
 15 14  2  0
 17 16  1  0
 18 17  1  0
 18 19  1  1
 20 18  1  0
 20 21  1  6
 21 14  1  0
 22 20  1  0
 23 22  2  0
 24 22  1  0
M  END
$$$$
