NVI.pdb
     RDKit          3D

 24 23  0  0  1  0  0  0  0  0999 V2000
    9.0783  -16.3316   15.8448 N   0  0  0  0  0  0  0  0  0  0  0  0
    9.3469  -17.1946   16.9411 C   0  0  0  0  0  0  0  0  0  0  0  0
   10.3395  -17.9582   16.8678 O   0  0  0  0  0  0  0  0  0  0  0  0
    8.4500  -17.1597   18.1214 C   0  0  0  0  0  0  0  0  0  0  0  0
    9.1920  -17.1022   19.4101 C   0  0  2  0  0  0  0  0  0  0  0  0
    9.9081  -18.3270   19.7470 N   0  0  0  0  0  0  0  0  0  0  0  0
    8.3527  -16.6545   20.5439 C   0  0  0  0  0  0  0  0  0  0  0  0
    7.6425  -15.6294   20.4605 O   0  0  0  0  0  0  0  0  0  0  0  0
    5.8126  -18.6807   22.3862 C   0  0  0  0  0  0  0  0  0  0  0  0
    6.6807  -18.0887   23.4906 C   0  0  1  0  0  0  0  0  0  0  0  0
    7.4790  -19.1989   24.1079 C   0  0  0  0  0  0  0  0  0  0  0  0
    7.4938  -17.0023   22.9080 C   0  0  2  0  0  0  0  0  0  0  0  0
    8.3029  -17.3575   21.7863 N   0  0  0  0  0  0  0  0  0  0  0  0
    8.2774  -16.1979   23.9090 C   0  0  0  0  0  0  0  0  0  0  0  0
    9.5035  -16.3571   23.9475 O   0  0  0  0  0  0  0  0  0  0  0  0
    5.8807  -11.6664   25.9276 C   0  0  0  0  0  0  0  0  0  0  0  0
    6.9693  -12.5528   25.2989 C   0  0  0  0  0  0  0  0  0  0  0  0
    7.5025  -13.4755   26.3450 C   0  0  2  0  0  0  0  0  0  0  0  0
    8.2412  -12.6133   27.3782 C   0  0  0  0  0  0  0  0  0  0  0  0
    8.4201  -14.5529   25.8442 C   0  0  2  0  0  0  0  0  0  0  0  0
    7.6785  -15.2763   24.7938 N   0  0  0  0  0  0  0  0  0  0  0  0
    8.9615  -15.4394   26.8631 C   0  0  0  0  0  0  0  0  0  0  0  0
    8.2130  -16.4069   27.2280 O   0  0  0  0  0  0  0  0  0  0  0  0
   10.1837  -15.3588   27.4787 O   0  0  0  0  0  0  0  0  0  0  0  0
  2  1  1  0
  3  2  2  0
  4  2  1  0
  5  4  1  0
  5  6  1  1
  7  5  1  0
  7  8  2  0
 10  9  1  6
 10 12  1  0
 10 11  1  0
 12 13  1  6
 13  7  1  0
 14 12  1  0
 15 14  2  0
 17 16  1  0
 18 17  1  0
 18 19  1  1
 20 18  1  0
 20 21  1  6
 21 14  1  0
 22 20  1  0
 23 22  2  0
 24 22  1  0
M  END
$$$$
