NVI.pdb
     RDKit          3D

 24 23  0  0  1  0  0  0  0  0999 V2000
   14.8038  -18.1430   19.4511 N   0  0  0  0  0  0  0  0  0  0  0  0
   13.5980  -17.8286   18.7684 C   0  0  0  0  0  0  0  0  0  0  0  0
   13.3637  -18.4046   17.6789 O   0  0  0  0  0  0  0  0  0  0  0  0
   12.6695  -16.8387   19.3657 C   0  0  0  0  0  0  0  0  0  0  0  0
   11.5977  -17.4705   20.1822 C   0  0  2  0  0  0  0  0  0  0  0  0
   10.6026  -18.2016   19.4065 N   0  0  0  0  0  0  0  0  0  0  0  0
   10.9461  -16.5255   21.1165 C   0  0  0  0  0  0  0  0  0  0  0  0
   11.6195  -15.7876   21.8677 O   0  0  0  0  0  0  0  0  0  0  0  0
    6.9199  -14.1125   22.6615 C   0  0  0  0  0  0  0  0  0  0  0  0
    7.4948  -15.0667   21.6210 C   0  0  1  0  0  0  0  0  0  0  0  0
    7.4852  -14.3735   20.2904 C   0  0  0  0  0  0  0  0  0  0  0  0
    8.8322  -15.4968   22.0762 C   0  0  2  0  0  0  0  0  0  0  0  0
    9.5267  -16.3999   21.2152 N   0  0  0  0  0  0  0  0  0  0  0  0
    8.8909  -15.9581   23.5068 C   0  0  0  0  0  0  0  0  0  0  0  0
    8.8807  -17.1760   23.7236 O   0  0  0  0  0  0  0  0  0  0  0  0
    9.9304  -13.0969   28.9088 C   0  0  0  0  0  0  0  0  0  0  0  0
    9.7448  -14.4663   28.2332 C   0  0  0  0  0  0  0  0  0  0  0  0
    9.4367  -14.2524   26.7878 C   0  0  2  0  0  0  0  0  0  0  0  0
    8.1968  -13.3500   26.7158 C   0  0  0  0  0  0  0  0  0  0  0  0
    9.1938  -15.5012   25.9910 C   0  0  2  0  0  0  0  0  0  0  0  0
    8.9601  -15.0686   24.6000 N   0  0  0  0  0  0  0  0  0  0  0  0
    8.1418  -16.3715   26.4939 C   0  0  0  0  0  0  0  0  0  0  0  0
    6.9604  -16.1340   26.0729 O   0  0  0  0  0  0  0  0  0  0  0  0
    8.2696  -17.4195   27.3684 O   0  0  0  0  0  0  0  0  0  0  0  0
  2  1  1  0
  3  2  2  0
  4  2  1  0
  5  4  1  0
  5  6  1  6
  7  5  1  0
  7  8  2  0
 10  9  1  1
 10 12  1  0
 10 11  1  0
 12 13  1  6
 13  7  1  0
 14 12  1  0
 15 14  2  0
 17 16  1  0
 18 17  1  0
 18 19  1  1
 20 18  1  0
 20 21  1  6
 21 14  1  0
 22 20  1  0
 23 22  2  0
 24 22  1  0
M  END
$$$$
