NVI.pdb
     RDKit          3D

 24 23  0  0  1  0  0  0  0  0999 V2000
    8.2673  -12.5318   16.9251 N   0  0  0  0  0  0  0  0  0  0  0  0
    8.1338  -13.9457   16.9713 C   0  0  0  0  0  0  0  0  0  0  0  0
    8.5317  -14.6133   15.9866 O   0  0  0  0  0  0  0  0  0  0  0  0
    7.5334  -14.5731   18.1732 C   0  0  0  0  0  0  0  0  0  0  0  0
    8.5316  -14.8468   19.2425 C   0  0  2  0  0  0  0  0  0  0  0  0
    9.5226  -15.8587   18.8955 N   0  0  0  0  0  0  0  0  0  0  0  0
    7.9119  -15.1449   20.5530 C   0  0  0  0  0  0  0  0  0  0  0  0
    7.0382  -14.3971   21.0428 O   0  0  0  0  0  0  0  0  0  0  0  0
    6.5802  -18.5923   21.6846 C   0  0  0  0  0  0  0  0  0  0  0  0
    7.4615  -18.0792   22.8176 C   0  0  1  0  0  0  0  0  0  0  0  0
    8.7006  -18.9236   22.8695 C   0  0  0  0  0  0  0  0  0  0  0  0
    7.7112  -16.6408   22.5949 C   0  0  2  0  0  0  0  0  0  0  0  0
    8.2689  -16.2904   21.3279 N   0  0  0  0  0  0  0  0  0  0  0  0
    8.4355  -15.9478   23.7165 C   0  0  0  0  0  0  0  0  0  0  0  0
    9.6674  -15.8610   23.6443 O   0  0  0  0  0  0  0  0  0  0  0  0
    6.1047  -11.7121   25.9828 C   0  0  0  0  0  0  0  0  0  0  0  0
    7.1535  -12.6634   25.3819 C   0  0  0  0  0  0  0  0  0  0  0  0
    7.5775  -13.6374   26.4315 C   0  0  2  0  0  0  0  0  0  0  0  0
    8.2882  -12.8384   27.5329 C   0  0  0  0  0  0  0  0  0  0  0  0
    8.4751  -14.7432   25.9568 C   0  0  2  0  0  0  0  0  0  0  0  0
    7.7745  -15.3950   24.8339 N   0  0  0  0  0  0  0  0  0  0  0  0
    8.9012  -15.6875   26.9786 C   0  0  0  0  0  0  0  0  0  0  0  0
    8.1326  -16.6859   27.1831 O   0  0  0  0  0  0  0  0  0  0  0  0
   10.0336  -15.6320   27.7492 O   0  0  0  0  0  0  0  0  0  0  0  0
  2  1  1  0
  3  2  2  0
  4  2  1  0
  5  4  1  0
  5  6  1  6
  7  5  1  0
  7  8  2  0
 10  9  1  6
 10 12  1  0
 10 11  1  0
 12 13  1  6
 13  7  1  0
 14 12  1  0
 15 14  2  0
 17 16  1  0
 18 17  1  0
 18 19  1  1
 20 18  1  0
 20 21  1  6
 21 14  1  0
 22 20  1  0
 23 22  2  0
 24 22  1  0
M  END
$$$$
