NVI.pdb
     RDKit          3D

 24 23  0  0  1  0  0  0  0  0999 V2000
   14.9820  -14.5250   18.5571 N   0  0  0  0  0  0  0  0  0  0  0  0
   14.0867  -15.0755   19.5133 C   0  0  0  0  0  0  0  0  0  0  0  0
   14.3589  -16.1962   20.0069 O   0  0  0  0  0  0  0  0  0  0  0  0
   12.8736  -14.3095   19.8882 C   0  0  0  0  0  0  0  0  0  0  0  0
   11.6127  -14.9917   19.4891 C   0  0  2  0  0  0  0  0  0  0  0  0
   11.3977  -15.0637   18.0486 N   0  0  0  0  0  0  0  0  0  0  0  0
   10.4175  -14.4494   20.1731 C   0  0  0  0  0  0  0  0  0  0  0  0
   10.0465  -13.2694   19.9934 O   0  0  0  0  0  0  0  0  0  0  0  0
    6.9772  -14.9139   19.8704 C   0  0  0  0  0  0  0  0  0  0  0  0
    7.1760  -15.3027   21.3308 C   0  0  1  0  0  0  0  0  0  0  0  0
    7.0464  -16.7932   21.4430 C   0  0  0  0  0  0  0  0  0  0  0  0
    8.4769  -14.7670   21.7796 C   0  0  2  0  0  0  0  0  0  0  0  0
    9.6248  -15.2310   21.0680 N   0  0  0  0  0  0  0  0  0  0  0  0
    8.7008  -14.8238   23.2661 C   0  0  0  0  0  0  0  0  0  0  0  0
    9.6801  -15.4558   23.6806 O   0  0  0  0  0  0  0  0  0  0  0  0
    5.8687  -11.1788   26.3504 C   0  0  0  0  0  0  0  0  0  0  0  0
    7.0612  -11.9548   25.7656 C   0  0  0  0  0  0  0  0  0  0  0  0
    7.0147  -13.3600   26.2688 C   0  0  2  0  0  0  0  0  0  0  0  0
    7.2228  -13.3058   27.7888 C   0  0  0  0  0  0  0  0  0  0  0  0
    8.0190  -14.2944   25.6590 C   0  0  2  0  0  0  0  0  0  0  0  0
    7.8512  -14.1893   24.1970 N   0  0  0  0  0  0  0  0  0  0  0  0
    7.9665  -15.6686   26.1342 C   0  0  0  0  0  0  0  0  0  0  0  0
    7.0667  -16.4126   25.6182 O   0  0  0  0  0  0  0  0  0  0  0  0
    8.7715  -16.2608   27.0726 O   0  0  0  0  0  0  0  0  0  0  0  0
  2  1  1  0
  3  2  2  0
  4  2  1  0
  5  4  1  0
  5  6  1  6
  7  5  1  0
  7  8  2  0
 10  9  1  6
 10 12  1  0
 10 11  1  0
 12 13  1  6
 13  7  1  0
 14 12  1  0
 15 14  2  0
 17 16  1  0
 18 17  1  0
 18 19  1  1
 20 18  1  0
 20 21  1  6
 21 14  1  0
 22 20  1  0
 23 22  2  0
 24 22  1  0
M  END
$$$$
