NVI.pdb
     RDKit          3D

 24 23  0  0  1  0  0  0  0  0999 V2000
   13.2484  -17.3428   16.8725 N   0  0  0  0  0  0  0  0  0  0  0  0
   12.7672  -17.6950   18.1622 C   0  0  0  0  0  0  0  0  0  0  0  0
   13.3174  -18.6494   18.7622 O   0  0  0  0  0  0  0  0  0  0  0  0
   11.6411  -16.9263   18.7451 C   0  0  0  0  0  0  0  0  0  0  0  0
   11.2663  -17.3930   20.1076 C   0  0  2  0  0  0  0  0  0  0  0  0
   10.6321  -18.7057   20.1405 N   0  0  0  0  0  0  0  0  0  0  0  0
   10.4651  -16.4025   20.8607 C   0  0  0  0  0  0  0  0  0  0  0  0
   10.8423  -15.2166   20.9776 O   0  0  0  0  0  0  0  0  0  0  0  0
    6.6606  -15.8846   20.3427 C   0  0  0  0  0  0  0  0  0  0  0  0
    6.8964  -16.0205   21.8426 C   0  0  1  0  0  0  0  0  0  0  0  0
    6.3756  -17.3572   22.2817 C   0  0  0  0  0  0  0  0  0  0  0  0
    8.3338  -15.8081   22.1065 C   0  0  2  0  0  0  0  0  0  0  0  0
    9.2277  -16.7363   21.4913 N   0  0  0  0  0  0  0  0  0  0  0  0
    8.6824  -15.5977   23.5546 C   0  0  0  0  0  0  0  0  0  0  0  0
    9.5567  -16.3188   24.0505 O   0  0  0  0  0  0  0  0  0  0  0  0
    6.2699  -11.2296   25.9906 C   0  0  0  0  0  0  0  0  0  0  0  0
    7.4504  -12.1181   25.5626 C   0  0  0  0  0  0  0  0  0  0  0  0
    7.3674  -13.4158   26.2968 C   0  0  2  0  0  0  0  0  0  0  0  0
    7.6532  -13.1205   27.7760 C   0  0  0  0  0  0  0  0  0  0  0  0
    8.2981  -14.4891   25.8118 C   0  0  2  0  0  0  0  0  0  0  0  0
    8.0628  -14.6197   24.3612 N   0  0  0  0  0  0  0  0  0  0  0  0
    8.2087  -15.7608   26.5131 C   0  0  0  0  0  0  0  0  0  0  0  0
    9.1156  -15.9944   27.3805 O   0  0  0  0  0  0  0  0  0  0  0  0
    7.2630  -16.7402   26.3527 O   0  0  0  0  0  0  0  0  0  0  0  0
  2  1  1  0
  3  2  2  0
  4  2  1  0
  5  4  1  0
  5  6  1  6
  7  5  1  0
  7  8  2  0
 10  9  1  6
 10 12  1  0
 10 11  1  0
 12 13  1  1
 13  7  1  0
 14 12  1  0
 15 14  2  0
 17 16  1  0
 18 17  1  0
 18 19  1  1
 20 18  1  0
 20 21  1  6
 21 14  1  0
 22 20  1  0
 23 22  2  0
 24 22  1  0
M  END
$$$$
