TQW.pdb
     RDKit          3D

 31 32  0  0  1  0  0  0  0  0999 V2000
   29.2919  -30.0997  -17.1636 C   0  0  0  0  0  0  0  0  0  0  0  0
   29.3468  -31.5293  -16.7544 C   0  0  1  0  0  0  0  0  0  0  0  0
   30.4764  -31.7153  -15.9480 O   0  0  0  0  0  0  0  0  0  0  0  0
   28.1551  -31.9501  -15.9128 C   0  0  2  0  0  0  0  0  0  0  0  0
   28.2942  -33.3675  -15.6451 N   0  0  0  0  0  0  0  0  0  0  0  0
   26.8917  -31.7564  -16.6998 C   0  0  0  0  0  0  0  0  0  0  0  0
   26.5100  -32.6142  -17.5366 O   0  0  0  0  0  0  0  0  0  0  0  0
   20.7296  -30.4825  -16.4617 N   0  0  0  0  0  0  0  0  0  0  0  0
   21.5526  -29.6333  -15.6305 C   0  0  0  0  0  0  0  0  0  0  0  0
   20.9390  -28.8929  -14.8618 O   0  0  0  0  0  0  0  0  0  0  0  0
   22.9881  -29.7046  -15.7502 C   0  0  0  0  0  0  0  0  0  0  0  0
   23.6114  -30.6645  -16.6800 C   0  0  0  0  0  0  0  0  0  0  0  0
   24.8881  -30.3337  -17.3174 C   0  0  2  0  0  0  0  0  0  0  0  0
   26.0694  -30.6220  -16.5527 N   0  0  0  0  0  0  0  0  0  0  0  0
   24.9812  -29.0502  -18.0100 C   0  0  0  0  0  0  0  0  0  0  0  0
   25.6978  -28.1557  -17.4920 O   0  0  0  0  0  0  0  0  0  0  0  0
   24.3218  -28.7485  -19.2316 N   0  0  0  0  0  0  0  0  0  0  0  0
   24.4113  -27.5193  -19.9603 C   0  0  1  0  0  0  0  0  0  0  0  0
   25.3886  -27.5429  -21.0816 C   0  0  0  0  0  0  0  0  0  0  0  0
   24.7457  -27.5401  -22.4163 C   0  0  0  0  0  0  0  0  0  0  0  0
   23.9403  -26.6014  -23.0296 C   0  0  0  0  0  0  0  0  0  0  0  0
   23.5955  -27.0529  -24.2467 N   0  0  0  0  0  0  0  0  0  0  0  0
   24.1372  -28.2624  -24.4807 C   0  0  0  0  0  0  0  0  0  0  0  0
   24.1073  -29.1566  -25.5416 C   0  0  0  0  0  0  0  0  0  0  0  0
   24.7778  -30.3595  -25.5010 C   0  0  0  0  0  0  0  0  0  0  0  0
   25.4979  -30.6775  -24.3692 C   0  0  0  0  0  0  0  0  0  0  0  0
   25.5286  -29.7803  -23.3035 C   0  0  0  0  0  0  0  0  0  0  0  0
   24.8601  -28.5815  -23.3447 C   0  0  0  0  0  0  0  0  0  0  0  0
   23.0841  -27.0527  -20.4483 C   0  0  0  0  0  0  0  0  0  0  0  0
   22.9958  -25.9160  -20.9534 O   0  0  0  0  0  0  0  0  0  0  0  0
   21.9575  -27.8395  -20.3578 O   0  0  0  0  0  0  0  0  0  0  0  0
  2  1  1  1
  3  2  1  0
  4  2  1  0
  4  5  1  6
  6  4  1  0
  6 14  1  0
  7  6  2  0
  8  9  1  0
  9 10  2  0
 11  9  1  0
 11 12  1  0
 13 12  1  1
 13 14  1  0
 15 13  1  0
 16 15  2  0
 17 15  1  0
 18 17  1  0
 18 29  1  0
 18 19  1  6
 20 28  1  0
 20 19  1  0
 21 20  2  0
 22 21  1  0
 22 23  1  0
 23 28  2  0
 24 23  1  0
 24 25  2  0
 25 26  1  0
 26 27  2  0
 28 27  1  0
 29 31  1  0
 30 29  2  0
M  END
$$$$
