TQW.pdb
     RDKit          3D

 31 32  0  0  1  0  0  0  0  0999 V2000
   26.3666  -24.0870  -17.2621 C   0  0  0  0  0  0  0  0  0  0  0  0
   27.8323  -24.3124  -17.3847 C   0  0  1  0  0  0  0  0  0  0  0  0
   28.0827  -24.9352  -18.6136 O   0  0  0  0  0  0  0  0  0  0  0  0
   28.6307  -23.0208  -17.3972 C   0  0  2  0  0  0  0  0  0  0  0  0
   30.0330  -23.3790  -17.3259 N   0  0  0  0  0  0  0  0  0  0  0  0
   28.3024  -22.2162  -16.1732 C   0  0  0  0  0  0  0  0  0  0  0  0
   28.6356  -22.6127  -15.0271 O   0  0  0  0  0  0  0  0  0  0  0  0
   27.2002  -16.3664  -17.0410 N   0  0  0  0  0  0  0  0  0  0  0  0
   28.4867  -16.8800  -16.6279 C   0  0  0  0  0  0  0  0  0  0  0  0
   29.4614  -16.2354  -17.0155 O   0  0  0  0  0  0  0  0  0  0  0  0
   28.5448  -18.0716  -15.8174 C   0  0  0  0  0  0  0  0  0  0  0  0
   27.3035  -18.7129  -15.3457 C   0  0  0  0  0  0  0  0  0  0  0  0
   27.2778  -20.1582  -15.1083 C   0  0  2  0  0  0  0  0  0  0  0  0
   27.6133  -20.9889  -16.2310 N   0  0  0  0  0  0  0  0  0  0  0  0
   26.1532  -20.6942  -14.3444 C   0  0  0  0  0  0  0  0  0  0  0  0
   25.0892  -20.9451  -14.9663 O   0  0  0  0  0  0  0  0  0  0  0  0
   26.1842  -20.9562  -12.9485 N   0  0  0  0  0  0  0  0  0  0  0  0
   25.1017  -21.4590  -12.1577 C   0  0  1  0  0  0  0  0  0  0  0  0
   25.5223  -22.1055  -10.8856 C   0  0  0  0  0  0  0  0  0  0  0  0
   26.1340  -21.1586   -9.9243 C   0  0  0  0  0  0  0  0  0  0  0  0
   25.5660  -20.1777   -9.1361 C   0  0  0  0  0  0  0  0  0  0  0  0
   26.5346  -19.5734   -8.4286 N   0  0  0  0  0  0  0  0  0  0  0  0
   27.7375  -20.1083   -8.7079 C   0  0  0  0  0  0  0  0  0  0  0  0
   29.0351  -19.8715   -8.2766 C   0  0  0  0  0  0  0  0  0  0  0  0
   30.1057  -20.5974   -8.7510 C   0  0  0  0  0  0  0  0  0  0  0  0
   29.8731  -21.5871   -9.6821 C   0  0  0  0  0  0  0  0  0  0  0  0
   28.5706  -21.8258  -10.1158 C   0  0  0  0  0  0  0  0  0  0  0  0
   27.5040  -21.1019   -9.6425 C   0  0  0  0  0  0  0  0  0  0  0  0
   24.0689  -20.4212  -11.8869 C   0  0  0  0  0  0  0  0  0  0  0  0
   22.9522  -20.7812  -11.4646 O   0  0  0  0  0  0  0  0  0  0  0  0
   24.3132  -19.0810  -12.0887 O   0  0  0  0  0  0  0  0  0  0  0  0
  2  1  1  6
  3  2  1  0
  4  2  1  0
  4  5  1  1
  6  4  1  0
  6 14  1  0
  7  6  2  0
  8  9  1  0
  9 10  2  0
 11  9  1  0
 11 12  1  0
 13 12  1  6
 13 14  1  0
 15 13  1  0
 16 15  2  0
 17 15  1  0
 18 17  1  0
 18 29  1  0
 18 19  1  1
 20 28  1  0
 20 19  1  0
 21 20  2  0
 22 21  1  0
 22 23  1  0
 23 28  2  0
 24 23  1  0
 24 25  2  0
 25 26  1  0
 26 27  2  0
 28 27  1  0
 29 31  1  0
 30 29  2  0
M  END
$$$$
