TQW.pdb
     RDKit          3D

 31 32  0  0  1  0  0  0  0  0999 V2000
   23.8807  -16.1010  -18.2979 C   0  0  0  0  0  0  0  0  0  0  0  0
   23.8355  -16.9666  -17.0884 C   0  0  1  0  0  0  0  0  0  0  0  0
   24.4478  -16.2819  -16.0315 O   0  0  0  0  0  0  0  0  0  0  0  0
   22.4199  -17.2690  -16.6298 C   0  0  2  0  0  0  0  0  0  0  0  0
   21.8005  -16.0069  -16.2787 N   0  0  0  0  0  0  0  0  0  0  0  0
   22.4639  -18.1158  -15.3912 C   0  0  0  0  0  0  0  0  0  0  0  0
   22.4685  -17.5932  -14.2473 O   0  0  0  0  0  0  0  0  0  0  0  0
   22.5967  -24.2823  -15.1211 N   0  0  0  0  0  0  0  0  0  0  0  0
   22.3783  -23.9867  -13.7231 C   0  0  0  0  0  0  0  0  0  0  0  0
   22.5862  -24.9200  -12.9477 O   0  0  0  0  0  0  0  0  0  0  0  0
   21.9464  -22.6651  -13.3394 C   0  0  0  0  0  0  0  0  0  0  0  0
   21.7696  -21.6140  -14.3584 C   0  0  0  0  0  0  0  0  0  0  0  0
   22.5821  -20.3969  -14.2947 C   0  0  2  0  0  0  0  0  0  0  0  0
   22.5020  -19.5234  -15.4322 N   0  0  0  0  0  0  0  0  0  0  0  0
   23.9498  -20.5267  -13.7965 C   0  0  0  0  0  0  0  0  0  0  0  0
   24.8595  -20.7543  -14.6348 O   0  0  0  0  0  0  0  0  0  0  0  0
   24.3205  -20.4069  -12.4303 N   0  0  0  0  0  0  0  0  0  0  0  0
   25.6366  -20.5769  -11.8926 C   0  0  1  0  0  0  0  0  0  0  0  0
   25.7826  -20.1312  -10.4809 C   0  0  0  0  0  0  0  0  0  0  0  0
   27.1442  -20.3478   -9.9385 C   0  0  0  0  0  0  0  0  0  0  0  0
   28.2914  -20.8253  -10.5401 C   0  0  0  0  0  0  0  0  0  0  0  0
   29.2820  -20.8449   -9.6333 N   0  0  0  0  0  0  0  0  0  0  0  0
   28.8487  -20.3987   -8.4399 C   0  0  0  0  0  0  0  0  0  0  0  0
   29.4341  -20.2157   -7.1950 C   0  0  0  0  0  0  0  0  0  0  0  0
   28.7246  -19.7274   -6.1197 C   0  0  0  0  0  0  0  0  0  0  0  0
   27.3935  -19.4135   -6.2932 C   0  0  0  0  0  0  0  0  0  0  0  0
   26.8047  -19.5968   -7.5427 C   0  0  0  0  0  0  0  0  0  0  0  0
   27.5125  -20.0836   -8.6141 C   0  0  0  0  0  0  0  0  0  0  0  0
   26.1332  -21.9726  -12.0424 C   0  0  0  0  0  0  0  0  0  0  0  0
   25.3094  -22.9085  -12.0211 O   0  0  0  0  0  0  0  0  0  0  0  0
   27.4712  -22.2559  -12.2037 O   0  0  0  0  0  0  0  0  0  0  0  0
  2  1  1  6
  3  2  1  0
  4  2  1  0
  4  5  1  1
  6  4  1  0
  6 14  1  0
  7  6  2  0
  8  9  1  0
  9 10  2  0
 11  9  1  0
 11 12  1  0
 13 12  1  6
 13 14  1  0
 15 13  1  0
 16 15  2  0
 17 15  1  0
 18 17  1  0
 18 29  1  0
 18 19  1  1
 20 28  1  0
 20 19  1  0
 21 20  2  0
 22 21  1  0
 22 23  1  0
 23 28  2  0
 24 23  1  0
 24 25  2  0
 25 26  1  0
 26 27  2  0
 28 27  1  0
 29 31  1  0
 30 29  2  0
M  END
$$$$
