TQW.pdb
     RDKit          3D

 31 32  0  0  1  0  0  0  0  0999 V2000
   30.9243  -19.6392  -18.2246 C   0  0  0  0  0  0  0  0  0  0  0  0
   29.4695  -19.6134  -18.5362 C   0  0  1  0  0  0  0  0  0  0  0  0
   29.3031  -19.9068  -19.8953 O   0  0  0  0  0  0  0  0  0  0  0  0
   28.6832  -20.6687  -17.7786 C   0  0  2  0  0  0  0  0  0  0  0  0
   27.3446  -20.6908  -18.3329 N   0  0  0  0  0  0  0  0  0  0  0  0
   28.5728  -20.2720  -16.3351 C   0  0  0  0  0  0  0  0  0  0  0  0
   29.5522  -20.3848  -15.5541 O   0  0  0  0  0  0  0  0  0  0  0  0
   26.4913  -15.0734  -14.8135 N   0  0  0  0  0  0  0  0  0  0  0  0
   25.3716  -15.9797  -14.9327 C   0  0  0  0  0  0  0  0  0  0  0  0
   24.2994  -15.4567  -15.2364 O   0  0  0  0  0  0  0  0  0  0  0  0
   25.5743  -17.3881  -14.6967 C   0  0  0  0  0  0  0  0  0  0  0  0
   26.8891  -17.8877  -14.2540 C   0  0  0  0  0  0  0  0  0  0  0  0
   27.2220  -19.3042  -14.4225 C   0  0  2  0  0  0  0  0  0  0  0  0
   27.3867  -19.7579  -15.7754 N   0  0  0  0  0  0  0  0  0  0  0  0
   26.4901  -20.2689  -13.6044 C   0  0  0  0  0  0  0  0  0  0  0  0
   25.4764  -20.8156  -14.1097 O   0  0  0  0  0  0  0  0  0  0  0  0
   26.8510  -20.6343  -12.2799 N   0  0  0  0  0  0  0  0  0  0  0  0
   26.1256  -21.5187  -11.4186 C   0  0  1  0  0  0  0  0  0  0  0  0
   26.8585  -21.9075  -10.1839 C   0  0  0  0  0  0  0  0  0  0  0  0
   26.9435  -20.8148   -9.1871 C   0  0  0  0  0  0  0  0  0  0  0  0
   26.2063  -19.6553   -9.0521 C   0  0  0  0  0  0  0  0  0  0  0  0
   26.6611  -18.9723   -7.9887 N   0  0  0  0  0  0  0  0  0  0  0  0
   27.6787  -19.6259   -7.3983 C   0  0  0  0  0  0  0  0  0  0  0  0
   28.4900  -19.3801   -6.2996 C   0  0  0  0  0  0  0  0  0  0  0  0
   29.4841  -20.2538   -5.9166 C   0  0  0  0  0  0  0  0  0  0  0  0
   29.6725  -21.4046   -6.6519 C   0  0  0  0  0  0  0  0  0  0  0  0
   28.8585  -21.6523   -7.7553 C   0  0  0  0  0  0  0  0  0  0  0  0
   27.8678  -20.7810   -8.1364 C   0  0  0  0  0  0  0  0  0  0  0  0
   24.7787  -20.9892  -11.0687 C   0  0  0  0  0  0  0  0  0  0  0  0
   24.5861  -19.7582  -11.1178 O   0  0  0  0  0  0  0  0  0  0  0  0
   23.7449  -21.8188  -10.6948 O   0  0  0  0  0  0  0  0  0  0  0  0
  2  1  1  1
  3  2  1  0
  4  2  1  0
  4  5  1  6
  6  4  1  0
  6 14  1  0
  7  6  2  0
  8  9  1  0
  9 10  2  0
 11  9  1  0
 11 12  1  0
 13 12  1  6
 13 14  1  0
 15 13  1  0
 16 15  2  0
 17 15  1  0
 18 17  1  0
 18 29  1  0
 18 19  1  1
 20 28  1  0
 20 19  1  0
 21 20  2  0
 22 21  1  0
 22 23  1  0
 23 28  2  0
 24 23  1  0
 24 25  2  0
 25 26  1  0
 26 27  2  0
 28 27  1  0
 29 31  1  0
 30 29  2  0
M  END
$$$$
