TQW.pdb
     RDKit          3D

 31 32  0  0  1  0  0  0  0  0999 V2000
   30.4492  -22.1349  -19.0512 C   0  0  0  0  0  0  0  0  0  0  0  0
   29.2304  -21.4891  -18.4930 C   0  0  1  0  0  0  0  0  0  0  0  0
   28.1151  -22.2449  -18.8751 O   0  0  0  0  0  0  0  0  0  0  0  0
   29.2187  -21.4597  -16.9749 C   0  0  2  0  0  0  0  0  0  0  0  0
   29.1389  -22.8321  -16.5168 N   0  0  0  0  0  0  0  0  0  0  0  0
   27.9876  -20.7466  -16.4964 C   0  0  0  0  0  0  0  0  0  0  0  0
   27.7562  -19.5560  -16.8293 O   0  0  0  0  0  0  0  0  0  0  0  0
   22.4797  -19.2972  -17.5215 N   0  0  0  0  0  0  0  0  0  0  0  0
   23.3601  -18.3395  -16.8915 C   0  0  0  0  0  0  0  0  0  0  0  0
   22.9635  -17.1741  -16.8982 O   0  0  0  0  0  0  0  0  0  0  0  0
   24.6023  -18.7935  -16.3161 C   0  0  0  0  0  0  0  0  0  0  0  0
   24.9474  -20.2271  -16.3249 C   0  0  0  0  0  0  0  0  0  0  0  0
   25.7798  -20.7802  -15.2539 C   0  0  2  0  0  0  0  0  0  0  0  0
   27.0317  -21.3556  -15.6599 N   0  0  0  0  0  0  0  0  0  0  0  0
   25.1129  -21.5814  -14.2297 C   0  0  0  0  0  0  0  0  0  0  0  0
   25.3648  -22.8132  -14.1934 O   0  0  0  0  0  0  0  0  0  0  0  0
   24.2047  -21.0607  -13.2694 N   0  0  0  0  0  0  0  0  0  0  0  0
   24.3464  -21.1295  -11.8463 C   0  0  1  0  0  0  0  0  0  0  0  0
   25.7001  -20.7659  -11.3482 C   0  0  0  0  0  0  0  0  0  0  0  0
   25.7477  -20.5650   -9.8811 C   0  0  0  0  0  0  0  0  0  0  0  0
   24.7338  -20.4156   -8.9560 C   0  0  0  0  0  0  0  0  0  0  0  0
   25.2768  -20.2554   -7.7380 N   0  0  0  0  0  0  0  0  0  0  0  0
   26.6205  -20.2908   -7.8035 C   0  0  0  0  0  0  0  0  0  0  0  0
   27.6463  -20.1801   -6.8753 C   0  0  0  0  0  0  0  0  0  0  0  0
   28.9724  -20.2567   -7.2408 C   0  0  0  0  0  0  0  0  0  0  0  0
   29.2819  -20.4490   -8.5703 C   0  0  0  0  0  0  0  0  0  0  0  0
   28.2528  -20.5602   -9.5031 C   0  0  0  0  0  0  0  0  0  0  0  0
   26.9312  -20.4838   -9.1381 C   0  0  0  0  0  0  0  0  0  0  0  0
   23.3087  -20.3330  -11.1351 C   0  0  0  0  0  0  0  0  0  0  0  0
   23.1607  -19.1326  -11.4384 O   0  0  0  0  0  0  0  0  0  0  0  0
   22.5115  -20.8843  -10.1567 O   0  0  0  0  0  0  0  0  0  0  0  0
  2  1  1  1
  3  2  1  0
  4  2  1  0
  4  5  1  1
  6  4  1  0
  6 14  1  0
  7  6  2  0
  8  9  1  0
  9 10  2  0
 11  9  1  0
 11 12  1  0
 13 12  1  6
 13 14  1  0
 15 13  1  0
 16 15  2  0
 17 15  1  0
 18 17  1  0
 18 29  1  0
 18 19  1  6
 20 28  1  0
 20 19  1  0
 21 20  2  0
 22 21  1  0
 22 23  1  0
 23 28  2  0
 24 23  1  0
 24 25  2  0
 25 26  1  0
 26 27  2  0
 28 27  1  0
 29 31  1  0
 30 29  2  0
M  END
$$$$
