TQW.pdb
     RDKit          3D

 31 32  0  0  1  0  0  0  0  0999 V2000
   30.0673  -19.8705  -17.6800 C   0  0  0  0  0  0  0  0  0  0  0  0
   29.4401  -19.6068  -16.3567 C   0  0  1  0  0  0  0  0  0  0  0  0
   30.2821  -18.7563  -15.6298 O   0  0  0  0  0  0  0  0  0  0  0  0
   28.1077  -18.8868  -16.4663 C   0  0  2  0  0  0  0  0  0  0  0  0
   28.3538  -17.6210  -17.1274 N   0  0  0  0  0  0  0  0  0  0  0  0
   27.5836  -18.5892  -15.0915 C   0  0  0  0  0  0  0  0  0  0  0  0
   27.7020  -17.4439  -14.5855 O   0  0  0  0  0  0  0  0  0  0  0  0
   22.1070  -19.3155  -13.6918 N   0  0  0  0  0  0  0  0  0  0  0  0
   22.9393  -18.7676  -14.7390 C   0  0  0  0  0  0  0  0  0  0  0  0
   22.3761  -18.5821  -15.8179 O   0  0  0  0  0  0  0  0  0  0  0  0
   24.3262  -18.4834  -14.4634 C   0  0  0  0  0  0  0  0  0  0  0  0
   24.9021  -18.7945  -13.1420 C   0  0  0  0  0  0  0  0  0  0  0  0
   26.2694  -19.3118  -13.0494 C   0  0  2  0  0  0  0  0  0  0  0  0
   26.9380  -19.5568  -14.2969 N   0  0  0  0  0  0  0  0  0  0  0  0
   26.5239  -20.3685  -12.0725 C   0  0  0  0  0  0  0  0  0  0  0  0
   27.1388  -21.3931  -12.4648 O   0  0  0  0  0  0  0  0  0  0  0  0
   26.1286  -20.3123  -10.7092 N   0  0  0  0  0  0  0  0  0  0  0  0
   26.3081  -21.3442   -9.7329 C   0  0  1  0  0  0  0  0  0  0  0  0
   27.6059  -21.2816   -9.0085 C   0  0  0  0  0  0  0  0  0  0  0  0
   27.6512  -20.2127   -7.9837 C   0  0  0  0  0  0  0  0  0  0  0  0
   26.9303  -19.0411   -7.8673 C   0  0  0  0  0  0  0  0  0  0  0  0
   27.3324  -18.3910   -6.7628 N   0  0  0  0  0  0  0  0  0  0  0  0
   28.2988  -19.0785   -6.1268 C   0  0  0  0  0  0  0  0  0  0  0  0
   29.0459  -18.8738   -4.9754 C   0  0  0  0  0  0  0  0  0  0  0  0
   29.9972  -19.7764   -4.5527 C   0  0  0  0  0  0  0  0  0  0  0  0
   30.2076  -20.9147   -5.3013 C   0  0  0  0  0  0  0  0  0  0  0  0
   29.4579  -21.1213   -6.4576 C   0  0  0  0  0  0  0  0  0  0  0  0
   28.5099  -20.2212   -6.8782 C   0  0  0  0  0  0  0  0  0  0  0  0
   25.1821  -21.4056   -8.7607 C   0  0  0  0  0  0  0  0  0  0  0  0
   24.3075  -20.5174   -8.7980 O   0  0  0  0  0  0  0  0  0  0  0  0
   25.0808  -22.4124   -7.8265 O   0  0  0  0  0  0  0  0  0  0  0  0
  2  1  1  6
  3  2  1  0
  4  2  1  0
  4  5  1  6
  6  4  1  0
  6 14  1  0
  7  6  2  0
  8  9  1  0
  9 10  2  0
 11  9  1  0
 11 12  1  0
 13 12  1  6
 13 14  1  0
 15 13  1  0
 16 15  2  0
 17 15  1  0
 18 17  1  0
 18 29  1  0
 18 19  1  1
 20 28  1  0
 20 19  1  0
 21 20  2  0
 22 21  1  0
 22 23  1  0
 23 28  2  0
 24 23  1  0
 24 25  2  0
 25 26  1  0
 26 27  2  0
 28 27  1  0
 29 31  1  0
 30 29  2  0
M  END
$$$$
