TQW.pdb
     RDKit          3D

 31 32  0  0  1  0  0  0  0  0999 V2000
   22.8453  -17.5275  -16.6386 C   0  0  0  0  0  0  0  0  0  0  0  0
   23.8428  -18.5981  -16.3684 C   0  0  1  0  0  0  0  0  0  0  0  0
   25.1250  -18.0478  -16.4866 O   0  0  0  0  0  0  0  0  0  0  0  0
   23.7505  -19.1504  -14.9570 C   0  0  2  0  0  0  0  0  0  0  0  0
   24.0867  -18.0727  -14.0485 N   0  0  0  0  0  0  0  0  0  0  0  0
   24.7713  -20.2357  -14.7751 C   0  0  0  0  0  0  0  0  0  0  0  0
   24.6633  -21.3357  -15.3752 O   0  0  0  0  0  0  0  0  0  0  0  0
   29.1997  -21.4049  -16.8932 N   0  0  0  0  0  0  0  0  0  0  0  0
   29.0170  -20.0712  -16.3667 C   0  0  0  0  0  0  0  0  0  0  0  0
   29.3280  -19.1558  -17.1289 O   0  0  0  0  0  0  0  0  0  0  0  0
   28.5009  -19.9035  -15.0304 C   0  0  0  0  0  0  0  0  0  0  0  0
   28.1307  -21.0798  -14.2218 C   0  0  0  0  0  0  0  0  0  0  0  0
   26.8159  -21.1339  -13.5783 C   0  0  2  0  0  0  0  0  0  0  0  0
   25.8939  -20.0923  -13.9362 N   0  0  0  0  0  0  0  0  0  0  0  0
   26.7789  -21.4334  -12.1484 C   0  0  0  0  0  0  0  0  0  0  0  0
   27.6138  -22.2612  -11.7015 O   0  0  0  0  0  0  0  0  0  0  0  0
   25.8676  -20.8474  -11.2296 N   0  0  0  0  0  0  0  0  0  0  0  0
   25.8331  -21.0673   -9.8152 C   0  0  1  0  0  0  0  0  0  0  0  0
   27.1239  -20.8049   -9.1239 C   0  0  0  0  0  0  0  0  0  0  0  0
   26.9554  -20.3806   -7.7145 C   0  0  0  0  0  0  0  0  0  0  0  0
   25.8173  -20.2121   -6.9513 C   0  0  0  0  0  0  0  0  0  0  0  0
   26.1747  -19.8077   -5.7213 N   0  0  0  0  0  0  0  0  0  0  0  0
   27.5122  -19.6960   -5.6228 C   0  0  0  0  0  0  0  0  0  0  0  0
   28.3892  -19.3280   -4.6122 C   0  0  0  0  0  0  0  0  0  0  0  0
   29.7535  -19.3042   -4.8029 C   0  0  0  0  0  0  0  0  0  0  0  0
   30.2550  -19.6578   -6.0373 C   0  0  0  0  0  0  0  0  0  0  0  0
   29.3753  -20.0275   -7.0527 C   0  0  0  0  0  0  0  0  0  0  0  0
   28.0156  -20.0511   -6.8619 C   0  0  0  0  0  0  0  0  0  0  0  0
   24.7347  -20.3121   -9.1517 C   0  0  0  0  0  0  0  0  0  0  0  0
   24.4676  -19.1627   -9.5548 O   0  0  0  0  0  0  0  0  0  0  0  0
   24.0092  -20.8467   -8.1104 O   0  0  0  0  0  0  0  0  0  0  0  0
  2  1  1  1
  3  2  1  0
  4  2  1  0
  4  5  1  1
  6  4  1  0
  6 14  1  0
  7  6  2  0
  8  9  1  0
  9 10  2  0
 11  9  1  0
 11 12  1  0
 13 12  1  1
 13 14  1  0
 15 13  1  0
 16 15  2  0
 17 15  1  0
 18 17  1  0
 18 29  1  0
 18 19  1  1
 20 28  1  0
 20 19  1  0
 21 20  2  0
 22 21  1  0
 22 23  1  0
 23 28  2  0
 24 23  1  0
 24 25  2  0
 25 26  1  0
 26 27  2  0
 28 27  1  0
 29 31  1  0
 30 29  2  0
M  END
$$$$
