TQW.pdb
     RDKit          3D

 31 32  0  0  1  0  0  0  0  0999 V2000
   28.0314  -22.5218  -15.6425 C   0  0  0  0  0  0  0  0  0  0  0  0
   28.7705  -21.3093  -16.0871 C   0  0  1  0  0  0  0  0  0  0  0  0
   29.3237  -21.5660  -17.3476 O   0  0  0  0  0  0  0  0  0  0  0  0
   27.8710  -20.0984  -16.2610 C   0  0  2  0  0  0  0  0  0  0  0  0
   28.6957  -19.0153  -16.7575 N   0  0  0  0  0  0  0  0  0  0  0  0
   27.3264  -19.6821  -14.9257 C   0  0  0  0  0  0  0  0  0  0  0  0
   28.0643  -19.1386  -14.0644 O   0  0  0  0  0  0  0  0  0  0  0  0
   21.8517  -22.1085  -12.9954 N   0  0  0  0  0  0  0  0  0  0  0  0
   21.9726  -20.6683  -13.0186 C   0  0  0  0  0  0  0  0  0  0  0  0
   21.1786  -20.0605  -12.3003 O   0  0  0  0  0  0  0  0  0  0  0  0
   22.9790  -20.0569  -13.8514 C   0  0  0  0  0  0  0  0  0  0  0  0
   24.0071  -19.1826  -13.2572 C   0  0  0  0  0  0  0  0  0  0  0  0
   25.4110  -19.6008  -13.2691 C   0  0  2  0  0  0  0  0  0  0  0  0
   25.9789  -19.8706  -14.5606 N   0  0  0  0  0  0  0  0  0  0  0  0
   25.8292  -20.5808  -12.2690 C   0  0  0  0  0  0  0  0  0  0  0  0
   25.7996  -21.7962  -12.5917 O   0  0  0  0  0  0  0  0  0  0  0  0
   26.2723  -20.2518  -10.9600 N   0  0  0  0  0  0  0  0  0  0  0  0
   26.4097  -21.1584   -9.8603 C   0  0  1  0  0  0  0  0  0  0  0  0
   27.7043  -21.0491   -9.1357 C   0  0  0  0  0  0  0  0  0  0  0  0
   27.6849  -20.0348   -8.0561 C   0  0  0  0  0  0  0  0  0  0  0  0
   26.9082  -18.9055   -7.8908 C   0  0  0  0  0  0  0  0  0  0  0  0
   27.2639  -18.2967   -6.7475 N   0  0  0  0  0  0  0  0  0  0  0  0
   28.2524  -18.9715   -6.1322 C   0  0  0  0  0  0  0  0  0  0  0  0
   28.9728  -18.7936   -4.9595 C   0  0  0  0  0  0  0  0  0  0  0  0
   29.9593  -19.6724   -4.5688 C   0  0  0  0  0  0  0  0  0  0  0  0
   30.2334  -20.7587   -5.3720 C   0  0  0  0  0  0  0  0  0  0  0  0
   29.5106  -20.9384   -6.5497 C   0  0  0  0  0  0  0  0  0  0  0  0
   28.5274  -20.0620   -6.9385 C   0  0  0  0  0  0  0  0  0  0  0  0
   25.2761  -21.0592   -8.9000 C   0  0  0  0  0  0  0  0  0  0  0  0
   24.4646  -20.1205   -9.0241 O   0  0  0  0  0  0  0  0  0  0  0  0
   25.1004  -21.9723   -7.8842 O   0  0  0  0  0  0  0  0  0  0  0  0
  2  1  1  6
  3  2  1  0
  4  2  1  0
  4  5  1  1
  6  4  1  0
  6 14  1  0
  7  6  2  0
  8  9  1  0
  9 10  2  0
 11  9  1  0
 11 12  1  0
 13 12  1  6
 13 14  1  0
 15 13  1  0
 16 15  2  0
 17 15  1  0
 18 17  1  0
 18 29  1  0
 18 19  1  1
 20 28  1  0
 20 19  1  0
 21 20  2  0
 22 21  1  0
 22 23  1  0
 23 28  2  0
 24 23  1  0
 24 25  2  0
 25 26  1  0
 26 27  2  0
 28 27  1  0
 29 31  1  0
 30 29  2  0
M  END
$$$$
