TQW.pdb
     RDKit          3D

 31 32  0  0  1  0  0  0  0  0999 V2000
   23.9018  -11.7904  -14.8875 C   0  0  0  0  0  0  0  0  0  0  0  0
   24.2622  -12.2737  -16.2479 C   0  0  1  0  0  0  0  0  0  0  0  0
   25.1532  -13.3457  -16.1148 O   0  0  0  0  0  0  0  0  0  0  0  0
   23.0702  -12.8108  -17.0202 C   0  0  2  0  0  0  0  0  0  0  0  0
   23.5489  -13.2165  -18.3264 N   0  0  0  0  0  0  0  0  0  0  0  0
   22.0674  -11.7124  -17.2227 C   0  0  0  0  0  0  0  0  0  0  0  0
   22.2686  -10.7958  -18.0600 O   0  0  0  0  0  0  0  0  0  0  0  0
   15.6915  -11.7111  -16.5747 N   0  0  0  0  0  0  0  0  0  0  0  0
   16.0497  -10.3115  -16.6197 C   0  0  0  0  0  0  0  0  0  0  0  0
   15.1045   -9.5274  -16.7073 O   0  0  0  0  0  0  0  0  0  0  0  0
   17.4410   -9.9359  -16.5614 C   0  0  0  0  0  0  0  0  0  0  0  0
   18.4919  -10.9702  -16.5492 C   0  0  0  0  0  0  0  0  0  0  0  0
   19.9018  -10.5730  -16.5657 C   0  0  2  0  0  0  0  0  0  0  0  0
   20.8599  -11.6412  -16.5005 N   0  0  0  0  0  0  0  0  0  0  0  0
   20.2896   -9.4352  -15.7346 C   0  0  0  0  0  0  0  0  0  0  0  0
   20.6588   -9.6700  -14.5554 O   0  0  0  0  0  0  0  0  0  0  0  0
   20.2832   -8.0836  -16.1719 N   0  0  0  0  0  0  0  0  0  0  0  0
   20.6482   -6.9400  -15.3914 C   0  0  1  0  0  0  0  0  0  0  0  0
   21.5294   -5.9727  -16.0990 C   0  0  0  0  0  0  0  0  0  0  0  0
   22.8984   -6.4903  -16.3284 C   0  0  0  0  0  0  0  0  0  0  0  0
   23.3483   -7.7668  -16.6006 C   0  0  0  0  0  0  0  0  0  0  0  0
   24.6853   -7.7392  -16.7254 N   0  0  0  0  0  0  0  0  0  0  0  0
   25.1580   -6.4918  -16.5479 C   0  0  0  0  0  0  0  0  0  0  0  0
   26.4197   -5.9142  -16.5664 C   0  0  0  0  0  0  0  0  0  0  0  0
   26.6092   -4.5679  -16.3432 C   0  0  0  0  0  0  0  0  0  0  0  0
   25.5076   -3.7773  -16.0947 C   0  0  0  0  0  0  0  0  0  0  0  0
   24.2403   -4.3562  -16.0759 C   0  0  0  0  0  0  0  0  0  0  0  0
   24.0522   -5.6981  -16.2985 C   0  0  0  0  0  0  0  0  0  0  0  0
   19.4622   -6.2359  -14.8304 C   0  0  0  0  0  0  0  0  0  0  0  0
   18.3239   -6.6003  -15.1859 O   0  0  0  0  0  0  0  0  0  0  0  0
   19.5884   -5.1988  -13.9332 O   0  0  0  0  0  0  0  0  0  0  0  0
  2  1  1  1
  3  2  1  0
  4  2  1  0
  4  5  1  6
  6  4  1  0
  6 14  1  0
  7  6  2  0
  8  9  1  0
  9 10  2  0
 11  9  1  0
 11 12  1  0
 13 12  1  1
 13 14  1  0
 15 13  1  0
 16 15  2  0
 17 15  1  0
 18 17  1  0
 18 29  1  0
 18 19  1  6
 20 28  1  0
 20 19  1  0
 21 20  2  0
 22 21  1  0
 22 23  1  0
 23 28  2  0
 24 23  1  0
 24 25  2  0
 25 26  1  0
 26 27  2  0
 28 27  1  0
 29 31  1  0
 30 29  2  0
M  END
$$$$
