TQW.pdb
     RDKit          3D

 31 32  0  0  1  0  0  0  0  0999 V2000
   27.2175  -15.6523  -17.7000 C   0  0  0  0  0  0  0  0  0  0  0  0
   27.3420  -15.9340  -19.1558 C   0  0  1  0  0  0  0  0  0  0  0  0
   27.9312  -14.8233  -19.7723 O   0  0  0  0  0  0  0  0  0  0  0  0
   28.2513  -17.1128  -19.4547 C   0  0  2  0  0  0  0  0  0  0  0  0
   28.3413  -17.2343  -20.8959 N   0  0  0  0  0  0  0  0  0  0  0  0
   27.6284  -18.3730  -18.9286 C   0  0  0  0  0  0  0  0  0  0  0  0
   26.5379  -18.7991  -19.3880 O   0  0  0  0  0  0  0  0  0  0  0  0
   28.3943  -23.9582  -17.6828 N   0  0  0  0  0  0  0  0  0  0  0  0
   27.8357  -23.6983  -16.3752 C   0  0  0  0  0  0  0  0  0  0  0  0
   27.3919  -24.6838  -15.7856 O   0  0  0  0  0  0  0  0  0  0  0  0
   27.8339  -22.3501  -15.8628 C   0  0  0  0  0  0  0  0  0  0  0  0
   28.4213  -21.2522  -16.6527 C   0  0  0  0  0  0  0  0  0  0  0  0
   27.5628  -20.1729  -17.1465 C   0  0  2  0  0  0  0  0  0  0  0  0
   28.2159  -19.1432  -17.9058 N   0  0  0  0  0  0  0  0  0  0  0  0
   26.5687  -19.6288  -16.2238 C   0  0  0  0  0  0  0  0  0  0  0  0
   26.9121  -18.6621  -15.4961 O   0  0  0  0  0  0  0  0  0  0  0  0
   25.2397  -20.1149  -16.0987 N   0  0  0  0  0  0  0  0  0  0  0  0
   24.2252  -19.5919  -15.2342 C   0  0  1  0  0  0  0  0  0  0  0  0
   23.8931  -18.1622  -15.4760 C   0  0  0  0  0  0  0  0  0  0  0  0
   22.7731  -17.9761  -16.4277 C   0  0  0  0  0  0  0  0  0  0  0  0
   21.4350  -18.2997  -16.3232 C   0  0  0  0  0  0  0  0  0  0  0  0
   20.8102  -17.9365  -17.4553 N   0  0  0  0  0  0  0  0  0  0  0  0
   21.6749  -17.3790  -18.3228 C   0  0  0  0  0  0  0  0  0  0  0  0
   21.5693  -16.8454  -19.5995 C   0  0  0  0  0  0  0  0  0  0  0  0
   22.6584  -16.3290  -20.2669 C   0  0  0  0  0  0  0  0  0  0  0  0
   23.8867  -16.3464  -19.6412 C   0  0  0  0  0  0  0  0  0  0  0  0
   23.9938  -16.8818  -18.3593 C   0  0  0  0  0  0  0  0  0  0  0  0
   22.9079  -17.3964  -17.6947 C   0  0  0  0  0  0  0  0  0  0  0  0
   22.9850  -20.4156  -15.2541 C   0  0  0  0  0  0  0  0  0  0  0  0
   22.8272  -21.2412  -16.1753 O   0  0  0  0  0  0  0  0  0  0  0  0
   22.0128  -20.2911  -14.2868 O   0  0  0  0  0  0  0  0  0  0  0  0
  2  1  1  1
  3  2  1  0
  4  2  1  0
  4  5  1  6
  6  4  1  0
  6 14  1  0
  7  6  2  0
  8  9  1  0
  9 10  2  0
 11  9  1  0
 11 12  1  0
 13 12  1  1
 13 14  1  0
 15 13  1  0
 16 15  2  0
 17 15  1  0
 18 17  1  0
 18 29  1  0
 18 19  1  6
 20 28  1  0
 20 19  1  0
 21 20  2  0
 22 21  1  0
 22 23  1  0
 23 28  2  0
 24 23  1  0
 24 25  2  0
 25 26  1  0
 26 27  2  0
 28 27  1  0
 29 31  1  0
 30 29  2  0
M  END
$$$$
