TQW.pdb
     RDKit          3D

 31 32  0  0  1  0  0  0  0  0999 V2000
   20.2314   -8.7495  -23.1399 C   0  0  0  0  0  0  0  0  0  0  0  0
   20.6435  -10.1747  -23.2546 C   0  0  1  0  0  0  0  0  0  0  0  0
   19.8669  -10.7809  -24.2498 O   0  0  0  0  0  0  0  0  0  0  0  0
   22.0888  -10.3396  -23.6900 C   0  0  2  0  0  0  0  0  0  0  0  0
   22.3690  -11.7609  -23.7284 N   0  0  0  0  0  0  0  0  0  0  0  0
   22.9952   -9.7234  -22.6644 C   0  0  0  0  0  0  0  0  0  0  0  0
   23.4792  -10.4109  -21.7290 O   0  0  0  0  0  0  0  0  0  0  0  0
   26.7817   -5.5272  -24.3442 N   0  0  0  0  0  0  0  0  0  0  0  0
   25.5036   -4.9449  -24.0025 C   0  0  0  0  0  0  0  0  0  0  0  0
   25.1733   -3.9666  -24.6730 O   0  0  0  0  0  0  0  0  0  0  0  0
   24.7247   -5.5258  -22.9366 C   0  0  0  0  0  0  0  0  0  0  0  0
   25.1778   -6.7610  -22.2707 C   0  0  0  0  0  0  0  0  0  0  0  0
   24.1907   -7.6963  -21.7260 C   0  0  2  0  0  0  0  0  0  0  0  0
   23.3538   -8.3613  -22.6854 N   0  0  0  0  0  0  0  0  0  0  0  0
   23.4426   -7.2718  -20.5446 C   0  0  0  0  0  0  0  0  0  0  0  0
   22.2532   -6.8966  -20.7079 O   0  0  0  0  0  0  0  0  0  0  0  0
   23.9671   -7.2607  -19.2244 N   0  0  0  0  0  0  0  0  0  0  0  0
   23.2903   -6.8022  -18.0488 C   0  0  1  0  0  0  0  0  0  0  0  0
   24.1399   -6.7681  -16.8282 C   0  0  0  0  0  0  0  0  0  0  0  0
   23.3972   -6.3648  -15.6114 C   0  0  0  0  0  0  0  0  0  0  0  0
   22.8456   -7.1214  -14.5968 C   0  0  0  0  0  0  0  0  0  0  0  0
   22.2650   -6.2991  -13.7076 N   0  0  0  0  0  0  0  0  0  0  0  0
   22.4027   -5.0138  -14.0818 C   0  0  0  0  0  0  0  0  0  0  0  0
   22.0074   -3.7945  -13.5498 C   0  0  0  0  0  0  0  0  0  0  0  0
   22.2967   -2.5992  -14.1709 C   0  0  0  0  0  0  0  0  0  0  0  0
   23.0003   -2.6231  -15.3561 C   0  0  0  0  0  0  0  0  0  0  0  0
   23.3978   -3.8468  -15.8911 C   0  0  0  0  0  0  0  0  0  0  0  0
   23.1091   -5.0378  -15.2715 C   0  0  0  0  0  0  0  0  0  0  0  0
   22.6341   -5.4813  -18.2525 C   0  0  0  0  0  0  0  0  0  0  0  0
   23.2756   -4.5728  -18.8165 O   0  0  0  0  0  0  0  0  0  0  0  0
   21.3439   -5.2376  -17.8373 O   0  0  0  0  0  0  0  0  0  0  0  0
  2  1  1  6
  3  2  1  0
  4  2  1  0
  4  5  1  1
  6  4  1  0
  6 14  1  0
  7  6  2  0
  8  9  1  0
  9 10  2  0
 11  9  1  0
 11 12  1  0
 13 12  1  6
 13 14  1  0
 15 13  1  0
 16 15  2  0
 17 15  1  0
 18 17  1  0
 18 29  1  0
 18 19  1  1
 20 28  1  0
 20 19  1  0
 21 20  2  0
 22 21  1  0
 22 23  1  0
 23 28  2  0
 24 23  1  0
 24 25  2  0
 25 26  1  0
 26 27  2  0
 28 27  1  0
 29 31  1  0
 30 29  2  0
M  END
$$$$
