TQW.pdb
     RDKit          3D

 31 32  0  0  1  0  0  0  0  0999 V2000
   26.1413  -15.7503  -15.9591 C   0  0  0  0  0  0  0  0  0  0  0  0
   25.9882  -16.8420  -14.9596 C   0  0  1  0  0  0  0  0  0  0  0  0
   25.3454  -16.3204  -13.8301 O   0  0  0  0  0  0  0  0  0  0  0  0
   25.1121  -17.9790  -15.4548 C   0  0  2  0  0  0  0  0  0  0  0  0
   23.8221  -17.4136  -15.7955 N   0  0  0  0  0  0  0  0  0  0  0  0
   24.8984  -18.9675  -14.3455 C   0  0  0  0  0  0  0  0  0  0  0  0
   23.8884  -18.8977  -13.5994 O   0  0  0  0  0  0  0  0  0  0  0  0
   23.9130  -24.5154  -12.8426 N   0  0  0  0  0  0  0  0  0  0  0  0
   23.9581  -23.9477  -14.1711 C   0  0  0  0  0  0  0  0  0  0  0  0
   23.1381  -24.4040  -14.9680 O   0  0  0  0  0  0  0  0  0  0  0  0
   24.9257  -22.9202  -14.4680 C   0  0  0  0  0  0  0  0  0  0  0  0
   25.7936  -22.3841  -13.4032 C   0  0  0  0  0  0  0  0  0  0  0  0
   25.6808  -20.9763  -13.0144 C   0  0  2  0  0  0  0  0  0  0  0  0
   25.7996  -20.0162  -14.0761 N   0  0  0  0  0  0  0  0  0  0  0  0
   26.3894  -20.5529  -11.8085 C   0  0  0  0  0  0  0  0  0  0  0  0
   27.2204  -19.6150  -11.9162 O   0  0  0  0  0  0  0  0  0  0  0  0
   26.1974  -21.1257  -10.5227 N   0  0  0  0  0  0  0  0  0  0  0  0
   26.8654  -20.7404   -9.3163 C   0  0  1  0  0  0  0  0  0  0  0  0
   26.5657  -19.3542   -8.8673 C   0  0  0  0  0  0  0  0  0  0  0  0
   27.4684  -18.8811   -7.7920 C   0  0  0  0  0  0  0  0  0  0  0  0
   28.5645  -18.0430   -7.8357 C   0  0  0  0  0  0  0  0  0  0  0  0
   29.0628  -17.9138   -6.5951 N   0  0  0  0  0  0  0  0  0  0  0  0
   28.3451  -18.6332   -5.7127 C   0  0  0  0  0  0  0  0  0  0  0  0
   28.4172  -18.8526   -4.3443 C   0  0  0  0  0  0  0  0  0  0  0  0
   27.5186  -19.6645   -3.6872 C   0  0  0  0  0  0  0  0  0  0  0  0
   26.5208  -20.2737   -4.4177 C   0  0  0  0  0  0  0  0  0  0  0  0
   26.4475  -20.0540   -5.7917 C   0  0  0  0  0  0  0  0  0  0  0  0
   27.3435  -19.2447   -6.4460 C   0  0  0  0  0  0  0  0  0  0  0  0
   26.6252  -21.7014   -8.2047 C   0  0  0  0  0  0  0  0  0  0  0  0
   25.4497  -21.9640   -7.8815 O   0  0  0  0  0  0  0  0  0  0  0  0
   27.6612  -22.3054   -7.5278 O   0  0  0  0  0  0  0  0  0  0  0  0
  2  1  1  6
  3  2  1  0
  4  2  1  0
  4  5  1  1
  6  4  1  0
  6 14  1  0
  7  6  2  0
  8  9  1  0
  9 10  2  0
 11  9  1  0
 11 12  1  0
 13 12  1  6
 13 14  1  0
 15 13  1  0
 16 15  2  0
 17 15  1  0
 18 17  1  0
 18 29  1  0
 18 19  1  1
 20 28  1  0
 20 19  1  0
 21 20  2  0
 22 21  1  0
 22 23  1  0
 23 28  2  0
 24 23  1  0
 24 25  2  0
 25 26  1  0
 26 27  2  0
 28 27  1  0
 29 31  1  0
 30 29  2  0
M  END
$$$$
