TQW.pdb
     RDKit          3D

 31 32  0  0  1  0  0  0  0  0999 V2000
   30.0345  -18.7958  -13.6608 C   0  0  0  0  0  0  0  0  0  0  0  0
   29.4036  -18.0801  -14.8027 C   0  0  1  0  0  0  0  0  0  0  0  0
   30.3889  -17.8281  -15.7653 O   0  0  0  0  0  0  0  0  0  0  0  0
   28.3353  -18.9038  -15.4998 C   0  0  2  0  0  0  0  0  0  0  0  0
   27.8240  -18.1079  -16.5976 N   0  0  0  0  0  0  0  0  0  0  0  0
   27.1992  -19.1572  -14.5521 C   0  0  0  0  0  0  0  0  0  0  0  0
   26.2863  -18.3073  -14.3910 O   0  0  0  0  0  0  0  0  0  0  0  0
   24.4778  -24.6200  -14.0079 N   0  0  0  0  0  0  0  0  0  0  0  0
   23.5610  -23.7279  -13.3350 C   0  0  0  0  0  0  0  0  0  0  0  0
   22.5691  -24.2647  -12.8413 O   0  0  0  0  0  0  0  0  0  0  0  0
   23.8556  -22.3169  -13.2864 C   0  0  0  0  0  0  0  0  0  0  0  0
   25.1016  -21.7952  -13.8778 C   0  0  0  0  0  0  0  0  0  0  0  0
   25.8989  -20.8118  -13.1410 C   0  0  2  0  0  0  0  0  0  0  0  0
   27.0867  -20.3417  -13.7978 N   0  0  0  0  0  0  0  0  0  0  0  0
   26.1179  -21.0549  -11.7168 C   0  0  0  0  0  0  0  0  0  0  0  0
   27.2559  -21.4536  -11.3588 O   0  0  0  0  0  0  0  0  0  0  0  0
   25.1337  -20.8651  -10.7101 N   0  0  0  0  0  0  0  0  0  0  0  0
   25.3149  -21.0560   -9.3027 C   0  0  1  0  0  0  0  0  0  0  0  0
   26.5277  -20.3976   -8.7474 C   0  0  0  0  0  0  0  0  0  0  0  0
   26.6571  -20.5551   -7.2800 C   0  0  0  0  0  0  0  0  0  0  0  0
   25.8572  -21.2138   -6.3677 C   0  0  0  0  0  0  0  0  0  0  0  0
   26.3874  -21.0712   -5.1419 N   0  0  0  0  0  0  0  0  0  0  0  0
   27.5166  -20.3405   -5.1898 C   0  0  0  0  0  0  0  0  0  0  0  0
   28.4364  -19.9024   -4.2475 C   0  0  0  0  0  0  0  0  0  0  0  0
   29.5327  -19.1439   -4.5957 C   0  0  0  0  0  0  0  0  0  0  0  0
   29.7145  -18.8143   -5.9219 C   0  0  0  0  0  0  0  0  0  0  0  0
   28.7916  -19.2538   -6.8688 C   0  0  0  0  0  0  0  0  0  0  0  0
   27.6992  -20.0097   -6.5210 C   0  0  0  0  0  0  0  0  0  0  0  0
   24.1130  -20.6593   -8.5184 C   0  0  0  0  0  0  0  0  0  0  0  0
   24.1703  -20.6937   -7.2732 O   0  0  0  0  0  0  0  0  0  0  0  0
   22.9459  -20.2566   -9.1285 O   0  0  0  0  0  0  0  0  0  0  0  0
  2  1  1  1
  3  2  1  0
  4  2  1  0
  4  5  1  6
  6  4  1  0
  6 14  1  0
  7  6  2  0
  8  9  1  0
  9 10  2  0
 11  9  1  0
 11 12  1  0
 13 12  1  6
 13 14  1  0
 15 13  1  0
 16 15  2  0
 17 15  1  0
 18 17  1  0
 18 29  1  0
 18 19  1  1
 20 28  1  0
 20 19  1  0
 21 20  2  0
 22 21  1  0
 22 23  1  0
 23 28  2  0
 24 23  1  0
 24 25  2  0
 25 26  1  0
 26 27  2  0
 28 27  1  0
 29 31  1  0
 30 29  2  0
M  END
$$$$
