TQW.pdb
     RDKit          3D

 31 32  0  0  1  0  0  0  0  0999 V2000
   24.5335  -29.7903  -13.1212 C   0  0  0  0  0  0  0  0  0  0  0  0
   23.6328  -29.9733  -11.9509 C   0  0  1  0  0  0  0  0  0  0  0  0
   24.0024  -31.1503  -11.2883 O   0  0  0  0  0  0  0  0  0  0  0  0
   23.7573  -28.8579  -10.9282 C   0  0  2  0  0  0  0  0  0  0  0  0
   22.7588  -29.0961   -9.9054 N   0  0  0  0  0  0  0  0  0  0  0  0
   23.4394  -27.5430  -11.5787 C   0  0  0  0  0  0  0  0  0  0  0  0
   22.2517  -27.2110  -11.8254 O   0  0  0  0  0  0  0  0  0  0  0  0
   26.2934  -21.8850  -11.0158 N   0  0  0  0  0  0  0  0  0  0  0  0
   25.4745  -21.7398  -12.1980 C   0  0  0  0  0  0  0  0  0  0  0  0
   25.4141  -20.6009  -12.6615 O   0  0  0  0  0  0  0  0  0  0  0  0
   24.8044  -22.8964  -12.7398 C   0  0  0  0  0  0  0  0  0  0  0  0
   24.9141  -24.2041  -12.0671 C   0  0  0  0  0  0  0  0  0  0  0  0
   24.2118  -25.3654  -12.6184 C   0  0  2  0  0  0  0  0  0  0  0  0
   24.4338  -26.6155  -11.9467 N   0  0  0  0  0  0  0  0  0  0  0  0
   24.2006  -25.5167  -14.0719 C   0  0  0  0  0  0  0  0  0  0  0  0
   25.2636  -25.8916  -14.6300 O   0  0  0  0  0  0  0  0  0  0  0  0
   23.0681  -25.2748  -14.8947 N   0  0  0  0  0  0  0  0  0  0  0  0
   23.0452  -25.2816  -16.3263 C   0  0  1  0  0  0  0  0  0  0  0  0
   22.7857  -26.6174  -16.9274 C   0  0  0  0  0  0  0  0  0  0  0  0
   21.4787  -27.1915  -16.5314 C   0  0  0  0  0  0  0  0  0  0  0  0
   20.2139  -26.6382  -16.5224 C   0  0  0  0  0  0  0  0  0  0  0  0
   19.3413  -27.5552  -16.0733 N   0  0  0  0  0  0  0  0  0  0  0  0
   19.9677  -28.7090  -15.7776 C   0  0  0  0  0  0  0  0  0  0  0  0
   19.5611  -29.9440  -15.2924 C   0  0  0  0  0  0  0  0  0  0  0  0
   20.4516  -30.9736  -15.0799 C   0  0  0  0  0  0  0  0  0  0  0  0
   21.7849  -30.7632  -15.3599 C   0  0  0  0  0  0  0  0  0  0  0  0
   22.1943  -29.5236  -15.8472 C   0  0  0  0  0  0  0  0  0  0  0  0
   21.3061  -28.4978  -16.0588 C   0  0  0  0  0  0  0  0  0  0  0  0
   22.0964  -24.2776  -16.8819 C   0  0  0  0  0  0  0  0  0  0  0  0
   22.0924  -24.0716  -18.1118 O   0  0  0  0  0  0  0  0  0  0  0  0
   21.2271  -23.5745  -16.0780 O   0  0  0  0  0  0  0  0  0  0  0  0
  2  1  1  6
  3  2  1  0
  4  2  1  0
  4  5  1  1
  6  4  1  0
  6 14  1  0
  7  6  2  0
  8  9  1  0
  9 10  2  0
 11  9  1  0
 11 12  1  0
 13 12  1  6
 13 14  1  0
 15 13  1  0
 16 15  2  0
 17 15  1  0
 18 17  1  0
 18 29  1  0
 18 19  1  1
 20 28  1  0
 20 19  1  0
 21 20  2  0
 22 21  1  0
 22 23  1  0
 23 28  2  0
 24 23  1  0
 24 25  2  0
 25 26  1  0
 26 27  2  0
 28 27  1  0
 29 31  1  0
 30 29  2  0
M  END
$$$$
