MFI.pdb
     RDKit          3D

 28 28  0  0  1  0  0  0  0  0999 V2000
   18.8337  -19.6469  -20.5657 C   0  0  0  0  0  0  0  0  0  0  0  0
   20.1413  -18.4031  -20.7497 S   0  0  0  0  0  0  0  0  0  0  0  0
   21.6247  -18.8789  -19.8041 C   0  0  0  0  0  0  0  0  0  0  0  0
   21.2397  -19.5921  -18.5240 C   0  0  0  0  0  0  0  0  0  0  0  0
   22.5174  -19.8819  -17.7698 C   0  0  2  0  0  0  0  0  0  0  0  0
   23.2483  -20.8516  -18.5617 N   0  0  0  0  0  0  0  0  0  0  0  0
   22.2812  -20.4418  -16.4383 C   0  0  0  0  0  0  0  0  0  0  0  0
   22.0922  -21.6551  -16.2774 O   0  0  0  0  0  0  0  0  0  0  0  0
   22.2513  -19.6450  -15.2434 N   0  0  0  0  0  0  0  0  0  0  0  0
   21.9274  -20.1341  -13.9455 C   0  0  1  0  0  0  0  0  0  0  0  0
   22.4455  -19.3713  -12.7940 C   0  0  0  0  0  0  0  0  0  0  0  0
   22.2400  -19.8522  -11.4575 C   0  0  0  0  0  0  0  0  0  0  0  0
   21.1639  -19.3384  -10.7257 C   0  0  0  0  0  0  0  0  0  0  0  0
   20.8713  -19.7212   -9.4419 C   0  0  0  0  0  0  0  0  0  0  0  0
   21.6774  -20.6606   -8.8388 C   0  0  0  0  0  0  0  0  0  0  0  0
   22.7633  -21.1964   -9.5410 C   0  0  0  0  0  0  0  0  0  0  0  0
   23.0223  -20.7871  -10.8240 C   0  0  0  0  0  0  0  0  0  0  0  0
   20.4957  -20.5334  -13.8138 C   0  0  0  0  0  0  0  0  0  0  0  0
   19.6390  -19.6794  -14.1548 O   0  0  0  0  0  0  0  0  0  0  0  0
   16.5462  -24.8454  -14.8504 C   0  0  0  0  0  0  0  0  0  0  0  0
   16.8688  -23.7389  -13.8491 C   0  0  0  0  0  0  0  0  0  0  0  0
   18.2886  -23.2601  -14.0644 C   0  0  2  0  0  0  0  0  0  0  0  0
   19.2752  -24.3668  -13.8970 C   0  0  0  0  0  0  0  0  0  0  0  0
   18.6677  -22.0888  -13.2179 C   0  0  2  0  0  0  0  0  0  0  0  0
   20.1034  -21.7939  -13.3358 N   0  0  0  0  0  0  0  0  0  0  0  0
   18.4253  -22.4181  -11.7945 C   0  0  0  0  0  0  0  0  0  0  0  0
   17.1716  -22.3917  -11.1882 O   0  0  0  0  0  0  0  0  0  0  0  0
   19.3856  -22.7551  -11.0174 O   0  0  0  0  0  0  0  0  0  0  0  0
  2  1  1  0
  3  2  1  0
  4  3  1  0
  5  4  1  0
  5  6  1  6
  7  8  2  0
  7  5  1  0
  9  7  1  0
 10  9  1  0
 11 12  1  0
 10 11  1  1
 12 13  2  0
 13 14  1  0
 15 14  2  0
 16 15  1  0
 17 12  1  0
 17 16  2  0
 18 10  1  0
 18 19  2  0
 20 21  1  0
 21 22  1  0
 22 23  1  1
 24 22  1  0
 24 25  1  1
 25 18  1  0
 26 24  1  0
 27 26  1  0
 28 26  2  0
M  END
$$$$
