MFI.pdb
     RDKit          3D

 28 28  0  0  1  0  0  0  0  0999 V2000
   26.4259  -18.3380  -18.9624 C   0  0  0  0  0  0  0  0  0  0  0  0
   27.7729  -19.3404  -19.6492 S   0  0  0  0  0  0  0  0  0  0  0  0
   28.2527  -20.6614  -18.4891 C   0  0  0  0  0  0  0  0  0  0  0  0
   27.2362  -20.7916  -17.3732 C   0  0  0  0  0  0  0  0  0  0  0  0
   27.7737  -21.8088  -16.3926 C   0  0  2  0  0  0  0  0  0  0  0  0
   27.6809  -23.0980  -17.0492 N   0  0  0  0  0  0  0  0  0  0  0  0
   27.0110  -21.8588  -15.1446 C   0  0  0  0  0  0  0  0  0  0  0  0
   25.9872  -22.5488  -15.0461 O   0  0  0  0  0  0  0  0  0  0  0  0
   27.3828  -21.1281  -13.9650 N   0  0  0  0  0  0  0  0  0  0  0  0
   26.6233  -21.0829  -12.7609 C   0  0  1  0  0  0  0  0  0  0  0  0
   27.3490  -20.7363  -11.5241 C   0  0  0  0  0  0  0  0  0  0  0  0
   26.6381  -20.5924  -10.2857 C   0  0  0  0  0  0  0  0  0  0  0  0
   26.6477  -19.3427   -9.6567 C   0  0  0  0  0  0  0  0  0  0  0  0
   26.0065  -19.0879   -8.4716 C   0  0  0  0  0  0  0  0  0  0  0  0
   25.3162  -20.1144   -7.8668 C   0  0  0  0  0  0  0  0  0  0  0  0
   25.2851  -21.3783   -8.4677 C   0  0  0  0  0  0  0  0  0  0  0  0
   25.9395  -21.5923   -9.6537 C   0  0  0  0  0  0  0  0  0  0  0  0
   25.3212  -20.3717  -12.9196 C   0  0  0  0  0  0  0  0  0  0  0  0
   25.3740  -19.1842  -13.3280 O   0  0  0  0  0  0  0  0  0  0  0  0
   21.1250  -19.1148  -16.0969 C   0  0  0  0  0  0  0  0  0  0  0  0
   21.2630  -19.3282  -14.5913 C   0  0  0  0  0  0  0  0  0  0  0  0
   22.5529  -20.0654  -14.3011 C   0  0  2  0  0  0  0  0  0  0  0  0
   22.5910  -21.3963  -14.9745 C   0  0  0  0  0  0  0  0  0  0  0  0
   22.8547  -20.2072  -12.8447 C   0  0  2  0  0  0  0  0  0  0  0  0
   24.0882  -20.9791  -12.6332 N   0  0  0  0  0  0  0  0  0  0  0  0
   21.7669  -20.9732  -12.1943 C   0  0  0  0  0  0  0  0  0  0  0  0
   20.5708  -20.4121  -11.7532 O   0  0  0  0  0  0  0  0  0  0  0  0
   21.8694  -22.2339  -11.9943 O   0  0  0  0  0  0  0  0  0  0  0  0
  2  1  1  0
  3  2  1  0
  4  3  1  0
  5  4  1  0
  5  6  1  6
  7  8  2  0
  7  5  1  0
  9  7  1  0
 10  9  1  0
 11 12  1  0
 10 11  1  1
 12 13  2  0
 13 14  1  0
 15 14  2  0
 16 15  1  0
 17 12  1  0
 17 16  2  0
 18 10  1  0
 18 19  2  0
 20 21  1  0
 21 22  1  0
 22 23  1  1
 24 22  1  0
 24 25  1  6
 25 18  1  0
 26 24  1  0
 27 26  1  0
 28 26  2  0
M  END
$$$$
