MFI.pdb
     RDKit          3D

 28 28  0  0  1  0  0  0  0  0999 V2000
   22.1338  -19.3463  -14.0547 C   0  0  0  0  0  0  0  0  0  0  0  0
   23.5341  -19.0759  -15.1757 S   0  0  0  0  0  0  0  0  0  0  0  0
   24.9985  -20.0062  -14.6181 C   0  0  0  0  0  0  0  0  0  0  0  0
   24.8786  -20.3680  -13.1517 C   0  0  0  0  0  0  0  0  0  0  0  0
   26.1912  -20.9909  -12.7341 C   0  0  2  0  0  0  0  0  0  0  0  0
   26.2783  -22.2622  -13.4254 N   0  0  0  0  0  0  0  0  0  0  0  0
   26.2777  -21.2304  -11.2929 C   0  0  0  0  0  0  0  0  0  0  0  0
   25.7414  -22.2188  -10.7740 O   0  0  0  0  0  0  0  0  0  0  0  0
   26.9757  -20.3575  -10.3904 N   0  0  0  0  0  0  0  0  0  0  0  0
   26.9864  -20.4908   -8.9725 C   0  0  1  0  0  0  0  0  0  0  0  0
   28.1227  -19.8860   -8.2517 C   0  0  0  0  0  0  0  0  0  0  0  0
   28.1124  -19.8128   -6.8184 C   0  0  0  0  0  0  0  0  0  0  0  0
   28.6342  -20.8911   -6.0954 C   0  0  0  0  0  0  0  0  0  0  0  0
   28.6754  -20.9334   -4.7254 C   0  0  0  0  0  0  0  0  0  0  0  0
   28.1778  -19.8595   -4.0218 C   0  0  0  0  0  0  0  0  0  0  0  0
   27.6480  -18.7631   -4.7123 C   0  0  0  0  0  0  0  0  0  0  0  0
   27.6251  -18.7595   -6.0835 C   0  0  0  0  0  0  0  0  0  0  0  0
   25.6581  -20.2150   -8.3511 C   0  0  0  0  0  0  0  0  0  0  0  0
   25.1175  -19.1181   -8.6409 O   0  0  0  0  0  0  0  0  0  0  0  0
   20.2307  -21.4367   -8.5410 C   0  0  0  0  0  0  0  0  0  0  0  0
   21.2142  -21.0176   -7.4508 C   0  0  0  0  0  0  0  0  0  0  0  0
   22.6263  -21.3345   -7.8945 C   0  0  2  0  0  0  0  0  0  0  0  0
   22.8200  -22.7974   -8.1149 C   0  0  0  0  0  0  0  0  0  0  0  0
   23.6820  -20.7984   -6.9833 C   0  0  2  0  0  0  0  0  0  0  0  0
   25.0264  -21.1209   -7.4843 N   0  0  0  0  0  0  0  0  0  0  0  0
   23.5619  -21.4533   -5.6606 C   0  0  0  0  0  0  0  0  0  0  0  0
   24.5792  -22.1883   -5.0565 O   0  0  0  0  0  0  0  0  0  0  0  0
   22.4812  -21.3786   -4.9776 O   0  0  0  0  0  0  0  0  0  0  0  0
  2  1  1  0
  3  2  1  0
  4  3  1  0
  5  4  1  0
  5  6  1  6
  7  8  2  0
  7  5  1  0
  9  7  1  0
 10  9  1  0
 11 12  1  0
 10 11  1  1
 12 13  2  0
 13 14  1  0
 15 14  2  0
 16 15  1  0
 17 12  1  0
 17 16  2  0
 18 10  1  0
 18 19  2  0
 20 21  1  0
 21 22  1  0
 22 23  1  1
 24 22  1  0
 24 25  1  6
 25 18  1  0
 26 24  1  0
 27 26  1  0
 28 26  2  0
M  END
$$$$
