MFI.pdb
     RDKit          3D

 28 28  0  0  1  0  0  0  0  0999 V2000
   26.1082  -17.9389  -17.1823 C   0  0  0  0  0  0  0  0  0  0  0  0
   27.6192  -18.3415  -18.1017 S   0  0  0  0  0  0  0  0  0  0  0  0
   28.6240  -19.5607  -17.1934 C   0  0  0  0  0  0  0  0  0  0  0  0
   27.9268  -19.9877  -15.9178 C   0  0  0  0  0  0  0  0  0  0  0  0
   28.8808  -20.8856  -15.1636 C   0  0  2  0  0  0  0  0  0  0  0  0
   28.9613  -22.1212  -15.9177 N   0  0  0  0  0  0  0  0  0  0  0  0
   28.4272  -21.1901  -13.8059 C   0  0  0  0  0  0  0  0  0  0  0  0
   27.4670  -21.9461  -13.6052 O   0  0  0  0  0  0  0  0  0  0  0  0
   29.0469  -20.6479  -12.6288 N   0  0  0  0  0  0  0  0  0  0  0  0
   28.5025  -20.7191  -11.3146 C   0  0  1  0  0  0  0  0  0  0  0  0
   29.3579  -20.2475  -10.2090 C   0  0  0  0  0  0  0  0  0  0  0  0
   28.8142  -20.0950   -8.8895 C   0  0  0  0  0  0  0  0  0  0  0  0
   29.0910  -21.0843   -7.9397 C   0  0  0  0  0  0  0  0  0  0  0  0
   28.6250  -21.0462   -6.6506 C   0  0  0  0  0  0  0  0  0  0  0  0
   27.8433  -19.9791   -6.2683 C   0  0  0  0  0  0  0  0  0  0  0  0
   27.5459  -18.9706   -7.1923 C   0  0  0  0  0  0  0  0  0  0  0  0
   28.0316  -19.0458   -8.4727 C   0  0  0  0  0  0  0  0  0  0  0  0
   27.0933  -20.2339  -11.2406 C   0  0  0  0  0  0  0  0  0  0  0  0
   26.8571  -19.1095  -11.7500 O   0  0  0  0  0  0  0  0  0  0  0  0
   21.9249  -20.7762  -13.2917 C   0  0  0  0  0  0  0  0  0  0  0  0
   22.5573  -20.3269  -11.9766 C   0  0  0  0  0  0  0  0  0  0  0  0
   23.9679  -20.8680  -11.8828 C   0  0  2  0  0  0  0  0  0  0  0  0
   23.9990  -22.3535  -12.0192 C   0  0  0  0  0  0  0  0  0  0  0  0
   24.7000  -20.4402  -10.6527 C   0  0  2  0  0  0  0  0  0  0  0  0
   26.0679  -20.9794  -10.6372 N   0  0  0  0  0  0  0  0  0  0  0  0
   24.0187  -20.9978   -9.4619 C   0  0  0  0  0  0  0  0  0  0  0  0
   22.7421  -20.6269   -9.0461 O   0  0  0  0  0  0  0  0  0  0  0  0
   24.5839  -21.8791   -8.7246 O   0  0  0  0  0  0  0  0  0  0  0  0
  2  1  1  0
  3  2  1  0
  4  3  1  0
  5  4  1  0
  5  6  1  6
  7  8  2  0
  7  5  1  0
  9  7  1  0
 10  9  1  0
 11 12  1  0
 10 11  1  1
 12 13  2  0
 13 14  1  0
 15 14  2  0
 16 15  1  0
 17 12  1  0
 17 16  2  0
 18 10  1  0
 18 19  2  0
 20 21  1  0
 21 22  1  0
 22 23  1  1
 24 22  1  0
 24 25  1  6
 25 18  1  0
 26 24  1  0
 27 26  1  0
 28 26  2  0
M  END
$$$$
