MFI.pdb
     RDKit          3D

 28 28  0  0  1  0  0  0  0  0999 V2000
   25.8550  -17.3285  -14.8351 C   0  0  0  0  0  0  0  0  0  0  0  0
   27.3532  -17.7151  -15.7819 S   0  0  0  0  0  0  0  0  0  0  0  0
   28.1899  -19.1828  -15.0985 C   0  0  0  0  0  0  0  0  0  0  0  0
   27.5153  -19.6394  -13.8210 C   0  0  0  0  0  0  0  0  0  0  0  0
   28.3523  -20.7596  -13.2468 C   0  0  2  0  0  0  0  0  0  0  0  0
   28.1722  -21.8969  -14.1277 N   0  0  0  0  0  0  0  0  0  0  0  0
   27.9459  -21.1417  -11.8938 C   0  0  0  0  0  0  0  0  0  0  0  0
   26.9883  -21.9036  -11.7032 O   0  0  0  0  0  0  0  0  0  0  0  0
   28.6114  -20.6730  -10.7101 N   0  0  0  0  0  0  0  0  0  0  0  0
   28.0439  -20.6677   -9.4039 C   0  0  1  0  0  0  0  0  0  0  0  0
   28.9228  -20.2536   -8.2936 C   0  0  0  0  0  0  0  0  0  0  0  0
   28.4020  -20.1498   -6.9603 C   0  0  0  0  0  0  0  0  0  0  0  0
   27.9071  -18.9118   -6.5360 C   0  0  0  0  0  0  0  0  0  0  0  0
   27.3878  -18.6935   -5.2858 C   0  0  0  0  0  0  0  0  0  0  0  0
   27.3503  -19.7465   -4.3993 C   0  0  0  0  0  0  0  0  0  0  0  0
   27.8368  -20.9996   -4.7896 C   0  0  0  0  0  0  0  0  0  0  0  0
   28.3484  -21.1769   -6.0496 C   0  0  0  0  0  0  0  0  0  0  0  0
   26.6840  -20.0550   -9.3618 C   0  0  0  0  0  0  0  0  0  0  0  0
   26.5919  -18.8613   -9.7441 O   0  0  0  0  0  0  0  0  0  0  0  0
   22.4105  -20.0192  -12.6424 C   0  0  0  0  0  0  0  0  0  0  0  0
   22.5751  -19.8647  -11.1323 C   0  0  0  0  0  0  0  0  0  0  0  0
   23.9361  -20.3806  -10.7164 C   0  0  2  0  0  0  0  0  0  0  0  0
   24.1465  -21.7929  -11.1493 C   0  0  0  0  0  0  0  0  0  0  0  0
   24.2195  -20.2330   -9.2569 C   0  0  2  0  0  0  0  0  0  0  0  0
   25.5514  -20.7582   -8.9213 N   0  0  0  0  0  0  0  0  0  0  0  0
   23.2465  -21.0421   -8.4878 C   0  0  0  0  0  0  0  0  0  0  0  0
   23.6011  -22.0396   -7.5826 O   0  0  0  0  0  0  0  0  0  0  0  0
   21.9849  -20.8644   -8.6171 O   0  0  0  0  0  0  0  0  0  0  0  0
  2  1  1  0
  3  2  1  0
  4  3  1  0
  5  4  1  0
  5  6  1  6
  7  8  2  0
  7  5  1  0
  9  7  1  0
 10  9  1  0
 11 12  1  0
 10 11  1  1
 12 13  2  0
 13 14  1  0
 15 14  2  0
 16 15  1  0
 17 12  1  0
 17 16  2  0
 18 10  1  0
 18 19  2  0
 20 21  1  0
 21 22  1  0
 22 23  1  1
 24 22  1  0
 24 25  1  6
 25 18  1  0
 26 24  1  0
 27 26  1  0
 28 26  2  0
M  END
$$$$
