MFI.pdb
     RDKit          3D

 28 28  0  0  1  0  0  0  0  0999 V2000
   24.1224  -17.8199  -14.9778 C   0  0  0  0  0  0  0  0  0  0  0  0
   25.7927  -17.1148  -15.0371 S   0  0  0  0  0  0  0  0  0  0  0  0
   27.0410  -18.3708  -14.6066 C   0  0  0  0  0  0  0  0  0  0  0  0
   26.6884  -19.0527  -13.3004 C   0  0  0  0  0  0  0  0  0  0  0  0
   27.8022  -20.0255  -12.9868 C   0  0  2  0  0  0  0  0  0  0  0  0
   27.7031  -21.0896  -13.9663 N   0  0  0  0  0  0  0  0  0  0  0  0
   27.6949  -20.6055  -11.6474 C   0  0  0  0  0  0  0  0  0  0  0  0
   27.1606  -21.7082  -11.4673 O   0  0  0  0  0  0  0  0  0  0  0  0
   28.1897  -19.9551  -10.4660 N   0  0  0  0  0  0  0  0  0  0  0  0
   27.9041  -20.3618   -9.1313 C   0  0  1  0  0  0  0  0  0  0  0  0
   28.2451  -19.4128   -8.0545 C   0  0  0  0  0  0  0  0  0  0  0  0
   28.0952  -19.7960   -6.6796 C   0  0  0  0  0  0  0  0  0  0  0  0
   27.2589  -19.0262   -5.8638 C   0  0  0  0  0  0  0  0  0  0  0  0
   27.0409  -19.2951   -4.5370 C   0  0  0  0  0  0  0  0  0  0  0  0
   27.6775  -20.3792   -3.9754 C   0  0  0  0  0  0  0  0  0  0  0  0
   28.5217  -21.1720   -4.7617 C   0  0  0  0  0  0  0  0  0  0  0  0
   28.7133  -20.8694   -6.0855 C   0  0  0  0  0  0  0  0  0  0  0  0
   26.5549  -20.9830   -8.9875 C   0  0  0  0  0  0  0  0  0  0  0  0
   26.5206  -22.1599   -8.5480 O   0  0  0  0  0  0  0  0  0  0  0  0
   23.1715  -21.0587   -5.4826 C   0  0  0  0  0  0  0  0  0  0  0  0
   23.9927  -21.4005   -6.7236 C   0  0  0  0  0  0  0  0  0  0  0  0
   23.4009  -20.7028   -7.9296 C   0  0  2  0  0  0  0  0  0  0  0  0
   21.9351  -20.9547   -8.0483 C   0  0  0  0  0  0  0  0  0  0  0  0
   24.0926  -21.0234   -9.2145 C   0  0  2  0  0  0  0  0  0  0  0  0
   25.3713  -20.3051   -9.3201 N   0  0  0  0  0  0  0  0  0  0  0  0
   23.2583  -20.5579  -10.3459 C   0  0  0  0  0  0  0  0  0  0  0  0
   23.6049  -19.5080  -11.1932 O   0  0  0  0  0  0  0  0  0  0  0  0
   22.1357  -21.1117  -10.6160 O   0  0  0  0  0  0  0  0  0  0  0  0
  2  1  1  0
  3  2  1  0
  4  3  1  0
  5  4  1  0
  5  6  1  6
  7  8  2  0
  7  5  1  0
  9  7  1  0
 10  9  1  0
 11 12  1  0
 10 11  1  1
 12 13  2  0
 13 14  1  0
 15 14  2  0
 16 15  1  0
 17 12  1  0
 17 16  2  0
 18 10  1  0
 18 19  2  0
 20 21  1  0
 21 22  1  0
 22 23  1  6
 24 22  1  0
 24 25  1  1
 25 18  1  0
 26 24  1  0
 27 26  1  0
 28 26  2  0
M  END
$$$$
