MFI.pdb
     RDKit          3D

 28 28  0  0  1  0  0  0  0  0999 V2000
   21.2109  -20.6932  -12.9151 C   0  0  0  0  0  0  0  0  0  0  0  0
   22.2972  -19.7631  -14.0311 S   0  0  0  0  0  0  0  0  0  0  0  0
   24.0466  -20.1622  -13.7126 C   0  0  0  0  0  0  0  0  0  0  0  0
   24.2502  -20.5690  -12.2674 C   0  0  0  0  0  0  0  0  0  0  0  0
   25.7234  -20.8547  -12.0846 C   0  0  2  0  0  0  0  0  0  0  0  0
   26.0059  -22.0513  -12.8527 N   0  0  0  0  0  0  0  0  0  0  0  0
   26.0909  -21.0925  -10.6881 C   0  0  0  0  0  0  0  0  0  0  0  0
   25.7599  -22.1348  -10.1067 O   0  0  0  0  0  0  0  0  0  0  0  0
   26.8466  -20.1568   -9.9026 N   0  0  0  0  0  0  0  0  0  0  0  0
   27.0778  -20.2681   -8.5017 C   0  0  1  0  0  0  0  0  0  0  0  0
   28.2193  -19.5142   -7.9494 C   0  0  0  0  0  0  0  0  0  0  0  0
   28.4772  -19.5254   -6.5377 C   0  0  0  0  0  0  0  0  0  0  0  0
   29.0843  -20.6574   -5.9833 C   0  0  0  0  0  0  0  0  0  0  0  0
   29.3770  -20.7816   -4.6493 C   0  0  0  0  0  0  0  0  0  0  0  0
   29.0575  -19.7385   -3.8091 C   0  0  0  0  0  0  0  0  0  0  0  0
   28.4491  -18.5901   -4.3291 C   0  0  0  0  0  0  0  0  0  0  0  0
   28.1729  -18.5050   -5.6696 C   0  0  0  0  0  0  0  0  0  0  0  0
   25.8282  -20.1546   -7.6941 C   0  0  0  0  0  0  0  0  0  0  0  0
   25.0383  -19.2280   -8.0056 O   0  0  0  0  0  0  0  0  0  0  0  0
   20.9471  -22.7406   -6.0822 C   0  0  0  0  0  0  0  0  0  0  0  0
   21.9298  -21.6912   -5.5681 C   0  0  0  0  0  0  0  0  0  0  0  0
   23.2613  -21.8591   -6.2683 C   0  0  2  0  0  0  0  0  0  0  0  0
   23.8127  -23.2330   -6.0826 C   0  0  0  0  0  0  0  0  0  0  0  0
   24.2782  -20.8319   -5.8900 C   0  0  2  0  0  0  0  0  0  0  0  0
   25.5302  -21.0277   -6.6358 N   0  0  0  0  0  0  0  0  0  0  0  0
   24.6178  -20.9877   -4.4570 C   0  0  0  0  0  0  0  0  0  0  0  0
   23.7891  -20.5928   -3.4094 O   0  0  0  0  0  0  0  0  0  0  0  0
   25.7280  -21.5097   -4.0900 O   0  0  0  0  0  0  0  0  0  0  0  0
  2  1  1  0
  3  2  1  0
  4  3  1  0
  5  4  1  0
  5  6  1  6
  7  8  2  0
  7  5  1  0
  9  7  1  0
 10  9  1  0
 11 12  1  0
 10 11  1  1
 12 13  2  0
 13 14  1  0
 15 14  2  0
 16 15  1  0
 17 12  1  0
 17 16  2  0
 18 10  1  0
 18 19  2  0
 20 21  1  0
 21 22  1  0
 22 23  1  1
 24 22  1  0
 24 25  1  6
 25 18  1  0
 26 24  1  0
 27 26  1  0
 28 26  2  0
M  END
$$$$
