MFI.pdb
     RDKit          3D

 28 28  0  0  1  0  0  0  0  0999 V2000
   25.4720  -21.3564  -19.6429 C   0  0  0  0  0  0  0  0  0  0  0  0
   27.2851  -21.3861  -19.5940 S   0  0  0  0  0  0  0  0  0  0  0  0
   27.8786  -22.0651  -18.0104 C   0  0  0  0  0  0  0  0  0  0  0  0
   26.7598  -22.1034  -16.9895 C   0  0  0  0  0  0  0  0  0  0  0  0
   27.3825  -22.4385  -15.6533 C   0  0  2  0  0  0  0  0  0  0  0  0
   27.7132  -23.8492  -15.6990 N   0  0  0  0  0  0  0  0  0  0  0  0
   26.4797  -22.2016  -14.5261 C   0  0  0  0  0  0  0  0  0  0  0  0
   25.6090  -23.0266  -14.2178 O   0  0  0  0  0  0  0  0  0  0  0  0
   26.5331  -21.0211  -13.7094 N   0  0  0  0  0  0  0  0  0  0  0  0
   25.5879  -20.6861  -12.6980 C   0  0  1  0  0  0  0  0  0  0  0  0
   26.0522  -19.7983  -11.6151 C   0  0  0  0  0  0  0  0  0  0  0  0
   26.8691  -20.3176  -10.5555 C   0  0  0  0  0  0  0  0  0  0  0  0
   28.1467  -20.7907  -10.8739 C   0  0  0  0  0  0  0  0  0  0  0  0
   29.0134  -21.3099   -9.9466 C   0  0  0  0  0  0  0  0  0  0  0  0
   28.6073  -21.3699   -8.6323 C   0  0  0  0  0  0  0  0  0  0  0  0
   27.3354  -20.9056   -8.2773 C   0  0  0  0  0  0  0  0  0  0  0  0
   26.4981  -20.3932   -9.2350 C   0  0  0  0  0  0  0  0  0  0  0  0
   24.2496  -20.3222  -13.2487 C   0  0  0  0  0  0  0  0  0  0  0  0
   24.2212  -19.3877  -14.0886 O   0  0  0  0  0  0  0  0  0  0  0  0
   21.3204  -23.0510  -16.2692 C   0  0  0  0  0  0  0  0  0  0  0  0
   22.0110  -21.9330  -15.4917 C   0  0  0  0  0  0  0  0  0  0  0  0
   21.1720  -21.5612  -14.2878 C   0  0  2  0  0  0  0  0  0  0  0  0
   19.7887  -21.1640  -14.6811 C   0  0  0  0  0  0  0  0  0  0  0  0
   21.7899  -20.5144  -13.4192 C   0  0  2  0  0  0  0  0  0  0  0  0
   23.0696  -20.9775  -12.8622 N   0  0  0  0  0  0  0  0  0  0  0  0
   20.9017  -20.2547  -12.2630 C   0  0  0  0  0  0  0  0  0  0  0  0
   19.7896  -19.4171  -12.3038 O   0  0  0  0  0  0  0  0  0  0  0  0
   21.1144  -20.8024  -11.1252 O   0  0  0  0  0  0  0  0  0  0  0  0
  2  1  1  0
  3  2  1  0
  4  3  1  0
  5  4  1  0
  5  6  1  6
  7  8  2  0
  7  5  1  0
  9  7  1  0
 10  9  1  0
 11 12  1  0
 10 11  1  6
 12 13  2  0
 13 14  1  0
 15 14  2  0
 16 15  1  0
 17 12  1  0
 17 16  2  0
 18 10  1  0
 18 19  2  0
 20 21  1  0
 21 22  1  0
 22 23  1  6
 24 22  1  0
 24 25  1  1
 25 18  1  0
 26 24  1  0
 27 26  1  0
 28 26  2  0
M  END
$$$$
