MFI.pdb
     RDKit          3D

 28 28  0  0  1  0  0  0  0  0999 V2000
   20.1052  -15.7066  -18.9586 C   0  0  0  0  0  0  0  0  0  0  0  0
   20.9834  -15.1423  -20.4421 S   0  0  0  0  0  0  0  0  0  0  0  0
   20.5606  -13.4116  -20.8253 C   0  0  0  0  0  0  0  0  0  0  0  0
   20.3466  -12.6167  -19.5533 C   0  0  0  0  0  0  0  0  0  0  0  0
   21.1606  -11.3486  -19.6740 C   0  0  2  0  0  0  0  0  0  0  0  0
   22.5517  -11.7455  -19.5798 N   0  0  0  0  0  0  0  0  0  0  0  0
   20.8730  -10.3813  -18.6140 C   0  0  0  0  0  0  0  0  0  0  0  0
   19.7148  -10.0081  -18.3837 O   0  0  0  0  0  0  0  0  0  0  0  0
   21.8889   -9.8039  -17.7785 N   0  0  0  0  0  0  0  0  0  0  0  0
   21.6492   -8.8668  -16.7331 C   0  0  1  0  0  0  0  0  0  0  0  0
   22.4817   -8.9880  -15.5212 C   0  0  0  0  0  0  0  0  0  0  0  0
   22.3737   -8.0164  -14.4705 C   0  0  0  0  0  0  0  0  0  0  0  0
   21.7009   -8.3787  -13.2985 C   0  0  0  0  0  0  0  0  0  0  0  0
   21.5343   -7.5346  -12.2307 C   0  0  0  0  0  0  0  0  0  0  0  0
   22.0557   -6.2629  -12.3138 C   0  0  0  0  0  0  0  0  0  0  0  0
   22.7352   -5.8659  -13.4714 C   0  0  0  0  0  0  0  0  0  0  0  0
   22.8805   -6.7404  -14.5177 C   0  0  0  0  0  0  0  0  0  0  0  0
   21.4989   -7.4672  -17.2282 C   0  0  0  0  0  0  0  0  0  0  0  0
   22.4327   -7.0180  -17.9394 O   0  0  0  0  0  0  0  0  0  0  0  0
   17.7243   -3.7986  -19.9147 C   0  0  0  0  0  0  0  0  0  0  0  0
   18.9070   -3.7993  -18.9490 C   0  0  0  0  0  0  0  0  0  0  0  0
   19.1341   -5.2026  -18.4286 C   0  0  2  0  0  0  0  0  0  0  0  0
   17.9028   -5.7638  -17.8001 C   0  0  0  0  0  0  0  0  0  0  0  0
   20.2974   -5.3226  -17.4988 C   0  0  2  0  0  0  0  0  0  0  0  0
   20.3797   -6.6749  -16.9270 N   0  0  0  0  0  0  0  0  0  0  0  0
   20.1059   -4.3985  -16.3576 C   0  0  0  0  0  0  0  0  0  0  0  0
   20.5262   -3.0706  -16.3475 O   0  0  0  0  0  0  0  0  0  0  0  0
   19.5256   -4.7815  -15.2822 O   0  0  0  0  0  0  0  0  0  0  0  0
  2  1  1  0
  3  2  1  0
  4  3  1  0
  5  4  1  0
  5  6  1  1
  7  8  2  0
  7  5  1  0
  9  7  1  0
 10  9  1  0
 11 12  1  0
 10 11  1  1
 12 13  2  0
 13 14  1  0
 15 14  2  0
 16 15  1  0
 17 12  1  0
 17 16  2  0
 18 10  1  0
 18 19  2  0
 20 21  1  0
 21 22  1  0
 22 23  1  1
 24 22  1  0
 24 25  1  1
 25 18  1  0
 26 24  1  0
 27 26  1  0
 28 26  2  0
M  END
$$$$
