MFI.pdb
     RDKit          3D

 28 28  0  0  1  0  0  0  0  0999 V2000
   26.7079  -19.3720  -22.9006 C   0  0  0  0  0  0  0  0  0  0  0  0
   25.9737  -17.9208  -22.0971 S   0  0  0  0  0  0  0  0  0  0  0  0
   25.9723  -18.1157  -20.2852 C   0  0  0  0  0  0  0  0  0  0  0  0
   26.5029  -19.4791  -19.8913 C   0  0  0  0  0  0  0  0  0  0  0  0
   27.6234  -19.2561  -18.9014 C   0  0  2  0  0  0  0  0  0  0  0  0
   28.8226  -19.7931  -19.5139 N   0  0  0  0  0  0  0  0  0  0  0  0
   27.4015  -19.9349  -17.6239 C   0  0  0  0  0  0  0  0  0  0  0  0
   27.3967  -21.1709  -17.5471 O   0  0  0  0  0  0  0  0  0  0  0  0
   27.1775  -19.2354  -16.3893 N   0  0  0  0  0  0  0  0  0  0  0  0
   26.8639  -19.8557  -15.1463 C   0  0  1  0  0  0  0  0  0  0  0  0
   27.4653  -19.2680  -13.9341 C   0  0  0  0  0  0  0  0  0  0  0  0
   27.1583  -19.8086  -12.6405 C   0  0  0  0  0  0  0  0  0  0  0  0
   26.0365  -19.3162  -11.9649 C   0  0  0  0  0  0  0  0  0  0  0  0
   25.6474  -19.7551  -10.7254 C   0  0  0  0  0  0  0  0  0  0  0  0
   26.3987  -20.7320  -10.1111 C   0  0  0  0  0  0  0  0  0  0  0  0
   27.5279  -21.2480  -10.7577 C   0  0  0  0  0  0  0  0  0  0  0  0
   27.8836  -20.7821  -11.9975 C   0  0  0  0  0  0  0  0  0  0  0  0
   25.4146  -20.1822  -15.0071 C   0  0  0  0  0  0  0  0  0  0  0  0
   24.6048  -19.2373  -15.1834 O   0  0  0  0  0  0  0  0  0  0  0  0
   23.2901  -25.2324  -15.9638 C   0  0  0  0  0  0  0  0  0  0  0  0
   23.4417  -23.7139  -16.0134 C   0  0  0  0  0  0  0  0  0  0  0  0
   23.1640  -23.1328  -14.6435 C   0  0  2  0  0  0  0  0  0  0  0  0
   21.7530  -23.3689  -14.2200 C   0  0  0  0  0  0  0  0  0  0  0  0
   23.5129  -21.6855  -14.5176 C   0  0  2  0  0  0  0  0  0  0  0  0
   24.9568  -21.4724  -14.6957 N   0  0  0  0  0  0  0  0  0  0  0  0
   23.1892  -21.2241  -13.1482 C   0  0  0  0  0  0  0  0  0  0  0  0
   22.0999  -20.4153  -12.8324 O   0  0  0  0  0  0  0  0  0  0  0  0
   23.9164  -21.5527  -12.1467 O   0  0  0  0  0  0  0  0  0  0  0  0
  2  1  1  0
  3  2  1  0
  4  3  1  0
  5  4  1  0
  5  6  1  6
  7  8  2  0
  7  5  1  0
  9  7  1  0
 10  9  1  0
 11 12  1  0
 10 11  1  1
 12 13  2  0
 13 14  1  0
 15 14  2  0
 16 15  1  0
 17 12  1  0
 17 16  2  0
 18 10  1  0
 18 19  2  0
 20 21  1  0
 21 22  1  0
 22 23  1  6
 24 22  1  0
 24 25  1  1
 25 18  1  0
 26 24  1  0
 27 26  1  0
 28 26  2  0
M  END
$$$$
