TEY.pdb
     RDKit          3D

 29 29  0  0  1  0  0  0  0  0999 V2000
   13.8252   -8.2428  -16.6753 C   0  0  0  0  0  0  0  0  0  0  0  0
   15.1630   -8.0478  -16.0231 C   0  0  1  0  0  0  0  0  0  0  0  0
   15.0945   -7.2339  -14.8918 O   0  0  0  0  0  0  0  0  0  0  0  0
   15.7424   -9.4026  -15.6786 C   0  0  2  0  0  0  0  0  0  0  0  0
   14.8985  -10.1562  -14.7764 N   0  0  0  0  0  0  0  0  0  0  0  0
   17.0978   -9.3160  -15.0967 C   0  0  0  0  0  0  0  0  0  0  0  0
   17.2818   -8.9374  -13.9083 O   0  0  0  0  0  0  0  0  0  0  0  0
   18.2155   -9.6543  -15.8618 N   0  0  0  0  0  0  0  0  0  0  0  0
   19.5889   -9.4606  -15.4118 C   0  0  1  0  0  0  0  0  0  0  0  0
   20.4458  -10.4235  -16.1759 C   0  0  0  0  0  0  0  0  0  0  0  0
   21.9138  -10.3300  -15.8905 C   0  0  0  0  0  0  0  0  0  0  0  0
   22.5581  -11.4118  -16.7190 C   0  0  0  0  0  0  0  0  0  0  0  0
   22.9067  -12.4698  -16.1081 O   0  0  0  0  0  0  0  0  0  0  0  0
   20.0651   -8.0998  -15.7455 C   0  0  0  0  0  0  0  0  0  0  0  0
   19.8042   -7.5367  -16.8416 O   0  0  0  0  0  0  0  0  0  0  0  0
   22.7815  -11.3189  -18.0688 O   0  0  0  0  0  0  0  0  0  0  0  0
   21.1040    0.1799  -16.8302 O   0  0  0  0  0  0  0  0  0  0  0  0
   20.8484   -1.1480  -16.4298 C   0  0  0  0  0  0  0  0  0  0  0  0
   21.0162   -2.1438  -17.3666 C   0  0  0  0  0  0  0  0  0  0  0  0
   20.7633   -3.4496  -16.9622 C   0  0  0  0  0  0  0  0  0  0  0  0
   20.3612   -3.7705  -15.6872 C   0  0  0  0  0  0  0  0  0  0  0  0
   20.1121   -5.1751  -15.3716 C   0  0  0  0  0  0  0  0  0  0  0  0
   21.3411   -6.0252  -15.1976 C   0  0  2  0  0  0  0  0  0  0  0  0
   20.8468   -7.3647  -14.8273 N   0  0  0  0  0  0  0  0  0  0  0  0
   22.1680   -5.4584  -14.1108 C   0  0  0  0  0  0  0  0  0  0  0  0
   22.0757   -5.8224  -12.9110 O   0  0  0  0  0  0  0  0  0  0  0  0
   20.2075   -2.7366  -14.7853 C   0  0  0  0  0  0  0  0  0  0  0  0
   20.4474   -1.4374  -15.1493 C   0  0  0  0  0  0  0  0  0  0  0  0
   23.1273   -4.4560  -14.3615 O   0  0  0  0  0  0  0  0  0  0  0  0
  2  3  1  0
  2  1  1  1
  4  2  1  0
  4  5  1  1
  6  7  2  0
  6  4  1  0
  8  6  1  0
  9  8  1  0
  9 10  1  6
 11 12  1  0
 11 10  1  0
 12 13  2  0
 14 24  1  0
 14  9  1  0
 15 14  2  0
 16 12  1  0
 18 17  1  0
 19 18  2  0
 20 19  1  0
 21 27  1  0
 21 20  2  0
 23 22  1  1
 22 21  1  0
 23 24  1  0
 23 25  1  0
 25 29  1  0
 26 25  2  0
 27 28  2  0
 28 18  1  0
M  END
$$$$
