TEY.pdb
     RDKit          3D

 29 29  0  0  1  0  0  0  0  0999 V2000
   20.3300  -12.5073  -17.9960 C   0  0  0  0  0  0  0  0  0  0  0  0
   20.6931  -11.0519  -17.9404 C   0  0  1  0  0  0  0  0  0  0  0  0
   20.9523  -10.6132  -16.6414 O   0  0  0  0  0  0  0  0  0  0  0  0
   21.8858  -10.8097  -18.8397 C   0  0  2  0  0  0  0  0  0  0  0  0
   23.0229  -11.6339  -18.4908 N   0  0  0  0  0  0  0  0  0  0  0  0
   22.3141   -9.3957  -18.8563 C   0  0  0  0  0  0  0  0  0  0  0  0
   23.5030   -9.0642  -18.5990 O   0  0  0  0  0  0  0  0  0  0  0  0
   21.3987   -8.3861  -19.1593 N   0  0  0  0  0  0  0  0  0  0  0  0
   21.7510   -6.9728  -19.2283 C   0  0  1  0  0  0  0  0  0  0  0  0
   20.8837   -6.3506  -20.2800 C   0  0  0  0  0  0  0  0  0  0  0  0
   21.1268   -4.8917  -20.5205 C   0  0  0  0  0  0  0  0  0  0  0  0
   22.0758   -4.8255  -21.6897 C   0  0  0  0  0  0  0  0  0  0  0  0
   22.1437   -5.8550  -22.4309 O   0  0  0  0  0  0  0  0  0  0  0  0
   21.4403   -6.2901  -17.9527 C   0  0  0  0  0  0  0  0  0  0  0  0
   20.4038   -6.5392  -17.2817 O   0  0  0  0  0  0  0  0  0  0  0  0
   22.8518   -3.7360  -21.9917 O   0  0  0  0  0  0  0  0  0  0  0  0
   23.5488  -10.4105  -13.7080 O   0  0  0  0  0  0  0  0  0  0  0  0
   23.4107   -9.0524  -14.0620 C   0  0  0  0  0  0  0  0  0  0  0  0
   24.2693   -8.5471  -15.0133 C   0  0  0  0  0  0  0  0  0  0  0  0
   24.1245   -7.2079  -15.3567 C   0  0  0  0  0  0  0  0  0  0  0  0
   23.1737   -6.3917  -14.7908 C   0  0  0  0  0  0  0  0  0  0  0  0
   23.1158   -4.9955  -15.2170 C   0  0  0  0  0  0  0  0  0  0  0  0
   21.9864   -4.6519  -16.1498 C   0  0  2  0  0  0  0  0  0  0  0  0
   22.3135   -5.3122  -17.4275 N   0  0  0  0  0  0  0  0  0  0  0  0
   21.9348   -3.1843  -16.3223 C   0  0  0  0  0  0  0  0  0  0  0  0
   22.0688   -2.6145  -17.4349 O   0  0  0  0  0  0  0  0  0  0  0  0
   22.3373   -6.9457  -13.8423 C   0  0  0  0  0  0  0  0  0  0  0  0
   22.4518   -8.2620  -13.4788 C   0  0  0  0  0  0  0  0  0  0  0  0
   21.7286   -2.3209  -15.2269 O   0  0  0  0  0  0  0  0  0  0  0  0
  2  3  1  0
  2  1  1  1
  4  2  1  0
  4  5  1  1
  6  7  2  0
  6  4  1  0
  8  6  1  0
  9  8  1  0
  9 10  1  6
 11 12  1  0
 11 10  1  0
 12 13  2  0
 14 24  1  0
 14  9  1  0
 15 14  2  0
 16 12  1  0
 18 17  1  0
 19 18  2  0
 20 19  1  0
 21 27  1  0
 21 20  2  0
 23 22  1  1
 22 21  1  0
 23 24  1  0
 23 25  1  0
 25 29  1  0
 26 25  2  0
 27 28  2  0
 28 18  1  0
M  END
$$$$
