TEY.pdb
     RDKit          3D

 29 29  0  0  1  0  0  0  0  0999 V2000
   24.7782  -12.9052  -17.9183 C   0  0  0  0  0  0  0  0  0  0  0  0
   23.3798  -12.4653  -18.2408 C   0  0  1  0  0  0  0  0  0  0  0  0
   22.6706  -13.4226  -18.9673 O   0  0  0  0  0  0  0  0  0  0  0  0
   22.6632  -12.1263  -16.9519 C   0  0  2  0  0  0  0  0  0  0  0  0
   21.4446  -12.8866  -16.7755 N   0  0  0  0  0  0  0  0  0  0  0  0
   22.3446  -10.6883  -16.8336 C   0  0  0  0  0  0  0  0  0  0  0  0
   23.2505   -9.8209  -16.7060 O   0  0  0  0  0  0  0  0  0  0  0  0
   21.0170  -10.2568  -16.8595 N   0  0  0  0  0  0  0  0  0  0  0  0
   20.6150   -8.8727  -16.6386 C   0  0  1  0  0  0  0  0  0  0  0  0
   19.1607   -8.7727  -16.9853 C   0  0  0  0  0  0  0  0  0  0  0  0
   18.5793   -7.3950  -16.8893 C   0  0  0  0  0  0  0  0  0  0  0  0
   17.1281   -7.5392  -17.2700 C   0  0  0  0  0  0  0  0  0  0  0  0
   16.4291   -6.4784  -17.2743 O   0  0  0  0  0  0  0  0  0  0  0  0
   20.7446   -8.5086  -15.2101 C   0  0  0  0  0  0  0  0  0  0  0  0
   20.4987   -9.3172  -14.2762 O   0  0  0  0  0  0  0  0  0  0  0  0
   16.5344   -8.7284  -17.6075 O   0  0  0  0  0  0  0  0  0  0  0  0
   22.0871   -1.1159  -16.1472 O   0  0  0  0  0  0  0  0  0  0  0  0
   22.1769   -2.3195  -15.4177 C   0  0  0  0  0  0  0  0  0  0  0  0
   22.9760   -3.3195  -15.9263 C   0  0  0  0  0  0  0  0  0  0  0  0
   23.0593   -4.5016  -15.1994 C   0  0  0  0  0  0  0  0  0  0  0  0
   22.3859   -4.6988  -14.0171 C   0  0  0  0  0  0  0  0  0  0  0  0
   22.5357   -5.9846  -13.3398 C   0  0  0  0  0  0  0  0  0  0  0  0
   21.3365   -6.8909  -13.4031 C   0  0  2  0  0  0  0  0  0  0  0  0
   21.1583   -7.2124  -14.8316 N   0  0  0  0  0  0  0  0  0  0  0  0
   20.1576   -6.1656  -12.8833 C   0  0  0  0  0  0  0  0  0  0  0  0
   20.0043   -5.8767  -11.6694 O   0  0  0  0  0  0  0  0  0  0  0  0
   21.5980   -3.6660  -13.5495 C   0  0  0  0  0  0  0  0  0  0  0  0
   21.4918   -2.4872  -14.2401 C   0  0  0  0  0  0  0  0  0  0  0  0
   19.1152   -5.7477  -13.7358 O   0  0  0  0  0  0  0  0  0  0  0  0
  2  3  1  0
  2  1  1  1
  4  2  1  0
  4  5  1  6
  6  7  2  0
  6  4  1  0
  8  6  1  0
  9  8  1  0
  9 10  1  1
 11 12  1  0
 11 10  1  0
 12 13  2  0
 14 24  1  0
 14  9  1  0
 15 14  2  0
 16 12  1  0
 18 17  1  0
 19 18  2  0
 20 19  1  0
 21 27  1  0
 21 20  2  0
 23 22  1  6
 22 21  1  0
 23 24  1  0
 23 25  1  0
 25 29  1  0
 26 25  2  0
 27 28  2  0
 28 18  1  0
M  END
$$$$
