TEY.pdb
     RDKit          3D

 29 29  0  0  1  0  0  0  0  0999 V2000
   25.9611  -17.3431  -15.1108 C   0  0  0  0  0  0  0  0  0  0  0  0
   26.4527  -16.7033  -16.3765 C   0  0  1  0  0  0  0  0  0  0  0  0
   27.7828  -16.2913  -16.2876 O   0  0  0  0  0  0  0  0  0  0  0  0
   26.2641  -17.6743  -17.5217 C   0  0  2  0  0  0  0  0  0  0  0  0
   26.6756  -17.1215  -18.7942 N   0  0  0  0  0  0  0  0  0  0  0  0
   24.8722  -18.1551  -17.6431 C   0  0  0  0  0  0  0  0  0  0  0  0
   23.9503  -17.4053  -18.0644 O   0  0  0  0  0  0  0  0  0  0  0  0
   24.5462  -19.4652  -17.2874 N   0  0  0  0  0  0  0  0  0  0  0  0
   23.1828  -19.9822  -17.2777 C   0  0  1  0  0  0  0  0  0  0  0  0
   23.2418  -21.3975  -17.7664 C   0  0  0  0  0  0  0  0  0  0  0  0
   21.9221  -22.1050  -17.8207 C   0  0  0  0  0  0  0  0  0  0  0  0
   22.2095  -23.4546  -18.4270 C   0  0  0  0  0  0  0  0  0  0  0  0
   21.8913  -24.4721  -17.7362 O   0  0  0  0  0  0  0  0  0  0  0  0
   22.6453  -20.0232  -15.8995 C   0  0  0  0  0  0  0  0  0  0  0  0
   23.3501  -20.3328  -14.9025 O   0  0  0  0  0  0  0  0  0  0  0  0
   22.7817  -23.6398  -19.6594 O   0  0  0  0  0  0  0  0  0  0  0  0
   18.2774  -14.4444  -16.8683 O   0  0  0  0  0  0  0  0  0  0  0  0
   18.8841  -15.4394  -16.0740 C   0  0  0  0  0  0  0  0  0  0  0  0
   20.2603  -15.4688  -16.0231 C   0  0  0  0  0  0  0  0  0  0  0  0
   20.8491  -16.4521  -15.2365 C   0  0  0  0  0  0  0  0  0  0  0  0
   20.1185  -17.3736  -14.5242 C   0  0  0  0  0  0  0  0  0  0  0  0
   20.8392  -18.3716  -13.7375 C   0  0  0  0  0  0  0  0  0  0  0  0
   20.7742  -19.7791  -14.2650 C   0  0  2  0  0  0  0  0  0  0  0  0
   21.2922  -19.7093  -15.6443 N   0  0  0  0  0  0  0  0  0  0  0  0
   19.3657  -20.2292  -14.2617 C   0  0  0  0  0  0  0  0  0  0  0  0
   18.6893  -20.3739  -13.2120 O   0  0  0  0  0  0  0  0  0  0  0  0
   18.7423  -17.3022  -14.6081 C   0  0  0  0  0  0  0  0  0  0  0  0
   18.1278  -16.3465  -15.3744 C   0  0  0  0  0  0  0  0  0  0  0  0
   18.6856  -20.5289  -15.4598 O   0  0  0  0  0  0  0  0  0  0  0  0
  2  3  1  0
  2  1  1  1
  4  2  1  0
  4  5  1  6
  6  7  2  0
  6  4  1  0
  8  6  1  0
  9  8  1  0
  9 10  1  1
 11 12  1  0
 11 10  1  0
 12 13  2  0
 14 24  1  0
 14  9  1  0
 15 14  2  0
 16 12  1  0
 18 17  1  0
 19 18  2  0
 20 19  1  0
 21 27  1  0
 21 20  2  0
 23 22  1  6
 22 21  1  0
 23 24  1  0
 23 25  1  0
 25 29  1  0
 26 25  2  0
 27 28  2  0
 28 18  1  0
M  END
$$$$
