TEY.pdb
     RDKit          3D

 29 29  0  0  1  0  0  0  0  0999 V2000
   19.8731   -2.8814  -22.6891 C   0  0  0  0  0  0  0  0  0  0  0  0
   19.9969   -3.7027  -21.4389 C   0  0  1  0  0  0  0  0  0  0  0  0
   18.7761   -4.2369  -21.0251 O   0  0  0  0  0  0  0  0  0  0  0  0
   21.0143   -4.7986  -21.6712 C   0  0  2  0  0  0  0  0  0  0  0  0
   20.7002   -5.6148  -22.8242 N   0  0  0  0  0  0  0  0  0  0  0  0
   21.1842   -5.6818  -20.4989 C   0  0  0  0  0  0  0  0  0  0  0  0
   20.7501   -6.8655  -20.4971 O   0  0  0  0  0  0  0  0  0  0  0  0
   21.8354   -5.2163  -19.3551 N   0  0  0  0  0  0  0  0  0  0  0  0
   21.9537   -5.9891  -18.1242 C   0  0  1  0  0  0  0  0  0  0  0  0
   23.1343   -5.4511  -17.3746 C   0  0  0  0  0  0  0  0  0  0  0  0
   23.3570   -6.0576  -16.0227 C   0  0  0  0  0  0  0  0  0  0  0  0
   24.5503   -5.3391  -15.4468 C   0  0  0  0  0  0  0  0  0  0  0  0
   25.6730   -5.9258  -15.5427 O   0  0  0  0  0  0  0  0  0  0  0  0
   20.7675   -5.7902  -17.2620 C   0  0  0  0  0  0  0  0  0  0  0  0
   20.3065   -4.6499  -16.9902 O   0  0  0  0  0  0  0  0  0  0  0  0
   24.4914   -4.1108  -14.8399 O   0  0  0  0  0  0  0  0  0  0  0  0
   18.8712  -13.1089  -15.6272 O   0  0  0  0  0  0  0  0  0  0  0  0
   18.6400  -11.7329  -15.8330 C   0  0  0  0  0  0  0  0  0  0  0  0
   17.8739  -11.0654  -14.9031 C   0  0  0  0  0  0  0  0  0  0  0  0
   17.6527   -9.7092  -15.1136 C   0  0  0  0  0  0  0  0  0  0  0  0
   18.1628   -9.0296  -16.1944 C   0  0  0  0  0  0  0  0  0  0  0  0
   17.8596   -7.6064  -16.3248 C   0  0  0  0  0  0  0  0  0  0  0  0
   18.9263   -6.6709  -15.8243 C   0  0  2  0  0  0  0  0  0  0  0  0
   20.0923   -6.8957  -16.6992 N   0  0  0  0  0  0  0  0  0  0  0  0
   19.2528   -7.0186  -14.4248 C   0  0  0  0  0  0  0  0  0  0  0  0
   20.2891   -7.6484  -14.0933 O   0  0  0  0  0  0  0  0  0  0  0  0
   18.9243   -9.7436  -17.0980 C   0  0  0  0  0  0  0  0  0  0  0  0
   19.1623  -11.0817  -16.9226 C   0  0  0  0  0  0  0  0  0  0  0  0
   18.4037   -6.6572  -13.3588 O   0  0  0  0  0  0  0  0  0  0  0  0
  2  3  1  0
  2  1  1  6
  4  2  1  0
  4  5  1  6
  6  7  2  0
  6  4  1  0
  8  6  1  0
  9  8  1  0
  9 10  1  1
 11 12  1  0
 11 10  1  0
 12 13  2  0
 14 24  1  0
 14  9  1  0
 15 14  2  0
 16 12  1  0
 18 17  1  0
 19 18  2  0
 20 19  1  0
 21 27  1  0
 21 20  2  0
 23 22  1  6
 22 21  1  0
 23 24  1  0
 23 25  1  0
 25 29  1  0
 26 25  2  0
 27 28  2  0
 28 18  1  0
M  END
$$$$
