TEY.pdb
     RDKit          3D

 29 29  0  0  1  0  0  0  0  0999 V2000
   15.0445   -9.2066  -14.6186 C   0  0  0  0  0  0  0  0  0  0  0  0
   15.6929  -10.5603  -14.6046 C   0  0  1  0  0  0  0  0  0  0  0  0
   15.3001  -11.3543  -15.6827 O   0  0  0  0  0  0  0  0  0  0  0  0
   17.1957  -10.3837  -14.5840 C   0  0  2  0  0  0  0  0  0  0  0  0
   17.9056  -11.6408  -14.6822 N   0  0  0  0  0  0  0  0  0  0  0  0
   17.6725   -9.6639  -13.3849 C   0  0  0  0  0  0  0  0  0  0  0  0
   17.5901  -10.1731  -12.2345 O   0  0  0  0  0  0  0  0  0  0  0  0
   18.2290   -8.3891  -13.5038 N   0  0  0  0  0  0  0  0  0  0  0  0
   18.7334   -7.6210  -12.3715 C   0  0  1  0  0  0  0  0  0  0  0  0
   19.8742   -6.7890  -12.8731 C   0  0  0  0  0  0  0  0  0  0  0  0
   20.5509   -5.9484  -11.8335 C   0  0  0  0  0  0  0  0  0  0  0  0
   21.6941   -5.2684  -12.5422 C   0  0  0  0  0  0  0  0  0  0  0  0
   21.5359   -4.0435  -12.8398 O   0  0  0  0  0  0  0  0  0  0  0  0
   17.7032   -6.6843  -11.8703 C   0  0  0  0  0  0  0  0  0  0  0  0
   16.9317   -6.0473  -12.6355 O   0  0  0  0  0  0  0  0  0  0  0  0
   22.8723   -5.8868  -12.8741 O   0  0  0  0  0  0  0  0  0  0  0  0
   12.0428  -10.1740   -9.2921 O   0  0  0  0  0  0  0  0  0  0  0  0
   13.0552   -9.2027   -9.1484 C   0  0  0  0  0  0  0  0  0  0  0  0
   12.6688   -7.8855   -9.0346 C   0  0  0  0  0  0  0  0  0  0  0  0
   13.6738   -6.9357   -8.8918 C   0  0  0  0  0  0  0  0  0  0  0  0
   15.0090   -7.2620   -8.8608 C   0  0  0  0  0  0  0  0  0  0  0  0
   15.9834   -6.1830   -8.7178 C   0  0  0  0  0  0  0  0  0  0  0  0
   16.4671   -5.5752  -10.0063 C   0  0  2  0  0  0  0  0  0  0  0  0
   17.5423   -6.4646  -10.4845 N   0  0  0  0  0  0  0  0  0  0  0  0
   16.9965   -4.2224   -9.7310 C   0  0  0  0  0  0  0  0  0  0  0  0
   18.2208   -3.9390   -9.7684 O   0  0  0  0  0  0  0  0  0  0  0  0
   15.3447   -8.5960   -8.9787 C   0  0  0  0  0  0  0  0  0  0  0  0
   14.3805   -9.5593   -9.1215 C   0  0  0  0  0  0  0  0  0  0  0  0
   16.1421   -3.1498   -9.4034 O   0  0  0  0  0  0  0  0  0  0  0  0
  2  3  1  0
  2  1  1  6
  4  2  1  0
  4  5  1  1
  6  7  2  0
  6  4  1  0
  8  6  1  0
  9  8  1  0
  9 10  1  6
 11 12  1  0
 11 10  1  0
 12 13  2  0
 14 24  1  0
 14  9  1  0
 15 14  2  0
 16 12  1  0
 18 17  1  0
 19 18  2  0
 20 19  1  0
 21 27  1  0
 21 20  2  0
 23 22  1  1
 22 21  1  0
 23 24  1  0
 23 25  1  0
 25 29  1  0
 26 25  2  0
 27 28  2  0
 28 18  1  0
M  END
$$$$
