TEY.pdb
     RDKit          3D

 29 29  0  0  1  0  0  0  0  0999 V2000
   13.9660   -9.2278  -14.8621 C   0  0  0  0  0  0  0  0  0  0  0  0
   13.5163  -10.3191  -13.9348 C   0  0  1  0  0  0  0  0  0  0  0  0
   12.1273  -10.4413  -13.8843 O   0  0  0  0  0  0  0  0  0  0  0  0
   14.1572  -11.6212  -14.3633 C   0  0  2  0  0  0  0  0  0  0  0  0
   13.6861  -12.7533  -13.5947 N   0  0  0  0  0  0  0  0  0  0  0  0
   15.6327  -11.5844  -14.2947 C   0  0  0  0  0  0  0  0  0  0  0  0
   16.2403  -11.5424  -13.1909 O   0  0  0  0  0  0  0  0  0  0  0  0
   16.3925  -11.5938  -15.4660 N   0  0  0  0  0  0  0  0  0  0  0  0
   17.8396  -11.4161  -15.4894 C   0  0  1  0  0  0  0  0  0  0  0  0
   18.3406  -12.0264  -16.7629 C   0  0  0  0  0  0  0  0  0  0  0  0
   18.2704  -13.5221  -16.8196 C   0  0  0  0  0  0  0  0  0  0  0  0
   18.0446  -13.8632  -18.2703 C   0  0  0  0  0  0  0  0  0  0  0  0
   19.0506  -13.7792  -19.0416 O   0  0  0  0  0  0  0  0  0  0  0  0
   18.1928   -9.9796  -15.5306 C   0  0  0  0  0  0  0  0  0  0  0  0
   17.4472   -9.1097  -16.0541 O   0  0  0  0  0  0  0  0  0  0  0  0
   16.8378  -14.2537  -18.7914 O   0  0  0  0  0  0  0  0  0  0  0  0
   23.1732   -2.7256  -14.1309 O   0  0  0  0  0  0  0  0  0  0  0  0
   22.6424   -4.0318  -14.1660 C   0  0  0  0  0  0  0  0  0  0  0  0
   21.5372   -4.2960  -13.3875 C   0  0  0  0  0  0  0  0  0  0  0  0
   21.0203   -5.5858  -13.4299 C   0  0  0  0  0  0  0  0  0  0  0  0
   21.5642   -6.5817  -14.2062 C   0  0  0  0  0  0  0  0  0  0  0  0
   20.9478   -7.9057  -14.1675 C   0  0  0  0  0  0  0  0  0  0  0  0
   19.7599   -8.0913  -15.0719 C   0  0  2  0  0  0  0  0  0  0  0  0
   19.4055   -9.5196  -14.9719 N   0  0  0  0  0  0  0  0  0  0  0  0
   20.1514   -7.7493  -16.4562 C   0  0  0  0  0  0  0  0  0  0  0  0
   20.7471   -8.5479  -17.2227 O   0  0  0  0  0  0  0  0  0  0  0  0
   22.6713   -6.2665  -14.9684 C   0  0  0  0  0  0  0  0  0  0  0  0
   23.2079   -5.0057  -14.9509 C   0  0  0  0  0  0  0  0  0  0  0  0
   19.8742   -6.4818  -17.0080 O   0  0  0  0  0  0  0  0  0  0  0  0
  2  3  1  0
  2  1  1  6
  4  2  1  0
  4  5  1  1
  6  7  2  0
  6  4  1  0
  8  6  1  0
  9  8  1  0
  9 10  1  6
 11 12  1  0
 11 10  1  0
 12 13  2  0
 14 24  1  0
 14  9  1  0
 15 14  2  0
 16 12  1  0
 18 17  1  0
 19 18  2  0
 20 19  1  0
 21 27  1  0
 21 20  2  0
 23 22  1  1
 22 21  1  0
 23 24  1  0
 23 25  1  0
 25 29  1  0
 26 25  2  0
 27 28  2  0
 28 18  1  0
M  END
$$$$
