TEY.pdb
     RDKit          3D

 29 29  0  0  1  0  0  0  0  0999 V2000
   16.5978  -12.2318  -16.1040 C   0  0  0  0  0  0  0  0  0  0  0  0
   17.4961  -13.4277  -15.9774 C   0  0  1  0  0  0  0  0  0  0  0  0
   16.8036  -14.6334  -16.0950 O   0  0  0  0  0  0  0  0  0  0  0  0
   18.5907  -13.3307  -17.0178 C   0  0  2  0  0  0  0  0  0  0  0  0
   19.4642  -14.4845  -17.0165 N   0  0  0  0  0  0  0  0  0  0  0  0
   19.4152  -12.1134  -16.8714 C   0  0  0  0  0  0  0  0  0  0  0  0
   20.3635  -12.0554  -16.0426 O   0  0  0  0  0  0  0  0  0  0  0  0
   19.1559  -10.9886  -17.6568 N   0  0  0  0  0  0  0  0  0  0  0  0
   19.8962   -9.7376  -17.5424 C   0  0  1  0  0  0  0  0  0  0  0  0
   19.5594   -8.9114  -18.7462 C   0  0  0  0  0  0  0  0  0  0  0  0
   20.2016   -7.5581  -18.7862 C   0  0  0  0  0  0  0  0  0  0  0  0
   19.7523   -6.9337  -20.0824 C   0  0  0  0  0  0  0  0  0  0  0  0
   20.3614   -7.2995  -21.1355 O   0  0  0  0  0  0  0  0  0  0  0  0
   19.4550   -8.9716  -16.3555 C   0  0  0  0  0  0  0  0  0  0  0  0
   18.2563   -8.9442  -15.9696 O   0  0  0  0  0  0  0  0  0  0  0  0
   18.7410   -6.0131  -20.1846 O   0  0  0  0  0  0  0  0  0  0  0  0
   20.1304   -4.5971   -8.6839 O   0  0  0  0  0  0  0  0  0  0  0  0
   20.3262   -5.3740   -9.8445 C   0  0  0  0  0  0  0  0  0  0  0  0
   21.0036   -4.7968  -10.8959 C   0  0  0  0  0  0  0  0  0  0  0  0
   21.1931   -5.5709  -12.0349 C   0  0  0  0  0  0  0  0  0  0  0  0
   20.7371   -6.8635  -12.1422 C   0  0  0  0  0  0  0  0  0  0  0  0
   20.9812   -7.5837  -13.3896 C   0  0  0  0  0  0  0  0  0  0  0  0
   19.9115   -7.4400  -14.4377 C   0  0  2  0  0  0  0  0  0  0  0  0
   20.3817   -8.2264  -15.5936 N   0  0  0  0  0  0  0  0  0  0  0  0
   19.7816   -6.0122  -14.7996 C   0  0  0  0  0  0  0  0  0  0  0  0
   19.0156   -5.2150  -14.2012 O   0  0  0  0  0  0  0  0  0  0  0  0
   20.0640   -7.3965  -11.0609 C   0  0  0  0  0  0  0  0  0  0  0  0
   19.8585   -6.6622   -9.9222 C   0  0  0  0  0  0  0  0  0  0  0  0
   20.5238   -5.4504  -15.8585 O   0  0  0  0  0  0  0  0  0  0  0  0
  2  3  1  0
  2  1  1  6
  4  2  1  0
  4  5  1  1
  6  7  2  0
  6  4  1  0
  8  6  1  0
  9  8  1  0
  9 10  1  6
 11 12  1  0
 11 10  1  0
 12 13  2  0
 14 24  1  0
 14  9  1  0
 15 14  2  0
 16 12  1  0
 18 17  1  0
 19 18  2  0
 20 19  1  0
 21 27  1  0
 21 20  2  0
 23 22  1  1
 22 21  1  0
 23 24  1  0
 23 25  1  0
 25 29  1  0
 26 25  2  0
 27 28  2  0
 28 18  1  0
M  END
$$$$
