TEY.pdb
     RDKit          3D

 29 29  0  0  1  0  0  0  0  0999 V2000
   28.4160  -23.0772  -15.9814 C   0  0  0  0  0  0  0  0  0  0  0  0
   28.8542  -22.2184  -17.1319 C   0  0  1  0  0  0  0  0  0  0  0  0
   29.5301  -22.9425  -18.1146 O   0  0  0  0  0  0  0  0  0  0  0  0
   27.6430  -21.5216  -17.7124 C   0  0  2  0  0  0  0  0  0  0  0  0
   27.9756  -20.6658  -18.8310 N   0  0  0  0  0  0  0  0  0  0  0  0
   26.9045  -20.7248  -16.7109 C   0  0  0  0  0  0  0  0  0  0  0  0
   27.2588  -19.5530  -16.4096 O   0  0  0  0  0  0  0  0  0  0  0  0
   25.7867  -21.2615  -16.0693 N   0  0  0  0  0  0  0  0  0  0  0  0
   25.0652  -20.5790  -15.0016 C   0  0  1  0  0  0  0  0  0  0  0  0
   23.6123  -20.9047  -15.1697 C   0  0  0  0  0  0  0  0  0  0  0  0
   22.7119  -20.3533  -14.1064 C   0  0  0  0  0  0  0  0  0  0  0  0
   21.3281  -20.8390  -14.4543 C   0  0  0  0  0  0  0  0  0  0  0  0
   20.9870  -21.9732  -13.9949 O   0  0  0  0  0  0  0  0  0  0  0  0
   25.4734  -21.0963  -13.6765 C   0  0  0  0  0  0  0  0  0  0  0  0
   25.4583  -22.3228  -13.3900 O   0  0  0  0  0  0  0  0  0  0  0  0
   20.4349  -20.1363  -15.2217 O   0  0  0  0  0  0  0  0  0  0  0  0
   28.5414  -20.7299   -5.3391 O   0  0  0  0  0  0  0  0  0  0  0  0
   28.1754  -20.4457   -6.6711 C   0  0  0  0  0  0  0  0  0  0  0  0
   28.6131  -21.3058   -7.6539 C   0  0  0  0  0  0  0  0  0  0  0  0
   28.2461  -21.0182   -8.9635 C   0  0  0  0  0  0  0  0  0  0  0  0
   27.4779  -19.9288   -9.3003 C   0  0  0  0  0  0  0  0  0  0  0  0
   27.1592  -19.7141  -10.7098 C   0  0  0  0  0  0  0  0  0  0  0  0
   26.2648  -20.7503  -11.3343 C   0  0  2  0  0  0  0  0  0  0  0  0
   25.9050  -20.2151  -12.6608 N   0  0  0  0  0  0  0  0  0  0  0  0
   25.0581  -20.9124  -10.4953 C   0  0  0  0  0  0  0  0  0  0  0  0
   24.0143  -20.2285  -10.6473 O   0  0  0  0  0  0  0  0  0  0  0  0
   27.0642  -19.0971   -8.2790 C   0  0  0  0  0  0  0  0  0  0  0  0
   27.4077  -19.3495   -6.9765 C   0  0  0  0  0  0  0  0  0  0  0  0
   25.0068  -21.8624   -9.4547 O   0  0  0  0  0  0  0  0  0  0  0  0
  2  3  1  0
  2  1  1  1
  4  2  1  0
  4  5  1  6
  6  7  2  0
  6  4  1  0
  8  6  1  0
  9  8  1  0
  9 10  1  6
 11 12  1  0
 11 10  1  0
 12 13  2  0
 14 24  1  0
 14  9  1  0
 15 14  2  0
 16 12  1  0
 18 17  1  0
 19 18  2  0
 20 19  1  0
 21 27  1  0
 21 20  2  0
 23 22  1  1
 22 21  1  0
 23 24  1  0
 23 25  1  0
 25 29  1  0
 26 25  2  0
 27 28  2  0
 28 18  1  0
M  END
$$$$
