TEY.pdb
     RDKit          3D

 29 29  0  0  1  0  0  0  0  0999 V2000
   25.6689  -25.4750  -18.3560 C   0  0  0  0  0  0  0  0  0  0  0  0
   26.6959  -26.3928  -17.7595 C   0  0  1  0  0  0  0  0  0  0  0  0
   27.1974  -27.3096  -18.6842 O   0  0  0  0  0  0  0  0  0  0  0  0
   27.8114  -25.5602  -17.1660 C   0  0  2  0  0  0  0  0  0  0  0  0
   28.7918  -26.3612  -16.4649 N   0  0  0  0  0  0  0  0  0  0  0  0
   27.3189  -24.5089  -16.2520 C   0  0  0  0  0  0  0  0  0  0  0  0
   26.8900  -24.7858  -15.0992 O   0  0  0  0  0  0  0  0  0  0  0  0
   27.3171  -23.1716  -16.6529 N   0  0  0  0  0  0  0  0  0  0  0  0
   26.8684  -22.0757  -15.8020 C   0  0  1  0  0  0  0  0  0  0  0  0
   27.1881  -20.7989  -16.5181 C   0  0  0  0  0  0  0  0  0  0  0  0
   26.3270  -20.5074  -17.7092 C   0  0  0  0  0  0  0  0  0  0  0  0
   26.7808  -19.1635  -18.2192 C   0  0  0  0  0  0  0  0  0  0  0  0
   27.9813  -19.0813  -18.6264 O   0  0  0  0  0  0  0  0  0  0  0  0
   25.3999  -22.1151  -15.6239 C   0  0  0  0  0  0  0  0  0  0  0  0
   24.6764  -23.0140  -16.1288 O   0  0  0  0  0  0  0  0  0  0  0  0
   25.9838  -18.0487  -18.2687 O   0  0  0  0  0  0  0  0  0  0  0  0
   25.5151  -20.5494   -8.4825 O   0  0  0  0  0  0  0  0  0  0  0  0
   25.0066  -21.0069   -9.7158 C   0  0  0  0  0  0  0  0  0  0  0  0
   23.6711  -20.7944   -9.9773 C   0  0  0  0  0  0  0  0  0  0  0  0
   23.1794  -21.2475  -11.1961 C   0  0  0  0  0  0  0  0  0  0  0  0
   23.9655  -21.8852  -12.1264 C   0  0  0  0  0  0  0  0  0  0  0  0
   23.3439  -22.3306  -13.3712 C   0  0  0  0  0  0  0  0  0  0  0  0
   23.3276  -21.3172  -14.4831 C   0  0  2  0  0  0  0  0  0  0  0  0
   24.7395  -21.1246  -14.8639 N   0  0  0  0  0  0  0  0  0  0  0  0
   22.7504  -20.0545  -13.9744 C   0  0  0  0  0  0  0  0  0  0  0  0
   23.4172  -18.9983  -13.8318 O   0  0  0  0  0  0  0  0  0  0  0  0
   25.2977  -22.0742  -11.8170 C   0  0  0  0  0  0  0  0  0  0  0  0
   25.8165  -21.6411  -10.6248 C   0  0  0  0  0  0  0  0  0  0  0  0
   21.3912  -19.9595  -13.6119 O   0  0  0  0  0  0  0  0  0  0  0  0
  2  3  1  0
  2  1  1  6
  4  2  1  0
  4  5  1  1
  6  7  2  0
  6  4  1  0
  8  6  1  0
  9  8  1  0
  9 10  1  6
 11 12  1  0
 11 10  1  0
 12 13  2  0
 14 24  1  0
 14  9  1  0
 15 14  2  0
 16 12  1  0
 18 17  1  0
 19 18  2  0
 20 19  1  0
 21 27  1  0
 21 20  2  0
 23 22  1  1
 22 21  1  0
 23 24  1  0
 23 25  1  0
 25 29  1  0
 26 25  2  0
 27 28  2  0
 28 18  1  0
M  END
$$$$
