TEY.pdb
     RDKit          3D

 29 29  0  0  1  0  0  0  0  0999 V2000
   25.9752  -11.1820  -15.2020 C   0  0  0  0  0  0  0  0  0  0  0  0
   26.5151  -11.2684  -16.5999 C   0  0  1  0  0  0  0  0  0  0  0  0
   27.7272  -11.9566  -16.6651 O   0  0  0  0  0  0  0  0  0  0  0  0
   25.4765  -11.9198  -17.4869 C   0  0  2  0  0  0  0  0  0  0  0  0
   25.9445  -12.1140  -18.8424 N   0  0  0  0  0  0  0  0  0  0  0  0
   24.2050  -11.1684  -17.5289 C   0  0  0  0  0  0  0  0  0  0  0  0
   24.0688  -10.1433  -18.2501 O   0  0  0  0  0  0  0  0  0  0  0  0
   23.1163  -11.5831  -16.7596 N   0  0  0  0  0  0  0  0  0  0  0  0
   21.8601  -10.8470  -16.6778 C   0  0  1  0  0  0  0  0  0  0  0  0
   20.7538  -11.8576  -16.6709 C   0  0  0  0  0  0  0  0  0  0  0  0
   20.3463  -12.3607  -18.0223 C   0  0  0  0  0  0  0  0  0  0  0  0
   19.2216  -13.3323  -17.7716 C   0  0  0  0  0  0  0  0  0  0  0  0
   18.8264  -13.4531  -16.5703 O   0  0  0  0  0  0  0  0  0  0  0  0
   21.7703  -10.0994  -15.4038 C   0  0  0  0  0  0  0  0  0  0  0  0
   22.2708  -10.5235  -14.3286 O   0  0  0  0  0  0  0  0  0  0  0  0
   18.6127  -14.0756  -18.7501 O   0  0  0  0  0  0  0  0  0  0  0  0
   24.3520   -3.0856  -16.6940 O   0  0  0  0  0  0  0  0  0  0  0  0
   23.8897   -4.2129  -15.9838 C   0  0  0  0  0  0  0  0  0  0  0  0
   24.5129   -5.4187  -16.2187 C   0  0  0  0  0  0  0  0  0  0  0  0
   24.0512   -6.5238  -15.5130 C   0  0  0  0  0  0  0  0  0  0  0  0
   23.0175   -6.4526  -14.6093 C   0  0  0  0  0  0  0  0  0  0  0  0
   22.6045   -7.6784  -13.9301 C   0  0  0  0  0  0  0  0  0  0  0  0
   21.1590   -8.0572  -14.1046 C   0  0  2  0  0  0  0  0  0  0  0  0
   21.1056   -8.8548  -15.3443 N   0  0  0  0  0  0  0  0  0  0  0  0
   20.3526   -6.8257  -14.2447 C   0  0  0  0  0  0  0  0  0  0  0  0
   20.1327   -6.0325  -13.2946 O   0  0  0  0  0  0  0  0  0  0  0  0
   22.4259   -5.2214  -14.4093 C   0  0  0  0  0  0  0  0  0  0  0  0
   22.8546   -4.1107  -15.0880 C   0  0  0  0  0  0  0  0  0  0  0  0
   19.7713   -6.4622  -15.4767 O   0  0  0  0  0  0  0  0  0  0  0  0
  2  3  1  0
  2  1  1  1
  4  2  1  0
  4  5  1  6
  6  7  2  0
  6  4  1  0
  8  6  1  0
  9  8  1  0
  9 10  1  1
 11 12  1  0
 11 10  1  0
 12 13  2  0
 14 24  1  0
 14  9  1  0
 15 14  2  0
 16 12  1  0
 18 17  1  0
 19 18  2  0
 20 19  1  0
 21 27  1  0
 21 20  2  0
 23 22  1  6
 22 21  1  0
 23 24  1  0
 23 25  1  0
 25 29  1  0
 26 25  2  0
 27 28  2  0
 28 18  1  0
M  END
$$$$
