TEY.pdb
     RDKit          3D

 29 29  0  0  1  0  0  0  0  0999 V2000
   18.4561  -14.6113  -19.0482 C   0  0  0  0  0  0  0  0  0  0  0  0
   18.8500  -13.3144  -18.4033 C   0  0  1  0  0  0  0  0  0  0  0  0
   18.3388  -13.1808  -17.1118 O   0  0  0  0  0  0  0  0  0  0  0  0
   20.3594  -13.2075  -18.3997 C   0  0  2  0  0  0  0  0  0  0  0  0
   20.9955  -14.3260  -17.7376 N   0  0  0  0  0  0  0  0  0  0  0  0
   20.8445  -11.9552  -17.7833 C   0  0  0  0  0  0  0  0  0  0  0  0
   21.4297  -11.9539  -16.6666 O   0  0  0  0  0  0  0  0  0  0  0  0
   20.6603  -10.7333  -18.4330 N   0  0  0  0  0  0  0  0  0  0  0  0
   21.1573   -9.4632  -17.9170 C   0  0  1  0  0  0  0  0  0  0  0  0
   21.0771   -8.4687  -19.0350 C   0  0  0  0  0  0  0  0  0  0  0  0
   21.5669   -7.0936  -18.6965 C   0  0  0  0  0  0  0  0  0  0  0  0
   21.3484   -6.2677  -19.9383 C   0  0  0  0  0  0  0  0  0  0  0  0
   20.6059   -5.2435  -19.8213 O   0  0  0  0  0  0  0  0  0  0  0  0
   20.2888   -8.9611  -16.8291 C   0  0  0  0  0  0  0  0  0  0  0  0
   19.0602   -9.2298  -16.7595 O   0  0  0  0  0  0  0  0  0  0  0  0
   21.8980   -6.5546  -21.1614 O   0  0  0  0  0  0  0  0  0  0  0  0
   17.3892   -6.8754   -8.9193 O   0  0  0  0  0  0  0  0  0  0  0  0
   18.1273   -7.2694  -10.0546 C   0  0  0  0  0  0  0  0  0  0  0  0
   18.8525   -6.3026  -10.7154 C   0  0  0  0  0  0  0  0  0  0  0  0
   19.5780   -6.7009  -11.8323 C   0  0  0  0  0  0  0  0  0  0  0  0
   19.5943   -7.9984  -12.2868 C   0  0  0  0  0  0  0  0  0  0  0  0
   20.3825   -8.3061  -13.4778 C   0  0  0  0  0  0  0  0  0  0  0  0
   19.9256   -7.6358  -14.7449 C   0  0  2  0  0  0  0  0  0  0  0  0
   20.8164   -8.1441  -15.8050 N   0  0  0  0  0  0  0  0  0  0  0  0
   20.0777   -6.1725  -14.5966 C   0  0  0  0  0  0  0  0  0  0  0  0
   21.1282   -5.5529  -14.9015 O   0  0  0  0  0  0  0  0  0  0  0  0
   18.8511   -8.9300  -11.5899 C   0  0  0  0  0  0  0  0  0  0  0  0
   18.1235   -8.5730  -10.4849 C   0  0  0  0  0  0  0  0  0  0  0  0
   19.0325   -5.3706  -14.0941 O   0  0  0  0  0  0  0  0  0  0  0  0
  2  3  1  0
  2  1  1  1
  4  2  1  0
  4  5  1  1
  6  7  2  0
  6  4  1  0
  8  6  1  0
  9  8  1  0
  9 10  1  6
 11 12  1  0
 11 10  1  0
 12 13  2  0
 14 24  1  0
 14  9  1  0
 15 14  2  0
 16 12  1  0
 18 17  1  0
 19 18  2  0
 20 19  1  0
 21 27  1  0
 21 20  2  0
 23 22  1  1
 22 21  1  0
 23 24  1  0
 23 25  1  0
 25 29  1  0
 26 25  2  0
 27 28  2  0
 28 18  1  0
M  END
$$$$
