ERL.pdb
     RDKit          3D

 29 28  0  0  1  0  0  0  0  0999 V2000
   10.2625  -14.9783   18.8781 N   0  0  0  0  0  0  0  0  0  0  0  0
    8.9160  -14.4835   18.9949 C   0  0  1  0  0  0  0  0  0  0  0  0
    8.0884  -14.7618   17.7844 C   0  0  0  0  0  0  0  0  0  0  0  0
    8.0845  -13.6140   16.7991 C   0  0  0  0  0  0  0  0  0  0  0  0
    8.1845  -14.1874   15.4204 C   0  0  0  0  0  0  0  0  0  0  0  0
    9.2076  -14.7961   15.0158 O   0  0  0  0  0  0  0  0  0  0  0  0
    8.3069  -14.9292   20.2594 C   0  0  0  0  0  0  0  0  0  0  0  0
    7.2038  -14.5094   20.6902 O   0  0  0  0  0  0  0  0  0  0  0  0
    7.1313  -14.0708   14.5084 O   0  0  0  0  0  0  0  0  0  0  0  0
   12.2705  -20.6160   26.2773 N   0  0  0  0  0  0  0  0  0  0  0  0
   11.9963  -20.3847   24.9105 C   0  0  0  0  0  0  0  0  0  0  0  0
   12.2730  -21.2512   23.9980 N   0  0  0  0  0  0  0  0  0  0  0  0
   11.3912  -19.1576   24.4899 N   0  0  0  0  0  0  0  0  0  0  0  0
   11.0850  -18.9654   23.0883 C   0  0  0  0  0  0  0  0  0  0  0  0
   10.5118  -17.5932   22.8248 C   0  0  0  0  0  0  0  0  0  0  0  0
    9.0271  -17.6217   22.6850 C   0  0  0  0  0  0  0  0  0  0  0  0
    8.4185  -16.2909   22.3321 C   0  0  2  0  0  0  0  0  0  0  0  0
    8.9841  -15.8887   21.0584 N   0  0  0  0  0  0  0  0  0  0  0  0
    8.7275  -15.2509   23.3484 C   0  0  0  0  0  0  0  0  0  0  0  0
    9.7062  -14.4733   23.2254 O   0  0  0  0  0  0  0  0  0  0  0  0
   12.1494  -21.0596   23.0014 C   0  0  0  0  0  0  0  0  0  0  0  0
    7.5472  -11.0838   26.1854 C   0  0  2  0  0  0  0  0  0  0  0  0
    6.7606  -12.3072   26.7481 C   0  0  0  0  0  0  0  0  0  0  0  0
    5.3468  -11.7980   26.9365 C   0  0  0  0  0  0  0  0  0  0  0  0
    6.9134  -13.3658   25.7363 C   0  0  1  0  0  0  0  0  0  0  0  0
    8.1922  -14.0706   25.5340 N   0  0  0  0  0  0  0  0  0  0  0  0
    7.9121  -15.1078   24.5010 C   0  0  0  0  0  0  0  0  0  0  0  0
    8.7859  -14.7245   26.6975 O   0  0  0  0  0  0  0  0  0  0  0  0
    9.4097  -13.9885   27.5349 O   0  0  0  0  0  0  0  0  0  0  0  0
  2  1  1  6
  2  7  1  0
  2  3  1  0
  3  4  1  0
  4  5  1  0
  5  6  2  0
  7  8  2  0
  9  5  1  0
 11 13  1  0
 11 10  1  0
 12 11  2  0
 14 15  1  0
 14 13  1  0
 17 16  1  1
 16 15  1  0
 18 17  1  0
 18  7  1  0
 19 20  2  0
 19 17  1  0
 22 21  1  1
 22 24  1  0
 23 22  1  0
 25 24  1  6
 25 27  1  0
 25 26  1  0
 26 19  1  0
 27 29  1  0
 28 27  2  0
M  END
$$$$
