ERL.pdb
     RDKit          3D

 29 28  0  0  1  0  0  0  0  0999 V2000
   10.1670  -13.8555   18.9627 N   0  0  0  0  0  0  0  0  0  0  0  0
    8.7812  -13.6810   19.3102 C   0  0  1  0  0  0  0  0  0  0  0  0
    7.8686  -13.8012   18.1353 C   0  0  0  0  0  0  0  0  0  0  0  0
    8.6117  -13.8726   16.8196 C   0  0  0  0  0  0  0  0  0  0  0  0
    7.6023  -14.0317   15.7262 C   0  0  0  0  0  0  0  0  0  0  0  0
    6.9387  -15.0882   15.5697 O   0  0  0  0  0  0  0  0  0  0  0  0
    8.4187  -14.5429   20.4480 C   0  0  0  0  0  0  0  0  0  0  0  0
    7.2886  -14.5376   20.9969 O   0  0  0  0  0  0  0  0  0  0  0  0
    7.3483  -12.9996   14.8180 O   0  0  0  0  0  0  0  0  0  0  0  0
    9.6335  -21.8971   19.6333 N   0  0  0  0  0  0  0  0  0  0  0  0
    9.9560  -20.5996   19.1758 C   0  0  0  0  0  0  0  0  0  0  0  0
    9.2127  -19.9618   18.3386 N   0  0  0  0  0  0  0  0  0  0  0  0
   11.1404  -19.9416   19.6372 N   0  0  0  0  0  0  0  0  0  0  0  0
   11.1048  -19.2215   20.8923 C   0  0  0  0  0  0  0  0  0  0  0  0
   10.0990  -18.0954   20.8618 C   0  0  0  0  0  0  0  0  0  0  0  0
    9.9936  -17.4003   22.1773 C   0  0  0  0  0  0  0  0  0  0  0  0
    9.0758  -16.2071   22.1689 C   0  0  2  0  0  0  0  0  0  0  0  0
    9.3836  -15.4419   20.9757 N   0  0  0  0  0  0  0  0  0  0  0  0
    9.2754  -15.3433   23.3622 C   0  0  0  0  0  0  0  0  0  0  0  0
   10.3180  -14.6609   23.5202 O   0  0  0  0  0  0  0  0  0  0  0  0
    8.6979  -20.4317   17.5905 C   0  0  0  0  0  0  0  0  0  0  0  0
    7.9875  -11.6929   26.8726 C   0  0  2  0  0  0  0  0  0  0  0  0
    7.0765  -12.9409   27.0836 C   0  0  0  0  0  0  0  0  0  0  0  0
    5.6845  -12.3716   27.2613 C   0  0  0  0  0  0  0  0  0  0  0  0
    7.2644  -13.7670   25.8794 C   0  0  1  0  0  0  0  0  0  0  0  0
    8.5058  -14.5256   25.6416 N   0  0  0  0  0  0  0  0  0  0  0  0
    8.2778  -15.2664   24.3686 C   0  0  0  0  0  0  0  0  0  0  0  0
    8.9108  -15.4827   26.6680 O   0  0  0  0  0  0  0  0  0  0  0  0
    9.5940  -15.0398   27.6524 O   0  0  0  0  0  0  0  0  0  0  0  0
  2  1  1  6
  2  7  1  0
  2  3  1  0
  3  4  1  0
  4  5  1  0
  5  6  2  0
  7  8  2  0
  9  5  1  0
 11 13  1  0
 11 10  1  0
 12 11  2  0
 14 15  1  0
 14 13  1  0
 17 16  1  1
 16 15  1  0
 18 17  1  0
 18  7  1  0
 19 20  2  0
 19 17  1  0
 22 21  1  1
 22 24  1  0
 23 22  1  0
 25 24  1  6
 25 27  1  0
 25 26  1  0
 26 19  1  0
 27 29  1  0
 28 27  2  0
M  END
$$$$
