ERL.pdb
     RDKit          3D

 29 28  0  0  1  0  0  0  0  0999 V2000
    8.9887  -18.8044   21.2169 N   0  0  0  0  0  0  0  0  0  0  0  0
   10.3991  -18.5179   21.2349 C   0  0  1  0  0  0  0  0  0  0  0  0
   11.1112  -19.0318   20.0281 C   0  0  0  0  0  0  0  0  0  0  0  0
   10.5225  -20.3232   19.5045 C   0  0  0  0  0  0  0  0  0  0  0  0
   11.3382  -20.7601   18.3283 C   0  0  0  0  0  0  0  0  0  0  0  0
   12.4553  -21.3234   18.4543 O   0  0  0  0  0  0  0  0  0  0  0  0
   10.6356  -17.0916   21.5149 C   0  0  0  0  0  0  0  0  0  0  0  0
   11.7760  -16.5653   21.5476 O   0  0  0  0  0  0  0  0  0  0  0  0
   10.8893  -20.5591   17.0196 O   0  0  0  0  0  0  0  0  0  0  0  0
    8.2756  -15.3152   17.1590 N   0  0  0  0  0  0  0  0  0  0  0  0
    8.1398  -13.9417   16.8559 C   0  0  0  0  0  0  0  0  0  0  0  0
    8.2335  -13.4911   15.6524 N   0  0  0  0  0  0  0  0  0  0  0  0
    7.8891  -12.9909   17.8961 N   0  0  0  0  0  0  0  0  0  0  0  0
    7.5171  -13.4656   19.2120 C   0  0  0  0  0  0  0  0  0  0  0  0
    8.6366  -14.2431   19.8624 C   0  0  0  0  0  0  0  0  0  0  0  0
    8.6561  -14.0676   21.3435 C   0  0  0  0  0  0  0  0  0  0  0  0
    9.7524  -14.8311   22.0372 C   0  0  2  0  0  0  0  0  0  0  0  0
    9.5282  -16.2383   21.7663 N   0  0  0  0  0  0  0  0  0  0  0  0
    9.7372  -14.6134   23.5077 C   0  0  0  0  0  0  0  0  0  0  0  0
   10.3328  -13.6447   24.0411 O   0  0  0  0  0  0  0  0  0  0  0  0
    8.1507  -12.4969   15.4289 C   0  0  0  0  0  0  0  0  0  0  0  0
    5.8565  -12.8881   26.3528 C   0  0  1  0  0  0  0  0  0  0  0  0
    7.3658  -13.1180   26.0346 C   0  0  0  0  0  0  0  0  0  0  0  0
    8.1011  -12.5017   27.2064 C   0  0  0  0  0  0  0  0  0  0  0  0
    7.5166  -14.5763   25.8998 C   0  0  2  0  0  0  0  0  0  0  0  0
    8.8412  -15.2168   25.8077 N   0  0  0  0  0  0  0  0  0  0  0  0
    9.0387  -15.5082   24.3594 C   0  0  0  0  0  0  0  0  0  0  0  0
    9.0392  -16.4532   26.5598 O   0  0  0  0  0  0  0  0  0  0  0  0
    9.4524  -16.3524   27.7644 O   0  0  0  0  0  0  0  0  0  0  0  0
  2  1  1  6
  2  7  1  0
  2  3  1  0
  3  4  1  0
  4  5  1  0
  5  6  2  0
  7  8  2  0
  9  5  1  0
 11 13  1  0
 11 10  1  0
 12 11  2  0
 14 15  1  0
 14 13  1  0
 17 16  1  6
 16 15  1  0
 18 17  1  0
 18  7  1  0
 19 20  2  0
 19 17  1  0
 22 21  1  6
 22 24  1  0
 23 22  1  0
 25 24  1  6
 25 27  1  0
 25 26  1  0
 26 19  1  0
 27 29  1  0
 28 27  2  0
M  END
$$$$
