ERL.pdb
     RDKit          3D

 29 28  0  0  1  0  0  0  0  0999 V2000
   11.7646  -19.2704   20.4738 N   0  0  0  0  0  0  0  0  0  0  0  0
   12.8385  -18.4970   21.0397 C   0  0  1  0  0  0  0  0  0  0  0  0
   13.8907  -18.1470   20.0407 C   0  0  0  0  0  0  0  0  0  0  0  0
   13.3334  -17.4427   18.8234 C   0  0  0  0  0  0  0  0  0  0  0  0
   14.4727  -17.1423   17.9008 C   0  0  0  0  0  0  0  0  0  0  0  0
   15.6639  -17.4272   18.1852 O   0  0  0  0  0  0  0  0  0  0  0  0
   12.3097  -17.3453   21.7897 C   0  0  0  0  0  0  0  0  0  0  0  0
   13.0327  -16.4736   22.3337 O   0  0  0  0  0  0  0  0  0  0  0  0
   14.2614  -16.5234   16.6651 O   0  0  0  0  0  0  0  0  0  0  0  0
    8.9617  -14.1669   17.8855 N   0  0  0  0  0  0  0  0  0  0  0  0
    7.9788  -13.7352   18.8043 C   0  0  0  0  0  0  0  0  0  0  0  0
    7.9056  -12.5141   19.2089 N   0  0  0  0  0  0  0  0  0  0  0  0
    7.0161  -14.6585   19.3234 N   0  0  0  0  0  0  0  0  0  0  0  0
    7.2267  -15.2360   20.6339 C   0  0  0  0  0  0  0  0  0  0  0  0
    8.6961  -15.3623   20.9590 C   0  0  0  0  0  0  0  0  0  0  0  0
    8.9239  -15.9324   22.3184 C   0  0  0  0  0  0  0  0  0  0  0  0
   10.3761  -16.0740   22.6887 C   0  0  2  0  0  0  0  0  0  0  0  0
   10.9043  -17.1861   21.9217 N   0  0  0  0  0  0  0  0  0  0  0  0
   10.5558  -16.3568   24.1370 C   0  0  0  0  0  0  0  0  0  0  0  0
   11.0581  -17.4332   24.5453 O   0  0  0  0  0  0  0  0  0  0  0  0
    7.2800  -12.2205   19.9624 C   0  0  0  0  0  0  0  0  0  0  0  0
   11.1749  -14.3723   29.2276 C   0  0  2  0  0  0  0  0  0  0  0  0
    9.7056  -14.3575   28.7051 C   0  0  0  0  0  0  0  0  0  0  0  0
    9.1293  -13.0564   29.2233 C   0  0  0  0  0  0  0  0  0  0  0  0
    9.8136  -14.4530   27.2399 C   0  0  1  0  0  0  0  0  0  0  0  0
   10.2278  -15.6988   26.5693 N   0  0  0  0  0  0  0  0  0  0  0  0
   10.1586  -15.4033   25.1101 C   0  0  0  0  0  0  0  0  0  0  0  0
    9.4361  -16.8967   26.8371 O   0  0  0  0  0  0  0  0  0  0  0  0
    9.8435  -17.6801   27.7603 O   0  0  0  0  0  0  0  0  0  0  0  0
  2  1  1  6
  2  7  1  0
  2  3  1  0
  3  4  1  0
  4  5  1  0
  5  6  2  0
  7  8  2  0
  9  5  1  0
 11 13  1  0
 11 10  1  0
 12 11  2  0
 14 15  1  0
 14 13  1  0
 17 16  1  1
 16 15  1  0
 18 17  1  0
 18  7  1  0
 19 20  2  0
 19 17  1  0
 22 21  1  1
 22 24  1  0
 23 22  1  0
 25 24  1  1
 25 27  1  0
 25 26  1  0
 26 19  1  0
 27 29  1  0
 28 27  2  0
M  END
$$$$
