ERL.pdb
     RDKit          3D

 29 28  0  0  1  0  0  0  0  0999 V2000
    8.6198  -13.3152   18.2385 N   0  0  0  0  0  0  0  0  0  0  0  0
    9.1873  -14.4161   18.9718 C   0  0  1  0  0  0  0  0  0  0  0  0
   10.6381  -14.2296   19.2682 C   0  0  0  0  0  0  0  0  0  0  0  0
   11.4528  -13.9082   18.0347 C   0  0  0  0  0  0  0  0  0  0  0  0
   12.8885  -13.8016   18.4433 C   0  0  0  0  0  0  0  0  0  0  0  0
   13.2365  -13.4333   19.5941 O   0  0  0  0  0  0  0  0  0  0  0  0
    8.3650  -14.7329   20.1517 C   0  0  0  0  0  0  0  0  0  0  0  0
    7.4924  -13.9616   20.6233 O   0  0  0  0  0  0  0  0  0  0  0  0
   13.9208  -14.1107   17.5526 O   0  0  0  0  0  0  0  0  0  0  0  0
   10.2453  -20.3755   25.1892 N   0  0  0  0  0  0  0  0  0  0  0  0
   10.9035  -20.2434   23.9459 C   0  0  0  0  0  0  0  0  0  0  0  0
   12.1272  -19.8505   23.8547 N   0  0  0  0  0  0  0  0  0  0  0  0
   10.2184  -20.5480   22.7266 N   0  0  0  0  0  0  0  0  0  0  0  0
    8.9539  -19.9015   22.4468 C   0  0  0  0  0  0  0  0  0  0  0  0
    9.0934  -18.3984   22.4001 C   0  0  0  0  0  0  0  0  0  0  0  0
    7.7767  -17.7166   22.2380 C   0  0  0  0  0  0  0  0  0  0  0  0
    7.8750  -16.2233   22.0756 C   0  0  2  0  0  0  0  0  0  0  0  0
    8.5480  -15.9757   20.8147 N   0  0  0  0  0  0  0  0  0  0  0  0
    8.6570  -15.5948   23.1726 C   0  0  0  0  0  0  0  0  0  0  0  0
    9.6922  -14.9203   22.9471 O   0  0  0  0  0  0  0  0  0  0  0  0
   12.6434  -19.8578   22.9721 C   0  0  0  0  0  0  0  0  0  0  0  0
    8.1813  -11.5856   26.0136 C   0  0  2  0  0  0  0  0  0  0  0  0
    7.3718  -12.7559   26.6517 C   0  0  0  0  0  0  0  0  0  0  0  0
    5.9909  -12.1807   26.8878 C   0  0  0  0  0  0  0  0  0  0  0  0
    7.4326  -13.8510   25.6695 C   0  0  1  0  0  0  0  0  0  0  0  0
    8.6051  -14.7383   25.5644 N   0  0  0  0  0  0  0  0  0  0  0  0
    8.2476  -15.7431   24.5233 C   0  0  0  0  0  0  0  0  0  0  0  0
    9.0153  -15.4494   26.7725 O   0  0  0  0  0  0  0  0  0  0  0  0
    9.7290  -14.8128   27.6195 O   0  0  0  0  0  0  0  0  0  0  0  0
  2  1  1  1
  2  7  1  0
  2  3  1  0
  3  4  1  0
  4  5  1  0
  5  6  2  0
  7  8  2  0
  9  5  1  0
 11 13  1  0
 11 10  1  0
 12 11  2  0
 14 15  1  0
 14 13  1  0
 17 16  1  1
 16 15  1  0
 18 17  1  0
 18  7  1  0
 19 20  2  0
 19 17  1  0
 22 21  1  1
 22 24  1  0
 23 22  1  0
 25 24  1  6
 25 27  1  0
 25 26  1  0
 26 19  1  0
 27 29  1  0
 28 27  2  0
M  END
$$$$
