ERL.pdb
     RDKit          3D

 29 28  0  0  1  0  0  0  0  0999 V2000
   10.5752  -15.3296   19.1050 N   0  0  0  0  0  0  0  0  0  0  0  0
    9.4225  -14.4719   19.1899 C   0  0  1  0  0  0  0  0  0  0  0  0
    8.6921  -14.3513   17.8939 C   0  0  0  0  0  0  0  0  0  0  0  0
    8.5915  -15.6658   17.1522 C   0  0  0  0  0  0  0  0  0  0  0  0
    7.7560  -15.4448   15.9304 C   0  0  0  0  0  0  0  0  0  0  0  0
    6.4991  -15.4365   15.9655 O   0  0  0  0  0  0  0  0  0  0  0  0
    8.5725  -14.8558   20.3296 C   0  0  0  0  0  0  0  0  0  0  0  0
    7.5842  -14.1862   20.7214 O   0  0  0  0  0  0  0  0  0  0  0  0
    8.3427  -15.2348   14.6789 O   0  0  0  0  0  0  0  0  0  0  0  0
    6.1058  -21.3306   21.8594 N   0  0  0  0  0  0  0  0  0  0  0  0
    5.9188  -21.3522   23.2599 C   0  0  0  0  0  0  0  0  0  0  0  0
    5.8757  -22.4516   23.9304 N   0  0  0  0  0  0  0  0  0  0  0  0
    5.7688  -20.1305   23.9904 N   0  0  0  0  0  0  0  0  0  0  0  0
    6.0813  -18.8758   23.3397 C   0  0  0  0  0  0  0  0  0  0  0  0
    7.5305  -18.4947   23.5281 C   0  0  0  0  0  0  0  0  0  0  0  0
    8.1332  -17.9429   22.2802 C   0  0  0  0  0  0  0  0  0  0  0  0
    8.0144  -16.4478   22.1508 C   0  0  2  0  0  0  0  0  0  0  0  0
    8.8641  -16.0475   21.0455 N   0  0  0  0  0  0  0  0  0  0  0  0
    8.4608  -15.7456   23.3828 C   0  0  0  0  0  0  0  0  0  0  0  0
    9.6456  -15.8154   23.7937 O   0  0  0  0  0  0  0  0  0  0  0  0
    5.6778  -22.4774   24.9331 C   0  0  0  0  0  0  0  0  0  0  0  0
    8.2383  -11.3225   26.4714 C   0  0  2  0  0  0  0  0  0  0  0  0
    6.9957  -12.2407   26.6831 C   0  0  0  0  0  0  0  0  0  0  0  0
    5.8249  -11.2841   26.7717 C   0  0  0  0  0  0  0  0  0  0  0  0
    6.9775  -13.1438   25.5204 C   0  0  1  0  0  0  0  0  0  0  0  0
    7.9717  -14.2196   25.3547 N   0  0  0  0  0  0  0  0  0  0  0  0
    7.5457  -14.9666   24.1374 C   0  0  0  0  0  0  0  0  0  0  0  0
    8.1168  -15.1703   26.4541 O   0  0  0  0  0  0  0  0  0  0  0  0
    9.0904  -14.9951   27.2624 O   0  0  0  0  0  0  0  0  0  0  0  0
  2  1  1  6
  2  7  1  0
  2  3  1  0
  3  4  1  0
  4  5  1  0
  5  6  2  0
  7  8  2  0
  9  5  1  0
 11 13  1  0
 11 10  1  0
 12 11  2  0
 14 15  1  0
 14 13  1  0
 17 16  1  1
 16 15  1  0
 18 17  1  0
 18  7  1  0
 19 20  2  0
 19 17  1  0
 22 21  1  1
 22 24  1  0
 23 22  1  0
 25 24  1  6
 25 27  1  0
 25 26  1  0
 26 19  1  0
 27 29  1  0
 28 27  2  0
M  END
$$$$
