ERL.pdb
     RDKit          3D

 29 28  0  0  1  0  0  0  0  0999 V2000
    7.2234  -20.8613   24.0641 N   0  0  0  0  0  0  0  0  0  0  0  0
    6.8140  -19.5916   24.6045 C   0  0  1  0  0  0  0  0  0  0  0  0
    6.7369  -19.5931   26.0950 C   0  0  0  0  0  0  0  0  0  0  0  0
    7.7222  -20.5472   26.7330 C   0  0  0  0  0  0  0  0  0  0  0  0
    8.1469  -19.9650   28.0447 C   0  0  0  0  0  0  0  0  0  0  0  0
    9.3147  -20.0932   28.4929 O   0  0  0  0  0  0  0  0  0  0  0  0
    7.6285  -18.5012   24.0422 C   0  0  0  0  0  0  0  0  0  0  0  0
    8.8839  -18.5191   23.9948 O   0  0  0  0  0  0  0  0  0  0  0  0
    7.2529  -19.2432   28.8411 O   0  0  0  0  0  0  0  0  0  0  0  0
    8.1628  -11.9169   18.6058 N   0  0  0  0  0  0  0  0  0  0  0  0
    8.2543  -13.2116   18.0473 C   0  0  0  0  0  0  0  0  0  0  0  0
    8.9321  -13.4525   16.9784 N   0  0  0  0  0  0  0  0  0  0  0  0
    7.5843  -14.3162   18.6637 N   0  0  0  0  0  0  0  0  0  0  0  0
    6.8714  -14.1057   19.9058 C   0  0  0  0  0  0  0  0  0  0  0  0
    7.6696  -14.5832   21.0957 C   0  0  0  0  0  0  0  0  0  0  0  0
    6.9501  -15.6364   21.8688 C   0  0  0  0  0  0  0  0  0  0  0  0
    7.7780  -16.2763   22.9510 C   0  0  2  0  0  0  0  0  0  0  0  0
    6.9834  -17.3502   23.5160 N   0  0  0  0  0  0  0  0  0  0  0  0
    8.1252  -15.3131   24.0288 C   0  0  0  0  0  0  0  0  0  0  0  0
    7.8928  -14.0836   23.9197 O   0  0  0  0  0  0  0  0  0  0  0  0
    9.0004  -14.3869   16.5688 C   0  0  0  0  0  0  0  0  0  0  0  0
    5.9223  -12.6929   26.8252 C   0  0  1  0  0  0  0  0  0  0  0  0
    7.2979  -12.9667   26.1435 C   0  0  0  0  0  0  0  0  0  0  0  0
    8.1330  -11.7449   26.4649 C   0  0  0  0  0  0  0  0  0  0  0  0
    7.7804  -14.2259   26.7344 C   0  0  2  0  0  0  0  0  0  0  0  0
    9.0661  -14.8291   26.3390 N   0  0  0  0  0  0  0  0  0  0  0  0
    8.7374  -15.7650   25.2266 C   0  0  0  0  0  0  0  0  0  0  0  0
    9.8008  -15.5672   27.3632 O   0  0  0  0  0  0  0  0  0  0  0  0
    9.7265  -16.8424   27.3404 O   0  0  0  0  0  0  0  0  0  0  0  0
  2  1  1  1
  2  7  1  0
  2  3  1  0
  3  4  1  0
  4  5  1  0
  5  6  2  0
  7  8  2  0
  9  5  1  0
 11 13  1  0
 11 10  1  0
 12 11  2  0
 14 15  1  0
 14 13  1  0
 17 16  1  6
 16 15  1  0
 18 17  1  0
 18  7  1  0
 19 20  2  0
 19 17  1  0
 22 21  1  6
 22 24  1  0
 23 22  1  0
 25 24  1  6
 25 27  1  0
 25 26  1  0
 26 19  1  0
 27 29  1  0
 28 27  2  0
M  END
$$$$
