ERL.pdb
     RDKit          3D

 29 28  0  0  1  0  0  0  0  0999 V2000
   13.1938  -20.1022   21.4436 N   0  0  0  0  0  0  0  0  0  0  0  0
   14.1265  -19.1762   22.0301 C   0  0  1  0  0  0  0  0  0  0  0  0
   15.2257  -18.7904   21.0971 C   0  0  0  0  0  0  0  0  0  0  0  0
   14.7318  -18.0122   19.8976 C   0  0  0  0  0  0  0  0  0  0  0  0
   15.9178  -17.6539   19.0582 C   0  0  0  0  0  0  0  0  0  0  0  0
   16.5673  -18.5117   18.4075 O   0  0  0  0  0  0  0  0  0  0  0  0
   13.4163  -18.0353   22.6323 C   0  0  0  0  0  0  0  0  0  0  0  0
   13.9936  -17.0478   23.1521 O   0  0  0  0  0  0  0  0  0  0  0  0
   16.3628  -16.3323   18.9583 O   0  0  0  0  0  0  0  0  0  0  0  0
    6.6641  -13.6235   19.8895 N   0  0  0  0  0  0  0  0  0  0  0  0
    7.8013  -13.7825   19.0661 C   0  0  0  0  0  0  0  0  0  0  0  0
    7.9092  -13.1977   17.9231 N   0  0  0  0  0  0  0  0  0  0  0  0
    8.8890  -14.6137   19.4844 N   0  0  0  0  0  0  0  0  0  0  0  0
    8.8400  -15.2368   20.7900 C   0  0  0  0  0  0  0  0  0  0  0  0
   10.0327  -16.1326   21.0265 C   0  0  0  0  0  0  0  0  0  0  0  0
    9.9733  -16.8082   22.3549 C   0  0  0  0  0  0  0  0  0  0  0  0
   11.2886  -16.8396   23.0864 C   0  0  2  0  0  0  0  0  0  0  0  0
   11.9959  -18.0246   22.6397 N   0  0  0  0  0  0  0  0  0  0  0  0
   11.1041  -16.9132   24.5597 C   0  0  0  0  0  0  0  0  0  0  0  0
   11.0715  -18.0105   25.1701 O   0  0  0  0  0  0  0  0  0  0  0  0
    8.7035  -13.3527   17.2982 C   0  0  0  0  0  0  0  0  0  0  0  0
   11.0967  -14.0889   29.3367 C   0  0  2  0  0  0  0  0  0  0  0  0
    9.7821  -14.0610   28.4983 C   0  0  0  0  0  0  0  0  0  0  0  0
    9.2535  -12.6515   28.6642 C   0  0  0  0  0  0  0  0  0  0  0  0
   10.1871  -14.4189   27.1288 C   0  0  1  0  0  0  0  0  0  0  0  0
   10.6651  -15.7707   26.7865 N   0  0  0  0  0  0  0  0  0  0  0  0
   10.9581  -15.7276   25.3258 C   0  0  0  0  0  0  0  0  0  0  0  0
    9.7570  -16.8855   27.0438 O   0  0  0  0  0  0  0  0  0  0  0  0
    8.7075  -16.9718   26.3206 O   0  0  0  0  0  0  0  0  0  0  0  0
  2  1  1  6
  2  7  1  0
  2  3  1  0
  3  4  1  0
  4  5  1  0
  5  6  2  0
  7  8  2  0
  9  5  1  0
 11 13  1  0
 11 10  1  0
 12 11  2  0
 14 15  1  0
 14 13  1  0
 17 16  1  6
 16 15  1  0
 18 17  1  0
 18  7  1  0
 19 20  2  0
 19 17  1  0
 22 21  1  1
 22 24  1  0
 23 22  1  0
 25 24  1  1
 25 27  1  0
 25 26  1  0
 26 19  1  0
 27 29  1  0
 28 27  2  0
M  END
$$$$
