ERL.pdb
     RDKit          3D

 29 28  0  0  1  0  0  0  0  0999 V2000
   13.3473  -17.4903   19.1994 N   0  0  0  0  0  0  0  0  0  0  0  0
   12.8223  -18.0931   20.3963 C   0  0  1  0  0  0  0  0  0  0  0  0
   13.7971  -19.0068   21.0616 C   0  0  0  0  0  0  0  0  0  0  0  0
   15.0504  -18.2947   21.5204 C   0  0  0  0  0  0  0  0  0  0  0  0
   15.9397  -19.3018   22.1796 C   0  0  0  0  0  0  0  0  0  0  0  0
   15.7151  -19.7464   23.3341 O   0  0  0  0  0  0  0  0  0  0  0  0
   12.2499  -17.0684   21.2857 C   0  0  0  0  0  0  0  0  0  0  0  0
   12.7721  -15.9426   21.4823 O   0  0  0  0  0  0  0  0  0  0  0  0
   17.0749  -19.8001   21.5333 O   0  0  0  0  0  0  0  0  0  0  0  0
    8.3135  -14.3028   18.3437 N   0  0  0  0  0  0  0  0  0  0  0  0
    7.6698  -13.6107   19.3940 C   0  0  0  0  0  0  0  0  0  0  0  0
    7.5106  -12.3322   19.3783 N   0  0  0  0  0  0  0  0  0  0  0  0
    7.1652  -14.3220   20.5290 N   0  0  0  0  0  0  0  0  0  0  0  0
    7.3258  -15.7593   20.5902 C   0  0  0  0  0  0  0  0  0  0  0  0
    8.7464  -16.1488   20.9234 C   0  0  0  0  0  0  0  0  0  0  0  0
    8.9736  -16.2405   22.3947 C   0  0  0  0  0  0  0  0  0  0  0  0
   10.4250  -16.3096   22.7881 C   0  0  2  0  0  0  0  0  0  0  0  0
   11.0379  -17.3420   21.9740 N   0  0  0  0  0  0  0  0  0  0  0  0
   10.5965  -16.6597   24.2227 C   0  0  0  0  0  0  0  0  0  0  0  0
   11.0111  -17.7886   24.5850 O   0  0  0  0  0  0  0  0  0  0  0  0
    7.0769  -11.8220   20.1509 C   0  0  0  0  0  0  0  0  0  0  0  0
    9.9990  -12.9315   28.8767 C   0  0  2  0  0  0  0  0  0  0  0  0
   10.6625  -14.3154   28.6002 C   0  0  0  0  0  0  0  0  0  0  0  0
   10.4308  -15.1100   29.8684 C   0  0  0  0  0  0  0  0  0  0  0  0
    9.9844  -14.8389   27.4027 C   0  0  2  0  0  0  0  0  0  0  0  0
   10.4842  -16.0225   26.6799 N   0  0  0  0  0  0  0  0  0  0  0  0
   10.2915  -15.7129   25.2348 C   0  0  0  0  0  0  0  0  0  0  0  0
    9.8419  -17.3021   26.9688 O   0  0  0  0  0  0  0  0  0  0  0  0
   10.3894  -18.0539   27.8446 O   0  0  0  0  0  0  0  0  0  0  0  0
  2  1  1  6
  2  7  1  0
  2  3  1  0
  3  4  1  0
  4  5  1  0
  5  6  2  0
  7  8  2  0
  9  5  1  0
 11 13  1  0
 11 10  1  0
 12 11  2  0
 14 15  1  0
 14 13  1  0
 17 16  1  6
 16 15  1  0
 18 17  1  0
 18  7  1  0
 19 20  2  0
 19 17  1  0
 22 21  1  1
 22 24  1  0
 23 22  1  0
 25 24  1  6
 25 27  1  0
 25 26  1  0
 26 19  1  0
 27 29  1  0
 28 27  2  0
M  END
$$$$
