ERL.pdb
     RDKit          3D

 29 28  0  0  1  0  0  0  0  0999 V2000
    9.6940  -16.9249   17.9229 N   0  0  0  0  0  0  0  0  0  0  0  0
   10.0501  -17.4940   19.1962 C   0  0  1  0  0  0  0  0  0  0  0  0
   11.4652  -17.2161   19.5806 C   0  0  0  0  0  0  0  0  0  0  0  0
   12.4650  -17.8732   18.6549 C   0  0  0  0  0  0  0  0  0  0  0  0
   13.8388  -17.5379   19.1447 C   0  0  0  0  0  0  0  0  0  0  0  0
   14.3693  -18.1273   20.1206 O   0  0  0  0  0  0  0  0  0  0  0  0
    9.0611  -17.1269   20.2237 C   0  0  0  0  0  0  0  0  0  0  0  0
    8.4991  -16.0048   20.2840 O   0  0  0  0  0  0  0  0  0  0  0  0
   14.6042  -16.5415   18.5315 O   0  0  0  0  0  0  0  0  0  0  0  0
    5.4237  -22.8180   25.5643 N   0  0  0  0  0  0  0  0  0  0  0  0
    6.4558  -21.9716   26.0281 C   0  0  0  0  0  0  0  0  0  0  0  0
    7.1613  -22.2549   27.0683 N   0  0  0  0  0  0  0  0  0  0  0  0
    6.7549  -20.7505   25.3436 N   0  0  0  0  0  0  0  0  0  0  0  0
    5.7554  -20.1642   24.4762 C   0  0  0  0  0  0  0  0  0  0  0  0
    6.2163  -18.8442   23.9052 C   0  0  0  0  0  0  0  0  0  0  0  0
    7.2301  -19.0223   22.8257 C   0  0  0  0  0  0  0  0  0  0  0  0
    7.7116  -17.7322   22.2176 C   0  0  2  0  0  0  0  0  0  0  0  0
    8.7031  -18.0774   21.2167 N   0  0  0  0  0  0  0  0  0  0  0  0
    8.3361  -16.8394   23.2290 C   0  0  0  0  0  0  0  0  0  0  0  0
    9.4931  -17.0459   23.6719 O   0  0  0  0  0  0  0  0  0  0  0  0
    7.9361  -21.6675   27.3846 C   0  0  0  0  0  0  0  0  0  0  0  0
    6.2236  -11.7051   25.7591 C   0  0  2  0  0  0  0  0  0  0  0  0
    7.4224  -12.6819   25.9612 C   0  0  0  0  0  0  0  0  0  0  0  0
    7.3182  -13.1200   27.4071 C   0  0  0  0  0  0  0  0  0  0  0  0
    7.2236  -13.7512   24.9688 C   0  0  1  0  0  0  0  0  0  0  0  0
    8.1998  -14.8418   24.7935 N   0  0  0  0  0  0  0  0  0  0  0  0
    7.6301  -15.7138   23.7275 C   0  0  0  0  0  0  0  0  0  0  0  0
    8.4936  -15.6695   25.9607 O   0  0  0  0  0  0  0  0  0  0  0  0
    9.6074  -15.4775   26.5562 O   0  0  0  0  0  0  0  0  0  0  0  0
  2  1  1  6
  2  7  1  0
  2  3  1  0
  3  4  1  0
  4  5  1  0
  5  6  2  0
  7  8  2  0
  9  5  1  0
 11 13  1  0
 11 10  1  0
 12 11  2  0
 14 15  1  0
 14 13  1  0
 17 16  1  1
 16 15  1  0
 18 17  1  0
 18  7  1  0
 19 20  2  0
 19 17  1  0
 22 21  1  1
 22 24  1  0
 23 22  1  0
 25 24  1  6
 25 27  1  0
 25 26  1  0
 26 19  1  0
 27 29  1  0
 28 27  2  0
M  END
$$$$
