ERL.pdb
     RDKit          3D

 29 28  0  0  1  0  0  0  0  0999 V2000
   12.3496  -14.2624   19.0874 N   0  0  0  0  0  0  0  0  0  0  0  0
   12.3013  -15.4107   19.9540 C   0  0  1  0  0  0  0  0  0  0  0  0
   13.6171  -15.7136   20.5899 C   0  0  0  0  0  0  0  0  0  0  0  0
   14.4651  -14.4788   20.8015 C   0  0  0  0  0  0  0  0  0  0  0  0
   15.7332  -14.8985   21.4764 C   0  0  0  0  0  0  0  0  0  0  0  0
   16.8031  -15.0878   20.8437 O   0  0  0  0  0  0  0  0  0  0  0  0
   11.1823  -15.2970   20.9045 C   0  0  0  0  0  0  0  0  0  0  0  0
   10.7475  -14.2037   21.3451 O   0  0  0  0  0  0  0  0  0  0  0  0
   15.7860  -15.1018   22.8587 O   0  0  0  0  0  0  0  0  0  0  0  0
    5.3344  -21.1035   20.1360 N   0  0  0  0  0  0  0  0  0  0  0  0
    5.5879  -20.1241   19.1496 C   0  0  0  0  0  0  0  0  0  0  0  0
    4.9909  -20.1282   18.0078 N   0  0  0  0  0  0  0  0  0  0  0  0
    6.5334  -19.0774   19.3932 N   0  0  0  0  0  0  0  0  0  0  0  0
    7.1675  -18.9866   20.6912 C   0  0  0  0  0  0  0  0  0  0  0  0
    8.0038  -17.7354   20.8181 C   0  0  0  0  0  0  0  0  0  0  0  0
    8.6047  -17.5965   22.1761 C   0  0  0  0  0  0  0  0  0  0  0  0
    9.4698  -16.3759   22.3421 C   0  0  2  0  0  0  0  0  0  0  0  0
   10.5387  -16.4760   21.3667 N   0  0  0  0  0  0  0  0  0  0  0  0
   10.0630  -16.2953   23.7029 C   0  0  0  0  0  0  0  0  0  0  0  0
   11.1764  -16.8103   23.9727 O   0  0  0  0  0  0  0  0  0  0  0  0
    5.2591  -19.5035   17.2442 C   0  0  0  0  0  0  0  0  0  0  0  0
   10.8795  -13.8245   28.4620 C   0  0  2  0  0  0  0  0  0  0  0  0
    9.3948  -14.2568   28.2602 C   0  0  0  0  0  0  0  0  0  0  0  0
    8.5831  -13.0985   28.8016 C   0  0  0  0  0  0  0  0  0  0  0  0
    9.2533  -14.4968   26.8145 C   0  0  1  0  0  0  0  0  0  0  0  0
    9.8589  -15.6690   26.1570 N   0  0  0  0  0  0  0  0  0  0  0  0
    9.3761  -15.6242   24.7477 C   0  0  0  0  0  0  0  0  0  0  0  0
    9.5449  -16.9829   26.7124 O   0  0  0  0  0  0  0  0  0  0  0  0
   10.3401  -17.4582   27.5920 O   0  0  0  0  0  0  0  0  0  0  0  0
  2  1  1  1
  2  7  1  0
  2  3  1  0
  3  4  1  0
  4  5  1  0
  5  6  2  0
  7  8  2  0
  9  5  1  0
 11 13  1  0
 11 10  1  0
 12 11  2  0
 14 15  1  0
 14 13  1  0
 17 16  1  1
 16 15  1  0
 18 17  1  0
 18  7  1  0
 19 20  2  0
 19 17  1  0
 22 21  1  1
 22 24  1  0
 23 22  1  0
 25 24  1  6
 25 27  1  0
 25 26  1  0
 26 19  1  0
 27 29  1  0
 28 27  2  0
M  END
$$$$
