ERL.pdb
     RDKit          3D

 29 28  0  0  1  0  0  0  0  0999 V2000
    8.2487  -20.1219   21.6459 N   0  0  0  0  0  0  0  0  0  0  0  0
    7.6406  -18.8896   22.0739 C   0  0  1  0  0  0  0  0  0  0  0  0
    6.8601  -19.0357   23.3376 C   0  0  0  0  0  0  0  0  0  0  0  0
    7.6244  -19.7680   24.4184 C   0  0  0  0  0  0  0  0  0  0  0  0
    6.7510  -19.8453   25.6311 C   0  0  0  0  0  0  0  0  0  0  0  0
    5.7761  -20.6355   25.7107 O   0  0  0  0  0  0  0  0  0  0  0  0
    8.6332  -17.8020   22.0985 C   0  0  0  0  0  0  0  0  0  0  0  0
    9.8683  -17.9857   22.2373 O   0  0  0  0  0  0  0  0  0  0  0  0
    6.9826  -19.0322   26.7446 O   0  0  0  0  0  0  0  0  0  0  0  0
    7.6511  -15.1806   16.9346 N   0  0  0  0  0  0  0  0  0  0  0  0
    8.0665  -13.8311   16.8813 C   0  0  0  0  0  0  0  0  0  0  0  0
    8.5420  -13.3005   15.8077 N   0  0  0  0  0  0  0  0  0  0  0  0
    7.9701  -12.9963   18.0401 N   0  0  0  0  0  0  0  0  0  0  0  0
    7.2447  -13.4758   19.1973 C   0  0  0  0  0  0  0  0  0  0  0  0
    7.9562  -14.6291   19.8640 C   0  0  0  0  0  0  0  0  0  0  0  0
    8.5486  -14.2406   21.1766 C   0  0  0  0  0  0  0  0  0  0  0  0
    9.1723  -15.3845   21.9307 C   0  0  2  0  0  0  0  0  0  0  0  0
    8.1966  -16.4574   21.9597 N   0  0  0  0  0  0  0  0  0  0  0  0
    9.5183  -15.0078   23.3265 C   0  0  0  0  0  0  0  0  0  0  0  0
   10.5392  -14.3277   23.5963 O   0  0  0  0  0  0  0  0  0  0  0  0
    8.8325  -12.3214   15.7597 C   0  0  0  0  0  0  0  0  0  0  0  0
    6.0924  -12.7334   26.6496 C   0  0  1  0  0  0  0  0  0  0  0  0
    7.3902  -13.0679   25.8522 C   0  0  0  0  0  0  0  0  0  0  0  0
    8.3370  -11.9293   26.1692 C   0  0  0  0  0  0  0  0  0  0  0  0
    7.8168  -14.3894   26.3415 C   0  0  2  0  0  0  0  0  0  0  0  0
    9.0190  -15.0627   25.8173 N   0  0  0  0  0  0  0  0  0  0  0  0
    8.6914  -15.4131   24.4062 C   0  0  0  0  0  0  0  0  0  0  0  0
    9.4595  -16.2739   26.5047 O   0  0  0  0  0  0  0  0  0  0  0  0
    9.1987  -17.3955   25.9515 O   0  0  0  0  0  0  0  0  0  0  0  0
  2  1  1  1
  2  7  1  0
  2  3  1  0
  3  4  1  0
  4  5  1  0
  5  6  2  0
  7  8  2  0
  9  5  1  0
 11 13  1  0
 11 10  1  0
 12 11  2  0
 14 15  1  0
 14 13  1  0
 17 16  1  1
 16 15  1  0
 18 17  1  0
 18  7  1  0
 19 20  2  0
 19 17  1  0
 22 21  1  6
 22 24  1  0
 23 22  1  0
 25 24  1  6
 25 27  1  0
 25 26  1  0
 26 19  1  0
 27 29  1  0
 28 27  2  0
M  END
$$$$
