CLM.pdb
     RDKit          3D

 23 22  0  0  1  0  0  0  0  0999 V2000
    5.8933  -19.2381   22.3781 N   0  0  0  0  0  0  0  0  0  0  0  0
    6.0730  -18.5791   23.6806 C   0  0  1  0  0  0  0  0  0  0  0  0
    6.6798  -19.6322   24.5725 C   0  0  0  0  0  0  0  0  0  0  0  0
    7.2005  -18.9733   26.1694 S   0  0  0  0  0  0  0  0  0  0  0  0
    6.9305  -17.4107   23.5009 C   0  0  0  0  0  0  0  0  0  0  0  0
    7.8643  -17.4804   22.6341 O   0  0  0  0  0  0  0  0  0  0  0  0
    6.1540  -13.9862   26.4287 C   0  0  0  0  0  0  0  0  0  0  0  0
    7.1842  -13.2474   25.6146 C   0  0  2  0  0  0  0  0  0  0  0  0
    6.8310  -11.7528   25.6950 C   0  0  0  0  0  0  0  0  0  0  0  0
    7.2171  -13.7086   24.2120 C   0  0  0  0  0  0  0  0  0  0  0  0
    7.7382  -15.0687   23.9240 C   0  0  2  0  0  0  0  0  0  0  0  0
    6.8551  -16.1669   24.1855 N   0  0  0  0  0  0  0  0  0  0  0  0
    9.1068  -15.2425   24.4901 C   0  0  0  0  0  0  0  0  0  0  0  0
    9.9844  -14.3417   24.2836 O   0  0  0  0  0  0  0  0  0  0  0  0
    9.9756  -13.1669   29.4116 C   0  0  0  0  0  0  0  0  0  0  0  0
   10.8938  -14.6760   29.8801 S   0  0  0  0  0  0  0  0  0  0  0  0
   11.2024  -15.7923   28.5739 C   0  0  0  0  0  0  0  0  0  0  0  0
   10.2517  -16.1881   27.5390 C   0  0  0  0  0  0  0  0  0  0  0  0
   10.7082  -16.3070   26.1515 C   0  0  2  0  0  0  0  0  0  0  0  0
    9.5011  -16.3415   25.2435 N   0  0  0  0  0  0  0  0  0  0  0  0
   11.2370  -17.7237   25.9492 C   0  0  0  0  0  0  0  0  0  0  0  0
   10.3749  -18.6098   25.5984 O   0  0  0  0  0  0  0  0  0  0  0  0
   12.5036  -18.1248   26.1051 O   0  0  0  0  0  0  0  0  0  0  0  0
  2  3  1  0
  2  1  1  6
  4  3  1  0
  5  2  1  0
  6  5  2  0
  8  7  1  1
  8 10  1  0
  9  8  1  0
 11 10  1  1
 11 12  1  0
 12  5  1  0
 13 11  1  0
 13 20  1  0
 14 13  2  0
 16 15  1  0
 17 16  1  0
 18 17  1  0
 19 20  1  0
 19 18  1  1
 19 21  1  0
 21 23  1  0
 22 21  2  0
M  END
$$$$
