CLM.pdb
     RDKit          3D

 23 22  0  0  1  0  0  0  0  0999 V2000
    6.2827  -19.3539   21.8224 N   0  0  0  0  0  0  0  0  0  0  0  0
    6.3950  -18.7497   23.1586 C   0  0  1  0  0  0  0  0  0  0  0  0
    7.0538  -19.8039   24.0115 C   0  0  0  0  0  0  0  0  0  0  0  0
    7.0810  -19.3639   25.7611 S   0  0  0  0  0  0  0  0  0  0  0  0
    7.1766  -17.5206   23.0535 C   0  0  0  0  0  0  0  0  0  0  0  0
    8.1181  -17.4809   22.1932 O   0  0  0  0  0  0  0  0  0  0  0  0
    6.2728  -14.3915   26.2377 C   0  0  0  0  0  0  0  0  0  0  0  0
    7.2646  -13.5233   25.5080 C   0  0  2  0  0  0  0  0  0  0  0  0
    6.7980  -12.0680   25.6803 C   0  0  0  0  0  0  0  0  0  0  0  0
    7.3674  -13.8802   24.0786 C   0  0  0  0  0  0  0  0  0  0  0  0
    7.9154  -15.2119   23.7171 C   0  0  2  0  0  0  0  0  0  0  0  0
    7.0173  -16.3252   23.8067 N   0  0  0  0  0  0  0  0  0  0  0  0
    9.2324  -15.4400   24.3782 C   0  0  0  0  0  0  0  0  0  0  0  0
   10.1705  -14.5951   24.2038 O   0  0  0  0  0  0  0  0  0  0  0  0
    9.7610  -13.1133   29.5405 C   0  0  0  0  0  0  0  0  0  0  0  0
   11.0163  -14.4193   29.7824 S   0  0  0  0  0  0  0  0  0  0  0  0
   11.1066  -15.6072   28.5063 C   0  0  0  0  0  0  0  0  0  0  0  0
   10.2508  -15.6661   27.3249 C   0  0  0  0  0  0  0  0  0  0  0  0
   10.6385  -16.5200   26.1987 C   0  0  2  0  0  0  0  0  0  0  0  0
    9.5149  -16.5327   25.1887 N   0  0  0  0  0  0  0  0  0  0  0  0
   10.5928  -17.9704   26.6696 C   0  0  0  0  0  0  0  0  0  0  0  0
   11.5565  -18.3547   27.4279 O   0  0  0  0  0  0  0  0  0  0  0  0
    9.6516  -18.8711   26.3659 O   0  0  0  0  0  0  0  0  0  0  0  0
  2  3  1  0
  2  1  1  6
  4  3  1  0
  5  2  1  0
  6  5  2  0
  8  7  1  1
  8 10  1  0
  9  8  1  0
 11 10  1  1
 11 12  1  0
 12  5  1  0
 13 11  1  0
 13 20  1  0
 14 13  2  0
 16 15  1  0
 17 16  1  0
 18 17  1  0
 19 20  1  0
 19 18  1  1
 19 21  1  0
 21 23  1  0
 22 21  2  0
M  END
$$$$
