CLM.pdb
     RDKit          3D

 23 22  0  0  1  0  0  0  0  0999 V2000
    8.3364  -17.9433   20.1375 N   0  0  0  0  0  0  0  0  0  0  0  0
    7.6884  -17.7400   21.4421 C   0  0  1  0  0  0  0  0  0  0  0  0
    7.9012  -19.0311   22.1910 C   0  0  0  0  0  0  0  0  0  0  0  0
    6.8057  -20.3492   21.6270 S   0  0  0  0  0  0  0  0  0  0  0  0
    8.3004  -16.5862   22.0953 C   0  0  0  0  0  0  0  0  0  0  0  0
    9.5210  -16.3251   21.8301 O   0  0  0  0  0  0  0  0  0  0  0  0
    6.2458  -14.1669   26.1130 C   0  0  0  0  0  0  0  0  0  0  0  0
    7.3831  -13.3316   25.5851 C   0  0  2  0  0  0  0  0  0  0  0  0
    7.0856  -11.8734   25.9731 C   0  0  0  0  0  0  0  0  0  0  0  0
    7.5394  -13.4686   24.1230 C   0  0  0  0  0  0  0  0  0  0  0  0
    8.3807  -14.5744   23.5996 C   0  0  2  0  0  0  0  0  0  0  0  0
    7.6928  -15.6871   23.0140 N   0  0  0  0  0  0  0  0  0  0  0  0
    9.4252  -14.9606   24.5914 C   0  0  0  0  0  0  0  0  0  0  0  0
   10.1932  -14.0619   25.0676 O   0  0  0  0  0  0  0  0  0  0  0  0
    9.7848  -13.6672   29.7170 C   0  0  0  0  0  0  0  0  0  0  0  0
   10.9575  -15.0620   29.5782 S   0  0  0  0  0  0  0  0  0  0  0  0
   10.3396  -16.4717   28.7545 C   0  0  0  0  0  0  0  0  0  0  0  0
    9.6813  -16.4861   27.4515 C   0  0  0  0  0  0  0  0  0  0  0  0
   10.4954  -16.5753   26.2361 C   0  0  2  0  0  0  0  0  0  0  0  0
    9.6241  -16.2595   25.0429 N   0  0  0  0  0  0  0  0  0  0  0  0
   10.7883  -18.0490   25.9724 C   0  0  0  0  0  0  0  0  0  0  0  0
   11.6051  -18.6222   26.7822 O   0  0  0  0  0  0  0  0  0  0  0  0
   10.2797  -18.7916   24.9828 O   0  0  0  0  0  0  0  0  0  0  0  0
  2  3  1  0
  2  1  1  6
  4  3  1  0
  5  2  1  0
  6  5  2  0
  8  7  1  6
  8 10  1  0
  9  8  1  0
 11 10  1  1
 11 12  1  0
 12  5  1  0
 13 11  1  0
 13 20  1  0
 14 13  2  0
 16 15  1  0
 17 16  1  0
 18 17  1  0
 19 20  1  0
 19 18  1  1
 19 21  1  0
 21 23  1  0
 22 21  2  0
M  END
$$$$
