CLM.pdb
     RDKit          3D

 23 22  0  0  1  0  0  0  0  0999 V2000
    8.5687  -19.1766   19.4550 N   0  0  0  0  0  0  0  0  0  0  0  0
    7.8077  -18.5362   20.5385 C   0  0  1  0  0  0  0  0  0  0  0  0
    7.7809  -19.5520   21.6522 C   0  0  0  0  0  0  0  0  0  0  0  0
    6.9276  -18.9474   23.1226 S   0  0  0  0  0  0  0  0  0  0  0  0
    8.4752  -17.2912   20.9085 C   0  0  0  0  0  0  0  0  0  0  0  0
    9.7500  -17.2884   20.9641 O   0  0  0  0  0  0  0  0  0  0  0  0
    9.0538  -13.2322   19.0306 C   0  0  0  0  0  0  0  0  0  0  0  0
    7.8154  -13.3584   19.8792 C   0  0  2  0  0  0  0  0  0  0  0  0
    7.0075  -12.0638   19.6880 C   0  0  0  0  0  0  0  0  0  0  0  0
    8.1393  -13.5743   21.3039 C   0  0  0  0  0  0  0  0  0  0  0  0
    8.5995  -14.9197   21.7312 C   0  0  2  0  0  0  0  0  0  0  0  0
    7.8701  -16.0432   21.2214 N   0  0  0  0  0  0  0  0  0  0  0  0
    8.8232  -14.9597   23.2050 C   0  0  0  0  0  0  0  0  0  0  0  0
    9.6049  -14.1063   23.7388 O   0  0  0  0  0  0  0  0  0  0  0  0
    7.9310  -11.8252   27.4265 C   0  0  0  0  0  0  0  0  0  0  0  0
    6.6386  -12.8589   26.6513 S   0  0  0  0  0  0  0  0  0  0  0  0
    6.7077  -14.5568   27.0511 C   0  0  0  0  0  0  0  0  0  0  0  0
    6.9893  -15.6476   26.1224 C   0  0  0  0  0  0  0  0  0  0  0  0
    8.3356  -15.7824   25.5594 C   0  0  2  0  0  0  0  0  0  0  0  0
    8.2263  -15.8820   24.0558 N   0  0  0  0  0  0  0  0  0  0  0  0
    8.8444  -17.1833   25.8851 C   0  0  0  0  0  0  0  0  0  0  0  0
    9.1461  -17.4095   27.1136 O   0  0  0  0  0  0  0  0  0  0  0  0
    9.0064  -18.1876   25.0164 O   0  0  0  0  0  0  0  0  0  0  0  0
  2  3  1  0
  2  1  1  6
  4  3  1  0
  5  2  1  0
  6  5  2  0
  8  7  1  6
  8 10  1  0
  9  8  1  0
 11 10  1  1
 11 12  1  0
 12  5  1  0
 13 11  1  0
 13 20  1  0
 14 13  2  0
 16 15  1  0
 17 16  1  0
 18 17  1  0
 19 20  1  0
 19 18  1  1
 19 21  1  0
 21 23  1  0
 22 21  2  0
M  END
$$$$
