CLM.pdb
     RDKit          3D

 23 22  0  0  1  0  0  0  0  0999 V2000
    6.8901  -19.6516   21.0273 N   0  0  0  0  0  0  0  0  0  0  0  0
    6.5275  -18.5528   21.9352 C   0  0  1  0  0  0  0  0  0  0  0  0
    6.3903  -19.1947   23.2924 C   0  0  0  0  0  0  0  0  0  0  0  0
    4.7605  -19.9234   23.5540 S   0  0  0  0  0  0  0  0  0  0  0  0
    7.5732  -17.5349   21.8811 C   0  0  0  0  0  0  0  0  0  0  0  0
    8.7828  -17.9241   21.7638 O   0  0  0  0  0  0  0  0  0  0  0  0
    8.8275  -14.1612   18.9607 C   0  0  0  0  0  0  0  0  0  0  0  0
    7.7706  -13.8027   19.9728 C   0  0  2  0  0  0  0  0  0  0  0  0
    7.2881  -12.3826   19.6327 C   0  0  0  0  0  0  0  0  0  0  0  0
    8.2825  -13.8703   21.3564 C   0  0  0  0  0  0  0  0  0  0  0  0
    8.5132  -15.2055   21.9635 C   0  0  2  0  0  0  0  0  0  0  0  0
    7.4127  -16.1235   21.9409 N   0  0  0  0  0  0  0  0  0  0  0  0
    9.1673  -15.0752   23.2973 C   0  0  0  0  0  0  0  0  0  0  0  0
   10.2596  -14.4257   23.3934 O   0  0  0  0  0  0  0  0  0  0  0  0
    6.6583  -11.3593   27.2076 C   0  0  0  0  0  0  0  0  0  0  0  0
    6.0339  -13.0455   26.8809 S   0  0  0  0  0  0  0  0  0  0  0  0
    7.1650  -14.1155   26.0914 C   0  0  0  0  0  0  0  0  0  0  0  0
    8.4415  -14.5697   26.6353 C   0  0  0  0  0  0  0  0  0  0  0  0
    9.3150  -15.4103   25.8119 C   0  0  2  0  0  0  0  0  0  0  0  0
    8.6586  -15.6240   24.4680 N   0  0  0  0  0  0  0  0  0  0  0  0
    9.2610  -16.8306   26.3662 C   0  0  0  0  0  0  0  0  0  0  0  0
    9.8468  -17.0260   27.4931 O   0  0  0  0  0  0  0  0  0  0  0  0
    8.6677  -17.8822   25.7903 O   0  0  0  0  0  0  0  0  0  0  0  0
  2  3  1  0
  2  1  1  6
  4  3  1  0
  5  2  1  0
  6  5  2  0
  8  7  1  6
  8 10  1  0
  9  8  1  0
 11 10  1  1
 11 12  1  0
 12  5  1  0
 13 11  1  0
 13 20  1  0
 14 13  2  0
 16 15  1  0
 17 16  1  0
 18 17  1  0
 19 20  1  0
 19 18  1  1
 19 21  1  0
 21 23  1  0
 22 21  2  0
M  END
$$$$
