CLM.pdb
     RDKit          3D

 23 22  0  0  1  0  0  0  0  0999 V2000
    6.0913  -19.1384   22.2965 N   0  0  0  0  0  0  0  0  0  0  0  0
    6.2536  -18.7234   23.6981 C   0  0  1  0  0  0  0  0  0  0  0  0
    7.2242  -19.7134   24.2903 C   0  0  0  0  0  0  0  0  0  0  0  0
    7.7599  -19.2522   25.9503 S   0  0  0  0  0  0  0  0  0  0  0  0
    6.7426  -17.3477   23.7266 C   0  0  0  0  0  0  0  0  0  0  0  0
    7.6192  -17.0055   22.8648 O   0  0  0  0  0  0  0  0  0  0  0  0
    8.0922  -12.3915   25.6907 C   0  0  0  0  0  0  0  0  0  0  0  0
    6.6621  -12.5416   25.2413 C   0  0  2  0  0  0  0  0  0  0  0  0
    5.8151  -11.6091   26.1235 C   0  0  0  0  0  0  0  0  0  0  0  0
    6.1924  -13.9380   25.3442 C   0  0  0  0  0  0  0  0  0  0  0  0
    6.9038  -14.9852   24.5685 C   0  0  2  0  0  0  0  0  0  0  0  0
    6.3544  -16.3081   24.6154 N   0  0  0  0  0  0  0  0  0  0  0  0
    8.3718  -14.9284   24.8242 C   0  0  0  0  0  0  0  0  0  0  0  0
    8.9862  -13.8214   24.6782 O   0  0  0  0  0  0  0  0  0  0  0  0
   10.4220  -13.5720   29.8125 C   0  0  0  0  0  0  0  0  0  0  0  0
   11.2238  -15.2125   29.8861 S   0  0  0  0  0  0  0  0  0  0  0  0
   11.2297  -16.1035   28.3848 C   0  0  0  0  0  0  0  0  0  0  0  0
   10.1393  -16.1618   27.4157 C   0  0  0  0  0  0  0  0  0  0  0  0
   10.4146  -15.8709   26.0060 C   0  0  2  0  0  0  0  0  0  0  0  0
    9.1335  -16.0213   25.2192 N   0  0  0  0  0  0  0  0  0  0  0  0
   11.2195  -17.0335   25.4335 C   0  0  0  0  0  0  0  0  0  0  0  0
   10.5890  -17.8322   24.6487 O   0  0  0  0  0  0  0  0  0  0  0  0
   12.5089  -17.2969   25.6738 O   0  0  0  0  0  0  0  0  0  0  0  0
  2  3  1  0
  2  1  1  6
  4  3  1  0
  5  2  1  0
  6  5  2  0
  8  7  1  1
  8 10  1  0
  9  8  1  0
 11 10  1  1
 11 12  1  0
 12  5  1  0
 13 11  1  0
 13 20  1  0
 14 13  2  0
 16 15  1  0
 17 16  1  0
 18 17  1  0
 19 20  1  0
 19 18  1  1
 19 21  1  0
 21 23  1  0
 22 21  2  0
M  END
$$$$
