CLM.pdb
     RDKit          3D

 23 22  0  0  1  0  0  0  0  0999 V2000
    7.1151  -18.0903   22.0818 N   0  0  0  0  0  0  0  0  0  0  0  0
    8.1750  -17.4428   21.2941 C   0  0  1  0  0  0  0  0  0  0  0  0
    7.5215  -17.0723   19.9870 C   0  0  0  0  0  0  0  0  0  0  0  0
    5.8770  -17.7920   19.8048 S   0  0  0  0  0  0  0  0  0  0  0  0
    8.6739  -16.2892   22.0376 C   0  0  0  0  0  0  0  0  0  0  0  0
    9.6424  -15.6266   21.5365 O   0  0  0  0  0  0  0  0  0  0  0  0
    7.1638  -12.1320   23.8895 C   0  0  0  0  0  0  0  0  0  0  0  0
    6.8874  -13.4024   24.6508 C   0  0  2  0  0  0  0  0  0  0  0  0
    6.0237  -13.0188   25.8640 C   0  0  0  0  0  0  0  0  0  0  0  0
    8.1312  -14.0743   25.0781 C   0  0  0  0  0  0  0  0  0  0  0  0
    8.9163  -14.8251   24.0659 C   0  0  2  0  0  0  0  0  0  0  0  0
    8.2038  -15.7920   23.2839 N   0  0  0  0  0  0  0  0  0  0  0  0
   10.1868  -15.3379   24.6546 C   0  0  0  0  0  0  0  0  0  0  0  0
   11.2143  -14.5842   24.6691 O   0  0  0  0  0  0  0  0  0  0  0  0
   10.3397  -13.6447   29.9169 C   0  0  0  0  0  0  0  0  0  0  0  0
   11.0982  -15.3011   30.0605 S   0  0  0  0  0  0  0  0  0  0  0  0
   10.4371  -16.5150   28.9942 C   0  0  0  0  0  0  0  0  0  0  0  0
   10.0823  -16.3249   27.5908 C   0  0  0  0  0  0  0  0  0  0  0  0
   10.9751  -16.8383   26.5481 C   0  0  2  0  0  0  0  0  0  0  0  0
   10.3322  -16.6074   25.2004 N   0  0  0  0  0  0  0  0  0  0  0  0
   10.9390  -18.3623   26.6054 C   0  0  0  0  0  0  0  0  0  0  0  0
   10.0649  -18.9407   25.8619 O   0  0  0  0  0  0  0  0  0  0  0  0
   11.7247  -19.1444   27.3540 O   0  0  0  0  0  0  0  0  0  0  0  0
  2  3  1  0
  2  1  1  1
  4  3  1  0
  5  2  1  0
  6  5  2  0
  8  7  1  1
  8 10  1  0
  9  8  1  0
 11 10  1  1
 11 12  1  0
 12  5  1  0
 13 11  1  0
 13 20  1  0
 14 13  2  0
 16 15  1  0
 17 16  1  0
 18 17  1  0
 19 20  1  0
 19 18  1  1
 19 21  1  0
 21 23  1  0
 22 21  2  0
M  END
$$$$
