CLM.pdb
     RDKit          3D

 23 22  0  0  1  0  0  0  0  0999 V2000
    7.4522  -17.6254   20.5478 N   0  0  0  0  0  0  0  0  0  0  0  0
    6.9785  -17.6062   21.9401 C   0  0  1  0  0  0  0  0  0  0  0  0
    7.4504  -18.9095   22.5329 C   0  0  0  0  0  0  0  0  0  0  0  0
    9.2474  -19.0008   22.6668 S   0  0  0  0  0  0  0  0  0  0  0  0
    7.5345  -16.4330   22.6087 C   0  0  0  0  0  0  0  0  0  0  0  0
    8.6485  -15.9749   22.1874 O   0  0  0  0  0  0  0  0  0  0  0  0
    7.6083  -11.6692   25.0916 C   0  0  0  0  0  0  0  0  0  0  0  0
    6.4761  -12.6308   25.3429 C   0  0  2  0  0  0  0  0  0  0  0  0
    5.7418  -12.1392   26.6016 C   0  0  0  0  0  0  0  0  0  0  0  0
    6.9546  -14.0171   25.5170 C   0  0  0  0  0  0  0  0  0  0  0  0
    7.6725  -14.6669   24.3915 C   0  0  2  0  0  0  0  0  0  0  0  0
    6.9767  -15.7115   23.6995 N   0  0  0  0  0  0  0  0  0  0  0  0
    9.0652  -15.0241   24.7872 C   0  0  0  0  0  0  0  0  0  0  0  0
   10.0201  -14.2379   24.4802 O   0  0  0  0  0  0  0  0  0  0  0  0
   10.6125  -13.5749   30.1518 C   0  0  0  0  0  0  0  0  0  0  0  0
   11.5105  -15.1663   30.1781 S   0  0  0  0  0  0  0  0  0  0  0  0
   11.2038  -16.2139   28.8157 C   0  0  0  0  0  0  0  0  0  0  0  0
   10.2488  -15.9668   27.7394 C   0  0  0  0  0  0  0  0  0  0  0  0
   10.6315  -16.2657   26.3566 C   0  0  2  0  0  0  0  0  0  0  0  0
    9.4023  -16.1790   25.4823 N   0  0  0  0  0  0  0  0  0  0  0  0
   10.9242  -17.7598   26.2612 C   0  0  0  0  0  0  0  0  0  0  0  0
   11.9960  -18.1694   26.8401 O   0  0  0  0  0  0  0  0  0  0  0  0
   10.1759  -18.6738   25.6334 O   0  0  0  0  0  0  0  0  0  0  0  0
  2  3  1  0
  2  1  1  6
  4  3  1  0
  5  2  1  0
  6  5  2  0
  8  7  1  1
  8 10  1  0
  9  8  1  0
 11 10  1  1
 11 12  1  0
 12  5  1  0
 13 11  1  0
 13 20  1  0
 14 13  2  0
 16 15  1  0
 17 16  1  0
 18 17  1  0
 19 20  1  0
 19 18  1  1
 19 21  1  0
 21 23  1  0
 22 21  2  0
M  END
$$$$
