CLM.pdb
     RDKit          3D

 23 22  0  0  1  0  0  0  0  0999 V2000
    6.5871  -18.4331   21.8397 N   0  0  0  0  0  0  0  0  0  0  0  0
    6.4476  -18.0399   23.2500 C   0  0  1  0  0  0  0  0  0  0  0  0
    6.6968  -19.3023   24.0356 C   0  0  0  0  0  0  0  0  0  0  0  0
    6.6749  -19.0260   25.8185 S   0  0  0  0  0  0  0  0  0  0  0  0
    7.4102  -16.9805   23.5392 C   0  0  0  0  0  0  0  0  0  0  0  0
    8.5064  -16.9723   22.8860 O   0  0  0  0  0  0  0  0  0  0  0  0
    6.5305  -12.0768   24.0557 C   0  0  0  0  0  0  0  0  0  0  0  0
    6.5156  -13.1549   25.1080 C   0  0  2  0  0  0  0  0  0  0  0  0
    5.9009  -12.5361   26.3746 C   0  0  0  0  0  0  0  0  0  0  0  0
    7.8678  -13.6829   25.3798 C   0  0  0  0  0  0  0  0  0  0  0  0
    8.2915  -14.9332   24.7004 C   0  0  2  0  0  0  0  0  0  0  0  0
    7.2788  -15.9233   24.4808 N   0  0  0  0  0  0  0  0  0  0  0  0
    9.5424  -15.4695   25.3098 C   0  0  0  0  0  0  0  0  0  0  0  0
   10.5598  -14.7089   25.4127 O   0  0  0  0  0  0  0  0  0  0  0  0
   10.9780  -13.6992   29.5078 C   0  0  0  0  0  0  0  0  0  0  0  0
    9.9880  -15.1491   29.0004 S   0  0  0  0  0  0  0  0  0  0  0  0
   10.8826  -16.6399   28.8423 C   0  0  0  0  0  0  0  0  0  0  0  0
   10.7070  -17.6405   27.7937 C   0  0  0  0  0  0  0  0  0  0  0  0
   10.9645  -17.2722   26.3988 C   0  0  2  0  0  0  0  0  0  0  0  0
    9.6797  -16.7685   25.7836 N   0  0  0  0  0  0  0  0  0  0  0  0
   11.1587  -18.5575   25.6003 C   0  0  0  0  0  0  0  0  0  0  0  0
   10.1832  -18.9113   24.8422 O   0  0  0  0  0  0  0  0  0  0  0  0
   12.2404  -19.3443   25.6191 O   0  0  0  0  0  0  0  0  0  0  0  0
  2  3  1  0
  2  1  1  6
  4  3  1  0
  5  2  1  0
  6  5  2  0
  8  7  1  6
  8 10  1  0
  9  8  1  0
 11 10  1  1
 11 12  1  0
 12  5  1  0
 13 11  1  0
 13 20  1  0
 14 13  2  0
 16 15  1  0
 17 16  1  0
 18 17  1  0
 19 20  1  0
 19 18  1  1
 19 21  1  0
 21 23  1  0
 22 21  2  0
M  END
$$$$
