CLM.pdb
     RDKit          3D

 23 22  0  0  1  0  0  0  0  0999 V2000
    9.1916  -15.5560   20.3782 N   0  0  0  0  0  0  0  0  0  0  0  0
    8.0170  -15.6298   21.2602 C   0  0  1  0  0  0  0  0  0  0  0  0
    7.4905  -17.0329   21.0956 C   0  0  0  0  0  0  0  0  0  0  0  0
    8.2158  -18.1891   22.2757 S   0  0  0  0  0  0  0  0  0  0  0  0
    8.4360  -15.3268   22.6259 C   0  0  0  0  0  0  0  0  0  0  0  0
    9.6845  -15.3485   22.8884 O   0  0  0  0  0  0  0  0  0  0  0  0
    7.9795  -11.7229   25.5736 C   0  0  0  0  0  0  0  0  0  0  0  0
    6.8426  -12.7115   25.5824 C   0  0  2  0  0  0  0  0  0  0  0  0
    5.7707  -12.1530   26.5334 C   0  0  0  0  0  0  0  0  0  0  0  0
    7.2803  -14.0557   26.0097 C   0  0  0  0  0  0  0  0  0  0  0  0
    8.0994  -14.8665   25.0736 C   0  0  2  0  0  0  0  0  0  0  0  0
    7.6077  -14.9980   23.7338 N   0  0  0  0  0  0  0  0  0  0  0  0
    8.5001  -16.1579   25.7024 C   0  0  0  0  0  0  0  0  0  0  0  0
    7.6613  -17.1166   25.7429 O   0  0  0  0  0  0  0  0  0  0  0  0
   14.1229  -20.1420   25.2408 C   0  0  0  0  0  0  0  0  0  0  0  0
   13.3347  -18.7086   24.4261 S   0  0  0  0  0  0  0  0  0  0  0  0
   11.7905  -18.2352   25.0886 C   0  0  0  0  0  0  0  0  0  0  0  0
   11.4762  -18.0736   26.5052 C   0  0  0  0  0  0  0  0  0  0  0  0
   10.1122  -17.7134   26.9020 C   0  0  2  0  0  0  0  0  0  0  0  0
    9.7509  -16.3947   26.2593 N   0  0  0  0  0  0  0  0  0  0  0  0
   10.1427  -17.2976   28.3695 C   0  0  0  0  0  0  0  0  0  0  0  0
   10.4070  -18.2243   29.2197 O   0  0  0  0  0  0  0  0  0  0  0  0
    9.9188  -16.0687   28.8481 O   0  0  0  0  0  0  0  0  0  0  0  0
  2  3  1  0
  2  1  1  6
  4  3  1  0
  5  2  1  0
  6  5  2  0
  8  7  1  1
  8 10  1  0
  9  8  1  0
 11 10  1  1
 11 12  1  0
 12  5  1  0
 13 11  1  0
 13 20  1  0
 14 13  2  0
 16 15  1  0
 17 16  1  0
 18 17  1  0
 19 20  1  0
 19 18  1  6
 19 21  1  0
 21 23  1  0
 22 21  2  0
M  END
$$$$
