CLM.pdb
     RDKit          3D

 23 22  0  0  1  0  0  0  0  0999 V2000
    8.0696  -16.3368   19.4689 N   0  0  0  0  0  0  0  0  0  0  0  0
    7.2394  -16.5200   20.6691 C   0  0  1  0  0  0  0  0  0  0  0  0
    7.0224  -18.0083   20.7723 C   0  0  0  0  0  0  0  0  0  0  0  0
    8.5086  -18.8923   21.2873 S   0  0  0  0  0  0  0  0  0  0  0  0
    7.9448  -15.9583   21.8178 C   0  0  0  0  0  0  0  0  0  0  0  0
    9.1939  -15.7262   21.6990 O   0  0  0  0  0  0  0  0  0  0  0  0
    7.4414  -11.9999   24.2076 C   0  0  0  0  0  0  0  0  0  0  0  0
    6.6088  -13.1409   24.7317 C   0  0  2  0  0  0  0  0  0  0  0  0
    5.7686  -12.5855   25.8939 C   0  0  0  0  0  0  0  0  0  0  0  0
    7.4418  -14.2764   25.1764 C   0  0  0  0  0  0  0  0  0  0  0  0
    8.1794  -15.0594   24.1530 C   0  0  2  0  0  0  0  0  0  0  0  0
    7.4027  -15.6239   23.0889 N   0  0  0  0  0  0  0  0  0  0  0  0
    9.1167  -16.0236   24.7976 C   0  0  0  0  0  0  0  0  0  0  0  0
    8.6555  -17.1052   25.2892 O   0  0  0  0  0  0  0  0  0  0  0  0
    9.9732  -13.5299   29.8553 C   0  0  0  0  0  0  0  0  0  0  0  0
   11.0257  -15.0190   29.9769 S   0  0  0  0  0  0  0  0  0  0  0  0
   10.8535  -16.1584   28.6655 C   0  0  0  0  0  0  0  0  0  0  0  0
   10.3775  -15.8539   27.3194 C   0  0  0  0  0  0  0  0  0  0  0  0
   11.2522  -16.1125   26.1723 C   0  0  2  0  0  0  0  0  0  0  0  0
   10.4874  -15.8214   24.9022 N   0  0  0  0  0  0  0  0  0  0  0  0
   11.4243  -17.6227   26.0420 C   0  0  0  0  0  0  0  0  0  0  0  0
   12.2187  -18.1811   26.8838 O   0  0  0  0  0  0  0  0  0  0  0  0
   10.8318  -18.4111   25.1383 O   0  0  0  0  0  0  0  0  0  0  0  0
  2  3  1  0
  2  1  1  6
  4  3  1  0
  5  2  1  0
  6  5  2  0
  8  7  1  1
  8 10  1  0
  9  8  1  0
 11 10  1  1
 11 12  1  0
 12  5  1  0
 13 11  1  0
 13 20  1  0
 14 13  2  0
 16 15  1  0
 17 16  1  0
 18 17  1  0
 19 20  1  0
 19 18  1  1
 19 21  1  0
 21 23  1  0
 22 21  2  0
M  END
$$$$
