CLM.pdb
     RDKit          3D

 23 22  0  0  1  0  0  0  0  0999 V2000
    5.8606  -18.9336   22.5385 N   0  0  0  0  0  0  0  0  0  0  0  0
    6.1606  -18.3826   23.8688 C   0  0  1  0  0  0  0  0  0  0  0  0
    6.7730  -19.5257   24.6377 C   0  0  0  0  0  0  0  0  0  0  0  0
    7.3714  -19.0261   26.2649 S   0  0  0  0  0  0  0  0  0  0  0  0
    7.0611  -17.2436   23.7128 C   0  0  0  0  0  0  0  0  0  0  0  0
    7.8870  -17.2616   22.7402 O   0  0  0  0  0  0  0  0  0  0  0  0
    6.1590  -12.2179   23.9829 C   0  0  0  0  0  0  0  0  0  0  0  0
    6.4431  -13.2746   25.0184 C   0  0  2  0  0  0  0  0  0  0  0  0
    6.1181  -12.6575   26.3891 C   0  0  0  0  0  0  0  0  0  0  0  0
    7.8440  -13.7394   24.9662 C   0  0  0  0  0  0  0  0  0  0  0  0
    8.1308  -15.0624   24.3564 C   0  0  2  0  0  0  0  0  0  0  0  0
    7.1369  -16.0808   24.5274 N   0  0  0  0  0  0  0  0  0  0  0  0
    9.5167  -15.5064   24.6816 C   0  0  0  0  0  0  0  0  0  0  0  0
   10.4936  -14.7253   24.4367 O   0  0  0  0  0  0  0  0  0  0  0  0
   10.3525  -13.5300   29.4355 C   0  0  0  0  0  0  0  0  0  0  0  0
   10.8789  -15.1740   30.0352 S   0  0  0  0  0  0  0  0  0  0  0  0
   11.0966  -16.3820   28.7938 C   0  0  0  0  0  0  0  0  0  0  0  0
   10.2466  -16.5731   27.6222 C   0  0  0  0  0  0  0  0  0  0  0  0
   10.8631  -16.8928   26.3317 C   0  0  2  0  0  0  0  0  0  0  0  0
    9.8247  -16.7386   25.2451 N   0  0  0  0  0  0  0  0  0  0  0  0
   11.0870  -18.4009   26.2772 C   0  0  0  0  0  0  0  0  0  0  0  0
   10.1439  -19.0991   25.7534 O   0  0  0  0  0  0  0  0  0  0  0  0
   12.1639  -19.0571   26.7233 O   0  0  0  0  0  0  0  0  0  0  0  0
  2  3  1  0
  2  1  1  6
  4  3  1  0
  5  2  1  0
  6  5  2  0
  8  7  1  6
  8 10  1  0
  9  8  1  0
 11 10  1  1
 11 12  1  0
 12  5  1  0
 13 11  1  0
 13 20  1  0
 14 13  2  0
 16 15  1  0
 17 16  1  0
 18 17  1  0
 19 20  1  0
 19 18  1  1
 19 21  1  0
 21 23  1  0
 22 21  2  0
M  END
$$$$
