CLM.pdb
     RDKit          3D

 23 22  0  0  1  0  0  0  0  0999 V2000
    6.6843  -20.2049   22.6382 N   0  0  0  0  0  0  0  0  0  0  0  0
    5.9576  -18.9411   22.4439 C   0  0  1  0  0  0  0  0  0  0  0  0
    5.2995  -18.6591   23.7706 C   0  0  0  0  0  0  0  0  0  0  0  0
    6.4948  -18.4050   25.0981 S   0  0  0  0  0  0  0  0  0  0  0  0
    6.9095  -17.9097   22.0408 C   0  0  0  0  0  0  0  0  0  0  0  0
    8.1510  -18.2045   22.0477 O   0  0  0  0  0  0  0  0  0  0  0  0
    7.7013  -12.0395   19.9815 C   0  0  0  0  0  0  0  0  0  0  0  0
    8.2031  -13.4562   20.0865 C   0  0  2  0  0  0  0  0  0  0  0  0
    8.6066  -13.8947   18.6687 C   0  0  0  0  0  0  0  0  0  0  0  0
    7.1849  -14.3645   20.6515 C   0  0  0  0  0  0  0  0  0  0  0  0
    7.6367  -15.6198   21.3032 C   0  0  2  0  0  0  0  0  0  0  0  0
    6.6230  -16.5801   21.6262 N   0  0  0  0  0  0  0  0  0  0  0  0
    8.5743  -15.3265   22.4251 C   0  0  0  0  0  0  0  0  0  0  0  0
    9.6768  -14.7374   22.1764 O   0  0  0  0  0  0  0  0  0  0  0  0
    5.4951  -12.1560   27.1167 C   0  0  0  0  0  0  0  0  0  0  0  0
    6.9833  -12.7878   27.9686 S   0  0  0  0  0  0  0  0  0  0  0  0
    8.1287  -13.6168   26.9447 C   0  0  0  0  0  0  0  0  0  0  0  0
    7.8232  -14.3006   25.6914 C   0  0  0  0  0  0  0  0  0  0  0  0
    8.9155  -14.8776   24.9030 C   0  0  2  0  0  0  0  0  0  0  0  0
    8.3249  -15.6573   23.7514 N   0  0  0  0  0  0  0  0  0  0  0  0
    9.5296  -16.0163   25.7114 C   0  0  0  0  0  0  0  0  0  0  0  0
    9.1581  -17.2053   25.3956 O   0  0  0  0  0  0  0  0  0  0  0  0
   10.4090  -15.8914   26.7117 O   0  0  0  0  0  0  0  0  0  0  0  0
  2  3  1  0
  2  1  1  1
  4  3  1  0
  5  2  1  0
  6  5  2  0
  8  7  1  6
  8 10  1  0
  9  8  1  0
 11 10  1  1
 11 12  1  0
 12  5  1  0
 13 11  1  0
 13 20  1  0
 14 13  2  0
 16 15  1  0
 17 16  1  0
 18 17  1  0
 19 20  1  0
 19 18  1  1
 19 21  1  0
 21 23  1  0
 22 21  2  0
M  END
$$$$
