CLM.pdb
     RDKit          3D

 23 22  0  0  1  0  0  0  0  0999 V2000
    9.1617  -15.4052   19.6278 N   0  0  0  0  0  0  0  0  0  0  0  0
    8.0870  -15.7836   20.5578 C   0  0  1  0  0  0  0  0  0  0  0  0
    7.8444  -17.2493   20.3013 C   0  0  0  0  0  0  0  0  0  0  0  0
    8.5422  -18.3039   21.5882 S   0  0  0  0  0  0  0  0  0  0  0  0
    8.5256  -15.5011   21.9218 C   0  0  0  0  0  0  0  0  0  0  0  0
    9.7743  -15.3376   22.1278 O   0  0  0  0  0  0  0  0  0  0  0  0
    7.7117  -12.0358   25.0598 C   0  0  0  0  0  0  0  0  0  0  0  0
    6.6745  -13.1284   25.0711 C   0  0  2  0  0  0  0  0  0  0  0  0
    5.6405  -12.7535   26.1459 C   0  0  0  0  0  0  0  0  0  0  0  0
    7.2675  -14.4527   25.3465 C   0  0  0  0  0  0  0  0  0  0  0  0
    8.2349  -15.0143   24.3702 C   0  0  2  0  0  0  0  0  0  0  0  0
    7.7166  -15.3779   23.0844 N   0  0  0  0  0  0  0  0  0  0  0  0
    9.0770  -16.0685   25.0053 C   0  0  0  0  0  0  0  0  0  0  0  0
    8.8781  -17.2901   24.7015 O   0  0  0  0  0  0  0  0  0  0  0  0
   10.7452  -13.1633   28.2826 C   0  0  0  0  0  0  0  0  0  0  0  0
   11.1075  -14.5004   29.4746 S   0  0  0  0  0  0  0  0  0  0  0  0
   11.4491  -16.0571   28.7621 C   0  0  0  0  0  0  0  0  0  0  0  0
   11.9359  -16.2935   27.4062 C   0  0  0  0  0  0  0  0  0  0  0  0
   11.0334  -16.8782   26.4105 C   0  0  2  0  0  0  0  0  0  0  0  0
   10.0851  -15.8068   25.9250 N   0  0  0  0  0  0  0  0  0  0  0  0
   10.0546  -17.7923   27.1410 C   0  0  0  0  0  0  0  0  0  0  0  0
    8.8676  -17.3325   27.3175 O   0  0  0  0  0  0  0  0  0  0  0  0
   10.3172  -19.0162   27.6129 O   0  0  0  0  0  0  0  0  0  0  0  0
  2  3  1  0
  2  1  1  6
  4  3  1  0
  5  2  1  0
  6  5  2  0
  8  7  1  1
  8 10  1  0
  9  8  1  0
 11 10  1  1
 11 12  1  0
 12  5  1  0
 13 11  1  0
 13 20  1  0
 14 13  2  0
 16 15  1  0
 17 16  1  0
 18 17  1  0
 19 20  1  0
 19 18  1  1
 19 21  1  0
 21 23  1  0
 22 21  2  0
M  END
$$$$
