PGA.pdb
     RDKit          3D

 17 17  0  0  1  0  0  0  0  0999 V2000
   27.7333  -20.7240   -5.3096 N   0  0  0  0  0  0  0  0  0  0  0  0
   28.7601  -20.4090   -4.3367 C   0  0  0  0  0  0  0  0  0  0  0  0
   29.3532  -19.0835   -4.7514 C   0  0  0  0  0  0  0  0  0  0  0  0
   28.2040  -18.3996   -5.4151 C   0  0  0  0  0  0  0  0  0  0  0  0
   27.3755  -19.5144   -5.9766 C   0  0  1  0  0  0  0  0  0  0  0  0
   27.6899  -19.6486   -7.4356 C   0  0  0  0  0  0  0  0  0  0  0  0
   27.4716  -18.6948   -8.2234 O   0  0  0  0  0  0  0  0  0  0  0  0
   28.2393  -20.8509   -7.9599 N   0  0  0  0  0  0  0  0  0  0  0  0
   28.5982  -20.9991   -9.3553 C   0  0  0  0  0  0  0  0  0  0  0  0
   27.4234  -21.3363  -10.1983 C   0  0  0  0  0  0  0  0  0  0  0  0
   27.5399  -21.7783  -11.3778 O   0  0  0  0  0  0  0  0  0  0  0  0
   23.7584  -21.0630   -9.5250 C   0  0  0  0  0  0  0  0  0  0  0  0
   24.9496  -21.4055  -10.4108 C   0  0  2  0  0  0  0  0  0  0  0  0
   26.1388  -21.1437   -9.6287 N   0  0  0  0  0  0  0  0  0  0  0  0
   24.9321  -20.4939  -11.5747 C   0  0  0  0  0  0  0  0  0  0  0  0
   24.1411  -20.6762  -12.5483 O   0  0  0  0  0  0  0  0  0  0  0  0
   25.7813  -19.4062  -11.6425 O   0  0  0  0  0  0  0  0  0  0  0  0
  1  2  1  0
  1  5  1  0
  2  3  1  0
  3  4  1  0
  5  6  1  6
  5  4  1  0
  6  7  2  0
  8  9  1  0
  8  6  1  0
  9 10  1  0
 10 14  1  0
 11 10  2  0
 13 12  1  1
 14 13  1  0
 15 13  1  0
 16 15  2  0
 17 15  1  0
M  END
$$$$
