PGA.pdb
     RDKit          3D

 17 17  0  0  1  0  0  0  0  0999 V2000
   24.7242   -9.5120  -16.1415 N   0  0  0  0  0  0  0  0  0  0  0  0
   25.4108  -10.5002  -15.3340 C   0  0  0  0  0  0  0  0  0  0  0  0
   24.9144  -11.8506  -15.7929 C   0  0  0  0  0  0  0  0  0  0  0  0
   24.6009  -11.6162  -17.2336 C   0  0  0  0  0  0  0  0  0  0  0  0
   24.2253  -10.1677  -17.3065 C   0  0  1  0  0  0  0  0  0  0  0  0
   22.7303  -10.0671  -17.3225 C   0  0  0  0  0  0  0  0  0  0  0  0
   22.0695  -10.5674  -18.2665 O   0  0  0  0  0  0  0  0  0  0  0  0
   22.0285   -9.4074  -16.2765 N   0  0  0  0  0  0  0  0  0  0  0  0
   20.6826   -8.8984  -16.4423 C   0  0  0  0  0  0  0  0  0  0  0  0
   20.4839   -7.6109  -15.7301 C   0  0  0  0  0  0  0  0  0  0  0  0
   19.3683   -7.0149  -15.7056 O   0  0  0  0  0  0  0  0  0  0  0  0
   22.2419   -5.9629  -13.0431 C   0  0  0  0  0  0  0  0  0  0  0  0
   21.4864   -5.8007  -14.3562 C   0  0  2  0  0  0  0  0  0  0  0  0
   21.6069   -7.0575  -15.0637 N   0  0  0  0  0  0  0  0  0  0  0  0
   22.1562   -4.7428  -15.1425 C   0  0  0  0  0  0  0  0  0  0  0  0
   22.8312   -5.0145  -16.1804 O   0  0  0  0  0  0  0  0  0  0  0  0
   22.0695   -3.4147  -14.7719 O   0  0  0  0  0  0  0  0  0  0  0  0
  1  2  1  0
  1  5  1  0
  2  3  1  0
  3  4  1  0
  5  6  1  1
  5  4  1  0
  6  7  2  0
  8  9  1  0
  8  6  1  0
  9 10  1  0
 10 14  1  0
 11 10  2  0
 13 12  1  1
 14 13  1  0
 15 13  1  0
 16 15  2  0
 17 15  1  0
M  END
$$$$
