PGA.pdb
     RDKit          3D

 17 17  0  0  1  0  0  0  0  0999 V2000
   25.4798  -20.7756  -13.0478 N   0  0  0  0  0  0  0  0  0  0  0  0
   26.3310  -21.8842  -12.6648 C   0  0  0  0  0  0  0  0  0  0  0  0
   27.7438  -21.3516  -12.6361 C   0  0  0  0  0  0  0  0  0  0  0  0
   27.5502  -19.9188  -12.2634 C   0  0  0  0  0  0  0  0  0  0  0  0
   26.1997  -19.5671  -12.8086 C   0  0  1  0  0  0  0  0  0  0  0  0
   26.3879  -18.8442  -14.1076 C   0  0  0  0  0  0  0  0  0  0  0  0
   26.9667  -17.7296  -14.1369 O   0  0  0  0  0  0  0  0  0  0  0  0
   25.9188  -19.3986  -15.3301 N   0  0  0  0  0  0  0  0  0  0  0  0
   25.9134  -18.6528  -16.5718 C   0  0  0  0  0  0  0  0  0  0  0  0
   24.5345  -18.3711  -17.0446 C   0  0  0  0  0  0  0  0  0  0  0  0
   24.2372  -17.3177  -17.6789 O   0  0  0  0  0  0  0  0  0  0  0  0
   21.5984  -20.5568  -17.4180 C   0  0  0  0  0  0  0  0  0  0  0  0
   22.1889  -19.1628  -17.2476 C   0  0  2  0  0  0  0  0  0  0  0  0
   23.5391  -19.3398  -16.7574 N   0  0  0  0  0  0  0  0  0  0  0  0
   21.3967  -18.4519  -16.2215 C   0  0  0  0  0  0  0  0  0  0  0  0
   21.6472  -18.5772  -14.9853 O   0  0  0  0  0  0  0  0  0  0  0  0
   20.3504  -17.6219  -16.5756 O   0  0  0  0  0  0  0  0  0  0  0  0
  1  2  1  0
  1  5  1  0
  2  3  1  0
  3  4  1  0
  5  6  1  6
  5  4  1  0
  6  7  2  0
  8  9  1  0
  8  6  1  0
  9 10  1  0
 10 14  1  0
 11 10  2  0
 13 12  1  1
 14 13  1  0
 15 13  1  0
 16 15  2  0
 17 15  1  0
M  END
$$$$
