PGA.pdb
     RDKit          3D

 17 17  0  0  1  0  0  0  0  0999 V2000
   25.1161  -21.5512  -13.9575 N   0  0  0  0  0  0  0  0  0  0  0  0
   26.0976  -22.3794  -13.2861 C   0  0  0  0  0  0  0  0  0  0  0  0
   26.6621  -21.5487  -12.1584 C   0  0  0  0  0  0  0  0  0  0  0  0
   25.5155  -20.6656  -11.7914 C   0  0  0  0  0  0  0  0  0  0  0  0
   24.7434  -20.5022  -13.0649 C   0  0  1  0  0  0  0  0  0  0  0  0
   25.1129  -19.1849  -13.6762 C   0  0  0  0  0  0  0  0  0  0  0  0
   24.7881  -18.1095  -13.1138 O   0  0  0  0  0  0  0  0  0  0  0  0
   25.8353  -19.1208  -14.8993 N   0  0  0  0  0  0  0  0  0  0  0  0
   26.2165  -17.8656  -15.5134 C   0  0  0  0  0  0  0  0  0  0  0  0
   25.1583  -17.3443  -16.4149 C   0  0  0  0  0  0  0  0  0  0  0  0
   25.2797  -17.3447  -17.6741 O   0  0  0  0  0  0  0  0  0  0  0  0
   21.6308  -16.4551  -15.6954 C   0  0  0  0  0  0  0  0  0  0  0  0
   22.8393  -16.4789  -16.6227 C   0  0  2  0  0  0  0  0  0  0  0  0
   23.9817  -16.8349  -15.8085 N   0  0  0  0  0  0  0  0  0  0  0  0
   23.0368  -15.1131  -17.1531 C   0  0  0  0  0  0  0  0  0  0  0  0
   23.6844  -14.2370  -16.5053 O   0  0  0  0  0  0  0  0  0  0  0  0
   22.5199  -14.7418  -18.3795 O   0  0  0  0  0  0  0  0  0  0  0  0
  1  2  1  0
  1  5  1  0
  2  3  1  0
  3  4  1  0
  5  6  1  6
  5  4  1  0
  6  7  2  0
  8  9  1  0
  8  6  1  0
  9 10  1  0
 10 14  1  0
 11 10  2  0
 13 12  1  1
 14 13  1  0
 15 13  1  0
 16 15  2  0
 17 15  1  0
M  END
$$$$
