PGA.pdb
     RDKit          3D

 17 17  0  0  1  0  0  0  0  0999 V2000
   27.6123  -20.9348  -15.9051 N   0  0  0  0  0  0  0  0  0  0  0  0
   28.6206  -19.8941  -15.9314 C   0  0  0  0  0  0  0  0  0  0  0  0
   28.2080  -18.8696  -14.9016 C   0  0  0  0  0  0  0  0  0  0  0  0
   27.4867  -19.6926  -13.8860 C   0  0  0  0  0  0  0  0  0  0  0  0
   26.9110  -20.8344  -14.6665 C   0  0  1  0  0  0  0  0  0  0  0  0
   25.4684  -20.5381  -14.9435 C   0  0  0  0  0  0  0  0  0  0  0  0
   25.1494  -19.6211  -15.7407 O   0  0  0  0  0  0  0  0  0  0  0  0
   24.4329  -21.2828  -14.3149 N   0  0  0  0  0  0  0  0  0  0  0  0
   23.0291  -20.9928  -14.5229 C   0  0  0  0  0  0  0  0  0  0  0  0
   22.3194  -20.7364  -13.2442 C   0  0  0  0  0  0  0  0  0  0  0  0
   22.8935  -20.2205  -12.2419 O   0  0  0  0  0  0  0  0  0  0  0  0
   20.0710  -19.3276  -11.8414 C   0  0  0  0  0  0  0  0  0  0  0  0
   20.1867  -20.8409  -11.9753 C   0  0  2  0  0  0  0  0  0  0  0  0
   20.9488  -21.0952  -13.1790 N   0  0  0  0  0  0  0  0  0  0  0  0
   18.8250  -21.3911  -12.1459 C   0  0  0  0  0  0  0  0  0  0  0  0
   17.9659  -21.3362  -11.2154 O   0  0  0  0  0  0  0  0  0  0  0  0
   18.4392  -21.9873  -13.3310 O   0  0  0  0  0  0  0  0  0  0  0  0
  1  2  1  0
  1  5  1  0
  2  3  1  0
  3  4  1  0
  5  6  1  6
  5  4  1  0
  6  7  2  0
  8  9  1  0
  8  6  1  0
  9 10  1  0
 10 14  1  0
 11 10  2  0
 13 12  1  6
 14 13  1  0
 15 13  1  0
 16 15  2  0
 17 15  1  0
M  END
$$$$
