PGA.pdb
     RDKit          3D

 17 17  0  0  1  0  0  0  0  0999 V2000
   27.5117  -17.3805  -16.5292 N   0  0  0  0  0  0  0  0  0  0  0  0
   26.8015  -16.1199  -16.6096 C   0  0  0  0  0  0  0  0  0  0  0  0
   25.8563  -16.0831  -15.4324 C   0  0  0  0  0  0  0  0  0  0  0  0
   26.5779  -16.8882  -14.4028 C   0  0  0  0  0  0  0  0  0  0  0  0
   27.3928  -17.8662  -15.1927 C   0  0  1  0  0  0  0  0  0  0  0  0
   26.6693  -19.1784  -15.2114 C   0  0  0  0  0  0  0  0  0  0  0  0
   26.2920  -19.6810  -16.2991 O   0  0  0  0  0  0  0  0  0  0  0  0
   26.3944  -19.8814  -14.0064 N   0  0  0  0  0  0  0  0  0  0  0  0
   26.4373  -21.3268  -13.9212 C   0  0  0  0  0  0  0  0  0  0  0  0
   26.1401  -21.8115  -12.5497 C   0  0  0  0  0  0  0  0  0  0  0  0
   25.7958  -23.0054  -12.3124 O   0  0  0  0  0  0  0  0  0  0  0  0
   26.0738  -20.0818   -9.2499 C   0  0  0  0  0  0  0  0  0  0  0  0
   25.5063  -21.0634  -10.2675 C   0  0  2  0  0  0  0  0  0  0  0  0
   26.2566  -20.8752  -11.4907 N   0  0  0  0  0  0  0  0  0  0  0  0
   24.0934  -20.7035  -10.5127 C   0  0  0  0  0  0  0  0  0  0  0  0
   23.7302  -20.1353  -11.5860 O   0  0  0  0  0  0  0  0  0  0  0  0
   23.1145  -20.9751   -9.5762 O   0  0  0  0  0  0  0  0  0  0  0  0
  1  2  1  0
  1  5  1  0
  2  3  1  0
  3  4  1  0
  5  6  1  6
  5  4  1  0
  6  7  2  0
  8  9  1  0
  8  6  1  0
  9 10  1  0
 10 14  1  0
 11 10  2  0
 13 12  1  1
 14 13  1  0
 15 13  1  0
 16 15  2  0
 17 15  1  0
M  END
$$$$
