PGA.pdb
     RDKit          3D

 17 17  0  0  1  0  0  0  0  0999 V2000
   43.6289  -14.4647   -9.8739 N   0  0  0  0  0  0  0  0  0  0  0  0
   42.4867  -13.6300   -9.5595 C   0  0  0  0  0  0  0  0  0  0  0  0
   42.2280  -13.7944   -8.0808 C   0  0  0  0  0  0  0  0  0  0  0  0
   43.5907  -14.0650   -7.5341 C   0  0  0  0  0  0  0  0  0  0  0  0
   44.3193  -14.7398   -8.6558 C   0  0  1  0  0  0  0  0  0  0  0  0
   44.3046  -16.2176   -8.4078 C   0  0  0  0  0  0  0  0  0  0  0  0
   44.8152  -16.6920   -7.3626 O   0  0  0  0  0  0  0  0  0  0  0  0
   43.7163  -17.1124   -9.3433 N   0  0  0  0  0  0  0  0  0  0  0  0
   43.5810  -18.5311   -9.0845 C   0  0  0  0  0  0  0  0  0  0  0  0
   44.7716  -19.2942   -9.5365 C   0  0  0  0  0  0  0  0  0  0  0  0
   44.8000  -20.5588   -9.5535 O   0  0  0  0  0  0  0  0  0  0  0  0
   47.6772  -18.2661  -11.5228 C   0  0  0  0  0  0  0  0  0  0  0  0
   47.0547  -19.2212  -10.5122 C   0  0  2  0  0  0  0  0  0  0  0  0
   45.9007  -18.5464   -9.9577 N   0  0  0  0  0  0  0  0  0  0  0  0
   48.0387  -19.4514   -9.4329 C   0  0  0  0  0  0  0  0  0  0  0  0
   48.0357  -18.7561   -8.3731 O   0  0  0  0  0  0  0  0  0  0  0  0
   49.0006  -20.4372   -9.5421 O   0  0  0  0  0  0  0  0  0  0  0  0
  1  2  1  0
  1  5  1  0
  2  3  1  0
  3  4  1  0
  5  6  1  1
  5  4  1  0
  6  7  2  0
  8  9  1  0
  8  6  1  0
  9 10  1  0
 10 14  1  0
 11 10  2  0
 13 12  1  6
 14 13  1  0
 15 13  1  0
 16 15  2  0
 17 15  1  0
M  END
$$$$
