PGA.pdb
     RDKit          3D

 17 17  0  0  1  0  0  0  0  0999 V2000
   28.1392  -20.6969  -13.4166 N   0  0  0  0  0  0  0  0  0  0  0  0
   28.1215  -21.2665  -14.7491 C   0  0  0  0  0  0  0  0  0  0  0  0
   26.8648  -20.7607  -15.4163 C   0  0  0  0  0  0  0  0  0  0  0  0
   26.6627  -19.4277  -14.7748 C   0  0  0  0  0  0  0  0  0  0  0  0
   27.2606  -19.5726  -13.4088 C   0  0  1  0  0  0  0  0  0  0  0  0
   26.1526  -19.8242  -12.4319 C   0  0  0  0  0  0  0  0  0  0  0  0
   25.1991  -19.0127  -12.3291 O   0  0  0  0  0  0  0  0  0  0  0  0
   26.1536  -20.9797  -11.6032 N   0  0  0  0  0  0  0  0  0  0  0  0
   25.1563  -21.2025  -10.5767 C   0  0  0  0  0  0  0  0  0  0  0  0
   25.7480  -21.1884   -9.2150 C   0  0  0  0  0  0  0  0  0  0  0  0
   25.0597  -21.3987   -8.1746 O   0  0  0  0  0  0  0  0  0  0  0  0
   29.2687  -20.7181   -8.0644 C   0  0  0  0  0  0  0  0  0  0  0  0
   27.7718  -20.8523   -7.8147 C   0  0  2  0  0  0  0  0  0  0  0  0
   27.1382  -20.9264   -9.1138 N   0  0  0  0  0  0  0  0  0  0  0  0
   27.3105  -19.6278   -7.1265 C   0  0  0  0  0  0  0  0  0  0  0  0
   26.6450  -18.7362   -7.7338 O   0  0  0  0  0  0  0  0  0  0  0  0
   27.5898  -19.4112   -5.7909 O   0  0  0  0  0  0  0  0  0  0  0  0
  1  2  1  0
  1  5  1  0
  2  3  1  0
  3  4  1  0
  5  6  1  1
  5  4  1  0
  6  7  2  0
  8  9  1  0
  8  6  1  0
  9 10  1  0
 10 14  1  0
 11 10  2  0
 13 12  1  6
 14 13  1  0
 15 13  1  0
 16 15  2  0
 17 15  1  0
M  END
$$$$
