PGA.pdb
     RDKit          3D

 17 17  0  0  1  0  0  0  0  0999 V2000
   26.3068  -17.1796  -14.6468 N   0  0  0  0  0  0  0  0  0  0  0  0
   26.8867  -15.9027  -15.0122 C   0  0  0  0  0  0  0  0  0  0  0  0
   27.9405  -16.1916  -16.0545 C   0  0  0  0  0  0  0  0  0  0  0  0
   27.4053  -17.4057  -16.7391 C   0  0  0  0  0  0  0  0  0  0  0  0
   26.6065  -18.1106  -15.6858 C   0  0  1  0  0  0  0  0  0  0  0  0
   27.4412  -19.2204  -15.1228 C   0  0  0  0  0  0  0  0  0  0  0  0
   27.7366  -20.2156  -15.8303 O   0  0  0  0  0  0  0  0  0  0  0  0
   27.9159  -19.1741  -13.7832 N   0  0  0  0  0  0  0  0  0  0  0  0
   28.6094  -20.2849  -13.1642 C   0  0  0  0  0  0  0  0  0  0  0  0
   27.7989  -20.9189  -12.0940 C   0  0  0  0  0  0  0  0  0  0  0  0
   28.1607  -21.9802  -11.5082 O   0  0  0  0  0  0  0  0  0  0  0  0
   25.4031  -19.9073   -9.7021 C   0  0  0  0  0  0  0  0  0  0  0  0
   25.6739  -20.9198  -10.8079 C   0  0  2  0  0  0  0  0  0  0  0  0
   26.5804  -20.2850  -11.7406 N   0  0  0  0  0  0  0  0  0  0  0  0
   24.3959  -21.1983  -11.4970 C   0  0  0  0  0  0  0  0  0  0  0  0
   23.4321  -21.7681  -10.9028 O   0  0  0  0  0  0  0  0  0  0  0  0
   24.2061  -20.8456  -12.8194 O   0  0  0  0  0  0  0  0  0  0  0  0
  1  2  1  0
  1  5  1  0
  2  3  1  0
  3  4  1  0
  5  6  1  1
  5  4  1  0
  6  7  2  0
  8  9  1  0
  8  6  1  0
  9 10  1  0
 10 14  1  0
 11 10  2  0
 13 12  1  1
 14 13  1  0
 15 13  1  0
 16 15  2  0
 17 15  1  0
M  END
$$$$
