PGA.pdb
     RDKit          3D

 17 17  0  0  1  0  0  0  0  0999 V2000
   26.8697  -18.9378  -17.0377 N   0  0  0  0  0  0  0  0  0  0  0  0
   26.8043  -17.8454  -17.9878 C   0  0  0  0  0  0  0  0  0  0  0  0
   27.3215  -16.6208  -17.2712 C   0  0  0  0  0  0  0  0  0  0  0  0
   28.3023  -17.1936  -16.3021 C   0  0  0  0  0  0  0  0  0  0  0  0
   27.7793  -18.5653  -16.0033 C   0  0  1  0  0  0  0  0  0  0  0  0
   27.0438  -18.5171  -14.6987 C   0  0  0  0  0  0  0  0  0  0  0  0
   27.6432  -18.1964  -13.6423 O   0  0  0  0  0  0  0  0  0  0  0  0
   25.6588  -18.8311  -14.6255 N   0  0  0  0  0  0  0  0  0  0  0  0
   24.8935  -18.6961  -13.4031 C   0  0  0  0  0  0  0  0  0  0  0  0
   25.1032  -19.8453  -12.4867 C   0  0  0  0  0  0  0  0  0  0  0  0
   24.9295  -21.0440  -12.8518 O   0  0  0  0  0  0  0  0  0  0  0  0
   26.2800  -19.9924   -8.9469 C   0  0  0  0  0  0  0  0  0  0  0  0
   25.6751  -20.6193  -10.1969 C   0  0  2  0  0  0  0  0  0  0  0  0
   25.5130  -19.5521  -11.1609 N   0  0  0  0  0  0  0  0  0  0  0  0
   24.3418  -21.1514   -9.8433 C   0  0  0  0  0  0  0  0  0  0  0  0
   23.2783  -20.5344  -10.1514 O   0  0  0  0  0  0  0  0  0  0  0  0
   24.2075  -22.3455   -9.1614 O   0  0  0  0  0  0  0  0  0  0  0  0
  1  2  1  0
  1  5  1  0
  2  3  1  0
  3  4  1  0
  5  6  1  1
  5  4  1  0
  6  7  2  0
  8  9  1  0
  8  6  1  0
  9 10  1  0
 10 14  1  0
 11 10  2  0
 13 12  1  1
 14 13  1  0
 15 13  1  0
 16 15  2  0
 17 15  1  0
M  END
$$$$
