RKI.pdb
     RDKit          3D

 29 28  0  0  1  0  0  0  0  0999 V2000
    9.3568  -15.5891   15.7659 N   0  0  0  0  0  0  0  0  0  0  0  0
    8.4618  -14.4868   15.8104 C   0  0  0  0  0  0  0  0  0  0  0  0
    7.3580  -14.4699   15.1235 N   0  0  0  0  0  0  0  0  0  0  0  0
    8.8050  -13.3836   16.6362 N   0  0  0  0  0  0  0  0  0  0  0  0
    8.8137  -13.5236   18.1030 C   0  0  0  0  0  0  0  0  0  0  0  0
    7.3961  -13.5925   18.5425 C   0  0  0  0  0  0  0  0  0  0  0  0
    7.0586  -14.5673   19.5990 C   0  0  0  0  0  0  0  0  0  0  0  0
    8.1971  -15.2320   20.3020 C   0  0  2  0  0  0  0  0  0  0  0  0
    8.5896  -16.4803   19.6723 N   0  0  0  0  0  0  0  0  0  0  0  0
    7.7497  -15.4975   21.6813 C   0  0  0  0  0  0  0  0  0  0  0  0
    7.2379  -14.5893   22.3521 O   0  0  0  0  0  0  0  0  0  0  0  0
    6.7571  -13.6430   15.1049 N   0  0  0  0  0  0  0  0  0  0  0  0
    7.9042  -16.7810   22.2342 C   0  0  1  0  0  0  0  0  0  0  0  0
    7.5904  -17.0316   23.6299 C   0  0  0  0  0  0  0  0  0  0  0  0
    7.7803  -18.5258   23.8569 C   0  0  0  0  0  0  0  0  0  0  0  0
    7.5599  -18.8470   25.3335 C   0  0  0  0  0  0  0  0  0  0  0  0
    7.8714  -20.2953   25.6110 C   0  0  0  0  0  0  0  0  0  0  0  0
    7.5911  -20.5741   27.0721 N   0  0  0  0  0  0  0  0  0  0  0  0
    6.2530  -21.0776   27.2439 C   0  0  0  0  0  0  0  0  0  0  0  0
    8.4323  -16.2342   24.5412 O   0  0  0  0  0  0  0  0  0  0  0  0
    9.7056  -16.2648   24.5041 C   0  0  0  0  0  0  0  0  0  0  0  0
    6.2993  -11.4617   25.7964 C   0  0  0  0  0  0  0  0  0  0  0  0
    7.2596  -12.5708   25.4238 C   0  0  2  0  0  0  0  0  0  0  0  0
    7.6651  -13.2960   26.6635 C   0  0  0  0  0  0  0  0  0  0  0  0
    8.3821  -12.3358   27.5944 C   0  0  2  0  0  0  0  0  0  0  0  0
    8.5343  -14.5189   26.3830 N   0  0  0  0  0  0  0  0  0  0  0  0
    7.8117  -15.4006   25.4961 C   0  0  0  0  0  0  0  0  0  0  0  0
    8.8540  -15.2575   27.6198 O   0  0  0  0  0  0  0  0  0  0  0  0
    9.9544  -14.9090   28.3794 O   0  0  0  0  0  0  0  0  0  0  0  0
  2  1  1  0
  2  3  2  0
  4  2  1  0
  5  4  1  0
  6  5  1  0
  7  6  1  0
  8  7  1  0
  8  9  1  6
 10  8  1  0
 10 12  1  0
 11 10  2  0
 13 12  1  0
 13 14  1  1
 15 14  1  0
 16 15  1  0
 17 16  1  0
 18 17  1  0
 19 26  1  0
 19 13  1  0
 20 19  2  0
 21 22  1  0
 23 22  1  0
 23 25  1  0
 23 24  1  1
 25 26  1  6
 25 27  1  0
 27 28  1  0
 29 27  2  0
M  END
$$$$
