RKI.pdb
     RDKit          3D

 29 28  0  0  1  0  0  0  0  0999 V2000
    9.9651  -14.1894   19.5085 N   0  0  0  0  0  0  0  0  0  0  0  0
    8.7192  -13.5868   19.1881 C   0  0  0  0  0  0  0  0  0  0  0  0
    8.5745  -12.2959   19.1323 N   0  0  0  0  0  0  0  0  0  0  0  0
    7.6149  -14.4404   18.9255 N   0  0  0  0  0  0  0  0  0  0  0  0
    7.7589  -15.9025   19.0367 C   0  0  0  0  0  0  0  0  0  0  0  0
    6.7109  -16.3732   19.9788 C   0  0  0  0  0  0  0  0  0  0  0  0
    6.7363  -17.7974   20.3675 C   0  0  0  0  0  0  0  0  0  0  0  0
    5.6246  -18.2864   21.2377 C   0  0  2  0  0  0  0  0  0  0  0  0
    4.3207  -17.8386   20.7818 N   0  0  0  0  0  0  0  0  0  0  0  0
    5.8792  -17.7596   22.5908 C   0  0  0  0  0  0  0  0  0  0  0  0
    5.2122  -16.8071   23.0203 O   0  0  0  0  0  0  0  0  0  0  0  0
    7.6646  -11.8717   18.9392 N   0  0  0  0  0  0  0  0  0  0  0  0
    6.8788  -18.3385   23.3924 C   0  0  2  0  0  0  0  0  0  0  0  0
    7.0544  -17.9270   24.7741 C   0  0  0  0  0  0  0  0  0  0  0  0
    7.6407  -19.1230   25.5130 C   0  0  0  0  0  0  0  0  0  0  0  0
    7.8565  -18.7574   26.9799 C   0  0  0  0  0  0  0  0  0  0  0  0
    8.6346  -19.8388   27.6846 C   0  0  0  0  0  0  0  0  0  0  0  0
    8.6974  -19.5006   29.1587 N   0  0  0  0  0  0  0  0  0  0  0  0
    9.3615  -20.5478   29.8907 C   0  0  0  0  0  0  0  0  0  0  0  0
    7.9194  -16.7385   24.8949 O   0  0  0  0  0  0  0  0  0  0  0  0
    9.0173  -16.6200   24.2590 C   0  0  0  0  0  0  0  0  0  0  0  0
    5.5569  -12.1364   27.2882 C   0  0  0  0  0  0  0  0  0  0  0  0
    6.3436  -13.4227   27.1554 C   0  0  2  0  0  0  0  0  0  0  0  0
    7.2797  -13.2997   25.9996 C   0  0  0  0  0  0  0  0  0  0  0  0
    6.4789  -13.1789   24.7163 C   0  0  1  0  0  0  0  0  0  0  0  0
    8.2689  -14.4582   25.9061 N   0  0  0  0  0  0  0  0  0  0  0  0
    7.5237  -15.6850   25.7465 C   0  0  0  0  0  0  0  0  0  0  0  0
    9.0981  -14.5684   27.1218 O   0  0  0  0  0  0  0  0  0  0  0  0
    8.9767  -15.6635   27.9556 O   0  0  0  0  0  0  0  0  0  0  0  0
  2  1  1  0
  2  3  2  0
  4  2  1  0
  5  4  1  0
  6  5  1  0
  7  6  1  0
  8  7  1  0
  8  9  1  6
 10  8  1  0
 10 12  1  0
 11 10  2  0
 13 12  1  0
 13 14  1  6
 15 14  1  0
 16 15  1  0
 17 16  1  0
 18 17  1  0
 19 26  1  0
 19 13  1  0
 20 19  2  0
 21 22  1  0
 23 22  1  0
 23 25  1  0
 23 24  1  1
 25 26  1  6
 25 27  1  0
 27 28  1  0
 29 27  2  0
M  END
$$$$
