RKI.pdb
     RDKit          3D

 29 28  0  0  1  0  0  0  0  0999 V2000
    9.7679  -14.4999   17.2788 N   0  0  0  0  0  0  0  0  0  0  0  0
    8.6885  -13.6796   16.8545 C   0  0  0  0  0  0  0  0  0  0  0  0
    8.3125  -13.6278   15.6109 N   0  0  0  0  0  0  0  0  0  0  0  0
    8.0168  -12.9031   17.8357 N   0  0  0  0  0  0  0  0  0  0  0  0
    8.2231  -13.1718   19.2696 C   0  0  0  0  0  0  0  0  0  0  0  0
    7.7622  -14.5614   19.5233 C   0  0  0  0  0  0  0  0  0  0  0  0
    7.7840  -15.0406   20.9197 C   0  0  0  0  0  0  0  0  0  0  0  0
    7.3902  -16.4618   21.1589 C   0  0  2  0  0  0  0  0  0  0  0  0
    6.0329  -16.7450   20.7275 N   0  0  0  0  0  0  0  0  0  0  0  0
    7.5033  -16.6970   22.6098 C   0  0  0  0  0  0  0  0  0  0  0  0
    6.5942  -16.3317   23.3693 O   0  0  0  0  0  0  0  0  0  0  0  0
    7.5258  -13.0443   15.3182 N   0  0  0  0  0  0  0  0  0  0  0  0
    8.6428  -17.3355   23.1303 C   0  0  2  0  0  0  0  0  0  0  0  0
    8.8150  -17.4965   24.5634 C   0  0  0  0  0  0  0  0  0  0  0  0
    9.6904  -18.7273   24.7607 C   0  0  0  0  0  0  0  0  0  0  0  0
    8.9737  -19.9548   24.2023 C   0  0  0  0  0  0  0  0  0  0  0  0
    9.8850  -21.1549   24.2271 C   0  0  0  0  0  0  0  0  0  0  0  0
    9.1809  -22.3052   23.5400 N   0  0  0  0  0  0  0  0  0  0  0  0
   10.0035  -23.4869   23.5595 C   0  0  0  0  0  0  0  0  0  0  0  0
    9.4111  -16.3017   25.1897 O   0  0  0  0  0  0  0  0  0  0  0  0
   10.3114  -15.6034   24.6191 C   0  0  0  0  0  0  0  0  0  0  0  0
    6.8698  -12.1732   26.4312 C   0  0  0  0  0  0  0  0  0  0  0  0
    8.0078  -13.1264   26.1356 C   0  0  2  0  0  0  0  0  0  0  0  0
    8.4621  -13.7482   27.4139 C   0  0  0  0  0  0  0  0  0  0  0  0
    8.9497  -12.6618   28.3546 C   0  0  2  0  0  0  0  0  0  0  0  0
    9.5432  -14.8065   27.2125 N   0  0  0  0  0  0  0  0  0  0  0  0
    8.9734  -15.9081   26.4723 C   0  0  0  0  0  0  0  0  0  0  0  0
   10.0521  -15.3199   28.4989 O   0  0  0  0  0  0  0  0  0  0  0  0
    9.6142  -16.5345   28.9911 O   0  0  0  0  0  0  0  0  0  0  0  0
  2  1  1  0
  2  3  2  0
  4  2  1  0
  5  4  1  0
  6  5  1  0
  7  6  1  0
  8  7  1  0
  8  9  1  1
 10  8  1  0
 10 12  1  0
 11 10  2  0
 13 12  1  0
 13 14  1  1
 15 14  1  0
 16 15  1  0
 17 16  1  0
 18 17  1  0
 19 26  1  0
 19 13  1  0
 20 19  2  0
 21 22  1  0
 23 22  1  0
 23 25  1  0
 23 24  1  1
 25 26  1  6
 25 27  1  0
 27 28  1  0
 29 27  2  0
M  END
$$$$
