RKI.pdb
     RDKit          3D

 29 28  0  0  1  0  0  0  0  0999 V2000
    9.6543  -13.7526   20.0475 N   0  0  0  0  0  0  0  0  0  0  0  0
    8.9697  -13.3129   18.8831 C   0  0  0  0  0  0  0  0  0  0  0  0
    9.2769  -12.2003   18.2845 N   0  0  0  0  0  0  0  0  0  0  0  0
    7.9232  -14.1293   18.3779 N   0  0  0  0  0  0  0  0  0  0  0  0
    6.6203  -14.1818   19.0640 C   0  0  0  0  0  0  0  0  0  0  0  0
    6.4043  -15.5914   19.4814 C   0  0  0  0  0  0  0  0  0  0  0  0
    6.6362  -15.9229   20.9014 C   0  0  0  0  0  0  0  0  0  0  0  0
    6.3090  -17.3135   21.3389 C   0  0  2  0  0  0  0  0  0  0  0  0
    5.0445  -17.7844   20.8025 N   0  0  0  0  0  0  0  0  0  0  0  0
    6.2400  -17.2919   22.8114 C   0  0  0  0  0  0  0  0  0  0  0  0
    5.2768  -16.7561   23.3786 O   0  0  0  0  0  0  0  0  0  0  0  0
    8.7569  -11.8769   17.4658 N   0  0  0  0  0  0  0  0  0  0  0  0
    7.2675  -17.8792   23.5705 C   0  0  2  0  0  0  0  0  0  0  0  0
    7.3344  -17.6832   25.0080 C   0  0  0  0  0  0  0  0  0  0  0  0
    7.7978  -19.0053   25.6061 C   0  0  0  0  0  0  0  0  0  0  0  0
    6.7505  -20.0820   25.3301 C   0  0  0  0  0  0  0  0  0  0  0  0
    7.1983  -21.4091   25.8869 C   0  0  0  0  0  0  0  0  0  0  0  0
    6.1867  -22.4618   25.4877 N   0  0  0  0  0  0  0  0  0  0  0  0
    6.6021  -23.7625   25.9448 C   0  0  0  0  0  0  0  0  0  0  0  0
    8.2362  -16.5762   25.3771 O   0  0  0  0  0  0  0  0  0  0  0  0
    9.3011  -16.3120   24.7292 C   0  0  0  0  0  0  0  0  0  0  0  0
    6.2944  -11.8528   26.7484 C   0  0  0  0  0  0  0  0  0  0  0  0
    7.2039  -12.9532   26.2454 C   0  0  2  0  0  0  0  0  0  0  0  0
    7.9393  -13.5400   27.4039 C   0  0  0  0  0  0  0  0  0  0  0  0
    8.8001  -12.4681   28.0464 C   0  0  2  0  0  0  0  0  0  0  0  0
    8.7875  -14.7501   27.0222 N   0  0  0  0  0  0  0  0  0  0  0  0
    7.9152  -15.7715   26.4912 C   0  0  0  0  0  0  0  0  0  0  0  0
    9.5039  -15.3048   28.1869 O   0  0  0  0  0  0  0  0  0  0  0  0
   10.7989  -14.9117   28.4652 O   0  0  0  0  0  0  0  0  0  0  0  0
  2  1  1  0
  2  3  2  0
  4  2  1  0
  5  4  1  0
  6  5  1  0
  7  6  1  0
  8  7  1  0
  8  9  1  6
 10  8  1  0
 10 12  1  0
 11 10  2  0
 13 12  1  0
 13 14  1  6
 15 14  1  0
 16 15  1  0
 17 16  1  0
 18 17  1  0
 19 26  1  0
 19 13  1  0
 20 19  2  0
 21 22  1  0
 23 22  1  0
 23 25  1  0
 23 24  1  1
 25 26  1  6
 25 27  1  0
 27 28  1  0
 29 27  2  0
M  END
$$$$
