RKI.pdb
     RDKit          3D

 29 28  0  0  1  0  0  0  0  0999 V2000
    9.5073  -13.5024   16.5655 N   0  0  0  0  0  0  0  0  0  0  0  0
    8.4039  -14.0255   15.8396 C   0  0  0  0  0  0  0  0  0  0  0  0
    8.5161  -14.4126   14.6035 N   0  0  0  0  0  0  0  0  0  0  0  0
    7.1528  -14.1180   16.5052 N   0  0  0  0  0  0  0  0  0  0  0  0
    7.0253  -13.7079   17.9147 C   0  0  0  0  0  0  0  0  0  0  0  0
    8.2441  -14.1837   18.6188 C   0  0  0  0  0  0  0  0  0  0  0  0
    8.0708  -14.7465   19.9729 C   0  0  0  0  0  0  0  0  0  0  0  0
    7.5927  -16.1588   20.0680 C   0  0  2  0  0  0  0  0  0  0  0  0
    6.3921  -16.3955   19.2862 N   0  0  0  0  0  0  0  0  0  0  0  0
    7.3105  -16.4182   21.4916 C   0  0  0  0  0  0  0  0  0  0  0  0
    6.3593  -15.8506   22.0480 O   0  0  0  0  0  0  0  0  0  0  0  0
    7.7221  -14.8121   14.0983 N   0  0  0  0  0  0  0  0  0  0  0  0
    8.1213  -17.3095   22.2163 C   0  0  1  0  0  0  0  0  0  0  0  0
    8.0528  -17.3653   23.6660 C   0  0  0  0  0  0  0  0  0  0  0  0
    8.8169  -18.6129   24.0898 C   0  0  0  0  0  0  0  0  0  0  0  0
    8.4353  -18.9798   25.5223 C   0  0  0  0  0  0  0  0  0  0  0  0
    7.4494  -20.1198   25.5305 C   0  0  0  0  0  0  0  0  0  0  0  0
    7.0638  -20.4091   26.9653 N   0  0  0  0  0  0  0  0  0  0  0  0
    5.9807  -21.3565   27.0175 C   0  0  0  0  0  0  0  0  0  0  0  0
    8.6052  -16.1517   24.2961 O   0  0  0  0  0  0  0  0  0  0  0  0
    9.7006  -15.6199   23.9204 C   0  0  0  0  0  0  0  0  0  0  0  0
    6.9790  -10.8273   25.9615 C   0  0  0  0  0  0  0  0  0  0  0  0
    7.8504  -11.9575   26.4658 C   0  0  2  0  0  0  0  0  0  0  0  0
    7.4226  -13.2277   25.8093 C   0  0  0  0  0  0  0  0  0  0  0  0
    6.0148  -13.5743   26.2574 C   0  0  2  0  0  0  0  0  0  0  0  0
    8.3727  -14.3907   26.0821 N   0  0  0  0  0  0  0  0  0  0  0  0
    7.8995  -15.5478   25.3587 C   0  0  0  0  0  0  0  0  0  0  0  0
    8.4280  -14.7261   27.5180 O   0  0  0  0  0  0  0  0  0  0  0  0
    7.8759  -15.9039   27.9841 O   0  0  0  0  0  0  0  0  0  0  0  0
  2  1  1  0
  2  3  2  0
  4  2  1  0
  5  4  1  0
  6  5  1  0
  7  6  1  0
  8  7  1  0
  8  9  1  6
 10  8  1  0
 10 12  1  0
 11 10  2  0
 13 12  1  0
 13 14  1  1
 15 14  1  0
 16 15  1  0
 17 16  1  0
 18 17  1  0
 19 26  1  0
 19 13  1  0
 20 19  2  0
 21 22  1  0
 23 22  1  0
 23 25  1  0
 23 24  1  6
 25 26  1  1
 25 27  1  0
 27 28  1  0
 29 27  2  0
M  END
$$$$
