RKI.pdb
     RDKit          3D

 29 28  0  0  1  0  0  0  0  0999 V2000
    8.4543  -14.9952   15.5834 N   0  0  0  0  0  0  0  0  0  0  0  0
    8.4555  -13.8894   16.4752 C   0  0  0  0  0  0  0  0  0  0  0  0
    8.3594  -12.6643   16.0506 N   0  0  0  0  0  0  0  0  0  0  0  0
    8.5663  -14.1558   17.8657 N   0  0  0  0  0  0  0  0  0  0  0  0
    7.8854  -15.3200   18.4590 C   0  0  0  0  0  0  0  0  0  0  0  0
    6.9943  -14.8044   19.5303 C   0  0  0  0  0  0  0  0  0  0  0  0
    7.3314  -15.1578   20.9237 C   0  0  0  0  0  0  0  0  0  0  0  0
    7.5422  -16.6054   21.2278 C   0  0  2  0  0  0  0  0  0  0  0  0
    6.3872  -17.4197   20.8944 N   0  0  0  0  0  0  0  0  0  0  0  0
    7.8102  -16.7023   22.6742 C   0  0  0  0  0  0  0  0  0  0  0  0
    6.9395  -16.3650   23.4895 O   0  0  0  0  0  0  0  0  0  0  0  0
    8.3677  -12.4465   15.0517 N   0  0  0  0  0  0  0  0  0  0  0  0
    9.0537  -17.1775   23.1269 C   0  0  2  0  0  0  0  0  0  0  0  0
    9.3293  -17.3016   24.5475 C   0  0  0  0  0  0  0  0  0  0  0  0
   10.4353  -18.3396   24.6869 C   0  0  0  0  0  0  0  0  0  0  0  0
    9.8765  -19.7234   24.3632 C   0  0  0  0  0  0  0  0  0  0  0  0
   10.9364  -20.7782   24.5518 C   0  0  0  0  0  0  0  0  0  0  0  0
   10.3465  -22.1218   24.1805 N   0  0  0  0  0  0  0  0  0  0  0  0
   11.3376  -23.1598   24.2972 C   0  0  0  0  0  0  0  0  0  0  0  0
    9.7156  -16.0138   25.1537 O   0  0  0  0  0  0  0  0  0  0  0  0
   10.5656  -15.2297   24.6186 C   0  0  0  0  0  0  0  0  0  0  0  0
    6.3843  -12.3715   26.4960 C   0  0  0  0  0  0  0  0  0  0  0  0
    7.6671  -13.0914   26.1393 C   0  0  2  0  0  0  0  0  0  0  0  0
    8.2996  -13.6009   27.3914 C   0  0  0  0  0  0  0  0  0  0  0  0
    8.6510  -12.4288   28.2887 C   0  0  2  0  0  0  0  0  0  0  0  0
    9.5317  -14.4631   27.1302 N   0  0  0  0  0  0  0  0  0  0  0  0
    9.1254  -15.6257   26.3755 C   0  0  0  0  0  0  0  0  0  0  0  0
   10.1585  -14.9159   28.3870 O   0  0  0  0  0  0  0  0  0  0  0  0
    9.9788  -16.2114   28.8325 O   0  0  0  0  0  0  0  0  0  0  0  0
  2  1  1  0
  2  3  2  0
  4  2  1  0
  5  4  1  0
  6  5  1  0
  7  6  1  0
  8  7  1  0
  8  9  1  1
 10  8  1  0
 10 12  1  0
 11 10  2  0
 13 12  1  0
 13 14  1  6
 15 14  1  0
 16 15  1  0
 17 16  1  0
 18 17  1  0
 19 26  1  0
 19 13  1  0
 20 19  2  0
 21 22  1  0
 23 22  1  0
 23 25  1  0
 23 24  1  1
 25 26  1  6
 25 27  1  0
 27 28  1  0
 29 27  2  0
M  END
$$$$
