RKI.pdb
     RDKit          3D

 29 28  0  0  1  0  0  0  0  0999 V2000
    5.8491  -22.2961   28.2521 N   0  0  0  0  0  0  0  0  0  0  0  0
    6.3415  -22.8936   27.0611 C   0  0  0  0  0  0  0  0  0  0  0  0
    6.3608  -24.1831   26.8965 N   0  0  0  0  0  0  0  0  0  0  0  0
    6.8212  -22.0364   26.0354 N   0  0  0  0  0  0  0  0  0  0  0  0
    7.0281  -20.6014   26.2982 C   0  0  0  0  0  0  0  0  0  0  0  0
    7.5452  -19.9986   25.0425 C   0  0  0  0  0  0  0  0  0  0  0  0
    6.7055  -20.1200   23.8341 C   0  0  0  0  0  0  0  0  0  0  0  0
    7.1660  -19.3995   22.6089 C   0  0  2  0  0  0  0  0  0  0  0  0
    8.2058  -20.1197   21.8956 N   0  0  0  0  0  0  0  0  0  0  0  0
    7.6888  -18.0947   23.0530 C   0  0  0  0  0  0  0  0  0  0  0  0
    8.7423  -18.0384   23.7038 O   0  0  0  0  0  0  0  0  0  0  0  0
    6.7408  -24.6040   26.0458 N   0  0  0  0  0  0  0  0  0  0  0  0
    6.9913  -16.9153   22.7376 C   0  0  1  0  0  0  0  0  0  0  0  0
    7.5122  -15.6169   23.1278 C   0  0  0  0  0  0  0  0  0  0  0  0
    7.0276  -14.6216   22.0815 C   0  0  0  0  0  0  0  0  0  0  0  0
    7.9981  -14.6118   20.9024 C   0  0  0  0  0  0  0  0  0  0  0  0
    7.5328  -13.6452   19.8437 C   0  0  0  0  0  0  0  0  0  0  0  0
    8.4860  -13.7244   18.6706 N   0  0  0  0  0  0  0  0  0  0  0  0
    8.0518  -12.8578   17.6058 C   0  0  0  0  0  0  0  0  0  0  0  0
    7.0817  -15.2296   24.4842 O   0  0  0  0  0  0  0  0  0  0  0  0
    6.0068  -15.6626   25.0140 C   0  0  0  0  0  0  0  0  0  0  0  0
   10.8849  -14.4069   28.3095 C   0  0  0  0  0  0  0  0  0  0  0  0
    9.6111  -14.7978   27.5915 C   0  0  2  0  0  0  0  0  0  0  0  0
    8.8127  -13.5667   27.3188 C   0  0  0  0  0  0  0  0  0  0  0  0
    8.4991  -12.8716   28.6307 C   0  0  2  0  0  0  0  0  0  0  0  0
    7.5295  -13.8469   26.5415 N   0  0  0  0  0  0  0  0  0  0  0  0
    7.8859  -14.3442   25.2331 C   0  0  0  0  0  0  0  0  0  0  0  0
    6.7149  -12.6280   26.3734 O   0  0  0  0  0  0  0  0  0  0  0  0
    5.7795  -12.2735   27.3266 O   0  0  0  0  0  0  0  0  0  0  0  0
  2  1  1  0
  2  3  2  0
  4  2  1  0
  5  4  1  0
  6  5  1  0
  7  6  1  0
  8  7  1  0
  8  9  1  1
 10  8  1  0
 10 12  1  0
 11 10  2  0
 13 12  1  0
 13 14  1  1
 15 14  1  0
 16 15  1  0
 17 16  1  0
 18 17  1  0
 19 26  1  0
 19 13  1  0
 20 19  2  0
 21 22  1  0
 23 22  1  0
 23 25  1  0
 23 24  1  6
 25 26  1  1
 25 27  1  0
 27 28  1  0
 29 27  2  0
M  END
$$$$
