RKI.pdb
     RDKit          3D

 29 28  0  0  1  0  0  0  0  0999 V2000
    7.4166  -20.4319   18.6732 N   0  0  0  0  0  0  0  0  0  0  0  0
    8.2189  -20.6763   17.5265 C   0  0  0  0  0  0  0  0  0  0  0  0
    7.6975  -20.9876   16.3769 N   0  0  0  0  0  0  0  0  0  0  0  0
    9.6283  -20.5716   17.6657 N   0  0  0  0  0  0  0  0  0  0  0  0
   10.2254  -20.2126   18.9640 C   0  0  0  0  0  0  0  0  0  0  0  0
   10.0398  -18.7488   19.1390 C   0  0  0  0  0  0  0  0  0  0  0  0
   10.5940  -18.1348   20.3621 C   0  0  0  0  0  0  0  0  0  0  0  0
    9.6459  -17.8860   21.4896 C   0  0  2  0  0  0  0  0  0  0  0  0
    8.2810  -18.2598   21.1640 N   0  0  0  0  0  0  0  0  0  0  0  0
    9.7027  -16.4425   21.7835 C   0  0  0  0  0  0  0  0  0  0  0  0
   10.7961  -15.8930   21.9809 O   0  0  0  0  0  0  0  0  0  0  0  0
    8.2749  -21.0710   15.5373 N   0  0  0  0  0  0  0  0  0  0  0  0
    8.5157  -15.6908   21.8395 C   0  0  2  0  0  0  0  0  0  0  0  0
    8.5546  -14.2557   22.0598 C   0  0  0  0  0  0  0  0  0  0  0  0
    7.2893  -13.6850   21.4327 C   0  0  0  0  0  0  0  0  0  0  0  0
    7.2150  -14.1057   19.9665 C   0  0  0  0  0  0  0  0  0  0  0  0
    8.1321  -13.2547   19.1260 C   0  0  0  0  0  0  0  0  0  0  0  0
    8.0152  -13.7036   17.6852 N   0  0  0  0  0  0  0  0  0  0  0  0
    8.8458  -12.8927   16.8331 C   0  0  0  0  0  0  0  0  0  0  0  0
    8.6507  -13.9151   23.4915 O   0  0  0  0  0  0  0  0  0  0  0  0
    8.6295  -12.7136   23.9151 C   0  0  0  0  0  0  0  0  0  0  0  0
    5.9457  -12.2318   26.1352 C   0  0  0  0  0  0  0  0  0  0  0  0
    7.2522  -12.7955   25.6193 C   0  0  2  0  0  0  0  0  0  0  0  0
    7.5290  -14.0873   26.3135 C   0  0  0  0  0  0  0  0  0  0  0  0
    7.5367  -13.8589   27.8136 C   0  0  2  0  0  0  0  0  0  0  0  0
    8.8341  -14.7392   25.8647 N   0  0  0  0  0  0  0  0  0  0  0  0
    8.7712  -14.9550   24.4380 C   0  0  0  0  0  0  0  0  0  0  0  0
    9.0511  -16.0402   26.5263 O   0  0  0  0  0  0  0  0  0  0  0  0
    8.8361  -17.2198   25.8397 O   0  0  0  0  0  0  0  0  0  0  0  0
  2  1  1  0
  2  3  2  0
  4  2  1  0
  5  4  1  0
  6  5  1  0
  7  6  1  0
  8  7  1  0
  8  9  1  6
 10  8  1  0
 10 12  1  0
 11 10  2  0
 13 12  1  0
 13 14  1  1
 15 14  1  0
 16 15  1  0
 17 16  1  0
 18 17  1  0
 19 26  1  0
 19 13  1  0
 20 19  2  0
 21 22  1  0
 23 22  1  0
 23 25  1  0
 23 24  1  6
 25 26  1  1
 25 27  1  0
 27 28  1  0
 29 27  2  0
M  END
$$$$
