RKI.pdb
     RDKit          3D

 29 28  0  0  1  0  0  0  0  0999 V2000
    9.7844  -13.6096   17.9029 N   0  0  0  0  0  0  0  0  0  0  0  0
    8.6275  -13.7116   17.0848 C   0  0  0  0  0  0  0  0  0  0  0  0
    8.2308  -12.7298   16.3304 N   0  0  0  0  0  0  0  0  0  0  0  0
    7.9002  -14.9311   17.1094 N   0  0  0  0  0  0  0  0  0  0  0  0
    7.1055  -15.3024   18.2933 C   0  0  0  0  0  0  0  0  0  0  0  0
    7.6843  -14.5747   19.4522 C   0  0  0  0  0  0  0  0  0  0  0  0
    7.3755  -15.0895   20.8012 C   0  0  0  0  0  0  0  0  0  0  0  0
    7.5316  -16.5589   21.0223 C   0  0  2  0  0  0  0  0  0  0  0  0
    6.4133  -17.3239   20.5001 N   0  0  0  0  0  0  0  0  0  0  0  0
    7.6282  -16.7628   22.4791 C   0  0  0  0  0  0  0  0  0  0  0  0
    6.6684  -16.4768   23.2096 O   0  0  0  0  0  0  0  0  0  0  0  0
    7.4232  -12.8288   15.7115 N   0  0  0  0  0  0  0  0  0  0  0  0
    8.8095  -17.2815   23.0381 C   0  0  2  0  0  0  0  0  0  0  0  0
    8.9463  -17.4348   24.4758 C   0  0  0  0  0  0  0  0  0  0  0  0
    9.7614  -18.7015   24.7026 C   0  0  0  0  0  0  0  0  0  0  0  0
    9.9114  -18.9469   26.2024 C   0  0  0  0  0  0  0  0  0  0  0  0
   10.7371  -20.1822   26.4552 C   0  0  0  0  0  0  0  0  0  0  0  0
   10.8731  -20.3694   27.9511 N   0  0  0  0  0  0  0  0  0  0  0  0
   11.7443  -21.4774   28.2456 C   0  0  0  0  0  0  0  0  0  0  0  0
    9.5835  -16.2614   25.1022 O   0  0  0  0  0  0  0  0  0  0  0  0
   10.7068  -15.8009   24.7152 C   0  0  0  0  0  0  0  0  0  0  0  0
    6.5756  -12.0942   26.0172 C   0  0  0  0  0  0  0  0  0  0  0  0
    7.7563  -12.9988   25.7364 C   0  0  2  0  0  0  0  0  0  0  0  0
    8.3462  -13.4406   27.0341 C   0  0  0  0  0  0  0  0  0  0  0  0
    8.8469  -12.2277   27.7962 C   0  0  2  0  0  0  0  0  0  0  0  0
    9.4647  -14.4650   26.8639 N   0  0  0  0  0  0  0  0  0  0  0  0
    8.9305  -15.6160   26.1740 C   0  0  0  0  0  0  0  0  0  0  0  0
   10.0038  -14.9070   28.1645 O   0  0  0  0  0  0  0  0  0  0  0  0
   11.0756  -14.2503   28.7383 O   0  0  0  0  0  0  0  0  0  0  0  0
  2  1  1  0
  2  3  2  0
  4  2  1  0
  5  4  1  0
  6  5  1  0
  7  6  1  0
  8  7  1  0
  8  9  1  1
 10  8  1  0
 10 12  1  0
 11 10  2  0
 13 12  1  0
 13 14  1  6
 15 14  1  0
 16 15  1  0
 17 16  1  0
 18 17  1  0
 19 26  1  0
 19 13  1  0
 20 19  2  0
 21 22  1  0
 23 22  1  0
 23 25  1  0
 23 24  1  1
 25 26  1  6
 25 27  1  0
 27 28  1  0
 29 27  2  0
M  END
$$$$
