RKI.pdb
     RDKit          3D

 29 28  0  0  1  0  0  0  0  0999 V2000
   15.6590  -20.6182   19.1791 N   0  0  0  0  0  0  0  0  0  0  0  0
   14.2462  -20.7666   19.1771 C   0  0  0  0  0  0  0  0  0  0  0  0
   13.5831  -21.0164   18.0870 N   0  0  0  0  0  0  0  0  0  0  0  0
   13.5611  -20.6337   20.4140 N   0  0  0  0  0  0  0  0  0  0  0  0
   12.0976  -20.7921   20.4772 C   0  0  0  0  0  0  0  0  0  0  0  0
   11.5004  -19.5151   20.0078 C   0  0  0  0  0  0  0  0  0  0  0  0
   11.1434  -18.5143   21.0330 C   0  0  0  0  0  0  0  0  0  0  0  0
   10.3721  -17.3182   20.5785 C   0  0  2  0  0  0  0  0  0  0  0  0
   10.9764  -16.6681   19.4292 N   0  0  0  0  0  0  0  0  0  0  0  0
   10.3374  -16.3772   21.7128 C   0  0  0  0  0  0  0  0  0  0  0  0
   11.3246  -15.6700   21.9613 O   0  0  0  0  0  0  0  0  0  0  0  0
   12.5658  -21.1170   18.0957 N   0  0  0  0  0  0  0  0  0  0  0  0
    9.1840  -16.2834   22.5114 C   0  0  2  0  0  0  0  0  0  0  0  0
    9.1645  -15.4381   23.6923 C   0  0  0  0  0  0  0  0  0  0  0  0
    7.7234  -14.9799   23.8754 C   0  0  0  0  0  0  0  0  0  0  0  0
    7.6554  -13.9596   25.0096 C   0  0  0  0  0  0  0  0  0  0  0  0
    6.2438  -13.4629   25.1890 C   0  0  0  0  0  0  0  0  0  0  0  0
    6.2588  -12.3291   26.1917 N   0  0  0  0  0  0  0  0  0  0  0  0
    4.9250  -11.8370   26.4198 C   0  0  0  0  0  0  0  0  0  0  0  0
    9.6653  -16.1413   24.8880 O   0  0  0  0  0  0  0  0  0  0  0  0
    9.5387  -17.3989   25.0493 C   0  0  0  0  0  0  0  0  0  0  0  0
   10.0598  -13.4439   29.8106 C   0  0  0  0  0  0  0  0  0  0  0  0
    9.7848  -14.5098   28.7718 C   0  0  2  0  0  0  0  0  0  0  0  0
   11.0741  -14.9070   28.1336 C   0  0  0  0  0  0  0  0  0  0  0  0
   11.7372  -13.6795   27.5366 C   0  0  1  0  0  0  0  0  0  0  0  0
   10.9069  -15.9933   27.0746 N   0  0  0  0  0  0  0  0  0  0  0  0
   10.3122  -15.3999   25.8998 C   0  0  0  0  0  0  0  0  0  0  0  0
   10.0302  -17.0836   27.5437 O   0  0  0  0  0  0  0  0  0  0  0  0
    8.7421  -17.2049   27.0585 O   0  0  0  0  0  0  0  0  0  0  0  0
  2  1  1  0
  2  3  2  0
  4  2  1  0
  5  4  1  0
  6  5  1  0
  7  6  1  0
  8  7  1  0
  8  9  1  6
 10  8  1  0
 10 12  1  0
 11 10  2  0
 13 12  1  0
 13 14  1  6
 15 14  1  0
 16 15  1  0
 17 16  1  0
 18 17  1  0
 19 26  1  0
 19 13  1  0
 20 19  2  0
 21 22  1  0
 23 22  1  0
 23 25  1  0
 23 24  1  1
 25 26  1  6
 25 27  1  0
 27 28  1  0
 29 27  2  0
M  END
$$$$
