RKI.pdb
     RDKit          3D

 29 28  0  0  1  0  0  0  0  0999 V2000
    9.2794  -14.8430   15.1924 N   0  0  0  0  0  0  0  0  0  0  0  0
    8.2199  -14.0223   15.6637 C   0  0  0  0  0  0  0  0  0  0  0  0
    8.1622  -12.7520   15.3927 N   0  0  0  0  0  0  0  0  0  0  0  0
    7.2069  -14.6303   16.4517 N   0  0  0  0  0  0  0  0  0  0  0  0
    7.2252  -16.0826   16.6995 C   0  0  0  0  0  0  0  0  0  0  0  0
    8.2556  -16.3341   17.7400 C   0  0  0  0  0  0  0  0  0  0  0  0
    7.9097  -15.9957   19.1350 C   0  0  0  0  0  0  0  0  0  0  0  0
    8.9037  -16.3566   20.1904 C   0  0  2  0  0  0  0  0  0  0  0  0
    9.3479  -17.7355   20.0908 N   0  0  0  0  0  0  0  0  0  0  0  0
    8.2402  -16.1474   21.4901 C   0  0  0  0  0  0  0  0  0  0  0  0
    7.7207  -15.0526   21.7513 O   0  0  0  0  0  0  0  0  0  0  0  0
    7.4545  -12.1499   15.8192 N   0  0  0  0  0  0  0  0  0  0  0  0
    8.1977  -17.1905   22.4320 C   0  0  1  0  0  0  0  0  0  0  0  0
    7.6501  -16.9714   23.7592 C   0  0  0  0  0  0  0  0  0  0  0  0
    7.5447  -18.3409   24.4178 C   0  0  0  0  0  0  0  0  0  0  0  0
    6.3144  -19.0690   23.8808 C   0  0  0  0  0  0  0  0  0  0  0  0
    6.2472  -20.4698   24.4329 C   0  0  0  0  0  0  0  0  0  0  0  0
    5.0827  -21.1855   23.7826 N   0  0  0  0  0  0  0  0  0  0  0  0
    5.0497  -22.5679   24.1842 C   0  0  0  0  0  0  0  0  0  0  0  0
    8.4787  -16.0489   24.5576 O   0  0  0  0  0  0  0  0  0  0  0  0
    9.7517  -16.1034   24.5690 C   0  0  0  0  0  0  0  0  0  0  0  0
    6.0185  -11.4275   27.0053 C   0  0  0  0  0  0  0  0  0  0  0  0
    6.4577  -12.8369   26.6710 C   0  0  2  0  0  0  0  0  0  0  0  0
    7.8654  -12.8001   26.1766 C   0  0  0  0  0  0  0  0  0  0  0  0
    7.8867  -12.2437   24.7650 C   0  0  1  0  0  0  0  0  0  0  0  0
    8.5515  -14.1625   26.2253 N   0  0  0  0  0  0  0  0  0  0  0  0
    7.8454  -15.0627   25.3437 C   0  0  0  0  0  0  0  0  0  0  0  0
    8.5381  -14.7330   27.5861 O   0  0  0  0  0  0  0  0  0  0  0  0
    9.3581  -14.2160   28.5707 O   0  0  0  0  0  0  0  0  0  0  0  0
  2  1  1  0
  2  3  2  0
  4  2  1  0
  5  4  1  0
  6  5  1  0
  7  6  1  0
  8  7  1  0
  8  9  1  6
 10  8  1  0
 10 12  1  0
 11 10  2  0
 13 12  1  0
 13 14  1  1
 15 14  1  0
 16 15  1  0
 17 16  1  0
 18 17  1  0
 19 26  1  0
 19 13  1  0
 20 19  2  0
 21 22  1  0
 23 22  1  0
 23 25  1  0
 23 24  1  1
 25 26  1  6
 25 27  1  0
 27 28  1  0
 29 27  2  0
M  END
$$$$
