GPG.pdb
     RDKit          3D

 16 16  0  0  1  0  0  0  0  0999 V2000
    7.8383  -17.2796   17.0751 N   0  0  0  0  0  0  0  0  0  0  0  0
    7.4555  -16.6190   18.2594 C   0  0  0  0  0  0  0  0  0  0  0  0
    8.4802  -16.0427   19.1210 C   0  0  0  0  0  0  0  0  0  0  0  0
    9.5229  -16.7922   19.2892 O   0  0  0  0  0  0  0  0  0  0  0  0
    8.5111  -14.8090   19.7907 N   0  0  0  0  0  0  0  0  0  0  0  0
    7.7431  -13.6344   19.3558 C   0  0  0  0  0  0  0  0  0  0  0  0
    7.1894  -13.1087   20.6943 C   0  0  0  0  0  0  0  0  0  0  0  0
    7.9125  -13.9310   21.7704 C   0  0  0  0  0  0  0  0  0  0  0  0
    9.1628  -14.2713   20.9250 C   0  0  1  0  0  0  0  0  0  0  0  0
   10.1734  -14.9500   21.6513 C   0  0  0  0  0  0  0  0  0  0  0  0
   11.2488  -14.4927   22.0261 O   0  0  0  0  0  0  0  0  0  0  0  0
    9.9233  -16.3321   21.9945 N   0  0  0  0  0  0  0  0  0  0  0  0
   10.8651  -17.1064   22.7616 C   0  0  0  0  0  0  0  0  0  0  0  0
   10.3744  -17.2742   24.1667 C   0  0  0  0  0  0  0  0  0  0  0  0
   11.2983  -17.6275   25.1333 O   0  0  0  0  0  0  0  0  0  0  0  0
    9.1770  -17.0959   24.4227 O   0  0  0  0  0  0  0  0  0  0  0  0
  1  2  1  0
  3  4  2  0
  3  2  1  0
  5  3  1  0
  6  5  1  0
  7  8  1  0
  7  6  1  0
  8  9  1  0
  9  5  1  0
  9 10  1  1
 11 10  2  0
 12 10  1  0
 13 12  1  0
 14 15  1  0
 14 13  1  0
 16 14  2  0
M  END
$$$$
