GPG.pdb
     RDKit          3D

 16 16  0  0  1  0  0  0  0  0999 V2000
    8.6833  -16.8719   16.7227 N   0  0  0  0  0  0  0  0  0  0  0  0
    7.8772  -16.2897   17.7211 C   0  0  0  0  0  0  0  0  0  0  0  0
    8.4818  -15.8868   18.9847 C   0  0  0  0  0  0  0  0  0  0  0  0
    9.1764  -16.8124   19.5659 O   0  0  0  0  0  0  0  0  0  0  0  0
    8.4282  -14.6585   19.6630 N   0  0  0  0  0  0  0  0  0  0  0  0
    8.5009  -13.3573   18.9847 C   0  0  0  0  0  0  0  0  0  0  0  0
    7.3986  -12.5628   19.7114 C   0  0  0  0  0  0  0  0  0  0  0  0
    6.9830  -13.4534   20.8909 C   0  0  0  0  0  0  0  0  0  0  0  0
    8.3161  -14.2303   21.0063 C   0  0  1  0  0  0  0  0  0  0  0  0
    8.3708  -15.1040   22.1213 C   0  0  0  0  0  0  0  0  0  0  0  0
    7.4319  -15.6984   22.6421 O   0  0  0  0  0  0  0  0  0  0  0  0
    9.6676  -15.3283   22.7201 N   0  0  0  0  0  0  0  0  0  0  0  0
    9.8516  -16.2544   23.8079 C   0  0  0  0  0  0  0  0  0  0  0  0
   11.2802  -16.2466   24.2583 C   0  0  0  0  0  0  0  0  0  0  0  0
   11.5513  -16.6710   25.5463 O   0  0  0  0  0  0  0  0  0  0  0  0
   12.1653  -15.8677   23.4811 O   0  0  0  0  0  0  0  0  0  0  0  0
  1  2  1  0
  3  4  2  0
  3  2  1  0
  5  3  1  0
  6  5  1  0
  7  8  1  0
  7  6  1  0
  8  9  1  0
  9  5  1  0
  9 10  1  1
 11 10  2  0
 12 10  1  0
 13 12  1  0
 14 15  1  0
 14 13  1  0
 16 14  2  0
M  END
$$$$
