GPG.pdb
     RDKit          3D

 16 16  0  0  1  0  0  0  0  0999 V2000
   10.3266  -15.5112   15.7548 N   0  0  0  0  0  0  0  0  0  0  0  0
    9.3995  -15.4823   16.8155 C   0  0  0  0  0  0  0  0  0  0  0  0
    9.7631  -14.8290   18.0667 C   0  0  0  0  0  0  0  0  0  0  0  0
   10.8897  -15.2230   18.5695 O   0  0  0  0  0  0  0  0  0  0  0  0
    9.0857  -13.8451   18.8045 N   0  0  0  0  0  0  0  0  0  0  0  0
    8.3425  -12.7394   18.1849 C   0  0  0  0  0  0  0  0  0  0  0  0
    7.0583  -12.7090   19.0359 C   0  0  0  0  0  0  0  0  0  0  0  0
    7.3350  -13.6687   20.2019 C   0  0  0  0  0  0  0  0  0  0  0  0
    8.8771  -13.5468   20.1713 C   0  0  1  0  0  0  0  0  0  0  0  0
    9.5228  -14.2252   21.2354 C   0  0  0  0  0  0  0  0  0  0  0  0
    9.4263  -13.9821   22.4344 O   0  0  0  0  0  0  0  0  0  0  0  0
   10.3929  -15.3253   20.8844 N   0  0  0  0  0  0  0  0  0  0  0  0
   10.9910  -16.1698   21.8864 C   0  0  0  0  0  0  0  0  0  0  0  0
   11.8519  -17.2108   21.2392 C   0  0  0  0  0  0  0  0  0  0  0  0
   11.7370  -18.5129   21.6911 O   0  0  0  0  0  0  0  0  0  0  0  0
   12.6296  -16.8858   20.3335 O   0  0  0  0  0  0  0  0  0  0  0  0
  1  2  1  0
  3  4  2  0
  3  2  1  0
  5  3  1  0
  6  5  1  0
  7  8  1  0
  7  6  1  0
  8  9  1  0
  9  5  1  0
  9 10  1  1
 11 10  2  0
 12 10  1  0
 13 12  1  0
 14 15  1  0
 14 13  1  0
 16 14  2  0
M  END
$$$$
