GPG.pdb
     RDKit          3D

 16 16  0  0  1  0  0  0  0  0999 V2000
    6.0585  -18.0294   19.0047 N   0  0  0  0  0  0  0  0  0  0  0  0
    6.1682  -16.7503   19.5856 C   0  0  0  0  0  0  0  0  0  0  0  0
    7.4714  -16.2776   20.0356 C   0  0  0  0  0  0  0  0  0  0  0  0
    8.3105  -17.2190   20.3306 O   0  0  0  0  0  0  0  0  0  0  0  0
    7.9538  -14.9688   20.1964 N   0  0  0  0  0  0  0  0  0  0  0  0
    7.9887  -13.9815   19.1089 C   0  0  0  0  0  0  0  0  0  0  0  0
    7.4782  -12.7134   19.8202 C   0  0  0  0  0  0  0  0  0  0  0  0
    7.4333  -13.0872   21.3086 C   0  0  0  0  0  0  0  0  0  0  0  0
    8.5073  -14.1991   21.2460 C   0  0  1  0  0  0  0  0  0  0  0  0
    8.8544  -14.7272   22.5149 C   0  0  0  0  0  0  0  0  0  0  0  0
    8.0926  -14.9887   23.4408 O   0  0  0  0  0  0  0  0  0  0  0  0
   10.2549  -14.9912   22.7585 N   0  0  0  0  0  0  0  0  0  0  0  0
   10.7268  -15.4714   24.0320 C   0  0  0  0  0  0  0  0  0  0  0  0
   11.8094  -16.4872   23.8333 C   0  0  0  0  0  0  0  0  0  0  0  0
   12.1151  -16.8569   22.5361 O   0  0  0  0  0  0  0  0  0  0  0  0
   12.3923  -16.9612   24.8165 O   0  0  0  0  0  0  0  0  0  0  0  0
  1  2  1  0
  3  4  2  0
  3  2  1  0
  5  3  1  0
  6  5  1  0
  7  8  1  0
  7  6  1  0
  8  9  1  0
  9  5  1  0
  9 10  1  1
 11 10  2  0
 12 10  1  0
 13 12  1  0
 14 15  1  0
 14 13  1  0
 16 14  2  0
M  END
$$$$
