GPG.pdb
     RDKit          3D

 16 16  0  0  1  0  0  0  0  0999 V2000
    8.0483  -17.1874   17.3717 N   0  0  0  0  0  0  0  0  0  0  0  0
    7.5002  -16.2242   18.2420 C   0  0  0  0  0  0  0  0  0  0  0  0
    8.1961  -15.9003   19.4811 C   0  0  0  0  0  0  0  0  0  0  0  0
    8.6994  -16.9227   20.0963 O   0  0  0  0  0  0  0  0  0  0  0  0
    8.4041  -14.6598   20.1050 N   0  0  0  0  0  0  0  0  0  0  0  0
    8.4167  -13.3825   19.3789 C   0  0  0  0  0  0  0  0  0  0  0  0
    7.5866  -12.4820   20.3141 C   0  0  0  0  0  0  0  0  0  0  0  0
    7.3945  -13.3113   21.5918 C   0  0  0  0  0  0  0  0  0  0  0  0
    8.6501  -14.1987   21.4192 C   0  0  1  0  0  0  0  0  0  0  0  0
    8.8992  -15.0531   22.5226 C   0  0  0  0  0  0  0  0  0  0  0  0
    9.8196  -14.9694   23.3299 O   0  0  0  0  0  0  0  0  0  0  0  0
    7.9763  -16.1463   22.7314 N   0  0  0  0  0  0  0  0  0  0  0  0
    7.9068  -16.8524   23.9850 C   0  0  0  0  0  0  0  0  0  0  0  0
    6.9069  -17.9642   23.8980 C   0  0  0  0  0  0  0  0  0  0  0  0
    7.3659  -19.2576   24.0694 O   0  0  0  0  0  0  0  0  0  0  0  0
    5.7175  -17.7026   23.6792 O   0  0  0  0  0  0  0  0  0  0  0  0
  1  2  1  0
  3  4  2  0
  3  2  1  0
  5  3  1  0
  6  5  1  0
  7  8  1  0
  7  6  1  0
  8  9  1  0
  9  5  1  0
  9 10  1  1
 11 10  2  0
 12 10  1  0
 13 12  1  0
 14 15  1  0
 14 13  1  0
 16 14  2  0
M  END
$$$$
