GPG.pdb
     RDKit          3D

 16 16  0  0  1  0  0  0  0  0999 V2000
    7.9903  -17.3352   17.0841 N   0  0  0  0  0  0  0  0  0  0  0  0
    7.4084  -16.6051   18.1395 C   0  0  0  0  0  0  0  0  0  0  0  0
    8.2639  -16.0365   19.1736 C   0  0  0  0  0  0  0  0  0  0  0  0
    9.1752  -16.8421   19.6183 O   0  0  0  0  0  0  0  0  0  0  0  0
    8.2527  -14.7592   19.7567 N   0  0  0  0  0  0  0  0  0  0  0  0
    8.2314  -13.5149   18.9756 C   0  0  0  0  0  0  0  0  0  0  0  0
    7.1905  -12.6793   19.7455 C   0  0  0  0  0  0  0  0  0  0  0  0
    6.9120  -13.4789   21.0262 C   0  0  0  0  0  0  0  0  0  0  0  0
    8.2655  -14.2275   21.0672 C   0  0  1  0  0  0  0  0  0  0  0  0
    8.4482  -15.0095   22.2354 C   0  0  0  0  0  0  0  0  0  0  0  0
    7.5754  -15.4241   22.9919 O   0  0  0  0  0  0  0  0  0  0  0  0
    9.8053  -15.3643   22.5857 N   0  0  0  0  0  0  0  0  0  0  0  0
   10.1053  -16.1700   23.7413 C   0  0  0  0  0  0  0  0  0  0  0  0
   11.5873  -16.2605   23.9388 C   0  0  0  0  0  0  0  0  0  0  0  0
   12.4015  -15.8420   22.9022 O   0  0  0  0  0  0  0  0  0  0  0  0
   12.0375  -16.6992   25.0046 O   0  0  0  0  0  0  0  0  0  0  0  0
  1  2  1  0
  3  4  2  0
  3  2  1  0
  5  3  1  0
  6  5  1  0
  7  8  1  0
  7  6  1  0
  8  9  1  0
  9  5  1  0
  9 10  1  1
 11 10  2  0
 12 10  1  0
 13 12  1  0
 14 15  1  0
 14 13  1  0
 16 14  2  0
M  END
$$$$
