GPG.pdb
     RDKit          3D

 16 16  0  0  1  0  0  0  0  0999 V2000
    6.0307  -16.2957   24.0881 N   0  0  0  0  0  0  0  0  0  0  0  0
    6.7647  -15.2234   23.5431 C   0  0  0  0  0  0  0  0  0  0  0  0
    7.5503  -15.4349   22.3338 C   0  0  0  0  0  0  0  0  0  0  0  0
    8.2644  -16.5152   22.3405 O   0  0  0  0  0  0  0  0  0  0  0  0
    7.6505  -14.6541   21.1712 N   0  0  0  0  0  0  0  0  0  0  0  0
    6.5904  -13.7448   20.7150 C   0  0  0  0  0  0  0  0  0  0  0  0
    7.4000  -12.4986   20.3075 C   0  0  0  0  0  0  0  0  0  0  0  0
    8.8678  -12.9449   20.3678 C   0  0  0  0  0  0  0  0  0  0  0  0
    8.6049  -14.4535   20.1468 C   0  0  1  0  0  0  0  0  0  0  0  0
    9.7875  -15.2227   20.0071 C   0  0  0  0  0  0  0  0  0  0  0  0
   10.2880  -15.6266   18.9620 O   0  0  0  0  0  0  0  0  0  0  0  0
   10.4904  -15.5773   21.2198 N   0  0  0  0  0  0  0  0  0  0  0  0
   11.7650  -16.2476   21.1902 C   0  0  0  0  0  0  0  0  0  0  0  0
   12.2610  -16.4784   22.5846 C   0  0  0  0  0  0  0  0  0  0  0  0
   11.8023  -17.5984   23.2538 O   0  0  0  0  0  0  0  0  0  0  0  0
   13.0539  -15.6761   23.0932 O   0  0  0  0  0  0  0  0  0  0  0  0
  1  2  1  0
  3  4  2  0
  3  2  1  0
  5  3  1  0
  6  5  1  0
  7  8  1  0
  7  6  1  0
  8  9  1  0
  9  5  1  0
  9 10  1  1
 11 10  2  0
 12 10  1  0
 13 12  1  0
 14 15  1  0
 14 13  1  0
 16 14  2  0
M  END
$$$$
