GPG.pdb
     RDKit          3D

 16 16  0  0  1  0  0  0  0  0999 V2000
    8.9736  -17.2156   16.9659 N   0  0  0  0  0  0  0  0  0  0  0  0
    8.1980  -16.3417   17.7535 C   0  0  0  0  0  0  0  0  0  0  0  0
    8.7970  -15.7084   18.9216 C   0  0  0  0  0  0  0  0  0  0  0  0
    9.7318  -16.4031   19.4878 O   0  0  0  0  0  0  0  0  0  0  0  0
    8.5193  -14.4700   19.5223 N   0  0  0  0  0  0  0  0  0  0  0  0
    8.4480  -13.2074   18.7744 C   0  0  0  0  0  0  0  0  0  0  0  0
    7.1949  -12.5512   19.3858 C   0  0  0  0  0  0  0  0  0  0  0  0
    6.8342  -13.4347   20.5885 C   0  0  0  0  0  0  0  0  0  0  0  0
    8.2551  -13.9978   20.8291 C   0  0  1  0  0  0  0  0  0  0  0  0
    8.3604  -14.7977   21.9946 C   0  0  0  0  0  0  0  0  0  0  0  0
    7.4402  -15.2147   22.6912 O   0  0  0  0  0  0  0  0  0  0  0  0
    9.6909  -15.1701   22.4206 N   0  0  0  0  0  0  0  0  0  0  0  0
    9.9128  -16.0149   23.5659 C   0  0  0  0  0  0  0  0  0  0  0  0
   11.3787  -16.2598   23.7523 C   0  0  0  0  0  0  0  0  0  0  0  0
   12.2387  -15.7931   22.7748 O   0  0  0  0  0  0  0  0  0  0  0  0
   11.7761  -16.8623   24.7574 O   0  0  0  0  0  0  0  0  0  0  0  0
  1  2  1  0
  3  4  2  0
  3  2  1  0
  5  3  1  0
  6  5  1  0
  7  8  1  0
  7  6  1  0
  8  9  1  0
  9  5  1  0
  9 10  1  1
 11 10  2  0
 12 10  1  0
 13 12  1  0
 14 15  1  0
 14 13  1  0
 16 14  2  0
M  END
$$$$
