GPG.pdb
     RDKit          3D

 16 16  0  0  1  0  0  0  0  0999 V2000
    5.6537  -16.7653   23.1466 N   0  0  0  0  0  0  0  0  0  0  0  0
    5.6597  -15.8928   24.2531 C   0  0  0  0  0  0  0  0  0  0  0  0
    6.9214  -15.3224   24.7082 C   0  0  0  0  0  0  0  0  0  0  0  0
    7.9599  -16.0578   24.4679 O   0  0  0  0  0  0  0  0  0  0  0  0
    7.1823  -14.1070   25.3611 N   0  0  0  0  0  0  0  0  0  0  0  0
    6.3830  -12.8915   25.1550 C   0  0  0  0  0  0  0  0  0  0  0  0
    6.2208  -12.3745   26.5976 C   0  0  0  0  0  0  0  0  0  0  0  0
    7.1595  -13.2512   27.4386 C   0  0  0  0  0  0  0  0  0  0  0  0
    8.1303  -13.6236   26.2928 C   0  0  1  0  0  0  0  0  0  0  0  0
    9.2622  -14.3607   26.7230 C   0  0  0  0  0  0  0  0  0  0  0  0
   10.2160  -13.9405   27.3708 O   0  0  0  0  0  0  0  0  0  0  0  0
    9.3115  -15.7610   26.3664 N   0  0  0  0  0  0  0  0  0  0  0  0
   10.4300  -16.5960   26.7218 C   0  0  0  0  0  0  0  0  0  0  0  0
   10.2269  -17.1806   28.0858 C   0  0  0  0  0  0  0  0  0  0  0  0
    9.3553  -18.2478   28.2055 O   0  0  0  0  0  0  0  0  0  0  0  0
   10.8326  -16.7029   29.0533 O   0  0  0  0  0  0  0  0  0  0  0  0
  1  2  1  0
  3  4  2  0
  3  2  1  0
  5  3  1  0
  6  5  1  0
  7  8  1  0
  7  6  1  0
  8  9  1  0
  9  5  1  0
  9 10  1  1
 11 10  2  0
 12 10  1  0
 13 12  1  0
 14 15  1  0
 14 13  1  0
 16 14  2  0
M  END
$$$$
