GPG.pdb
     RDKit          3D

 16 16  0  0  1  0  0  0  0  0999 V2000
    7.9388  -17.6765   17.3116 N   0  0  0  0  0  0  0  0  0  0  0  0
    7.3342  -16.8120   18.2457 C   0  0  0  0  0  0  0  0  0  0  0  0
    8.1424  -16.2291   19.3094 C   0  0  0  0  0  0  0  0  0  0  0  0
    8.8636  -17.0828   19.9638 O   0  0  0  0  0  0  0  0  0  0  0  0
    8.2594  -14.8945   19.7298 N   0  0  0  0  0  0  0  0  0  0  0  0
    8.3425  -13.7593   18.8008 C   0  0  0  0  0  0  0  0  0  0  0  0
    7.3959  -12.7407   19.4650 C   0  0  0  0  0  0  0  0  0  0  0  0
    7.0634  -13.3469   20.8358 C   0  0  0  0  0  0  0  0  0  0  0  0
    8.3416  -14.2093   20.9644 C   0  0  1  0  0  0  0  0  0  0  0  0
    8.4681  -14.8554   22.2198 C   0  0  0  0  0  0  0  0  0  0  0  0
    7.5749  -15.0749   23.0321 O   0  0  0  0  0  0  0  0  0  0  0  0
    9.7877  -15.3104   22.5970 N   0  0  0  0  0  0  0  0  0  0  0  0
   10.0532  -15.8777   23.8941 C   0  0  0  0  0  0  0  0  0  0  0  0
   11.4956  -16.2663   24.0037 C   0  0  0  0  0  0  0  0  0  0  0  0
   11.8024  -17.4049   24.7263 O   0  0  0  0  0  0  0  0  0  0  0  0
   12.3603  -15.5717   23.4553 O   0  0  0  0  0  0  0  0  0  0  0  0
  1  2  1  0
  3  4  2  0
  3  2  1  0
  5  3  1  0
  6  5  1  0
  7  8  1  0
  7  6  1  0
  8  9  1  0
  9  5  1  0
  9 10  1  1
 11 10  2  0
 12 10  1  0
 13 12  1  0
 14 15  1  0
 14 13  1  0
 16 14  2  0
M  END
$$$$
