GPG.pdb
     RDKit          3D

 16 16  0  0  1  0  0  0  0  0999 V2000
    4.9779  -17.3058   23.9109 N   0  0  0  0  0  0  0  0  0  0  0  0
    5.1998  -16.2795   24.8506 C   0  0  0  0  0  0  0  0  0  0  0  0
    6.5097  -15.6441   24.9209 C   0  0  0  0  0  0  0  0  0  0  0  0
    7.4891  -16.3886   24.5164 O   0  0  0  0  0  0  0  0  0  0  0  0
    6.8702  -14.3586   25.3555 N   0  0  0  0  0  0  0  0  0  0  0  0
    5.9846  -13.1912   25.2468 C   0  0  0  0  0  0  0  0  0  0  0  0
    6.1783  -12.5217   26.6211 C   0  0  0  0  0  0  0  0  0  0  0  0
    7.3468  -13.2791   27.2676 C   0  0  0  0  0  0  0  0  0  0  0  0
    8.0028  -13.7543   25.9493 C   0  0  1  0  0  0  0  0  0  0  0  0
    9.2433  -14.4142   26.1365 C   0  0  0  0  0  0  0  0  0  0  0  0
   10.3277  -13.8949   26.3825 O   0  0  0  0  0  0  0  0  0  0  0  0
    9.2461  -15.8560   26.0285 N   0  0  0  0  0  0  0  0  0  0  0  0
   10.4402  -16.6314   26.2464 C   0  0  0  0  0  0  0  0  0  0  0  0
   10.5990  -16.9390   27.7037 C   0  0  0  0  0  0  0  0  0  0  0  0
   11.8545  -16.7812   28.2619 O   0  0  0  0  0  0  0  0  0  0  0  0
    9.6211  -17.3196   28.3593 O   0  0  0  0  0  0  0  0  0  0  0  0
  1  2  1  0
  3  4  2  0
  3  2  1  0
  5  3  1  0
  6  5  1  0
  7  8  1  0
  7  6  1  0
  8  9  1  0
  9  5  1  0
  9 10  1  1
 11 10  2  0
 12 10  1  0
 13 12  1  0
 14 15  1  0
 14 13  1  0
 16 14  2  0
M  END
$$$$
