GPG.pdb
     RDKit          3D

 16 16  0  0  1  0  0  0  0  0999 V2000
    8.4938  -17.2907   16.9471 N   0  0  0  0  0  0  0  0  0  0  0  0
    7.9247  -16.3076   17.7808 C   0  0  0  0  0  0  0  0  0  0  0  0
    8.6889  -15.7991   18.9129 C   0  0  0  0  0  0  0  0  0  0  0  0
    9.6536  -16.5720   19.2991 O   0  0  0  0  0  0  0  0  0  0  0  0
    8.5420  -14.6088   19.6430 N   0  0  0  0  0  0  0  0  0  0  0  0
    8.4403  -13.2839   19.0161 C   0  0  0  0  0  0  0  0  0  0  0  0
    7.3005  -12.6393   19.8283 C   0  0  0  0  0  0  0  0  0  0  0  0
    7.0451  -13.6110   20.9892 C   0  0  0  0  0  0  0  0  0  0  0  0
    8.4570  -14.2433   21.0067 C   0  0  1  0  0  0  0  0  0  0  0  0
    8.6634  -15.1453   22.0807 C   0  0  0  0  0  0  0  0  0  0  0  0
    7.8027  -15.7300   22.7313 O   0  0  0  0  0  0  0  0  0  0  0  0
   10.0318  -15.4146   22.4618 N   0  0  0  0  0  0  0  0  0  0  0  0
   10.3583  -16.3412   23.5152 C   0  0  0  0  0  0  0  0  0  0  0  0
   11.8270  -16.2980   23.8059 C   0  0  0  0  0  0  0  0  0  0  0  0
   12.2875  -17.0052   24.9016 O   0  0  0  0  0  0  0  0  0  0  0  0
   12.5775  -15.6428   23.0721 O   0  0  0  0  0  0  0  0  0  0  0  0
  1  2  1  0
  3  4  2  0
  3  2  1  0
  5  3  1  0
  6  5  1  0
  7  8  1  0
  7  6  1  0
  8  9  1  0
  9  5  1  0
  9 10  1  1
 11 10  2  0
 12 10  1  0
 13 12  1  0
 14 15  1  0
 14 13  1  0
 16 14  2  0
M  END
$$$$
