GPG.pdb
     RDKit          3D

 16 16  0  0  1  0  0  0  0  0999 V2000
    7.1295  -17.9729   18.4389 N   0  0  0  0  0  0  0  0  0  0  0  0
    6.7743  -16.9441   19.3340 C   0  0  0  0  0  0  0  0  0  0  0  0
    7.8081  -16.3097   20.1421 C   0  0  0  0  0  0  0  0  0  0  0  0
    8.5239  -17.1331   20.8397 O   0  0  0  0  0  0  0  0  0  0  0  0
    8.1455  -14.9536   20.2787 N   0  0  0  0  0  0  0  0  0  0  0  0
    8.0559  -13.9841   19.1784 C   0  0  0  0  0  0  0  0  0  0  0  0
    7.4189  -12.7698   19.8815 C   0  0  0  0  0  0  0  0  0  0  0  0
    7.4365  -13.1249   21.3750 C   0  0  0  0  0  0  0  0  0  0  0  0
    8.6256  -14.1127   21.3097 C   0  0  1  0  0  0  0  0  0  0  0  0
    9.0466  -14.5812   22.5797 C   0  0  0  0  0  0  0  0  0  0  0  0
    8.3421  -14.7855   23.5635 O   0  0  0  0  0  0  0  0  0  0  0  0
   10.4569  -14.8517   22.7483 N   0  0  0  0  0  0  0  0  0  0  0  0
   11.0052  -15.2611   24.0157 C   0  0  0  0  0  0  0  0  0  0  0  0
   11.1481  -16.7514   24.0608 C   0  0  0  0  0  0  0  0  0  0  0  0
   12.1820  -17.3211   23.3402 O   0  0  0  0  0  0  0  0  0  0  0  0
   10.3523  -17.4230   24.7292 O   0  0  0  0  0  0  0  0  0  0  0  0
  1  2  1  0
  3  4  2  0
  3  2  1  0
  5  3  1  0
  6  5  1  0
  7  8  1  0
  7  6  1  0
  8  9  1  0
  9  5  1  0
  9 10  1  1
 11 10  2  0
 12 10  1  0
 13 12  1  0
 14 15  1  0
 14 13  1  0
 16 14  2  0
M  END
$$$$
