GPG.pdb
     RDKit          3D

 16 16  0  0  1  0  0  0  0  0999 V2000
    9.5744  -16.1922   16.0819 N   0  0  0  0  0  0  0  0  0  0  0  0
    8.7136  -15.6584   17.0616 C   0  0  0  0  0  0  0  0  0  0  0  0
    9.2571  -15.2693   18.3568 C   0  0  0  0  0  0  0  0  0  0  0  0
   10.0776  -16.1277   18.8737 O   0  0  0  0  0  0  0  0  0  0  0  0
    9.0305  -14.1154   19.1240 N   0  0  0  0  0  0  0  0  0  0  0  0
    8.9648  -12.7642   18.5507 C   0  0  0  0  0  0  0  0  0  0  0  0
    7.7498  -12.1693   19.2885 C   0  0  0  0  0  0  0  0  0  0  0  0
    7.4085  -13.1959   20.3779 C   0  0  0  0  0  0  0  0  0  0  0  0
    8.8225  -13.8139   20.4902 C   0  0  1  0  0  0  0  0  0  0  0  0
    8.9477  -14.7621   21.5365 C   0  0  0  0  0  0  0  0  0  0  0  0
    8.0452  -15.2243   22.2277 O   0  0  0  0  0  0  0  0  0  0  0  0
   10.2777  -15.2457   21.8323 N   0  0  0  0  0  0  0  0  0  0  0  0
   10.5240  -16.1908   22.8910 C   0  0  0  0  0  0  0  0  0  0  0  0
   11.9890  -16.4862   22.9909 C   0  0  0  0  0  0  0  0  0  0  0  0
   12.3873  -17.8071   22.8945 O   0  0  0  0  0  0  0  0  0  0  0  0
   12.7911  -15.5583   23.1540 O   0  0  0  0  0  0  0  0  0  0  0  0
  1  2  1  0
  3  4  2  0
  3  2  1  0
  5  3  1  0
  6  5  1  0
  7  8  1  0
  7  6  1  0
  8  9  1  0
  9  5  1  0
  9 10  1  1
 11 10  2  0
 12 10  1  0
 13 12  1  0
 14 15  1  0
 14 13  1  0
 16 14  2  0
M  END
$$$$
