GPG.pdb
     RDKit          3D

 16 16  0  0  1  0  0  0  0  0999 V2000
    7.0353  -16.5990   22.6244 N   0  0  0  0  0  0  0  0  0  0  0  0
    7.9392  -15.5283   22.4755 C   0  0  0  0  0  0  0  0  0  0  0  0
    8.5698  -15.2985   21.1817 C   0  0  0  0  0  0  0  0  0  0  0  0
    9.4352  -16.1991   20.8395 O   0  0  0  0  0  0  0  0  0  0  0  0
    8.3840  -14.2594   20.2558 N   0  0  0  0  0  0  0  0  0  0  0  0
    7.2102  -13.3757   20.2581 C   0  0  0  0  0  0  0  0  0  0  0  0
    7.8560  -11.9959   20.0269 C   0  0  0  0  0  0  0  0  0  0  0  0
    9.3220  -12.2987   19.6862 C   0  0  0  0  0  0  0  0  0  0  0  0
    9.0884  -13.7308   19.1490 C   0  0  1  0  0  0  0  0  0  0  0  0
   10.2484  -14.3264   18.5931 C   0  0  0  0  0  0  0  0  0  0  0  0
   10.3894  -14.7428   17.4474 O   0  0  0  0  0  0  0  0  0  0  0  0
   11.3980  -14.4647   19.4590 N   0  0  0  0  0  0  0  0  0  0  0  0
   12.6405  -15.0208   18.9883 C   0  0  0  0  0  0  0  0  0  0  0  0
   13.6843  -14.9357   20.0592 C   0  0  0  0  0  0  0  0  0  0  0  0
   14.8343  -14.2193   19.7817 O   0  0  0  0  0  0  0  0  0  0  0  0
   13.4950  -15.4981   21.1450 O   0  0  0  0  0  0  0  0  0  0  0  0
  1  2  1  0
  3  4  2  0
  3  2  1  0
  5  3  1  0
  6  5  1  0
  7  8  1  0
  7  6  1  0
  8  9  1  0
  9  5  1  0
  9 10  1  1
 11 10  2  0
 12 10  1  0
 13 12  1  0
 14 15  1  0
 14 13  1  0
 16 14  2  0
M  END
$$$$
