EGD.pdb
     RDKit          3D

 22 21  0  0  1  0  0  0  0  0999 V2000
    9.5168  -16.4100   17.7869 N   0  0  0  0  0  0  0  0  0  0  0  0
    8.3558  -16.7619   18.5507 C   0  0  1  0  0  0  0  0  0  0  0  0
    7.8298  -18.1277   18.3112 C   0  0  0  0  0  0  0  0  0  0  0  0
    8.5187  -18.9840   17.3283 C   0  0  0  0  0  0  0  0  0  0  0  0
    8.0495  -20.3512   17.1634 C   0  0  0  0  0  0  0  0  0  0  0  0
    6.9272  -20.5972   16.6689 O   0  0  0  0  0  0  0  0  0  0  0  0
    8.5310  -16.4866   20.0176 C   0  0  0  0  0  0  0  0  0  0  0  0
    7.5413  -16.6640   20.7754 O   0  0  0  0  0  0  0  0  0  0  0  0
    8.8332  -21.4415   17.5515 O   0  0  0  0  0  0  0  0  0  0  0  0
    9.7794  -16.0402   20.5117 N   0  0  0  0  0  0  0  0  0  0  0  0
    9.9027  -15.9860   21.9732 C   0  0  0  0  0  0  0  0  0  0  0  0
   11.1429  -16.7191   22.3420 C   0  0  0  0  0  0  0  0  0  0  0  0
   11.2549  -17.9727   22.1282 O   0  0  0  0  0  0  0  0  0  0  0  0
   12.2403  -16.0471   22.9430 N   0  0  0  0  0  0  0  0  0  0  0  0
   13.4516  -16.8249   23.2332 C   0  0  1  0  0  0  0  0  0  0  0  0
   14.5850  -15.9035   23.5913 C   0  0  0  0  0  0  0  0  0  0  0  0
   15.6032  -15.7900   22.5548 C   0  0  0  0  0  0  0  0  0  0  0  0
   15.5887  -16.4292   21.5023 O   0  0  0  0  0  0  0  0  0  0  0  0
   13.0671  -17.6257   24.4489 C   0  0  0  0  0  0  0  0  0  0  0  0
   12.2626  -17.1820   25.3210 O   0  0  0  0  0  0  0  0  0  0  0  0
   16.6740  -14.8924   22.7664 O   0  0  0  0  0  0  0  0  0  0  0  0
   13.5976  -18.8678   24.6212 O   0  0  0  0  0  0  0  0  0  0  0  0
  2  1  1  6
  2  7  1  0
  3  4  1  0
  3  2  1  0
  5  4  1  0
  5  6  2  0
  7  8  2  0
  9  5  1  0
 10 11  1  0
 10  7  1  0
 11 12  1  0
 12 13  2  0
 12 14  1  0
 14 15  1  0
 15 16  1  1
 15 19  1  0
 16 17  1  0
 17 21  1  0
 17 18  2  0
 19 22  1  0
 20 19  2  0
M  END
$$$$
