EGD.pdb
     RDKit          3D

 22 21  0  0  1  0  0  0  0  0999 V2000
    6.8580  -17.5149   19.0861 N   0  0  0  0  0  0  0  0  0  0  0  0
    8.2792  -17.3611   18.9785 C   0  0  1  0  0  0  0  0  0  0  0  0
    8.7630  -16.8336   17.6796 C   0  0  0  0  0  0  0  0  0  0  0  0
    7.9139  -17.0133   16.4878 C   0  0  0  0  0  0  0  0  0  0  0  0
    8.3694  -16.4414   15.2300 C   0  0  0  0  0  0  0  0  0  0  0  0
    9.4636  -15.8407   15.1485 O   0  0  0  0  0  0  0  0  0  0  0  0
    8.8615  -16.5993   20.1357 C   0  0  0  0  0  0  0  0  0  0  0  0
   10.1143  -16.4939   20.2046 O   0  0  0  0  0  0  0  0  0  0  0  0
    7.6026  -16.5398   14.0655 O   0  0  0  0  0  0  0  0  0  0  0  0
    8.0092  -16.0266   21.1090 N   0  0  0  0  0  0  0  0  0  0  0  0
    8.6721  -15.2167   22.1379 C   0  0  0  0  0  0  0  0  0  0  0  0
    9.2613  -16.1544   23.1304 C   0  0  0  0  0  0  0  0  0  0  0  0
    8.6189  -17.1848   23.5247 O   0  0  0  0  0  0  0  0  0  0  0  0
   10.5563  -15.9326   23.6695 N   0  0  0  0  0  0  0  0  0  0  0  0
   11.0631  -16.8865   24.6644 C   0  0  1  0  0  0  0  0  0  0  0  0
   12.5642  -16.8199   24.7276 C   0  0  0  0  0  0  0  0  0  0  0  0
   13.2104  -16.8194   23.4213 C   0  0  0  0  0  0  0  0  0  0  0  0
   13.0763  -17.7145   22.5863 O   0  0  0  0  0  0  0  0  0  0  0  0
   10.4938  -16.3722   25.9600 C   0  0  0  0  0  0  0  0  0  0  0  0
   10.6901  -16.9626   27.0634 O   0  0  0  0  0  0  0  0  0  0  0  0
   14.0421  -15.7265   23.0884 O   0  0  0  0  0  0  0  0  0  0  0  0
    9.7438  -15.2359   25.9512 O   0  0  0  0  0  0  0  0  0  0  0  0
  2  1  1  6
  2  7  1  0
  3  4  1  0
  3  2  1  0
  5  4  1  0
  5  6  2  0
  7  8  2  0
  9  5  1  0
 10 11  1  0
 10  7  1  0
 11 12  1  0
 12 13  2  0
 12 14  1  0
 14 15  1  0
 15 16  1  1
 15 19  1  0
 16 17  1  0
 17 21  1  0
 17 18  2  0
 19 22  1  0
 20 19  2  0
M  END
$$$$
