EGD.pdb
     RDKit          3D

 22 21  0  0  1  0  0  0  0  0999 V2000
    7.3231  -19.6764   19.1552 N   0  0  0  0  0  0  0  0  0  0  0  0
    8.3532  -20.4444   18.5197 C   0  0  1  0  0  0  0  0  0  0  0  0
    8.6469  -20.0708   17.1149 C   0  0  0  0  0  0  0  0  0  0  0  0
    8.4908  -18.6603   16.7153 C   0  0  0  0  0  0  0  0  0  0  0  0
    8.7991  -18.3000   15.3399 C   0  0  0  0  0  0  0  0  0  0  0  0
    9.2189  -19.1507   14.5245 O   0  0  0  0  0  0  0  0  0  0  0  0
    9.6063  -20.5154   19.3462 C   0  0  0  0  0  0  0  0  0  0  0  0
   10.5458  -21.2461   18.9352 O   0  0  0  0  0  0  0  0  0  0  0  0
    8.6394  -16.9909   14.8769 O   0  0  0  0  0  0  0  0  0  0  0  0
    9.7063  -19.7760   20.5483 N   0  0  0  0  0  0  0  0  0  0  0  0
   10.9691  -19.9219   21.2819 C   0  0  0  0  0  0  0  0  0  0  0  0
   10.6571  -19.8064   22.7313 C   0  0  0  0  0  0  0  0  0  0  0  0
    9.7453  -19.0157   23.1476 O   0  0  0  0  0  0  0  0  0  0  0  0
   11.3635  -20.5723   23.6964 N   0  0  0  0  0  0  0  0  0  0  0  0
   11.0221  -20.3839   25.1123 C   0  0  1  0  0  0  0  0  0  0  0  0
   11.3082  -21.6417   25.8855 C   0  0  0  0  0  0  0  0  0  0  0  0
   10.3394  -22.7067   25.6591 C   0  0  0  0  0  0  0  0  0  0  0  0
    9.2584  -22.5452   25.0920 O   0  0  0  0  0  0  0  0  0  0  0  0
   11.9742  -19.3061   25.5584 C   0  0  0  0  0  0  0  0  0  0  0  0
   12.9542  -18.9359   24.8463 O   0  0  0  0  0  0  0  0  0  0  0  0
   10.6564  -24.0057   26.1165 O   0  0  0  0  0  0  0  0  0  0  0  0
   11.7797  -18.7059   26.7651 O   0  0  0  0  0  0  0  0  0  0  0  0
  2  1  1  1
  2  7  1  0
  3  4  1  0
  3  2  1  0
  5  4  1  0
  5  6  2  0
  7  8  2  0
  9  5  1  0
 10 11  1  0
 10  7  1  0
 11 12  1  0
 12 13  2  0
 12 14  1  0
 14 15  1  0
 15 16  1  1
 15 19  1  0
 16 17  1  0
 17 21  1  0
 17 18  2  0
 19 22  1  0
 20 19  2  0
M  END
$$$$
