EGD.pdb
     RDKit          3D

 22 21  0  0  1  0  0  0  0  0999 V2000
    6.7486  -18.9106   18.8901 N   0  0  0  0  0  0  0  0  0  0  0  0
    8.0445  -18.3647   18.6113 C   0  0  1  0  0  0  0  0  0  0  0  0
    8.3491  -18.1577   17.1747 C   0  0  0  0  0  0  0  0  0  0  0  0
    7.2476  -17.7827   16.2694 C   0  0  0  0  0  0  0  0  0  0  0  0
    7.5652  -17.5301   14.8723 C   0  0  0  0  0  0  0  0  0  0  0  0
    8.7428  -17.5851   14.4541 O   0  0  0  0  0  0  0  0  0  0  0  0
    8.3319  -17.1314   19.4204 C   0  0  0  0  0  0  0  0  0  0  0  0
    9.5025  -16.6680   19.3974 O   0  0  0  0  0  0  0  0  0  0  0  0
    6.5683  -17.2154   13.9445 O   0  0  0  0  0  0  0  0  0  0  0  0
    7.3036  -16.5254   20.1799 N   0  0  0  0  0  0  0  0  0  0  0  0
    7.6684  -15.2799   20.8654 C   0  0  0  0  0  0  0  0  0  0  0  0
    8.3576  -15.6534   22.1291 C   0  0  0  0  0  0  0  0  0  0  0  0
    7.7382  -15.6413   23.2453 O   0  0  0  0  0  0  0  0  0  0  0  0
    9.7255  -16.0353   22.1327 N   0  0  0  0  0  0  0  0  0  0  0  0
   10.3365  -16.4037   23.4163 C   0  0  1  0  0  0  0  0  0  0  0  0
   10.1572  -17.8749   23.6716 C   0  0  0  0  0  0  0  0  0  0  0  0
   10.8859  -18.3650   24.8347 C   0  0  0  0  0  0  0  0  0  0  0  0
   11.5744  -17.6529   25.5664 O   0  0  0  0  0  0  0  0  0  0  0  0
   11.7988  -16.1177   23.1995 C   0  0  0  0  0  0  0  0  0  0  0  0
   12.2762  -15.8838   22.0497 O   0  0  0  0  0  0  0  0  0  0  0  0
   10.7995  -19.7408   25.1456 O   0  0  0  0  0  0  0  0  0  0  0  0
   12.6395  -16.1080   24.2705 O   0  0  0  0  0  0  0  0  0  0  0  0
  2  1  1  6
  2  7  1  0
  3  4  1  0
  3  2  1  0
  5  4  1  0
  5  6  2  0
  7  8  2  0
  9  5  1  0
 10 11  1  0
 10  7  1  0
 11 12  1  0
 12 13  2  0
 12 14  1  0
 14 15  1  0
 15 16  1  6
 15 19  1  0
 16 17  1  0
 17 21  1  0
 17 18  2  0
 19 22  1  0
 20 19  2  0
M  END
$$$$
