EGD.pdb
     RDKit          3D

 22 21  0  0  1  0  0  0  0  0999 V2000
    7.9272  -12.7828   17.8674 N   0  0  0  0  0  0  0  0  0  0  0  0
    7.1475  -13.9157   17.4630 C   0  0  1  0  0  0  0  0  0  0  0  0
    7.2026  -14.2391   16.0167 C   0  0  0  0  0  0  0  0  0  0  0  0
    8.5103  -14.2003   15.3369 C   0  0  0  0  0  0  0  0  0  0  0  0
    8.5656  -14.5883   13.9359 C   0  0  0  0  0  0  0  0  0  0  0  0
    7.5242  -14.8407   13.2906 O   0  0  0  0  0  0  0  0  0  0  0  0
    7.4161  -15.1272   18.3107 C   0  0  0  0  0  0  0  0  0  0  0  0
    6.7357  -16.1641   18.0935 O   0  0  0  0  0  0  0  0  0  0  0  0
    9.7831  -14.6951   13.2576 O   0  0  0  0  0  0  0  0  0  0  0  0
    8.4077  -15.0821   19.3189 N   0  0  0  0  0  0  0  0  0  0  0  0
    8.5976  -16.3222   20.0805 C   0  0  0  0  0  0  0  0  0  0  0  0
    9.9857  -16.3082   20.6137 C   0  0  0  0  0  0  0  0  0  0  0  0
   10.8137  -15.3991   20.2705 O   0  0  0  0  0  0  0  0  0  0  0  0
   10.4325  -17.3052   21.5211 N   0  0  0  0  0  0  0  0  0  0  0  0
   11.8151  -17.2251   22.0095 C   0  0  1  0  0  0  0  0  0  0  0  0
   11.9021  -17.7690   23.4089 C   0  0  0  0  0  0  0  0  0  0  0  0
   12.4060  -16.8104   24.3843 C   0  0  0  0  0  0  0  0  0  0  0  0
   12.8889  -15.7168   24.0890 O   0  0  0  0  0  0  0  0  0  0  0  0
   12.5654  -18.1411   21.0793 C   0  0  0  0  0  0  0  0  0  0  0  0
   13.8259  -18.2594   21.1221 O   0  0  0  0  0  0  0  0  0  0  0  0
   12.3378  -17.1530   25.7536 O   0  0  0  0  0  0  0  0  0  0  0  0
   11.8717  -18.8687   20.1611 O   0  0  0  0  0  0  0  0  0  0  0  0
  2  1  1  6
  2  7  1  0
  3  4  1  0
  3  2  1  0
  5  4  1  0
  5  6  2  0
  7  8  2  0
  9  5  1  0
 10 11  1  0
 10  7  1  0
 11 12  1  0
 12 13  2  0
 12 14  1  0
 14 15  1  0
 15 16  1  1
 15 19  1  0
 16 17  1  0
 17 21  1  0
 17 18  2  0
 19 22  1  0
 20 19  2  0
M  END
$$$$
