EGD.pdb
     RDKit          3D

 22 21  0  0  1  0  0  0  0  0999 V2000
    7.2908  -18.0152   17.7694 N   0  0  0  0  0  0  0  0  0  0  0  0
    8.3470  -17.0678   17.5645 C   0  0  1  0  0  0  0  0  0  0  0  0
    8.4623  -16.5356   16.1851 C   0  0  0  0  0  0  0  0  0  0  0  0
    7.4256  -16.9000   15.2022 C   0  0  0  0  0  0  0  0  0  0  0  0
    7.5178  -16.3304   13.8667 C   0  0  0  0  0  0  0  0  0  0  0  0
    8.5246  -15.6819   13.5056 O   0  0  0  0  0  0  0  0  0  0  0  0
    8.3303  -15.9632   18.5834 C   0  0  0  0  0  0  0  0  0  0  0  0
    9.3253  -15.1935   18.6382 O   0  0  0  0  0  0  0  0  0  0  0  0
    6.4858  -16.4845   12.9367 O   0  0  0  0  0  0  0  0  0  0  0  0
    7.2200  -15.8111   19.4469 N   0  0  0  0  0  0  0  0  0  0  0  0
    7.2196  -14.5997   20.2756 C   0  0  0  0  0  0  0  0  0  0  0  0
    8.1017  -14.8602   21.4441 C   0  0  0  0  0  0  0  0  0  0  0  0
    8.3231  -13.9549   22.3166 O   0  0  0  0  0  0  0  0  0  0  0  0
    8.7244  -16.1237   21.6252 N   0  0  0  0  0  0  0  0  0  0  0  0
    9.4699  -16.3545   22.8692 C   0  0  1  0  0  0  0  0  0  0  0  0
    9.3726  -17.8006   23.2703 C   0  0  0  0  0  0  0  0  0  0  0  0
   10.1969  -18.1509   24.4201 C   0  0  0  0  0  0  0  0  0  0  0  0
   10.3615  -17.4201   25.3975 O   0  0  0  0  0  0  0  0  0  0  0  0
   10.8925  -16.0465   22.4837 C   0  0  0  0  0  0  0  0  0  0  0  0
   11.3425  -16.2840   21.3237 O   0  0  0  0  0  0  0  0  0  0  0  0
   10.8483  -19.4049   24.4172 O   0  0  0  0  0  0  0  0  0  0  0  0
   11.7263  -15.4943   23.4077 O   0  0  0  0  0  0  0  0  0  0  0  0
  2  1  1  6
  2  7  1  0
  3  4  1  0
  3  2  1  0
  5  4  1  0
  5  6  2  0
  7  8  2  0
  9  5  1  0
 10 11  1  0
 10  7  1  0
 11 12  1  0
 12 13  2  0
 12 14  1  0
 14 15  1  0
 15 16  1  6
 15 19  1  0
 16 17  1  0
 17 21  1  0
 17 18  2  0
 19 22  1  0
 20 19  2  0
M  END
$$$$
