EGD.pdb
     RDKit          3D

 22 21  0  0  1  0  0  0  0  0999 V2000
    8.2211  -18.6802   19.6044 N   0  0  0  0  0  0  0  0  0  0  0  0
    8.8268  -17.3942   19.4192 C   0  0  1  0  0  0  0  0  0  0  0  0
    9.0073  -16.9761   18.0078 C   0  0  0  0  0  0  0  0  0  0  0  0
    7.8382  -17.0082   17.1101 C   0  0  0  0  0  0  0  0  0  0  0  0
    8.0299  -16.6177   15.7218 C   0  0  0  0  0  0  0  0  0  0  0  0
    9.1428  -16.2275   15.3050 O   0  0  0  0  0  0  0  0  0  0  0  0
    8.1548  -16.3230   20.2312 C   0  0  0  0  0  0  0  0  0  0  0  0
    8.7587  -15.2286   20.3825 O   0  0  0  0  0  0  0  0  0  0  0  0
    6.9790  -16.6624   14.8013 O   0  0  0  0  0  0  0  0  0  0  0  0
    6.8816  -16.5585   20.8014 N   0  0  0  0  0  0  0  0  0  0  0  0
    6.3213  -15.4519   21.5861 C   0  0  0  0  0  0  0  0  0  0  0  0
    6.6008  -15.7366   23.0186 C   0  0  0  0  0  0  0  0  0  0  0  0
    6.1891  -14.9525   23.9382 O   0  0  0  0  0  0  0  0  0  0  0  0
    7.3338  -16.8892   23.4074 N   0  0  0  0  0  0  0  0  0  0  0  0
    7.5281  -17.1326   24.8426 C   0  0  1  0  0  0  0  0  0  0  0  0
    7.3982  -18.6009   25.1408 C   0  0  0  0  0  0  0  0  0  0  0  0
    7.8172  -18.9689   26.4873 C   0  0  0  0  0  0  0  0  0  0  0  0
    7.6634  -18.2518   27.4765 O   0  0  0  0  0  0  0  0  0  0  0  0
    8.9538  -16.7084   25.0767 C   0  0  0  0  0  0  0  0  0  0  0  0
    9.7547  -16.4823   24.1218 O   0  0  0  0  0  0  0  0  0  0  0  0
    8.4378  -20.2247   26.6735 O   0  0  0  0  0  0  0  0  0  0  0  0
    9.4015  -16.5607   26.3540 O   0  0  0  0  0  0  0  0  0  0  0  0
  2  1  1  6
  2  7  1  0
  3  4  1  0
  3  2  1  0
  5  4  1  0
  5  6  2  0
  7  8  2  0
  9  5  1  0
 10 11  1  0
 10  7  1  0
 11 12  1  0
 12 13  2  0
 12 14  1  0
 14 15  1  0
 15 16  1  6
 15 19  1  0
 16 17  1  0
 17 21  1  0
 17 18  2  0
 19 22  1  0
 20 19  2  0
M  END
$$$$
