EGD.pdb
     RDKit          3D

 22 21  0  0  1  0  0  0  0  0999 V2000
   11.1501  -13.6900   19.5423 N   0  0  0  0  0  0  0  0  0  0  0  0
    9.7519  -13.4139   19.6975 C   0  0  1  0  0  0  0  0  0  0  0  0
    8.9531  -13.4674   18.4492 C   0  0  0  0  0  0  0  0  0  0  0  0
    9.1070  -14.6377   17.5657 C   0  0  0  0  0  0  0  0  0  0  0  0
    8.3605  -14.6561   16.3172 C   0  0  0  0  0  0  0  0  0  0  0  0
    7.6956  -13.6645   15.9437 O   0  0  0  0  0  0  0  0  0  0  0  0
    9.1250  -14.2329   20.7905 C   0  0  0  0  0  0  0  0  0  0  0  0
    7.9782  -13.9038   21.1929 O   0  0  0  0  0  0  0  0  0  0  0  0
    8.3562  -15.7814   15.4881 O   0  0  0  0  0  0  0  0  0  0  0  0
    9.8206  -15.3363   21.3383 N   0  0  0  0  0  0  0  0  0  0  0  0
    9.0955  -16.1028   22.3586 C   0  0  0  0  0  0  0  0  0  0  0  0
    9.8200  -15.9266   23.6453 C   0  0  0  0  0  0  0  0  0  0  0  0
   11.0940  -15.8519   23.6785 O   0  0  0  0  0  0  0  0  0  0  0  0
    9.1170  -15.8360   24.8759 N   0  0  0  0  0  0  0  0  0  0  0  0
    9.9010  -15.7556   26.1150 C   0  0  1  0  0  0  0  0  0  0  0  0
    9.0940  -15.0908   27.1960 C   0  0  0  0  0  0  0  0  0  0  0  0
    9.9006  -14.5100   28.2619 C   0  0  0  0  0  0  0  0  0  0  0  0
   11.1190  -14.6580   28.3622 O   0  0  0  0  0  0  0  0  0  0  0  0
   10.1184  -17.1996   26.4825 C   0  0  0  0  0  0  0  0  0  0  0  0
    9.4009  -18.1303   26.0098 O   0  0  0  0  0  0  0  0  0  0  0  0
    9.2486  -13.7281   29.2420 O   0  0  0  0  0  0  0  0  0  0  0  0
   11.1177  -17.5210   27.3497 O   0  0  0  0  0  0  0  0  0  0  0  0
  2  1  1  6
  2  7  1  0
  3  4  1  0
  3  2  1  0
  5  4  1  0
  5  6  2  0
  7  8  2  0
  9  5  1  0
 10 11  1  0
 10  7  1  0
 11 12  1  0
 12 13  2  0
 12 14  1  0
 14 15  1  0
 15 16  1  1
 15 19  1  0
 16 17  1  0
 17 21  1  0
 17 18  2  0
 19 22  1  0
 20 19  2  0
M  END
$$$$
