EGD.pdb
     RDKit          3D

 22 21  0  0  1  0  0  0  0  0999 V2000
    7.6008  -18.5484   19.2843 N   0  0  0  0  0  0  0  0  0  0  0  0
    8.5775  -17.6450   18.7506 C   0  0  1  0  0  0  0  0  0  0  0  0
    8.5345  -17.4619   17.2796 C   0  0  0  0  0  0  0  0  0  0  0  0
    7.3253  -17.8904   16.5529 C   0  0  0  0  0  0  0  0  0  0  0  0
    7.3101  -17.7482   15.1051 C   0  0  0  0  0  0  0  0  0  0  0  0
    6.3060  -18.0694   14.4318 O   0  0  0  0  0  0  0  0  0  0  0  0
    8.5913  -16.3264   19.4714 C   0  0  0  0  0  0  0  0  0  0  0  0
    9.5177  -15.5162   19.2054 O   0  0  0  0  0  0  0  0  0  0  0  0
    8.4157  -17.2488   14.4110 O   0  0  0  0  0  0  0  0  0  0  0  0
    7.5845  -16.0248   20.4185 N   0  0  0  0  0  0  0  0  0  0  0  0
    7.6806  -14.7037   21.0506 C   0  0  0  0  0  0  0  0  0  0  0  0
    8.5902  -14.8354   22.2196 C   0  0  0  0  0  0  0  0  0  0  0  0
    8.7985  -13.8514   23.0059 O   0  0  0  0  0  0  0  0  0  0  0  0
    9.2545  -16.0595   22.4972 N   0  0  0  0  0  0  0  0  0  0  0  0
   10.1462  -16.1127   23.6628 C   0  0  1  0  0  0  0  0  0  0  0  0
    9.7875  -17.2835   24.5359 C   0  0  0  0  0  0  0  0  0  0  0  0
   10.7273  -17.5172   25.6251 C   0  0  0  0  0  0  0  0  0  0  0  0
   11.7184  -16.8190   25.8411 O   0  0  0  0  0  0  0  0  0  0  0  0
   11.5016  -16.3525   23.0524 C   0  0  0  0  0  0  0  0  0  0  0  0
   12.5720  -16.2256   23.7178 O   0  0  0  0  0  0  0  0  0  0  0  0
   10.4900  -18.6104   26.4885 O   0  0  0  0  0  0  0  0  0  0  0  0
   11.5853  -16.7185   21.7436 O   0  0  0  0  0  0  0  0  0  0  0  0
  2  1  1  1
  2  7  1  0
  3  4  1  0
  3  2  1  0
  5  4  1  0
  5  6  2  0
  7  8  2  0
  9  5  1  0
 10 11  1  0
 10  7  1  0
 11 12  1  0
 12 13  2  0
 12 14  1  0
 14 15  1  0
 15 16  1  1
 15 19  1  0
 16 17  1  0
 17 21  1  0
 17 18  2  0
 19 22  1  0
 20 19  2  0
M  END
$$$$
