EGD.pdb
     RDKit          3D

 22 21  0  0  1  0  0  0  0  0999 V2000
   10.3288  -17.1291   17.1918 N   0  0  0  0  0  0  0  0  0  0  0  0
    9.0440  -16.6355   17.5926 C   0  0  1  0  0  0  0  0  0  0  0  0
    7.9125  -17.5713   17.3848 C   0  0  0  0  0  0  0  0  0  0  0  0
    8.0840  -18.9808   17.7819 C   0  0  0  0  0  0  0  0  0  0  0  0
    6.9926  -19.9050   17.5152 C   0  0  0  0  0  0  0  0  0  0  0  0
    5.9364  -19.5211   16.9659 O   0  0  0  0  0  0  0  0  0  0  0  0
    9.0542  -16.0823   18.9899 C   0  0  0  0  0  0  0  0  0  0  0  0
    8.0190  -15.4956   19.4017 O   0  0  0  0  0  0  0  0  0  0  0  0
    7.0812  -21.2559   17.8630 O   0  0  0  0  0  0  0  0  0  0  0  0
   10.2039  -16.2261   19.8017 N   0  0  0  0  0  0  0  0  0  0  0  0
   10.0057  -15.9806   21.2350 C   0  0  0  0  0  0  0  0  0  0  0  0
   10.9870  -16.8221   21.9701 C   0  0  0  0  0  0  0  0  0  0  0  0
   11.0426  -18.0838   21.7833 O   0  0  0  0  0  0  0  0  0  0  0  0
   11.8921  -16.2481   22.9018 N   0  0  0  0  0  0  0  0  0  0  0  0
   12.7982  -17.1469   23.6283 C   0  0  1  0  0  0  0  0  0  0  0  0
   13.9414  -16.3658   24.2152 C   0  0  0  0  0  0  0  0  0  0  0  0
   14.8563  -15.8209   23.2201 C   0  0  0  0  0  0  0  0  0  0  0  0
   14.7441  -16.0049   22.0077 O   0  0  0  0  0  0  0  0  0  0  0  0
   11.9396  -17.6757   24.7465 C   0  0  0  0  0  0  0  0  0  0  0  0
   12.2907  -18.6653   25.4551 O   0  0  0  0  0  0  0  0  0  0  0  0
   15.9393  -15.0324   23.6699 O   0  0  0  0  0  0  0  0  0  0  0  0
   10.7467  -17.0742   25.0094 O   0  0  0  0  0  0  0  0  0  0  0  0
  2  1  1  1
  2  7  1  0
  3  4  1  0
  3  2  1  0
  5  4  1  0
  5  6  2  0
  7  8  2  0
  9  5  1  0
 10 11  1  0
 10  7  1  0
 11 12  1  0
 12 13  2  0
 12 14  1  0
 14 15  1  0
 15 16  1  1
 15 19  1  0
 16 17  1  0
 17 21  1  0
 17 18  2  0
 19 22  1  0
 20 19  2  0
M  END
$$$$
