EGD.pdb
     RDKit          3D

 22 21  0  0  1  0  0  0  0  0999 V2000
    8.1457  -17.9214   19.7743 N   0  0  0  0  0  0  0  0  0  0  0  0
    8.8351  -16.6842   19.5524 C   0  0  1  0  0  0  0  0  0  0  0  0
    8.5836  -16.0457   18.2377 C   0  0  0  0  0  0  0  0  0  0  0  0
    7.7642  -16.7706   17.2494 C   0  0  0  0  0  0  0  0  0  0  0  0
    8.4140  -17.2458   16.0376 C   0  0  0  0  0  0  0  0  0  0  0  0
    7.7690  -17.8391   15.1450 O   0  0  0  0  0  0  0  0  0  0  0  0
    8.6461  -15.7131   20.6836 C   0  0  0  0  0  0  0  0  0  0  0  0
    9.3212  -14.6504   20.6703 O   0  0  0  0  0  0  0  0  0  0  0  0
    9.7827  -17.0589   15.8243 O   0  0  0  0  0  0  0  0  0  0  0  0
    7.7324  -16.0045   21.7238 N   0  0  0  0  0  0  0  0  0  0  0  0
    7.7029  -15.0433   22.8326 C   0  0  0  0  0  0  0  0  0  0  0  0
    8.7447  -15.4588   23.8089 C   0  0  0  0  0  0  0  0  0  0  0  0
    9.9424  -15.6931   23.4340 O   0  0  0  0  0  0  0  0  0  0  0  0
    8.4394  -15.6073   25.1879 N   0  0  0  0  0  0  0  0  0  0  0  0
    9.5117  -15.3686   26.1625 C   0  0  1  0  0  0  0  0  0  0  0  0
    9.0161  -14.4804   27.2702 C   0  0  0  0  0  0  0  0  0  0  0  0
   10.0105  -14.2128   28.3016 C   0  0  0  0  0  0  0  0  0  0  0  0
   11.1557  -14.6653   28.2880 O   0  0  0  0  0  0  0  0  0  0  0  0
    9.7867  -16.7404   26.7190 C   0  0  0  0  0  0  0  0  0  0  0  0
   10.7114  -16.9541   27.5579 O   0  0  0  0  0  0  0  0  0  0  0  0
    9.6421  -13.3835   29.3849 O   0  0  0  0  0  0  0  0  0  0  0  0
    9.0193  -17.7887   26.3114 O   0  0  0  0  0  0  0  0  0  0  0  0
  2  1  1  1
  2  7  1  0
  3  4  1  0
  3  2  1  0
  5  4  1  0
  5  6  2  0
  7  8  2  0
  9  5  1  0
 10 11  1  0
 10  7  1  0
 11 12  1  0
 12 13  2  0
 12 14  1  0
 14 15  1  0
 15 16  1  1
 15 19  1  0
 16 17  1  0
 17 21  1  0
 17 18  2  0
 19 22  1  0
 20 19  2  0
M  END
$$$$
