EGD.pdb
     RDKit          3D

 22 21  0  0  1  0  0  0  0  0999 V2000
    9.9978  -17.9181   20.3972 N   0  0  0  0  0  0  0  0  0  0  0  0
    9.5385  -16.6060   20.0471 C   0  0  1  0  0  0  0  0  0  0  0  0
    9.0267  -16.4622   18.6627 C   0  0  0  0  0  0  0  0  0  0  0  0
    8.2581  -17.5763   18.0780 C   0  0  0  0  0  0  0  0  0  0  0  0
    7.7008  -17.3989   16.7459 C   0  0  0  0  0  0  0  0  0  0  0  0
    7.9471  -16.3755   16.0701 O   0  0  0  0  0  0  0  0  0  0  0  0
    8.5712  -16.0508   21.0543 C   0  0  0  0  0  0  0  0  0  0  0  0
    8.1645  -14.8698   20.8957 O   0  0  0  0  0  0  0  0  0  0  0  0
    6.8688  -18.3635   16.1705 O   0  0  0  0  0  0  0  0  0  0  0  0
    8.1441  -16.8481   22.1423 N   0  0  0  0  0  0  0  0  0  0  0  0
    7.2086  -16.2058   23.0731 C   0  0  0  0  0  0  0  0  0  0  0  0
    8.0186  -15.4774   24.0854 C   0  0  0  0  0  0  0  0  0  0  0  0
    9.2944  -15.4977   24.0463 O   0  0  0  0  0  0  0  0  0  0  0  0
    7.3977  -14.7368   25.1261 N   0  0  0  0  0  0  0  0  0  0  0  0
    8.2595  -13.9912   26.0524 C   0  0  1  0  0  0  0  0  0  0  0  0
    7.4304  -13.0649   26.8987 C   0  0  0  0  0  0  0  0  0  0  0  0
    6.8197  -11.9719   26.1528 C   0  0  0  0  0  0  0  0  0  0  0  0
    7.0869  -11.7042   24.9809 O   0  0  0  0  0  0  0  0  0  0  0  0
    8.8411  -15.0686   26.9289 C   0  0  0  0  0  0  0  0  0  0  0  0
    9.7181  -14.8208   27.8087 O   0  0  0  0  0  0  0  0  0  0  0  0
    5.8616  -11.1681   26.8107 O   0  0  0  0  0  0  0  0  0  0  0  0
    8.4137  -16.3522   26.7756 O   0  0  0  0  0  0  0  0  0  0  0  0
  2  1  1  1
  2  7  1  0
  3  4  1  0
  3  2  1  0
  5  4  1  0
  5  6  2  0
  7  8  2  0
  9  5  1  0
 10 11  1  0
 10  7  1  0
 11 12  1  0
 12 13  2  0
 12 14  1  0
 14 15  1  0
 15 16  1  1
 15 19  1  0
 16 17  1  0
 17 21  1  0
 17 18  2  0
 19 22  1  0
 20 19  2  0
M  END
$$$$
