EGD.pdb
     RDKit          3D

 22 21  0  0  1  0  0  0  0  0999 V2000
    6.2654  -15.0356   19.5848 N   0  0  0  0  0  0  0  0  0  0  0  0
    7.5999  -14.5327   19.4390 C   0  0  1  0  0  0  0  0  0  0  0  0
    7.7498  -13.3971   18.4971 C   0  0  0  0  0  0  0  0  0  0  0  0
    7.2006  -13.5356   17.1359 C   0  0  0  0  0  0  0  0  0  0  0  0
    8.1247  -13.8285   16.0511 C   0  0  0  0  0  0  0  0  0  0  0  0
    9.3584  -13.8912   16.2484 O   0  0  0  0  0  0  0  0  0  0  0  0
    8.2495  -14.2422   20.7627 C   0  0  0  0  0  0  0  0  0  0  0  0
    9.4551  -13.8787   20.7632 O   0  0  0  0  0  0  0  0  0  0  0  0
    7.6707  -14.0500   14.7479 O   0  0  0  0  0  0  0  0  0  0  0  0
    7.5108  -14.3808   21.9613 N   0  0  0  0  0  0  0  0  0  0  0  0
    8.2634  -14.1599   23.2018 C   0  0  0  0  0  0  0  0  0  0  0  0
    9.1014  -15.3663   23.4341 C   0  0  0  0  0  0  0  0  0  0  0  0
    8.8062  -16.4863   22.8972 O   0  0  0  0  0  0  0  0  0  0  0  0
   10.2555  -15.3092   24.2597 N   0  0  0  0  0  0  0  0  0  0  0  0
   11.1226  -16.4930   24.3178 C   0  0  1  0  0  0  0  0  0  0  0  0
   12.5677  -16.0764   24.3226 C   0  0  0  0  0  0  0  0  0  0  0  0
   13.5034  -17.1926   24.3746 C   0  0  0  0  0  0  0  0  0  0  0  0
   13.3939  -18.1477   25.1441 O   0  0  0  0  0  0  0  0  0  0  0  0
   10.7841  -17.1063   25.6506 C   0  0  0  0  0  0  0  0  0  0  0  0
   10.3427  -16.4164   26.6169 O   0  0  0  0  0  0  0  0  0  0  0  0
   14.6047  -17.1822   23.4892 O   0  0  0  0  0  0  0  0  0  0  0  0
   10.9552  -18.4454   25.8281 O   0  0  0  0  0  0  0  0  0  0  0  0
  2  1  1  1
  2  7  1  0
  3  4  1  0
  3  2  1  0
  5  4  1  0
  5  6  2  0
  7  8  2  0
  9  5  1  0
 10 11  1  0
 10  7  1  0
 11 12  1  0
 12 13  2  0
 12 14  1  0
 14 15  1  0
 15 16  1  1
 15 19  1  0
 16 17  1  0
 17 21  1  0
 17 18  2  0
 19 22  1  0
 20 19  2  0
M  END
$$$$
