PQM.pdb
     RDKit          3D

 25 25  0  0  1  0  0  0  0  0999 V2000
    8.7446  -14.8736   18.3354 N   0  0  0  0  0  0  0  0  0  0  0  0
    8.7809  -14.1006   17.1222 C   0  0  0  0  0  0  0  0  0  0  0  0
    8.1386  -12.7680   17.4188 C   0  0  0  0  0  0  0  0  0  0  0  0
    7.6009  -12.9564   18.8329 C   0  0  0  0  0  0  0  0  0  0  0  0
    8.6392  -13.9122   19.3849 C   0  0  1  0  0  0  0  0  0  0  0  0
    8.2659  -14.4872   20.6887 C   0  0  0  0  0  0  0  0  0  0  0  0
    8.1501  -13.7037   21.6579 O   0  0  0  0  0  0  0  0  0  0  0  0
    6.2271  -20.5608   21.5057 N   0  0  0  0  0  0  0  0  0  0  0  0
    7.6164  -20.2808   21.5011 C   0  0  0  0  0  0  0  0  0  0  0  0
    8.4146  -21.2207   21.2980 O   0  0  0  0  0  0  0  0  0  0  0  0
    8.0927  -18.9242   21.7296 C   0  0  0  0  0  0  0  0  0  0  0  0
    7.0529  -17.8728   21.8690 C   0  0  0  0  0  0  0  0  0  0  0  0
    7.5154  -16.4812   22.0777 C   0  0  2  0  0  0  0  0  0  0  0  0
    8.0426  -15.8783   20.8543 N   0  0  0  0  0  0  0  0  0  0  0  0
    8.4561  -16.3065   23.2061 C   0  0  0  0  0  0  0  0  0  0  0  0
    9.6693  -16.1511   22.9577 O   0  0  0  0  0  0  0  0  0  0  0  0
    6.4908  -10.9623   28.3076 C   0  0  0  0  0  0  0  0  0  0  0  0
    6.1375  -12.1970   27.0240 S   0  0  0  0  0  0  0  0  0  0  0  0
    7.6098  -13.2224   26.6993 C   0  0  0  0  0  0  0  0  0  0  0  0
    7.2716  -14.2992   25.7027 C   0  0  0  0  0  0  0  0  0  0  0  0
    8.4588  -15.1891   25.4223 C   0  0  2  0  0  0  0  0  0  0  0  0
    8.0322  -16.3092   24.5607 N   0  0  0  0  0  0  0  0  0  0  0  0
    8.9738  -15.7907   26.6648 C   0  0  0  0  0  0  0  0  0  0  0  0
    8.7344  -16.9834   27.0392 O   0  0  0  0  0  0  0  0  0  0  0  0
    9.7880  -15.0101   27.5090 O   0  0  0  0  0  0  0  0  0  0  0  0
  1  5  1  0
  2  1  1  0
  2  3  1  0
  3  4  1  0
  5  6  1  1
  5  4  1  0
  6  7  2  0
  8  9  1  0
  9 11  1  0
 10  9  2  0
 11 12  1  0
 13 12  1  6
 14  6  1  0
 14 13  1  0
 15 16  2  0
 15 13  1  0
 18 17  1  0
 19 20  1  0
 19 18  1  0
 21 20  1  1
 21 22  1  0
 22 15  1  0
 23 25  1  0
 23 21  1  0
 24 23  2  0
M  END
$$$$
