PQM.pdb
     RDKit          3D

 25 25  0  0  1  0  0  0  0  0999 V2000
    9.2055  -14.7401   18.3661 N   0  0  0  0  0  0  0  0  0  0  0  0
    9.1520  -13.9113   17.1910 C   0  0  0  0  0  0  0  0  0  0  0  0
    7.9688  -12.9880   17.3454 C   0  0  0  0  0  0  0  0  0  0  0  0
    7.2944  -13.5075   18.6101 C   0  0  0  0  0  0  0  0  0  0  0  0
    8.5070  -14.0052   19.3704 C   0  0  1  0  0  0  0  0  0  0  0  0
    8.1611  -14.7992   20.5621 C   0  0  0  0  0  0  0  0  0  0  0  0
    7.4450  -14.2572   21.4340 O   0  0  0  0  0  0  0  0  0  0  0  0
    9.9318  -20.9488   21.6337 N   0  0  0  0  0  0  0  0  0  0  0  0
    9.3325  -20.5413   22.8517 C   0  0  0  0  0  0  0  0  0  0  0  0
    9.2934  -21.3546   23.7997 O   0  0  0  0  0  0  0  0  0  0  0  0
    8.7771  -19.2022   22.9848 C   0  0  0  0  0  0  0  0  0  0  0  0
    8.9219  -18.3062   21.8090 C   0  0  0  0  0  0  0  0  0  0  0  0
    8.3747  -16.9348   21.9265 C   0  0  2  0  0  0  0  0  0  0  0  0
    8.6168  -16.1322   20.7285 N   0  0  0  0  0  0  0  0  0  0  0  0
    8.7879  -16.2083   23.1473 C   0  0  0  0  0  0  0  0  0  0  0  0
    9.9684  -15.8140   23.2405 O   0  0  0  0  0  0  0  0  0  0  0  0
    6.4327  -10.7819   28.2592 C   0  0  0  0  0  0  0  0  0  0  0  0
    6.0292  -12.0154   26.9894 S   0  0  0  0  0  0  0  0  0  0  0  0
    7.4721  -13.0757   26.6453 C   0  0  0  0  0  0  0  0  0  0  0  0
    7.1417  -14.0438   25.5404 C   0  0  0  0  0  0  0  0  0  0  0  0
    8.3052  -14.9565   25.2353 C   0  0  2  0  0  0  0  0  0  0  0  0
    7.8936  -15.9426   24.2169 N   0  0  0  0  0  0  0  0  0  0  0  0
    8.6995  -15.7273   26.4275 C   0  0  0  0  0  0  0  0  0  0  0  0
    8.3596  -16.9338   26.6487 O   0  0  0  0  0  0  0  0  0  0  0  0
    9.5070  -15.1052   27.4001 O   0  0  0  0  0  0  0  0  0  0  0  0
  1  5  1  0
  2  1  1  0
  2  3  1  0
  3  4  1  0
  5  6  1  1
  5  4  1  0
  6  7  2  0
  8  9  1  0
  9 11  1  0
 10  9  2  0
 11 12  1  0
 13 12  1  6
 14  6  1  0
 14 13  1  0
 15 16  2  0
 15 13  1  0
 18 17  1  0
 19 20  1  0
 19 18  1  0
 21 20  1  1
 21 22  1  0
 22 15  1  0
 23 25  1  0
 23 21  1  0
 24 23  2  0
M  END
$$$$
