PQM.pdb
     RDKit          3D

 25 25  0  0  1  0  0  0  0  0999 V2000
    8.6215  -14.9224   19.0349 N   0  0  0  0  0  0  0  0  0  0  0  0
    8.6114  -14.1641   17.8120 C   0  0  0  0  0  0  0  0  0  0  0  0
    7.7421  -12.9525   18.0414 C   0  0  0  0  0  0  0  0  0  0  0  0
    7.1500  -13.2147   19.4216 C   0  0  0  0  0  0  0  0  0  0  0  0
    8.2914  -13.9826   20.0569 C   0  0  1  0  0  0  0  0  0  0  0  0
    7.9316  -14.6002   21.3450 C   0  0  0  0  0  0  0  0  0  0  0  0
    7.5479  -13.8436   22.2654 O   0  0  0  0  0  0  0  0  0  0  0  0
    7.3667  -20.9593   22.3288 N   0  0  0  0  0  0  0  0  0  0  0  0
    6.4782  -20.1459   21.5822 C   0  0  0  0  0  0  0  0  0  0  0  0
    5.6924  -20.6977   20.7823 O   0  0  0  0  0  0  0  0  0  0  0  0
    6.4892  -18.6999   21.7507 C   0  0  0  0  0  0  0  0  0  0  0  0
    7.5468  -18.1450   22.6336 C   0  0  0  0  0  0  0  0  0  0  0  0
    7.6058  -16.6725   22.7829 C   0  0  2  0  0  0  0  0  0  0  0  0
    8.0123  -16.0017   21.5490 N   0  0  0  0  0  0  0  0  0  0  0  0
    8.4058  -16.2008   23.9346 C   0  0  0  0  0  0  0  0  0  0  0  0
    9.6394  -16.0718   23.7958 O   0  0  0  0  0  0  0  0  0  0  0  0
    6.5794  -10.3099   25.8059 C   0  0  0  0  0  0  0  0  0  0  0  0
    6.8302  -11.7445   26.8903 S   0  0  0  0  0  0  0  0  0  0  0  0
    7.8048  -13.0286   26.0382 C   0  0  0  0  0  0  0  0  0  0  0  0
    7.9930  -14.2136   26.9480 C   0  0  0  0  0  0  0  0  0  0  0  0
    8.7034  -15.3457   26.2455 C   0  0  2  0  0  0  0  0  0  0  0  0
    7.8246  -15.8896   25.1915 N   0  0  0  0  0  0  0  0  0  0  0  0
    8.9771  -16.4558   27.1748 C   0  0  0  0  0  0  0  0  0  0  0  0
    8.3680  -17.5733   27.1596 O   0  0  0  0  0  0  0  0  0  0  0  0
    9.9768  -16.2894   28.1536 O   0  0  0  0  0  0  0  0  0  0  0  0
  1  5  1  0
  2  1  1  0
  2  3  1  0
  3  4  1  0
  5  6  1  1
  5  4  1  0
  6  7  2  0
  8  9  1  0
  9 11  1  0
 10  9  2  0
 11 12  1  0
 13 12  1  6
 14  6  1  0
 14 13  1  0
 15 16  2  0
 15 13  1  0
 18 17  1  0
 19 20  1  0
 19 18  1  0
 21 20  1  1
 21 22  1  0
 22 15  1  0
 23 25  1  0
 23 21  1  0
 24 23  2  0
M  END
$$$$
