PQM.pdb
     RDKit          3D

 25 25  0  0  1  0  0  0  0  0999 V2000
    7.7802  -14.7086   19.1155 N   0  0  0  0  0  0  0  0  0  0  0  0
    7.6031  -13.5835   18.2360 C   0  0  0  0  0  0  0  0  0  0  0  0
    7.8510  -12.3356   19.0467 C   0  0  0  0  0  0  0  0  0  0  0  0
    8.0011  -12.8751   20.4647 C   0  0  0  0  0  0  0  0  0  0  0  0
    8.6151  -14.2284   20.1686 C   0  0  1  0  0  0  0  0  0  0  0  0
    8.6655  -15.1144   21.3444 C   0  0  0  0  0  0  0  0  0  0  0  0
    7.5801  -15.4261   21.8844 O   0  0  0  0  0  0  0  0  0  0  0  0
   12.3281  -20.0138   22.1318 N   0  0  0  0  0  0  0  0  0  0  0  0
   11.2110  -19.7163   21.3119 C   0  0  0  0  0  0  0  0  0  0  0  0
   10.9464  -20.4833   20.3614 O   0  0  0  0  0  0  0  0  0  0  0  0
   10.3963  -18.5399   21.5797 C   0  0  0  0  0  0  0  0  0  0  0  0
   10.8081  -17.6986   22.7324 C   0  0  0  0  0  0  0  0  0  0  0  0
   10.0003  -16.4898   23.0161 C   0  0  2  0  0  0  0  0  0  0  0  0
    9.8939  -15.6044   21.8574 N   0  0  0  0  0  0  0  0  0  0  0  0
   10.4139  -15.7408   24.2231 C   0  0  0  0  0  0  0  0  0  0  0  0
   11.3969  -14.9755   24.1470 O   0  0  0  0  0  0  0  0  0  0  0  0
    5.3036  -12.8612   27.1797 C   0  0  0  0  0  0  0  0  0  0  0  0
    7.0959  -12.5707   27.1971 S   0  0  0  0  0  0  0  0  0  0  0  0
    7.9983  -14.1145   26.8408 C   0  0  0  0  0  0  0  0  0  0  0  0
    9.4787  -13.8425   26.8018 C   0  0  0  0  0  0  0  0  0  0  0  0
   10.2724  -15.1141   26.6204 C   0  0  2  0  0  0  0  0  0  0  0  0
    9.7362  -15.8594   25.4645 N   0  0  0  0  0  0  0  0  0  0  0  0
   10.1291  -15.9983   27.7902 C   0  0  0  0  0  0  0  0  0  0  0  0
   10.4545  -15.6777   28.9782 O   0  0  0  0  0  0  0  0  0  0  0  0
    9.5980  -17.2897   27.6026 O   0  0  0  0  0  0  0  0  0  0  0  0
  1  5  1  0
  2  1  1  0
  2  3  1  0
  3  4  1  0
  5  6  1  1
  5  4  1  0
  6  7  2  0
  8  9  1  0
  9 11  1  0
 10  9  2  0
 11 12  1  0
 13 12  1  6
 14  6  1  0
 14 13  1  0
 15 16  2  0
 15 13  1  0
 18 17  1  0
 19 20  1  0
 19 18  1  0
 21 20  1  1
 21 22  1  0
 22 15  1  0
 23 25  1  0
 23 21  1  0
 24 23  2  0
M  END
$$$$
