PQM.pdb
     RDKit          3D

 25 25  0  0  1  0  0  0  0  0999 V2000
    8.0110  -14.9545   18.9676 N   0  0  0  0  0  0  0  0  0  0  0  0
    8.2447  -13.9485   17.9655 C   0  0  0  0  0  0  0  0  0  0  0  0
    8.2152  -12.6085   18.6582 C   0  0  0  0  0  0  0  0  0  0  0  0
    7.7744  -12.9663   20.0731 C   0  0  0  0  0  0  0  0  0  0  0  0
    8.3905  -14.3448   20.2008 C   0  0  1  0  0  0  0  0  0  0  0  0
    7.9360  -15.0769   21.3957 C   0  0  0  0  0  0  0  0  0  0  0  0
    6.8223  -14.7695   21.8771 O   0  0  0  0  0  0  0  0  0  0  0  0
    5.8804  -19.3845   23.7026 N   0  0  0  0  0  0  0  0  0  0  0  0
    6.8434  -19.2233   24.7298 C   0  0  0  0  0  0  0  0  0  0  0  0
    6.4609  -19.2629   25.9189 O   0  0  0  0  0  0  0  0  0  0  0  0
    8.2453  -19.0163   24.3961 C   0  0  0  0  0  0  0  0  0  0  0  0
    8.5234  -18.2338   23.1647 C   0  0  0  0  0  0  0  0  0  0  0  0
    8.3842  -16.7614   23.2476 C   0  0  2  0  0  0  0  0  0  0  0  0
    8.7229  -16.0966   21.9901 N   0  0  0  0  0  0  0  0  0  0  0  0
    9.0920  -16.1382   24.3875 C   0  0  0  0  0  0  0  0  0  0  0  0
   10.3170  -15.9210   24.2873 O   0  0  0  0  0  0  0  0  0  0  0  0
    5.3848  -12.2119   26.6206 C   0  0  0  0  0  0  0  0  0  0  0  0
    7.0534  -11.4978   26.6725 S   0  0  0  0  0  0  0  0  0  0  0  0
    8.2912  -12.7225   26.1318 C   0  0  0  0  0  0  0  0  0  0  0  0
    8.3280  -13.8731   27.1023 C   0  0  0  0  0  0  0  0  0  0  0  0
    9.1906  -15.0025   26.5922 C   0  0  2  0  0  0  0  0  0  0  0  0
    8.4317  -15.7779   25.5912 N   0  0  0  0  0  0  0  0  0  0  0  0
    9.5299  -15.9401   27.6769 C   0  0  0  0  0  0  0  0  0  0  0  0
   10.2521  -15.6453   28.6827 O   0  0  0  0  0  0  0  0  0  0  0  0
    9.0313  -17.2564   27.6157 O   0  0  0  0  0  0  0  0  0  0  0  0
  1  5  1  0
  2  1  1  0
  2  3  1  0
  3  4  1  0
  5  6  1  1
  5  4  1  0
  6  7  2  0
  8  9  1  0
  9 11  1  0
 10  9  2  0
 11 12  1  0
 13 12  1  6
 14  6  1  0
 14 13  1  0
 15 16  2  0
 15 13  1  0
 18 17  1  0
 19 20  1  0
 19 18  1  0
 21 20  1  1
 21 22  1  0
 22 15  1  0
 23 25  1  0
 23 21  1  0
 24 23  2  0
M  END
$$$$
