PQM.pdb
     RDKit          3D

 25 25  0  0  1  0  0  0  0  0999 V2000
    9.1845  -14.7026   18.5113 N   0  0  0  0  0  0  0  0  0  0  0  0
    9.1480  -13.8650   17.3417 C   0  0  0  0  0  0  0  0  0  0  0  0
    8.0555  -12.8460   17.5524 C   0  0  0  0  0  0  0  0  0  0  0  0
    7.3977  -13.3146   18.8455 C   0  0  0  0  0  0  0  0  0  0  0  0
    8.5971  -13.9177   19.5483 C   0  0  1  0  0  0  0  0  0  0  0  0
    8.2398  -14.6870   20.7526 C   0  0  0  0  0  0  0  0  0  0  0  0
    7.5630  -14.1086   21.6324 O   0  0  0  0  0  0  0  0  0  0  0  0
    5.8533  -19.6789   22.3572 N   0  0  0  0  0  0  0  0  0  0  0  0
    7.0943  -20.0840   21.8056 C   0  0  0  0  0  0  0  0  0  0  0  0
    7.4404  -21.2788   21.9266 O   0  0  0  0  0  0  0  0  0  0  0  0
    7.9403  -19.1211   21.1152 C   0  0  0  0  0  0  0  0  0  0  0  0
    8.7778  -18.2430   21.9717 C   0  0  0  0  0  0  0  0  0  0  0  0
    8.3562  -16.8305   22.1166 C   0  0  2  0  0  0  0  0  0  0  0  0
    8.6421  -16.0368   20.9224 N   0  0  0  0  0  0  0  0  0  0  0  0
    8.8580  -16.1589   23.3356 C   0  0  0  0  0  0  0  0  0  0  0  0
   10.0533  -15.8018   23.3754 O   0  0  0  0  0  0  0  0  0  0  0  0
    5.4281  -12.0647   26.8834 C   0  0  0  0  0  0  0  0  0  0  0  0
    7.1239  -11.8826   27.5062 S   0  0  0  0  0  0  0  0  0  0  0  0
    8.0398  -13.4501   27.3372 C   0  0  0  0  0  0  0  0  0  0  0  0
    7.5437  -14.2033   26.1314 C   0  0  0  0  0  0  0  0  0  0  0  0
    8.6036  -15.1252   25.5777 C   0  0  2  0  0  0  0  0  0  0  0  0
    8.0326  -15.9053   24.4621 N   0  0  0  0  0  0  0  0  0  0  0  0
    9.0367  -16.1024   26.5918 C   0  0  0  0  0  0  0  0  0  0  0  0
    8.6296  -17.3070   26.6499 O   0  0  0  0  0  0  0  0  0  0  0  0
    9.9635  -15.6961   27.5721 O   0  0  0  0  0  0  0  0  0  0  0  0
  1  5  1  0
  2  1  1  0
  2  3  1  0
  3  4  1  0
  5  6  1  1
  5  4  1  0
  6  7  2  0
  8  9  1  0
  9 11  1  0
 10  9  2  0
 11 12  1  0
 13 12  1  6
 14  6  1  0
 14 13  1  0
 15 16  2  0
 15 13  1  0
 18 17  1  0
 19 20  1  0
 19 18  1  0
 21 20  1  1
 21 22  1  0
 22 15  1  0
 23 25  1  0
 23 21  1  0
 24 23  2  0
M  END
$$$$
