PQM.pdb
     RDKit          3D

 25 25  0  0  1  0  0  0  0  0999 V2000
    8.4358  -15.3082   18.4369 N   0  0  0  0  0  0  0  0  0  0  0  0
    8.5845  -14.5737   17.2084 C   0  0  0  0  0  0  0  0  0  0  0  0
    8.0941  -13.1696   17.4619 C   0  0  0  0  0  0  0  0  0  0  0  0
    7.5108  -13.2613   18.8675 C   0  0  0  0  0  0  0  0  0  0  0  0
    8.4212  -14.3162   19.4628 C   0  0  1  0  0  0  0  0  0  0  0  0
    7.9589  -14.8133   20.7701 C   0  0  0  0  0  0  0  0  0  0  0  0
    7.9525  -14.0087   21.7289 O   0  0  0  0  0  0  0  0  0  0  0  0
    7.3217  -19.0934   25.4538 N   0  0  0  0  0  0  0  0  0  0  0  0
    7.0543  -19.4779   24.1162 C   0  0  0  0  0  0  0  0  0  0  0  0
    7.6812  -20.4467   23.6363 O   0  0  0  0  0  0  0  0  0  0  0  0
    6.0691  -18.7529   23.3268 C   0  0  0  0  0  0  0  0  0  0  0  0
    6.5671  -18.0894   22.0948 C   0  0  0  0  0  0  0  0  0  0  0  0
    7.0479  -16.6940   22.2198 C   0  0  2  0  0  0  0  0  0  0  0  0
    7.5331  -16.1544   20.9504 N   0  0  0  0  0  0  0  0  0  0  0  0
    8.0317  -16.4752   23.3028 C   0  0  0  0  0  0  0  0  0  0  0  0
    9.2420  -16.3975   23.0077 O   0  0  0  0  0  0  0  0  0  0  0  0
    6.8568  -10.7727   28.3227 C   0  0  0  0  0  0  0  0  0  0  0  0
    6.2453  -12.1718   27.3401 S   0  0  0  0  0  0  0  0  0  0  0  0
    7.6342  -13.1937   26.7477 C   0  0  0  0  0  0  0  0  0  0  0  0
    7.1081  -14.3503   25.9397 C   0  0  0  0  0  0  0  0  0  0  0  0
    8.2262  -15.2360   25.4445 C   0  0  2  0  0  0  0  0  0  0  0  0
    7.6525  -16.3505   24.6649 N   0  0  0  0  0  0  0  0  0  0  0  0
    8.9557  -15.8458   26.5700 C   0  0  0  0  0  0  0  0  0  0  0  0
    8.7456  -17.0212   27.0108 O   0  0  0  0  0  0  0  0  0  0  0  0
    9.9573  -15.0938   27.2154 O   0  0  0  0  0  0  0  0  0  0  0  0
  1  5  1  0
  2  1  1  0
  2  3  1  0
  3  4  1  0
  5  6  1  1
  5  4  1  0
  6  7  2  0
  8  9  1  0
  9 11  1  0
 10  9  2  0
 11 12  1  0
 13 12  1  6
 14  6  1  0
 14 13  1  0
 15 16  2  0
 15 13  1  0
 18 17  1  0
 19 20  1  0
 19 18  1  0
 21 20  1  1
 21 22  1  0
 22 15  1  0
 23 25  1  0
 23 21  1  0
 24 23  2  0
M  END
$$$$
