PQM.pdb
     RDKit          3D

 25 25  0  0  1  0  0  0  0  0999 V2000
    7.6137  -19.4723   20.1754 N   0  0  0  0  0  0  0  0  0  0  0  0
    7.3866  -19.9401   18.8337 C   0  0  0  0  0  0  0  0  0  0  0  0
    6.0022  -19.4957   18.4309 C   0  0  0  0  0  0  0  0  0  0  0  0
    5.4441  -18.9081   19.7222 C   0  0  0  0  0  0  0  0  0  0  0  0
    6.7194  -18.3727   20.3413 C   0  0  1  0  0  0  0  0  0  0  0  0
    6.5513  -17.9431   21.7403 C   0  0  0  0  0  0  0  0  0  0  0  0
    5.8299  -16.9438   21.9589 O   0  0  0  0  0  0  0  0  0  0  0  0
    7.5231  -21.6814   26.8535 N   0  0  0  0  0  0  0  0  0  0  0  0
    7.3340  -20.3994   27.4274 C   0  0  0  0  0  0  0  0  0  0  0  0
    7.3279  -20.2974   28.6729 O   0  0  0  0  0  0  0  0  0  0  0  0
    7.1512  -19.2332   26.5753 C   0  0  0  0  0  0  0  0  0  0  0  0
    7.2242  -19.4666   25.1103 C   0  0  0  0  0  0  0  0  0  0  0  0
    6.9657  -18.3093   24.2227 C   0  0  2  0  0  0  0  0  0  0  0  0
    7.1791  -18.6285   22.8119 N   0  0  0  0  0  0  0  0  0  0  0  0
    7.6781  -17.0694   24.6024 C   0  0  0  0  0  0  0  0  0  0  0  0
    8.8740  -16.9386   24.2700 O   0  0  0  0  0  0  0  0  0  0  0  0
    5.7604  -10.4559   25.4644 C   0  0  0  0  0  0  0  0  0  0  0  0
    6.4879  -11.1657   26.9690 S   0  0  0  0  0  0  0  0  0  0  0  0
    7.6555  -12.5011   26.5472 C   0  0  0  0  0  0  0  0  0  0  0  0
    6.8971  -13.7045   26.0534 C   0  0  0  0  0  0  0  0  0  0  0  0
    7.8300  -14.7913   25.5755 C   0  0  2  0  0  0  0  0  0  0  0  0
    7.0542  -16.0230   25.3305 N   0  0  0  0  0  0  0  0  0  0  0  0
    8.8269  -15.1242   26.6080 C   0  0  0  0  0  0  0  0  0  0  0  0
    8.7647  -16.1455   27.3650 O   0  0  0  0  0  0  0  0  0  0  0  0
    9.9311  -14.2672   26.7853 O   0  0  0  0  0  0  0  0  0  0  0  0
  1  5  1  0
  2  1  1  0
  2  3  1  0
  3  4  1  0
  5  6  1  1
  5  4  1  0
  6  7  2  0
  8  9  1  0
  9 11  1  0
 10  9  2  0
 11 12  1  0
 13 12  1  1
 14  6  1  0
 14 13  1  0
 15 16  2  0
 15 13  1  0
 18 17  1  0
 19 20  1  0
 19 18  1  0
 21 20  1  1
 21 22  1  0
 22 15  1  0
 23 25  1  0
 23 21  1  0
 24 23  2  0
M  END
$$$$
