PQM.pdb
     RDKit          3D

 25 25  0  0  1  0  0  0  0  0999 V2000
    9.1213  -14.6066   18.3878 N   0  0  0  0  0  0  0  0  0  0  0  0
    8.9507  -13.7493   17.2448 C   0  0  0  0  0  0  0  0  0  0  0  0
    7.8542  -12.7681   17.5784 C   0  0  0  0  0  0  0  0  0  0  0  0
    7.3350  -13.2801   18.9172 C   0  0  0  0  0  0  0  0  0  0  0  0
    8.6122  -13.8591   19.4916 C   0  0  1  0  0  0  0  0  0  0  0  0
    8.3922  -14.6609   20.7076 C   0  0  0  0  0  0  0  0  0  0  0  0
    7.7450  -14.1355   21.6413 O   0  0  0  0  0  0  0  0  0  0  0  0
    9.8075  -20.9468   21.9427 N   0  0  0  0  0  0  0  0  0  0  0  0
    9.1798  -20.4015   20.7950 C   0  0  0  0  0  0  0  0  0  0  0  0
    8.8217  -21.1785   19.8839 O   0  0  0  0  0  0  0  0  0  0  0  0
    8.9621  -18.9659   20.6894 C   0  0  0  0  0  0  0  0  0  0  0  0
    9.3406  -18.1509   21.8720 C   0  0  0  0  0  0  0  0  0  0  0  0
    8.7047  -16.8206   22.0139 C   0  0  2  0  0  0  0  0  0  0  0  0
    8.8908  -15.9834   20.8297 N   0  0  0  0  0  0  0  0  0  0  0  0
    9.0721  -16.0896   23.2466 C   0  0  0  0  0  0  0  0  0  0  0  0
   10.2535  -15.7147   23.3925 O   0  0  0  0  0  0  0  0  0  0  0  0
    5.4731  -11.6925   26.3885 C   0  0  0  0  0  0  0  0  0  0  0  0
    7.1878  -11.6657   26.9851 S   0  0  0  0  0  0  0  0  0  0  0  0
    7.8359  -13.3623   27.1473 C   0  0  0  0  0  0  0  0  0  0  0  0
    7.4359  -14.1780   25.9465 C   0  0  0  0  0  0  0  0  0  0  0  0
    8.5903  -14.9987   25.4232 C   0  0  2  0  0  0  0  0  0  0  0  0
    8.1327  -15.7986   24.2700 N   0  0  0  0  0  0  0  0  0  0  0  0
    9.0592  -15.9589   26.4376 C   0  0  0  0  0  0  0  0  0  0  0  0
    8.7619  -17.1964   26.4482 O   0  0  0  0  0  0  0  0  0  0  0  0
    9.8938  -15.4961   27.4741 O   0  0  0  0  0  0  0  0  0  0  0  0
  1  5  1  0
  2  1  1  0
  2  3  1  0
  3  4  1  0
  5  6  1  1
  5  4  1  0
  6  7  2  0
  8  9  1  0
  9 11  1  0
 10  9  2  0
 11 12  1  0
 13 12  1  6
 14  6  1  0
 14 13  1  0
 15 16  2  0
 15 13  1  0
 18 17  1  0
 19 20  1  0
 19 18  1  0
 21 20  1  1
 21 22  1  0
 22 15  1  0
 23 25  1  0
 23 21  1  0
 24 23  2  0
M  END
$$$$
