PQM.pdb
     RDKit          3D

 25 25  0  0  1  0  0  0  0  0999 V2000
    8.5657  -15.2851   18.9229 N   0  0  0  0  0  0  0  0  0  0  0  0
    8.7026  -14.5840   17.6738 C   0  0  0  0  0  0  0  0  0  0  0  0
    7.9249  -13.2967   17.7931 C   0  0  0  0  0  0  0  0  0  0  0  0
    7.2204  -13.4479   19.1366 C   0  0  0  0  0  0  0  0  0  0  0  0
    8.2473  -14.2768   19.8813 C   0  0  1  0  0  0  0  0  0  0  0  0
    7.7499  -14.8048   21.1635 C   0  0  0  0  0  0  0  0  0  0  0  0
    7.4937  -13.9817   22.0710 O   0  0  0  0  0  0  0  0  0  0  0  0
    6.6158  -21.0605   24.0638 N   0  0  0  0  0  0  0  0  0  0  0  0
    5.6579  -20.2513   23.4035 C   0  0  0  0  0  0  0  0  0  0  0  0
    4.7052  -20.8101   22.8186 O   0  0  0  0  0  0  0  0  0  0  0  0
    5.7903  -18.8016   23.4120 C   0  0  0  0  0  0  0  0  0  0  0  0
    6.8365  -18.2278   22.5274 C   0  0  0  0  0  0  0  0  0  0  0  0
    7.0966  -16.7736   22.6350 C   0  0  2  0  0  0  0  0  0  0  0  0
    7.5633  -16.1949   21.3759 N   0  0  0  0  0  0  0  0  0  0  0  0
    7.9774  -16.3860   23.7587 C   0  0  0  0  0  0  0  0  0  0  0  0
    9.2138  -16.4236   23.5927 O   0  0  0  0  0  0  0  0  0  0  0  0
    6.5204  -10.8434   26.2393 C   0  0  0  0  0  0  0  0  0  0  0  0
    7.2974  -11.5778   27.7068 S   0  0  0  0  0  0  0  0  0  0  0  0
    8.2952  -13.0317   27.2430 C   0  0  0  0  0  0  0  0  0  0  0  0
    7.5313  -13.8834   26.2642 C   0  0  0  0  0  0  0  0  0  0  0  0
    8.3205  -15.1043   25.8562 C   0  0  2  0  0  0  0  0  0  0  0  0
    7.4705  -15.9732   25.0185 N   0  0  0  0  0  0  0  0  0  0  0  0
    8.7034  -15.9040   27.0330 C   0  0  0  0  0  0  0  0  0  0  0  0
    8.1250  -16.9800   27.3904 O   0  0  0  0  0  0  0  0  0  0  0  0
    9.7797  -15.4654   27.8293 O   0  0  0  0  0  0  0  0  0  0  0  0
  1  5  1  0
  2  1  1  0
  2  3  1  0
  3  4  1  0
  5  6  1  1
  5  4  1  0
  6  7  2  0
  8  9  1  0
  9 11  1  0
 10  9  2  0
 11 12  1  0
 13 12  1  6
 14  6  1  0
 14 13  1  0
 15 16  2  0
 15 13  1  0
 18 17  1  0
 19 20  1  0
 19 18  1  0
 21 20  1  1
 21 22  1  0
 22 15  1  0
 23 25  1  0
 23 21  1  0
 24 23  2  0
M  END
$$$$
