PQM.pdb
     RDKit          3D

 25 25  0  0  1  0  0  0  0  0999 V2000
    8.9985  -14.3574   18.7191 N   0  0  0  0  0  0  0  0  0  0  0  0
    8.7836  -13.4829   17.5968 C   0  0  0  0  0  0  0  0  0  0  0  0
    7.5924  -12.6165   17.9234 C   0  0  0  0  0  0  0  0  0  0  0  0
    7.0832  -13.2162   19.2293 C   0  0  0  0  0  0  0  0  0  0  0  0
    8.3906  -13.6949   19.8274 C   0  0  1  0  0  0  0  0  0  0  0  0
    8.2095  -14.5520   21.0117 C   0  0  0  0  0  0  0  0  0  0  0  0
    7.6401  -14.0533   22.0086 O   0  0  0  0  0  0  0  0  0  0  0  0
    9.7978  -20.8247   21.4141 N   0  0  0  0  0  0  0  0  0  0  0  0
    9.4004  -20.4827   22.7308 C   0  0  0  0  0  0  0  0  0  0  0  0
    9.4097  -21.3730   23.6079 O   0  0  0  0  0  0  0  0  0  0  0  0
    8.9914  -19.1211   23.0441 C   0  0  0  0  0  0  0  0  0  0  0  0
    8.9629  -18.1618   21.9105 C   0  0  0  0  0  0  0  0  0  0  0  0
    8.5967  -16.7591   22.2146 C   0  0  2  0  0  0  0  0  0  0  0  0
    8.6596  -15.8970   21.0353 N   0  0  0  0  0  0  0  0  0  0  0  0
    9.3319  -16.1621   23.3511 C   0  0  0  0  0  0  0  0  0  0  0  0
   10.0374  -15.1531   23.1460 O   0  0  0  0  0  0  0  0  0  0  0  0
    6.4164  -11.8913   25.4044 C   0  0  0  0  0  0  0  0  0  0  0  0
    7.8656  -12.2764   26.4283 S   0  0  0  0  0  0  0  0  0  0  0  0
    7.8438  -14.0275   26.9360 C   0  0  0  0  0  0  0  0  0  0  0  0
    7.9916  -14.9113   25.7259 C   0  0  0  0  0  0  0  0  0  0  0  0
    9.2496  -15.7433   25.7961 C   0  0  2  0  0  0  0  0  0  0  0  0
    9.2665  -16.6927   24.6659 N   0  0  0  0  0  0  0  0  0  0  0  0
    9.2781  -16.5561   27.0247 C   0  0  0  0  0  0  0  0  0  0  0  0
    8.9208  -17.7760   27.0883 O   0  0  0  0  0  0  0  0  0  0  0  0
    9.7280  -15.9617   28.2202 O   0  0  0  0  0  0  0  0  0  0  0  0
  1  5  1  0
  2  1  1  0
  2  3  1  0
  3  4  1  0
  5  6  1  1
  5  4  1  0
  6  7  2  0
  8  9  1  0
  9 11  1  0
 10  9  2  0
 11 12  1  0
 13 12  1  6
 14  6  1  0
 14 13  1  0
 15 16  2  0
 15 13  1  0
 18 17  1  0
 19 20  1  0
 19 18  1  0
 21 20  1  1
 21 22  1  0
 22 15  1  0
 23 25  1  0
 23 21  1  0
 24 23  2  0
M  END
$$$$
