GRE.pdb
     RDKit          3D

 25 24  0  0  1  0  0  0  0  0999 V2000
    5.6823  -20.8377   24.5169 N   0  0  0  0  0  0  0  0  0  0  0  0
    5.9677  -19.4518   24.8267 C   0  0  0  0  0  0  0  0  0  0  0  0
    6.7342  -18.8437   23.6981 C   0  0  0  0  0  0  0  0  0  0  0  0
    7.0368  -19.4900   22.6562 O   0  0  0  0  0  0  0  0  0  0  0  0
    7.7609  -14.6539   18.4274 N   0  0  0  0  0  0  0  0  0  0  0  0
    8.3425  -13.3701   18.6584 C   0  0  0  0  0  0  0  0  0  0  0  0
    8.9266  -12.7840   17.6466 N   0  0  0  0  0  0  0  0  0  0  0  0
    8.2826  -12.7619   19.9408 N   0  0  0  0  0  0  0  0  0  0  0  0
    7.5694  -13.4164   21.0006 C   0  0  0  0  0  0  0  0  0  0  0  0
    8.0878  -14.8111   21.2654 C   0  0  0  0  0  0  0  0  0  0  0  0
    7.3809  -15.4526   22.4412 C   0  0  0  0  0  0  0  0  0  0  0  0
    7.9098  -16.8475   22.7073 C   0  0  2  0  0  0  0  0  0  0  0  0
    7.1569  -17.4898   23.7605 N   0  0  0  0  0  0  0  0  0  0  0  0
    9.3581  -16.7107   23.0258 C   0  0  0  0  0  0  0  0  0  0  0  0
    9.6681  -15.9558   23.9773 O   0  0  0  0  0  0  0  0  0  0  0  0
    9.3784  -11.8659   17.7013 N   0  0  0  0  0  0  0  0  0  0  0  0
   10.3858  -17.3756   22.3242 C   0  0  1  0  0  0  0  0  0  0  0  0
   11.7951  -17.0830   22.4059 C   0  0  0  0  0  0  0  0  0  0  0  0
   12.2875  -16.1214   21.3626 C   0  0  0  0  0  0  0  0  0  0  0  0
   13.7375  -15.7803   21.5221 C   0  0  0  0  0  0  0  0  0  0  0  0
   14.2397  -14.8896   20.4559 O   0  0  0  0  0  0  0  0  0  0  0  0
   13.9287  -13.6804   20.3290 C   0  0  0  0  0  0  0  0  0  0  0  0
   12.2398  -16.6738   23.7679 O   0  0  0  0  0  0  0  0  0  0  0  0
   11.4812  -15.7980   24.5271 O   0  0  0  0  0  0  0  0  0  0  0  0
   15.1282  -15.4358   19.5181 O   0  0  0  0  0  0  0  0  0  0  0  0
  1  2  1  0
  3  2  1  0
  3 13  1  0
  4  3  2  0
  5  6  1  0
  6  7  2  0
  6  8  1  0
  8  9  1  0
  9 10  1  0
 10 11  1  0
 12 11  1  1
 12 13  1  0
 12 14  1  0
 14 15  2  0
 14 16  1  0
 16 17  1  0
 17 22  1  0
 18 19  1  0
 17 18  1  6
 20 19  1  0
 21 20  2  0
 22 25  2  0
 22 23  1  0
 24 20  1  0
M  END
$$$$
