GRE.pdb
     RDKit          3D

 25 24  0  0  1  0  0  0  0  0999 V2000
    5.1811  -20.9902   22.0613 N   0  0  0  0  0  0  0  0  0  0  0  0
    5.1806  -19.8737   22.9840 C   0  0  0  0  0  0  0  0  0  0  0  0
    6.3998  -19.0428   22.7509 C   0  0  0  0  0  0  0  0  0  0  0  0
    7.3187  -19.3924   21.9583 O   0  0  0  0  0  0  0  0  0  0  0  0
    9.0069  -13.9665   19.0173 N   0  0  0  0  0  0  0  0  0  0  0  0
    8.2744  -12.8721   19.5699 C   0  0  0  0  0  0  0  0  0  0  0  0
    8.6655  -11.6659   19.2527 N   0  0  0  0  0  0  0  0  0  0  0  0
    7.1651  -13.0958   20.4287 N   0  0  0  0  0  0  0  0  0  0  0  0
    6.9486  -14.4046   20.9767 C   0  0  0  0  0  0  0  0  0  0  0  0
    7.9485  -14.7470   22.0569 C   0  0  0  0  0  0  0  0  0  0  0  0
    7.2950  -15.4898   23.2037 C   0  0  0  0  0  0  0  0  0  0  0  0
    7.7136  -16.9460   23.2261 C   0  0  2  0  0  0  0  0  0  0  0  0
    6.5696  -17.8060   23.4269 N   0  0  0  0  0  0  0  0  0  0  0  0
    8.7434  -17.0868   24.2927 C   0  0  0  0  0  0  0  0  0  0  0  0
    8.3469  -17.0558   25.4815 O   0  0  0  0  0  0  0  0  0  0  0  0
    8.2638  -10.8117   19.6516 N   0  0  0  0  0  0  0  0  0  0  0  0
   10.1218  -17.2510   24.0408 C   0  0  2  0  0  0  0  0  0  0  0  0
   11.1667  -17.2876   25.0334 C   0  0  0  0  0  0  0  0  0  0  0  0
   12.4588  -16.6611   24.5930 C   0  0  0  0  0  0  0  0  0  0  0  0
   13.0680  -17.3509   23.4109 C   0  0  0  0  0  0  0  0  0  0  0  0
   13.8519  -16.4386   22.5535 O   0  0  0  0  0  0  0  0  0  0  0  0
   14.8159  -15.7386   22.9479 C   0  0  0  0  0  0  0  0  0  0  0  0
   10.7422  -16.7675   26.3636 O   0  0  0  0  0  0  0  0  0  0  0  0
   10.9086  -17.5299   27.5080 O   0  0  0  0  0  0  0  0  0  0  0  0
   13.4919  -16.3489   21.2008 O   0  0  0  0  0  0  0  0  0  0  0  0
  1  2  1  0
  3  2  1  0
  3 13  1  0
  4  3  2  0
  5  6  1  0
  6  7  2  0
  6  8  1  0
  8  9  1  0
  9 10  1  0
 10 11  1  0
 12 11  1  1
 12 13  1  0
 12 14  1  0
 14 15  2  0
 14 16  1  0
 16 17  1  0
 17 22  1  0
 18 19  1  0
 17 18  1  6
 20 19  1  0
 21 20  2  0
 22 25  2  0
 22 23  1  0
 24 20  1  0
M  END
$$$$
