GRE.pdb
     RDKit          3D

 25 24  0  0  1  0  0  0  0  0999 V2000
   11.3444  -16.7995   17.7713 N   0  0  0  0  0  0  0  0  0  0  0  0
   10.4881  -17.4428   18.7465 C   0  0  0  0  0  0  0  0  0  0  0  0
   10.5128  -16.6570   20.0166 C   0  0  0  0  0  0  0  0  0  0  0  0
   11.5272  -16.0056   20.3928 O   0  0  0  0  0  0  0  0  0  0  0  0
    7.6802  -11.8635   18.5532 N   0  0  0  0  0  0  0  0  0  0  0  0
    7.6365  -13.2751   18.7654 C   0  0  0  0  0  0  0  0  0  0  0  0
    7.9778  -14.0441   17.7650 N   0  0  0  0  0  0  0  0  0  0  0  0
    7.2374  -13.8128   20.0182 N   0  0  0  0  0  0  0  0  0  0  0  0
    8.1386  -13.7496   21.1335 C   0  0  0  0  0  0  0  0  0  0  0  0
    7.5264  -14.3060   22.3983 C   0  0  0  0  0  0  0  0  0  0  0  0
    7.9552  -15.7383   22.6397 C   0  0  0  0  0  0  0  0  0  0  0  0
    9.3719  -15.9775   22.1578 C   0  0  2  0  0  0  0  0  0  0  0  0
    9.3723  -16.6152   20.8609 N   0  0  0  0  0  0  0  0  0  0  0  0
   10.0576  -16.7847   23.2048 C   0  0  0  0  0  0  0  0  0  0  0  0
    9.5294  -17.8749   23.5271 O   0  0  0  0  0  0  0  0  0  0  0  0
    7.9825  -15.0679   17.8072 N   0  0  0  0  0  0  0  0  0  0  0  0
   11.2528  -16.3941   23.8445 C   0  0  1  0  0  0  0  0  0  0  0  0
   11.9929  -17.1717   24.8068 C   0  0  0  0  0  0  0  0  0  0  0  0
   13.4421  -16.7945   24.9220 C   0  0  0  0  0  0  0  0  0  0  0  0
   14.1189  -16.6669   23.5916 C   0  0  0  0  0  0  0  0  0  0  0  0
   15.5351  -16.2617   23.7030 O   0  0  0  0  0  0  0  0  0  0  0  0
   16.1188  -15.9917   24.7806 C   0  0  0  0  0  0  0  0  0  0  0  0
   11.3445  -17.2333   26.1470 O   0  0  0  0  0  0  0  0  0  0  0  0
   11.8427  -18.0640   27.1371 O   0  0  0  0  0  0  0  0  0  0  0  0
   16.2803  -16.1727   22.5181 O   0  0  0  0  0  0  0  0  0  0  0  0
  1  2  1  0
  3  2  1  0
  3 13  1  0
  4  3  2  0
  5  6  1  0
  6  7  2  0
  6  8  1  0
  8  9  1  0
  9 10  1  0
 10 11  1  0
 12 11  1  1
 12 13  1  0
 12 14  1  0
 14 15  2  0
 14 16  1  0
 16 17  1  0
 17 22  1  0
 18 19  1  0
 17 18  1  6
 20 19  1  0
 21 20  2  0
 22 25  2  0
 22 23  1  0
 24 20  1  0
M  END
$$$$
