GRE.pdb
     RDKit          3D

 25 24  0  0  1  0  0  0  0  0999 V2000
    8.1691  -22.2559   21.4013 N   0  0  0  0  0  0  0  0  0  0  0  0
    7.4229  -21.1265   21.9166 C   0  0  0  0  0  0  0  0  0  0  0  0
    8.2329  -19.8831   21.7461 C   0  0  0  0  0  0  0  0  0  0  0  0
    9.4399  -19.9042   21.3753 O   0  0  0  0  0  0  0  0  0  0  0  0
    9.0509  -13.2651   18.2160 N   0  0  0  0  0  0  0  0  0  0  0  0
    8.3206  -12.6857   19.2979 C   0  0  0  0  0  0  0  0  0  0  0  0
    8.6505  -11.4756   19.6659 N   0  0  0  0  0  0  0  0  0  0  0  0
    7.2776  -13.4038   19.9418 N   0  0  0  0  0  0  0  0  0  0  0  0
    7.3986  -13.7278   21.3349 C   0  0  0  0  0  0  0  0  0  0  0  0
    8.3038  -14.9145   21.5716 C   0  0  0  0  0  0  0  0  0  0  0  0
    7.5089  -16.1861   21.7839 C   0  0  0  0  0  0  0  0  0  0  0  0
    8.4216  -17.3809   21.9729 C   0  0  2  0  0  0  0  0  0  0  0  0
    7.6605  -18.6091   22.0005 N   0  0  0  0  0  0  0  0  0  0  0  0
    9.1940  -17.1452   23.2243 C   0  0  0  0  0  0  0  0  0  0  0  0
    8.6657  -17.5069   24.3020 O   0  0  0  0  0  0  0  0  0  0  0  0
    8.2493  -10.9961   20.4778 N   0  0  0  0  0  0  0  0  0  0  0  0
   10.4704  -16.5453   23.2617 C   0  0  2  0  0  0  0  0  0  0  0  0
   11.6655  -17.1285   23.8185 C   0  0  0  0  0  0  0  0  0  0  0  0
   11.9464  -18.5273   23.3493 C   0  0  0  0  0  0  0  0  0  0  0  0
   12.6432  -19.3596   24.3817 C   0  0  0  0  0  0  0  0  0  0  0  0
   12.9965  -20.7076   23.8913 O   0  0  0  0  0  0  0  0  0  0  0  0
   12.2981  -21.7362   24.0618 C   0  0  0  0  0  0  0  0  0  0  0  0
   12.8701  -16.2623   23.6806 O   0  0  0  0  0  0  0  0  0  0  0  0
   13.6411  -15.9406   24.7854 O   0  0  0  0  0  0  0  0  0  0  0  0
   14.1998  -20.8467   23.1843 O   0  0  0  0  0  0  0  0  0  0  0  0
  1  2  1  0
  3  2  1  0
  3 13  1  0
  4  3  2  0
  5  6  1  0
  6  7  2  0
  6  8  1  0
  8  9  1  0
  9 10  1  0
 10 11  1  0
 12 11  1  1
 12 13  1  0
 12 14  1  0
 14 15  2  0
 14 16  1  0
 16 17  1  0
 17 22  1  0
 18 19  1  0
 17 18  1  1
 20 19  1  0
 21 20  2  0
 22 25  2  0
 22 23  1  0
 24 20  1  0
M  END
$$$$
