GRE.pdb
     RDKit          3D

 25 24  0  0  1  0  0  0  0  0999 V2000
   11.8648  -17.4880   18.2245 N   0  0  0  0  0  0  0  0  0  0  0  0
   10.7117  -17.7984   19.0442 C   0  0  0  0  0  0  0  0  0  0  0  0
   10.8170  -17.0620   20.3396 C   0  0  0  0  0  0  0  0  0  0  0  0
   11.9053  -16.9488   20.9701 O   0  0  0  0  0  0  0  0  0  0  0  0
    8.6019  -13.4953   17.6821 N   0  0  0  0  0  0  0  0  0  0  0  0
    8.1344  -12.7414   18.8013 C   0  0  0  0  0  0  0  0  0  0  0  0
    8.6692  -11.5652   18.9993 N   0  0  0  0  0  0  0  0  0  0  0  0
    7.1269  -13.2575   19.6595 N   0  0  0  0  0  0  0  0  0  0  0  0
    7.3982  -14.4294   20.4426 C   0  0  0  0  0  0  0  0  0  0  0  0
    8.0451  -14.0971   21.7674 C   0  0  0  0  0  0  0  0  0  0  0  0
    8.2928  -15.3427   22.5926 C   0  0  0  0  0  0  0  0  0  0  0  0
    9.6419  -15.9549   22.2740 C   0  0  2  0  0  0  0  0  0  0  0  0
    9.6726  -16.4520   20.9173 N   0  0  0  0  0  0  0  0  0  0  0  0
    9.8896  -17.0157   23.2895 C   0  0  0  0  0  0  0  0  0  0  0  0
    9.8836  -18.2044   22.8915 O   0  0  0  0  0  0  0  0  0  0  0  0
    8.4658  -10.9746   19.8116 N   0  0  0  0  0  0  0  0  0  0  0  0
   10.1273  -16.7586   24.6562 C   0  0  2  0  0  0  0  0  0  0  0  0
   11.1117  -17.4110   25.4831 C   0  0  0  0  0  0  0  0  0  0  0  0
   12.5082  -17.3665   24.9321 C   0  0  0  0  0  0  0  0  0  0  0  0
   12.9061  -18.6389   24.2487 C   0  0  0  0  0  0  0  0  0  0  0  0
   14.3705  -18.7983   24.1370 O   0  0  0  0  0  0  0  0  0  0  0  0
   15.2010  -18.3871   24.9832 C   0  0  0  0  0  0  0  0  0  0  0  0
   11.0800  -16.9699   26.9060 O   0  0  0  0  0  0  0  0  0  0  0  0
   11.6714  -17.7349   27.8978 O   0  0  0  0  0  0  0  0  0  0  0  0
   14.8675  -19.4571   23.0028 O   0  0  0  0  0  0  0  0  0  0  0  0
  1  2  1  0
  3  2  1  0
  3 13  1  0
  4  3  2  0
  5  6  1  0
  6  7  2  0
  6  8  1  0
  8  9  1  0
  9 10  1  0
 10 11  1  0
 12 11  1  1
 12 13  1  0
 12 14  1  0
 14 15  2  0
 14 16  1  0
 16 17  1  0
 17 22  1  0
 18 19  1  0
 17 18  1  6
 20 19  1  0
 21 20  2  0
 22 25  2  0
 22 23  1  0
 24 20  1  0
M  END
$$$$
