GRE.pdb
     RDKit          3D

 25 24  0  0  1  0  0  0  0  0999 V2000
   15.1526  -15.3074   15.7416 N   0  0  0  0  0  0  0  0  0  0  0  0
   13.8969  -15.9324   16.1032 C   0  0  0  0  0  0  0  0  0  0  0  0
   13.4545  -15.4136   17.4322 C   0  0  0  0  0  0  0  0  0  0  0  0
   14.2572  -14.9074   18.2654 O   0  0  0  0  0  0  0  0  0  0  0  0
    7.2286  -13.9825   17.8599 N   0  0  0  0  0  0  0  0  0  0  0  0
    7.5196  -13.1154   18.9567 C   0  0  0  0  0  0  0  0  0  0  0  0
    7.8350  -11.8780   18.6773 N   0  0  0  0  0  0  0  0  0  0  0  0
    7.4650  -13.5880   20.2952 N   0  0  0  0  0  0  0  0  0  0  0  0
    8.0807  -14.8412   20.6276 C   0  0  0  0  0  0  0  0  0  0  0  0
    9.5890  -14.7757   20.5587 C   0  0  0  0  0  0  0  0  0  0  0  0
   10.1014  -15.1904   19.1951 C   0  0  0  0  0  0  0  0  0  0  0  0
   11.6094  -15.0667   19.1127 C   0  0  2  0  0  0  0  0  0  0  0  0
   12.0875  -15.4735   17.8109 N   0  0  0  0  0  0  0  0  0  0  0  0
   12.1747  -15.8829   20.2227 C   0  0  0  0  0  0  0  0  0  0  0  0
   11.8739  -17.0995   20.2520 O   0  0  0  0  0  0  0  0  0  0  0  0
    8.0595  -11.1719   19.3852 N   0  0  0  0  0  0  0  0  0  0  0  0
   13.0188  -15.3679   21.2291 C   0  0  2  0  0  0  0  0  0  0  0  0
   13.5971  -16.1175   22.3164 C   0  0  0  0  0  0  0  0  0  0  0  0
   15.0900  -15.9948   22.4255 C   0  0  0  0  0  0  0  0  0  0  0  0
   15.6277  -14.7819   21.7298 C   0  0  0  0  0  0  0  0  0  0  0  0
   17.0961  -14.6611   21.8364 O   0  0  0  0  0  0  0  0  0  0  0  0
   17.7089  -14.2699   22.8593 C   0  0  0  0  0  0  0  0  0  0  0  0
   12.9388  -15.8654   23.6292 O   0  0  0  0  0  0  0  0  0  0  0  0
   11.9460  -14.9072   23.7510 O   0  0  0  0  0  0  0  0  0  0  0  0
   17.8597  -15.0091   20.7125 O   0  0  0  0  0  0  0  0  0  0  0  0
  1  2  1  0
  3  2  1  0
  3 13  1  0
  4  3  2  0
  5  6  1  0
  6  7  2  0
  6  8  1  0
  8  9  1  0
  9 10  1  0
 10 11  1  0
 12 11  1  6
 12 13  1  0
 12 14  1  0
 14 15  2  0
 14 16  1  0
 16 17  1  0
 17 22  1  0
 18 19  1  0
 17 18  1  6
 20 19  1  0
 21 20  2  0
 22 25  2  0
 22 23  1  0
 24 20  1  0
M  END
$$$$
