GRE.pdb
     RDKit          3D

 25 24  0  0  1  0  0  0  0  0999 V2000
    8.8370  -11.9768   18.6310 N   0  0  0  0  0  0  0  0  0  0  0  0
    8.3548  -13.3405   18.5540 C   0  0  0  0  0  0  0  0  0  0  0  0
    8.5132  -13.9939   19.8879 C   0  0  0  0  0  0  0  0  0  0  0  0
    9.1848  -13.4751   20.8230 O   0  0  0  0  0  0  0  0  0  0  0  0
    2.5941  -19.5986   21.3419 N   0  0  0  0  0  0  0  0  0  0  0  0
    3.6235  -19.4334   20.3659 C   0  0  0  0  0  0  0  0  0  0  0  0
    3.6043  -20.2318   19.3311 N   0  0  0  0  0  0  0  0  0  0  0  0
    4.6241  -18.4372   20.5219 N   0  0  0  0  0  0  0  0  0  0  0  0
    4.5948  -17.5807   21.6733 C   0  0  0  0  0  0  0  0  0  0  0  0
    5.6364  -16.4880   21.6024 C   0  0  0  0  0  0  0  0  0  0  0  0
    7.0374  -17.0595   21.5362 C   0  0  0  0  0  0  0  0  0  0  0  0
    8.0735  -15.9623   21.3980 C   0  0  2  0  0  0  0  0  0  0  0  0
    7.9006  -15.2466   20.1544 N   0  0  0  0  0  0  0  0  0  0  0  0
    9.4102  -16.6079   21.5183 C   0  0  0  0  0  0  0  0  0  0  0  0
    9.7612  -17.3783   20.5938 O   0  0  0  0  0  0  0  0  0  0  0  0
    4.2744  -20.1805   18.5576 N   0  0  0  0  0  0  0  0  0  0  0  0
   10.2904  -16.4021   22.6015 C   0  0  1  0  0  0  0  0  0  0  0  0
   11.5756  -17.0302   22.7810 C   0  0  0  0  0  0  0  0  0  0  0  0
   12.5004  -16.8908   21.6058 C   0  0  0  0  0  0  0  0  0  0  0  0
   12.6425  -15.4738   21.1406 C   0  0  0  0  0  0  0  0  0  0  0  0
   13.8745  -15.2460   20.3580 O   0  0  0  0  0  0  0  0  0  0  0  0
   15.0254  -15.5917   20.7197 C   0  0  0  0  0  0  0  0  0  0  0  0
   12.2549  -16.6431   24.0494 O   0  0  0  0  0  0  0  0  0  0  0  0
   11.6837  -15.7145   24.9039 O   0  0  0  0  0  0  0  0  0  0  0  0
   13.7476  -14.5964   19.1214 O   0  0  0  0  0  0  0  0  0  0  0  0
  1  2  1  0
  3  2  1  0
  3 13  1  0
  4  3  2  0
  5  6  1  0
  6  7  2  0
  6  8  1  0
  8  9  1  0
  9 10  1  0
 10 11  1  0
 12 11  1  6
 12 13  1  0
 12 14  1  0
 14 15  2  0
 14 16  1  0
 16 17  1  0
 17 22  1  0
 18 19  1  0
 17 18  1  1
 20 19  1  0
 21 20  2  0
 22 25  2  0
 22 23  1  0
 24 20  1  0
M  END
$$$$
