GRE.pdb
     RDKit          3D

 25 24  0  0  1  0  0  0  0  0999 V2000
    9.8421  -15.2880   13.0254 N   0  0  0  0  0  0  0  0  0  0  0  0
    8.8297  -15.3942   14.0558 C   0  0  0  0  0  0  0  0  0  0  0  0
    9.3655  -14.8309   15.3313 C   0  0  0  0  0  0  0  0  0  0  0  0
   10.5982  -14.6334   15.5218 O   0  0  0  0  0  0  0  0  0  0  0  0
    9.5053  -13.9342   23.0903 N   0  0  0  0  0  0  0  0  0  0  0  0
    8.0876  -13.7673   23.0446 C   0  0  0  0  0  0  0  0  0  0  0  0
    7.3632  -14.5791   23.7690 N   0  0  0  0  0  0  0  0  0  0  0  0
    7.4974  -12.7553   22.2412 N   0  0  0  0  0  0  0  0  0  0  0  0
    7.0778  -13.0692   20.9050 C   0  0  0  0  0  0  0  0  0  0  0  0
    8.2429  -13.3933   19.9987 C   0  0  0  0  0  0  0  0  0  0  0  0
    7.7817  -13.7015   18.5894 C   0  0  0  0  0  0  0  0  0  0  0  0
    8.9505  -14.0584   17.6933 C   0  0  2  0  0  0  0  0  0  0  0  0
    8.4880  -14.4913   16.3944 N   0  0  0  0  0  0  0  0  0  0  0  0
    9.7441  -15.0977   18.4060 C   0  0  0  0  0  0  0  0  0  0  0  0
    9.2344  -16.2382   18.5106 O   0  0  0  0  0  0  0  0  0  0  0  0
    6.3399  -14.5470   23.8126 N   0  0  0  0  0  0  0  0  0  0  0  0
   11.0209  -14.8712   18.9618 C   0  0  2  0  0  0  0  0  0  0  0  0
   11.8082  -15.8298   19.6964 C   0  0  0  0  0  0  0  0  0  0  0  0
   13.2330  -15.4131   19.9248 C   0  0  0  0  0  0  0  0  0  0  0  0
   13.9090  -14.9384   18.6751 C   0  0  0  0  0  0  0  0  0  0  0  0
   15.2914  -14.4734   18.9099 O   0  0  0  0  0  0  0  0  0  0  0  0
   15.6520  -13.2714   18.9045 C   0  0  0  0  0  0  0  0  0  0  0  0
   11.1683  -16.2777   20.9653 O   0  0  0  0  0  0  0  0  0  0  0  0
   11.7132  -17.3136   21.7060 O   0  0  0  0  0  0  0  0  0  0  0  0
   16.2709  -15.4466   19.1565 O   0  0  0  0  0  0  0  0  0  0  0  0
  1  2  1  0
  3  2  1  0
  3 13  1  0
  4  3  2  0
  5  6  1  0
  6  7  2  0
  6  8  1  0
  8  9  1  0
  9 10  1  0
 10 11  1  0
 12 11  1  1
 12 13  1  0
 12 14  1  0
 14 15  2  0
 14 16  1  0
 16 17  1  0
 17 22  1  0
 18 19  1  0
 17 18  1  6
 20 19  1  0
 21 20  2  0
 22 25  2  0
 22 23  1  0
 24 20  1  0
M  END
$$$$
