GRE.pdb
     RDKit          3D

 25 24  0  0  1  0  0  0  0  0999 V2000
    4.1938  -20.8587   21.9099 N   0  0  0  0  0  0  0  0  0  0  0  0
    3.9701  -19.5947   22.5809 C   0  0  0  0  0  0  0  0  0  0  0  0
    5.2216  -18.7811   22.5266 C   0  0  0  0  0  0  0  0  0  0  0  0
    6.3719  -19.3011   22.5612 O   0  0  0  0  0  0  0  0  0  0  0  0
    8.1840  -13.1004   18.1722 N   0  0  0  0  0  0  0  0  0  0  0  0
    9.0515  -12.9643   19.2985 C   0  0  0  0  0  0  0  0  0  0  0  0
    9.7757  -11.8786   19.3716 N   0  0  0  0  0  0  0  0  0  0  0  0
    9.1169  -13.9741   20.2956 N   0  0  0  0  0  0  0  0  0  0  0  0
    7.9508  -14.7601   20.5827 C   0  0  0  0  0  0  0  0  0  0  0  0
    7.2230  -14.2778   21.8162 C   0  0  0  0  0  0  0  0  0  0  0  0
    5.9775  -15.0972   22.0825 C   0  0  0  0  0  0  0  0  0  0  0  0
    6.3272  -16.5176   22.4783 C   0  0  2  0  0  0  0  0  0  0  0  0
    5.1582  -17.3660   22.4321 N   0  0  0  0  0  0  0  0  0  0  0  0
    6.9475  -16.4526   23.8307 C   0  0  0  0  0  0  0  0  0  0  0  0
    6.2739  -15.9249   24.7468 O   0  0  0  0  0  0  0  0  0  0  0  0
   10.4565  -11.6951   20.1151 N   0  0  0  0  0  0  0  0  0  0  0  0
    8.2344  -16.9460   24.1322 C   0  0  2  0  0  0  0  0  0  0  0  0
    8.8745  -16.9121   25.4236 C   0  0  0  0  0  0  0  0  0  0  0  0
    9.1676  -18.2663   26.0031 C   0  0  0  0  0  0  0  0  0  0  0  0
    7.9960  -18.8570   26.7260 C   0  0  0  0  0  0  0  0  0  0  0  0
    8.2904  -20.1795   27.3147 O   0  0  0  0  0  0  0  0  0  0  0  0
    7.4653  -20.8782   27.9517 C   0  0  0  0  0  0  0  0  0  0  0  0
   10.0786  -16.0354   25.4678 O   0  0  0  0  0  0  0  0  0  0  0  0
   10.6795  -15.7180   26.6748 O   0  0  0  0  0  0  0  0  0  0  0  0
    9.5862  -20.6903   27.1491 O   0  0  0  0  0  0  0  0  0  0  0  0
  1  2  1  0
  3  2  1  0
  3 13  1  0
  4  3  2  0
  5  6  1  0
  6  7  2  0
  6  8  1  0
  8  9  1  0
  9 10  1  0
 10 11  1  0
 12 11  1  1
 12 13  1  0
 12 14  1  0
 14 15  2  0
 14 16  1  0
 16 17  1  0
 17 22  1  0
 18 19  1  0
 17 18  1  6
 20 19  1  0
 21 20  2  0
 22 25  2  0
 22 23  1  0
 24 20  1  0
M  END
$$$$
