GRE.pdb
     RDKit          3D

 25 24  0  0  1  0  0  0  0  0999 V2000
    5.8929  -21.5332   24.7926 N   0  0  0  0  0  0  0  0  0  0  0  0
    5.7623  -20.1051   24.9960 C   0  0  0  0  0  0  0  0  0  0  0  0
    6.7238  -19.3914   24.1030 C   0  0  0  0  0  0  0  0  0  0  0  0
    7.8333  -19.8897   23.7632 O   0  0  0  0  0  0  0  0  0  0  0  0
    7.9997  -11.9769   20.7638 N   0  0  0  0  0  0  0  0  0  0  0  0
    8.3167  -12.7021   19.5750 C   0  0  0  0  0  0  0  0  0  0  0  0
    9.2514  -12.2125   18.8035 N   0  0  0  0  0  0  0  0  0  0  0  0
    7.6379  -13.9076   19.2527 N   0  0  0  0  0  0  0  0  0  0  0  0
    6.7940  -14.5275   20.2344 C   0  0  0  0  0  0  0  0  0  0  0  0
    7.5494  -15.5037   21.1064 C   0  0  0  0  0  0  0  0  0  0  0  0
    6.6295  -16.1976   22.0893 C   0  0  0  0  0  0  0  0  0  0  0  0
    7.3471  -17.3137   22.8212 C   0  0  2  0  0  0  0  0  0  0  0  0
    6.4156  -18.1018   23.5958 N   0  0  0  0  0  0  0  0  0  0  0  0
    8.4063  -16.6783   23.6533 C   0  0  0  0  0  0  0  0  0  0  0  0
    8.0315  -15.9429   24.5968 O   0  0  0  0  0  0  0  0  0  0  0  0
    9.5788  -12.6656   17.9447 N   0  0  0  0  0  0  0  0  0  0  0  0
    9.7894  -16.8570   23.4401 C   0  0  1  0  0  0  0  0  0  0  0  0
   10.8502  -16.2919   24.2362 C   0  0  0  0  0  0  0  0  0  0  0  0
   10.7734  -16.6312   25.6973 C   0  0  0  0  0  0  0  0  0  0  0  0
   10.8643  -18.1034   25.9595 C   0  0  0  0  0  0  0  0  0  0  0  0
   10.8538  -18.4330   27.3994 O   0  0  0  0  0  0  0  0  0  0  0  0
    9.9882  -18.0371   28.2172 C   0  0  0  0  0  0  0  0  0  0  0  0
   12.2108  -16.5612   23.6918 O   0  0  0  0  0  0  0  0  0  0  0  0
   12.3780  -17.3309   22.5523 O   0  0  0  0  0  0  0  0  0  0  0  0
   11.8865  -19.2475   27.8868 O   0  0  0  0  0  0  0  0  0  0  0  0
  1  2  1  0
  3  2  1  0
  3 13  1  0
  4  3  2  0
  5  6  1  0
  6  7  2  0
  6  8  1  0
  8  9  1  0
  9 10  1  0
 10 11  1  0
 12 11  1  1
 12 13  1  0
 12 14  1  0
 14 15  2  0
 14 16  1  0
 16 17  1  0
 17 22  1  0
 18 19  1  0
 17 18  1  6
 20 19  1  0
 21 20  2  0
 22 25  2  0
 22 23  1  0
 24 20  1  0
M  END
$$$$
