GRE.pdb
     RDKit          3D

 25 24  0  0  1  0  0  0  0  0999 V2000
   16.3857  -18.3339   16.1349 N   0  0  0  0  0  0  0  0  0  0  0  0
   15.3980  -19.1127   16.8534 C   0  0  0  0  0  0  0  0  0  0  0  0
   14.7949  -18.2696   17.9289 C   0  0  0  0  0  0  0  0  0  0  0  0
   15.3377  -17.2078   18.3445 O   0  0  0  0  0  0  0  0  0  0  0  0
    8.4988  -23.0851   20.3625 N   0  0  0  0  0  0  0  0  0  0  0  0
    9.6035  -22.2160   20.6151 C   0  0  0  0  0  0  0  0  0  0  0  0
   10.7869  -22.6229   20.2373 N   0  0  0  0  0  0  0  0  0  0  0  0
    9.4136  -20.9604   21.2517 N   0  0  0  0  0  0  0  0  0  0  0  0
    9.7154  -19.7530   20.5367 C   0  0  0  0  0  0  0  0  0  0  0  0
   11.2000  -19.4760   20.4789 C   0  0  0  0  0  0  0  0  0  0  0  0
   11.4965  -18.1881   19.7392 C   0  0  0  0  0  0  0  0  0  0  0  0
   12.9879  -17.9339   19.6524 C   0  0  2  0  0  0  0  0  0  0  0  0
   13.5650  -18.6420   18.5325 N   0  0  0  0  0  0  0  0  0  0  0  0
   13.5749  -18.3349   20.9610 C   0  0  0  0  0  0  0  0  0  0  0  0
   13.9322  -19.5298   21.0882 O   0  0  0  0  0  0  0  0  0  0  0  0
   10.9784  -23.5602   19.8702 N   0  0  0  0  0  0  0  0  0  0  0  0
   13.7482  -17.4550   22.0500 C   0  0  1  0  0  0  0  0  0  0  0  0
   14.9506  -17.2970   22.8297 C   0  0  0  0  0  0  0  0  0  0  0  0
   16.1889  -17.0600   22.0135 C   0  0  0  0  0  0  0  0  0  0  0  0
   17.4195  -16.9029   22.8534 C   0  0  0  0  0  0  0  0  0  0  0  0
   18.6301  -16.6247   22.0538 O   0  0  0  0  0  0  0  0  0  0  0  0
   19.0044  -17.3003   21.0647 C   0  0  0  0  0  0  0  0  0  0  0  0
   14.8242  -16.2903   23.9209 O   0  0  0  0  0  0  0  0  0  0  0  0
   15.6764  -16.3184   25.0125 O   0  0  0  0  0  0  0  0  0  0  0  0
   19.4173  -15.5259   22.4282 O   0  0  0  0  0  0  0  0  0  0  0  0
  1  2  1  0
  3  2  1  0
  3 13  1  0
  4  3  2  0
  5  6  1  0
  6  7  2  0
  6  8  1  0
  8  9  1  0
  9 10  1  0
 10 11  1  0
 12 11  1  1
 12 13  1  0
 12 14  1  0
 14 15  2  0
 14 16  1  0
 16 17  1  0
 17 22  1  0
 18 19  1  0
 17 18  1  1
 20 19  1  0
 21 20  2  0
 22 25  2  0
 22 23  1  0
 24 20  1  0
M  END
$$$$
