GRE.pdb
     RDKit          3D

 25 24  0  0  1  0  0  0  0  0999 V2000
    6.9699  -20.3919   17.9643 N   0  0  0  0  0  0  0  0  0  0  0  0
    6.2987  -21.4306   18.7183 C   0  0  0  0  0  0  0  0  0  0  0  0
    6.2702  -21.0493   20.1623 C   0  0  0  0  0  0  0  0  0  0  0  0
    6.9073  -20.0578   20.6158 O   0  0  0  0  0  0  0  0  0  0  0  0
   -0.3246  -19.2686   22.7031 N   0  0  0  0  0  0  0  0  0  0  0  0
   -0.1869  -20.3780   21.8144 C   0  0  0  0  0  0  0  0  0  0  0  0
   -0.9292  -20.3820   20.7385 N   0  0  0  0  0  0  0  0  0  0  0  0
    0.7244  -21.4306   22.0967 N   0  0  0  0  0  0  0  0  0  0  0  0
    1.6160  -21.3120   23.2152 C   0  0  0  0  0  0  0  0  0  0  0  0
    2.9871  -20.8247   22.8071 C   0  0  0  0  0  0  0  0  0  0  0  0
    4.0450  -21.8833   23.0396 C   0  0  0  0  0  0  0  0  0  0  0  0
    5.3883  -21.4497   22.4883 C   0  0  2  0  0  0  0  0  0  0  0  0
    5.5094  -21.8050   21.0927 N   0  0  0  0  0  0  0  0  0  0  0  0
    6.4333  -22.0785   23.3430 C   0  0  0  0  0  0  0  0  0  0  0  0
    6.5926  -23.3174   23.2374 O   0  0  0  0  0  0  0  0  0  0  0  0
   -0.9337  -21.1413   20.0503 N   0  0  0  0  0  0  0  0  0  0  0  0
    7.2423  -21.3650   24.2522 C   0  0  1  0  0  0  0  0  0  0  0  0
    8.3025  -21.9174   25.0582 C   0  0  0  0  0  0  0  0  0  0  0  0
    9.6142  -21.1970   24.9308 C   0  0  0  0  0  0  0  0  0  0  0  0
   10.3509  -21.5453   23.6738 C   0  0  0  0  0  0  0  0  0  0  0  0
   11.5934  -20.7654   23.5002 O   0  0  0  0  0  0  0  0  0  0  0  0
   12.0247  -19.9165   24.3177 C   0  0  0  0  0  0  0  0  0  0  0  0
    7.9272  -22.1038   26.4881 O   0  0  0  0  0  0  0  0  0  0  0  0
    6.7642  -21.5465   26.9935 O   0  0  0  0  0  0  0  0  0  0  0  0
   12.3446  -20.9906   22.3373 O   0  0  0  0  0  0  0  0  0  0  0  0
  1  2  1  0
  3  2  1  0
  3 13  1  0
  4  3  2  0
  5  6  1  0
  6  7  2  0
  6  8  1  0
  8  9  1  0
  9 10  1  0
 10 11  1  0
 12 11  1  1
 12 13  1  0
 12 14  1  0
 14 15  2  0
 14 16  1  0
 16 17  1  0
 17 22  1  0
 18 19  1  0
 17 18  1  6
 20 19  1  0
 21 20  2  0
 22 25  2  0
 22 23  1  0
 24 20  1  0
M  END
$$$$
