GRE.pdb
     RDKit          3D

 25 24  0  0  1  0  0  0  0  0999 V2000
    5.6301  -21.7234   24.0706 N   0  0  0  0  0  0  0  0  0  0  0  0
    5.6678  -20.3618   24.5632 C   0  0  0  0  0  0  0  0  0  0  0  0
    6.6878  -19.5886   23.7931 C   0  0  0  0  0  0  0  0  0  0  0  0
    7.4883  -20.1371   22.9851 O   0  0  0  0  0  0  0  0  0  0  0  0
    6.9850  -12.2045   19.7704 N   0  0  0  0  0  0  0  0  0  0  0  0
    8.2234  -12.8382   19.4470 C   0  0  0  0  0  0  0  0  0  0  0  0
    9.0277  -12.2058   18.6336 N   0  0  0  0  0  0  0  0  0  0  0  0
    8.5592  -14.1056   19.9936 N   0  0  0  0  0  0  0  0  0  0  0  0
    7.6210  -14.7782   20.8466 C   0  0  0  0  0  0  0  0  0  0  0  0
    8.2315  -15.1750   22.1709 C   0  0  0  0  0  0  0  0  0  0  0  0
    7.2619  -15.9803   23.0106 C   0  0  0  0  0  0  0  0  0  0  0  0
    7.7809  -17.3824   23.2581 C   0  0  2  0  0  0  0  0  0  0  0  0
    6.7932  -18.1812   23.9473 N   0  0  0  0  0  0  0  0  0  0  0  0
    9.0549  -17.2475   24.0173 C   0  0  0  0  0  0  0  0  0  0  0  0
    8.9836  -16.7901   25.1823 O   0  0  0  0  0  0  0  0  0  0  0  0
    9.9693  -12.5311   18.3938 N   0  0  0  0  0  0  0  0  0  0  0  0
   10.3201  -17.6017   23.5034 C   0  0  2  0  0  0  0  0  0  0  0  0
   11.5858  -17.4284   24.1717 C   0  0  0  0  0  0  0  0  0  0  0  0
   12.4266  -16.3120   23.6219 C   0  0  0  0  0  0  0  0  0  0  0  0
   12.7084  -16.4609   22.1581 C   0  0  0  0  0  0  0  0  0  0  0  0
   13.7048  -15.4895   21.6623 O   0  0  0  0  0  0  0  0  0  0  0  0
   14.3031  -14.6505   22.3785 C   0  0  0  0  0  0  0  0  0  0  0  0
   11.4677  -17.3336   25.6541 O   0  0  0  0  0  0  0  0  0  0  0  0
   10.7149  -16.3302   26.2417 O   0  0  0  0  0  0  0  0  0  0  0  0
   14.0030  -15.5071   20.2919 O   0  0  0  0  0  0  0  0  0  0  0  0
  1  2  1  0
  3  2  1  0
  3 13  1  0
  4  3  2  0
  5  6  1  0
  6  7  2  0
  6  8  1  0
  8  9  1  0
  9 10  1  0
 10 11  1  0
 12 11  1  1
 12 13  1  0
 12 14  1  0
 14 15  2  0
 14 16  1  0
 16 17  1  0
 17 22  1  0
 18 19  1  0
 17 18  1  6
 20 19  1  0
 21 20  2  0
 22 25  2  0
 22 23  1  0
 24 20  1  0
M  END
$$$$
