PDM.pdb
     RDKit          3D

 24 24  0  0  1  0  0  0  0  0999 V2000
    9.2267  -14.6252   18.2449 N   0  0  0  0  0  0  0  0  0  0  0  0
    8.4712  -14.4171   17.0472 C   0  0  0  0  0  0  0  0  0  0  0  0
    7.6016  -13.1870   17.3318 C   0  0  0  0  0  0  0  0  0  0  0  0
    7.2556  -13.4422   18.8070 C   0  0  0  0  0  0  0  0  0  0  0  0
    8.6145  -13.8942   19.3101 C   0  0  1  0  0  0  0  0  0  0  0  0
    8.5247  -14.6988   20.5576 C   0  0  0  0  0  0  0  0  0  0  0  0
    7.8181  -14.2902   21.5117 O   0  0  0  0  0  0  0  0  0  0  0  0
    9.2258  -15.9389   20.7088 N   0  0  0  0  0  0  0  0  0  0  0  0
    9.1472  -16.7612   21.8787 C   0  0  1  0  0  0  0  0  0  0  0  0
    9.9559  -18.0181   21.7577 C   0  0  0  0  0  0  0  0  0  0  0  0
    9.2464  -19.0805   21.0059 C   0  0  0  0  0  0  0  0  0  0  0  0
    7.9953  -19.0637   20.9071 O   0  0  0  0  0  0  0  0  0  0  0  0
    9.3852  -16.0188   23.1342 C   0  0  0  0  0  0  0  0  0  0  0  0
   10.4990  -15.4628   23.2972 O   0  0  0  0  0  0  0  0  0  0  0  0
    9.8990  -20.1319   20.3813 O   0  0  0  0  0  0  0  0  0  0  0  0
    6.1202  -10.8926   28.0008 C   0  0  0  0  0  0  0  0  0  0  0  0
    5.9902  -12.0518   26.6229 S   0  0  0  0  0  0  0  0  0  0  0  0
    7.4393  -13.1625   26.5867 C   0  0  0  0  0  0  0  0  0  0  0  0
    7.3815  -14.0751   25.3982 C   0  0  0  0  0  0  0  0  0  0  0  0
    8.5470  -14.9854   25.3049 C   0  0  2  0  0  0  0  0  0  0  0  0
    8.4333  -15.8963   24.1667 N   0  0  0  0  0  0  0  0  0  0  0  0
    8.8857  -15.6779   26.5348 C   0  0  0  0  0  0  0  0  0  0  0  0
    9.1215  -14.9804   27.5654 O   0  0  0  0  0  0  0  0  0  0  0  0
    8.9688  -17.0362   26.6715 O   0  0  0  0  0  0  0  0  0  0  0  0
  1  5  1  0
  1  2  1  0
  2  3  1  0
  4  5  1  0
  4  3  1  0
  6  7  2  0
  5  6  1  1
  8  6  1  0
  9 13  1  0
  9  8  1  0
  9 10  1  6
 11 10  1  0
 11 12  2  0
 13 21  1  0
 14 13  2  0
 15 11  1  0
 17 16  1  0
 18 17  1  0
 20 19  1  1
 19 18  1  0
 20 22  1  0
 21 20  1  0
 22 23  2  0
 22 24  1  0
M  END
$$$$
