PDM.pdb
     RDKit          3D

 24 24  0  0  1  0  0  0  0  0999 V2000
    9.3687  -14.5649   18.0617 N   0  0  0  0  0  0  0  0  0  0  0  0
    8.6727  -14.3561   16.8286 C   0  0  0  0  0  0  0  0  0  0  0  0
    7.7208  -13.1855   17.1003 C   0  0  0  0  0  0  0  0  0  0  0  0
    7.3055  -13.5105   18.5435 C   0  0  0  0  0  0  0  0  0  0  0  0
    8.6565  -13.9059   19.1115 C   0  0  1  0  0  0  0  0  0  0  0  0
    8.5403  -14.7575   20.3253 C   0  0  0  0  0  0  0  0  0  0  0  0
    7.8728  -14.3515   21.3082 O   0  0  0  0  0  0  0  0  0  0  0  0
    9.1722  -16.0402   20.4113 N   0  0  0  0  0  0  0  0  0  0  0  0
    9.1455  -16.8647   21.5821 C   0  0  1  0  0  0  0  0  0  0  0  0
    9.9689  -18.1088   21.4322 C   0  0  0  0  0  0  0  0  0  0  0  0
    9.8034  -19.0410   22.5728 C   0  0  0  0  0  0  0  0  0  0  0  0
   10.7552  -19.7713   22.9417 O   0  0  0  0  0  0  0  0  0  0  0  0
    9.4143  -16.1197   22.8299 C   0  0  0  0  0  0  0  0  0  0  0  0
   10.5368  -15.5751   22.9703 O   0  0  0  0  0  0  0  0  0  0  0  0
    8.6211  -19.1641   23.2857 O   0  0  0  0  0  0  0  0  0  0  0  0
    6.2024  -11.1826   27.9846 C   0  0  0  0  0  0  0  0  0  0  0  0
    6.0054  -12.3826   26.6502 S   0  0  0  0  0  0  0  0  0  0  0  0
    7.5633  -13.2965   26.3809 C   0  0  0  0  0  0  0  0  0  0  0  0
    7.4300  -14.2490   25.2303 C   0  0  0  0  0  0  0  0  0  0  0  0
    8.6366  -15.0836   25.0218 C   0  0  2  0  0  0  0  0  0  0  0  0
    8.4825  -15.9826   23.8788 N   0  0  0  0  0  0  0  0  0  0  0  0
    9.1196  -15.7720   26.2048 C   0  0  0  0  0  0  0  0  0  0  0  0
    9.7078  -15.0875   27.0935 O   0  0  0  0  0  0  0  0  0  0  0  0
    8.9867  -17.1127   26.4398 O   0  0  0  0  0  0  0  0  0  0  0  0
  1  5  1  0
  1  2  1  0
  2  3  1  0
  4  5  1  0
  4  3  1  0
  6  7  2  0
  5  6  1  1
  8  6  1  0
  9 13  1  0
  9  8  1  0
  9 10  1  6
 11 10  1  0
 11 12  2  0
 13 21  1  0
 14 13  2  0
 15 11  1  0
 17 16  1  0
 18 17  1  0
 20 19  1  1
 19 18  1  0
 20 22  1  0
 21 20  1  0
 22 23  2  0
 22 24  1  0
M  END
$$$$
