PDM.pdb
     RDKit          3D

 24 24  0  0  1  0  0  0  0  0999 V2000
    9.2576  -14.4889   18.3210 N   0  0  0  0  0  0  0  0  0  0  0  0
    8.5761  -14.2186   17.0917 C   0  0  0  0  0  0  0  0  0  0  0  0
    7.7286  -12.9719   17.3704 C   0  0  0  0  0  0  0  0  0  0  0  0
    7.2939  -13.2639   18.8150 C   0  0  0  0  0  0  0  0  0  0  0  0
    8.6090  -13.7741   19.3756 C   0  0  1  0  0  0  0  0  0  0  0  0
    8.4265  -14.6157   20.5882 C   0  0  0  0  0  0  0  0  0  0  0  0
    7.7122  -14.1985   21.5328 O   0  0  0  0  0  0  0  0  0  0  0  0
    9.0458  -15.9010   20.7158 N   0  0  0  0  0  0  0  0  0  0  0  0
    8.8825  -16.7547   21.8541 C   0  0  1  0  0  0  0  0  0  0  0  0
    9.5226  -18.0976   21.6665 C   0  0  0  0  0  0  0  0  0  0  0  0
    9.0891  -19.0817   22.6868 C   0  0  0  0  0  0  0  0  0  0  0  0
    8.3731  -20.0605   22.3637 O   0  0  0  0  0  0  0  0  0  0  0  0
    9.2339  -16.1012   23.1323 C   0  0  0  0  0  0  0  0  0  0  0  0
   10.4151  -15.7093   23.2977 O   0  0  0  0  0  0  0  0  0  0  0  0
    9.4355  -18.9879   24.0256 O   0  0  0  0  0  0  0  0  0  0  0  0
    6.4602  -10.7442   25.7787 C   0  0  0  0  0  0  0  0  0  0  0  0
    6.3473  -12.0432   27.0274 S   0  0  0  0  0  0  0  0  0  0  0  0
    7.7064  -13.2451   26.8201 C   0  0  0  0  0  0  0  0  0  0  0  0
    7.4680  -14.1175   25.6239 C   0  0  0  0  0  0  0  0  0  0  0  0
    8.5770  -15.0653   25.3634 C   0  0  2  0  0  0  0  0  0  0  0  0
    8.3190  -15.8900   24.1837 N   0  0  0  0  0  0  0  0  0  0  0  0
    8.9929  -15.8542   26.5086 C   0  0  0  0  0  0  0  0  0  0  0  0
    8.7933  -17.1046   26.4745 O   0  0  0  0  0  0  0  0  0  0  0  0
    9.5910  -15.3509   27.6308 O   0  0  0  0  0  0  0  0  0  0  0  0
  1  5  1  0
  1  2  1  0
  2  3  1  0
  4  5  1  0
  4  3  1  0
  6  7  2  0
  5  6  1  1
  8  6  1  0
  9 13  1  0
  9  8  1  0
  9 10  1  6
 11 10  1  0
 11 12  2  0
 13 21  1  0
 14 13  2  0
 15 11  1  0
 17 16  1  0
 18 17  1  0
 20 19  1  1
 19 18  1  0
 20 22  1  0
 21 20  1  0
 22 23  2  0
 22 24  1  0
M  END
$$$$
