PDM.pdb
     RDKit          3D

 24 24  0  0  1  0  0  0  0  0999 V2000
    9.3544  -14.2683   18.2306 N   0  0  0  0  0  0  0  0  0  0  0  0
    8.7406  -13.9691   16.9727 C   0  0  0  0  0  0  0  0  0  0  0  0
    7.7543  -12.8335   17.2695 C   0  0  0  0  0  0  0  0  0  0  0  0
    7.2471  -13.2766   18.6506 C   0  0  0  0  0  0  0  0  0  0  0  0
    8.5624  -13.7022   19.2775 C   0  0  1  0  0  0  0  0  0  0  0  0
    8.3775  -14.6488   20.4095 C   0  0  0  0  0  0  0  0  0  0  0  0
    7.6016  -14.3493   21.3502 O   0  0  0  0  0  0  0  0  0  0  0  0
    9.0631  -15.9054   20.4632 N   0  0  0  0  0  0  0  0  0  0  0  0
    9.0714  -16.7602   21.6123 C   0  0  1  0  0  0  0  0  0  0  0  0
    9.8719  -18.0098   21.3978 C   0  0  0  0  0  0  0  0  0  0  0  0
    9.8828  -18.8898   22.5906 C   0  0  0  0  0  0  0  0  0  0  0  0
    8.8098  -19.1996   23.1633 O   0  0  0  0  0  0  0  0  0  0  0  0
    9.3984  -16.0519   22.8675 C   0  0  0  0  0  0  0  0  0  0  0  0
   10.5093  -15.4735   22.9548 O   0  0  0  0  0  0  0  0  0  0  0  0
   11.0448  -19.4126   23.1362 O   0  0  0  0  0  0  0  0  0  0  0  0
    6.6284  -11.2837   28.3766 C   0  0  0  0  0  0  0  0  0  0  0  0
    6.3393  -12.3849   26.9755 S   0  0  0  0  0  0  0  0  0  0  0  0
    7.8108  -13.4211   26.6661 C   0  0  0  0  0  0  0  0  0  0  0  0
    7.6317  -14.2437   25.4252 C   0  0  0  0  0  0  0  0  0  0  0  0
    8.7635  -15.1650   25.1681 C   0  0  2  0  0  0  0  0  0  0  0  0
    8.5348  -15.9858   23.9797 N   0  0  0  0  0  0  0  0  0  0  0  0
    9.1857  -15.9537   26.3112 C   0  0  0  0  0  0  0  0  0  0  0  0
    9.0376  -17.2104   26.2550 O   0  0  0  0  0  0  0  0  0  0  0  0
    9.7383  -15.4437   27.4536 O   0  0  0  0  0  0  0  0  0  0  0  0
  1  5  1  0
  1  2  1  0
  2  3  1  0
  4  5  1  0
  4  3  1  0
  6  7  2  0
  5  6  1  1
  8  6  1  0
  9 13  1  0
  9  8  1  0
  9 10  1  6
 11 10  1  0
 11 12  2  0
 13 21  1  0
 14 13  2  0
 15 11  1  0
 17 16  1  0
 18 17  1  0
 20 19  1  1
 19 18  1  0
 20 22  1  0
 21 20  1  0
 22 23  2  0
 22 24  1  0
M  END
$$$$
