PDM.pdb
     RDKit          3D

 24 24  0  0  1  0  0  0  0  0999 V2000
   -1.3238  -26.3355   27.4099 N   0  0  0  0  0  0  0  0  0  0  0  0
   -0.4778  -27.2626   26.7220 C   0  0  0  0  0  0  0  0  0  0  0  0
   -0.6102  -26.8994   25.2384 C   0  0  0  0  0  0  0  0  0  0  0  0
   -2.1035  -26.5415   25.1850 C   0  0  0  0  0  0  0  0  0  0  0  0
   -2.2158  -25.7364   26.4669 C   0  0  1  0  0  0  0  0  0  0  0  0
   -3.6093  -25.6716   26.9823 C   0  0  0  0  0  0  0  0  0  0  0  0
   -4.4815  -25.0379   26.3387 O   0  0  0  0  0  0  0  0  0  0  0  0
   -3.9939  -26.3154   28.2028 N   0  0  0  0  0  0  0  0  0  0  0  0
   -5.3014  -26.2155   28.7787 C   0  0  1  0  0  0  0  0  0  0  0  0
   -5.6342  -27.3793   29.6636 C   0  0  0  0  0  0  0  0  0  0  0  0
   -5.7200  -28.6561   28.9154 C   0  0  0  0  0  0  0  0  0  0  0  0
   -6.5266  -28.7827   27.9622 O   0  0  0  0  0  0  0  0  0  0  0  0
   -5.5702  -24.9008   29.3981 C   0  0  0  0  0  0  0  0  0  0  0  0
   -4.7771  -24.4809   30.2760 O   0  0  0  0  0  0  0  0  0  0  0  0
   -4.9383  -29.7619   29.2110 O   0  0  0  0  0  0  0  0  0  0  0  0
   -4.5975  -20.0476   25.4565 C   0  0  0  0  0  0  0  0  0  0  0  0
   -4.6271  -20.2914   27.2452 S   0  0  0  0  0  0  0  0  0  0  0  0
   -5.8599  -21.5616   27.6940 C   0  0  0  0  0  0  0  0  0  0  0  0
   -5.8831  -21.7807   29.1774 C   0  0  0  0  0  0  0  0  0  0  0  0
   -6.9176  -22.7506   29.6073 C   0  0  2  0  0  0  0  0  0  0  0  0
   -6.6694  -24.0846   29.0622 N   0  0  0  0  0  0  0  0  0  0  0  0
   -8.2881  -22.3174   29.4049 C   0  0  0  0  0  0  0  0  0  0  0  0
   -8.6839  -21.2855   30.0236 O   0  0  0  0  0  0  0  0  0  0  0  0
   -9.1936  -22.9387   28.5897 O   0  0  0  0  0  0  0  0  0  0  0  0
  1  5  1  0
  1  2  1  0
  2  3  1  0
  4  5  1  0
  4  3  1  0
  6  7  2  0
  5  6  1  1
  8  6  1  0
  9 13  1  0
  9  8  1  0
  9 10  1  1
 11 10  1  0
 11 12  2  0
 13 21  1  0
 14 13  2  0
 15 11  1  0
 17 16  1  0
 18 17  1  0
 20 19  1  6
 19 18  1  0
 20 22  1  0
 21 20  1  0
 22 23  2  0
 22 24  1  0
M  END
$$$$
