PDM.pdb
     RDKit          3D

 24 24  0  0  1  0  0  0  0  0999 V2000
    9.3169  -14.3549   18.2599 N   0  0  0  0  0  0  0  0  0  0  0  0
    8.6395  -14.0435   17.0382 C   0  0  0  0  0  0  0  0  0  0  0  0
    7.6621  -12.9187   17.3986 C   0  0  0  0  0  0  0  0  0  0  0  0
    7.2270  -13.3832   18.7971 C   0  0  0  0  0  0  0  0  0  0  0  0
    8.5743  -13.8079   19.3523 C   0  0  1  0  0  0  0  0  0  0  0  0
    8.4518  -14.7705   20.4793 C   0  0  0  0  0  0  0  0  0  0  0  0
    7.6410  -14.5387   21.4096 O   0  0  0  0  0  0  0  0  0  0  0  0
    9.2371  -15.9670   20.5396 N   0  0  0  0  0  0  0  0  0  0  0  0
    9.2940  -16.8260   21.6842 C   0  0  1  0  0  0  0  0  0  0  0  0
   10.2173  -17.9909   21.4878 C   0  0  0  0  0  0  0  0  0  0  0  0
    9.6382  -19.0333   20.6072 C   0  0  0  0  0  0  0  0  0  0  0  0
    8.5515  -19.5864   20.9046 O   0  0  0  0  0  0  0  0  0  0  0  0
    9.5139  -16.0992   22.9522 C   0  0  0  0  0  0  0  0  0  0  0  0
   10.5835  -15.4574   23.0948 O   0  0  0  0  0  0  0  0  0  0  0  0
   10.2413  -19.4536   19.4322 O   0  0  0  0  0  0  0  0  0  0  0  0
    6.8314  -10.9883   27.7803 C   0  0  0  0  0  0  0  0  0  0  0  0
    6.3136  -12.5495   27.0359 S   0  0  0  0  0  0  0  0  0  0  0  0
    7.7534  -13.6452   26.7887 C   0  0  0  0  0  0  0  0  0  0  0  0
    7.6249  -14.4126   25.5067 C   0  0  0  0  0  0  0  0  0  0  0  0
    8.7622  -15.3299   25.2599 C   0  0  2  0  0  0  0  0  0  0  0  0
    8.5915  -16.0827   24.0180 N   0  0  0  0  0  0  0  0  0  0  0  0
    9.1172  -16.1835   26.3789 C   0  0  0  0  0  0  0  0  0  0  0  0
    8.9250  -17.4299   26.2615 O   0  0  0  0  0  0  0  0  0  0  0  0
    9.6502  -15.7456   27.5598 O   0  0  0  0  0  0  0  0  0  0  0  0
  1  5  1  0
  1  2  1  0
  2  3  1  0
  4  5  1  0
  4  3  1  0
  6  7  2  0
  5  6  1  1
  8  6  1  0
  9 13  1  0
  9  8  1  0
  9 10  1  6
 11 10  1  0
 11 12  2  0
 13 21  1  0
 14 13  2  0
 15 11  1  0
 17 16  1  0
 18 17  1  0
 20 19  1  1
 19 18  1  0
 20 22  1  0
 21 20  1  0
 22 23  2  0
 22 24  1  0
M  END
$$$$
