PDM.pdb
     RDKit          3D

 24 24  0  0  1  0  0  0  0  0999 V2000
    9.2588  -14.2654   18.9038 N   0  0  0  0  0  0  0  0  0  0  0  0
    8.5721  -13.9462   17.6892 C   0  0  0  0  0  0  0  0  0  0  0  0
    7.5330  -12.8901   18.0833 C   0  0  0  0  0  0  0  0  0  0  0  0
    7.1161  -13.4290   19.4605 C   0  0  0  0  0  0  0  0  0  0  0  0
    8.4815  -13.8002   20.0098 C   0  0  1  0  0  0  0  0  0  0  0  0
    8.4053  -14.8090   21.0999 C   0  0  0  0  0  0  0  0  0  0  0  0
    7.4840  -14.7376   21.9499 O   0  0  0  0  0  0  0  0  0  0  0  0
    9.3593  -15.8716   21.2139 N   0  0  0  0  0  0  0  0  0  0  0  0
    9.4353  -16.7573   22.3368 C   0  0  1  0  0  0  0  0  0  0  0  0
   10.4218  -17.8677   22.1319 C   0  0  0  0  0  0  0  0  0  0  0  0
   10.2757  -18.5213   20.8095 C   0  0  0  0  0  0  0  0  0  0  0  0
    9.1713  -19.0006   20.4546 O   0  0  0  0  0  0  0  0  0  0  0  0
    9.5892  -16.0549   23.6280 C   0  0  0  0  0  0  0  0  0  0  0  0
   10.6185  -15.3596   23.8106 O   0  0  0  0  0  0  0  0  0  0  0  0
   11.3187  -18.6430   19.9048 O   0  0  0  0  0  0  0  0  0  0  0  0
    6.6687  -11.2861   27.0437 C   0  0  0  0  0  0  0  0  0  0  0  0
    6.0742  -12.5291   25.8770 S   0  0  0  0  0  0  0  0  0  0  0  0
    7.4456  -13.6125   25.3476 C   0  0  0  0  0  0  0  0  0  0  0  0
    7.7415  -14.6465   26.3928 C   0  0  0  0  0  0  0  0  0  0  0  0
    8.8427  -15.5619   26.0117 C   0  0  2  0  0  0  0  0  0  0  0  0
    8.6462  -16.1184   24.6738 N   0  0  0  0  0  0  0  0  0  0  0  0
    9.1605  -16.5828   26.9934 C   0  0  0  0  0  0  0  0  0  0  0  0
    9.4780  -16.2080   28.1609 O   0  0  0  0  0  0  0  0  0  0  0  0
    9.1419  -17.9297   26.7568 O   0  0  0  0  0  0  0  0  0  0  0  0
  1  5  1  0
  1  2  1  0
  2  3  1  0
  4  5  1  0
  4  3  1  0
  6  7  2  0
  5  6  1  1
  8  6  1  0
  9 13  1  0
  9  8  1  0
  9 10  1  6
 11 10  1  0
 11 12  2  0
 13 21  1  0
 14 13  2  0
 15 11  1  0
 17 16  1  0
 18 17  1  0
 20 19  1  1
 19 18  1  0
 20 22  1  0
 21 20  1  0
 22 23  2  0
 22 24  1  0
M  END
$$$$
