PDM.pdb
     RDKit          3D

 24 24  0  0  1  0  0  0  0  0999 V2000
    9.3182  -14.5035   18.4298 N   0  0  0  0  0  0  0  0  0  0  0  0
    8.6127  -14.2464   17.2113 C   0  0  0  0  0  0  0  0  0  0  0  0
    7.7561  -13.0079   17.4991 C   0  0  0  0  0  0  0  0  0  0  0  0
    7.3496  -13.2983   18.9522 C   0  0  0  0  0  0  0  0  0  0  0  0
    8.6797  -13.7913   19.4924 C   0  0  1  0  0  0  0  0  0  0  0  0
    8.5276  -14.6294   20.7115 C   0  0  0  0  0  0  0  0  0  0  0  0
    7.8189  -14.2194   21.6634 O   0  0  0  0  0  0  0  0  0  0  0  0
    9.1702  -15.9035   20.8374 N   0  0  0  0  0  0  0  0  0  0  0  0
    8.9696  -16.7913   21.9432 C   0  0  1  0  0  0  0  0  0  0  0  0
    9.7792  -18.0483   21.8298 C   0  0  0  0  0  0  0  0  0  0  0  0
    9.6215  -18.7093   20.5124 C   0  0  0  0  0  0  0  0  0  0  0  0
    8.5513  -19.2951   20.2179 O   0  0  0  0  0  0  0  0  0  0  0  0
    9.0846  -16.1256   23.2577 C   0  0  0  0  0  0  0  0  0  0  0  0
   10.2320  -15.8843   23.7065 O   0  0  0  0  0  0  0  0  0  0  0  0
   10.6167  -18.7238   19.5478 O   0  0  0  0  0  0  0  0  0  0  0  0
    6.9934  -10.9406   28.2522 C   0  0  0  0  0  0  0  0  0  0  0  0
    6.8200  -11.8290   26.6900 S   0  0  0  0  0  0  0  0  0  0  0  0
    6.8543  -13.6322   26.9762 C   0  0  0  0  0  0  0  0  0  0  0  0
    6.7913  -14.3789   25.6772 C   0  0  0  0  0  0  0  0  0  0  0  0
    8.0656  -15.0499   25.3282 C   0  0  2  0  0  0  0  0  0  0  0  0
    7.9786  -15.7434   24.0438 N   0  0  0  0  0  0  0  0  0  0  0  0
    8.6243  -15.8892   26.3723 C   0  0  0  0  0  0  0  0  0  0  0  0
    9.2469  -15.3252   27.3203 O   0  0  0  0  0  0  0  0  0  0  0  0
    8.5288  -17.2528   26.4161 O   0  0  0  0  0  0  0  0  0  0  0  0
  1  5  1  0
  1  2  1  0
  2  3  1  0
  4  5  1  0
  4  3  1  0
  6  7  2  0
  5  6  1  1
  8  6  1  0
  9 13  1  0
  9  8  1  0
  9 10  1  1
 11 10  1  0
 11 12  2  0
 13 21  1  0
 14 13  2  0
 15 11  1  0
 17 16  1  0
 18 17  1  0
 20 19  1  1
 19 18  1  0
 20 22  1  0
 21 20  1  0
 22 23  2  0
 22 24  1  0
M  END
$$$$
