PDM.pdb
     RDKit          3D

 24 24  0  0  1  0  0  0  0  0999 V2000
    9.3362  -14.2043   18.7389 N   0  0  0  0  0  0  0  0  0  0  0  0
    8.6459  -13.8683   17.5309 C   0  0  0  0  0  0  0  0  0  0  0  0
    7.6008  -12.8258   17.9447 C   0  0  0  0  0  0  0  0  0  0  0  0
    7.1892  -13.3911   19.3129 C   0  0  0  0  0  0  0  0  0  0  0  0
    8.5576  -13.7633   19.8539 C   0  0  1  0  0  0  0  0  0  0  0  0
    8.4892  -14.7914   20.9263 C   0  0  0  0  0  0  0  0  0  0  0  0
    7.5672  -14.7420   21.7772 O   0  0  0  0  0  0  0  0  0  0  0  0
    9.4515  -15.8483   21.0221 N   0  0  0  0  0  0  0  0  0  0  0  0
    9.4785  -16.8074   22.0853 C   0  0  1  0  0  0  0  0  0  0  0  0
   10.4529  -17.9195   21.8365 C   0  0  0  0  0  0  0  0  0  0  0  0
   10.0428  -18.7938   20.7118 C   0  0  0  0  0  0  0  0  0  0  0  0
    8.8426  -19.1343   20.5747 O   0  0  0  0  0  0  0  0  0  0  0  0
    9.6037  -16.1947   23.4244 C   0  0  0  0  0  0  0  0  0  0  0  0
   10.7018  -15.6766   23.7438 O   0  0  0  0  0  0  0  0  0  0  0  0
   10.9320  -19.2788   19.7656 O   0  0  0  0  0  0  0  0  0  0  0  0
    6.3941  -10.7116   26.5268 C   0  0  0  0  0  0  0  0  0  0  0  0
    6.1339  -12.4980   26.5496 S   0  0  0  0  0  0  0  0  0  0  0  0
    7.6811  -13.3720   26.1291 C   0  0  0  0  0  0  0  0  0  0  0  0
    7.4689  -14.8564   26.1202 C   0  0  0  0  0  0  0  0  0  0  0  0
    8.6783  -15.6159   25.7247 C   0  0  2  0  0  0  0  0  0  0  0  0
    8.5600  -16.1567   24.3713 N   0  0  0  0  0  0  0  0  0  0  0  0
    9.1172  -16.6146   26.6821 C   0  0  0  0  0  0  0  0  0  0  0  0
    8.9147  -17.8340   26.4057 O   0  0  0  0  0  0  0  0  0  0  0  0
    9.7401  -16.3417   27.8687 O   0  0  0  0  0  0  0  0  0  0  0  0
  1  5  1  0
  1  2  1  0
  2  3  1  0
  4  5  1  0
  4  3  1  0
  6  7  2  0
  5  6  1  1
  8  6  1  0
  9 13  1  0
  9  8  1  0
  9 10  1  6
 11 10  1  0
 11 12  2  0
 13 21  1  0
 14 13  2  0
 15 11  1  0
 17 16  1  0
 18 17  1  0
 20 19  1  1
 19 18  1  0
 20 22  1  0
 21 20  1  0
 22 23  2  0
 22 24  1  0
M  END
$$$$
