PDM.pdb
     RDKit          3D

 24 24  0  0  1  0  0  0  0  0999 V2000
    9.3567  -14.0357   18.4279 N   0  0  0  0  0  0  0  0  0  0  0  0
    8.5752  -13.9071   17.2357 C   0  0  0  0  0  0  0  0  0  0  0  0
    7.3646  -13.0582   17.6411 C   0  0  0  0  0  0  0  0  0  0  0  0
    7.1142  -13.6103   19.0530 C   0  0  0  0  0  0  0  0  0  0  0  0
    8.5458  -13.6854   19.5519 C   0  0  1  0  0  0  0  0  0  0  0  0
    8.7105  -14.6436   20.6773 C   0  0  0  0  0  0  0  0  0  0  0  0
    7.9618  -14.5579   21.6816 O   0  0  0  0  0  0  0  0  0  0  0  0
    9.7066  -15.6729   20.6534 N   0  0  0  0  0  0  0  0  0  0  0  0
    9.9653  -16.5571   21.7499 C   0  0  1  0  0  0  0  0  0  0  0  0
   11.1063  -17.4923   21.4821 C   0  0  0  0  0  0  0  0  0  0  0  0
   11.3295  -18.4494   22.5918 C   0  0  0  0  0  0  0  0  0  0  0  0
   10.3712  -19.1023   23.0720 O   0  0  0  0  0  0  0  0  0  0  0  0
   10.0562  -15.8647   23.0524 C   0  0  0  0  0  0  0  0  0  0  0  0
   10.8036  -14.8601   23.1438 O   0  0  0  0  0  0  0  0  0  0  0  0
   12.5746  -18.6790   23.1558 O   0  0  0  0  0  0  0  0  0  0  0  0
    6.0724  -11.7314   27.9142 C   0  0  0  0  0  0  0  0  0  0  0  0
    6.2241  -12.8396   26.4970 S   0  0  0  0  0  0  0  0  0  0  0  0
    7.7711  -13.8038   26.6058 C   0  0  0  0  0  0  0  0  0  0  0  0
    7.9837  -14.6119   25.3606 C   0  0  0  0  0  0  0  0  0  0  0  0
    9.1990  -15.4580   25.4152 C   0  0  2  0  0  0  0  0  0  0  0  0
    9.3517  -16.2656   24.2058 N   0  0  0  0  0  0  0  0  0  0  0  0
    9.3468  -16.2439   26.6265 C   0  0  0  0  0  0  0  0  0  0  0  0
    9.3486  -15.6332   27.7361 O   0  0  0  0  0  0  0  0  0  0  0  0
    9.4827  -17.6042   26.6658 O   0  0  0  0  0  0  0  0  0  0  0  0
  1  5  1  0
  1  2  1  0
  2  3  1  0
  4  5  1  0
  4  3  1  0
  6  7  2  0
  5  6  1  1
  8  6  1  0
  9 13  1  0
  9  8  1  0
  9 10  1  6
 11 10  1  0
 11 12  2  0
 13 21  1  0
 14 13  2  0
 15 11  1  0
 17 16  1  0
 18 17  1  0
 20 19  1  6
 19 18  1  0
 20 22  1  0
 21 20  1  0
 22 23  2  0
 22 24  1  0
M  END
$$$$
