PDM.pdb
     RDKit          3D

 24 24  0  0  1  0  0  0  0  0999 V2000
    9.4085  -14.0429   18.4461 N   0  0  0  0  0  0  0  0  0  0  0  0
    8.8252  -13.7432   17.1739 C   0  0  0  0  0  0  0  0  0  0  0  0
    7.7072  -12.7380   17.4737 C   0  0  0  0  0  0  0  0  0  0  0  0
    7.1876  -13.3076   18.8028 C   0  0  0  0  0  0  0  0  0  0  0  0
    8.5108  -13.6231   19.4764 C   0  0  1  0  0  0  0  0  0  0  0  0
    8.3782  -14.6444   20.5493 C   0  0  0  0  0  0  0  0  0  0  0  0
    7.5135  -14.4942   21.4472 O   0  0  0  0  0  0  0  0  0  0  0  0
    9.2138  -15.8070   20.5929 N   0  0  0  0  0  0  0  0  0  0  0  0
    9.2615  -16.7130   21.7011 C   0  0  1  0  0  0  0  0  0  0  0  0
   10.2084  -17.8535   21.4755 C   0  0  0  0  0  0  0  0  0  0  0  0
   10.1623  -18.8553   22.5671 C   0  0  0  0  0  0  0  0  0  0  0  0
    9.0792  -19.1192   23.1439 O   0  0  0  0  0  0  0  0  0  0  0  0
    9.4426  -16.0375   23.0031 C   0  0  0  0  0  0  0  0  0  0  0  0
   10.4920  -15.3745   23.1910 O   0  0  0  0  0  0  0  0  0  0  0  0
   11.2795  -19.5457   23.0100 O   0  0  0  0  0  0  0  0  0  0  0  0
    6.8049  -11.0315   26.9504 C   0  0  0  0  0  0  0  0  0  0  0  0
    6.2446  -12.7192   27.2625 S   0  0  0  0  0  0  0  0  0  0  0  0
    7.6125  -13.9015   27.0058 C   0  0  0  0  0  0  0  0  0  0  0  0
    7.5322  -14.5210   25.6425 C   0  0  0  0  0  0  0  0  0  0  0  0
    8.6612  -15.4352   25.3503 C   0  0  2  0  0  0  0  0  0  0  0  0
    8.5043  -16.0928   24.0537 N   0  0  0  0  0  0  0  0  0  0  0  0
    8.9824  -16.3735   26.4101 C   0  0  0  0  0  0  0  0  0  0  0  0
    8.6771  -17.5910   26.2403 O   0  0  0  0  0  0  0  0  0  0  0  0
    9.5963  -16.0453   27.5873 O   0  0  0  0  0  0  0  0  0  0  0  0
  1  5  1  0
  1  2  1  0
  2  3  1  0
  4  5  1  0
  4  3  1  0
  6  7  2  0
  5  6  1  1
  8  6  1  0
  9 13  1  0
  9  8  1  0
  9 10  1  6
 11 10  1  0
 11 12  2  0
 13 21  1  0
 14 13  2  0
 15 11  1  0
 17 16  1  0
 18 17  1  0
 20 19  1  1
 19 18  1  0
 20 22  1  0
 21 20  1  0
 22 23  2  0
 22 24  1  0
M  END
$$$$
