PDM.pdb
     RDKit          3D

 24 24  0  0  1  0  0  0  0  0999 V2000
    9.2183  -14.4521   18.3876 N   0  0  0  0  0  0  0  0  0  0  0  0
    8.3919  -14.2276   17.2407 C   0  0  0  0  0  0  0  0  0  0  0  0
    7.4310  -13.1067   17.6539 C   0  0  0  0  0  0  0  0  0  0  0  0
    7.1787  -13.4996   19.1178 C   0  0  0  0  0  0  0  0  0  0  0  0
    8.5944  -13.8603   19.5296 C   0  0  1  0  0  0  0  0  0  0  0  0
    8.6350  -14.7587   20.7141 C   0  0  0  0  0  0  0  0  0  0  0  0
    7.8636  -14.5469   21.6818 O   0  0  0  0  0  0  0  0  0  0  0  0
    9.5355  -15.8703   20.7885 N   0  0  0  0  0  0  0  0  0  0  0  0
    9.6585  -16.7207   21.9343 C   0  0  1  0  0  0  0  0  0  0  0  0
   10.7168  -17.7694   21.7652 C   0  0  0  0  0  0  0  0  0  0  0  0
   10.3765  -18.7559   20.7124 C   0  0  0  0  0  0  0  0  0  0  0  0
    9.9012  -18.3771   19.6143 O   0  0  0  0  0  0  0  0  0  0  0  0
    9.7550  -15.9776   23.2082 C   0  0  0  0  0  0  0  0  0  0  0  0
   10.6972  -15.1606   23.3531 O   0  0  0  0  0  0  0  0  0  0  0  0
   10.5551  -20.1217   20.8673 O   0  0  0  0  0  0  0  0  0  0  0  0
    6.5403  -11.0110   27.9327 C   0  0  0  0  0  0  0  0  0  0  0  0
    6.3593  -12.2595   26.6411 S   0  0  0  0  0  0  0  0  0  0  0  0
    7.7453  -13.4467   26.7048 C   0  0  0  0  0  0  0  0  0  0  0  0
    7.7399  -14.3371   25.4981 C   0  0  0  0  0  0  0  0  0  0  0  0
    8.8478  -15.3211   25.4948 C   0  0  2  0  0  0  0  0  0  0  0  0
    8.8493  -16.1312   24.2774 N   0  0  0  0  0  0  0  0  0  0  0  0
    8.9558  -16.1289   26.6959 C   0  0  0  0  0  0  0  0  0  0  0  0
    9.0876  -15.5318   27.8052 O   0  0  0  0  0  0  0  0  0  0  0  0
    8.9237  -17.4958   26.7260 O   0  0  0  0  0  0  0  0  0  0  0  0
  1  5  1  0
  1  2  1  0
  2  3  1  0
  4  5  1  0
  4  3  1  0
  6  7  2  0
  5  6  1  1
  8  6  1  0
  9 13  1  0
  9  8  1  0
  9 10  1  6
 11 10  1  0
 11 12  2  0
 13 21  1  0
 14 13  2  0
 15 11  1  0
 17 16  1  0
 18 17  1  0
 20 19  1  1
 19 18  1  0
 20 22  1  0
 21 20  1  0
 22 23  2  0
 22 24  1  0
M  END
$$$$
