PDM.pdb
     RDKit          3D

 24 24  0  0  1  0  0  0  0  0999 V2000
    9.3665  -14.3340   18.0658 N   0  0  0  0  0  0  0  0  0  0  0  0
    8.6742  -14.2749   16.8144 C   0  0  0  0  0  0  0  0  0  0  0  0
    7.5266  -13.2835   17.0391 C   0  0  0  0  0  0  0  0  0  0  0  0
    7.1403  -13.6470   18.4812 C   0  0  0  0  0  0  0  0  0  0  0  0
    8.5256  -13.7887   19.0852 C   0  0  1  0  0  0  0  0  0  0  0  0
    8.5310  -14.6229   20.3164 C   0  0  0  0  0  0  0  0  0  0  0  0
    7.7018  -14.3887   21.2298 O   0  0  0  0  0  0  0  0  0  0  0  0
    9.4614  -15.6969   20.4971 N   0  0  0  0  0  0  0  0  0  0  0  0
    9.4357  -16.5943   21.6129 C   0  0  1  0  0  0  0  0  0  0  0  0
   10.4903  -17.6566   21.5253 C   0  0  0  0  0  0  0  0  0  0  0  0
   10.4463  -18.5973   22.6701 C   0  0  0  0  0  0  0  0  0  0  0  0
    9.4165  -19.2784   22.8955 O   0  0  0  0  0  0  0  0  0  0  0  0
    9.3929  -15.9043   22.9192 C   0  0  0  0  0  0  0  0  0  0  0  0
   10.4042  -15.2573   23.2862 O   0  0  0  0  0  0  0  0  0  0  0  0
   11.5083  -18.7805   23.5417 O   0  0  0  0  0  0  0  0  0  0  0  0
    7.0057  -11.3430   27.9265 C   0  0  0  0  0  0  0  0  0  0  0  0
    7.2397  -12.2841   26.4036 S   0  0  0  0  0  0  0  0  0  0  0  0
    6.6883  -14.0101   26.6311 C   0  0  0  0  0  0  0  0  0  0  0  0
    6.8071  -14.7804   25.3499 C   0  0  0  0  0  0  0  0  0  0  0  0
    8.1937  -15.2125   25.0560 C   0  0  2  0  0  0  0  0  0  0  0  0
    8.2799  -15.9287   23.7840 N   0  0  0  0  0  0  0  0  0  0  0  0
    8.8584  -15.9207   26.1347 C   0  0  0  0  0  0  0  0  0  0  0  0
    8.6709  -17.1696   26.2316 O   0  0  0  0  0  0  0  0  0  0  0  0
    9.6807  -15.3420   27.0618 O   0  0  0  0  0  0  0  0  0  0  0  0
  1  5  1  0
  1  2  1  0
  2  3  1  0
  4  5  1  0
  4  3  1  0
  6  7  2  0
  5  6  1  1
  8  6  1  0
  9 13  1  0
  9  8  1  0
  9 10  1  1
 11 10  1  0
 11 12  2  0
 13 21  1  0
 14 13  2  0
 15 11  1  0
 17 16  1  0
 18 17  1  0
 20 19  1  1
 19 18  1  0
 20 22  1  0
 21 20  1  0
 22 23  2  0
 22 24  1  0
M  END
$$$$
