RES.pdb
     RDKit          3D

 27 26  0  0  1  0  0  0  0  0999 V2000
    8.0643  -12.6567   20.6503 N   0  0  0  0  0  0  0  0  0  0  0  0
    9.0542  -12.7233   19.6398 C   0  0  0  0  0  0  0  0  0  0  0  0
   10.1361  -12.0191   19.6705 N   0  0  0  0  0  0  0  0  0  0  0  0
    8.8960  -13.5955   18.5110 N   0  0  0  0  0  0  0  0  0  0  0  0
    7.6688  -14.3430   18.3774 C   0  0  0  0  0  0  0  0  0  0  0  0
    7.8501  -15.7930   18.7657 C   0  0  0  0  0  0  0  0  0  0  0  0
    8.7406  -16.5539   17.8158 C   0  0  0  0  0  0  0  0  0  0  0  0
    8.9390  -17.9671   18.3435 C   0  0  2  0  0  0  0  0  0  0  0  0
    7.6529  -18.6315   18.1115 N   0  0  0  0  0  0  0  0  0  0  0  0
    9.1500  -17.9652   19.8183 C   0  0  0  0  0  0  0  0  0  0  0  0
    8.1988  -18.1002   20.6346 O   0  0  0  0  0  0  0  0  0  0  0  0
   10.7986  -12.1073   18.8488 N   0  0  0  0  0  0  0  0  0  0  0  0
   10.4243  -17.8127   20.4108 C   0  0  2  0  0  0  0  0  0  0  0  0
   10.7334  -17.9014   21.8009 C   0  0  0  0  0  0  0  0  0  0  0  0
   11.9487  -18.5850   22.1962 C   0  0  0  0  0  0  0  0  0  0  0  0
   13.2239  -17.8109   22.0418 C   0  0  0  0  0  0  0  0  0  0  0  0
   14.4058  -18.5867   22.4359 O   0  0  0  0  0  0  0  0  0  0  0  0
   15.1428  -18.3142   23.4095 C   0  0  0  0  0  0  0  0  0  0  0  0
   10.5023  -16.6064   22.4519 O   0  0  0  0  0  0  0  0  0  0  0  0
   11.4322  -15.7178   22.4792 O   0  0  0  0  0  0  0  0  0  0  0  0
   14.7740  -19.7247   21.6924 O   0  0  0  0  0  0  0  0  0  0  0  0
    7.0391  -14.9887   23.7641 C   0  0  0  0  0  0  0  0  0  0  0  0
    7.8301  -15.4426   24.7943 C   0  0  2  0  0  0  0  0  0  0  0  0
    9.3093  -15.5267   24.3550 N   0  0  0  0  0  0  0  0  0  0  0  0
    9.2888  -16.2191   23.0827 C   0  0  0  0  0  0  0  0  0  0  0  0
    9.9812  -16.2893   25.4248 O   0  0  0  0  0  0  0  0  0  0  0  0
   10.7467  -15.6832   26.2038 O   0  0  0  0  0  0  0  0  0  0  0  0
  2  1  1  0
  2  3  2  0
  4  5  1  0
  4  2  1  0
  6  5  1  0
  7  6  1  0
  8  9  1  1
  8 10  1  0
  8  7  1  0
 10 12  1  0
 10 11  2  0
 12 13  1  0
 13 14  1  6
 14 15  1  0
 15 16  1  0
 16 17  2  0
 16 20  1  0
 18 13  1  0
 19 18  2  0
 21 22  1  0
 23 22  1  6
 23 25  1  0
 23 24  1  0
 24 18  1  0
 25 27  1  0
 26 25  2  0
M  END
$$$$
