RES.pdb
     RDKit          3D

 27 26  0  0  1  0  0  0  0  0999 V2000
    8.8145  -14.2323   17.3613 N   0  0  0  0  0  0  0  0  0  0  0  0
    8.7651  -13.1699   18.2962 C   0  0  0  0  0  0  0  0  0  0  0  0
    9.7378  -12.3374   18.4639 N   0  0  0  0  0  0  0  0  0  0  0  0
    7.6060  -12.9660   19.1178 N   0  0  0  0  0  0  0  0  0  0  0  0
    7.6081  -13.4871   20.4636 C   0  0  0  0  0  0  0  0  0  0  0  0
    7.2098  -14.9453   20.5011 C   0  0  0  0  0  0  0  0  0  0  0  0
    7.3117  -15.5522   21.8778 C   0  0  0  0  0  0  0  0  0  0  0  0
    8.3006  -16.7080   21.8404 C   0  0  2  0  0  0  0  0  0  0  0  0
    7.4846  -17.8810   21.5122 N   0  0  0  0  0  0  0  0  0  0  0  0
    8.8794  -16.9637   23.1891 C   0  0  0  0  0  0  0  0  0  0  0  0
    8.1587  -17.1548   24.2057 O   0  0  0  0  0  0  0  0  0  0  0  0
    9.6806  -11.6816   19.2937 N   0  0  0  0  0  0  0  0  0  0  0  0
   10.2714  -17.0111   23.4302 C   0  0  2  0  0  0  0  0  0  0  0  0
   10.9113  -17.2895   24.6746 C   0  0  0  0  0  0  0  0  0  0  0  0
   12.1783  -17.9930   24.6579 C   0  0  0  0  0  0  0  0  0  0  0  0
   12.7652  -18.3316   25.9959 C   0  0  0  0  0  0  0  0  0  0  0  0
   14.0607  -19.0127   25.8874 O   0  0  0  0  0  0  0  0  0  0  0  0
   14.6496  -19.2530   24.8100 C   0  0  0  0  0  0  0  0  0  0  0  0
   10.8624  -16.1064   25.5419 O   0  0  0  0  0  0  0  0  0  0  0  0
   11.4519  -15.0183   25.1903 O   0  0  0  0  0  0  0  0  0  0  0  0
   14.7222  -19.4453   27.0531 O   0  0  0  0  0  0  0  0  0  0  0  0
    7.9514  -15.0480   27.7013 C   0  0  0  0  0  0  0  0  0  0  0  0
    8.9950  -14.1559   27.6119 C   0  0  1  0  0  0  0  0  0  0  0  0
   10.3527  -14.8926   27.6579 N   0  0  0  0  0  0  0  0  0  0  0  0
   10.1901  -16.0430   26.7927 C   0  0  0  0  0  0  0  0  0  0  0  0
   10.5436  -15.2504   29.0768 O   0  0  0  0  0  0  0  0  0  0  0  0
   10.4907  -14.3456   29.9362 O   0  0  0  0  0  0  0  0  0  0  0  0
  2  1  1  0
  2  3  2  0
  4  5  1  0
  4  2  1  0
  6  5  1  0
  7  6  1  0
  8  9  1  1
  8 10  1  0
  8  7  1  0
 10 12  1  0
 10 11  2  0
 12 13  1  0
 13 14  1  6
 14 15  1  0
 15 16  1  0
 16 17  2  0
 16 20  1  0
 18 13  1  0
 19 18  2  0
 21 22  1  0
 23 22  1  6
 23 25  1  0
 23 24  1  0
 24 18  1  0
 25 27  1  0
 26 25  2  0
M  END
$$$$
