RES.pdb
     RDKit          3D

 27 26  0  0  1  0  0  0  0  0999 V2000
    9.4170  -14.9702   16.6501 N   0  0  0  0  0  0  0  0  0  0  0  0
    8.6293  -13.7991   16.5346 C   0  0  0  0  0  0  0  0  0  0  0  0
    7.9096  -13.5377   15.4949 N   0  0  0  0  0  0  0  0  0  0  0  0
    8.5947  -12.8283   17.5913 N   0  0  0  0  0  0  0  0  0  0  0  0
    8.6859  -13.2850   18.9573 C   0  0  0  0  0  0  0  0  0  0  0  0
    7.4490  -14.0463   19.3778 C   0  0  0  0  0  0  0  0  0  0  0  0
    7.5101  -14.5350   20.8032 C   0  0  0  0  0  0  0  0  0  0  0  0
    8.9436  -14.9214   21.1359 C   0  0  2  0  0  0  0  0  0  0  0  0
    9.2697  -15.9858   20.1819 N   0  0  0  0  0  0  0  0  0  0  0  0
    9.0347  -15.5314   22.4921 C   0  0  0  0  0  0  0  0  0  0  0  0
    8.0523  -15.5671   23.2814 O   0  0  0  0  0  0  0  0  0  0  0  0
    7.3431  -12.6428   15.5066 N   0  0  0  0  0  0  0  0  0  0  0  0
   10.2215  -16.1125   22.9939 C   0  0  1  0  0  0  0  0  0  0  0  0
   10.4006  -16.7107   24.2767 C   0  0  0  0  0  0  0  0  0  0  0  0
   11.2786  -17.8585   24.3874 C   0  0  0  0  0  0  0  0  0  0  0  0
   11.1364  -18.9058   23.3234 C   0  0  0  0  0  0  0  0  0  0  0  0
   12.1169  -19.9889   23.4635 O   0  0  0  0  0  0  0  0  0  0  0  0
   12.0016  -21.1232   22.9485 C   0  0  0  0  0  0  0  0  0  0  0  0
   10.5962  -15.6712   25.2943 O   0  0  0  0  0  0  0  0  0  0  0  0
   11.6150  -14.8878   25.2353 O   0  0  0  0  0  0  0  0  0  0  0  0
   13.2837  -19.7806   24.2241 O   0  0  0  0  0  0  0  0  0  0  0  0
    7.6556  -14.2309   27.2875 C   0  0  0  0  0  0  0  0  0  0  0  0
    8.8153  -13.5108   27.4595 C   0  0  1  0  0  0  0  0  0  0  0  0
   10.0515  -14.4356   27.3889 N   0  0  0  0  0  0  0  0  0  0  0  0
    9.7234  -15.4326   26.3906 C   0  0  0  0  0  0  0  0  0  0  0  0
   10.1882  -14.9925   28.7485 O   0  0  0  0  0  0  0  0  0  0  0  0
   10.0535  -16.2239   28.9089 O   0  0  0  0  0  0  0  0  0  0  0  0
  2  1  1  0
  2  3  2  0
  4  5  1  0
  4  2  1  0
  6  5  1  0
  7  6  1  0
  8  9  1  6
  8 10  1  0
  8  7  1  0
 10 12  1  0
 10 11  2  0
 12 13  1  0
 13 14  1  1
 14 15  1  0
 15 16  1  0
 16 17  2  0
 16 20  1  0
 18 13  1  0
 19 18  2  0
 21 22  1  0
 23 22  1  6
 23 25  1  0
 23 24  1  0
 24 18  1  0
 25 27  1  0
 26 25  2  0
M  END
$$$$
