RES.pdb
     RDKit          3D

 27 26  0  0  1  0  0  0  0  0999 V2000
    7.3159  -15.2589   16.7718 N   0  0  0  0  0  0  0  0  0  0  0  0
    7.5621  -13.8654   16.7163 C   0  0  0  0  0  0  0  0  0  0  0  0
    7.8501  -13.2472   15.6199 N   0  0  0  0  0  0  0  0  0  0  0  0
    7.5015  -13.0597   17.9026 N   0  0  0  0  0  0  0  0  0  0  0  0
    7.3230  -13.7124   19.1773 C   0  0  0  0  0  0  0  0  0  0  0  0
    8.6217  -14.2815   19.7027 C   0  0  0  0  0  0  0  0  0  0  0  0
    8.4585  -15.0279   21.0029 C   0  0  0  0  0  0  0  0  0  0  0  0
    9.5065  -16.1282   21.0801 C   0  0  2  0  0  0  0  0  0  0  0  0
    8.8175  -17.2491   21.7268 N   0  0  0  0  0  0  0  0  0  0  0  0
   10.6240  -15.7432   21.9871 C   0  0  0  0  0  0  0  0  0  0  0  0
   11.3622  -14.7468   21.7602 O   0  0  0  0  0  0  0  0  0  0  0  0
    8.1448  -12.2327   15.6953 N   0  0  0  0  0  0  0  0  0  0  0  0
   10.9395  -16.4610   23.1633 C   0  0  1  0  0  0  0  0  0  0  0  0
   12.0361  -16.2156   24.0424 C   0  0  0  0  0  0  0  0  0  0  0  0
   11.9190  -16.6312   25.4259 C   0  0  0  0  0  0  0  0  0  0  0  0
   11.4574  -18.0392   25.6574 C   0  0  0  0  0  0  0  0  0  0  0  0
   11.4721  -18.4113   27.0770 O   0  0  0  0  0  0  0  0  0  0  0  0
   11.8340  -17.6558   28.0062 C   0  0  0  0  0  0  0  0  0  0  0  0
   13.2986  -16.5735   23.3849 O   0  0  0  0  0  0  0  0  0  0  0  0
   13.3931  -17.6648   22.7101 O   0  0  0  0  0  0  0  0  0  0  0  0
   11.0596  -19.7007   27.4653 O   0  0  0  0  0  0  0  0  0  0  0  0
   17.6377  -15.2482   21.7511 C   0  0  0  0  0  0  0  0  0  0  0  0
   16.4952  -14.9571   22.4603 C   0  0  2  0  0  0  0  0  0  0  0  0
   15.6848  -16.2413   22.7474 N   0  0  0  0  0  0  0  0  0  0  0  0
   14.4841  -15.7901   23.4205 C   0  0  0  0  0  0  0  0  0  0  0  0
   16.5624  -17.0615   23.6044 O   0  0  0  0  0  0  0  0  0  0  0  0
   16.3024  -17.1457   24.8232 O   0  0  0  0  0  0  0  0  0  0  0  0
  2  1  1  0
  2  3  2  0
  4  5  1  0
  4  2  1  0
  6  5  1  0
  7  6  1  0
  8  9  1  1
  8 10  1  0
  8  7  1  0
 10 12  1  0
 10 11  2  0
 12 13  1  0
 13 14  1  6
 14 15  1  0
 15 16  1  0
 16 17  2  0
 16 20  1  0
 18 13  1  0
 19 18  2  0
 21 22  1  0
 23 22  1  6
 23 25  1  0
 23 24  1  0
 24 18  1  0
 25 27  1  0
 26 25  2  0
M  END
$$$$
