RES.pdb
     RDKit          3D

 27 26  0  0  1  0  0  0  0  0999 V2000
    9.3445  -11.7672   18.7079 N   0  0  0  0  0  0  0  0  0  0  0  0
    8.4724  -12.8653   18.5106 C   0  0  0  0  0  0  0  0  0  0  0  0
    7.2963  -12.9306   19.0395 N   0  0  0  0  0  0  0  0  0  0  0  0
    8.8652  -13.9798   17.6959 N   0  0  0  0  0  0  0  0  0  0  0  0
    8.1054  -15.2039   17.7804 C   0  0  0  0  0  0  0  0  0  0  0  0
    8.0767  -15.7500   19.1901 C   0  0  0  0  0  0  0  0  0  0  0  0
    8.6007  -17.1606   19.2898 C   0  0  0  0  0  0  0  0  0  0  0  0
    8.6427  -17.5737   20.7536 C   0  0  2  0  0  0  0  0  0  0  0  0
    7.4628  -16.9399   21.3497 N   0  0  0  0  0  0  0  0  0  0  0  0
    9.8266  -16.9886   21.4432 C   0  0  0  0  0  0  0  0  0  0  0  0
    9.8502  -15.7930   21.8426 O   0  0  0  0  0  0  0  0  0  0  0  0
    6.7628  -13.8392   18.9310 N   0  0  0  0  0  0  0  0  0  0  0  0
   11.0058  -17.7243   21.7005 C   0  0  1  0  0  0  0  0  0  0  0  0
   12.1733  -17.2544   22.3728 C   0  0  0  0  0  0  0  0  0  0  0  0
   12.6879  -18.0271   23.4857 C   0  0  0  0  0  0  0  0  0  0  0  0
   13.9402  -17.5094   24.1282 C   0  0  0  0  0  0  0  0  0  0  0  0
   14.3712  -18.3302   25.2660 O   0  0  0  0  0  0  0  0  0  0  0  0
   13.8303  -19.4034   25.6137 C   0  0  0  0  0  0  0  0  0  0  0  0
   13.1770  -16.8190   21.3943 O   0  0  0  0  0  0  0  0  0  0  0  0
   13.6122  -17.6373   20.5021 O   0  0  0  0  0  0  0  0  0  0  0  0
   15.4657  -17.9173   26.0502 O   0  0  0  0  0  0  0  0  0  0  0  0
   13.4701  -13.8159   19.0188 C   0  0  0  0  0  0  0  0  0  0  0  0
   14.5391  -13.8046   19.8849 C   0  0  2  0  0  0  0  0  0  0  0  0
   14.8270  -15.2253   20.4206 N   0  0  0  0  0  0  0  0  0  0  0  0
   13.7393  -15.5150   21.3324 C   0  0  0  0  0  0  0  0  0  0  0  0
   16.1384  -15.1214   21.0891 O   0  0  0  0  0  0  0  0  0  0  0  0
   16.1937  -15.2688   22.3282 O   0  0  0  0  0  0  0  0  0  0  0  0
  2  1  1  0
  2  3  2  0
  4  5  1  0
  4  2  1  0
  6  5  1  0
  7  6  1  0
  8  9  1  1
  8 10  1  0
  8  7  1  0
 10 12  1  0
 10 11  2  0
 12 13  1  0
 13 14  1  6
 14 15  1  0
 15 16  1  0
 16 17  2  0
 16 20  1  0
 18 13  1  0
 19 18  2  0
 21 22  1  0
 23 22  1  6
 23 25  1  0
 23 24  1  0
 24 18  1  0
 25 27  1  0
 26 25  2  0
M  END
$$$$
