RES.pdb
     RDKit          3D

 27 26  0  0  1  0  0  0  0  0999 V2000
    8.0187  -12.0772   17.8731 N   0  0  0  0  0  0  0  0  0  0  0  0
    7.9984  -11.9740   19.2853 C   0  0  0  0  0  0  0  0  0  0  0  0
    8.6471  -11.0635   19.9313 N   0  0  0  0  0  0  0  0  0  0  0  0
    7.2392  -12.8973   20.0798 N   0  0  0  0  0  0  0  0  0  0  0  0
    6.5339  -13.9677   19.4168 C   0  0  0  0  0  0  0  0  0  0  0  0
    7.4679  -14.8362   18.6046 C   0  0  0  0  0  0  0  0  0  0  0  0
    8.6461  -15.3427   19.3980 C   0  0  0  0  0  0  0  0  0  0  0  0
    9.5622  -16.1357   18.4776 C   0  0  2  0  0  0  0  0  0  0  0  0
    8.9007  -17.4356   18.3294 N   0  0  0  0  0  0  0  0  0  0  0  0
   10.8751  -16.4049   19.1283 C   0  0  0  0  0  0  0  0  0  0  0  0
   11.1277  -17.4952   19.7086 O   0  0  0  0  0  0  0  0  0  0  0  0
    8.5938  -11.0845   20.9890 N   0  0  0  0  0  0  0  0  0  0  0  0
   11.9305  -15.4647   19.1444 C   0  0  2  0  0  0  0  0  0  0  0  0
   13.2272  -15.6496   19.7100 C   0  0  0  0  0  0  0  0  0  0  0  0
   14.3322  -14.8824   19.1704 C   0  0  0  0  0  0  0  0  0  0  0  0
   15.6653  -15.0917   19.8248 C   0  0  0  0  0  0  0  0  0  0  0  0
   16.7379  -14.3279   19.1764 O   0  0  0  0  0  0  0  0  0  0  0  0
   17.5300  -13.5663   19.7746 C   0  0  0  0  0  0  0  0  0  0  0  0
   13.1387  -15.6765   21.1748 O   0  0  0  0  0  0  0  0  0  0  0  0
   13.1682  -14.5804   21.8477 O   0  0  0  0  0  0  0  0  0  0  0  0
   16.9231  -14.4281   17.7839 O   0  0  0  0  0  0  0  0  0  0  0  0
   10.7632  -17.6107   23.2708 C   0  0  0  0  0  0  0  0  0  0  0  0
   11.9823  -17.8285   23.8701 C   0  0  2  0  0  0  0  0  0  0  0  0
   13.0176  -16.7790   23.4065 N   0  0  0  0  0  0  0  0  0  0  0  0
   13.0135  -16.8548   21.9599 C   0  0  0  0  0  0  0  0  0  0  0  0
   14.2930  -17.2098   24.0110 O   0  0  0  0  0  0  0  0  0  0  0  0
   15.1882  -17.6606   23.2657 O   0  0  0  0  0  0  0  0  0  0  0  0
  2  1  1  0
  2  3  2  0
  4  5  1  0
  4  2  1  0
  6  5  1  0
  7  6  1  0
  8  9  1  1
  8 10  1  0
  8  7  1  0
 10 12  1  0
 10 11  2  0
 12 13  1  0
 13 14  1  6
 14 15  1  0
 15 16  1  0
 16 17  2  0
 16 20  1  0
 18 13  1  0
 19 18  2  0
 21 22  1  0
 23 22  1  6
 23 25  1  0
 23 24  1  0
 24 18  1  0
 25 27  1  0
 26 25  2  0
M  END
$$$$
