RES.pdb
     RDKit          3D

 27 26  0  0  1  0  0  0  0  0999 V2000
    6.5191  -12.2067   19.0369 N   0  0  0  0  0  0  0  0  0  0  0  0
    7.2361  -12.8745   18.0145 C   0  0  0  0  0  0  0  0  0  0  0  0
    6.6957  -13.2322   16.8977 N   0  0  0  0  0  0  0  0  0  0  0  0
    8.6267  -13.1908   18.1771 N   0  0  0  0  0  0  0  0  0  0  0  0
    9.0109  -14.1218   19.2107 C   0  0  0  0  0  0  0  0  0  0  0  0
    7.8084  -14.7850   19.8435 C   0  0  0  0  0  0  0  0  0  0  0  0
    8.1726  -15.7311   20.9599 C   0  0  0  0  0  0  0  0  0  0  0  0
    9.2190  -16.7148   20.4574 C   0  0  2  0  0  0  0  0  0  0  0  0
    8.5101  -17.5353   19.4706 N   0  0  0  0  0  0  0  0  0  0  0  0
    9.6498  -17.6414   21.5415 C   0  0  0  0  0  0  0  0  0  0  0  0
    8.8480  -18.4301   22.1111 O   0  0  0  0  0  0  0  0  0  0  0  0
    7.3031  -13.7605   16.2093 N   0  0  0  0  0  0  0  0  0  0  0  0
   10.9815  -17.7064   22.0110 C   0  0  1  0  0  0  0  0  0  0  0  0
   11.4974  -18.6105   22.9868 C   0  0  0  0  0  0  0  0  0  0  0  0
   12.7921  -19.2174   22.7503 C   0  0  0  0  0  0  0  0  0  0  0  0
   13.0723  -19.6520   21.3425 C   0  0  0  0  0  0  0  0  0  0  0  0
   14.4244  -20.1991   21.1797 O   0  0  0  0  0  0  0  0  0  0  0  0
   15.4778  -19.5881   21.4664 C   0  0  0  0  0  0  0  0  0  0  0  0
   11.2974  -18.0648   24.3346 O   0  0  0  0  0  0  0  0  0  0  0  0
   11.7457  -16.8972   24.6359 O   0  0  0  0  0  0  0  0  0  0  0  0
   14.5946  -21.4993   20.6660 O   0  0  0  0  0  0  0  0  0  0  0  0
    8.3329  -18.8568   26.6572 C   0  0  0  0  0  0  0  0  0  0  0  0
    9.1782  -17.8503   27.0638 C   0  0  1  0  0  0  0  0  0  0  0  0
   10.6472  -18.2009   26.7365 N   0  0  0  0  0  0  0  0  0  0  0  0
   10.6194  -18.7337   25.3898 C   0  0  0  0  0  0  0  0  0  0  0  0
   11.0356  -19.1986   27.7521 O   0  0  0  0  0  0  0  0  0  0  0  0
   11.2155  -20.3814   27.3932 O   0  0  0  0  0  0  0  0  0  0  0  0
  2  1  1  0
  2  3  2  0
  4  5  1  0
  4  2  1  0
  6  5  1  0
  7  6  1  0
  8  9  1  6
  8 10  1  0
  8  7  1  0
 10 12  1  0
 10 11  2  0
 12 13  1  0
 13 14  1  6
 14 15  1  0
 15 16  1  0
 16 17  2  0
 16 20  1  0
 18 13  1  0
 19 18  2  0
 21 22  1  0
 23 22  1  6
 23 25  1  0
 23 24  1  0
 24 18  1  0
 25 27  1  0
 26 25  2  0
M  END
$$$$
