RES.pdb
     RDKit          3D

 27 26  0  0  1  0  0  0  0  0999 V2000
    7.1474  -14.2339   13.4264 N   0  0  0  0  0  0  0  0  0  0  0  0
    7.0791  -13.7062   14.7387 C   0  0  0  0  0  0  0  0  0  0  0  0
    7.0224  -12.4396   14.9832 N   0  0  0  0  0  0  0  0  0  0  0  0
    7.0699  -14.5745   15.8815 N   0  0  0  0  0  0  0  0  0  0  0  0
    7.0749  -13.9876   17.1999 C   0  0  0  0  0  0  0  0  0  0  0  0
    8.4031  -13.3400   17.5205 C   0  0  0  0  0  0  0  0  0  0  0  0
    9.2484  -14.1576   18.4645 C   0  0  0  0  0  0  0  0  0  0  0  0
   10.4888  -14.6427   17.7288 C   0  0  2  0  0  0  0  0  0  0  0  0
   10.0020  -15.7089   16.8481 N   0  0  0  0  0  0  0  0  0  0  0  0
   11.4543  -15.2815   18.6666 C   0  0  0  0  0  0  0  0  0  0  0  0
   11.2028  -16.3677   19.2550 O   0  0  0  0  0  0  0  0  0  0  0  0
    7.0078  -12.1393   15.9988 N   0  0  0  0  0  0  0  0  0  0  0  0
   12.7173  -14.7220   18.9661 C   0  0  1  0  0  0  0  0  0  0  0  0
   13.7771  -15.3488   19.6870 C   0  0  0  0  0  0  0  0  0  0  0  0
   15.1429  -15.0611   19.2967 C   0  0  0  0  0  0  0  0  0  0  0  0
   15.3565  -13.7983   18.5164 C   0  0  0  0  0  0  0  0  0  0  0  0
   16.7119  -13.7002   17.9620 O   0  0  0  0  0  0  0  0  0  0  0  0
   16.9777  -13.3404   16.7936 C   0  0  0  0  0  0  0  0  0  0  0  0
   13.5109  -15.2870   21.1291 O   0  0  0  0  0  0  0  0  0  0  0  0
   14.2701  -14.5919   21.9007 O   0  0  0  0  0  0  0  0  0  0  0  0
   17.8208  -14.0267   18.7664 O   0  0  0  0  0  0  0  0  0  0  0  0
   10.1823  -16.8267   22.6955 C   0  0  0  0  0  0  0  0  0  0  0  0
   10.8613  -16.0057   23.5660 C   0  0  1  0  0  0  0  0  0  0  0  0
   12.3703  -15.9807   23.2335 N   0  0  0  0  0  0  0  0  0  0  0  0
   12.4399  -15.9510   21.7869 C   0  0  0  0  0  0  0  0  0  0  0  0
   12.9097  -17.2230   23.8194 O   0  0  0  0  0  0  0  0  0  0  0  0
   13.2642  -18.1433   23.0529 O   0  0  0  0  0  0  0  0  0  0  0  0
  2  1  1  0
  2  3  2  0
  4  5  1  0
  4  2  1  0
  6  5  1  0
  7  6  1  0
  8  9  1  6
  8 10  1  0
  8  7  1  0
 10 12  1  0
 10 11  2  0
 12 13  1  0
 13 14  1  6
 14 15  1  0
 15 16  1  0
 16 17  2  0
 16 20  1  0
 18 13  1  0
 19 18  2  0
 21 22  1  0
 23 22  1  1
 23 25  1  0
 23 24  1  0
 24 18  1  0
 25 27  1  0
 26 25  2  0
M  END
$$$$
