RES.pdb
     RDKit          3D

 27 26  0  0  1  0  0  0  0  0999 V2000
    7.0335  -12.9419   15.5237 N   0  0  0  0  0  0  0  0  0  0  0  0
    8.1016  -13.8013   15.8784 C   0  0  0  0  0  0  0  0  0  0  0  0
    9.1923  -13.8844   15.1923 N   0  0  0  0  0  0  0  0  0  0  0  0
    8.0182  -14.6373   17.0421 N   0  0  0  0  0  0  0  0  0  0  0  0
    7.0536  -14.3103   18.0646 C   0  0  0  0  0  0  0  0  0  0  0  0
    7.6696  -13.4891   19.1747 C   0  0  0  0  0  0  0  0  0  0  0  0
    8.1149  -14.3217   20.3506 C   0  0  0  0  0  0  0  0  0  0  0  0
    8.7596  -15.6013   19.8389 C   0  0  2  0  0  0  0  0  0  0  0  0
    7.6308  -16.4714   19.4954 N   0  0  0  0  0  0  0  0  0  0  0  0
    9.5098  -16.2956   20.9227 C   0  0  0  0  0  0  0  0  0  0  0  0
    8.9341  -17.0020   21.7939 O   0  0  0  0  0  0  0  0  0  0  0  0
    9.8923  -14.6264   15.4774 N   0  0  0  0  0  0  0  0  0  0  0  0
   10.9148  -16.2158   21.0561 C   0  0  1  0  0  0  0  0  0  0  0  0
   11.7257  -16.9443   21.9765 C   0  0  0  0  0  0  0  0  0  0  0  0
   13.1194  -17.1644   21.6455 C   0  0  0  0  0  0  0  0  0  0  0  0
   13.9098  -17.9854   22.6204 C   0  0  0  0  0  0  0  0  0  0  0  0
   15.3138  -18.1380   22.2211 O   0  0  0  0  0  0  0  0  0  0  0  0
   16.2839  -17.6275   22.8242 C   0  0  0  0  0  0  0  0  0  0  0  0
   11.4720  -16.4824   23.3464 O   0  0  0  0  0  0  0  0  0  0  0  0
   12.0333  -15.4112   23.7853 O   0  0  0  0  0  0  0  0  0  0  0  0
   15.6374  -18.9032   21.0839 O   0  0  0  0  0  0  0  0  0  0  0  0
    8.3832  -17.6656   25.5772 C   0  0  0  0  0  0  0  0  0  0  0  0
    9.0958  -16.5742   26.0174 C   0  0  1  0  0  0  0  0  0  0  0  0
   10.5939  -16.7186   25.6667 N   0  0  0  0  0  0  0  0  0  0  0  0
   10.6208  -17.1347   24.2794 C   0  0  0  0  0  0  0  0  0  0  0  0
   11.1047  -17.7455   26.5951 O   0  0  0  0  0  0  0  0  0  0  0  0
   11.4171  -18.8653   26.1384 O   0  0  0  0  0  0  0  0  0  0  0  0
  2  1  1  0
  2  3  2  0
  4  5  1  0
  4  2  1  0
  6  5  1  0
  7  6  1  0
  8  9  1  1
  8 10  1  0
  8  7  1  0
 10 12  1  0
 10 11  2  0
 12 13  1  0
 13 14  1  6
 14 15  1  0
 15 16  1  0
 16 17  2  0
 16 20  1  0
 18 13  1  0
 19 18  2  0
 21 22  1  0
 23 22  1  6
 23 25  1  0
 23 24  1  0
 24 18  1  0
 25 27  1  0
 26 25  2  0
M  END
$$$$
