RES.pdb
     RDKit          3D

 27 26  0  0  1  0  0  0  0  0999 V2000
    6.9318  -13.6047   15.7113 N   0  0  0  0  0  0  0  0  0  0  0  0
    8.1071  -13.6748   16.4982 C   0  0  0  0  0  0  0  0  0  0  0  0
    9.2796  -13.8655   15.9921 N   0  0  0  0  0  0  0  0  0  0  0  0
    8.0466  -13.5340   17.9253 N   0  0  0  0  0  0  0  0  0  0  0  0
    8.6000  -14.5806   18.7506 C   0  0  0  0  0  0  0  0  0  0  0  0
    7.5186  -15.3904   19.4295 C   0  0  0  0  0  0  0  0  0  0  0  0
    7.6340  -15.3903   20.9331 C   0  0  0  0  0  0  0  0  0  0  0  0
    9.1051  -15.4295   21.3195 C   0  0  2  0  0  0  0  0  0  0  0  0
    9.6381  -16.6046   20.6234 N   0  0  0  0  0  0  0  0  0  0  0  0
    9.2712  -15.6938   22.7763 C   0  0  0  0  0  0  0  0  0  0  0  0
    8.7556  -14.9544   23.6576 O   0  0  0  0  0  0  0  0  0  0  0  0
   10.0756  -14.0561   16.6644 N   0  0  0  0  0  0  0  0  0  0  0  0
   10.0145  -16.7865   23.2779 C   0  0  2  0  0  0  0  0  0  0  0  0
   10.2633  -17.0892   24.6498 C   0  0  0  0  0  0  0  0  0  0  0  0
   11.0251  -18.2805   24.9674 C   0  0  0  0  0  0  0  0  0  0  0  0
   11.2333  -18.5641   26.4253 C   0  0  0  0  0  0  0  0  0  0  0  0
   12.0487  -19.7625   26.6559 O   0  0  0  0  0  0  0  0  0  0  0  0
   12.4351  -20.1539   27.7796 C   0  0  0  0  0  0  0  0  0  0  0  0
   10.6695  -15.8752   25.3678 O   0  0  0  0  0  0  0  0  0  0  0  0
   11.7821  -15.2946   25.0847 O   0  0  0  0  0  0  0  0  0  0  0  0
   12.4486  -20.5560   25.5633 O   0  0  0  0  0  0  0  0  0  0  0  0
    8.1969  -13.4361   27.1652 C   0  0  0  0  0  0  0  0  0  0  0  0
    9.4953  -12.9968   27.0462 C   0  0  1  0  0  0  0  0  0  0  0  0
   10.4878  -14.1737   27.1796 N   0  0  0  0  0  0  0  0  0  0  0  0
    9.9129  -15.2462   26.3937 C   0  0  0  0  0  0  0  0  0  0  0  0
   10.5361  -14.4688   28.6247 O   0  0  0  0  0  0  0  0  0  0  0  0
   10.9319  -13.5784   29.4061 O   0  0  0  0  0  0  0  0  0  0  0  0
  2  1  1  0
  2  3  2  0
  4  5  1  0
  4  2  1  0
  6  5  1  0
  7  6  1  0
  8  9  1  6
  8 10  1  0
  8  7  1  0
 10 12  1  0
 10 11  2  0
 12 13  1  0
 13 14  1  6
 14 15  1  0
 15 16  1  0
 16 17  2  0
 16 20  1  0
 18 13  1  0
 19 18  2  0
 21 22  1  0
 23 22  1  6
 23 25  1  0
 23 24  1  0
 24 18  1  0
 25 27  1  0
 26 25  2  0
M  END
$$$$
