RES.pdb
     RDKit          3D

 27 26  0  0  1  0  0  0  0  0999 V2000
    8.7183  -14.8026   15.8147 N   0  0  0  0  0  0  0  0  0  0  0  0
    8.2255  -13.7643   16.6419 C   0  0  0  0  0  0  0  0  0  0  0  0
    7.3411  -12.9113   16.2450 N   0  0  0  0  0  0  0  0  0  0  0  0
    8.6974  -13.6096   17.9886 N   0  0  0  0  0  0  0  0  0  0  0  0
    7.7409  -13.3263   19.0315 C   0  0  0  0  0  0  0  0  0  0  0  0
    7.1057  -14.5892   19.5681 C   0  0  0  0  0  0  0  0  0  0  0  0
    7.9830  -15.3219   20.5519 C   0  0  0  0  0  0  0  0  0  0  0  0
    8.6477  -16.4957   19.8481 C   0  0  2  0  0  0  0  0  0  0  0  0
    7.5763  -17.4832   19.6858 N   0  0  0  0  0  0  0  0  0  0  0  0
    9.6761  -17.1317   20.7185 C   0  0  0  0  0  0  0  0  0  0  0  0
    9.3841  -18.0125   21.5720 O   0  0  0  0  0  0  0  0  0  0  0  0
    6.9720  -12.2231   16.9604 N   0  0  0  0  0  0  0  0  0  0  0  0
   11.0482  -16.7983   20.6541 C   0  0  2  0  0  0  0  0  0  0  0  0
   12.1071  -17.4023   21.3954 C   0  0  0  0  0  0  0  0  0  0  0  0
   13.4480  -17.3564   20.8473 C   0  0  0  0  0  0  0  0  0  0  0  0
   14.5015  -18.1013   21.6117 C   0  0  0  0  0  0  0  0  0  0  0  0
   15.8292  -17.9908   20.9961 O   0  0  0  0  0  0  0  0  0  0  0  0
   16.0660  -17.4026   19.9175 C   0  0  0  0  0  0  0  0  0  0  0  0
   11.9971  -17.0434   22.8144 O   0  0  0  0  0  0  0  0  0  0  0  0
   12.1977  -15.8311   23.1953 O   0  0  0  0  0  0  0  0  0  0  0  0
   16.9434  -18.5750   21.6290 O   0  0  0  0  0  0  0  0  0  0  0  0
    9.2815  -17.7783   25.1827 C   0  0  0  0  0  0  0  0  0  0  0  0
   10.2826  -16.8782   25.4667 C   0  0  1  0  0  0  0  0  0  0  0  0
   11.6730  -17.5136   25.2402 N   0  0  0  0  0  0  0  0  0  0  0  0
   11.6705  -17.9504   23.8590 C   0  0  0  0  0  0  0  0  0  0  0  0
   11.7441  -18.6274   26.2055 O   0  0  0  0  0  0  0  0  0  0  0  0
   11.7316  -19.7988   25.7721 O   0  0  0  0  0  0  0  0  0  0  0  0
  2  1  1  0
  2  3  2  0
  4  5  1  0
  4  2  1  0
  6  5  1  0
  7  6  1  0
  8  9  1  1
  8 10  1  0
  8  7  1  0
 10 12  1  0
 10 11  2  0
 12 13  1  0
 13 14  1  6
 14 15  1  0
 15 16  1  0
 16 17  2  0
 16 20  1  0
 18 13  1  0
 19 18  2  0
 21 22  1  0
 23 22  1  6
 23 25  1  0
 23 24  1  0
 24 18  1  0
 25 27  1  0
 26 25  2  0
M  END
$$$$
