RES.pdb
     RDKit          3D

 27 26  0  0  1  0  0  0  0  0999 V2000
    7.7919  -14.5560   13.9857 N   0  0  0  0  0  0  0  0  0  0  0  0
    7.9097  -13.2389   14.4924 C   0  0  0  0  0  0  0  0  0  0  0  0
    8.1531  -12.2175   13.7409 N   0  0  0  0  0  0  0  0  0  0  0  0
    7.7608  -12.9741   15.8952 N   0  0  0  0  0  0  0  0  0  0  0  0
    7.2645  -14.0244   16.7515 C   0  0  0  0  0  0  0  0  0  0  0  0
    8.2754  -15.1363   16.9188 C   0  0  0  0  0  0  0  0  0  0  0  0
    8.5412  -15.4832   18.3621 C   0  0  0  0  0  0  0  0  0  0  0  0
   10.0290  -15.3341   18.6440 C   0  0  2  0  0  0  0  0  0  0  0  0
   10.6822  -16.1620   17.6256 N   0  0  0  0  0  0  0  0  0  0  0  0
   10.3884  -15.9289   19.9619 C   0  0  0  0  0  0  0  0  0  0  0  0
    9.8754  -15.5308   21.0425 O   0  0  0  0  0  0  0  0  0  0  0  0
    8.2237  -11.2715   14.2120 N   0  0  0  0  0  0  0  0  0  0  0  0
   11.3257  -16.9779   20.1001 C   0  0  2  0  0  0  0  0  0  0  0  0
   11.6793  -17.6505   21.3077 C   0  0  0  0  0  0  0  0  0  0  0  0
   12.8680  -18.4796   21.3142 C   0  0  0  0  0  0  0  0  0  0  0  0
   13.2357  -19.1199   20.0088 C   0  0  0  0  0  0  0  0  0  0  0  0
   14.5885  -19.6890   20.0210 O   0  0  0  0  0  0  0  0  0  0  0  0
   14.8449  -20.9133   19.9994 C   0  0  0  0  0  0  0  0  0  0  0  0
   11.5445  -16.7387   22.4500 O   0  0  0  0  0  0  0  0  0  0  0  0
   12.3410  -15.7367   22.5790 O   0  0  0  0  0  0  0  0  0  0  0  0
   15.7060  -18.8328   20.0617 O   0  0  0  0  0  0  0  0  0  0  0  0
    8.3131  -16.2674   24.6882 C   0  0  0  0  0  0  0  0  0  0  0  0
    9.3655  -15.4161   24.9349 C   0  0  1  0  0  0  0  0  0  0  0  0
   10.7161  -16.1363   24.7219 N   0  0  0  0  0  0  0  0  0  0  0  0
   10.5681  -16.8602   23.4759 C   0  0  0  0  0  0  0  0  0  0  0  0
   10.8666  -17.0177   25.8958 O   0  0  0  0  0  0  0  0  0  0  0  0
   10.7888  -18.2536   25.7322 O   0  0  0  0  0  0  0  0  0  0  0  0
  2  1  1  0
  2  3  2  0
  4  5  1  0
  4  2  1  0
  6  5  1  0
  7  6  1  0
  8  9  1  6
  8 10  1  0
  8  7  1  0
 10 12  1  0
 10 11  2  0
 12 13  1  0
 13 14  1  6
 14 15  1  0
 15 16  1  0
 16 17  2  0
 16 20  1  0
 18 13  1  0
 19 18  2  0
 21 22  1  0
 23 22  1  6
 23 25  1  0
 23 24  1  0
 24 18  1  0
 25 27  1  0
 26 25  2  0
M  END
$$$$
