RES.pdb
     RDKit          3D

 27 26  0  0  1  0  0  0  0  0999 V2000
    8.0099  -12.3714   17.3423 N   0  0  0  0  0  0  0  0  0  0  0  0
    7.9763  -13.7200   16.9115 C   0  0  0  0  0  0  0  0  0  0  0  0
    8.5039  -14.1150   15.8012 N   0  0  0  0  0  0  0  0  0  0  0  0
    7.3399  -14.7310   17.7072 N   0  0  0  0  0  0  0  0  0  0  0  0
    6.8367  -14.3737   19.0117 C   0  0  0  0  0  0  0  0  0  0  0  0
    7.8747  -13.6416   19.8320 C   0  0  0  0  0  0  0  0  0  0  0  0
    8.0556  -14.2211   21.2125 C   0  0  0  0  0  0  0  0  0  0  0  0
    8.8474  -15.5162   21.1088 C   0  0  2  0  0  0  0  0  0  0  0  0
    8.0012  -16.4023   20.3036 N   0  0  0  0  0  0  0  0  0  0  0  0
    8.9885  -16.1678   22.4412 C   0  0  0  0  0  0  0  0  0  0  0  0
    8.0614  -16.8461   22.9604 O   0  0  0  0  0  0  0  0  0  0  0  0
    8.3776  -15.1327   15.5362 N   0  0  0  0  0  0  0  0  0  0  0  0
   10.1649  -16.0755   23.2195 C   0  0  1  0  0  0  0  0  0  0  0  0
   10.4089  -16.7121   24.4729 C   0  0  0  0  0  0  0  0  0  0  0  0
   11.2666  -17.8800   24.4992 C   0  0  0  0  0  0  0  0  0  0  0  0
   12.4846  -17.8267   23.6258 C   0  0  0  0  0  0  0  0  0  0  0  0
   13.3026  -19.0414   23.7239 O   0  0  0  0  0  0  0  0  0  0  0  0
   14.0789  -19.3012   24.6700 C   0  0  0  0  0  0  0  0  0  0  0  0
   10.6891  -15.7049   25.5032 O   0  0  0  0  0  0  0  0  0  0  0  0
   11.6084  -14.8243   25.3179 O   0  0  0  0  0  0  0  0  0  0  0  0
   13.2418  -20.0088   22.7022 O   0  0  0  0  0  0  0  0  0  0  0  0
    8.5809  -13.3467   26.7899 C   0  0  0  0  0  0  0  0  0  0  0  0
    9.1385  -13.7605   27.9777 C   0  0  2  0  0  0  0  0  0  0  0  0
   10.4042  -14.6101   27.7237 N   0  0  0  0  0  0  0  0  0  0  0  0
   10.0061  -15.6015   26.7455 C   0  0  0  0  0  0  0  0  0  0  0  0
   10.7439  -15.1889   29.0379 O   0  0  0  0  0  0  0  0  0  0  0  0
   11.0049  -14.4167   29.9844 O   0  0  0  0  0  0  0  0  0  0  0  0
  2  1  1  0
  2  3  2  0
  4  5  1  0
  4  2  1  0
  6  5  1  0
  7  6  1  0
  8  9  1  6
  8 10  1  0
  8  7  1  0
 10 12  1  0
 10 11  2  0
 12 13  1  0
 13 14  1  1
 14 15  1  0
 15 16  1  0
 16 17  2  0
 16 20  1  0
 18 13  1  0
 19 18  2  0
 21 22  1  0
 23 22  1  6
 23 25  1  0
 23 24  1  0
 24 18  1  0
 25 27  1  0
 26 25  2  0
M  END
$$$$
