KFQ.pdb
     RDKit          3D

 30 30  0  0  1  0  0  0  0  0999 V2000
    7.6059  -16.5707   20.7085 N   0  0  0  0  0  0  0  0  0  0  0  0
    8.9700  -16.0481   20.6533 C   0  0  1  0  0  0  0  0  0  0  0  0
    9.0308  -14.8801   19.6679 C   0  0  0  0  0  0  0  0  0  0  0  0
    8.4948  -15.3814   18.3515 C   0  0  0  0  0  0  0  0  0  0  0  0
    8.5424  -14.2735   17.3396 C   0  0  0  0  0  0  0  0  0  0  0  0
    8.0405  -14.7558   16.0152 C   0  0  0  0  0  0  0  0  0  0  0  0
    8.1187  -13.6543   15.0620 N   0  0  0  0  0  0  0  0  0  0  0  0
    9.2556  -15.4376   21.9934 C   0  0  0  0  0  0  0  0  0  0  0  0
   10.4081  -14.9820   22.2884 O   0  0  0  0  0  0  0  0  0  0  0  0
    8.2694  -15.3352   22.9953 N   0  0  0  0  0  0  0  0  0  0  0  0
    8.4608  -14.4976   24.2147 C   0  0  1  0  0  0  0  0  0  0  0  0
    7.1449  -13.8279   24.3744 C   0  0  0  0  0  0  0  0  0  0  0  0
    6.9387  -12.9271   25.4872 C   0  0  0  0  0  0  0  0  0  0  0  0
    5.8909  -13.0357   26.3936 C   0  0  0  0  0  0  0  0  0  0  0  0
    5.7779  -12.1518   27.4638 C   0  0  0  0  0  0  0  0  0  0  0  0
    6.6900  -11.1552   27.6544 C   0  0  0  0  0  0  0  0  0  0  0  0
    7.7256  -11.0222   26.7853 C   0  0  0  0  0  0  0  0  0  0  0  0
    7.8381  -11.9109   25.7104 C   0  0  0  0  0  0  0  0  0  0  0  0
    8.8477  -15.4457   25.2490 C   0  0  0  0  0  0  0  0  0  0  0  0
    9.3870  -15.0557   26.3065 O   0  0  0  0  0  0  0  0  0  0  0  0
    6.1428  -21.0889   25.5654 N   0  0  0  0  0  0  0  0  0  0  0  0
    6.8431  -21.0589   26.7910 C   0  0  0  0  0  0  0  0  0  0  0  0
    6.7332  -21.9973   27.6093 O   0  0  0  0  0  0  0  0  0  0  0  0
    7.7111  -19.9120   27.1083 C   0  0  0  0  0  0  0  0  0  0  0  0
    7.6783  -18.8980   25.9697 C   0  0  0  0  0  0  0  0  0  0  0  0
    8.6192  -17.7170   26.2817 C   0  0  2  0  0  0  0  0  0  0  0  0
    8.6249  -16.8340   25.1015 N   0  0  0  0  0  0  0  0  0  0  0  0
    9.9952  -18.2047   26.4857 C   0  0  0  0  0  0  0  0  0  0  0  0
   10.9821  -18.0249   25.5258 O   0  0  0  0  0  0  0  0  0  0  0  0
   10.3521  -18.8107   27.5380 O   0  0  0  0  0  0  0  0  0  0  0  0
  2  1  1  1
  2  8  1  0
  2  3  1  0
  3  4  1  0
  4  5  1  0
  5  6  1  0
  7  6  1  0
  8  9  2  0
 10 11  1  0
 10  8  1  0
 11 12  1  1
 12 13  1  0
 13 18  2  0
 13 14  1  0
 14 15  2  0
 15 16  1  0
 17 16  2  0
 18 17  1  0
 19 11  1  0
 20 19  2  0
 22 21  1  0
 22 23  2  0
 24 22  1  0
 26 25  1  6
 25 24  1  0
 26 27  1  0
 27 19  1  0
 28 29  1  0
 28 26  1  0
 30 28  2  0
M  END
$$$$
