KFQ.pdb
     RDKit          3D

 30 30  0  0  1  0  0  0  0  0999 V2000
    8.3588  -13.0094   18.2765 N   0  0  0  0  0  0  0  0  0  0  0  0
    7.7994  -14.1479   19.0029 C   0  0  1  0  0  0  0  0  0  0  0  0
    8.3668  -15.4480   18.4314 C   0  0  0  0  0  0  0  0  0  0  0  0
    7.8074  -15.6032   17.0406 C   0  0  0  0  0  0  0  0  0  0  0  0
    8.3580  -16.8535   16.4185 C   0  0  0  0  0  0  0  0  0  0  0  0
    8.0262  -16.8995   14.9603 C   0  0  0  0  0  0  0  0  0  0  0  0
    8.5799  -18.1267   14.3985 N   0  0  0  0  0  0  0  0  0  0  0  0
    8.3346  -14.0755   20.4024 C   0  0  0  0  0  0  0  0  0  0  0  0
    9.5835  -13.9856   20.6365 O   0  0  0  0  0  0  0  0  0  0  0  0
    7.4891  -14.1028   21.5299 N   0  0  0  0  0  0  0  0  0  0  0  0
    8.0156  -13.9765   22.9198 C   0  0  1  0  0  0  0  0  0  0  0  0
    7.0074  -13.1129   23.5856 C   0  0  0  0  0  0  0  0  0  0  0  0
    7.1765  -12.7731   24.9815 C   0  0  0  0  0  0  0  0  0  0  0  0
    8.1835  -11.9468   25.4657 C   0  0  0  0  0  0  0  0  0  0  0  0
    8.2611  -11.6343   26.8205 C   0  0  0  0  0  0  0  0  0  0  0  0
    7.3534  -12.1285   27.7112 C   0  0  0  0  0  0  0  0  0  0  0  0
    6.3574  -12.9397   27.2693 C   0  0  0  0  0  0  0  0  0  0  0  0
    6.2804  -13.2530   25.9077 C   0  0  0  0  0  0  0  0  0  0  0  0
    8.1235  -15.3487   23.3930 C   0  0  0  0  0  0  0  0  0  0  0  0
    7.6245  -16.2918   22.7429 O   0  0  0  0  0  0  0  0  0  0  0  0
   12.2105  -17.6224   21.5479 N   0  0  0  0  0  0  0  0  0  0  0  0
   12.3997  -18.3875   22.7193 C   0  0  0  0  0  0  0  0  0  0  0  0
   13.3627  -19.1787   22.8134 O   0  0  0  0  0  0  0  0  0  0  0  0
   11.4542  -18.2522   23.8406 C   0  0  0  0  0  0  0  0  0  0  0  0
   10.5699  -17.0265   23.6367 C   0  0  0  0  0  0  0  0  0  0  0  0
    9.4938  -16.9575   24.7388 C   0  0  2  0  0  0  0  0  0  0  0  0
    8.7971  -15.6666   24.5946 N   0  0  0  0  0  0  0  0  0  0  0  0
   10.1280  -16.9806   26.0693 C   0  0  0  0  0  0  0  0  0  0  0  0
   10.4436  -18.1736   26.7056 O   0  0  0  0  0  0  0  0  0  0  0  0
   10.4175  -15.9236   26.7023 O   0  0  0  0  0  0  0  0  0  0  0  0
  2  1  1  6
  2  8  1  0
  2  3  1  0
  3  4  1  0
  4  5  1  0
  5  6  1  0
  7  6  1  0
  8  9  2  0
 10 11  1  0
 10  8  1  0
 11 12  1  1
 12 13  1  0
 13 18  2  0
 13 14  1  0
 14 15  2  0
 15 16  1  0
 17 16  2  0
 18 17  1  0
 19 11  1  0
 20 19  2  0
 22 21  1  0
 22 23  2  0
 24 22  1  0
 26 25  1  6
 25 24  1  0
 26 27  1  0
 27 19  1  0
 28 29  1  0
 28 26  1  0
 30 28  2  0
M  END
$$$$
