KFQ.pdb
     RDKit          3D

 30 30  0  0  1  0  0  0  0  0999 V2000
    7.3998  -16.1125   19.4433 N   0  0  0  0  0  0  0  0  0  0  0  0
    8.4935  -15.1548   19.2899 C   0  0  1  0  0  0  0  0  0  0  0  0
    7.9818  -13.9047   18.5728 C   0  0  0  0  0  0  0  0  0  0  0  0
    7.5456  -14.3306   17.1944 C   0  0  0  0  0  0  0  0  0  0  0  0
    8.4103  -13.6582   16.1680 C   0  0  0  0  0  0  0  0  0  0  0  0
    7.9830  -14.0508   14.7889 C   0  0  0  0  0  0  0  0  0  0  0  0
    8.8975  -13.4407   13.8300 N   0  0  0  0  0  0  0  0  0  0  0  0
    8.8579  -14.6874   20.6678 C   0  0  0  0  0  0  0  0  0  0  0  0
    9.9602  -14.0936   20.9025 O   0  0  0  0  0  0  0  0  0  0  0  0
    8.0048  -14.8785   21.7736 N   0  0  0  0  0  0  0  0  0  0  0  0
    8.3531  -14.3882   23.1387 C   0  0  1  0  0  0  0  0  0  0  0  0
    7.0563  -13.8825   23.6568 C   0  0  0  0  0  0  0  0  0  0  0  0
    6.9969  -13.3169   24.9868 C   0  0  0  0  0  0  0  0  0  0  0  0
    7.3597  -12.0114   25.2951 C   0  0  0  0  0  0  0  0  0  0  0  0
    7.2402  -11.5249   26.5944 C   0  0  0  0  0  0  0  0  0  0  0  0
    6.7648  -12.3131   27.6015 C   0  0  0  0  0  0  0  0  0  0  0  0
    6.4022  -13.5943   27.3325 C   0  0  0  0  0  0  0  0  0  0  0  0
    6.5226  -14.0821   26.0266 C   0  0  0  0  0  0  0  0  0  0  0  0
    8.9222  -15.5492   23.8069 C   0  0  0  0  0  0  0  0  0  0  0  0
    8.4581  -16.6927   23.6112 O   0  0  0  0  0  0  0  0  0  0  0  0
   15.3385  -18.5030   24.3804 N   0  0  0  0  0  0  0  0  0  0  0  0
   14.4951  -17.3813   24.5350 C   0  0  0  0  0  0  0  0  0  0  0  0
   14.9006  -16.2357   24.2427 O   0  0  0  0  0  0  0  0  0  0  0  0
   13.1251  -17.5624   25.0449 C   0  0  0  0  0  0  0  0  0  0  0  0
   12.2256  -16.4373   24.5441 C   0  0  0  0  0  0  0  0  0  0  0  0
   10.7927  -16.6221   25.0827 C   0  0  2  0  0  0  0  0  0  0  0  0
   10.0178  -15.4304   24.6924 N   0  0  0  0  0  0  0  0  0  0  0  0
   10.8084  -16.6864   26.5552 C   0  0  0  0  0  0  0  0  0  0  0  0
   11.2731  -17.8069   27.2309 O   0  0  0  0  0  0  0  0  0  0  0  0
   10.4018  -15.7328   27.2813 O   0  0  0  0  0  0  0  0  0  0  0  0
  2  1  1  1
  2  8  1  0
  2  3  1  0
  3  4  1  0
  4  5  1  0
  5  6  1  0
  7  6  1  0
  8  9  2  0
 10 11  1  0
 10  8  1  0
 11 12  1  1
 12 13  1  0
 13 18  2  0
 13 14  1  0
 14 15  2  0
 15 16  1  0
 17 16  2  0
 18 17  1  0
 19 11  1  0
 20 19  2  0
 22 21  1  0
 22 23  2  0
 24 22  1  0
 26 25  1  1
 25 24  1  0
 26 27  1  0
 27 19  1  0
 28 29  1  0
 28 26  1  0
 30 28  2  0
M  END
$$$$
