KFQ.pdb
     RDKit          3D

 30 30  0  0  1  0  0  0  0  0999 V2000
    8.0472  -17.2628   20.5376 N   0  0  0  0  0  0  0  0  0  0  0  0
    9.1384  -16.3421   20.2238 C   0  0  1  0  0  0  0  0  0  0  0  0
    8.7033  -15.3961   19.1038 C   0  0  0  0  0  0  0  0  0  0  0  0
    9.1453  -16.0153   17.8027 C   0  0  0  0  0  0  0  0  0  0  0  0
    8.0955  -16.9768   17.3264 C   0  0  0  0  0  0  0  0  0  0  0  0
    8.4739  -17.5433   15.9943 C   0  0  0  0  0  0  0  0  0  0  0  0
    7.4907  -18.5564   15.6264 N   0  0  0  0  0  0  0  0  0  0  0  0
    9.3217  -15.4609   21.4239 C   0  0  0  0  0  0  0  0  0  0  0  0
   10.2799  -14.6249   21.4991 O   0  0  0  0  0  0  0  0  0  0  0  0
    8.4481  -15.5093   22.5290 N   0  0  0  0  0  0  0  0  0  0  0  0
    8.6874  -14.7098   23.7654 C   0  0  1  0  0  0  0  0  0  0  0  0
    7.3661  -14.0826   24.0230 C   0  0  0  0  0  0  0  0  0  0  0  0
    7.1351  -13.4087   25.2819 C   0  0  0  0  0  0  0  0  0  0  0  0
    6.3499  -13.9214   26.3075 C   0  0  0  0  0  0  0  0  0  0  0  0
    6.2033  -13.2311   27.5080 C   0  0  0  0  0  0  0  0  0  0  0  0
    6.8242  -12.0337   27.7132 C   0  0  0  0  0  0  0  0  0  0  0  0
    7.5982  -11.5054   26.7297 C   0  0  0  0  0  0  0  0  0  0  0  0
    7.7449  -12.1999   25.5238 C   0  0  0  0  0  0  0  0  0  0  0  0
    9.1569  -15.6824   24.7411 C   0  0  0  0  0  0  0  0  0  0  0  0
    8.5920  -16.7901   24.8647 O   0  0  0  0  0  0  0  0  0  0  0  0
   14.9450  -16.7422   25.5090 N   0  0  0  0  0  0  0  0  0  0  0  0
   14.0402  -16.7497   24.4252 C   0  0  0  0  0  0  0  0  0  0  0  0
   14.4581  -16.7966   23.2482 O   0  0  0  0  0  0  0  0  0  0  0  0
   12.5909  -16.7019   24.6836 C   0  0  0  0  0  0  0  0  0  0  0  0
   12.3287  -16.5529   26.1785 C   0  0  0  0  0  0  0  0  0  0  0  0
   10.8125  -16.4730   26.4474 C   0  0  2  0  0  0  0  0  0  0  0  0
   10.2655  -15.4165   25.5771 N   0  0  0  0  0  0  0  0  0  0  0  0
   10.5652  -16.0773   27.8456 C   0  0  0  0  0  0  0  0  0  0  0  0
   10.8229  -16.9390   28.9034 O   0  0  0  0  0  0  0  0  0  0  0  0
   10.1070  -14.9399   28.1589 O   0  0  0  0  0  0  0  0  0  0  0  0
  2  1  1  1
  2  8  1  0
  2  3  1  0
  3  4  1  0
  4  5  1  0
  5  6  1  0
  7  6  1  0
  8  9  2  0
 10 11  1  0
 10  8  1  0
 11 12  1  1
 12 13  1  0
 13 18  2  0
 13 14  1  0
 14 15  2  0
 15 16  1  0
 17 16  2  0
 18 17  1  0
 19 11  1  0
 20 19  2  0
 22 21  1  0
 22 23  2  0
 24 22  1  0
 26 25  1  1
 25 24  1  0
 26 27  1  0
 27 19  1  0
 28 29  1  0
 28 26  1  0
 30 28  2  0
M  END
$$$$
