KFQ.pdb
     RDKit          3D

 30 30  0  0  1  0  0  0  0  0999 V2000
    8.1008  -17.9074   21.0382 N   0  0  0  0  0  0  0  0  0  0  0  0
    9.5390  -17.7185   21.2188 C   0  0  1  0  0  0  0  0  0  0  0  0
   10.1461  -17.1533   19.9339 C   0  0  0  0  0  0  0  0  0  0  0  0
   10.1095  -18.2534   18.9043 C   0  0  0  0  0  0  0  0  0  0  0  0
   10.8147  -17.7956   17.6607 C   0  0  0  0  0  0  0  0  0  0  0  0
   10.8002  -18.8763   16.6259 C   0  0  0  0  0  0  0  0  0  0  0  0
   11.3047  -18.3241   15.3734 N   0  0  0  0  0  0  0  0  0  0  0  0
    9.7095  -16.6304   22.2373 C   0  0  0  0  0  0  0  0  0  0  0  0
   10.8597  -16.1790   22.5469 O   0  0  0  0  0  0  0  0  0  0  0  0
    8.6116  -16.0504   22.9045 N   0  0  0  0  0  0  0  0  0  0  0  0
    8.7857  -15.0816   24.0253 C   0  0  1  0  0  0  0  0  0  0  0  0
    7.5112  -14.3192   24.0136 C   0  0  0  0  0  0  0  0  0  0  0  0
    7.2185  -13.4115   25.1012 C   0  0  0  0  0  0  0  0  0  0  0  0
    7.8942  -12.2176   25.3227 C   0  0  0  0  0  0  0  0  0  0  0  0
    7.5313  -11.3755   26.3707 C   0  0  0  0  0  0  0  0  0  0  0  0
    6.5043  -11.6962   27.2097 C   0  0  0  0  0  0  0  0  0  0  0  0
    5.8244  -12.8568   27.0200 C   0  0  0  0  0  0  0  0  0  0  0  0
    6.1899  -13.7022   25.9666 C   0  0  0  0  0  0  0  0  0  0  0  0
    9.0439  -15.9161   25.1894 C   0  0  0  0  0  0  0  0  0  0  0  0
    8.3387  -16.9196   25.4277 O   0  0  0  0  0  0  0  0  0  0  0  0
   13.6354  -18.9211   26.2453 N   0  0  0  0  0  0  0  0  0  0  0  0
   13.5772  -17.6403   25.6541 C   0  0  0  0  0  0  0  0  0  0  0  0
   14.4800  -17.2558   24.8799 O   0  0  0  0  0  0  0  0  0  0  0  0
   12.4429  -16.7493   25.9520 C   0  0  0  0  0  0  0  0  0  0  0  0
   11.5055  -17.4106   26.9569 C   0  0  0  0  0  0  0  0  0  0  0  0
   10.3191  -16.4775   27.2718 C   0  0  2  0  0  0  0  0  0  0  0  0
   10.0984  -15.6296   26.0864 N   0  0  0  0  0  0  0  0  0  0  0  0
   10.6553  -15.5929   28.4018 C   0  0  0  0  0  0  0  0  0  0  0  0
   10.6528  -14.2106   28.2712 O   0  0  0  0  0  0  0  0  0  0  0  0
   10.9636  -16.0390   29.5454 O   0  0  0  0  0  0  0  0  0  0  0  0
  2  1  1  6
  2  8  1  0
  2  3  1  0
  3  4  1  0
  4  5  1  0
  5  6  1  0
  7  6  1  0
  8  9  2  0
 10 11  1  0
 10  8  1  0
 11 12  1  1
 12 13  1  0
 13 18  2  0
 13 14  1  0
 14 15  2  0
 15 16  1  0
 17 16  2  0
 18 17  1  0
 19 11  1  0
 20 19  2  0
 22 21  1  0
 22 23  2  0
 24 22  1  0
 26 25  1  6
 25 24  1  0
 26 27  1  0
 27 19  1  0
 28 29  1  0
 28 26  1  0
 30 28  2  0
M  END
$$$$
