KFQ.pdb
     RDKit          3D

 30 30  0  0  1  0  0  0  0  0999 V2000
    7.3265  -16.2617   19.8361 N   0  0  0  0  0  0  0  0  0  0  0  0
    8.7197  -15.8193   19.8138 C   0  0  1  0  0  0  0  0  0  0  0  0
    8.8683  -14.6459   18.8444 C   0  0  0  0  0  0  0  0  0  0  0  0
    8.3304  -15.1000   17.5117 C   0  0  0  0  0  0  0  0  0  0  0  0
    8.4956  -13.9980   16.5058 C   0  0  0  0  0  0  0  0  0  0  0  0
    7.9374  -14.4137   15.1814 C   0  0  0  0  0  0  0  0  0  0  0  0
    8.1945  -13.3500   14.2167 N   0  0  0  0  0  0  0  0  0  0  0  0
    9.0136  -15.2418   21.1667 C   0  0  0  0  0  0  0  0  0  0  0  0
   10.1712  -14.8048   21.4697 O   0  0  0  0  0  0  0  0  0  0  0  0
    8.0299  -15.1514   22.1722 N   0  0  0  0  0  0  0  0  0  0  0  0
    8.3321  -14.6186   23.5324 C   0  0  1  0  0  0  0  0  0  0  0  0
    7.1521  -13.7678   23.8315 C   0  0  0  0  0  0  0  0  0  0  0  0
    6.9720  -13.2516   25.1707 C   0  0  0  0  0  0  0  0  0  0  0  0
    6.1300  -13.8208   26.1184 C   0  0  0  0  0  0  0  0  0  0  0  0
    6.0362  -13.2886   27.4018 C   0  0  0  0  0  0  0  0  0  0  0  0
    6.7660  -12.1952   27.7668 C   0  0  0  0  0  0  0  0  0  0  0  0
    7.5979  -11.6153   26.8629 C   0  0  0  0  0  0  0  0  0  0  0  0
    7.6914  -12.1509   25.5736 C   0  0  0  0  0  0  0  0  0  0  0  0
    8.5144  -15.8056   24.3547 C   0  0  0  0  0  0  0  0  0  0  0  0
    7.7434  -16.7831   24.2488 O   0  0  0  0  0  0  0  0  0  0  0  0
   11.2459  -19.9489   23.1576 N   0  0  0  0  0  0  0  0  0  0  0  0
   12.0665  -18.8339   23.4344 C   0  0  0  0  0  0  0  0  0  0  0  0
   13.1498  -18.6763   22.8312 O   0  0  0  0  0  0  0  0  0  0  0  0
   11.6426  -17.8475   24.4429 C   0  0  0  0  0  0  0  0  0  0  0  0
   10.2629  -18.2089   24.9832 C   0  0  0  0  0  0  0  0  0  0  0  0
    9.8062  -17.1618   26.0188 C   0  0  2  0  0  0  0  0  0  0  0  0
    9.5663  -15.9007   25.2944 N   0  0  0  0  0  0  0  0  0  0  0  0
   10.8775  -16.9196   27.0019 C   0  0  0  0  0  0  0  0  0  0  0  0
   11.5054  -15.6857   27.1064 O   0  0  0  0  0  0  0  0  0  0  0  0
   11.2831  -17.8150   27.7990 O   0  0  0  0  0  0  0  0  0  0  0  0
  2  1  1  1
  2  8  1  0
  2  3  1  0
  3  4  1  0
  4  5  1  0
  5  6  1  0
  7  6  1  0
  8  9  2  0
 10 11  1  0
 10  8  1  0
 11 12  1  1
 12 13  1  0
 13 18  2  0
 13 14  1  0
 14 15  2  0
 15 16  1  0
 17 16  2  0
 18 17  1  0
 19 11  1  0
 20 19  2  0
 22 21  1  0
 22 23  2  0
 24 22  1  0
 26 25  1  6
 25 24  1  0
 26 27  1  0
 27 19  1  0
 28 29  1  0
 28 26  1  0
 30 28  2  0
M  END
$$$$
