KFQ.pdb
     RDKit          3D

 30 30  0  0  1  0  0  0  0  0999 V2000
    7.5583  -16.3044   19.8329 N   0  0  0  0  0  0  0  0  0  0  0  0
    8.7340  -15.4425   19.7241 C   0  0  1  0  0  0  0  0  0  0  0  0
    8.3500  -14.1400   19.0205 C   0  0  0  0  0  0  0  0  0  0  0  0
    7.8083  -14.5111   17.6639 C   0  0  0  0  0  0  0  0  0  0  0  0
    8.3794  -13.5858   16.6290 C   0  0  0  0  0  0  0  0  0  0  0  0
    7.8932  -13.9653   15.2659 C   0  0  0  0  0  0  0  0  0  0  0  0
    8.3548  -12.9608   14.3140 N   0  0  0  0  0  0  0  0  0  0  0  0
    9.1029  -15.0331   21.1193 C   0  0  0  0  0  0  0  0  0  0  0  0
   10.2436  -14.5347   21.3900 O   0  0  0  0  0  0  0  0  0  0  0  0
    8.2122  -15.1768   22.2022 N   0  0  0  0  0  0  0  0  0  0  0  0
    8.5618  -14.7305   23.5820 C   0  0  1  0  0  0  0  0  0  0  0  0
    7.3046  -14.1025   24.0624 C   0  0  0  0  0  0  0  0  0  0  0  0
    7.2922  -13.4324   25.3443 C   0  0  0  0  0  0  0  0  0  0  0  0
    8.0519  -12.3077   25.6428 C   0  0  0  0  0  0  0  0  0  0  0  0
    7.9596  -11.6939   26.8893 C   0  0  0  0  0  0  0  0  0  0  0  0
    7.1228  -12.1766   27.8528 C   0  0  0  0  0  0  0  0  0  0  0  0
    6.3672  -13.2751   27.5921 C   0  0  0  0  0  0  0  0  0  0  0  0
    6.4608  -13.8911   26.3392 C   0  0  0  0  0  0  0  0  0  0  0  0
    8.9920  -15.9453   24.2582 C   0  0  0  0  0  0  0  0  0  0  0  0
    8.4740  -17.0489   23.9845 O   0  0  0  0  0  0  0  0  0  0  0  0
   13.7343  -18.9328   22.8875 N   0  0  0  0  0  0  0  0  0  0  0  0
   13.3558  -17.7055   23.4738 C   0  0  0  0  0  0  0  0  0  0  0  0
   14.1919  -16.7892   23.6267 O   0  0  0  0  0  0  0  0  0  0  0  0
   11.9633  -17.5028   23.9092 C   0  0  0  0  0  0  0  0  0  0  0  0
   11.8913  -17.4524   25.4317 C   0  0  0  0  0  0  0  0  0  0  0  0
   10.4442  -17.1764   25.8870 C   0  0  2  0  0  0  0  0  0  0  0  0
   10.0093  -15.9256   25.2397 N   0  0  0  0  0  0  0  0  0  0  0  0
   10.4024  -16.9668   27.3454 C   0  0  0  0  0  0  0  0  0  0  0  0
   10.6367  -18.0043   28.2379 O   0  0  0  0  0  0  0  0  0  0  0  0
   10.1517  -15.8392   27.8628 O   0  0  0  0  0  0  0  0  0  0  0  0
  2  1  1  1
  2  8  1  0
  2  3  1  0
  3  4  1  0
  4  5  1  0
  5  6  1  0
  7  6  1  0
  8  9  2  0
 10 11  1  0
 10  8  1  0
 11 12  1  1
 12 13  1  0
 13 18  2  0
 13 14  1  0
 14 15  2  0
 15 16  1  0
 17 16  2  0
 18 17  1  0
 19 11  1  0
 20 19  2  0
 22 21  1  0
 22 23  2  0
 24 22  1  0
 26 25  1  6
 25 24  1  0
 26 27  1  0
 27 19  1  0
 28 29  1  0
 28 26  1  0
 30 28  2  0
M  END
$$$$
