KFQ.pdb
     RDKit          3D

 30 30  0  0  1  0  0  0  0  0999 V2000
    7.5196  -15.3262   19.2380 N   0  0  0  0  0  0  0  0  0  0  0  0
    8.8624  -14.7527   19.3078 C   0  0  1  0  0  0  0  0  0  0  0  0
    8.8723  -13.3881   18.6175 C   0  0  0  0  0  0  0  0  0  0  0  0
    7.8739  -13.4534   17.4903 C   0  0  0  0  0  0  0  0  0  0  0  0
    8.4813  -14.1842   16.3283 C   0  0  0  0  0  0  0  0  0  0  0  0
    7.7691  -13.8307   15.0608 C   0  0  0  0  0  0  0  0  0  0  0  0
    8.2524  -14.7065   13.9990 N   0  0  0  0  0  0  0  0  0  0  0  0
    9.1332  -14.4561   20.7531 C   0  0  0  0  0  0  0  0  0  0  0  0
   10.2825  -14.0809   21.1545 O   0  0  0  0  0  0  0  0  0  0  0  0
    8.1357  -14.5755   21.7418 N   0  0  0  0  0  0  0  0  0  0  0  0
    8.4161  -14.3287   23.1860 C   0  0  1  0  0  0  0  0  0  0  0  0
    7.1799  -13.6556   23.6598 C   0  0  0  0  0  0  0  0  0  0  0  0
    7.0818  -13.2466   25.0438 C   0  0  0  0  0  0  0  0  0  0  0  0
    6.3436  -13.9248   26.0062 C   0  0  0  0  0  0  0  0  0  0  0  0
    6.3263  -13.4915   27.3295 C   0  0  0  0  0  0  0  0  0  0  0  0
    7.0316  -12.3909   27.7203 C   0  0  0  0  0  0  0  0  0  0  0  0
    7.7627  -11.7057   26.8030 C   0  0  0  0  0  0  0  0  0  0  0  0
    7.7794  -12.1419   25.4737 C   0  0  0  0  0  0  0  0  0  0  0  0
    8.6986  -15.6482   23.7314 C   0  0  0  0  0  0  0  0  0  0  0  0
    8.0602  -16.6509   23.3463 O   0  0  0  0  0  0  0  0  0  0  0  0
   12.3535  -19.9944   23.4301 N   0  0  0  0  0  0  0  0  0  0  0  0
   12.8699  -19.5132   24.6529 C   0  0  0  0  0  0  0  0  0  0  0  0
   13.8385  -20.0815   25.2017 O   0  0  0  0  0  0  0  0  0  0  0  0
   12.2621  -18.3312   25.2876 C   0  0  0  0  0  0  0  0  0  0  0  0
   11.2128  -17.7207   24.3645 C   0  0  0  0  0  0  0  0  0  0  0  0
   10.0157  -17.2044   25.1877 C   0  0  2  0  0  0  0  0  0  0  0  0
    9.7026  -15.8467   24.7067 N   0  0  0  0  0  0  0  0  0  0  0  0
   10.3845  -17.1037   26.6113 C   0  0  0  0  0  0  0  0  0  0  0  0
   10.4723  -18.2270   27.4226 O   0  0  0  0  0  0  0  0  0  0  0  0
   10.6389  -15.9972   27.1705 O   0  0  0  0  0  0  0  0  0  0  0  0
  2  1  1  1
  2  8  1  0
  2  3  1  0
  3  4  1  0
  4  5  1  0
  5  6  1  0
  7  6  1  0
  8  9  2  0
 10 11  1  0
 10  8  1  0
 11 12  1  1
 12 13  1  0
 13 18  2  0
 13 14  1  0
 14 15  2  0
 15 16  1  0
 17 16  2  0
 18 17  1  0
 19 11  1  0
 20 19  2  0
 22 21  1  0
 22 23  2  0
 24 22  1  0
 26 25  1  6
 25 24  1  0
 26 27  1  0
 27 19  1  0
 28 29  1  0
 28 26  1  0
 30 28  2  0
M  END
$$$$
