KFQ.pdb
     RDKit          3D

 30 30  0  0  1  0  0  0  0  0999 V2000
    7.7892  -16.0110   19.9514 N   0  0  0  0  0  0  0  0  0  0  0  0
    8.8473  -15.0081   19.8433 C   0  0  1  0  0  0  0  0  0  0  0  0
    8.2820  -13.7339   19.2142 C   0  0  0  0  0  0  0  0  0  0  0  0
    7.6001  -14.1366   17.9318 C   0  0  0  0  0  0  0  0  0  0  0  0
    8.4332  -13.6940   16.7641 C   0  0  0  0  0  0  0  0  0  0  0  0
    7.7221  -13.9796   15.4790 C   0  0  0  0  0  0  0  0  0  0  0  0
    8.5906  -13.5900   14.3735 N   0  0  0  0  0  0  0  0  0  0  0  0
    9.2182  -14.6157   21.2428 C   0  0  0  0  0  0  0  0  0  0  0  0
   10.1965  -13.8354   21.4811 O   0  0  0  0  0  0  0  0  0  0  0  0
    8.5082  -15.0865   22.3658 N   0  0  0  0  0  0  0  0  0  0  0  0
    8.7378  -14.5420   23.7354 C   0  0  1  0  0  0  0  0  0  0  0  0
    7.4224  -13.9495   24.0881 C   0  0  0  0  0  0  0  0  0  0  0  0
    7.2998  -13.1654   25.2974 C   0  0  0  0  0  0  0  0  0  0  0  0
    6.4501  -13.4841   26.3498 C   0  0  0  0  0  0  0  0  0  0  0  0
    6.4132  -12.7005   27.5004 C   0  0  0  0  0  0  0  0  0  0  0  0
    7.2080  -11.5990   27.6290 C   0  0  0  0  0  0  0  0  0  0  0  0
    8.0492  -11.2605   26.6175 C   0  0  0  0  0  0  0  0  0  0  0  0
    8.0854  -12.0486   25.4619 C   0  0  0  0  0  0  0  0  0  0  0  0
    9.1731  -15.6916   24.5147 C   0  0  0  0  0  0  0  0  0  0  0  0
    9.1778  -15.6546   25.7636 O   0  0  0  0  0  0  0  0  0  0  0  0
   12.7703  -20.1588   22.2756 N   0  0  0  0  0  0  0  0  0  0  0  0
   11.6975  -19.5186   21.6179 C   0  0  0  0  0  0  0  0  0  0  0  0
   11.5956  -19.5660   20.3731 O   0  0  0  0  0  0  0  0  0  0  0  0
   10.6893  -18.7886   22.4053 C   0  0  0  0  0  0  0  0  0  0  0  0
   11.0383  -18.8474   23.8888 C   0  0  0  0  0  0  0  0  0  0  0  0
   10.0084  -18.0457   24.7098 C   0  0  2  0  0  0  0  0  0  0  0  0
    9.5989  -16.8883   23.8940 N   0  0  0  0  0  0  0  0  0  0  0  0
   10.6323  -17.5300   25.9417 C   0  0  0  0  0  0  0  0  0  0  0  0
   11.0343  -18.3777   26.9651 O   0  0  0  0  0  0  0  0  0  0  0  0
   10.8344  -16.2957   26.1355 O   0  0  0  0  0  0  0  0  0  0  0  0
  2  1  1  1
  2  8  1  0
  2  3  1  0
  3  4  1  0
  4  5  1  0
  5  6  1  0
  7  6  1  0
  8  9  2  0
 10 11  1  0
 10  8  1  0
 11 12  1  1
 12 13  1  0
 13 18  2  0
 13 14  1  0
 14 15  2  0
 15 16  1  0
 17 16  2  0
 18 17  1  0
 19 11  1  0
 20 19  2  0
 22 21  1  0
 22 23  2  0
 24 22  1  0
 26 25  1  6
 25 24  1  0
 26 27  1  0
 27 19  1  0
 28 29  1  0
 28 26  1  0
 30 28  2  0
M  END
$$$$
