KFQ.pdb
     RDKit          3D

 30 30  0  0  1  0  0  0  0  0999 V2000
    7.8902  -16.3694   19.7039 N   0  0  0  0  0  0  0  0  0  0  0  0
    9.1307  -15.5966   19.6751 C   0  0  1  0  0  0  0  0  0  0  0  0
    8.9630  -14.3944   18.7447 C   0  0  0  0  0  0  0  0  0  0  0  0
    8.3772  -14.9094   17.4550 C   0  0  0  0  0  0  0  0  0  0  0  0
    8.4844  -13.8472   16.3997 C   0  0  0  0  0  0  0  0  0  0  0  0
    7.8393  -14.3069   15.1305 C   0  0  0  0  0  0  0  0  0  0  0  0
    7.9353  -13.2332   14.1476 N   0  0  0  0  0  0  0  0  0  0  0  0
    9.3055  -15.0049   21.0424 C   0  0  0  0  0  0  0  0  0  0  0  0
   10.3381  -14.3249   21.3494 O   0  0  0  0  0  0  0  0  0  0  0  0
    8.3416  -15.1680   22.0579 N   0  0  0  0  0  0  0  0  0  0  0  0
    8.5240  -14.5978   23.4242 C   0  0  1  0  0  0  0  0  0  0  0  0
    7.1618  -14.1224   23.7763 C   0  0  0  0  0  0  0  0  0  0  0  0
    6.9202  -13.5771   25.0941 C   0  0  0  0  0  0  0  0  0  0  0  0
    6.3755  -14.3001   26.1485 C   0  0  0  0  0  0  0  0  0  0  0  0
    6.2063  -13.7173   27.4019 C   0  0  0  0  0  0  0  0  0  0  0  0
    6.5690  -12.4223   27.6321 C   0  0  0  0  0  0  0  0  0  0  0  0
    7.1038  -11.6887   26.6216 C   0  0  0  0  0  0  0  0  0  0  0  0
    7.2734  -12.2753   25.3626 C   0  0  0  0  0  0  0  0  0  0  0  0
    9.0607  -15.7000   24.2086 C   0  0  0  0  0  0  0  0  0  0  0  0
    8.6995  -16.8764   23.9918 O   0  0  0  0  0  0  0  0  0  0  0  0
   14.1117  -17.3798   22.2713 N   0  0  0  0  0  0  0  0  0  0  0  0
   13.7647  -17.0718   23.6047 C   0  0  0  0  0  0  0  0  0  0  0  0
   14.6382  -16.7079   24.4213 O   0  0  0  0  0  0  0  0  0  0  0  0
   12.3610  -17.1801   24.0377 C   0  0  0  0  0  0  0  0  0  0  0  0
   12.1866  -16.5505   25.4158 C   0  0  0  0  0  0  0  0  0  0  0  0
   10.7097  -16.6260   25.8521 C   0  0  2  0  0  0  0  0  0  0  0  0
   10.0088  -15.4854   25.2351 N   0  0  0  0  0  0  0  0  0  0  0  0
   10.6047  -16.4808   27.3152 C   0  0  0  0  0  0  0  0  0  0  0  0
   10.9507  -17.5131   28.1767 O   0  0  0  0  0  0  0  0  0  0  0  0
   10.1959  -15.4164   27.8647 O   0  0  0  0  0  0  0  0  0  0  0  0
  2  1  1  1
  2  8  1  0
  2  3  1  0
  3  4  1  0
  4  5  1  0
  5  6  1  0
  7  6  1  0
  8  9  2  0
 10 11  1  0
 10  8  1  0
 11 12  1  1
 12 13  1  0
 13 18  2  0
 13 14  1  0
 14 15  2  0
 15 16  1  0
 17 16  2  0
 18 17  1  0
 19 11  1  0
 20 19  2  0
 22 21  1  0
 22 23  2  0
 24 22  1  0
 26 25  1  1
 25 24  1  0
 26 27  1  0
 27 19  1  0
 28 29  1  0
 28 26  1  0
 30 28  2  0
M  END
$$$$
