TWL.pdb
     RDKit          3D

 30 31  0  0  1  0  0  0  0  0999 V2000
   12.6270  -19.2756   22.3524 C   0  0  0  0  0  0  0  0  0  0  0  0
   12.9150  -18.1778   21.3671 C   0  0  1  0  0  0  0  0  0  0  0  0
   13.4926  -18.7148   20.2248 O   0  0  0  0  0  0  0  0  0  0  0  0
   11.6584  -17.4415   20.9493 C   0  0  2  0  0  0  0  0  0  0  0  0
   11.9808  -16.4602   19.8994 N   0  0  0  0  0  0  0  0  0  0  0  0
   11.0745  -16.6707   22.0675 C   0  0  0  0  0  0  0  0  0  0  0  0
   11.4931  -15.4932   22.3605 O   0  0  0  0  0  0  0  0  0  0  0  0
   10.0264  -17.2187   22.8511 N   0  0  0  0  0  0  0  0  0  0  0  0
    9.4987  -16.5312   24.0408 C   0  0  1  0  0  0  0  0  0  0  0  0
    8.0192  -16.5357   23.8829 C   0  0  0  0  0  0  0  0  0  0  0  0
    7.3883  -15.2097   23.7149 C   0  0  0  0  0  0  0  0  0  0  0  0
    6.9686  -14.6545   22.4901 C   0  0  0  0  0  0  0  0  0  0  0  0
    6.4204  -13.4725   22.7031 N   0  0  0  0  0  0  0  0  0  0  0  0
    6.4412  -13.1831   24.0153 C   0  0  0  0  0  0  0  0  0  0  0  0
    6.0068  -12.0892   24.7475 C   0  0  0  0  0  0  0  0  0  0  0  0
    6.1891  -12.1045   26.1003 C   0  0  0  0  0  0  0  0  0  0  0  0
    6.7820  -13.1575   26.7455 C   0  0  0  0  0  0  0  0  0  0  0  0
    7.2082  -14.2334   26.0196 C   0  0  0  0  0  0  0  0  0  0  0  0
    7.0486  -14.2744   24.6413 C   0  0  0  0  0  0  0  0  0  0  0  0
   10.0602  -17.1277   25.2538 C   0  0  0  0  0  0  0  0  0  0  0  0
   10.5874  -18.2965   25.2244 O   0  0  0  0  0  0  0  0  0  0  0  0
   10.0955  -13.7449   29.5493 C   0  0  0  0  0  0  0  0  0  0  0  0
   10.5253  -14.6782   28.4666 C   0  0  1  0  0  0  0  0  0  0  0  0
   11.7787  -14.1680   27.7522 C   0  0  0  0  0  0  0  0  0  0  0  0
   10.5801  -16.1099   28.7716 C   0  0  0  0  0  0  0  0  0  0  0  0
   10.7074  -17.1373   27.7138 C   0  0  2  0  0  0  0  0  0  0  0  0
   10.0803  -16.4929   26.5170 N   0  0  0  0  0  0  0  0  0  0  0  0
   10.1762  -18.4557   27.9259 C   0  0  0  0  0  0  0  0  0  0  0  0
   10.6411  -19.3067   28.7092 O   0  0  0  0  0  0  0  0  0  0  0  0
    9.0436  -18.8777   27.2262 O   0  0  0  0  0  0  0  0  0  0  0  0
  2  1  1  1
  2  3  1  0
  4  2  1  0
  4  5  1  6
  6  7  2  0
  6  4  1  0
  8  6  1  0
  9  8  1  0
 10 11  1  0
  9 10  1  1
 11 19  1  0
 11 12  2  0
 12 13  1  0
 14 13  1  0
 14 15  2  0
 16 15  1  0
 17 16  2  0
 18 19  2  0
 18 17  1  0
 19 14  1  0
 20 21  2  0
 20  9  1  0
 23 25  1  0
 23 22  1  1
 24 23  1  0
 26 25  1  1
 26 27  1  0
 27 20  1  0
 28 26  1  0
 29 28  2  0
 30 28  1  0
M  END
$$$$
