TWL.pdb
     RDKit          3D

 30 31  0  0  1  0  0  0  0  0999 V2000
    7.1990  -17.7586   18.4964 C   0  0  0  0  0  0  0  0  0  0  0  0
    7.9923  -17.5557   19.7567 C   0  0  1  0  0  0  0  0  0  0  0  0
    9.3492  -17.6058   19.4679 O   0  0  0  0  0  0  0  0  0  0  0  0
    7.7047  -16.2158   20.4028 C   0  0  2  0  0  0  0  0  0  0  0  0
    8.0784  -15.1279   19.4830 N   0  0  0  0  0  0  0  0  0  0  0  0
    8.5065  -16.0121   21.6280 C   0  0  0  0  0  0  0  0  0  0  0  0
    9.5908  -15.3253   21.6130 O   0  0  0  0  0  0  0  0  0  0  0  0
    8.0925  -16.5756   22.8624 N   0  0  0  0  0  0  0  0  0  0  0  0
    8.8622  -16.3902   24.1034 C   0  0  1  0  0  0  0  0  0  0  0  0
    7.8714  -16.4926   25.2086 C   0  0  0  0  0  0  0  0  0  0  0  0
    7.0519  -15.2863   25.4488 C   0  0  0  0  0  0  0  0  0  0  0  0
    5.6440  -15.2397   25.4351 C   0  0  0  0  0  0  0  0  0  0  0  0
    5.2375  -14.0158   25.7179 N   0  0  0  0  0  0  0  0  0  0  0  0
    6.2957  -13.2138   25.9258 C   0  0  0  0  0  0  0  0  0  0  0  0
    6.4132  -11.8688   26.2395 C   0  0  0  0  0  0  0  0  0  0  0  0
    7.6664  -11.3453   26.3770 C   0  0  0  0  0  0  0  0  0  0  0  0
    8.7963  -12.1030   26.2153 C   0  0  0  0  0  0  0  0  0  0  0  0
    8.6752  -13.4281   25.9064 C   0  0  0  0  0  0  0  0  0  0  0  0
    7.4268  -14.0158   25.7551 C   0  0  0  0  0  0  0  0  0  0  0  0
   10.0074  -17.3017   24.1229 C   0  0  0  0  0  0  0  0  0  0  0  0
   10.4382  -17.8342   23.0386 O   0  0  0  0  0  0  0  0  0  0  0  0
   13.8597  -16.0832   22.3426 C   0  0  0  0  0  0  0  0  0  0  0  0
   13.1733  -17.2091   23.0421 C   0  0  1  0  0  0  0  0  0  0  0  0
   13.8656  -18.5455   22.7652 C   0  0  0  0  0  0  0  0  0  0  0  0
   12.8134  -17.0291   24.4505 C   0  0  0  0  0  0  0  0  0  0  0  0
   12.1522  -18.0937   25.2379 C   0  0  2  0  0  0  0  0  0  0  0  0
   10.7208  -17.6583   25.2902 N   0  0  0  0  0  0  0  0  0  0  0  0
   12.6380  -18.4234   26.5496 C   0  0  0  0  0  0  0  0  0  0  0  0
   13.3708  -19.3926   26.8283 O   0  0  0  0  0  0  0  0  0  0  0  0
   12.2966  -17.6280   27.6456 O   0  0  0  0  0  0  0  0  0  0  0  0
  2  1  1  6
  2  3  1  0
  4  2  1  0
  4  5  1  6
  6  7  2  0
  6  4  1  0
  8  6  1  0
  9  8  1  0
 10 11  1  0
  9 10  1  1
 11 19  1  0
 11 12  2  0
 12 13  1  0
 14 13  1  0
 14 15  2  0
 16 15  1  0
 17 16  2  0
 18 19  2  0
 18 17  1  0
 19 14  1  0
 20 21  2  0
 20  9  1  0
 23 25  1  0
 23 22  1  1
 24 23  1  0
 26 25  1  1
 26 27  1  0
 27 20  1  0
 28 26  1  0
 29 28  2  0
 30 28  1  0
M  END
$$$$
