TWL.pdb
     RDKit          3D

 30 31  0  0  1  0  0  0  0  0999 V2000
   11.5640  -20.2601   20.0322 C   0  0  0  0  0  0  0  0  0  0  0  0
   11.4555  -19.2982   21.1819 C   0  0  1  0  0  0  0  0  0  0  0  0
   12.7181  -19.0452   21.7003 O   0  0  0  0  0  0  0  0  0  0  0  0
   10.8522  -17.9731   20.7625 C   0  0  2  0  0  0  0  0  0  0  0  0
   11.7093  -17.3327   19.7504 N   0  0  0  0  0  0  0  0  0  0  0  0
   10.7703  -17.0235   21.8925 C   0  0  0  0  0  0  0  0  0  0  0  0
   11.6428  -16.0958   22.0531 O   0  0  0  0  0  0  0  0  0  0  0  0
    9.7144  -17.1147   22.8358 N   0  0  0  0  0  0  0  0  0  0  0  0
    9.5559  -16.1407   23.9280 C   0  0  1  0  0  0  0  0  0  0  0  0
    8.1276  -16.2251   24.3361 C   0  0  0  0  0  0  0  0  0  0  0  0
    7.3408  -14.9842   24.1764 C   0  0  0  0  0  0  0  0  0  0  0  0
    6.5132  -14.6779   23.0783 C   0  0  0  0  0  0  0  0  0  0  0  0
    5.9354  -13.5065   23.2710 N   0  0  0  0  0  0  0  0  0  0  0  0
    6.3236  -12.9877   24.4484 C   0  0  0  0  0  0  0  0  0  0  0  0
    6.0206  -11.8048   25.1043 C   0  0  0  0  0  0  0  0  0  0  0  0
    6.6059  -11.5701   26.3150 C   0  0  0  0  0  0  0  0  0  0  0  0
    7.4733  -12.4598   26.8918 C   0  0  0  0  0  0  0  0  0  0  0  0
    7.7686  -13.6243   26.2415 C   0  0  0  0  0  0  0  0  0  0  0  0
    7.2030  -13.9178   25.0083 C   0  0  0  0  0  0  0  0  0  0  0  0
   10.5761  -16.3676   24.9528 C   0  0  0  0  0  0  0  0  0  0  0  0
   11.7385  -15.8358   24.8479 O   0  0  0  0  0  0  0  0  0  0  0  0
    9.9572  -15.4938   29.7169 C   0  0  0  0  0  0  0  0  0  0  0  0
   10.3075  -15.1633   28.3041 C   0  0  1  0  0  0  0  0  0  0  0  0
   10.2949  -13.6522   28.0628 C   0  0  0  0  0  0  0  0  0  0  0  0
   11.4661  -15.8312   27.7064 C   0  0  0  0  0  0  0  0  0  0  0  0
   11.4018  -17.2213   27.2023 C   0  0  2  0  0  0  0  0  0  0  0  0
   10.3797  -17.1551   26.1105 N   0  0  0  0  0  0  0  0  0  0  0  0
   11.1185  -18.3009   28.1076 C   0  0  0  0  0  0  0  0  0  0  0  0
   11.8461  -18.6641   29.0523 O   0  0  0  0  0  0  0  0  0  0  0  0
    9.9431  -19.0426   27.9704 O   0  0  0  0  0  0  0  0  0  0  0  0
  2  1  1  6
  2  3  1  0
  4  2  1  0
  4  5  1  6
  6  7  2  0
  6  4  1  0
  8  6  1  0
  9  8  1  0
 10 11  1  0
  9 10  1  1
 11 19  1  0
 11 12  2  0
 12 13  1  0
 14 13  1  0
 14 15  2  0
 16 15  1  0
 17 16  2  0
 18 19  2  0
 18 17  1  0
 19 14  1  0
 20 21  2  0
 20  9  1  0
 23 25  1  0
 23 22  1  1
 24 23  1  0
 26 25  1  1
 26 27  1  0
 27 20  1  0
 28 26  1  0
 29 28  2  0
 30 28  1  0
M  END
$$$$
