TWL.pdb
     RDKit          3D

 30 31  0  0  1  0  0  0  0  0999 V2000
   12.4031  -18.7785   20.9719 C   0  0  0  0  0  0  0  0  0  0  0  0
   12.1673  -17.9343   19.7509 C   0  0  1  0  0  0  0  0  0  0  0  0
   12.5952  -18.6175   18.6208 O   0  0  0  0  0  0  0  0  0  0  0  0
   10.7018  -17.5990   19.5631 C   0  0  2  0  0  0  0  0  0  0  0  0
   10.5088  -16.9087   18.2765 N   0  0  0  0  0  0  0  0  0  0  0  0
   10.2113  -16.6719   20.6049 C   0  0  0  0  0  0  0  0  0  0  0  0
   10.3811  -15.4033   20.5070 O   0  0  0  0  0  0  0  0  0  0  0  0
    9.5337  -17.1665   21.7490 N   0  0  0  0  0  0  0  0  0  0  0  0
    9.1222  -16.2863   22.8548 C   0  0  1  0  0  0  0  0  0  0  0  0
    7.6409  -16.4037   22.9304 C   0  0  0  0  0  0  0  0  0  0  0  0
    6.9944  -15.6624   24.0335 C   0  0  0  0  0  0  0  0  0  0  0  0
    6.3658  -16.2458   25.1511 C   0  0  0  0  0  0  0  0  0  0  0  0
    5.9222  -15.2980   25.9561 N   0  0  0  0  0  0  0  0  0  0  0  0
    6.2129  -14.0878   25.4493 C   0  0  0  0  0  0  0  0  0  0  0  0
    5.9677  -12.7965   25.8897 C   0  0  0  0  0  0  0  0  0  0  0  0
    6.3981  -11.7580   25.1153 C   0  0  0  0  0  0  0  0  0  0  0  0
    7.0568  -11.9544   23.9303 C   0  0  0  0  0  0  0  0  0  0  0  0
    7.2963  -13.2288   23.5007 C   0  0  0  0  0  0  0  0  0  0  0  0
    6.8831  -14.3242   24.2464 C   0  0  0  0  0  0  0  0  0  0  0  0
    9.8967  -16.5977   24.0571 C   0  0  0  0  0  0  0  0  0  0  0  0
    9.9702  -17.8012   24.4944 O   0  0  0  0  0  0  0  0  0  0  0  0
   10.9084  -14.2672   29.2293 C   0  0  0  0  0  0  0  0  0  0  0  0
    9.8844  -15.0105   28.4375 C   0  0  1  0  0  0  0  0  0  0  0  0
    8.4677  -14.7100   28.9320 C   0  0  0  0  0  0  0  0  0  0  0  0
    9.9985  -14.9971   26.9772 C   0  0  0  0  0  0  0  0  0  0  0  0
   10.9526  -15.8662   26.2527 C   0  0  2  0  0  0  0  0  0  0  0  0
   10.6132  -15.6410   24.8122 N   0  0  0  0  0  0  0  0  0  0  0  0
   11.0155  -17.2702   26.5531 C   0  0  0  0  0  0  0  0  0  0  0  0
   12.0492  -17.9034   26.8432 O   0  0  0  0  0  0  0  0  0  0  0  0
    9.8534  -18.0447   26.5369 O   0  0  0  0  0  0  0  0  0  0  0  0
  2  1  1  1
  2  3  1  0
  4  2  1  0
  4  5  1  6
  6  7  2  0
  6  4  1  0
  8  6  1  0
  9  8  1  0
 10 11  1  0
  9 10  1  1
 11 19  1  0
 11 12  2  0
 12 13  1  0
 14 13  1  0
 14 15  2  0
 16 15  1  0
 17 16  2  0
 18 19  2  0
 18 17  1  0
 19 14  1  0
 20 21  2  0
 20  9  1  0
 23 25  1  0
 23 22  1  1
 24 23  1  0
 26 25  1  1
 26 27  1  0
 27 20  1  0
 28 26  1  0
 29 28  2  0
 30 28  1  0
M  END
$$$$
