TWL.pdb
     RDKit          3D

 30 31  0  0  1  0  0  0  0  0999 V2000
   12.6072  -17.2899   18.2710 C   0  0  0  0  0  0  0  0  0  0  0  0
   12.0414  -16.5131   19.4266 C   0  0  1  0  0  0  0  0  0  0  0  0
   10.8284  -15.9466   19.0596 O   0  0  0  0  0  0  0  0  0  0  0  0
   11.7965  -17.3893   20.6382 C   0  0  2  0  0  0  0  0  0  0  0  0
   10.7670  -18.3953   20.3264 N   0  0  0  0  0  0  0  0  0  0  0  0
   11.2784  -16.6119   21.7839 C   0  0  0  0  0  0  0  0  0  0  0  0
   11.9484  -15.6435   22.2946 O   0  0  0  0  0  0  0  0  0  0  0  0
   10.0153  -16.9199   22.3519 N   0  0  0  0  0  0  0  0  0  0  0  0
    9.4771  -16.1827   23.5067 C   0  0  1  0  0  0  0  0  0  0  0  0
    7.9970  -16.2485   23.3696 C   0  0  0  0  0  0  0  0  0  0  0  0
    7.2239  -15.5769   24.4354 C   0  0  0  0  0  0  0  0  0  0  0  0
    6.4324  -16.2265   25.4029 C   0  0  0  0  0  0  0  0  0  0  0  0
    5.9067  -15.3323   26.2197 N   0  0  0  0  0  0  0  0  0  0  0  0
    6.2955  -14.0961   25.8637 C   0  0  0  0  0  0  0  0  0  0  0  0
    6.0254  -12.8373   26.3772 C   0  0  0  0  0  0  0  0  0  0  0  0
    6.5850  -11.7553   25.7612 C   0  0  0  0  0  0  0  0  0  0  0  0
    7.3955  -11.8779   24.6636 C   0  0  0  0  0  0  0  0  0  0  0  0
    7.6590  -13.1207   24.1614 C   0  0  0  0  0  0  0  0  0  0  0  0
    7.1188  -14.2576   24.7466 C   0  0  0  0  0  0  0  0  0  0  0  0
   10.0738  -16.6869   24.7445 C   0  0  0  0  0  0  0  0  0  0  0  0
   10.7887  -17.7517   24.7398 O   0  0  0  0  0  0  0  0  0  0  0  0
    9.8832  -13.2763   29.0894 C   0  0  0  0  0  0  0  0  0  0  0  0
   10.3718  -14.2268   28.0473 C   0  0  1  0  0  0  0  0  0  0  0  0
   11.7724  -13.8507   27.5588 C   0  0  0  0  0  0  0  0  0  0  0  0
   10.2155  -15.6620   28.2951 C   0  0  0  0  0  0  0  0  0  0  0  0
   10.4919  -16.6768   27.2537 C   0  0  2  0  0  0  0  0  0  0  0  0
    9.9302  -16.0671   26.0072 N   0  0  0  0  0  0  0  0  0  0  0  0
   10.0241  -18.0251   27.4230 C   0  0  0  0  0  0  0  0  0  0  0  0
    9.0279  -18.5221   26.8621 O   0  0  0  0  0  0  0  0  0  0  0  0
   10.7013  -18.9021   28.2731 O   0  0  0  0  0  0  0  0  0  0  0  0
  2  1  1  6
  2  3  1  0
  4  2  1  0
  4  5  1  6
  6  7  2  0
  6  4  1  0
  8  6  1  0
  9  8  1  0
 10 11  1  0
  9 10  1  1
 11 19  1  0
 11 12  2  0
 12 13  1  0
 14 13  1  0
 14 15  2  0
 16 15  1  0
 17 16  2  0
 18 19  2  0
 18 17  1  0
 19 14  1  0
 20 21  2  0
 20  9  1  0
 23 25  1  0
 23 22  1  1
 24 23  1  0
 26 25  1  1
 26 27  1  0
 27 20  1  0
 28 26  1  0
 29 28  2  0
 30 28  1  0
M  END
$$$$
