TWL.pdb
     RDKit          3D

 30 31  0  0  1  0  0  0  0  0999 V2000
   12.4215  -18.9835   21.2378 C   0  0  0  0  0  0  0  0  0  0  0  0
   12.5415  -17.9645   20.1396 C   0  0  1  0  0  0  0  0  0  0  0  0
   13.0574  -18.5650   18.9993 O   0  0  0  0  0  0  0  0  0  0  0  0
   11.2024  -17.3551   19.7775 C   0  0  2  0  0  0  0  0  0  0  0  0
   11.3558  -16.4720   18.6089 N   0  0  0  0  0  0  0  0  0  0  0  0
   10.6707  -16.5080   20.8662 C   0  0  0  0  0  0  0  0  0  0  0  0
   11.1539  -15.3433   21.1061 O   0  0  0  0  0  0  0  0  0  0  0  0
    9.6025  -16.9660   21.6797 N   0  0  0  0  0  0  0  0  0  0  0  0
    9.0646  -16.1617   22.7890 C   0  0  1  0  0  0  0  0  0  0  0  0
    7.6278  -16.5339   22.8939 C   0  0  0  0  0  0  0  0  0  0  0  0
    6.8399  -15.7751   23.8879 C   0  0  0  0  0  0  0  0  0  0  0  0
    5.8503  -16.3172   24.7313 C   0  0  0  0  0  0  0  0  0  0  0  0
    5.3680  -15.3707   25.5153 N   0  0  0  0  0  0  0  0  0  0  0  0
    5.9755  -14.2006   25.2547 C   0  0  0  0  0  0  0  0  0  0  0  0
    5.8346  -12.9263   25.7815 C   0  0  0  0  0  0  0  0  0  0  0  0
    6.6182  -11.9290   25.2766 C   0  0  0  0  0  0  0  0  0  0  0  0
    7.5280  -12.1503   24.2766 C   0  0  0  0  0  0  0  0  0  0  0  0
    7.6633  -13.4080   23.7609 C   0  0  0  0  0  0  0  0  0  0  0  0
    6.8944  -14.4618   24.2353 C   0  0  0  0  0  0  0  0  0  0  0  0
    9.9033  -16.3243   23.9776 C   0  0  0  0  0  0  0  0  0  0  0  0
   10.5991  -17.3883   24.1467 O   0  0  0  0  0  0  0  0  0  0  0  0
   11.6972  -13.9515   29.1120 C   0  0  0  0  0  0  0  0  0  0  0  0
   10.4662  -14.6679   28.6654 C   0  0  1  0  0  0  0  0  0  0  0  0
    9.2657  -14.3231   29.5496 C   0  0  0  0  0  0  0  0  0  0  0  0
   10.1469  -14.6651   27.2358 C   0  0  0  0  0  0  0  0  0  0  0  0
   10.7039  -15.6688   26.3014 C   0  0  2  0  0  0  0  0  0  0  0  0
   10.0255  -15.3590   25.0034 N   0  0  0  0  0  0  0  0  0  0  0  0
   10.6080  -17.0689   26.6108 C   0  0  0  0  0  0  0  0  0  0  0  0
   11.5615  -17.8092   26.9216 O   0  0  0  0  0  0  0  0  0  0  0  0
    9.3685  -17.7118   26.5800 O   0  0  0  0  0  0  0  0  0  0  0  0
  2  1  1  1
  2  3  1  0
  4  2  1  0
  4  5  1  6
  6  7  2  0
  6  4  1  0
  8  6  1  0
  9  8  1  0
 10 11  1  0
  9 10  1  1
 11 19  1  0
 11 12  2  0
 12 13  1  0
 14 13  1  0
 14 15  2  0
 16 15  1  0
 17 16  2  0
 18 19  2  0
 18 17  1  0
 19 14  1  0
 20 21  2  0
 20  9  1  0
 23 25  1  0
 23 22  1  6
 24 23  1  0
 26 25  1  1
 26 27  1  0
 27 20  1  0
 28 26  1  0
 29 28  2  0
 30 28  1  0
M  END
$$$$
