TWL.pdb
     RDKit          3D

 30 31  0  0  1  0  0  0  0  0999 V2000
   12.6846  -19.1716   22.1277 C   0  0  0  0  0  0  0  0  0  0  0  0
   12.7200  -18.1019   21.0724 C   0  0  1  0  0  0  0  0  0  0  0  0
   13.1752  -18.6402   19.8765 O   0  0  0  0  0  0  0  0  0  0  0  0
   11.3512  -17.5032   20.8203 C   0  0  2  0  0  0  0  0  0  0  0  0
   11.4218  -16.5515   19.6986 N   0  0  0  0  0  0  0  0  0  0  0  0
   10.8650  -16.7320   21.9841 C   0  0  0  0  0  0  0  0  0  0  0  0
   11.3035  -15.5524   22.2371 O   0  0  0  0  0  0  0  0  0  0  0  0
    9.8917  -17.2819   22.8576 N   0  0  0  0  0  0  0  0  0  0  0  0
    9.4532  -16.5843   24.0774 C   0  0  1  0  0  0  0  0  0  0  0  0
    7.9671  -16.5558   24.0104 C   0  0  0  0  0  0  0  0  0  0  0  0
    7.3592  -15.2217   23.8228 C   0  0  0  0  0  0  0  0  0  0  0  0
    7.0202  -14.6461   22.5825 C   0  0  0  0  0  0  0  0  0  0  0  0
    6.4702  -13.4619   22.7781 N   0  0  0  0  0  0  0  0  0  0  0  0
    6.4128  -13.1905   24.0931 C   0  0  0  0  0  0  0  0  0  0  0  0
    5.9438  -12.1025   24.8125 C   0  0  0  0  0  0  0  0  0  0  0  0
    6.0426  -12.1378   26.1736 C   0  0  0  0  0  0  0  0  0  0  0  0
    6.5856  -13.2050   26.8391 C   0  0  0  0  0  0  0  0  0  0  0  0
    7.0463  -14.2750   26.1256 C   0  0  0  0  0  0  0  0  0  0  0  0
    6.9713  -14.2959   24.7397 C   0  0  0  0  0  0  0  0  0  0  0  0
   10.0747  -17.1944   25.2538 C   0  0  0  0  0  0  0  0  0  0  0  0
   10.6359  -18.3449   25.1745 O   0  0  0  0  0  0  0  0  0  0  0  0
   10.4225  -13.8589   29.5610 C   0  0  0  0  0  0  0  0  0  0  0  0
   10.6634  -14.8148   28.4401 C   0  0  1  0  0  0  0  0  0  0  0  0
   11.7891  -14.3308   27.5235 C   0  0  0  0  0  0  0  0  0  0  0  0
   10.7544  -16.2418   28.7581 C   0  0  0  0  0  0  0  0  0  0  0  0
   10.7305  -17.2864   27.7098 C   0  0  2  0  0  0  0  0  0  0  0  0
   10.1195  -16.5927   26.5324 N   0  0  0  0  0  0  0  0  0  0  0  0
   10.0787  -18.5421   27.9623 C   0  0  0  0  0  0  0  0  0  0  0  0
    9.0082  -18.9192   27.4470 O   0  0  0  0  0  0  0  0  0  0  0  0
   10.6441  -19.4613   28.8488 O   0  0  0  0  0  0  0  0  0  0  0  0
  2  1  1  1
  2  3  1  0
  4  2  1  0
  4  5  1  6
  6  7  2  0
  6  4  1  0
  8  6  1  0
  9  8  1  0
 10 11  1  0
  9 10  1  1
 11 19  1  0
 11 12  2  0
 12 13  1  0
 14 13  1  0
 14 15  2  0
 16 15  1  0
 17 16  2  0
 18 19  2  0
 18 17  1  0
 19 14  1  0
 20 21  2  0
 20  9  1  0
 23 25  1  0
 23 22  1  1
 24 23  1  0
 26 25  1  1
 26 27  1  0
 27 20  1  0
 28 26  1  0
 29 28  2  0
 30 28  1  0
M  END
$$$$
