TWL.pdb
     RDKit          3D

 30 31  0  0  1  0  0  0  0  0999 V2000
   12.2155  -20.5025   19.9861 C   0  0  0  0  0  0  0  0  0  0  0  0
   11.9893  -19.4290   21.0133 C   0  0  1  0  0  0  0  0  0  0  0  0
   13.1978  -18.8248   21.3318 O   0  0  0  0  0  0  0  0  0  0  0  0
   11.0489  -18.3507   20.5146 C   0  0  2  0  0  0  0  0  0  0  0  0
   11.6380  -17.6768   19.3450 N   0  0  0  0  0  0  0  0  0  0  0  0
   10.8310  -17.2980   21.5293 C   0  0  0  0  0  0  0  0  0  0  0  0
   11.5573  -16.2402   21.5644 O   0  0  0  0  0  0  0  0  0  0  0  0
    9.8031  -17.4321   22.4980 N   0  0  0  0  0  0  0  0  0  0  0  0
    9.5850  -16.4263   23.5503 C   0  0  1  0  0  0  0  0  0  0  0  0
    8.1282  -16.1250   23.5208 C   0  0  0  0  0  0  0  0  0  0  0  0
    7.7644  -14.7018   23.6847 C   0  0  0  0  0  0  0  0  0  0  0  0
    7.9392  -13.6973   22.7127 C   0  0  0  0  0  0  0  0  0  0  0  0
    7.4805  -12.5484   23.1740 N   0  0  0  0  0  0  0  0  0  0  0  0
    6.9978  -12.7095   24.4178 C   0  0  0  0  0  0  0  0  0  0  0  0
    6.4226  -11.8359   25.3274 C   0  0  0  0  0  0  0  0  0  0  0  0
    6.0376  -12.3288   26.5408 C   0  0  0  0  0  0  0  0  0  0  0  0
    6.2023  -13.6459   26.8798 C   0  0  0  0  0  0  0  0  0  0  0  0
    6.7695  -14.5029   25.9799 C   0  0  0  0  0  0  0  0  0  0  0  0
    7.1795  -14.0591   24.7302 C   0  0  0  0  0  0  0  0  0  0  0  0
   10.1637  -16.8890   24.8126 C   0  0  0  0  0  0  0  0  0  0  0  0
   11.1477  -17.7115   24.8186 O   0  0  0  0  0  0  0  0  0  0  0  0
    9.8030  -13.4548   29.0182 C   0  0  0  0  0  0  0  0  0  0  0  0
   10.3300  -14.4648   28.0538 C   0  0  1  0  0  0  0  0  0  0  0  0
   11.7898  -14.1840   27.6906 C   0  0  0  0  0  0  0  0  0  0  0  0
   10.0672  -15.8802   28.3249 C   0  0  0  0  0  0  0  0  0  0  0  0
   10.3870  -16.9433   27.3460 C   0  0  2  0  0  0  0  0  0  0  0  0
    9.7152  -16.4820   26.0902 N   0  0  0  0  0  0  0  0  0  0  0  0
   10.0524  -18.3105   27.6361 C   0  0  0  0  0  0  0  0  0  0  0  0
    9.0935  -18.9407   27.1490 O   0  0  0  0  0  0  0  0  0  0  0  0
   10.8305  -19.0497   28.5298 O   0  0  0  0  0  0  0  0  0  0  0  0
  2  1  1  6
  2  3  1  0
  4  2  1  0
  4  5  1  6
  6  7  2  0
  6  4  1  0
  8  6  1  0
  9  8  1  0
 10 11  1  0
  9 10  1  1
 11 19  1  0
 11 12  2  0
 12 13  1  0
 14 13  1  0
 14 15  2  0
 16 15  1  0
 17 16  2  0
 18 19  2  0
 18 17  1  0
 19 14  1  0
 20 21  2  0
 20  9  1  0
 23 25  1  0
 23 22  1  1
 24 23  1  0
 26 25  1  1
 26 27  1  0
 27 20  1  0
 28 26  1  0
 29 28  2  0
 30 28  1  0
M  END
$$$$
