TWL.pdb
     RDKit          3D

 30 31  0  0  1  0  0  0  0  0999 V2000
   12.6097  -19.1961   19.4821 C   0  0  0  0  0  0  0  0  0  0  0  0
   12.1458  -18.4174   20.6810 C   0  0  1  0  0  0  0  0  0  0  0  0
   13.2443  -17.9914   21.4151 O   0  0  0  0  0  0  0  0  0  0  0  0
   11.3450  -17.1918   20.2908 C   0  0  2  0  0  0  0  0  0  0  0  0
   12.1881  -16.2740   19.5061 N   0  0  0  0  0  0  0  0  0  0  0  0
   10.8962  -16.4279   21.4742 C   0  0  0  0  0  0  0  0  0  0  0  0
   11.4806  -15.3426   21.8326 O   0  0  0  0  0  0  0  0  0  0  0  0
    9.7974  -16.8796   22.2497 N   0  0  0  0  0  0  0  0  0  0  0  0
    9.3414  -16.1619   23.4513 C   0  0  1  0  0  0  0  0  0  0  0  0
    7.8568  -16.1269   23.3578 C   0  0  0  0  0  0  0  0  0  0  0  0
    7.1578  -15.4878   24.4924 C   0  0  0  0  0  0  0  0  0  0  0  0
    6.4200  -16.1652   25.4829 C   0  0  0  0  0  0  0  0  0  0  0  0
    5.9550  -15.2968   26.3620 N   0  0  0  0  0  0  0  0  0  0  0  0
    6.3349  -14.0519   26.0272 C   0  0  0  0  0  0  0  0  0  0  0  0
    6.1105  -12.8103   26.6011 C   0  0  0  0  0  0  0  0  0  0  0  0
    6.6433  -11.7115   25.9908 C   0  0  0  0  0  0  0  0  0  0  0  0
    7.3837  -11.8012   24.8418 C   0  0  0  0  0  0  0  0  0  0  0  0
    7.6023  -13.0272   24.2802 C   0  0  0  0  0  0  0  0  0  0  0  0
    7.0865  -14.1798   24.8564 C   0  0  0  0  0  0  0  0  0  0  0  0
    9.9389  -16.7579   24.6472 C   0  0  0  0  0  0  0  0  0  0  0  0
   10.4709  -17.9240   24.6009 O   0  0  0  0  0  0  0  0  0  0  0  0
   10.4655  -13.6657   27.1377 C   0  0  0  0  0  0  0  0  0  0  0  0
   10.6313  -14.5488   28.3296 C   0  0  1  0  0  0  0  0  0  0  0  0
   10.1918  -13.8435   29.6146 C   0  0  0  0  0  0  0  0  0  0  0  0
   10.1494  -15.9290   28.2378 C   0  0  0  0  0  0  0  0  0  0  0  0
   10.5275  -16.8237   27.1210 C   0  0  2  0  0  0  0  0  0  0  0  0
    9.9904  -16.1255   25.9106 N   0  0  0  0  0  0  0  0  0  0  0  0
   10.1264  -18.2036   27.1393 C   0  0  0  0  0  0  0  0  0  0  0  0
    9.0880  -18.6631   26.6250 O   0  0  0  0  0  0  0  0  0  0  0  0
   10.9265  -19.1594   27.7692 O   0  0  0  0  0  0  0  0  0  0  0  0
  2  1  1  6
  2  3  1  0
  4  2  1  0
  4  5  1  6
  6  7  2  0
  6  4  1  0
  8  6  1  0
  9  8  1  0
 10 11  1  0
  9 10  1  1
 11 19  1  0
 11 12  2  0
 12 13  1  0
 14 13  1  0
 14 15  2  0
 16 15  1  0
 17 16  2  0
 18 19  2  0
 18 17  1  0
 19 14  1  0
 20 21  2  0
 20  9  1  0
 23 25  1  0
 23 22  1  6
 24 23  1  0
 26 25  1  1
 26 27  1  0
 27 20  1  0
 28 26  1  0
 29 28  2  0
 30 28  1  0
M  END
$$$$
