TWL.pdb
     RDKit          3D

 30 31  0  0  1  0  0  0  0  0999 V2000
    7.7213  -22.8509   26.3927 C   0  0  0  0  0  0  0  0  0  0  0  0
    8.1526  -21.4747   25.9696 C   0  0  1  0  0  0  0  0  0  0  0  0
    9.5329  -21.3661   26.0704 O   0  0  0  0  0  0  0  0  0  0  0  0
    7.7669  -21.1711   24.5362 C   0  0  2  0  0  0  0  0  0  0  0  0
    8.4068  -22.1409   23.6311 N   0  0  0  0  0  0  0  0  0  0  0  0
    8.2395  -19.8368   24.1099 C   0  0  0  0  0  0  0  0  0  0  0  0
    9.3541  -19.6866   23.4911 O   0  0  0  0  0  0  0  0  0  0  0  0
    7.4647  -18.6785   24.3762 N   0  0  0  0  0  0  0  0  0  0  0  0
    7.9308  -17.3280   24.0218 C   0  0  1  0  0  0  0  0  0  0  0  0
    6.7402  -16.4456   24.1542 C   0  0  0  0  0  0  0  0  0  0  0  0
    6.9754  -15.0088   23.8992 C   0  0  0  0  0  0  0  0  0  0  0  0
    7.5485  -14.4702   22.7305 C   0  0  0  0  0  0  0  0  0  0  0  0
    7.5838  -13.1535   22.8195 N   0  0  0  0  0  0  0  0  0  0  0  0
    7.0636  -12.7554   23.9929 C   0  0  0  0  0  0  0  0  0  0  0  0
    6.8770  -11.5081   24.5679 C   0  0  0  0  0  0  0  0  0  0  0  0
    6.3138  -11.4477   25.8099 C   0  0  0  0  0  0  0  0  0  0  0  0
    5.9332  -12.5715   26.4948 C   0  0  0  0  0  0  0  0  0  0  0  0
    6.1190  -13.7985   25.9238 C   0  0  0  0  0  0  0  0  0  0  0  0
    6.6859  -13.9219   24.6627 C   0  0  0  0  0  0  0  0  0  0  0  0
    9.1240  -16.9903   24.7994 C   0  0  0  0  0  0  0  0  0  0  0  0
   10.0675  -16.2935   24.2806 O   0  0  0  0  0  0  0  0  0  0  0  0
   10.2660  -13.1358   28.2977 C   0  0  0  0  0  0  0  0  0  0  0  0
   10.7722  -14.5286   28.1196 C   0  0  1  0  0  0  0  0  0  0  0  0
   11.2427  -15.1275   29.4469 C   0  0  0  0  0  0  0  0  0  0  0  0
    9.9680  -15.4580   27.3225 C   0  0  0  0  0  0  0  0  0  0  0  0
   10.4511  -16.8099   26.9621 C   0  0  2  0  0  0  0  0  0  0  0  0
    9.3346  -17.3781   26.1427 N   0  0  0  0  0  0  0  0  0  0  0  0
   10.8515  -17.7276   27.9929 C   0  0  0  0  0  0  0  0  0  0  0  0
   12.0215  -17.9185   28.3786 O   0  0  0  0  0  0  0  0  0  0  0  0
    9.8951  -18.4982   28.6577 O   0  0  0  0  0  0  0  0  0  0  0  0
  2  1  1  6
  2  3  1  0
  4  2  1  0
  4  5  1  6
  6  7  2  0
  6  4  1  0
  8  6  1  0
  9  8  1  0
 10 11  1  0
  9 10  1  1
 11 19  1  0
 11 12  2  0
 12 13  1  0
 14 13  1  0
 14 15  2  0
 16 15  1  0
 17 16  2  0
 18 19  2  0
 18 17  1  0
 19 14  1  0
 20 21  2  0
 20  9  1  0
 23 25  1  0
 23 22  1  1
 24 23  1  0
 26 25  1  1
 26 27  1  0
 27 20  1  0
 28 26  1  0
 29 28  2  0
 30 28  1  0
M  END
$$$$
