TWL.pdb
     RDKit          3D

 30 31  0  0  1  0  0  0  0  0999 V2000
   11.8914  -19.9694   20.0564 C   0  0  0  0  0  0  0  0  0  0  0  0
   11.5180  -18.9698   21.1149 C   0  0  1  0  0  0  0  0  0  0  0  0
   12.6619  -18.5317   21.7681 O   0  0  0  0  0  0  0  0  0  0  0  0
   10.8221  -17.7560   20.5336 C   0  0  2  0  0  0  0  0  0  0  0  0
   11.7204  -17.0705   19.5890 N   0  0  0  0  0  0  0  0  0  0  0  0
   10.4857  -16.7628   21.5757 C   0  0  0  0  0  0  0  0  0  0  0  0
   11.2345  -15.7441   21.7974 O   0  0  0  0  0  0  0  0  0  0  0  0
    9.3152  -16.9125   22.3632 N   0  0  0  0  0  0  0  0  0  0  0  0
    9.0301  -16.0391   23.5133 C   0  0  1  0  0  0  0  0  0  0  0  0
    7.6766  -16.4329   23.9897 C   0  0  0  0  0  0  0  0  0  0  0  0
    6.9243  -15.3894   24.7174 C   0  0  0  0  0  0  0  0  0  0  0  0
    5.7608  -15.6049   25.4818 C   0  0  0  0  0  0  0  0  0  0  0  0
    5.3654  -14.4657   26.0194 N   0  0  0  0  0  0  0  0  0  0  0  0
    6.1984  -13.4730   25.6635 C   0  0  0  0  0  0  0  0  0  0  0  0
    6.2255  -12.1165   25.9471 C   0  0  0  0  0  0  0  0  0  0  0  0
    7.2288  -11.3643   25.4075 C   0  0  0  0  0  0  0  0  0  0  0  0
    8.1967  -11.9063   24.6037 C   0  0  0  0  0  0  0  0  0  0  0  0
    8.1659  -13.2438   24.3274 C   0  0  0  0  0  0  0  0  0  0  0  0
    7.1705  -14.0588   24.8487 C   0  0  0  0  0  0  0  0  0  0  0  0
   10.1364  -16.0944   24.4701 C   0  0  0  0  0  0  0  0  0  0  0  0
   10.9949  -15.1437   24.5331 O   0  0  0  0  0  0  0  0  0  0  0  0
   11.2311  -13.8475   27.5130 C   0  0  0  0  0  0  0  0  0  0  0  0
   10.3309  -14.8448   28.1633 C   0  0  1  0  0  0  0  0  0  0  0  0
    9.1584  -14.1627   28.8717 C   0  0  0  0  0  0  0  0  0  0  0  0
    9.9285  -16.0200   27.3869 C   0  0  0  0  0  0  0  0  0  0  0  0
   10.9156  -16.9183   26.7471 C   0  0  2  0  0  0  0  0  0  0  0  0
   10.3475  -17.1538   25.3822 N   0  0  0  0  0  0  0  0  0  0  0  0
   11.2709  -18.1598   27.3777 C   0  0  0  0  0  0  0  0  0  0  0  0
   10.6416  -19.2309   27.2748 O   0  0  0  0  0  0  0  0  0  0  0  0
   12.4079  -18.2375   28.1849 O   0  0  0  0  0  0  0  0  0  0  0  0
  2  1  1  6
  2  3  1  0
  4  2  1  0
  4  5  1  6
  6  7  2  0
  6  4  1  0
  8  6  1  0
  9  8  1  0
 10 11  1  0
  9 10  1  1
 11 19  1  0
 11 12  2  0
 12 13  1  0
 14 13  1  0
 14 15  2  0
 16 15  1  0
 17 16  2  0
 18 19  2  0
 18 17  1  0
 19 14  1  0
 20 21  2  0
 20  9  1  0
 23 25  1  0
 23 22  1  6
 24 23  1  0
 26 25  1  1
 26 27  1  0
 27 20  1  0
 28 26  1  0
 29 28  2  0
 30 28  1  0
M  END
$$$$
