TWL.pdb
     RDKit          3D

 30 31  0  0  1  0  0  0  0  0999 V2000
   12.0865  -19.9927   19.9096 C   0  0  0  0  0  0  0  0  0  0  0  0
   11.7532  -18.9735   20.9627 C   0  0  1  0  0  0  0  0  0  0  0  0
   12.9229  -18.4130   21.4574 O   0  0  0  0  0  0  0  0  0  0  0  0
   10.8946  -17.8501   20.4184 C   0  0  2  0  0  0  0  0  0  0  0  0
   11.6222  -17.1362   19.3554 N   0  0  0  0  0  0  0  0  0  0  0  0
   10.5860  -16.8416   21.4544 C   0  0  0  0  0  0  0  0  0  0  0  0
   11.2968  -15.7815   21.5907 O   0  0  0  0  0  0  0  0  0  0  0  0
    9.4854  -17.0223   22.3311 N   0  0  0  0  0  0  0  0  0  0  0  0
    9.1644  -16.0539   23.3923 C   0  0  1  0  0  0  0  0  0  0  0  0
    7.6936  -16.1535   23.5941 C   0  0  0  0  0  0  0  0  0  0  0  0
    7.1301  -15.2804   24.6452 C   0  0  0  0  0  0  0  0  0  0  0  0
    6.4455  -15.7232   25.7940 C   0  0  0  0  0  0  0  0  0  0  0  0
    6.1049  -14.6853   26.5355 N   0  0  0  0  0  0  0  0  0  0  0  0
    6.5202  -13.5465   25.9552 C   0  0  0  0  0  0  0  0  0  0  0  0
    6.4125  -12.2115   26.3123 C   0  0  0  0  0  0  0  0  0  0  0  0
    6.9483  -11.2746   25.4764 C   0  0  0  0  0  0  0  0  0  0  0  0
    7.5810  -11.6133   24.3095 C   0  0  0  0  0  0  0  0  0  0  0  0
    7.6849  -12.9303   23.9620 C   0  0  0  0  0  0  0  0  0  0  0  0
    7.1601  -13.9272   24.7730 C   0  0  0  0  0  0  0  0  0  0  0  0
   10.0316  -16.2749   24.5505 C   0  0  0  0  0  0  0  0  0  0  0  0
   11.2733  -15.9564   24.5083 O   0  0  0  0  0  0  0  0  0  0  0  0
    8.6852  -14.0444   28.9204 C   0  0  0  0  0  0  0  0  0  0  0  0
    9.5593  -14.7000   27.9035 C   0  0  1  0  0  0  0  0  0  0  0  0
   10.8546  -13.9142   27.6883 C   0  0  0  0  0  0  0  0  0  0  0  0
    9.7744  -16.1453   28.0078 C   0  0  0  0  0  0  0  0  0  0  0  0
   10.4977  -16.9119   26.9687 C   0  0  2  0  0  0  0  0  0  0  0  0
    9.5966  -16.8294   25.7762 N   0  0  0  0  0  0  0  0  0  0  0  0
   10.8918  -18.2704   27.2228 C   0  0  0  0  0  0  0  0  0  0  0  0
   10.3134  -19.2858   26.7889 O   0  0  0  0  0  0  0  0  0  0  0  0
   12.0104  -18.5411   28.0140 O   0  0  0  0  0  0  0  0  0  0  0  0
  2  1  1  6
  2  3  1  0
  4  2  1  0
  4  5  1  6
  6  7  2  0
  6  4  1  0
  8  6  1  0
  9  8  1  0
 10 11  1  0
  9 10  1  1
 11 19  1  0
 11 12  2  0
 12 13  1  0
 14 13  1  0
 14 15  2  0
 16 15  1  0
 17 16  2  0
 18 19  2  0
 18 17  1  0
 19 14  1  0
 20 21  2  0
 20  9  1  0
 23 25  1  0
 23 22  1  1
 24 23  1  0
 26 25  1  1
 26 27  1  0
 27 20  1  0
 28 26  1  0
 29 28  2  0
 30 28  1  0
M  END
$$$$
