TWL.pdb
     RDKit          3D

 30 31  0  0  1  0  0  0  0  0999 V2000
   12.4389  -19.3018   19.1799 C   0  0  0  0  0  0  0  0  0  0  0  0
   12.0177  -18.3938   20.3011 C   0  0  1  0  0  0  0  0  0  0  0  0
   13.1166  -17.6840   20.7655 O   0  0  0  0  0  0  0  0  0  0  0  0
   10.9702  -17.3914   19.8611 C   0  0  2  0  0  0  0  0  0  0  0  0
   11.5337  -16.4997   18.8332 N   0  0  0  0  0  0  0  0  0  0  0  0
   10.5428  -16.5175   20.9742 C   0  0  0  0  0  0  0  0  0  0  0  0
   11.0699  -15.3620   21.1597 O   0  0  0  0  0  0  0  0  0  0  0  0
    9.5289  -16.9386   21.8728 N   0  0  0  0  0  0  0  0  0  0  0  0
    9.1193  -16.1222   23.0272 C   0  0  1  0  0  0  0  0  0  0  0  0
    7.6318  -16.1056   22.9987 C   0  0  0  0  0  0  0  0  0  0  0  0
    6.9764  -15.4228   24.1339 C   0  0  0  0  0  0  0  0  0  0  0  0
    6.2045  -16.0526   25.1299 C   0  0  0  0  0  0  0  0  0  0  0  0
    5.7949  -15.1554   26.0077 N   0  0  0  0  0  0  0  0  0  0  0  0
    6.2456  -13.9361   25.6669 C   0  0  0  0  0  0  0  0  0  0  0  0
    6.0967  -12.6815   26.2372 C   0  0  0  0  0  0  0  0  0  0  0  0
    6.6902  -11.6179   25.6209 C   0  0  0  0  0  0  0  0  0  0  0  0
    7.4191  -11.7546   24.4691 C   0  0  0  0  0  0  0  0  0  0  0  0
    7.5632  -12.9932   23.9110 C   0  0  0  0  0  0  0  0  0  0  0  0
    6.9833  -14.1117   24.4935 C   0  0  0  0  0  0  0  0  0  0  0  0
    9.7762  -16.6076   24.2418 C   0  0  0  0  0  0  0  0  0  0  0  0
   10.1915  -17.8184   24.3216 O   0  0  0  0  0  0  0  0  0  0  0  0
   11.3827  -13.6872   27.8879 C   0  0  0  0  0  0  0  0  0  0  0  0
   10.4920  -14.6845   28.5514 C   0  0  1  0  0  0  0  0  0  0  0  0
    9.4642  -14.0024   29.4570 C   0  0  0  0  0  0  0  0  0  0  0  0
    9.9152  -15.7496   27.7276 C   0  0  0  0  0  0  0  0  0  0  0  0
   10.6622  -16.3784   26.6152 C   0  0  2  0  0  0  0  0  0  0  0  0
   10.0118  -15.8165   25.3896 N   0  0  0  0  0  0  0  0  0  0  0  0
   10.7604  -17.8100   26.5351 C   0  0  0  0  0  0  0  0  0  0  0  0
   11.8142  -18.4699   26.6234 O   0  0  0  0  0  0  0  0  0  0  0  0
    9.6131  -18.5833   26.3451 O   0  0  0  0  0  0  0  0  0  0  0  0
  2  1  1  6
  2  3  1  0
  4  2  1  0
  4  5  1  6
  6  7  2  0
  6  4  1  0
  8  6  1  0
  9  8  1  0
 10 11  1  0
  9 10  1  1
 11 19  1  0
 11 12  2  0
 12 13  1  0
 14 13  1  0
 14 15  2  0
 16 15  1  0
 17 16  2  0
 18 19  2  0
 18 17  1  0
 19 14  1  0
 20 21  2  0
 20  9  1  0
 23 25  1  0
 23 22  1  6
 24 23  1  0
 26 25  1  1
 26 27  1  0
 27 20  1  0
 28 26  1  0
 29 28  2  0
 30 28  1  0
M  END
$$$$
