MEA.pdb
     RDKit          3D

 23 22  0  0  1  0  0  0  0  0999 V2000
    7.1430  -10.6977   25.6599 C   0  0  0  0  0  0  0  0  0  0  0  0
    5.5538  -11.4169   26.1492 S   0  0  0  0  0  0  0  0  0  0  0  0
    5.3975  -13.0581   25.3965 C   0  0  0  0  0  0  0  0  0  0  0  0
    6.6402  -13.8791   25.6137 C   0  0  0  0  0  0  0  0  0  0  0  0
    6.6299  -15.1877   24.8907 C   0  0  2  0  0  0  0  0  0  0  0  0
    5.4880  -15.9376   25.3930 N   0  0  0  0  0  0  0  0  0  0  0  0
    7.8715  -15.9732   25.0984 C   0  0  0  0  0  0  0  0  0  0  0  0
    8.0381  -16.6829   26.1207 O   0  0  0  0  0  0  0  0  0  0  0  0
    8.9101  -15.9372   24.1316 N   0  0  0  0  0  0  0  0  0  0  0  0
   10.1518  -16.6969   24.3133 C   0  0  1  0  0  0  0  0  0  0  0  0
   10.8643  -16.7857   22.9998 C   0  0  0  0  0  0  0  0  0  0  0  0
   12.1626  -17.5311   23.0628 C   0  0  0  0  0  0  0  0  0  0  0  0
   12.7454  -17.5293   21.6900 C   0  0  0  0  0  0  0  0  0  0  0  0
   13.8690  -18.0115   21.4176 O   0  0  0  0  0  0  0  0  0  0  0  0
   10.9439  -16.1282   25.3974 C   0  0  0  0  0  0  0  0  0  0  0  0
   11.7906  -15.2225   25.2235 O   0  0  0  0  0  0  0  0  0  0  0  0
   12.0028  -16.9608   20.6491 O   0  0  0  0  0  0  0  0  0  0  0  0
   10.8453  -15.0489   28.5763 C   0  0  0  0  0  0  0  0  0  0  0  0
   11.5257  -16.2051   27.8464 C   0  0  2  0  0  0  0  0  0  0  0  0
   10.7507  -16.6201   26.7137 N   0  0  0  0  0  0  0  0  0  0  0  0
   11.7171  -17.2811   28.8335 C   0  0  0  0  0  0  0  0  0  0  0  0
   12.5377  -17.1102   29.9242 O   0  0  0  0  0  0  0  0  0  0  0  0
   11.1256  -18.3674   28.6799 O   0  0  0  0  0  0  0  0  0  0  0  0
  1  2  1  0
  3  2  1  0
  4  3  1  0
  5  4  1  0
  5  7  1  0
  5  6  1  1
  7  8  2  0
  9 10  1  0
  9  7  1  0
 10 11  1  6
 11 12  1  0
 13 17  1  0
 13 12  1  0
 14 13  2  0
 15 20  1  0
 15 10  1  0
 16 15  2  0
 19 20  1  0
 19 18  1  1
 21 22  1  0
 21 19  1  0
 23 21  2  0
M  END
$$$$
