MEA.pdb
     RDKit          3D

 23 22  0  0  1  0  0  0  0  0999 V2000
    7.5495  -11.8508   26.6562 C   0  0  0  0  0  0  0  0  0  0  0  0
    7.5256  -12.3229   24.9072 S   0  0  0  0  0  0  0  0  0  0  0  0
    6.4631  -13.7775   24.7081 C   0  0  0  0  0  0  0  0  0  0  0  0
    6.4231  -14.2324   23.2738 C   0  0  0  0  0  0  0  0  0  0  0  0
    7.7731  -14.5029   22.6912 C   0  0  2  0  0  0  0  0  0  0  0  0
    7.5746  -14.7699   21.2741 N   0  0  0  0  0  0  0  0  0  0  0  0
    8.4555  -15.6582   23.3244 C   0  0  0  0  0  0  0  0  0  0  0  0
    7.9172  -16.7913   23.3797 O   0  0  0  0  0  0  0  0  0  0  0  0
    9.7489  -15.5030   23.8882 N   0  0  0  0  0  0  0  0  0  0  0  0
   10.4697  -16.6383   24.4744 C   0  0  1  0  0  0  0  0  0  0  0  0
   11.9322  -16.4820   24.1956 C   0  0  0  0  0  0  0  0  0  0  0  0
   12.3395  -16.9260   22.8237 C   0  0  0  0  0  0  0  0  0  0  0  0
   13.6919  -16.3584   22.5539 C   0  0  0  0  0  0  0  0  0  0  0  0
   14.0654  -15.9759   21.4210 O   0  0  0  0  0  0  0  0  0  0  0  0
   10.1319  -16.7836   25.8853 C   0  0  0  0  0  0  0  0  0  0  0  0
   10.3605  -15.8961   26.7383 O   0  0  0  0  0  0  0  0  0  0  0  0
   14.5938  -16.2450   23.6178 O   0  0  0  0  0  0  0  0  0  0  0  0
    8.2835  -19.4296   27.8495 C   0  0  0  0  0  0  0  0  0  0  0  0
    9.3572  -18.3545   27.6948 C   0  0  2  0  0  0  0  0  0  0  0  0
    9.5149  -17.9852   26.3184 N   0  0  0  0  0  0  0  0  0  0  0  0
   10.5925  -18.8949   28.2872 C   0  0  0  0  0  0  0  0  0  0  0  0
   10.6653  -19.2040   29.6256 O   0  0  0  0  0  0  0  0  0  0  0  0
   11.5915  -19.0762   27.5643 O   0  0  0  0  0  0  0  0  0  0  0  0
  1  2  1  0
  3  2  1  0
  4  3  1  0
  5  4  1  0
  5  7  1  0
  5  6  1  6
  7  8  2  0
  9 10  1  0
  9  7  1  0
 10 11  1  1
 11 12  1  0
 13 17  1  0
 13 12  1  0
 14 13  2  0
 15 20  1  0
 15 10  1  0
 16 15  2  0
 19 20  1  0
 19 18  1  6
 21 22  1  0
 21 19  1  0
 23 21  2  0
M  END
$$$$
