MEA.pdb
     RDKit          3D

 23 22  0  0  1  0  0  0  0  0999 V2000
    7.4298  -11.2267   19.5630 C   0  0  0  0  0  0  0  0  0  0  0  0
    7.2728  -12.8011   18.6804 S   0  0  0  0  0  0  0  0  0  0  0  0
    8.3755  -14.0161   19.4500 C   0  0  0  0  0  0  0  0  0  0  0  0
    8.0249  -14.2318   20.8978 C   0  0  0  0  0  0  0  0  0  0  0  0
    8.9431  -15.1770   21.6041 C   0  0  2  0  0  0  0  0  0  0  0  0
    8.8009  -16.4699   20.9504 N   0  0  0  0  0  0  0  0  0  0  0  0
    8.6336  -15.3132   23.0488 C   0  0  0  0  0  0  0  0  0  0  0  0
    8.5499  -14.3115   23.8014 O   0  0  0  0  0  0  0  0  0  0  0  0
    8.4231  -16.5968   23.6167 N   0  0  0  0  0  0  0  0  0  0  0  0
    8.1261  -16.7633   25.0436 C   0  0  1  0  0  0  0  0  0  0  0  0
    7.7563  -18.1910   25.3001 C   0  0  0  0  0  0  0  0  0  0  0  0
    7.4833  -18.4979   26.7411 C   0  0  0  0  0  0  0  0  0  0  0  0
    7.1486  -19.9483   26.8330 C   0  0  0  0  0  0  0  0  0  0  0  0
    6.0045  -20.3753   27.1120 O   0  0  0  0  0  0  0  0  0  0  0  0
    9.2299  -16.2659   25.8560 C   0  0  0  0  0  0  0  0  0  0  0  0
   10.4203  -16.6098   25.6768 O   0  0  0  0  0  0  0  0  0  0  0  0
    8.1614  -20.8845   26.5964 O   0  0  0  0  0  0  0  0  0  0  0  0
    9.4909  -13.4675   28.3546 C   0  0  0  0  0  0  0  0  0  0  0  0
    9.9409  -14.8111   27.7849 C   0  0  2  0  0  0  0  0  0  0  0  0
    8.9483  -15.3485   26.9006 N   0  0  0  0  0  0  0  0  0  0  0  0
   10.2207  -15.6905   28.9326 C   0  0  0  0  0  0  0  0  0  0  0  0
   11.2371  -15.4086   29.8155 O   0  0  0  0  0  0  0  0  0  0  0  0
    9.5250  -16.7095   29.1090 O   0  0  0  0  0  0  0  0  0  0  0  0
  1  2  1  0
  3  2  1  0
  4  3  1  0
  5  4  1  0
  5  7  1  0
  5  6  1  6
  7  8  2  0
  9 10  1  0
  9  7  1  0
 10 11  1  6
 11 12  1  0
 13 17  1  0
 13 12  1  0
 14 13  2  0
 15 20  1  0
 15 10  1  0
 16 15  2  0
 19 20  1  0
 19 18  1  1
 21 22  1  0
 21 19  1  0
 23 21  2  0
M  END
$$$$
