MEA.pdb
     RDKit          3D

 23 22  0  0  1  0  0  0  0  0999 V2000
   -1.1806  -19.9617   23.5041 C   0  0  0  0  0  0  0  0  0  0  0  0
   -2.3641  -20.9017   24.5033 S   0  0  0  0  0  0  0  0  0  0  0  0
   -2.3759  -22.6217   23.9325 C   0  0  0  0  0  0  0  0  0  0  0  0
   -3.3813  -23.4430   24.6942 C   0  0  0  0  0  0  0  0  0  0  0  0
   -3.4066  -23.1533   26.1607 C   0  0  2  0  0  0  0  0  0  0  0  0
   -2.0623  -23.3991   26.6620 N   0  0  0  0  0  0  0  0  0  0  0  0
   -4.3760  -23.9984   26.9007 C   0  0  0  0  0  0  0  0  0  0  0  0
   -5.5618  -24.1355   26.5109 O   0  0  0  0  0  0  0  0  0  0  0  0
   -3.9762  -24.6784   28.0807 N   0  0  0  0  0  0  0  0  0  0  0  0
   -4.9279  -25.4703   28.8677 C   0  0  1  0  0  0  0  0  0  0  0  0
   -4.1713  -26.4794   29.6740 C   0  0  0  0  0  0  0  0  0  0  0  0
   -5.0404  -27.3397   30.5398 C   0  0  0  0  0  0  0  0  0  0  0  0
   -4.1409  -28.2130   31.3475 C   0  0  0  0  0  0  0  0  0  0  0  0
   -4.1785  -28.2719   32.5982 O   0  0  0  0  0  0  0  0  0  0  0  0
   -5.7965  -24.5966   29.6476 C   0  0  0  0  0  0  0  0  0  0  0  0
   -6.7604  -25.0189   30.3258 O   0  0  0  0  0  0  0  0  0  0  0  0
   -3.2050  -29.0097   30.6785 O   0  0  0  0  0  0  0  0  0  0  0  0
   -5.7306  -20.8516   30.2673 C   0  0  0  0  0  0  0  0  0  0  0  0
   -6.3890  -22.2297   30.2709 C   0  0  2  0  0  0  0  0  0  0  0  0
   -5.5427  -23.2011   29.6416 N   0  0  0  0  0  0  0  0  0  0  0  0
   -7.6909  -22.0838   29.5980 C   0  0  0  0  0  0  0  0  0  0  0  0
   -8.6614  -21.2463   30.0971 O   0  0  0  0  0  0  0  0  0  0  0  0
   -7.9197  -22.7300   28.5572 O   0  0  0  0  0  0  0  0  0  0  0  0
  1  2  1  0
  3  2  1  0
  4  3  1  0
  5  4  1  0
  5  7  1  0
  5  6  1  1
  7  8  2  0
  9 10  1  0
  9  7  1  0
 10 11  1  1
 11 12  1  0
 13 17  1  0
 13 12  1  0
 14 13  2  0
 15 20  1  0
 15 10  1  0
 16 15  2  0
 19 20  1  0
 19 18  1  6
 21 22  1  0
 21 19  1  0
 23 21  2  0
M  END
$$$$
