MEA.pdb
     RDKit          3D

 23 22  0  0  1  0  0  0  0  0999 V2000
    7.4695  -11.8163   27.0624 C   0  0  0  0  0  0  0  0  0  0  0  0
    7.0443  -12.1188   25.3275 S   0  0  0  0  0  0  0  0  0  0  0  0
    6.6873  -13.8824   25.1112 C   0  0  0  0  0  0  0  0  0  0  0  0
    6.3517  -14.2001   23.6787 C   0  0  0  0  0  0  0  0  0  0  0  0
    7.5522  -14.4000   22.8104 C   0  0  2  0  0  0  0  0  0  0  0  0
    7.0601  -14.7041   21.4746 N   0  0  0  0  0  0  0  0  0  0  0  0
    8.4292  -15.5007   23.2802 C   0  0  0  0  0  0  0  0  0  0  0  0
    7.9973  -16.6712   23.4231 O   0  0  0  0  0  0  0  0  0  0  0  0
    9.7931  -15.2488   23.5817 N   0  0  0  0  0  0  0  0  0  0  0  0
   10.7085  -16.3338   23.9516 C   0  0  1  0  0  0  0  0  0  0  0  0
   12.0902  -15.9809   23.4963 C   0  0  0  0  0  0  0  0  0  0  0  0
   13.1079  -17.0482   23.7618 C   0  0  0  0  0  0  0  0  0  0  0  0
   14.4103  -16.5688   23.2160 C   0  0  0  0  0  0  0  0  0  0  0  0
   14.5031  -15.7784   22.2486 O   0  0  0  0  0  0  0  0  0  0  0  0
   10.5953  -16.6343   25.3738 C   0  0  0  0  0  0  0  0  0  0  0  0
   10.6134  -15.7529   26.2627 O   0  0  0  0  0  0  0  0  0  0  0  0
   15.5925  -17.0223   23.8116 O   0  0  0  0  0  0  0  0  0  0  0  0
    9.7104  -19.7780   27.2533 C   0  0  0  0  0  0  0  0  0  0  0  0
   10.3902  -18.4149   27.1429 C   0  0  2  0  0  0  0  0  0  0  0  0
   10.4578  -17.9876   25.7759 N   0  0  0  0  0  0  0  0  0  0  0  0
   11.7176  -18.5468   27.7672 C   0  0  0  0  0  0  0  0  0  0  0  0
   11.8504  -18.8297   29.1068 O   0  0  0  0  0  0  0  0  0  0  0  0
   12.7407  -18.3998   27.0707 O   0  0  0  0  0  0  0  0  0  0  0  0
  1  2  1  0
  3  2  1  0
  4  3  1  0
  5  4  1  0
  5  7  1  0
  5  6  1  6
  7  8  2  0
  9 10  1  0
  9  7  1  0
 10 11  1  1
 11 12  1  0
 13 17  1  0
 13 12  1  0
 14 13  2  0
 15 20  1  0
 15 10  1  0
 16 15  2  0
 19 20  1  0
 19 18  1  6
 21 22  1  0
 21 19  1  0
 23 21  2  0
M  END
$$$$
