MEA.pdb
     RDKit          3D

 23 22  0  0  1  0  0  0  0  0999 V2000
    6.9290  -11.4807   24.9784 C   0  0  0  0  0  0  0  0  0  0  0  0
    5.8885  -12.4135   26.1315 S   0  0  0  0  0  0  0  0  0  0  0  0
    6.1613  -14.1851   25.8641 C   0  0  0  0  0  0  0  0  0  0  0  0
    6.6506  -14.4576   24.4670 C   0  0  0  0  0  0  0  0  0  0  0  0
    6.9340  -15.9011   24.2004 C   0  0  2  0  0  0  0  0  0  0  0  0
    5.8481  -16.6617   24.8016 N   0  0  0  0  0  0  0  0  0  0  0  0
    8.2295  -16.3506   24.7669 C   0  0  0  0  0  0  0  0  0  0  0  0
    8.3011  -16.8926   25.8973 O   0  0  0  0  0  0  0  0  0  0  0  0
    9.4307  -16.1741   24.0316 N   0  0  0  0  0  0  0  0  0  0  0  0
   10.7219  -16.6368   24.5521 C   0  0  1  0  0  0  0  0  0  0  0  0
   11.7236  -16.6347   23.4397 C   0  0  0  0  0  0  0  0  0  0  0  0
   11.5223  -17.7321   22.4395 C   0  0  0  0  0  0  0  0  0  0  0  0
   12.4571  -17.4794   21.3053 C   0  0  0  0  0  0  0  0  0  0  0  0
   12.1123  -17.5358   20.1023 O   0  0  0  0  0  0  0  0  0  0  0  0
   11.1100  -15.8566   25.7211 C   0  0  0  0  0  0  0  0  0  0  0  0
   11.6225  -14.7170   25.6435 O   0  0  0  0  0  0  0  0  0  0  0  0
   13.7891  -17.1625   21.5945 O   0  0  0  0  0  0  0  0  0  0  0  0
   10.2405  -14.5785   28.4803 C   0  0  0  0  0  0  0  0  0  0  0  0
   11.2120  -15.7310   28.2343 C   0  0  2  0  0  0  0  0  0  0  0  0
   10.8995  -16.4094   27.0103 N   0  0  0  0  0  0  0  0  0  0  0  0
   11.1374  -16.6124   29.4118 C   0  0  0  0  0  0  0  0  0  0  0  0
   10.7376  -17.9235   29.2967 O   0  0  0  0  0  0  0  0  0  0  0  0
   11.4417  -16.1641   30.5342 O   0  0  0  0  0  0  0  0  0  0  0  0
  1  2  1  0
  3  2  1  0
  4  3  1  0
  5  4  1  0
  5  7  1  0
  5  6  1  1
  7  8  2  0
  9 10  1  0
  9  7  1  0
 10 11  1  6
 11 12  1  0
 13 17  1  0
 13 12  1  0
 14 13  2  0
 15 20  1  0
 15 10  1  0
 16 15  2  0
 19 20  1  0
 19 18  1  1
 21 22  1  0
 21 19  1  0
 23 21  2  0
M  END
$$$$
