MEA.pdb
     RDKit          3D

 23 22  0  0  1  0  0  0  0  0999 V2000
    6.7402  -11.2824   26.7669 C   0  0  0  0  0  0  0  0  0  0  0  0
    6.9187  -11.6768   25.0076 S   0  0  0  0  0  0  0  0  0  0  0  0
    5.9833  -13.1869   24.6486 C   0  0  0  0  0  0  0  0  0  0  0  0
    6.8026  -14.4174   24.9324 C   0  0  0  0  0  0  0  0  0  0  0  0
    7.5376  -14.9383   23.7393 C   0  0  2  0  0  0  0  0  0  0  0  0
    6.5436  -15.5368   22.8603 N   0  0  0  0  0  0  0  0  0  0  0  0
    8.5656  -15.9494   24.0892 C   0  0  0  0  0  0  0  0  0  0  0  0
    8.2742  -17.1626   24.2314 O   0  0  0  0  0  0  0  0  0  0  0  0
    9.9180  -15.5596   24.2728 N   0  0  0  0  0  0  0  0  0  0  0  0
   10.9431  -16.5238   24.6872 C   0  0  1  0  0  0  0  0  0  0  0  0
   12.1959  -16.2660   23.9095 C   0  0  0  0  0  0  0  0  0  0  0  0
   12.0927  -16.6207   22.4573 C   0  0  0  0  0  0  0  0  0  0  0  0
   13.3844  -16.2453   21.8133 C   0  0  0  0  0  0  0  0  0  0  0  0
   14.5013  -16.4292   22.3500 O   0  0  0  0  0  0  0  0  0  0  0  0
   11.1107  -16.4994   26.1354 C   0  0  0  0  0  0  0  0  0  0  0  0
   10.6796  -15.5727   26.8584 O   0  0  0  0  0  0  0  0  0  0  0  0
   13.3526  -15.6571   20.5439 O   0  0  0  0  0  0  0  0  0  0  0  0
   12.0179  -16.3227   28.8420 C   0  0  0  0  0  0  0  0  0  0  0  0
   11.9656  -17.6975   28.1789 C   0  0  2  0  0  0  0  0  0  0  0  0
   11.7938  -17.5738   26.7609 N   0  0  0  0  0  0  0  0  0  0  0  0
   10.8720  -18.4429   28.8247 C   0  0  0  0  0  0  0  0  0  0  0  0
    9.7757  -18.8637   28.1082 O   0  0  0  0  0  0  0  0  0  0  0  0
   10.9388  -18.6983   30.0428 O   0  0  0  0  0  0  0  0  0  0  0  0
  1  2  1  0
  3  2  1  0
  4  3  1  0
  5  4  1  0
  5  7  1  0
  5  6  1  6
  7  8  2  0
  9 10  1  0
  9  7  1  0
 10 11  1  6
 11 12  1  0
 13 17  1  0
 13 12  1  0
 14 13  2  0
 15 20  1  0
 15 10  1  0
 16 15  2  0
 19 20  1  0
 19 18  1  1
 21 22  1  0
 21 19  1  0
 23 21  2  0
M  END
$$$$
