MEA.pdb
     RDKit          3D

 23 22  0  0  1  0  0  0  0  0999 V2000
    7.5744  -11.4065   26.8257 C   0  0  0  0  0  0  0  0  0  0  0  0
    5.8840  -11.5328   26.1859 S   0  0  0  0  0  0  0  0  0  0  0  0
    5.6792  -13.1472   25.3883 C   0  0  0  0  0  0  0  0  0  0  0  0
    6.9111  -13.9968   25.5505 C   0  0  0  0  0  0  0  0  0  0  0  0
    6.8692  -15.2712   24.7699 C   0  0  2  0  0  0  0  0  0  0  0  0
    5.7018  -16.0090   25.2301 N   0  0  0  0  0  0  0  0  0  0  0  0
    8.0858  -16.1010   24.9516 C   0  0  0  0  0  0  0  0  0  0  0  0
    8.2020  -16.8966   25.9161 O   0  0  0  0  0  0  0  0  0  0  0  0
    9.1574  -16.0106   24.0252 N   0  0  0  0  0  0  0  0  0  0  0  0
   10.4103  -16.7457   24.2298 C   0  0  1  0  0  0  0  0  0  0  0  0
   11.1834  -16.7554   22.9480 C   0  0  0  0  0  0  0  0  0  0  0  0
   12.4673  -17.5247   23.0194 C   0  0  0  0  0  0  0  0  0  0  0  0
   13.0997  -17.4638   21.6701 C   0  0  0  0  0  0  0  0  0  0  0  0
   14.2634  -17.0441   21.4727 O   0  0  0  0  0  0  0  0  0  0  0  0
   11.1367  -16.2074   25.3738 C   0  0  0  0  0  0  0  0  0  0  0  0
   11.9220  -15.2360   25.2899 O   0  0  0  0  0  0  0  0  0  0  0  0
   12.3593  -17.8967   20.5645 O   0  0  0  0  0  0  0  0  0  0  0  0
   10.6989  -15.1347   28.4006 C   0  0  0  0  0  0  0  0  0  0  0  0
   11.5177  -16.3057   27.8612 C   0  0  2  0  0  0  0  0  0  0  0  0
   10.9491  -16.8085   26.6448 N   0  0  0  0  0  0  0  0  0  0  0  0
   11.5710  -17.3185   28.9291 C   0  0  0  0  0  0  0  0  0  0  0  0
   11.0532  -18.5792   28.7424 O   0  0  0  0  0  0  0  0  0  0  0  0
   12.0944  -17.0302   30.0228 O   0  0  0  0  0  0  0  0  0  0  0  0
  1  2  1  0
  3  2  1  0
  4  3  1  0
  5  4  1  0
  5  7  1  0
  5  6  1  1
  7  8  2  0
  9 10  1  0
  9  7  1  0
 10 11  1  6
 11 12  1  0
 13 17  1  0
 13 12  1  0
 14 13  2  0
 15 20  1  0
 15 10  1  0
 16 15  2  0
 19 20  1  0
 19 18  1  1
 21 22  1  0
 21 19  1  0
 23 21  2  0
M  END
$$$$
