MEA.pdb
     RDKit          3D

 23 22  0  0  1  0  0  0  0  0999 V2000
    7.5423  -11.3090   25.9304 C   0  0  0  0  0  0  0  0  0  0  0  0
    6.0678  -12.3607   25.8835 S   0  0  0  0  0  0  0  0  0  0  0  0
    6.3764  -13.7518   24.7637 C   0  0  0  0  0  0  0  0  0  0  0  0
    7.1946  -13.3248   23.5747 C   0  0  0  0  0  0  0  0  0  0  0  0
    7.4419  -14.4222   22.5900 C   0  0  2  0  0  0  0  0  0  0  0  0
    6.1374  -14.8950   22.1497 N   0  0  0  0  0  0  0  0  0  0  0  0
    8.2128  -15.5523   23.1646 C   0  0  0  0  0  0  0  0  0  0  0  0
    7.6520  -16.4689   23.8143 O   0  0  0  0  0  0  0  0  0  0  0  0
    9.6196  -15.6203   22.9886 N   0  0  0  0  0  0  0  0  0  0  0  0
   10.3833  -16.8102   23.3797 C   0  0  1  0  0  0  0  0  0  0  0  0
   11.7247  -16.7669   22.7165 C   0  0  0  0  0  0  0  0  0  0  0  0
   12.5524  -17.9957   22.9403 C   0  0  0  0  0  0  0  0  0  0  0  0
   13.8478  -17.7971   22.2284 C   0  0  0  0  0  0  0  0  0  0  0  0
   13.9280  -17.4722   21.0212 O   0  0  0  0  0  0  0  0  0  0  0  0
   10.4269  -16.9341   24.8319 C   0  0  0  0  0  0  0  0  0  0  0  0
   10.8102  -16.0110   25.5859 O   0  0  0  0  0  0  0  0  0  0  0  0
   15.0377  -17.9820   22.9412 O   0  0  0  0  0  0  0  0  0  0  0  0
    9.1321  -19.5898   27.1874 C   0  0  0  0  0  0  0  0  0  0  0  0
   10.0319  -18.4068   26.8361 C   0  0  2  0  0  0  0  0  0  0  0  0
   10.0169  -18.1558   25.4246 N   0  0  0  0  0  0  0  0  0  0  0  0
   11.3763  -18.7254   27.3461 C   0  0  0  0  0  0  0  0  0  0  0  0
   11.6041  -18.9073   28.6905 O   0  0  0  0  0  0  0  0  0  0  0  0
   12.3265  -18.8326   26.5468 O   0  0  0  0  0  0  0  0  0  0  0  0
  1  2  1  0
  3  2  1  0
  4  3  1  0
  5  4  1  0
  5  7  1  0
  5  6  1  1
  7  8  2  0
  9 10  1  0
  9  7  1  0
 10 11  1  1
 11 12  1  0
 13 17  1  0
 13 12  1  0
 14 13  2  0
 15 20  1  0
 15 10  1  0
 16 15  2  0
 19 20  1  0
 19 18  1  6
 21 22  1  0
 21 19  1  0
 23 21  2  0
M  END
$$$$
