MEA.pdb
     RDKit          3D

 23 22  0  0  1  0  0  0  0  0999 V2000
    6.4270  -11.5647   27.1569 C   0  0  0  0  0  0  0  0  0  0  0  0
    7.0094  -11.5816   25.4415 S   0  0  0  0  0  0  0  0  0  0  0  0
    6.9752  -13.2868   24.8285 C   0  0  0  0  0  0  0  0  0  0  0  0
    7.5142  -13.3739   23.4258 C   0  0  0  0  0  0  0  0  0  0  0  0
    7.6308  -14.7732   22.9126 C   0  0  2  0  0  0  0  0  0  0  0  0
    6.2881  -15.3355   22.9135 N   0  0  0  0  0  0  0  0  0  0  0  0
    8.5254  -15.6201   23.7396 C   0  0  0  0  0  0  0  0  0  0  0  0
    8.1303  -16.1467   24.8088 O   0  0  0  0  0  0  0  0  0  0  0  0
    9.8647  -15.8548   23.3325 N   0  0  0  0  0  0  0  0  0  0  0  0
   10.7757  -16.6781   24.1352 C   0  0  1  0  0  0  0  0  0  0  0  0
   11.8840  -17.1727   23.2589 C   0  0  0  0  0  0  0  0  0  0  0  0
   12.8409  -18.0940   23.9523 C   0  0  0  0  0  0  0  0  0  0  0  0
   13.8995  -18.4614   22.9681 C   0  0  0  0  0  0  0  0  0  0  0  0
   13.9902  -19.5959   22.4448 O   0  0  0  0  0  0  0  0  0  0  0  0
   11.2158  -15.9474   25.3178 C   0  0  0  0  0  0  0  0  0  0  0  0
   12.1545  -15.1192   25.3001 O   0  0  0  0  0  0  0  0  0  0  0  0
   14.8423  -17.4924   22.6073 O   0  0  0  0  0  0  0  0  0  0  0  0
   10.1279  -14.5061   28.2700 C   0  0  0  0  0  0  0  0  0  0  0  0
   11.0028  -15.6711   27.8118 C   0  0  2  0  0  0  0  0  0  0  0  0
   10.5529  -16.1815   26.5497 N   0  0  0  0  0  0  0  0  0  0  0  0
   10.9661  -16.6810   28.8830 C   0  0  0  0  0  0  0  0  0  0  0  0
   10.5306  -17.9629   28.6396 O   0  0  0  0  0  0  0  0  0  0  0  0
   11.3360  -16.3707   30.0321 O   0  0  0  0  0  0  0  0  0  0  0  0
  1  2  1  0
  3  2  1  0
  4  3  1  0
  5  4  1  0
  5  7  1  0
  5  6  1  1
  7  8  2  0
  9 10  1  0
  9  7  1  0
 10 11  1  6
 11 12  1  0
 13 17  1  0
 13 12  1  0
 14 13  2  0
 15 20  1  0
 15 10  1  0
 16 15  2  0
 19 20  1  0
 19 18  1  1
 21 22  1  0
 21 19  1  0
 23 21  2  0
M  END
$$$$
