MEA.pdb
     RDKit          3D

 23 22  0  0  1  0  0  0  0  0999 V2000
    7.0063  -11.2610   26.4946 C   0  0  0  0  0  0  0  0  0  0  0  0
    5.4444  -12.1748   26.4069 S   0  0  0  0  0  0  0  0  0  0  0  0
    5.6372  -13.5534   25.2464 C   0  0  0  0  0  0  0  0  0  0  0  0
    6.9172  -14.3043   25.4981 C   0  0  0  0  0  0  0  0  0  0  0  0
    7.1452  -15.4380   24.5505 C   0  0  2  0  0  0  0  0  0  0  0  0
    5.9901  -16.3171   24.6596 N   0  0  0  0  0  0  0  0  0  0  0  0
    8.3817  -16.2017   24.8490 C   0  0  0  0  0  0  0  0  0  0  0  0
    8.4209  -17.0591   25.7656 O   0  0  0  0  0  0  0  0  0  0  0  0
    9.5617  -15.9750   24.0934 N   0  0  0  0  0  0  0  0  0  0  0  0
   10.8380  -16.5974   24.4617 C   0  0  1  0  0  0  0  0  0  0  0  0
   11.7521  -16.5706   23.2765 C   0  0  0  0  0  0  0  0  0  0  0  0
   11.2419  -17.3440   22.0989 C   0  0  0  0  0  0  0  0  0  0  0  0
   12.3363  -17.3898   21.0868 C   0  0  0  0  0  0  0  0  0  0  0  0
   12.2422  -18.0004   19.9971 O   0  0  0  0  0  0  0  0  0  0  0  0
   11.3816  -15.9746   25.6628 C   0  0  0  0  0  0  0  0  0  0  0  0
   12.2426  -15.0662   25.6324 O   0  0  0  0  0  0  0  0  0  0  0  0
   13.5319  -16.7176   21.3640 O   0  0  0  0  0  0  0  0  0  0  0  0
   10.5352  -14.6370   28.5542 C   0  0  0  0  0  0  0  0  0  0  0  0
   11.3580  -15.8677   28.1788 C   0  0  2  0  0  0  0  0  0  0  0  0
   10.9170  -16.4143   26.9288 N   0  0  0  0  0  0  0  0  0  0  0  0
   11.2359  -16.8209   29.2947 C   0  0  0  0  0  0  0  0  0  0  0  0
   10.7057  -18.0760   29.1054 O   0  0  0  0  0  0  0  0  0  0  0  0
   11.6194  -16.4863   30.4324 O   0  0  0  0  0  0  0  0  0  0  0  0
  1  2  1  0
  3  2  1  0
  4  3  1  0
  5  4  1  0
  5  7  1  0
  5  6  1  1
  7  8  2  0
  9 10  1  0
  9  7  1  0
 10 11  1  6
 11 12  1  0
 13 17  1  0
 13 12  1  0
 14 13  2  0
 15 20  1  0
 15 10  1  0
 16 15  2  0
 19 20  1  0
 19 18  1  1
 21 22  1  0
 21 19  1  0
 23 21  2  0
M  END
$$$$
