MEA.pdb
     RDKit          3D

 23 22  0  0  1  0  0  0  0  0999 V2000
    7.2143  -11.9275   17.8432 C   0  0  0  0  0  0  0  0  0  0  0  0
    6.9150  -12.8367   19.3815 S   0  0  0  0  0  0  0  0  0  0  0  0
    8.4313  -13.7126   19.8482 C   0  0  0  0  0  0  0  0  0  0  0  0
    8.2671  -14.4261   21.1634 C   0  0  0  0  0  0  0  0  0  0  0  0
    9.5238  -15.0646   21.6616 C   0  0  2  0  0  0  0  0  0  0  0  0
    9.7535  -16.2422   20.8373 N   0  0  0  0  0  0  0  0  0  0  0  0
    9.4435  -15.4639   23.0884 C   0  0  0  0  0  0  0  0  0  0  0  0
    8.9466  -14.7056   23.9572 O   0  0  0  0  0  0  0  0  0  0  0  0
    9.9338  -16.7291   23.5051 N   0  0  0  0  0  0  0  0  0  0  0  0
    9.8449  -17.1616   24.9041 C   0  0  1  0  0  0  0  0  0  0  0  0
   10.4493  -18.5252   25.0309 C   0  0  0  0  0  0  0  0  0  0  0  0
   10.4303  -19.0701   26.4265 C   0  0  0  0  0  0  0  0  0  0  0  0
   11.0578  -20.4225   26.3863 C   0  0  0  0  0  0  0  0  0  0  0  0
   11.5420  -20.9269   25.3470 O   0  0  0  0  0  0  0  0  0  0  0  0
   10.4236  -16.1557   25.7869 C   0  0  0  0  0  0  0  0  0  0  0  0
   11.6412  -15.8643   25.7864 O   0  0  0  0  0  0  0  0  0  0  0  0
   11.1109  -21.1704   27.5678 O   0  0  0  0  0  0  0  0  0  0  0  0
    8.9644  -13.4882   27.9741 C   0  0  0  0  0  0  0  0  0  0  0  0
   10.0336  -14.5375   27.6767 C   0  0  2  0  0  0  0  0  0  0  0  0
    9.5720  -15.4713   26.6915 N   0  0  0  0  0  0  0  0  0  0  0  0
   10.3721  -15.1789   28.9584 C   0  0  0  0  0  0  0  0  0  0  0  0
   10.1395  -16.5183   29.1687 O   0  0  0  0  0  0  0  0  0  0  0  0
   10.8787  -14.4976   29.8709 O   0  0  0  0  0  0  0  0  0  0  0  0
  1  2  1  0
  3  2  1  0
  4  3  1  0
  5  4  1  0
  5  7  1  0
  5  6  1  6
  7  8  2  0
  9 10  1  0
  9  7  1  0
 10 11  1  6
 11 12  1  0
 13 17  1  0
 13 12  1  0
 14 13  2  0
 15 20  1  0
 15 10  1  0
 16 15  2  0
 19 20  1  0
 19 18  1  1
 21 22  1  0
 21 19  1  0
 23 21  2  0
M  END
$$$$
