HEI.pdb
     RDKit          3D

 28 28  0  0  1  0  0  0  0  0999 V2000
   10.0857  -13.4206   18.7211 N   0  0  0  0  0  0  0  0  0  0  0  0
    8.9632  -13.0633   19.5641 C   0  0  1  0  0  0  0  0  0  0  0  0
    7.7287  -12.9113   18.7356 C   0  0  0  0  0  0  0  0  0  0  0  0
    7.9136  -13.7590   17.5010 C   0  0  0  0  0  0  0  0  0  0  0  0
    9.0472  -14.4650   17.1524 C   0  0  0  0  0  0  0  0  0  0  0  0
    8.8482  -15.1022   15.9905 N   0  0  0  0  0  0  0  0  0  0  0  0
    7.5943  -14.7966   15.6120 C   0  0  0  0  0  0  0  0  0  0  0  0
    7.0246  -13.9851   16.5208 N   0  0  0  0  0  0  0  0  0  0  0  0
    8.8573  -13.9506   20.7072 C   0  0  0  0  0  0  0  0  0  0  0  0
    7.9102  -13.7651   21.5253 O   0  0  0  0  0  0  0  0  0  0  0  0
    9.7340  -15.0301   21.0007 N   0  0  0  0  0  0  0  0  0  0  0  0
    9.4989  -15.8958   22.1287 C   0  0  1  0  0  0  0  0  0  0  0  0
   10.2914  -17.1430   22.1081 C   0  0  0  0  0  0  0  0  0  0  0  0
   10.1654  -18.0988   23.2237 C   0  0  0  0  0  0  0  0  0  0  0  0
   11.0013  -19.2847   23.2300 C   0  0  0  0  0  0  0  0  0  0  0  0
   10.7299  -20.2306   22.4124 O   0  0  0  0  0  0  0  0  0  0  0  0
    9.6256  -15.1473   23.4231 C   0  0  0  0  0  0  0  0  0  0  0  0
   10.6276  -14.4545   23.6930 O   0  0  0  0  0  0  0  0  0  0  0  0
   12.0900  -19.4815   24.0641 O   0  0  0  0  0  0  0  0  0  0  0  0
    6.2857  -11.8954   27.0678 C   0  0  0  0  0  0  0  0  0  0  0  0
    7.3955  -12.9020   27.0100 C   0  0  0  0  0  0  0  0  0  0  0  0
    7.4079  -13.6938   25.7183 C   0  0  2  0  0  0  0  0  0  0  0  0
    6.0806  -14.3713   25.5841 C   0  0  0  0  0  0  0  0  0  0  0  0
    8.5835  -14.5953   25.6525 C   0  0  2  0  0  0  0  0  0  0  0  0
    8.5762  -15.2420   24.3428 N   0  0  0  0  0  0  0  0  0  0  0  0
    8.6608  -15.5785   26.7453 C   0  0  0  0  0  0  0  0  0  0  0  0
    9.1288  -15.3255   28.0031 O   0  0  0  0  0  0  0  0  0  0  0  0
    8.2599  -16.7580   26.4986 O   0  0  0  0  0  0  0  0  0  0  0  0
  2  9  1  0
  2  1  1  6
  3  2  1  0
  4  3  1  0
  4  5  2  0
  6  5  1  0
  7  8  2  0
  7  6  1  0
  8  4  1  0
  9 11  1  0
 10  9  2  0
 11 12  1  0
 12 13  1  1
 13 14  1  0
 14 15  1  0
 15 19  1  0
 16 15  2  0
 17 12  1  0
 18 17  2  0
 21 20  1  0
 21 22  1  0
 22 24  1  0
 22 23  1  1
 24 25  1  6
 24 26  1  0
 25 17  1  0
 26 27  1  0
 28 26  2  0
M  END
$$$$
