HEI.pdb
     RDKit          3D

 28 28  0  0  1  0  0  0  0  0999 V2000
    6.4862  -17.1388   20.4449 N   0  0  0  0  0  0  0  0  0  0  0  0
    7.3345  -16.1451   21.0703 C   0  0  1  0  0  0  0  0  0  0  0  0
    6.7277  -14.7875   20.9222 C   0  0  0  0  0  0  0  0  0  0  0  0
    7.5864  -14.0197   19.9473 C   0  0  0  0  0  0  0  0  0  0  0  0
    8.7129  -14.4870   19.3013 C   0  0  0  0  0  0  0  0  0  0  0  0
    9.2160  -13.5286   18.5113 N   0  0  0  0  0  0  0  0  0  0  0  0
    8.4076  -12.4642   18.6617 C   0  0  0  0  0  0  0  0  0  0  0  0
    7.4211  -12.7550   19.5284 N   0  0  0  0  0  0  0  0  0  0  0  0
    7.6995  -16.5354   22.4193 C   0  0  0  0  0  0  0  0  0  0  0  0
    6.7734  -16.7328   23.2584 O   0  0  0  0  0  0  0  0  0  0  0  0
    9.0253  -16.7210   22.8969 N   0  0  0  0  0  0  0  0  0  0  0  0
    9.2779  -17.1254   24.2570 C   0  0  1  0  0  0  0  0  0  0  0  0
   10.1424  -18.3175   24.3817 C   0  0  0  0  0  0  0  0  0  0  0  0
   10.5507  -18.7780   25.7215 C   0  0  0  0  0  0  0  0  0  0  0  0
   11.4493  -19.9120   25.8305 C   0  0  0  0  0  0  0  0  0  0  0  0
   11.1159  -21.0144   25.2732 O   0  0  0  0  0  0  0  0  0  0  0  0
    9.7565  -15.9703   25.0867 C   0  0  0  0  0  0  0  0  0  0  0  0
   10.7010  -15.2400   24.7243 O   0  0  0  0  0  0  0  0  0  0  0  0
   12.6617  -19.8999   26.5009 O   0  0  0  0  0  0  0  0  0  0  0  0
    6.1700  -12.8994   27.0586 C   0  0  0  0  0  0  0  0  0  0  0  0
    7.4583  -13.5154   26.6014 C   0  0  0  0  0  0  0  0  0  0  0  0
    8.3168  -14.0086   27.7483 C   0  0  2  0  0  0  0  0  0  0  0  0
    8.5699  -12.8506   28.6614 C   0  0  0  0  0  0  0  0  0  0  0  0
    9.5336  -14.6952   27.2513 C   0  0  2  0  0  0  0  0  0  0  0  0
    9.1099  -15.7209   26.3014 N   0  0  0  0  0  0  0  0  0  0  0  0
   10.3943  -15.2528   28.3074 C   0  0  0  0  0  0  0  0  0  0  0  0
   11.3618  -14.5648   28.9823 O   0  0  0  0  0  0  0  0  0  0  0  0
   10.2235  -16.4728   28.6160 O   0  0  0  0  0  0  0  0  0  0  0  0
  2  9  1  0
  2  1  1  1
  3  2  1  0
  4  3  1  0
  4  5  2  0
  6  5  1  0
  7  8  2  0
  7  6  1  0
  8  4  1  0
  9 11  1  0
 10  9  2  0
 11 12  1  0
 12 13  1  6
 13 14  1  0
 14 15  1  0
 15 19  1  0
 16 15  2  0
 17 12  1  0
 18 17  2  0
 21 20  1  0
 21 22  1  0
 22 24  1  0
 22 23  1  1
 24 25  1  6
 24 26  1  0
 25 17  1  0
 26 27  1  0
 28 26  2  0
M  END
$$$$
