HEI.pdb
     RDKit          3D

 28 28  0  0  1  0  0  0  0  0999 V2000
    9.0657  -15.8137   19.0053 N   0  0  0  0  0  0  0  0  0  0  0  0
    7.9882  -15.0164   19.5546 C   0  0  1  0  0  0  0  0  0  0  0  0
    6.8363  -14.9873   18.6031 C   0  0  0  0  0  0  0  0  0  0  0  0
    7.3714  -14.5255   17.2698 C   0  0  0  0  0  0  0  0  0  0  0  0
    7.9227  -13.2916   16.9896 C   0  0  0  0  0  0  0  0  0  0  0  0
    8.2887  -13.2376   15.7016 N   0  0  0  0  0  0  0  0  0  0  0  0
    7.9678  -14.4335   15.1763 C   0  0  0  0  0  0  0  0  0  0  0  0
    7.4131  -15.2159   16.1192 N   0  0  0  0  0  0  0  0  0  0  0  0
    7.6793  -15.4118   20.9160 C   0  0  0  0  0  0  0  0  0  0  0  0
    6.7846  -14.7701   21.5391 O   0  0  0  0  0  0  0  0  0  0  0  0
    8.2989  -16.4731   21.6301 N   0  0  0  0  0  0  0  0  0  0  0  0
    7.9561  -16.7478   23.0028 C   0  0  1  0  0  0  0  0  0  0  0  0
    8.1767  -18.1509   23.4110 C   0  0  0  0  0  0  0  0  0  0  0  0
    7.9246  -18.5459   24.8089 C   0  0  0  0  0  0  0  0  0  0  0  0
    8.1323  -19.9287   25.1962 C   0  0  0  0  0  0  0  0  0  0  0  0
    8.4540  -20.7766   24.2937 O   0  0  0  0  0  0  0  0  0  0  0  0
    8.6038  -15.7632   23.9316 C   0  0  0  0  0  0  0  0  0  0  0  0
    9.8219  -15.4990   23.8732 O   0  0  0  0  0  0  0  0  0  0  0  0
    8.0090  -20.4165   26.4872 O   0  0  0  0  0  0  0  0  0  0  0  0
    6.5495  -10.9036   26.9641 C   0  0  0  0  0  0  0  0  0  0  0  0
    7.6202  -11.9433   26.8207 C   0  0  0  0  0  0  0  0  0  0  0  0
    7.1534  -13.1716   26.0664 C   0  0  2  0  0  0  0  0  0  0  0  0
    6.0107  -13.7683   26.8260 C   0  0  0  0  0  0  0  0  0  0  0  0
    8.2806  -14.0967   25.7969 C   0  0  2  0  0  0  0  0  0  0  0  0
    7.7993  -15.1319   24.8856 N   0  0  0  0  0  0  0  0  0  0  0  0
    8.8970  -14.6753   27.0020 C   0  0  0  0  0  0  0  0  0  0  0  0
    9.8710  -14.0817   27.7530 O   0  0  0  0  0  0  0  0  0  0  0  0
    8.4902  -15.8195   27.3736 O   0  0  0  0  0  0  0  0  0  0  0  0
  2  9  1  0
  2  1  1  6
  3  2  1  0
  4  3  1  0
  4  5  2  0
  6  5  1  0
  7  8  2  0
  7  6  1  0
  8  4  1  0
  9 11  1  0
 10  9  2  0
 11 12  1  0
 12 13  1  1
 13 14  1  0
 14 15  1  0
 15 19  1  0
 16 15  2  0
 17 12  1  0
 18 17  2  0
 21 20  1  0
 21 22  1  0
 22 24  1  0
 22 23  1  1
 24 25  1  6
 24 26  1  0
 25 17  1  0
 26 27  1  0
 28 26  2  0
M  END
$$$$
