HEI.pdb
     RDKit          3D

 28 28  0  0  1  0  0  0  0  0999 V2000
    6.4507  -16.9649   19.6168 N   0  0  0  0  0  0  0  0  0  0  0  0
    7.1875  -16.0175   20.4279 C   0  0  1  0  0  0  0  0  0  0  0  0
    6.8975  -14.6227   19.9766 C   0  0  0  0  0  0  0  0  0  0  0  0
    7.7204  -14.3758   18.7360 C   0  0  0  0  0  0  0  0  0  0  0  0
    8.5782  -15.2704   18.1287 C   0  0  0  0  0  0  0  0  0  0  0  0
    9.1368  -14.7056   17.0494 N   0  0  0  0  0  0  0  0  0  0  0  0
    8.6309  -13.4613   16.9806 C   0  0  0  0  0  0  0  0  0  0  0  0
    7.7744  -13.2562   17.9971 N   0  0  0  0  0  0  0  0  0  0  0  0
    7.0050  -16.2794   21.8434 C   0  0  0  0  0  0  0  0  0  0  0  0
    5.9534  -15.8519   22.4021 O   0  0  0  0  0  0  0  0  0  0  0  0
    7.9135  -16.9849   22.6782 N   0  0  0  0  0  0  0  0  0  0  0  0
    7.6913  -17.0925   24.0981 C   0  0  1  0  0  0  0  0  0  0  0  0
    7.8320  -18.4645   24.6289 C   0  0  0  0  0  0  0  0  0  0  0  0
    7.5860  -18.7149   26.0610 C   0  0  0  0  0  0  0  0  0  0  0  0
    7.7907  -20.0523   26.5851 C   0  0  0  0  0  0  0  0  0  0  0  0
    6.8710  -20.5767   27.3035 O   0  0  0  0  0  0  0  0  0  0  0  0
    8.5128  -16.0894   24.8536 C   0  0  0  0  0  0  0  0  0  0  0  0
    9.7101  -15.8711   24.5789 O   0  0  0  0  0  0  0  0  0  0  0  0
    8.9212  -20.8233   26.3681 O   0  0  0  0  0  0  0  0  0  0  0  0
    5.9815  -11.6886   25.9182 C   0  0  0  0  0  0  0  0  0  0  0  0
    7.0624  -12.7022   25.6889 C   0  0  0  0  0  0  0  0  0  0  0  0
    7.6038  -13.2896   26.9763 C   0  0  2  0  0  0  0  0  0  0  0  0
    8.1296  -12.1625   27.8080 C   0  0  0  0  0  0  0  0  0  0  0  0
    8.5754  -14.3763   26.7036 C   0  0  2  0  0  0  0  0  0  0  0  0
    7.8981  -15.3869   25.8951 N   0  0  0  0  0  0  0  0  0  0  0  0
    9.1893  -14.9624   27.9063 C   0  0  0  0  0  0  0  0  0  0  0  0
   10.2983  -14.4806   28.5411 O   0  0  0  0  0  0  0  0  0  0  0  0
    8.6434  -16.0005   28.3934 O   0  0  0  0  0  0  0  0  0  0  0  0
  2  9  1  0
  2  1  1  6
  3  2  1  0
  4  3  1  0
  4  5  2  0
  6  5  1  0
  7  8  2  0
  7  6  1  0
  8  4  1  0
  9 11  1  0
 10  9  2  0
 11 12  1  0
 12 13  1  1
 13 14  1  0
 14 15  1  0
 15 19  1  0
 16 15  2  0
 17 12  1  0
 18 17  2  0
 21 20  1  0
 21 22  1  0
 22 24  1  0
 22 23  1  6
 24 25  1  1
 24 26  1  0
 25 17  1  0
 26 27  1  0
 28 26  2  0
M  END
$$$$
