HEI.pdb
     RDKit          3D

 28 28  0  0  1  0  0  0  0  0999 V2000
    6.7198  -16.9624   20.4069 N   0  0  0  0  0  0  0  0  0  0  0  0
    7.6019  -16.0072   21.0454 C   0  0  1  0  0  0  0  0  0  0  0  0
    7.0300  -14.6308   20.9382 C   0  0  0  0  0  0  0  0  0  0  0  0
    7.6455  -13.9862   19.7205 C   0  0  0  0  0  0  0  0  0  0  0  0
    8.5757  -14.5537   18.8733 C   0  0  0  0  0  0  0  0  0  0  0  0
    8.8941  -13.6887   17.9006 N   0  0  0  0  0  0  0  0  0  0  0  0
    8.1659  -12.5829   18.1372 C   0  0  0  0  0  0  0  0  0  0  0  0
    7.4096  -12.7567   19.2357 N   0  0  0  0  0  0  0  0  0  0  0  0
    7.9727  -16.4402   22.3797 C   0  0  0  0  0  0  0  0  0  0  0  0
    7.0840  -16.4373   23.2803 O   0  0  0  0  0  0  0  0  0  0  0  0
    9.2652  -16.8763   22.7788 N   0  0  0  0  0  0  0  0  0  0  0  0
    9.5553  -17.1851   24.1564 C   0  0  1  0  0  0  0  0  0  0  0  0
   10.5320  -18.2793   24.3370 C   0  0  0  0  0  0  0  0  0  0  0  0
   10.8798  -18.7210   25.7000 C   0  0  0  0  0  0  0  0  0  0  0  0
   11.9398  -19.6966   25.8730 C   0  0  0  0  0  0  0  0  0  0  0  0
   11.6218  -20.9062   26.1428 O   0  0  0  0  0  0  0  0  0  0  0  0
    9.9183  -15.9486   24.9251 C   0  0  0  0  0  0  0  0  0  0  0  0
   10.7827  -15.1454   24.5192 O   0  0  0  0  0  0  0  0  0  0  0  0
   13.2937  -19.4218   25.7681 O   0  0  0  0  0  0  0  0  0  0  0  0
    6.3459  -12.7481   26.2721 C   0  0  0  0  0  0  0  0  0  0  0  0
    7.6545  -13.4404   26.0344 C   0  0  0  0  0  0  0  0  0  0  0  0
    8.3436  -13.8576   27.3176 C   0  0  2  0  0  0  0  0  0  0  0  0
    8.5168  -12.6348   28.1624 C   0  0  0  0  0  0  0  0  0  0  0  0
    9.5903  -14.6100   27.0374 C   0  0  2  0  0  0  0  0  0  0  0  0
    9.2551  -15.7064   26.1323 N   0  0  0  0  0  0  0  0  0  0  0  0
   10.2965  -15.0899   28.2366 C   0  0  0  0  0  0  0  0  0  0  0  0
   11.2181  -14.3764   28.9482 O   0  0  0  0  0  0  0  0  0  0  0  0
   10.0269  -16.2627   28.6424 O   0  0  0  0  0  0  0  0  0  0  0  0
  2  9  1  0
  2  1  1  1
  3  2  1  0
  4  3  1  0
  4  5  2  0
  6  5  1  0
  7  8  2  0
  7  6  1  0
  8  4  1  0
  9 11  1  0
 10  9  2  0
 11 12  1  0
 12 13  1  6
 13 14  1  0
 14 15  1  0
 15 19  1  0
 16 15  2  0
 17 12  1  0
 18 17  2  0
 21 20  1  0
 21 22  1  0
 22 24  1  0
 22 23  1  1
 24 25  1  6
 24 26  1  0
 25 17  1  0
 26 27  1  0
 28 26  2  0
M  END
$$$$
