HEI.pdb
     RDKit          3D

 28 28  0  0  1  0  0  0  0  0999 V2000
    5.8421  -17.2558   21.4354 N   0  0  0  0  0  0  0  0  0  0  0  0
    6.9548  -16.3300   21.4905 C   0  0  1  0  0  0  0  0  0  0  0  0
    6.4603  -14.9264   21.3534 C   0  0  0  0  0  0  0  0  0  0  0  0
    7.1529  -14.3251   20.1552 C   0  0  0  0  0  0  0  0  0  0  0  0
    8.0229  -14.9711   19.3004 C   0  0  0  0  0  0  0  0  0  0  0  0
    8.4421  -14.1240   18.3504 N   0  0  0  0  0  0  0  0  0  0  0  0
    7.8368  -12.9510   18.6089 C   0  0  0  0  0  0  0  0  0  0  0  0
    7.0567  -13.0664   19.6984 N   0  0  0  0  0  0  0  0  0  0  0  0
    7.8071  -16.5956   22.6343 C   0  0  0  0  0  0  0  0  0  0  0  0
    7.3194  -17.2361   23.6103 O   0  0  0  0  0  0  0  0  0  0  0  0
    9.1651  -16.1968   22.7646 N   0  0  0  0  0  0  0  0  0  0  0  0
   10.0761  -16.9203   23.6154 C   0  0  1  0  0  0  0  0  0  0  0  0
   11.4494  -17.0238   23.0795 C   0  0  0  0  0  0  0  0  0  0  0  0
   12.4790  -17.7342   23.8601 C   0  0  0  0  0  0  0  0  0  0  0  0
   13.7831  -17.9563   23.2642 C   0  0  0  0  0  0  0  0  0  0  0  0
   14.5519  -18.8380   23.7823 O   0  0  0  0  0  0  0  0  0  0  0  0
   10.0380  -16.3965   25.0211 C   0  0  0  0  0  0  0  0  0  0  0  0
   10.7065  -16.9130   25.9394 O   0  0  0  0  0  0  0  0  0  0  0  0
   14.2743  -17.2799   22.1593 O   0  0  0  0  0  0  0  0  0  0  0  0
    6.2270  -12.4294   25.6048 C   0  0  0  0  0  0  0  0  0  0  0  0
    7.5788  -13.0650   25.4746 C   0  0  0  0  0  0  0  0  0  0  0  0
    7.9891  -13.8387   26.7109 C   0  0  2  0  0  0  0  0  0  0  0  0
    7.9182  -12.9062   27.8789 C   0  0  0  0  0  0  0  0  0  0  0  0
    9.2998  -14.5048   26.5168 C   0  0  2  0  0  0  0  0  0  0  0  0
    9.2214  -15.2934   25.2898 N   0  0  0  0  0  0  0  0  0  0  0  0
    9.7464  -15.3180   27.6597 C   0  0  0  0  0  0  0  0  0  0  0  0
    9.7687  -16.6830   27.6963 O   0  0  0  0  0  0  0  0  0  0  0  0
   10.1433  -14.7003   28.6959 O   0  0  0  0  0  0  0  0  0  0  0  0
  2  9  1  0
  2  1  1  1
  3  2  1  0
  4  3  1  0
  4  5  2  0
  6  5  1  0
  7  8  2  0
  7  6  1  0
  8  4  1  0
  9 11  1  0
 10  9  2  0
 11 12  1  0
 12 13  1  6
 13 14  1  0
 14 15  1  0
 15 19  1  0
 16 15  2  0
 17 12  1  0
 18 17  2  0
 21 20  1  0
 21 22  1  0
 22 24  1  0
 22 23  1  1
 24 25  1  6
 24 26  1  0
 25 17  1  0
 26 27  1  0
 28 26  2  0
M  END
$$$$
