HEI.pdb
     RDKit          3D

 28 28  0  0  1  0  0  0  0  0999 V2000
    7.8764  -16.8136   19.3580 N   0  0  0  0  0  0  0  0  0  0  0  0
    8.0498  -15.6932   20.2596 C   0  0  1  0  0  0  0  0  0  0  0  0
    7.0826  -14.6065   19.9178 C   0  0  0  0  0  0  0  0  0  0  0  0
    7.4648  -14.0823   18.5553 C   0  0  0  0  0  0  0  0  0  0  0  0
    8.2704  -12.9931   18.2915 C   0  0  0  0  0  0  0  0  0  0  0  0
    8.3899  -12.8244   16.9674 N   0  0  0  0  0  0  0  0  0  0  0  0
    7.6616  -13.8044   16.4034 C   0  0  0  0  0  0  0  0  0  0  0  0
    7.1002  -14.5676   17.3579 N   0  0  0  0  0  0  0  0  0  0  0  0
    8.0578  -16.1257   21.6446 C   0  0  0  0  0  0  0  0  0  0  0  0
    6.9636  -16.4871   22.1668 O   0  0  0  0  0  0  0  0  0  0  0  0
    9.2013  -16.1832   22.4868 N   0  0  0  0  0  0  0  0  0  0  0  0
    9.1111  -16.6916   23.8324 C   0  0  1  0  0  0  0  0  0  0  0  0
    9.6521  -18.0566   23.9995 C   0  0  0  0  0  0  0  0  0  0  0  0
    9.6706  -18.6683   25.3410 C   0  0  0  0  0  0  0  0  0  0  0  0
   10.3338  -19.9461   25.5209 C   0  0  0  0  0  0  0  0  0  0  0  0
   11.2238  -20.0519   26.4340 O   0  0  0  0  0  0  0  0  0  0  0  0
    9.6792  -15.7156   24.8206 C   0  0  0  0  0  0  0  0  0  0  0  0
   10.7962  -15.1835   24.6597 O   0  0  0  0  0  0  0  0  0  0  0  0
   10.0783  -21.0832   24.7716 O   0  0  0  0  0  0  0  0  0  0  0  0
    6.3212  -12.2242   26.5451 C   0  0  0  0  0  0  0  0  0  0  0  0
    7.5768  -12.9701   26.2056 C   0  0  0  0  0  0  0  0  0  0  0  0
    8.1917  -13.6669   27.4022 C   0  0  2  0  0  0  0  0  0  0  0  0
    8.4765  -12.6277   28.4404 C   0  0  0  0  0  0  0  0  0  0  0  0
    9.3571  -14.4922   27.0025 C   0  0  2  0  0  0  0  0  0  0  0  0
    8.9165  -15.4057   25.9512 N   0  0  0  0  0  0  0  0  0  0  0  0
   10.0059  -15.2103   28.1116 C   0  0  0  0  0  0  0  0  0  0  0  0
   11.0004  -14.7090   28.9020 O   0  0  0  0  0  0  0  0  0  0  0  0
    9.6087  -16.3921   28.3534 O   0  0  0  0  0  0  0  0  0  0  0  0
  2  9  1  0
  2  1  1  6
  3  2  1  0
  4  3  1  0
  4  5  2  0
  6  5  1  0
  7  8  2  0
  7  6  1  0
  8  4  1  0
  9 11  1  0
 10  9  2  0
 11 12  1  0
 12 13  1  6
 13 14  1  0
 14 15  1  0
 15 19  1  0
 16 15  2  0
 17 12  1  0
 18 17  2  0
 21 20  1  0
 21 22  1  0
 22 24  1  0
 22 23  1  1
 24 25  1  6
 24 26  1  0
 25 17  1  0
 26 27  1  0
 28 26  2  0
M  END
$$$$
