HEI.pdb
     RDKit          3D

 28 28  0  0  1  0  0  0  0  0999 V2000
    7.6097  -16.9841   19.3716 N   0  0  0  0  0  0  0  0  0  0  0  0
    8.0998  -15.8950   20.1913 C   0  0  1  0  0  0  0  0  0  0  0  0
    7.2575  -14.6783   19.9832 C   0  0  0  0  0  0  0  0  0  0  0  0
    7.4903  -14.2123   18.5669 C   0  0  0  0  0  0  0  0  0  0  0  0
    8.3234  -14.7993   17.6363 C   0  0  0  0  0  0  0  0  0  0  0  0
    8.2776  -14.1131   16.4861 N   0  0  0  0  0  0  0  0  0  0  0  0
    7.4187  -13.0995   16.6952 C   0  0  0  0  0  0  0  0  0  0  0  0
    6.9397  -13.1541   17.9508 N   0  0  0  0  0  0  0  0  0  0  0  0
    8.2859  -16.3123   21.5685 C   0  0  0  0  0  0  0  0  0  0  0  0
    7.2661  -16.6524   22.2355 O   0  0  0  0  0  0  0  0  0  0  0  0
    9.5301  -16.3768   22.2525 N   0  0  0  0  0  0  0  0  0  0  0  0
    9.6069  -16.8290   23.6189 C   0  0  1  0  0  0  0  0  0  0  0  0
   10.4614  -18.0188   23.8139 C   0  0  0  0  0  0  0  0  0  0  0  0
   10.7397  -18.9052   22.6691 C   0  0  0  0  0  0  0  0  0  0  0  0
   12.1150  -19.0994   22.2495 C   0  0  0  0  0  0  0  0  0  0  0  0
   12.4245  -18.8580   21.0317 O   0  0  0  0  0  0  0  0  0  0  0  0
    9.9590  -15.7018   24.5447 C   0  0  0  0  0  0  0  0  0  0  0  0
   10.9403  -14.9585   24.3412 O   0  0  0  0  0  0  0  0  0  0  0  0
   13.1407  -19.5327   23.0740 O   0  0  0  0  0  0  0  0  0  0  0  0
    6.2177  -12.6154   25.8761 C   0  0  0  0  0  0  0  0  0  0  0  0
    7.6009  -13.1651   25.6950 C   0  0  0  0  0  0  0  0  0  0  0  0
    8.1710  -13.7602   26.9663 C   0  0  2  0  0  0  0  0  0  0  0  0
    8.2840  -12.6612   27.9754 C   0  0  0  0  0  0  0  0  0  0  0  0
    9.4288  -14.4980   26.6966 C   0  0  2  0  0  0  0  0  0  0  0  0
    9.1488  -15.4940   25.6655 N   0  0  0  0  0  0  0  0  0  0  0  0
   10.0479  -15.1045   27.8864 C   0  0  0  0  0  0  0  0  0  0  0  0
   10.0293  -16.4348   28.1945 O   0  0  0  0  0  0  0  0  0  0  0  0
   10.6482  -14.3278   28.6921 O   0  0  0  0  0  0  0  0  0  0  0  0
  2  9  1  0
  2  1  1  6
  3  2  1  0
  4  3  1  0
  4  5  2  0
  6  5  1  0
  7  8  2  0
  7  6  1  0
  8  4  1  0
  9 11  1  0
 10  9  2  0
 11 12  1  0
 12 13  1  6
 13 14  1  0
 14 15  1  0
 15 19  1  0
 16 15  2  0
 17 12  1  0
 18 17  2  0
 21 20  1  0
 21 22  1  0
 22 24  1  0
 22 23  1  1
 24 25  1  6
 24 26  1  0
 25 17  1  0
 26 27  1  0
 28 26  2  0
M  END
$$$$
