HEI.pdb
     RDKit          3D

 28 28  0  0  1  0  0  0  0  0999 V2000
    8.6789  -16.1313   19.7273 N   0  0  0  0  0  0  0  0  0  0  0  0
    7.9089  -15.0551   20.3166 C   0  0  1  0  0  0  0  0  0  0  0  0
    6.7809  -14.6777   19.4121 C   0  0  0  0  0  0  0  0  0  0  0  0
    7.3768  -14.3757   18.0590 C   0  0  0  0  0  0  0  0  0  0  0  0
    8.2523  -13.3521   17.7577 C   0  0  0  0  0  0  0  0  0  0  0  0
    8.5696  -13.3916   16.4564 N   0  0  0  0  0  0  0  0  0  0  0  0
    7.8953  -14.4364   15.9438 C   0  0  0  0  0  0  0  0  0  0  0  0
    7.1727  -15.0349   16.9074 N   0  0  0  0  0  0  0  0  0  0  0  0
    7.5506  -15.3528   21.6908 C   0  0  0  0  0  0  0  0  0  0  0  0
    6.8800  -14.4953   22.3355 O   0  0  0  0  0  0  0  0  0  0  0  0
    7.8880  -16.5403   22.3952 N   0  0  0  0  0  0  0  0  0  0  0  0
    7.5858  -16.6870   23.7967 C   0  0  1  0  0  0  0  0  0  0  0  0
    7.5760  -18.0873   24.2688 C   0  0  0  0  0  0  0  0  0  0  0  0
    7.3042  -18.3697   25.6902 C   0  0  0  0  0  0  0  0  0  0  0  0
    7.4279  -19.7329   26.1714 C   0  0  0  0  0  0  0  0  0  0  0  0
    6.4109  -20.5053   26.0937 O   0  0  0  0  0  0  0  0  0  0  0  0
    8.4547  -15.7964   24.6355 C   0  0  0  0  0  0  0  0  0  0  0  0
    9.7004  -15.8453   24.5832 O   0  0  0  0  0  0  0  0  0  0  0  0
    8.5781  -20.2782   26.7185 O   0  0  0  0  0  0  0  0  0  0  0  0
    5.8955  -11.4241   27.3205 C   0  0  0  0  0  0  0  0  0  0  0  0
    6.4717  -12.7599   26.9574 C   0  0  0  0  0  0  0  0  0  0  0  0
    7.8421  -12.6582   26.3193 C   0  0  2  0  0  0  0  0  0  0  0  0
    7.6683  -12.0741   24.9527 C   0  0  0  0  0  0  0  0  0  0  0  0
    8.5517  -13.9597   26.3612 C   0  0  2  0  0  0  0  0  0  0  0  0
    7.8291  -14.8892   25.4966 N   0  0  0  0  0  0  0  0  0  0  0  0
    8.7407  -14.5087   27.7139 C   0  0  0  0  0  0  0  0  0  0  0  0
    9.5637  -13.9857   28.6701 O   0  0  0  0  0  0  0  0  0  0  0  0
    8.0854  -15.5536   28.0166 O   0  0  0  0  0  0  0  0  0  0  0  0
  2  9  1  0
  2  1  1  6
  3  2  1  0
  4  3  1  0
  4  5  2  0
  6  5  1  0
  7  8  2  0
  7  6  1  0
  8  4  1  0
  9 11  1  0
 10  9  2  0
 11 12  1  0
 12 13  1  1
 13 14  1  0
 14 15  1  0
 15 19  1  0
 16 15  2  0
 17 12  1  0
 18 17  2  0
 21 20  1  0
 21 22  1  0
 22 24  1  0
 22 23  1  6
 24 25  1  6
 24 26  1  0
 25 17  1  0
 26 27  1  0
 28 26  2  0
M  END
$$$$
