HEI.pdb
     RDKit          3D

 28 28  0  0  1  0  0  0  0  0999 V2000
    7.7437  -16.9687   19.5397 N   0  0  0  0  0  0  0  0  0  0  0  0
    8.0341  -15.8992   20.4725 C   0  0  1  0  0  0  0  0  0  0  0  0
    7.0853  -14.7641   20.2616 C   0  0  0  0  0  0  0  0  0  0  0  0
    7.5530  -14.0138   19.0387 C   0  0  0  0  0  0  0  0  0  0  0  0
    8.1733  -12.7810   19.0197 C   0  0  0  0  0  0  0  0  0  0  0  0
    8.4455  -12.4269   17.7562 N   0  0  0  0  0  0  0  0  0  0  0  0
    7.9974  -13.4344   16.9860 C   0  0  0  0  0  0  0  0  0  0  0  0
    7.4570  -14.3961   17.7554 N   0  0  0  0  0  0  0  0  0  0  0  0
    8.1390  -16.3970   21.8313 C   0  0  0  0  0  0  0  0  0  0  0  0
    7.1376  -16.9841   22.3344 O   0  0  0  0  0  0  0  0  0  0  0  0
    9.2831  -16.2857   22.6673 N   0  0  0  0  0  0  0  0  0  0  0  0
    9.2772  -16.8047   24.0118 C   0  0  1  0  0  0  0  0  0  0  0  0
    9.8824  -18.1464   24.1437 C   0  0  0  0  0  0  0  0  0  0  0  0
   10.9633  -18.5461   23.2239 C   0  0  0  0  0  0  0  0  0  0  0  0
   12.1202  -19.2391   23.7591 C   0  0  0  0  0  0  0  0  0  0  0  0
   12.2589  -20.4858   23.5073 O   0  0  0  0  0  0  0  0  0  0  0  0
    9.8489  -15.8109   24.9799 C   0  0  0  0  0  0  0  0  0  0  0  0
   10.9170  -15.2060   24.7558 O   0  0  0  0  0  0  0  0  0  0  0  0
   13.1063  -18.6515   24.5350 O   0  0  0  0  0  0  0  0  0  0  0  0
    6.6055  -12.2988   26.3445 C   0  0  0  0  0  0  0  0  0  0  0  0
    7.8376  -13.1271   26.1343 C   0  0  0  0  0  0  0  0  0  0  0  0
    8.3927  -13.6975   27.4234 C   0  0  2  0  0  0  0  0  0  0  0  0
    8.6617  -12.5548   28.3511 C   0  0  0  0  0  0  0  0  0  0  0  0
    9.5538  -14.5825   27.1627 C   0  0  2  0  0  0  0  0  0  0  0  0
    9.1470  -15.5689   26.1651 N   0  0  0  0  0  0  0  0  0  0  0  0
   10.1158  -15.2219   28.3636 C   0  0  0  0  0  0  0  0  0  0  0  0
   11.0567  -14.6696   29.1849 O   0  0  0  0  0  0  0  0  0  0  0  0
    9.6913  -16.3816   28.6602 O   0  0  0  0  0  0  0  0  0  0  0  0
  2  9  1  0
  2  1  1  6
  3  2  1  0
  4  3  1  0
  4  5  2  0
  6  5  1  0
  7  8  2  0
  7  6  1  0
  8  4  1  0
  9 11  1  0
 10  9  2  0
 11 12  1  0
 12 13  1  6
 13 14  1  0
 14 15  1  0
 15 19  1  0
 16 15  2  0
 17 12  1  0
 18 17  2  0
 21 20  1  0
 21 22  1  0
 22 24  1  0
 22 23  1  1
 24 25  1  6
 24 26  1  0
 25 17  1  0
 26 27  1  0
 28 26  2  0
M  END
$$$$
