HEI.pdb
     RDKit          3D

 28 28  0  0  1  0  0  0  0  0999 V2000
    7.7375  -17.2607   19.7603 N   0  0  0  0  0  0  0  0  0  0  0  0
    8.1134  -16.1234   20.5750 C   0  0  1  0  0  0  0  0  0  0  0  0
    7.1494  -15.0012   20.3637 C   0  0  0  0  0  0  0  0  0  0  0  0
    7.6698  -14.1781   19.2109 C   0  0  0  0  0  0  0  0  0  0  0  0
    8.7738  -14.4615   18.4326 C   0  0  0  0  0  0  0  0  0  0  0  0
    8.9334  -13.5091   17.5035 N   0  0  0  0  0  0  0  0  0  0  0  0
    7.9328  -12.6318   17.6988 C   0  0  0  0  0  0  0  0  0  0  0  0
    7.1660  -13.0307   18.7292 N   0  0  0  0  0  0  0  0  0  0  0  0
    8.3433  -16.5139   21.9534 C   0  0  0  0  0  0  0  0  0  0  0  0
    7.3389  -16.7311   22.6913 O   0  0  0  0  0  0  0  0  0  0  0  0
    9.6155  -16.6790   22.5653 N   0  0  0  0  0  0  0  0  0  0  0  0
    9.7327  -17.0713   23.9472 C   0  0  1  0  0  0  0  0  0  0  0  0
   10.6747  -18.1858   24.1806 C   0  0  0  0  0  0  0  0  0  0  0  0
   10.9191  -18.6500   25.5585 C   0  0  0  0  0  0  0  0  0  0  0  0
   11.9099  -19.6854   25.7852 C   0  0  0  0  0  0  0  0  0  0  0  0
   11.7161  -20.5226   26.7331 O   0  0  0  0  0  0  0  0  0  0  0  0
   10.0041  -15.8863   24.8267 C   0  0  0  0  0  0  0  0  0  0  0  0
   10.9320  -15.0855   24.5926 O   0  0  0  0  0  0  0  0  0  0  0  0
   13.0709  -19.8459   25.0462 O   0  0  0  0  0  0  0  0  0  0  0  0
    6.6228  -12.4173   25.8404 C   0  0  0  0  0  0  0  0  0  0  0  0
    7.8813  -13.2300   25.7783 C   0  0  0  0  0  0  0  0  0  0  0  0
    8.2570  -13.8399   27.1134 C   0  0  2  0  0  0  0  0  0  0  0  0
    8.3850  -12.7268   28.1051 C   0  0  0  0  0  0  0  0  0  0  0  0
    9.4504  -14.7113   26.9887 C   0  0  2  0  0  0  0  0  0  0  0  0
    9.1794  -15.6905   25.9391 N   0  0  0  0  0  0  0  0  0  0  0  0
    9.8675  -15.3586   28.2433 C   0  0  0  0  0  0  0  0  0  0  0  0
   10.7063  -14.8125   29.1723 O   0  0  0  0  0  0  0  0  0  0  0  0
    9.4103  -16.5193   28.4811 O   0  0  0  0  0  0  0  0  0  0  0  0
  2  9  1  0
  2  1  1  6
  3  2  1  0
  4  3  1  0
  4  5  2  0
  6  5  1  0
  7  8  2  0
  7  6  1  0
  8  4  1  0
  9 11  1  0
 10  9  2  0
 11 12  1  0
 12 13  1  6
 13 14  1  0
 14 15  1  0
 15 19  1  0
 16 15  2  0
 17 12  1  0
 18 17  2  0
 21 20  1  0
 21 22  1  0
 22 24  1  0
 22 23  1  1
 24 25  1  6
 24 26  1  0
 25 17  1  0
 26 27  1  0
 28 26  2  0
M  END
$$$$
