EWS.pdb
     RDKit          3D

 30 31  0  0  1  0  0  0  0  0999 V2000
    6.7016  -15.5115   20.2931 N   0  0  0  0  0  0  0  0  0  0  0  0
    7.4455  -16.5426   20.9174 C   0  0  1  0  0  0  0  0  0  0  0  0
    8.2488  -17.4462   20.0595 C   0  0  0  0  0  0  0  0  0  0  0  0
    7.8050  -17.6933   18.6778 C   0  0  0  0  0  0  0  0  0  0  0  0
    8.6526  -18.6387   17.9483 C   0  0  0  0  0  0  0  0  0  0  0  0
    8.5978  -18.8469   16.7363 O   0  0  0  0  0  0  0  0  0  0  0  0
    8.3521  -16.0195   22.0068 C   0  0  0  0  0  0  0  0  0  0  0  0
    8.9019  -14.8842   21.8137 O   0  0  0  0  0  0  0  0  0  0  0  0
    9.6086  -19.3664   18.7103 O   0  0  0  0  0  0  0  0  0  0  0  0
    8.6255  -16.6949   23.2060 N   0  0  0  0  0  0  0  0  0  0  0  0
    9.5615  -16.1546   24.2124 C   0  0  1  0  0  0  0  0  0  0  0  0
    8.7980  -16.1682   25.5270 C   0  0  0  0  0  0  0  0  0  0  0  0
    7.6401  -15.2821   25.5728 C   0  0  0  0  0  0  0  0  0  0  0  0
    6.3429  -15.6543   25.2887 C   0  0  0  0  0  0  0  0  0  0  0  0
    5.5661  -14.5387   25.4340 N   0  0  0  0  0  0  0  0  0  0  0  0
    6.3528  -13.5110   25.7952 C   0  0  0  0  0  0  0  0  0  0  0  0
    6.0359  -12.1857   26.0593 C   0  0  0  0  0  0  0  0  0  0  0  0
    7.0151  -11.2807   26.4206 C   0  0  0  0  0  0  0  0  0  0  0  0
    8.3255  -11.6997   26.5203 C   0  0  0  0  0  0  0  0  0  0  0  0
    8.6190  -13.0189   26.2542 C   0  0  0  0  0  0  0  0  0  0  0  0
    7.6649  -13.9426   25.8922 C   0  0  0  0  0  0  0  0  0  0  0  0
   10.8048  -16.9237   24.2283 C   0  0  0  0  0  0  0  0  0  0  0  0
   10.7317  -18.1988   24.3145 O   0  0  0  0  0  0  0  0  0  0  0  0
   14.1568  -15.0301   23.8213 O   0  0  0  0  0  0  0  0  0  0  0  0
   14.4944  -16.3675   23.8985 C   0  0  0  0  0  0  0  0  0  0  0  0
   13.3007  -17.2277   24.3384 C   0  0  2  0  0  0  0  0  0  0  0  0
   12.1221  -16.4070   24.1548 N   0  0  0  0  0  0  0  0  0  0  0  0
   13.5582  -17.6402   25.7134 C   0  0  0  0  0  0  0  0  0  0  0  0
   12.7359  -17.2183   26.5935 O   0  0  0  0  0  0  0  0  0  0  0  0
   14.5808  -18.4278   26.1682 O   0  0  0  0  0  0  0  0  0  0  0  0
  2  1  1  6
  2  3  1  0
  4  3  1  0
  5  4  1  0
  6  5  2  0
  7  2  1  0
  7  8  2  0
  9  5  1  0
 10  7  1  0
 11 10  1  0
 12 13  1  0
 11 12  1  1
 13 21  1  0
 14 13  2  0
 14 15  1  0
 15 16  1  0
 16 17  1  0
 17 18  2  0
 19 18  1  0
 20 19  2  0
 21 16  2  0
 21 20  1  0
 22 27  1  0
 22 11  1  0
 23 22  2  0
 24 25  1  0
 26 25  1  1
 26 27  1  0
 26 28  1  0
 28 30  1  0
 29 28  2  0
M  END
$$$$
