EWS.pdb
     RDKit          3D

 30 31  0  0  1  0  0  0  0  0999 V2000
   10.0366  -16.7219   19.3637 N   0  0  0  0  0  0  0  0  0  0  0  0
   10.5763  -17.4086   20.4789 C   0  0  1  0  0  0  0  0  0  0  0  0
   11.9998  -17.8196   20.4280 C   0  0  0  0  0  0  0  0  0  0  0  0
   12.5335  -18.3757   19.1738 C   0  0  0  0  0  0  0  0  0  0  0  0
   13.9509  -18.7364   19.2469 C   0  0  0  0  0  0  0  0  0  0  0  0
   14.8777  -18.0500   18.8166 O   0  0  0  0  0  0  0  0  0  0  0  0
   10.3615  -16.6611   21.7740 C   0  0  0  0  0  0  0  0  0  0  0  0
   10.9600  -15.5421   21.9085 O   0  0  0  0  0  0  0  0  0  0  0  0
   14.2678  -19.9781   19.8649 O   0  0  0  0  0  0  0  0  0  0  0  0
    9.5533  -17.1133   22.8283 N   0  0  0  0  0  0  0  0  0  0  0  0
    9.3719  -16.3296   24.0668 C   0  0  1  0  0  0  0  0  0  0  0  0
    7.8702  -16.2760   24.2980 C   0  0  0  0  0  0  0  0  0  0  0  0
    7.3309  -14.9384   24.5173 C   0  0  0  0  0  0  0  0  0  0  0  0
    6.5036  -14.2624   23.6451 C   0  0  0  0  0  0  0  0  0  0  0  0
    6.2357  -13.0465   24.2097 N   0  0  0  0  0  0  0  0  0  0  0  0
    6.8738  -12.9704   25.3898 C   0  0  0  0  0  0  0  0  0  0  0  0
    6.9127  -11.9469   26.3266 C   0  0  0  0  0  0  0  0  0  0  0  0
    7.6435  -12.0790   27.4915 C   0  0  0  0  0  0  0  0  0  0  0  0
    8.3440  -13.2436   27.7269 C   0  0  0  0  0  0  0  0  0  0  0  0
    8.2924  -14.2472   26.7849 C   0  0  0  0  0  0  0  0  0  0  0  0
    7.5733  -14.1439   25.6158 C   0  0  0  0  0  0  0  0  0  0  0  0
   10.1317  -16.9189   25.1681 C   0  0  0  0  0  0  0  0  0  0  0  0
    9.8627  -18.1199   25.5203 O   0  0  0  0  0  0  0  0  0  0  0  0
   13.7727  -16.0550   25.7722 O   0  0  0  0  0  0  0  0  0  0  0  0
   13.2713  -16.3094   27.0342 C   0  0  0  0  0  0  0  0  0  0  0  0
   11.8879  -16.9730   26.9701 C   0  0  2  0  0  0  0  0  0  0  0  0
   11.1647  -16.2978   25.9129 N   0  0  0  0  0  0  0  0  0  0  0  0
   11.2967  -16.8519   28.2978 C   0  0  0  0  0  0  0  0  0  0  0  0
   11.9642  -17.3555   29.2620 O   0  0  0  0  0  0  0  0  0  0  0  0
   10.1078  -16.2602   28.6284 O   0  0  0  0  0  0  0  0  0  0  0  0
  2  1  1  6
  2  3  1  0
  4  3  1  0
  5  4  1  0
  6  5  2  0
  7  2  1  0
  7  8  2  0
  9  5  1  0
 10  7  1  0
 11 10  1  0
 12 13  1  0
 11 12  1  1
 13 21  1  0
 14 13  2  0
 14 15  1  0
 15 16  1  0
 16 17  1  0
 17 18  2  0
 19 18  1  0
 20 19  2  0
 21 16  2  0
 21 20  1  0
 22 27  1  0
 22 11  1  0
 23 22  2  0
 24 25  1  0
 26 25  1  1
 26 27  1  0
 26 28  1  0
 28 30  1  0
 29 28  2  0
M  END
$$$$
