EWS.pdb
     RDKit          3D

 30 31  0  0  1  0  0  0  0  0999 V2000
    6.9092  -17.2183   21.0746 N   0  0  0  0  0  0  0  0  0  0  0  0
    8.2884  -17.0173   20.8226 C   0  0  1  0  0  0  0  0  0  0  0  0
    8.6765  -16.2483   19.6160 C   0  0  0  0  0  0  0  0  0  0  0  0
    7.7168  -16.1390   18.5051 C   0  0  0  0  0  0  0  0  0  0  0  0
    8.3196  -15.6856   17.2499 C   0  0  0  0  0  0  0  0  0  0  0  0
    9.5219  -15.4881   17.0745 O   0  0  0  0  0  0  0  0  0  0  0  0
    9.0065  -16.4084   22.0042 C   0  0  0  0  0  0  0  0  0  0  0  0
    9.9127  -15.5451   21.7550 O   0  0  0  0  0  0  0  0  0  0  0  0
    7.4372  -15.4594   16.1571 O   0  0  0  0  0  0  0  0  0  0  0  0
    8.7433  -16.7275   23.3451 N   0  0  0  0  0  0  0  0  0  0  0  0
    9.6385  -16.3035   24.4405 C   0  0  1  0  0  0  0  0  0  0  0  0
    8.8008  -16.3880   25.7063 C   0  0  0  0  0  0  0  0  0  0  0  0
    7.6441  -15.4996   25.7367 C   0  0  0  0  0  0  0  0  0  0  0  0
    6.3293  -15.9034   25.6361 C   0  0  0  0  0  0  0  0  0  0  0  0
    5.5592  -14.7752   25.6945 N   0  0  0  0  0  0  0  0  0  0  0  0
    6.3670  -13.7096   25.8267 C   0  0  0  0  0  0  0  0  0  0  0  0
    6.0642  -12.3588   25.9275 C   0  0  0  0  0  0  0  0  0  0  0  0
    7.0649  -11.4154   26.0586 C   0  0  0  0  0  0  0  0  0  0  0  0
    8.3828  -11.8213   26.0897 C   0  0  0  0  0  0  0  0  0  0  0  0
    8.6621  -13.1662   25.9883 C   0  0  0  0  0  0  0  0  0  0  0  0
    7.6866  -14.1283   25.8568 C   0  0  0  0  0  0  0  0  0  0  0  0
   10.8511  -17.1199   24.4632 C   0  0  0  0  0  0  0  0  0  0  0  0
   10.7397  -18.3698   24.7165 O   0  0  0  0  0  0  0  0  0  0  0  0
   14.7270  -15.5858   24.1073 O   0  0  0  0  0  0  0  0  0  0  0  0
   14.4742  -16.8492   23.6085 C   0  0  0  0  0  0  0  0  0  0  0  0
   13.3310  -17.5386   24.3674 C   0  0  2  0  0  0  0  0  0  0  0  0
   12.1761  -16.6764   24.2281 N   0  0  0  0  0  0  0  0  0  0  0  0
   13.7904  -17.7391   25.7370 C   0  0  0  0  0  0  0  0  0  0  0  0
   13.1294  -17.1385   26.6487 O   0  0  0  0  0  0  0  0  0  0  0  0
   14.8495  -18.4974   26.1567 O   0  0  0  0  0  0  0  0  0  0  0  0
  2  1  1  1
  2  3  1  0
  4  3  1  0
  5  4  1  0
  6  5  2  0
  7  2  1  0
  7  8  2  0
  9  5  1  0
 10  7  1  0
 11 10  1  0
 12 13  1  0
 11 12  1  1
 13 21  1  0
 14 13  2  0
 14 15  1  0
 15 16  1  0
 16 17  1  0
 17 18  2  0
 19 18  1  0
 20 19  2  0
 21 16  2  0
 21 20  1  0
 22 27  1  0
 22 11  1  0
 23 22  2  0
 24 25  1  0
 26 25  1  6
 26 27  1  0
 26 28  1  0
 28 30  1  0
 29 28  2  0
M  END
$$$$
