EWS.pdb
     RDKit          3D

 30 31  0  0  1  0  0  0  0  0999 V2000
   11.4107  -16.3684   19.3827 N   0  0  0  0  0  0  0  0  0  0  0  0
   11.1280  -17.2090   20.4871 C   0  0  1  0  0  0  0  0  0  0  0  0
   12.1742  -18.1617   20.9296 C   0  0  0  0  0  0  0  0  0  0  0  0
   13.5178  -18.0664   20.3358 C   0  0  0  0  0  0  0  0  0  0  0  0
   14.4247  -19.1355   20.7590 C   0  0  0  0  0  0  0  0  0  0  0  0
   14.1248  -20.0572   21.5178 O   0  0  0  0  0  0  0  0  0  0  0  0
   10.6737  -16.4318   21.7004 C   0  0  0  0  0  0  0  0  0  0  0  0
   11.4326  -15.4906   22.1086 O   0  0  0  0  0  0  0  0  0  0  0  0
   15.7514  -19.0941   20.2470 O   0  0  0  0  0  0  0  0  0  0  0  0
    9.4821  -16.6754   22.4002 N   0  0  0  0  0  0  0  0  0  0  0  0
    9.1159  -15.9131   23.6109 C   0  0  1  0  0  0  0  0  0  0  0  0
    7.6336  -16.1753   23.8240 C   0  0  0  0  0  0  0  0  0  0  0  0
    6.9876  -15.2940   24.7904 C   0  0  0  0  0  0  0  0  0  0  0  0
    5.8719  -15.6135   25.5354 C   0  0  0  0  0  0  0  0  0  0  0  0
    5.5782  -14.5215   26.3037 N   0  0  0  0  0  0  0  0  0  0  0  0
    6.4792  -13.5588   26.0449 C   0  0  0  0  0  0  0  0  0  0  0  0
    6.6027  -12.2789   26.5677 C   0  0  0  0  0  0  0  0  0  0  0  0
    7.6194  -11.4394   26.1554 C   0  0  0  0  0  0  0  0  0  0  0  0
    8.5241  -11.8790   25.2115 C   0  0  0  0  0  0  0  0  0  0  0  0
    8.3841  -13.1523   24.7053 C   0  0  0  0  0  0  0  0  0  0  0  0
    7.3817  -14.0104   25.0969 C   0  0  0  0  0  0  0  0  0  0  0  0
    9.9647  -16.2942   24.7387 C   0  0  0  0  0  0  0  0  0  0  0  0
   10.4477  -17.4794   24.7650 O   0  0  0  0  0  0  0  0  0  0  0  0
   10.1659  -14.3530   28.4519 O   0  0  0  0  0  0  0  0  0  0  0  0
   11.3526  -14.7541   27.8691 C   0  0  0  0  0  0  0  0  0  0  0  0
   11.1462  -15.9554   26.9349 C   0  0  2  0  0  0  0  0  0  0  0  0
   10.3284  -15.4790   25.8391 N   0  0  0  0  0  0  0  0  0  0  0  0
   10.5483  -17.0180   27.7352 C   0  0  0  0  0  0  0  0  0  0  0  0
    9.3694  -17.3791   27.4054 O   0  0  0  0  0  0  0  0  0  0  0  0
   11.1064  -17.6723   28.7998 O   0  0  0  0  0  0  0  0  0  0  0  0
  2  1  1  6
  2  3  1  0
  4  3  1  0
  5  4  1  0
  6  5  2  0
  7  2  1  0
  7  8  2  0
  9  5  1  0
 10  7  1  0
 11 10  1  0
 12 13  1  0
 11 12  1  1
 13 21  1  0
 14 13  2  0
 14 15  1  0
 15 16  1  0
 16 17  1  0
 17 18  2  0
 19 18  1  0
 20 19  2  0
 21 16  2  0
 21 20  1  0
 22 27  1  0
 22 11  1  0
 23 22  2  0
 24 25  1  0
 26 25  1  1
 26 27  1  0
 26 28  1  0
 28 30  1  0
 29 28  2  0
M  END
$$$$
