EWS.pdb
     RDKit          3D

 30 31  0  0  1  0  0  0  0  0999 V2000
    8.8403  -18.2698   21.0068 N   0  0  0  0  0  0  0  0  0  0  0  0
   10.1945  -18.0955   21.3835 C   0  0  1  0  0  0  0  0  0  0  0  0
   11.0950  -17.3759   20.4512 C   0  0  0  0  0  0  0  0  0  0  0  0
   10.6560  -17.1637   19.0623 C   0  0  0  0  0  0  0  0  0  0  0  0
   11.6448  -16.4726   18.2322 C   0  0  0  0  0  0  0  0  0  0  0  0
   12.7946  -16.2034   18.5798 O   0  0  0  0  0  0  0  0  0  0  0  0
   10.3354  -17.4531   22.7436 C   0  0  0  0  0  0  0  0  0  0  0  0
   11.4350  -16.8571   22.9967 O   0  0  0  0  0  0  0  0  0  0  0  0
   11.2325  -16.0879   16.9261 O   0  0  0  0  0  0  0  0  0  0  0  0
    9.3442  -17.4689   23.7368 N   0  0  0  0  0  0  0  0  0  0  0  0
    9.5833  -16.9268   25.0895 C   0  0  1  0  0  0  0  0  0  0  0  0
    8.2083  -16.5817   25.6385 C   0  0  0  0  0  0  0  0  0  0  0  0
    7.5640  -15.4371   25.0036 C   0  0  0  0  0  0  0  0  0  0  0  0
    6.9503  -15.4548   23.7687 C   0  0  0  0  0  0  0  0  0  0  0  0
    6.4875  -14.1900   23.5342 N   0  0  0  0  0  0  0  0  0  0  0  0
    6.8026  -13.4150   24.5858 C   0  0  0  0  0  0  0  0  0  0  0  0
    6.5521  -12.0698   24.8184 C   0  0  0  0  0  0  0  0  0  0  0  0
    6.9712  -11.4618   25.9860 C   0  0  0  0  0  0  0  0  0  0  0  0
    7.6477  -12.2015   26.9334 C   0  0  0  0  0  0  0  0  0  0  0  0
    7.8862  -13.5349   26.6834 C   0  0  0  0  0  0  0  0  0  0  0  0
    7.4810  -14.1672   25.5300 C   0  0  0  0  0  0  0  0  0  0  0  0
   10.3366  -17.8797   25.9032 C   0  0  0  0  0  0  0  0  0  0  0  0
    9.9831  -19.1099   25.8849 O   0  0  0  0  0  0  0  0  0  0  0  0
   13.9903  -18.2658   26.2178 O   0  0  0  0  0  0  0  0  0  0  0  0
   13.5638  -18.3585   27.5286 C   0  0  0  0  0  0  0  0  0  0  0  0
   12.0457  -18.5729   27.6157 C   0  0  2  0  0  0  0  0  0  0  0  0
   11.4481  -17.5924   26.7336 N   0  0  0  0  0  0  0  0  0  0  0  0
   11.6784  -18.4444   29.0212 C   0  0  0  0  0  0  0  0  0  0  0  0
   10.8388  -17.5260   29.3045 O   0  0  0  0  0  0  0  0  0  0  0  0
   12.1312  -19.1958   30.0716 O   0  0  0  0  0  0  0  0  0  0  0  0
  2  1  1  6
  2  3  1  0
  4  3  1  0
  5  4  1  0
  6  5  2  0
  7  2  1  0
  7  8  2  0
  9  5  1  0
 10  7  1  0
 11 10  1  0
 12 13  1  0
 11 12  1  1
 13 21  1  0
 14 13  2  0
 14 15  1  0
 15 16  1  0
 16 17  1  0
 17 18  2  0
 19 18  1  0
 20 19  2  0
 21 16  2  0
 21 20  1  0
 22 27  1  0
 22 11  1  0
 23 22  2  0
 24 25  1  0
 26 25  1  1
 26 27  1  0
 26 28  1  0
 28 30  1  0
 29 28  2  0
M  END
$$$$
