EWS.pdb
     RDKit          3D

 30 31  0  0  1  0  0  0  0  0999 V2000
    7.9722  -18.5848   21.1839 N   0  0  0  0  0  0  0  0  0  0  0  0
    9.2944  -18.0786   21.2276 C   0  0  1  0  0  0  0  0  0  0  0  0
    9.6795  -17.0364   20.2461 C   0  0  0  0  0  0  0  0  0  0  0  0
    9.3995  -17.2671   18.8194 C   0  0  0  0  0  0  0  0  0  0  0  0
   10.5341  -16.9707   17.9423 C   0  0  0  0  0  0  0  0  0  0  0  0
   11.6246  -16.5410   18.3185 O   0  0  0  0  0  0  0  0  0  0  0  0
    9.6732  -17.5765   22.6012 C   0  0  0  0  0  0  0  0  0  0  0  0
   10.7747  -16.9407   22.7070 O   0  0  0  0  0  0  0  0  0  0  0  0
   10.3490  -17.2011   16.5507 O   0  0  0  0  0  0  0  0  0  0  0  0
    8.8991  -17.7616   23.7568 N   0  0  0  0  0  0  0  0  0  0  0  0
    9.3305  -17.2583   25.0765 C   0  0  1  0  0  0  0  0  0  0  0  0
    8.0506  -17.0430   25.8681 C   0  0  0  0  0  0  0  0  0  0  0  0
    7.2474  -15.9039   25.4374 C   0  0  0  0  0  0  0  0  0  0  0  0
    6.1448  -15.9758   24.6122 C   0  0  0  0  0  0  0  0  0  0  0  0
    5.6891  -14.6982   24.4417 N   0  0  0  0  0  0  0  0  0  0  0  0
    6.4804  -13.8633   25.1361 C   0  0  0  0  0  0  0  0  0  0  0  0
    6.4277  -12.4834   25.2769 C   0  0  0  0  0  0  0  0  0  0  0  0
    7.3557  -11.8134   26.0506 C   0  0  0  0  0  0  0  0  0  0  0  0
    8.3479  -12.5252   26.6919 C   0  0  0  0  0  0  0  0  0  0  0  0
    8.3827  -13.8937   26.5394 C   0  0  0  0  0  0  0  0  0  0  0  0
    7.4723  -14.5879   25.7754 C   0  0  0  0  0  0  0  0  0  0  0  0
   10.2770  -18.1827   25.6987 C   0  0  0  0  0  0  0  0  0  0  0  0
   10.0744  -19.4402   25.5711 O   0  0  0  0  0  0  0  0  0  0  0  0
   13.9757  -18.4844   25.7256 O   0  0  0  0  0  0  0  0  0  0  0  0
   13.6390  -18.4962   27.0655 C   0  0  0  0  0  0  0  0  0  0  0  0
   12.1459  -18.7907   27.2709 C   0  0  2  0  0  0  0  0  0  0  0  0
   11.4295  -17.8389   26.4478 N   0  0  0  0  0  0  0  0  0  0  0  0
   11.8857  -18.6883   28.7023 C   0  0  0  0  0  0  0  0  0  0  0  0
   11.0724  -17.7742   29.0651 O   0  0  0  0  0  0  0  0  0  0  0  0
   12.4141  -19.4601   29.7013 O   0  0  0  0  0  0  0  0  0  0  0  0
  2  1  1  1
  2  3  1  0
  4  3  1  0
  5  4  1  0
  6  5  2  0
  7  2  1  0
  7  8  2  0
  9  5  1  0
 10  7  1  0
 11 10  1  0
 12 13  1  0
 11 12  1  1
 13 21  1  0
 14 13  2  0
 14 15  1  0
 15 16  1  0
 16 17  1  0
 17 18  2  0
 19 18  1  0
 20 19  2  0
 21 16  2  0
 21 20  1  0
 22 27  1  0
 22 11  1  0
 23 22  2  0
 24 25  1  0
 26 25  1  1
 26 27  1  0
 26 28  1  0
 28 30  1  0
 29 28  2  0
M  END
$$$$
