EWS.pdb
     RDKit          3D

 30 31  0  0  1  0  0  0  0  0999 V2000
   10.1201  -16.4502   20.2303 N   0  0  0  0  0  0  0  0  0  0  0  0
   10.8293  -17.0817   21.2813 C   0  0  1  0  0  0  0  0  0  0  0  0
   12.2928  -17.2638   21.1299 C   0  0  0  0  0  0  0  0  0  0  0  0
   12.7916  -18.1432   20.0599 C   0  0  0  0  0  0  0  0  0  0  0  0
   14.2492  -18.2833   20.0457 C   0  0  0  0  0  0  0  0  0  0  0  0
   14.9037  -18.9409   20.8548 O   0  0  0  0  0  0  0  0  0  0  0  0
   10.5859  -16.4212   22.6180 C   0  0  0  0  0  0  0  0  0  0  0  0
   11.0238  -15.2322   22.7700 O   0  0  0  0  0  0  0  0  0  0  0  0
   14.9511  -17.6021   19.0126 O   0  0  0  0  0  0  0  0  0  0  0  0
    9.9152  -17.0248   23.6926 N   0  0  0  0  0  0  0  0  0  0  0  0
    9.6901  -16.3190   24.9702 C   0  0  1  0  0  0  0  0  0  0  0  0
    8.1879  -16.3624   25.1999 C   0  0  0  0  0  0  0  0  0  0  0  0
    7.4655  -15.1742   24.7590 C   0  0  0  0  0  0  0  0  0  0  0  0
    6.8200  -15.0406   23.5477 C   0  0  0  0  0  0  0  0  0  0  0  0
    6.2831  -13.7837   23.5174 N   0  0  0  0  0  0  0  0  0  0  0  0
    6.5847  -13.1595   24.6685 C   0  0  0  0  0  0  0  0  0  0  0  0
    6.2682  -11.8815   25.1079 C   0  0  0  0  0  0  0  0  0  0  0  0
    6.6857  -11.4336   26.3463 C   0  0  0  0  0  0  0  0  0  0  0  0
    7.4270  -12.2676   27.1571 C   0  0  0  0  0  0  0  0  0  0  0  0
    7.7304  -13.5320   26.7025 C   0  0  0  0  0  0  0  0  0  0  0  0
    7.3284  -14.0052   25.4741 C   0  0  0  0  0  0  0  0  0  0  0  0
   10.4824  -16.9218   26.0410 C   0  0  0  0  0  0  0  0  0  0  0  0
   10.7877  -18.1617   25.9494 O   0  0  0  0  0  0  0  0  0  0  0  0
   10.8286  -15.2350   29.6987 O   0  0  0  0  0  0  0  0  0  0  0  0
   11.9699  -15.9269   29.3417 C   0  0  0  0  0  0  0  0  0  0  0  0
   11.6810  -16.9712   28.2534 C   0  0  2  0  0  0  0  0  0  0  0  0
   10.9689  -16.2737   27.2032 N   0  0  0  0  0  0  0  0  0  0  0  0
   10.9387  -18.0535   28.8896 C   0  0  0  0  0  0  0  0  0  0  0  0
    9.7156  -18.1777   28.5471 O   0  0  0  0  0  0  0  0  0  0  0  0
   11.4034  -18.9511   29.8122 O   0  0  0  0  0  0  0  0  0  0  0  0
  2  1  1  6
  2  3  1  0
  4  3  1  0
  5  4  1  0
  6  5  2  0
  7  2  1  0
  7  8  2  0
  9  5  1  0
 10  7  1  0
 11 10  1  0
 12 13  1  0
 11 12  1  1
 13 21  1  0
 14 13  2  0
 14 15  1  0
 15 16  1  0
 16 17  1  0
 17 18  2  0
 19 18  1  0
 20 19  2  0
 21 16  2  0
 21 20  1  0
 22 27  1  0
 22 11  1  0
 23 22  2  0
 24 25  1  0
 26 25  1  1
 26 27  1  0
 26 28  1  0
 28 30  1  0
 29 28  2  0
M  END
$$$$
