EWS.pdb
     RDKit          3D

 30 31  0  0  1  0  0  0  0  0999 V2000
    7.7076  -17.4877   18.7738 N   0  0  0  0  0  0  0  0  0  0  0  0
    8.8132  -17.9819   19.5084 C   0  0  1  0  0  0  0  0  0  0  0  0
   10.0332  -18.3725   18.7622 C   0  0  0  0  0  0  0  0  0  0  0  0
    9.8848  -19.0219   17.4495 C   0  0  0  0  0  0  0  0  0  0  0  0
   10.7273  -18.4356   16.4050 C   0  0  0  0  0  0  0  0  0  0  0  0
   10.3513  -18.1603   15.2657 O   0  0  0  0  0  0  0  0  0  0  0  0
    9.2341  -17.0440   20.6155 C   0  0  0  0  0  0  0  0  0  0  0  0
   10.4696  -17.0351   20.9349 O   0  0  0  0  0  0  0  0  0  0  0  0
   12.0826  -18.1689   16.7458 O   0  0  0  0  0  0  0  0  0  0  0  0
    8.3625  -16.1897   21.3080 N   0  0  0  0  0  0  0  0  0  0  0  0
    8.8001  -15.4121   22.4848 C   0  0  1  0  0  0  0  0  0  0  0  0
    7.7273  -14.3559   22.6964 C   0  0  0  0  0  0  0  0  0  0  0  0
    7.9221  -13.5102   23.8689 C   0  0  0  0  0  0  0  0  0  0  0  0
    8.9119  -12.5599   24.0077 C   0  0  0  0  0  0  0  0  0  0  0  0
    8.7588  -12.0012   25.2460 N   0  0  0  0  0  0  0  0  0  0  0  0
    7.7117  -12.5838   25.8541 C   0  0  0  0  0  0  0  0  0  0  0  0
    7.1645  -12.3627   27.1104 C   0  0  0  0  0  0  0  0  0  0  0  0
    6.0698  -13.0851   27.5443 C   0  0  0  0  0  0  0  0  0  0  0  0
    5.5129  -14.0388   26.7180 C   0  0  0  0  0  0  0  0  0  0  0  0
    6.0707  -14.2428   25.4752 C   0  0  0  0  0  0  0  0  0  0  0  0
    7.1607  -13.5387   25.0163 C   0  0  0  0  0  0  0  0  0  0  0  0
    9.0180  -16.2901   23.6334 C   0  0  0  0  0  0  0  0  0  0  0  0
    8.1168  -17.1527   23.9208 O   0  0  0  0  0  0  0  0  0  0  0  0
   12.4638  -17.5778   24.7126 O   0  0  0  0  0  0  0  0  0  0  0  0
   11.3625  -18.2001   25.2681 C   0  0  0  0  0  0  0  0  0  0  0  0
   10.2630  -17.1898   25.6270 C   0  0  2  0  0  0  0  0  0  0  0  0
   10.1459  -16.2999   24.4908 N   0  0  0  0  0  0  0  0  0  0  0  0
   10.6650  -16.5495   26.8742 C   0  0  0  0  0  0  0  0  0  0  0  0
   10.8421  -15.2864   26.8298 O   0  0  0  0  0  0  0  0  0  0  0  0
   10.8746  -17.1482   28.0869 O   0  0  0  0  0  0  0  0  0  0  0  0
  2  1  1  6
  2  3  1  0
  4  3  1  0
  5  4  1  0
  6  5  2  0
  7  2  1  0
  7  8  2  0
  9  5  1  0
 10  7  1  0
 11 10  1  0
 12 13  1  0
 11 12  1  1
 13 21  1  0
 14 13  2  0
 14 15  1  0
 15 16  1  0
 16 17  1  0
 17 18  2  0
 19 18  1  0
 20 19  2  0
 21 16  2  0
 21 20  1  0
 22 27  1  0
 22 11  1  0
 23 22  2  0
 24 25  1  0
 26 25  1  6
 26 27  1  0
 26 28  1  0
 28 30  1  0
 29 28  2  0
M  END
$$$$
