EWS.pdb
     RDKit          3D

 30 31  0  0  1  0  0  0  0  0999 V2000
    9.5566  -15.3470   17.8962 N   0  0  0  0  0  0  0  0  0  0  0  0
    9.0906  -16.3114   18.8230 C   0  0  1  0  0  0  0  0  0  0  0  0
    9.6623  -17.6778   18.7608 C   0  0  0  0  0  0  0  0  0  0  0  0
   11.1217  -17.8319   18.6447 C   0  0  0  0  0  0  0  0  0  0  0  0
   11.5558  -19.2222   18.4928 C   0  0  0  0  0  0  0  0  0  0  0  0
   11.7211  -19.7973   17.4170 O   0  0  0  0  0  0  0  0  0  0  0  0
    9.1981  -15.8347   20.2526 C   0  0  0  0  0  0  0  0  0  0  0  0
   10.2369  -15.1638   20.5677 O   0  0  0  0  0  0  0  0  0  0  0  0
   11.8018  -19.9537   19.6880 O   0  0  0  0  0  0  0  0  0  0  0  0
    8.2382  -16.0792   21.2465 N   0  0  0  0  0  0  0  0  0  0  0  0
    8.3930  -15.5730   22.6252 C   0  0  1  0  0  0  0  0  0  0  0  0
    6.9794  -15.4153   23.1618 C   0  0  0  0  0  0  0  0  0  0  0  0
    6.8961  -15.0010   24.5581 C   0  0  0  0  0  0  0  0  0  0  0  0
    6.6712  -15.8451   25.6253 C   0  0  0  0  0  0  0  0  0  0  0  0
    6.6521  -15.0697   26.7511 N   0  0  0  0  0  0  0  0  0  0  0  0
    6.8578  -13.7903   26.3954 C   0  0  0  0  0  0  0  0  0  0  0  0
    6.9250  -12.6412   27.1711 C   0  0  0  0  0  0  0  0  0  0  0  0
    7.1485  -11.4068   26.5923 C   0  0  0  0  0  0  0  0  0  0  0  0
    7.3070  -11.3150   25.2252 C   0  0  0  0  0  0  0  0  0  0  0  0
    7.2369  -12.4671   24.4734 C   0  0  0  0  0  0  0  0  0  0  0  0
    7.0155  -13.7098   25.0221 C   0  0  0  0  0  0  0  0  0  0  0  0
    9.2415  -16.4664   23.4123 C   0  0  0  0  0  0  0  0  0  0  0  0
    9.0711  -17.7297   23.2942 O   0  0  0  0  0  0  0  0  0  0  0  0
   12.8975  -16.6133   23.6121 O   0  0  0  0  0  0  0  0  0  0  0  0
   12.5035  -16.6286   24.9361 C   0  0  0  0  0  0  0  0  0  0  0  0
   11.0323  -17.0437   25.0837 C   0  0  2  0  0  0  0  0  0  0  0  0
   10.2636  -16.0860   24.3167 N   0  0  0  0  0  0  0  0  0  0  0  0
   10.7392  -17.0689   26.5121 C   0  0  0  0  0  0  0  0  0  0  0  0
    9.8590  -16.2413   26.9233 O   0  0  0  0  0  0  0  0  0  0  0  0
   11.3002  -17.8782   27.4625 O   0  0  0  0  0  0  0  0  0  0  0  0
  2  1  1  6
  2  3  1  0
  4  3  1  0
  5  4  1  0
  6  5  2  0
  7  2  1  0
  7  8  2  0
  9  5  1  0
 10  7  1  0
 11 10  1  0
 12 13  1  0
 11 12  1  1
 13 21  1  0
 14 13  2  0
 14 15  1  0
 15 16  1  0
 16 17  1  0
 17 18  2  0
 19 18  1  0
 20 19  2  0
 21 16  2  0
 21 20  1  0
 22 27  1  0
 22 11  1  0
 23 22  2  0
 24 25  1  0
 26 25  1  1
 26 27  1  0
 26 28  1  0
 28 30  1  0
 29 28  2  0
M  END
$$$$
