EWS.pdb
     RDKit          3D

 30 31  0  0  1  0  0  0  0  0999 V2000
    9.3559  -17.3249   21.0900 N   0  0  0  0  0  0  0  0  0  0  0  0
   10.6069  -17.1192   21.7216 C   0  0  1  0  0  0  0  0  0  0  0  0
   11.6228  -16.3016   21.0164 C   0  0  0  0  0  0  0  0  0  0  0  0
   12.0892  -16.7382   19.6902 C   0  0  0  0  0  0  0  0  0  0  0  0
   13.5444  -16.8708   19.5931 C   0  0  0  0  0  0  0  0  0  0  0  0
   14.1734  -17.9113   19.7851 O   0  0  0  0  0  0  0  0  0  0  0  0
   10.4616  -16.5638   23.1190 C   0  0  0  0  0  0  0  0  0  0  0  0
   11.1721  -15.5473   23.4200 O   0  0  0  0  0  0  0  0  0  0  0  0
   14.2757  -15.6997   19.2499 O   0  0  0  0  0  0  0  0  0  0  0  0
    9.6035  -17.0880   24.0977 N   0  0  0  0  0  0  0  0  0  0  0  0
    9.4329  -16.4432   25.4154 C   0  0  1  0  0  0  0  0  0  0  0  0
    8.0107  -16.7656   25.8450 C   0  0  0  0  0  0  0  0  0  0  0  0
    7.0393  -15.7066   25.5940 C   0  0  0  0  0  0  0  0  0  0  0  0
    5.7295  -15.9044   25.2104 C   0  0  0  0  0  0  0  0  0  0  0  0
    5.1637  -14.6680   25.0679 N   0  0  0  0  0  0  0  0  0  0  0  0
    6.0891  -13.7363   25.3527 C   0  0  0  0  0  0  0  0  0  0  0  0
    6.0005  -12.3511   25.3509 C   0  0  0  0  0  0  0  0  0  0  0  0
    7.0913  -11.5702   25.6809 C   0  0  0  0  0  0  0  0  0  0  0  0
    8.2845  -12.1751   26.0166 C   0  0  0  0  0  0  0  0  0  0  0  0
    8.3517  -13.5509   26.0123 C   0  0  0  0  0  0  0  0  0  0  0  0
    7.2821  -14.3542   25.6881 C   0  0  0  0  0  0  0  0  0  0  0  0
   10.4630  -16.8947   26.3496 C   0  0  0  0  0  0  0  0  0  0  0  0
   11.0311  -18.0212   26.1328 O   0  0  0  0  0  0  0  0  0  0  0  0
   10.7594  -15.3567   30.0428 O   0  0  0  0  0  0  0  0  0  0  0  0
   11.9946  -15.7777   29.5892 C   0  0  0  0  0  0  0  0  0  0  0  0
   11.8610  -16.7872   28.4396 C   0  0  2  0  0  0  0  0  0  0  0  0
   10.9219  -16.2089   27.5014 N   0  0  0  0  0  0  0  0  0  0  0  0
   11.4425  -18.0525   29.0319 C   0  0  0  0  0  0  0  0  0  0  0  0
   10.2802  -18.4702   28.7103 O   0  0  0  0  0  0  0  0  0  0  0  0
   12.1533  -18.8434   29.8933 O   0  0  0  0  0  0  0  0  0  0  0  0
  2  1  1  6
  2  3  1  0
  4  3  1  0
  5  4  1  0
  6  5  2  0
  7  2  1  0
  7  8  2  0
  9  5  1  0
 10  7  1  0
 11 10  1  0
 12 13  1  0
 11 12  1  1
 13 21  1  0
 14 13  2  0
 14 15  1  0
 15 16  1  0
 16 17  1  0
 17 18  2  0
 19 18  1  0
 20 19  2  0
 21 16  2  0
 21 20  1  0
 22 27  1  0
 22 11  1  0
 23 22  2  0
 24 25  1  0
 26 25  1  1
 26 27  1  0
 26 28  1  0
 28 30  1  0
 29 28  2  0
M  END
$$$$
