EDV.pdb
     RDKit          3D

 25 24  0  0  1  0  0  0  0  0999 V2000
    8.3619  -12.9772   18.8177 N   0  0  0  0  0  0  0  0  0  0  0  0
    8.6100  -14.3342   19.3182 C   0  0  1  0  0  0  0  0  0  0  0  0
   10.1074  -14.5448   19.2858 C   0  0  0  0  0  0  0  0  0  0  0  0
   10.8718  -13.7149   20.2648 C   0  0  0  0  0  0  0  0  0  0  0  0
   12.3222  -13.8923   20.2029 C   0  0  0  0  0  0  0  0  0  0  0  0
   12.9334  -14.2472   21.2349 O   0  0  0  0  0  0  0  0  0  0  0  0
    8.2114  -14.4395   20.7492 C   0  0  0  0  0  0  0  0  0  0  0  0
    7.9189  -13.4084   21.4070 O   0  0  0  0  0  0  0  0  0  0  0  0
   13.0255  -13.6788   19.0447 O   0  0  0  0  0  0  0  0  0  0  0  0
    8.1385  -15.6790   21.4424 N   0  0  0  0  0  0  0  0  0  0  0  0
    7.4914  -15.8579   22.7163 C   0  0  1  0  0  0  0  0  0  0  0  0
    7.3526  -17.3536   22.9538 C   0  0  0  0  0  0  0  0  0  0  0  0
    6.3990  -17.8956   21.9583 C   0  0  0  0  0  0  0  0  0  0  0  0
    5.2569  -17.3923   21.8920 O   0  0  0  0  0  0  0  0  0  0  0  0
    8.2522  -15.2158   23.8257 C   0  0  0  0  0  0  0  0  0  0  0  0
    9.5074  -15.2809   23.8544 O   0  0  0  0  0  0  0  0  0  0  0  0
    6.7764  -18.9274   21.1400 O   0  0  0  0  0  0  0  0  0  0  0  0
    6.2895  -13.1034   26.9945 C   0  0  0  0  0  0  0  0  0  0  0  0
    7.7288  -12.7298   26.5869 C   0  0  2  0  0  0  0  0  0  0  0  0
    7.5761  -11.7142   25.4630 C   0  0  0  0  0  0  0  0  0  0  0  0
    8.3522  -13.9591   26.0169 C   0  0  2  0  0  0  0  0  0  0  0  0
    7.6373  -14.5111   24.8895 N   0  0  0  0  0  0  0  0  0  0  0  0
    8.5013  -14.9979   27.0882 C   0  0  0  0  0  0  0  0  0  0  0  0
    9.3272  -14.8530   28.1845 O   0  0  0  0  0  0  0  0  0  0  0  0
    7.8401  -16.0581   26.9822 O   0  0  0  0  0  0  0  0  0  0  0  0
  2  1  1  1
  3  2  1  0
  4  3  1  0
  5  4  1  0
  5  6  2  0
  7  2  1  0
  7  8  2  0
  9  5  1  0
 10  7  1  0
 11 10  1  0
 11 12  1  1
 12 13  1  0
 13 17  1  0
 14 13  2  0
 15 11  1  0
 16 15  2  0
 19 18  1  6
 19 20  1  0
 19 21  1  0
 21 23  1  0
 21 22  1  6
 22 15  1  0
 23 24  1  0
 25 23  2  0
M  END
$$$$
