EDV.pdb
     RDKit          3D

 25 24  0  0  1  0  0  0  0  0999 V2000
    5.9873  -15.5784   19.9682 N   0  0  0  0  0  0  0  0  0  0  0  0
    7.2846  -15.1497   20.5036 C   0  0  1  0  0  0  0  0  0  0  0  0
    7.2953  -13.6378   20.4641 C   0  0  0  0  0  0  0  0  0  0  0  0
    7.2809  -13.0531   19.0895 C   0  0  0  0  0  0  0  0  0  0  0  0
    8.5129  -13.2659   18.3307 C   0  0  0  0  0  0  0  0  0  0  0  0
    9.4564  -13.8857   18.8694 O   0  0  0  0  0  0  0  0  0  0  0  0
    7.4013  -15.5238   21.9402 C   0  0  0  0  0  0  0  0  0  0  0  0
    6.3738  -15.6248   22.6583 O   0  0  0  0  0  0  0  0  0  0  0  0
    8.6580  -12.8031   17.0476 O   0  0  0  0  0  0  0  0  0  0  0  0
    8.6481  -15.7834   22.5729 N   0  0  0  0  0  0  0  0  0  0  0  0
    8.7860  -16.3219   23.9013 C   0  0  1  0  0  0  0  0  0  0  0  0
    9.8395  -17.4172   23.8448 C   0  0  0  0  0  0  0  0  0  0  0  0
   10.0073  -17.9713   25.2083 C   0  0  0  0  0  0  0  0  0  0  0  0
    9.0180  -17.9838   25.9720 O   0  0  0  0  0  0  0  0  0  0  0  0
    9.1651  -15.2756   24.8929 C   0  0  0  0  0  0  0  0  0  0  0  0
   10.2680  -14.6800   24.7957 O   0  0  0  0  0  0  0  0  0  0  0  0
   11.2268  -18.4511   25.6070 O   0  0  0  0  0  0  0  0  0  0  0  0
    6.4532  -14.0306   27.8983 C   0  0  0  0  0  0  0  0  0  0  0  0
    7.5402  -13.0531   27.4081 C   0  0  2  0  0  0  0  0  0  0  0  0
    6.9391  -12.3629   26.1915 C   0  0  0  0  0  0  0  0  0  0  0  0
    8.6927  -13.8803   26.9473 C   0  0  2  0  0  0  0  0  0  0  0  0
    8.3393  -14.8909   25.9775 N   0  0  0  0  0  0  0  0  0  0  0  0
    9.3677  -14.5147   28.1266 C   0  0  0  0  0  0  0  0  0  0  0  0
    9.9881  -13.7979   29.1298 O   0  0  0  0  0  0  0  0  0  0  0  0
    9.3702  -15.7662   28.2058 O   0  0  0  0  0  0  0  0  0  0  0  0
  2  1  1  1
  3  2  1  0
  4  3  1  0
  5  4  1  0
  5  6  2  0
  7  2  1  0
  7  8  2  0
  9  5  1  0
 10  7  1  0
 11 10  1  0
 11 12  1  6
 12 13  1  0
 13 17  1  0
 14 13  2  0
 15 11  1  0
 16 15  2  0
 19 18  1  6
 19 20  1  0
 19 21  1  0
 21 23  1  0
 21 22  1  6
 22 15  1  0
 23 24  1  0
 25 23  2  0
M  END
$$$$
