EDV.pdb
     RDKit          3D

 25 24  0  0  1  0  0  0  0  0999 V2000
    9.0791  -15.8433   19.6436 N   0  0  0  0  0  0  0  0  0  0  0  0
    7.8000  -15.5788   20.3125 C   0  0  1  0  0  0  0  0  0  0  0  0
    6.8228  -16.6200   19.8139 C   0  0  0  0  0  0  0  0  0  0  0  0
    7.1476  -17.1813   18.4681 C   0  0  0  0  0  0  0  0  0  0  0  0
    6.1390  -18.0980   17.9376 C   0  0  0  0  0  0  0  0  0  0  0  0
    5.1517  -18.3891   18.6482 O   0  0  0  0  0  0  0  0  0  0  0  0
    7.9263  -15.8032   21.7792 C   0  0  0  0  0  0  0  0  0  0  0  0
    6.9439  -15.6109   22.5405 O   0  0  0  0  0  0  0  0  0  0  0  0
    6.2501  -18.6446   16.6844 O   0  0  0  0  0  0  0  0  0  0  0  0
    9.1327  -16.2373   22.3941 N   0  0  0  0  0  0  0  0  0  0  0  0
    9.2924  -16.4411   23.8106 C   0  0  1  0  0  0  0  0  0  0  0  0
   10.5558  -17.2624   24.0160 C   0  0  0  0  0  0  0  0  0  0  0  0
   10.2994  -18.6384   23.5312 C   0  0  0  0  0  0  0  0  0  0  0  0
    9.3563  -19.2827   24.0388 O   0  0  0  0  0  0  0  0  0  0  0  0
    9.3735  -15.1527   24.5559 C   0  0  0  0  0  0  0  0  0  0  0  0
   10.4176  -14.4544   24.5030 O   0  0  0  0  0  0  0  0  0  0  0  0
   11.0902  -19.1774   22.5511 O   0  0  0  0  0  0  0  0  0  0  0  0
    6.0373  -13.4135   26.6649 C   0  0  0  0  0  0  0  0  0  0  0  0
    7.2291  -12.5823   26.1491 C   0  0  2  0  0  0  0  0  0  0  0  0
    6.9092  -12.2855   24.6905 C   0  0  0  0  0  0  0  0  0  0  0  0
    8.4273  -13.4698   26.1877 C   0  0  2  0  0  0  0  0  0  0  0  0
    8.3175  -14.6409   25.3490 N   0  0  0  0  0  0  0  0  0  0  0  0
    8.7138  -13.8769   27.6023 C   0  0  0  0  0  0  0  0  0  0  0  0
    8.6915  -15.1852   28.0412 O   0  0  0  0  0  0  0  0  0  0  0  0
    8.9878  -12.9790   28.4337 O   0  0  0  0  0  0  0  0  0  0  0  0
  2  1  1  6
  3  2  1  0
  4  3  1  0
  5  4  1  0
  5  6  2  0
  7  2  1  0
  7  8  2  0
  9  5  1  0
 10  7  1  0
 11 10  1  0
 11 12  1  6
 12 13  1  0
 13 17  1  0
 14 13  2  0
 15 11  1  0
 16 15  2  0
 19 18  1  6
 19 20  1  0
 19 21  1  0
 21 23  1  0
 21 22  1  6
 22 15  1  0
 23 24  1  0
 25 23  2  0
M  END
$$$$
