EDV.pdb
     RDKit          3D

 25 24  0  0  1  0  0  0  0  0999 V2000
    7.6382  -17.7764   19.0755 N   0  0  0  0  0  0  0  0  0  0  0  0
    8.5840  -16.9823   19.8680 C   0  0  1  0  0  0  0  0  0  0  0  0
    8.9282  -15.7620   19.0434 C   0  0  0  0  0  0  0  0  0  0  0  0
    7.8366  -14.7462   18.9535 C   0  0  0  0  0  0  0  0  0  0  0  0
    8.1561  -13.5902   18.1164 C   0  0  0  0  0  0  0  0  0  0  0  0
    8.4803  -13.7778   16.9230 O   0  0  0  0  0  0  0  0  0  0  0  0
    7.9251  -16.4716   21.1019 C   0  0  0  0  0  0  0  0  0  0  0  0
    6.6721  -16.3851   21.1664 O   0  0  0  0  0  0  0  0  0  0  0  0
    8.1095  -12.3102   18.6073 O   0  0  0  0  0  0  0  0  0  0  0  0
    8.6517  -16.0610   22.2533 N   0  0  0  0  0  0  0  0  0  0  0  0
    8.3215  -16.4483   23.6004 C   0  0  1  0  0  0  0  0  0  0  0  0
    8.9842  -17.7909   23.8668 C   0  0  0  0  0  0  0  0  0  0  0  0
    8.5563  -18.2630   25.2040 C   0  0  0  0  0  0  0  0  0  0  0  0
    9.2389  -19.1429   25.7716 O   0  0  0  0  0  0  0  0  0  0  0  0
    8.7641  -15.4339   24.5989 C   0  0  0  0  0  0  0  0  0  0  0  0
    9.9816  -15.3220   24.8919 O   0  0  0  0  0  0  0  0  0  0  0  0
    7.4337  -17.7387   25.7883 O   0  0  0  0  0  0  0  0  0  0  0  0
    5.9525  -13.1639   26.8339 C   0  0  0  0  0  0  0  0  0  0  0  0
    7.2997  -12.4974   26.4900 C   0  0  2  0  0  0  0  0  0  0  0  0
    7.0701  -11.7928   25.1600 C   0  0  0  0  0  0  0  0  0  0  0  0
    8.2837  -13.5959   26.2667 C   0  0  2  0  0  0  0  0  0  0  0  0
    7.8763  -14.5544   25.2656 N   0  0  0  0  0  0  0  0  0  0  0  0
    8.5673  -14.2963   27.5621 C   0  0  0  0  0  0  0  0  0  0  0  0
    9.1331  -13.6775   28.6583 O   0  0  0  0  0  0  0  0  0  0  0  0
    8.2755  -15.5124   27.6548 O   0  0  0  0  0  0  0  0  0  0  0  0
  2  1  1  6
  3  2  1  0
  4  3  1  0
  5  4  1  0
  5  6  2  0
  7  2  1  0
  7  8  2  0
  9  5  1  0
 10  7  1  0
 11 10  1  0
 11 12  1  1
 12 13  1  0
 13 17  1  0
 14 13  2  0
 15 11  1  0
 16 15  2  0
 19 18  1  6
 19 20  1  0
 19 21  1  0
 21 23  1  0
 21 22  1  6
 22 15  1  0
 23 24  1  0
 25 23  2  0
M  END
$$$$
