EDV.pdb
     RDKit          3D

 25 24  0  0  1  0  0  0  0  0999 V2000
    9.7189  -16.4838   19.6411 N   0  0  0  0  0  0  0  0  0  0  0  0
    8.4166  -15.8102   19.7018 C   0  0  1  0  0  0  0  0  0  0  0  0
    7.4991  -16.5468   18.7515 C   0  0  0  0  0  0  0  0  0  0  0  0
    8.1826  -17.5536   17.8849 C   0  0  0  0  0  0  0  0  0  0  0  0
    7.7458  -17.5435   16.4891 C   0  0  0  0  0  0  0  0  0  0  0  0
    8.3668  -16.8361   15.6654 O   0  0  0  0  0  0  0  0  0  0  0  0
    7.8158  -15.9652   21.0555 C   0  0  0  0  0  0  0  0  0  0  0  0
    6.6458  -15.5642   21.2835 O   0  0  0  0  0  0  0  0  0  0  0  0
    6.6749  -18.2878   16.0638 O   0  0  0  0  0  0  0  0  0  0  0  0
    8.5085  -16.5603   22.1455 N   0  0  0  0  0  0  0  0  0  0  0  0
    7.9885  -16.6470   23.4856 C   0  0  1  0  0  0  0  0  0  0  0  0
    8.2148  -18.0694   23.9738 C   0  0  0  0  0  0  0  0  0  0  0  0
    7.7458  -18.1595   25.3760 C   0  0  0  0  0  0  0  0  0  0  0  0
    6.5496  -17.8938   25.6222 O   0  0  0  0  0  0  0  0  0  0  0  0
    8.6356  -15.6653   24.4018 C   0  0  0  0  0  0  0  0  0  0  0  0
    9.8888  -15.5897   24.4670 O   0  0  0  0  0  0  0  0  0  0  0  0
    8.6180  -18.5236   26.3676 O   0  0  0  0  0  0  0  0  0  0  0  0
    6.3048  -13.1483   26.8820 C   0  0  0  0  0  0  0  0  0  0  0  0
    7.6714  -12.6222   26.3994 C   0  0  2  0  0  0  0  0  0  0  0  0
    7.3879  -11.9257   25.0756 C   0  0  0  0  0  0  0  0  0  0  0  0
    8.5225  -13.8150   26.1206 C   0  0  2  0  0  0  0  0  0  0  0  0
    7.9107  -14.7786   25.2352 N   0  0  0  0  0  0  0  0  0  0  0  0
    8.9101  -14.4763   27.4095 C   0  0  0  0  0  0  0  0  0  0  0  0
    9.6551  -13.8576   28.3929 O   0  0  0  0  0  0  0  0  0  0  0  0
    8.5379  -15.6577   27.6051 O   0  0  0  0  0  0  0  0  0  0  0  0
  2  1  1  1
  3  2  1  0
  4  3  1  0
  5  4  1  0
  5  6  2  0
  7  2  1  0
  7  8  2  0
  9  5  1  0
 10  7  1  0
 11 10  1  0
 11 12  1  1
 12 13  1  0
 13 17  1  0
 14 13  2  0
 15 11  1  0
 16 15  2  0
 19 18  1  6
 19 20  1  0
 19 21  1  0
 21 23  1  0
 21 22  1  6
 22 15  1  0
 23 24  1  0
 25 23  2  0
M  END
$$$$
