EDV.pdb
     RDKit          3D

 25 24  0  0  1  0  0  0  0  0999 V2000
    9.8428  -13.0826   19.5507 N   0  0  0  0  0  0  0  0  0  0  0  0
    8.4067  -13.1514   19.8445 C   0  0  1  0  0  0  0  0  0  0  0  0
    7.7440  -13.7802   18.6391 C   0  0  0  0  0  0  0  0  0  0  0  0
    8.6461  -14.6362   17.8114 C   0  0  0  0  0  0  0  0  0  0  0  0
    7.9954  -15.2615   16.6604 C   0  0  0  0  0  0  0  0  0  0  0  0
    7.3048  -16.2889   16.8396 O   0  0  0  0  0  0  0  0  0  0  0  0
    8.1545  -14.0787   20.9821 C   0  0  0  0  0  0  0  0  0  0  0  0
    6.9869  -14.2534   21.4154 O   0  0  0  0  0  0  0  0  0  0  0  0
    8.1247  -14.7505   15.3940 O   0  0  0  0  0  0  0  0  0  0  0  0
    9.1900  -14.8051   21.6319 N   0  0  0  0  0  0  0  0  0  0  0  0
    8.9940  -15.6280   22.7973 C   0  0  1  0  0  0  0  0  0  0  0  0
    9.9578  -16.8001   22.6980 C   0  0  0  0  0  0  0  0  0  0  0  0
    9.8105  -17.6273   23.9180 C   0  0  0  0  0  0  0  0  0  0  0  0
    8.6743  -17.7431   24.4255 O   0  0  0  0  0  0  0  0  0  0  0  0
    9.2140  -14.8695   24.0615 C   0  0  0  0  0  0  0  0  0  0  0  0
   10.3607  -14.4461   24.3554 O   0  0  0  0  0  0  0  0  0  0  0  0
   10.9062  -18.2408   24.4655 O   0  0  0  0  0  0  0  0  0  0  0  0
    5.9648  -13.5760   26.3915 C   0  0  0  0  0  0  0  0  0  0  0  0
    7.3174  -12.8447   26.5048 C   0  0  2  0  0  0  0  0  0  0  0  0
    7.3178  -11.8256   25.3737 C   0  0  0  0  0  0  0  0  0  0  0  0
    8.3809  -13.8511   26.2200 C   0  0  2  0  0  0  0  0  0  0  0  0
    8.1834  -14.5815   24.9895 N   0  0  0  0  0  0  0  0  0  0  0  0
    8.4990  -14.8061   27.3702 C   0  0  0  0  0  0  0  0  0  0  0  0
    8.2907  -16.1660   27.2597 O   0  0  0  0  0  0  0  0  0  0  0  0
    8.8028  -14.3440   28.4957 O   0  0  0  0  0  0  0  0  0  0  0  0
  2  1  1  6
  3  2  1  0
  4  3  1  0
  5  4  1  0
  5  6  2  0
  7  2  1  0
  7  8  2  0
  9  5  1  0
 10  7  1  0
 11 10  1  0
 11 12  1  6
 12 13  1  0
 13 17  1  0
 14 13  2  0
 15 11  1  0
 16 15  2  0
 19 18  1  6
 19 20  1  0
 19 21  1  0
 21 23  1  0
 21 22  1  6
 22 15  1  0
 23 24  1  0
 25 23  2  0
M  END
$$$$
