EDV.pdb
     RDKit          3D

 25 24  0  0  1  0  0  0  0  0999 V2000
   10.7814  -18.5431   19.9303 N   0  0  0  0  0  0  0  0  0  0  0  0
   10.5245  -17.1478   20.3051 C   0  0  1  0  0  0  0  0  0  0  0  0
    9.6048  -16.5743   19.2502 C   0  0  0  0  0  0  0  0  0  0  0  0
    8.4767  -17.4713   18.8568 C   0  0  0  0  0  0  0  0  0  0  0  0
    7.6131  -16.9296   17.8081 C   0  0  0  0  0  0  0  0  0  0  0  0
    7.9299  -15.8509   17.2599 O   0  0  0  0  0  0  0  0  0  0  0  0
    9.7683  -17.0864   21.5865 C   0  0  0  0  0  0  0  0  0  0  0  0
    8.5535  -17.4093   21.6259 O   0  0  0  0  0  0  0  0  0  0  0  0
    6.4679  -17.5735   17.4137 O   0  0  0  0  0  0  0  0  0  0  0  0
   10.3565  -16.6702   22.8124 N   0  0  0  0  0  0  0  0  0  0  0  0
    9.7293  -16.8111   24.1010 C   0  0  1  0  0  0  0  0  0  0  0  0
   10.4811  -17.8928   24.8609 C   0  0  0  0  0  0  0  0  0  0  0  0
    9.6344  -18.3408   25.9907 C   0  0  0  0  0  0  0  0  0  0  0  0
    8.4860  -17.8600   26.1016 O   0  0  0  0  0  0  0  0  0  0  0  0
    9.7289  -15.5319   24.8662 C   0  0  0  0  0  0  0  0  0  0  0  0
   10.8143  -14.9914   25.1981 O   0  0  0  0  0  0  0  0  0  0  0  0
   10.1167  -19.2588   26.8858 O   0  0  0  0  0  0  0  0  0  0  0  0
    6.1160  -13.8158   26.3684 C   0  0  0  0  0  0  0  0  0  0  0  0
    7.2621  -12.8735   25.9495 C   0  0  2  0  0  0  0  0  0  0  0  0
    7.0179  -12.5757   24.4765 C   0  0  0  0  0  0  0  0  0  0  0  0
    8.5286  -13.6538   26.0590 C   0  0  2  0  0  0  0  0  0  0  0  0
    8.5473  -14.8574   25.2603 N   0  0  0  0  0  0  0  0  0  0  0  0
    8.7982  -13.9875   27.4960 C   0  0  0  0  0  0  0  0  0  0  0  0
    9.0596  -13.0403   28.4652 O   0  0  0  0  0  0  0  0  0  0  0  0
    8.7871  -15.1943   27.8366 O   0  0  0  0  0  0  0  0  0  0  0  0
  2  1  1  6
  3  2  1  0
  4  3  1  0
  5  4  1  0
  5  6  2  0
  7  2  1  0
  7  8  2  0
  9  5  1  0
 10  7  1  0
 11 10  1  0
 11 12  1  1
 12 13  1  0
 13 17  1  0
 14 13  2  0
 15 11  1  0
 16 15  2  0
 19 18  1  6
 19 20  1  0
 19 21  1  0
 21 23  1  0
 21 22  1  6
 22 15  1  0
 23 24  1  0
 25 23  2  0
M  END
$$$$
