EDV.pdb
     RDKit          3D

 25 24  0  0  1  0  0  0  0  0999 V2000
    7.7899  -16.2678   18.7386 N   0  0  0  0  0  0  0  0  0  0  0  0
    8.2985  -15.2115   19.6212 C   0  0  1  0  0  0  0  0  0  0  0  0
    7.5132  -13.9591   19.3010 C   0  0  0  0  0  0  0  0  0  0  0  0
    8.1262  -13.0951   18.2477 C   0  0  0  0  0  0  0  0  0  0  0  0
    8.2330  -13.7294   16.9342 C   0  0  0  0  0  0  0  0  0  0  0  0
    7.3914  -14.5962   16.6101 O   0  0  0  0  0  0  0  0  0  0  0  0
    7.9953  -15.5339   21.0431 C   0  0  0  0  0  0  0  0  0  0  0  0
    6.8233  -15.8233   21.3953 O   0  0  0  0  0  0  0  0  0  0  0  0
    9.2308  -13.3983   16.0531 O   0  0  0  0  0  0  0  0  0  0  0  0
    8.9854  -15.5348   22.0639 N   0  0  0  0  0  0  0  0  0  0  0  0
    8.7695  -16.0224   23.4015 C   0  0  1  0  0  0  0  0  0  0  0  0
    9.6899  -17.2152   23.6086 C   0  0  0  0  0  0  0  0  0  0  0  0
    9.5129  -17.7033   24.9959 C   0  0  0  0  0  0  0  0  0  0  0  0
   10.4802  -17.6232   25.7835 O   0  0  0  0  0  0  0  0  0  0  0  0
    9.0266  -14.9729   24.4282 C   0  0  0  0  0  0  0  0  0  0  0  0
   10.1403  -14.3914   24.4753 O   0  0  0  0  0  0  0  0  0  0  0  0
    8.3109  -18.2305   25.3881 O   0  0  0  0  0  0  0  0  0  0  0  0
    5.9325  -13.6639   26.9619 C   0  0  0  0  0  0  0  0  0  0  0  0
    7.1012  -12.7015   26.6698 C   0  0  2  0  0  0  0  0  0  0  0  0
    6.7144  -11.9794   25.3865 C   0  0  0  0  0  0  0  0  0  0  0  0
    8.2975  -13.5448   26.3826 C   0  0  2  0  0  0  0  0  0  0  0  0
    8.0687  -14.5696   25.3905 N   0  0  0  0  0  0  0  0  0  0  0  0
    8.8009  -14.1635   27.6525 C   0  0  0  0  0  0  0  0  0  0  0  0
    8.9025  -15.5254   27.8520 O   0  0  0  0  0  0  0  0  0  0  0  0
    9.1479  -13.4017   28.5862 O   0  0  0  0  0  0  0  0  0  0  0  0
  2  1  1  6
  3  2  1  0
  4  3  1  0
  5  4  1  0
  5  6  2  0
  7  2  1  0
  7  8  2  0
  9  5  1  0
 10  7  1  0
 11 10  1  0
 11 12  1  1
 12 13  1  0
 13 17  1  0
 14 13  2  0
 15 11  1  0
 16 15  2  0
 19 18  1  6
 19 20  1  0
 19 21  1  0
 21 23  1  0
 21 22  1  6
 22 15  1  0
 23 24  1  0
 25 23  2  0
M  END
$$$$
