EDV.pdb
     RDKit          3D

 25 24  0  0  1  0  0  0  0  0999 V2000
   10.0935  -15.4686   18.6785 N   0  0  0  0  0  0  0  0  0  0  0  0
    8.7012  -15.0901   18.9462 C   0  0  1  0  0  0  0  0  0  0  0  0
    7.8466  -15.8293   17.9408 C   0  0  0  0  0  0  0  0  0  0  0  0
    8.1623  -17.2834   17.8085 C   0  0  0  0  0  0  0  0  0  0  0  0
    7.3939  -17.9757   16.7744 C   0  0  0  0  0  0  0  0  0  0  0  0
    6.7031  -18.9678   17.0953 O   0  0  0  0  0  0  0  0  0  0  0  0
    8.2785  -15.5837   20.2861 C   0  0  0  0  0  0  0  0  0  0  0  0
    7.0990  -15.4102   20.6865 O   0  0  0  0  0  0  0  0  0  0  0  0
    7.4135  -17.5648   15.4658 O   0  0  0  0  0  0  0  0  0  0  0  0
    9.1582  -16.2638   21.1724 N   0  0  0  0  0  0  0  0  0  0  0  0
    8.7980  -16.6961   22.4980 C   0  0  1  0  0  0  0  0  0  0  0  0
    9.4805  -18.0324   22.7455 C   0  0  0  0  0  0  0  0  0  0  0  0
    8.7273  -19.0805   22.0185 C   0  0  0  0  0  0  0  0  0  0  0  0
    9.3251  -19.7467   21.1461 O   0  0  0  0  0  0  0  0  0  0  0  0
    9.1911  -15.7023   23.5371 C   0  0  0  0  0  0  0  0  0  0  0  0
   10.3958  -15.3692   23.6721 O   0  0  0  0  0  0  0  0  0  0  0  0
    7.4059  -19.2981   22.3064 O   0  0  0  0  0  0  0  0  0  0  0  0
    6.2890  -13.7771   25.9900 C   0  0  0  0  0  0  0  0  0  0  0  0
    7.6281  -13.0752   25.6878 C   0  0  2  0  0  0  0  0  0  0  0  0
    7.4070  -12.3389   24.3737 C   0  0  0  0  0  0  0  0  0  0  0  0
    8.6376  -14.1477   25.4521 C   0  0  2  0  0  0  0  0  0  0  0  0
    8.2682  -15.0838   24.4157 N   0  0  0  0  0  0  0  0  0  0  0  0
    8.9102  -14.8803   26.7318 C   0  0  0  0  0  0  0  0  0  0  0  0
    9.4766  -14.2918   27.8444 O   0  0  0  0  0  0  0  0  0  0  0  0
    8.6082  -16.0958   26.7951 O   0  0  0  0  0  0  0  0  0  0  0  0
  2  1  1  6
  3  2  1  0
  4  3  1  0
  5  4  1  0
  5  6  2  0
  7  2  1  0
  7  8  2  0
  9  5  1  0
 10  7  1  0
 11 10  1  0
 11 12  1  1
 12 13  1  0
 13 17  1  0
 14 13  2  0
 15 11  1  0
 16 15  2  0
 19 18  1  6
 19 20  1  0
 19 21  1  0
 21 23  1  0
 21 22  1  6
 22 15  1  0
 23 24  1  0
 25 23  2  0
M  END
$$$$
