EDV.pdb
     RDKit          3D

 25 24  0  0  1  0  0  0  0  0999 V2000
    9.5215  -14.3874   19.4001 N   0  0  0  0  0  0  0  0  0  0  0  0
    8.5314  -13.4917   20.0090 C   0  0  1  0  0  0  0  0  0  0  0  0
    7.3796  -13.3867   19.0342 C   0  0  0  0  0  0  0  0  0  0  0  0
    7.7764  -13.0131   17.6433 C   0  0  0  0  0  0  0  0  0  0  0  0
    8.3826  -14.1010   16.8764 C   0  0  0  0  0  0  0  0  0  0  0  0
    7.7297  -15.1529   16.6977 O   0  0  0  0  0  0  0  0  0  0  0  0
    7.9692  -14.1043   21.2444 C   0  0  0  0  0  0  0  0  0  0  0  0
    7.0030  -13.5639   21.8411 O   0  0  0  0  0  0  0  0  0  0  0  0
    9.6454  -13.9958   16.3511 O   0  0  0  0  0  0  0  0  0  0  0  0
    8.4758  -15.3060   21.8112 N   0  0  0  0  0  0  0  0  0  0  0  0
    8.0080  -15.8793   23.0466 C   0  0  1  0  0  0  0  0  0  0  0  0
    8.4018  -17.3482   23.0484 C   0  0  0  0  0  0  0  0  0  0  0  0
    7.9614  -17.9457   24.3302 C   0  0  0  0  0  0  0  0  0  0  0  0
    8.4744  -17.5266   25.3901 O   0  0  0  0  0  0  0  0  0  0  0  0
    8.5712  -15.1804   24.2367 C   0  0  0  0  0  0  0  0  0  0  0  0
    9.8148  -15.1348   24.4153 O   0  0  0  0  0  0  0  0  0  0  0  0
    7.0153  -18.9364   24.3345 O   0  0  0  0  0  0  0  0  0  0  0  0
    6.0200  -13.1665   26.8874 C   0  0  0  0  0  0  0  0  0  0  0  0
    7.4746  -12.6657   26.7850 C   0  0  2  0  0  0  0  0  0  0  0  0
    7.4688  -11.6469   25.6536 C   0  0  0  0  0  0  0  0  0  0  0  0
    8.3053  -13.8278   26.3557 C   0  0  2  0  0  0  0  0  0  0  0  0
    7.7739  -14.5403   25.2169 N   0  0  0  0  0  0  0  0  0  0  0  0
    8.4963  -14.7698   27.5068 C   0  0  0  0  0  0  0  0  0  0  0  0
    9.1290  -14.4220   28.6830 O   0  0  0  0  0  0  0  0  0  0  0  0
    8.0581  -15.9394   27.3947 O   0  0  0  0  0  0  0  0  0  0  0  0
  2  1  1  6
  3  2  1  0
  4  3  1  0
  5  4  1  0
  5  6  2  0
  7  2  1  0
  7  8  2  0
  9  5  1  0
 10  7  1  0
 11 10  1  0
 11 12  1  1
 12 13  1  0
 13 17  1  0
 14 13  2  0
 15 11  1  0
 16 15  2  0
 19 18  1  6
 19 20  1  0
 19 21  1  0
 21 23  1  0
 21 22  1  6
 22 15  1  0
 23 24  1  0
 25 23  2  0
M  END
$$$$
