EDV.pdb
     RDKit          3D

 25 24  0  0  1  0  0  0  0  0999 V2000
   10.0974  -16.5315   18.8915 N   0  0  0  0  0  0  0  0  0  0  0  0
   10.7337  -17.0075   20.1251 C   0  0  1  0  0  0  0  0  0  0  0  0
   12.1082  -16.3786   20.1783 C   0  0  0  0  0  0  0  0  0  0  0  0
   12.1056  -14.8858   20.2329 C   0  0  0  0  0  0  0  0  0  0  0  0
   13.4370  -14.2805   20.2459 C   0  0  0  0  0  0  0  0  0  0  0  0
   13.7609  -13.5505   21.2086 O   0  0  0  0  0  0  0  0  0  0  0  0
   10.0015  -16.4956   21.3165 C   0  0  0  0  0  0  0  0  0  0  0  0
    9.1432  -15.5846   21.1945 O   0  0  0  0  0  0  0  0  0  0  0  0
   14.3350  -14.4928   19.2310 O   0  0  0  0  0  0  0  0  0  0  0  0
   10.2211  -16.9915   22.6310 N   0  0  0  0  0  0  0  0  0  0  0  0
    9.3000  -16.8226   23.7250 C   0  0  1  0  0  0  0  0  0  0  0  0
    9.0694  -18.1917   24.3456 C   0  0  0  0  0  0  0  0  0  0  0  0
   10.3755  -18.7211   24.8017 C   0  0  0  0  0  0  0  0  0  0  0  0
   10.6482  -18.6650   26.0202 O   0  0  0  0  0  0  0  0  0  0  0  0
    9.8104  -15.8609   24.7431 C   0  0  0  0  0  0  0  0  0  0  0  0
   11.0292  -15.8517   25.0516 O   0  0  0  0  0  0  0  0  0  0  0  0
   11.2533  -19.2528   23.8944 O   0  0  0  0  0  0  0  0  0  0  0  0
    7.9250  -13.0205   28.0492 C   0  0  0  0  0  0  0  0  0  0  0  0
    8.5686  -12.8406   26.6597 C   0  0  2  0  0  0  0  0  0  0  0  0
    7.4152  -12.9267   25.6697 C   0  0  0  0  0  0  0  0  0  0  0  0
    9.4574  -14.0175   26.4366 C   0  0  2  0  0  0  0  0  0  0  0  0
    8.9881  -14.9217   25.4124 N   0  0  0  0  0  0  0  0  0  0  0  0
    9.6530  -14.7592   27.7252 C   0  0  0  0  0  0  0  0  0  0  0  0
   10.3635  -14.2569   28.7966 O   0  0  0  0  0  0  0  0  0  0  0  0
    9.1441  -15.8999   27.8359 O   0  0  0  0  0  0  0  0  0  0  0  0
  2  1  1  6
  3  2  1  0
  4  3  1  0
  5  4  1  0
  5  6  2  0
  7  2  1  0
  7  8  2  0
  9  5  1  0
 10  7  1  0
 11 10  1  0
 11 12  1  1
 12 13  1  0
 13 17  1  0
 14 13  2  0
 15 11  1  0
 16 15  2  0
 19 18  1  1
 19 20  1  0
 19 21  1  0
 21 23  1  0
 21 22  1  6
 22 15  1  0
 23 24  1  0
 25 23  2  0
M  END
$$$$
