EDV.pdb
     RDKit          3D

 25 24  0  0  1  0  0  0  0  0999 V2000
   14.3142  -19.3971   16.6073 N   0  0  0  0  0  0  0  0  0  0  0  0
   14.1238  -18.2504   17.5030 C   0  0  1  0  0  0  0  0  0  0  0  0
   12.7327  -17.7177   17.2407 C   0  0  0  0  0  0  0  0  0  0  0  0
   11.7469  -18.7490   16.7978 C   0  0  0  0  0  0  0  0  0  0  0  0
   10.3881  -18.2422   16.6081 C   0  0  0  0  0  0  0  0  0  0  0  0
    9.4422  -18.8103   17.1971 O   0  0  0  0  0  0  0  0  0  0  0  0
   14.1318  -18.6959   18.9239 C   0  0  0  0  0  0  0  0  0  0  0  0
   13.6293  -19.8022   19.2480 O   0  0  0  0  0  0  0  0  0  0  0  0
   10.1275  -17.1633   15.8020 O   0  0  0  0  0  0  0  0  0  0  0  0
   14.6931  -17.9193   19.9746 N   0  0  0  0  0  0  0  0  0  0  0  0
   14.6429  -18.2833   21.3669 C   0  0  1  0  0  0  0  0  0  0  0  0
   16.0736  -18.3297   21.8804 C   0  0  0  0  0  0  0  0  0  0  0  0
   16.0525  -18.8461   23.2686 C   0  0  0  0  0  0  0  0  0  0  0  0
   16.8536  -18.3615   24.0966 O   0  0  0  0  0  0  0  0  0  0  0  0
   13.8260  -17.3267   22.1666 C   0  0  0  0  0  0  0  0  0  0  0  0
   14.2829  -16.1923   22.4580 O   0  0  0  0  0  0  0  0  0  0  0  0
   15.1711  -19.8348   23.6179 O   0  0  0  0  0  0  0  0  0  0  0  0
    9.7097  -17.9368   22.7497 C   0  0  0  0  0  0  0  0  0  0  0  0
   10.3246  -16.5260   22.8437 C   0  0  2  0  0  0  0  0  0  0  0  0
   10.4367  -16.0411   21.4049 C   0  0  0  0  0  0  0  0  0  0  0  0
   11.7050  -16.6886   23.3850 C   0  0  2  0  0  0  0  0  0  0  0  0
   12.5225  -17.6169   22.6388 N   0  0  0  0  0  0  0  0  0  0  0  0
   11.6415  -17.1035   24.8247 C   0  0  0  0  0  0  0  0  0  0  0  0
   11.1254  -16.3084   25.8279 O   0  0  0  0  0  0  0  0  0  0  0  0
   12.0830  -18.2353   25.1356 O   0  0  0  0  0  0  0  0  0  0  0  0
  2  1  1  6
  3  2  1  0
  4  3  1  0
  5  4  1  0
  5  6  2  0
  7  2  1  0
  7  8  2  0
  9  5  1  0
 10  7  1  0
 11 10  1  0
 11 12  1  1
 12 13  1  0
 13 17  1  0
 14 13  2  0
 15 11  1  0
 16 15  2  0
 19 18  1  6
 19 20  1  0
 19 21  1  0
 21 23  1  0
 21 22  1  6
 22 15  1  0
 23 24  1  0
 25 23  2  0
M  END
$$$$
