EDV.pdb
     RDKit          3D

 25 24  0  0  1  0  0  0  0  0999 V2000
    9.8159  -17.7188   19.2989 N   0  0  0  0  0  0  0  0  0  0  0  0
    8.7504  -16.7736   19.6519 C   0  0  1  0  0  0  0  0  0  0  0  0
    7.5174  -17.1995   18.8865 C   0  0  0  0  0  0  0  0  0  0  0  0
    7.4502  -18.6605   18.5821 C   0  0  0  0  0  0  0  0  0  0  0  0
    6.1164  -19.2445   18.7201 C   0  0  0  0  0  0  0  0  0  0  0  0
    5.1857  -18.5322   19.1569 O   0  0  0  0  0  0  0  0  0  0  0  0
    8.4024  -16.9003   21.0943 C   0  0  0  0  0  0  0  0  0  0  0  0
    7.2645  -17.3076   21.4422 O   0  0  0  0  0  0  0  0  0  0  0  0
    5.8632  -20.5501   18.3839 O   0  0  0  0  0  0  0  0  0  0  0  0
    9.3103  -16.5777   22.1401 N   0  0  0  0  0  0  0  0  0  0  0  0
    9.0047  -16.6928   23.5426 C   0  0  1  0  0  0  0  0  0  0  0  0
   10.0521  -17.6015   24.1669 C   0  0  0  0  0  0  0  0  0  0  0  0
   11.3713  -17.2558   23.5886 C   0  0  0  0  0  0  0  0  0  0  0  0
   11.4260  -16.3498   22.7293 O   0  0  0  0  0  0  0  0  0  0  0  0
    8.9845  -15.3661   24.2218 C   0  0  0  0  0  0  0  0  0  0  0  0
    9.7150  -14.4305   23.8074 O   0  0  0  0  0  0  0  0  0  0  0  0
   12.4942  -17.9267   23.9955 O   0  0  0  0  0  0  0  0  0  0  0  0
    6.7942  -12.3238   24.5607 C   0  0  0  0  0  0  0  0  0  0  0  0
    6.7929  -13.1075   25.8886 C   0  0  2  0  0  0  0  0  0  0  0  0
    6.7181  -12.0477   26.9791 C   0  0  0  0  0  0  0  0  0  0  0  0
    8.1171  -13.7860   25.9942 C   0  0  2  0  0  0  0  0  0  0  0  0
    8.1699  -15.0745   25.3432 N   0  0  0  0  0  0  0  0  0  0  0  0
    8.5049  -13.9235   27.4363 C   0  0  0  0  0  0  0  0  0  0  0  0
    8.6668  -15.1376   28.0724 O   0  0  0  0  0  0  0  0  0  0  0  0
    8.6916  -12.8776   28.1024 O   0  0  0  0  0  0  0  0  0  0  0  0
  2  1  1  6
  3  2  1  0
  4  3  1  0
  5  4  1  0
  5  6  2  0
  7  2  1  0
  7  8  2  0
  9  5  1  0
 10  7  1  0
 11 10  1  0
 11 12  1  1
 12 13  1  0
 13 17  1  0
 14 13  2  0
 15 11  1  0
 16 15  2  0
 19 18  1  6
 19 20  1  0
 19 21  1  0
 21 23  1  0
 21 22  1  1
 22 15  1  0
 23 24  1  0
 25 23  2  0
M  END
$$$$
