EDV.pdb
     RDKit          3D

 25 24  0  0  1  0  0  0  0  0999 V2000
   10.0634  -17.0074   20.3643 N   0  0  0  0  0  0  0  0  0  0  0  0
   11.1429  -17.2405   21.3307 C   0  0  1  0  0  0  0  0  0  0  0  0
   12.0829  -16.0600   21.2286 C   0  0  0  0  0  0  0  0  0  0  0  0
   12.9880  -16.0889   20.0405 C   0  0  0  0  0  0  0  0  0  0  0  0
   13.9043  -14.9523   19.9526 C   0  0  0  0  0  0  0  0  0  0  0  0
   14.8318  -14.8563   20.7864 O   0  0  0  0  0  0  0  0  0  0  0  0
   10.6076  -17.2201   22.7202 C   0  0  0  0  0  0  0  0  0  0  0  0
    9.5583  -16.5815   22.9899 O   0  0  0  0  0  0  0  0  0  0  0  0
   13.7707  -13.9924   18.9819 O   0  0  0  0  0  0  0  0  0  0  0  0
   11.2324  -17.9030   23.7996 N   0  0  0  0  0  0  0  0  0  0  0  0
   10.6423  -18.0706   25.1025 C   0  0  1  0  0  0  0  0  0  0  0  0
   11.0077  -19.4620   25.5956 C   0  0  0  0  0  0  0  0  0  0  0  0
   10.2979  -19.7035   26.8731 C   0  0  0  0  0  0  0  0  0  0  0  0
    9.3143  -18.9849   27.1531 O   0  0  0  0  0  0  0  0  0  0  0  0
   11.1058  -17.0310   26.0649 C   0  0  0  0  0  0  0  0  0  0  0  0
   12.3336  -16.8006   26.2065 O   0  0  0  0  0  0  0  0  0  0  0  0
   10.7261  -20.6934   27.7177 O   0  0  0  0  0  0  0  0  0  0  0  0
    8.4523  -14.8036   28.7380 C   0  0  0  0  0  0  0  0  0  0  0  0
    9.6735  -14.1683   28.0436 C   0  0  2  0  0  0  0  0  0  0  0  0
    9.1650  -13.7018   26.6865 C   0  0  0  0  0  0  0  0  0  0  0  0
   10.6616  -15.2621   27.8154 C   0  0  2  0  0  0  0  0  0  0  0  0
   10.2275  -16.2556   26.8608 N   0  0  0  0  0  0  0  0  0  0  0  0
   11.0042  -15.9188   29.1194 C   0  0  0  0  0  0  0  0  0  0  0  0
   10.7377  -17.2432   29.4021 O   0  0  0  0  0  0  0  0  0  0  0  0
   11.5628  -15.2265   30.0032 O   0  0  0  0  0  0  0  0  0  0  0  0
  2  1  1  6
  3  2  1  0
  4  3  1  0
  5  4  1  0
  5  6  2  0
  7  2  1  0
  7  8  2  0
  9  5  1  0
 10  7  1  0
 11 10  1  0
 11 12  1  1
 12 13  1  0
 13 17  1  0
 14 13  2  0
 15 11  1  0
 16 15  2  0
 19 18  1  1
 19 20  1  0
 19 21  1  0
 21 23  1  0
 21 22  1  6
 22 15  1  0
 23 24  1  0
 25 23  2  0
M  END
$$$$
