EDV.pdb
     RDKit          3D

 25 24  0  0  1  0  0  0  0  0999 V2000
    8.9719  -16.9629   18.7965 N   0  0  0  0  0  0  0  0  0  0  0  0
    9.7600  -16.8168   20.0257 C   0  0  1  0  0  0  0  0  0  0  0  0
   10.6036  -15.5726   19.8584 C   0  0  0  0  0  0  0  0  0  0  0  0
   11.8847  -15.7865   19.1204 C   0  0  0  0  0  0  0  0  0  0  0  0
   12.6032  -14.5561   18.7905 C   0  0  0  0  0  0  0  0  0  0  0  0
   12.2159  -13.4764   19.2891 O   0  0  0  0  0  0  0  0  0  0  0  0
    8.8652  -16.5532   21.1865 C   0  0  0  0  0  0  0  0  0  0  0  0
    7.7006  -16.1137   21.0069 O   0  0  0  0  0  0  0  0  0  0  0  0
   13.6872  -14.5580   17.9498 O   0  0  0  0  0  0  0  0  0  0  0  0
    9.2607  -16.7761   22.5341 N   0  0  0  0  0  0  0  0  0  0  0  0
    8.3629  -16.7358   23.6592 C   0  0  1  0  0  0  0  0  0  0  0  0
    8.3112  -18.1342   24.2546 C   0  0  0  0  0  0  0  0  0  0  0  0
    7.4636  -18.0913   25.4686 C   0  0  0  0  0  0  0  0  0  0  0  0
    7.9896  -18.3528   26.5718 O   0  0  0  0  0  0  0  0  0  0  0  0
    8.7929  -15.7418   24.6833 C   0  0  0  0  0  0  0  0  0  0  0  0
    9.9699  -15.7554   25.1250 O   0  0  0  0  0  0  0  0  0  0  0  0
    6.1350  -17.7740   25.3651 O   0  0  0  0  0  0  0  0  0  0  0  0
    6.0323  -13.5144   26.9861 C   0  0  0  0  0  0  0  0  0  0  0  0
    7.2945  -12.7608   26.5212 C   0  0  2  0  0  0  0  0  0  0  0  0
    6.9027  -12.0938   25.2099 C   0  0  0  0  0  0  0  0  0  0  0  0
    8.3311  -13.7912   26.2236 C   0  0  2  0  0  0  0  0  0  0  0  0
    7.9368  -14.7457   25.2136 N   0  0  0  0  0  0  0  0  0  0  0  0
    8.7140  -14.5071   27.4844 C   0  0  0  0  0  0  0  0  0  0  0  0
    9.3356  -13.8941   28.5535 O   0  0  0  0  0  0  0  0  0  0  0  0
    8.4566  -15.7312   27.5727 O   0  0  0  0  0  0  0  0  0  0  0  0
  2  1  1  6
  3  2  1  0
  4  3  1  0
  5  4  1  0
  5  6  2  0
  7  2  1  0
  7  8  2  0
  9  5  1  0
 10  7  1  0
 11 10  1  0
 11 12  1  1
 12 13  1  0
 13 17  1  0
 14 13  2  0
 15 11  1  0
 16 15  2  0
 19 18  1  6
 19 20  1  0
 19 21  1  0
 21 23  1  0
 21 22  1  6
 22 15  1  0
 23 24  1  0
 25 23  2  0
M  END
$$$$
