DYV.pdb
     RDKit          3D

 28 28  0  0  1  0  0  0  0  0999 V2000
    9.9028  -16.9156   17.0922 N   0  0  0  0  0  0  0  0  0  0  0  0
   10.9078  -17.4956   17.9577 C   0  0  1  0  0  0  0  0  0  0  0  0
   12.2642  -17.3161   17.3580 C   0  0  0  0  0  0  0  0  0  0  0  0
   12.3665  -17.9790   16.0155 C   0  0  0  0  0  0  0  0  0  0  0  0
   11.5508  -18.8583   15.7020 O   0  0  0  0  0  0  0  0  0  0  0  0
   10.8473  -16.8988   19.2940 C   0  0  0  0  0  0  0  0  0  0  0  0
   11.7770  -16.1046   19.6634 O   0  0  0  0  0  0  0  0  0  0  0  0
   13.3536  -17.6275   15.1219 O   0  0  0  0  0  0  0  0  0  0  0  0
    7.5149  -11.9004   17.8756 O   0  0  0  0  0  0  0  0  0  0  0  0
    7.7199  -12.8918   18.8226 C   0  0  0  0  0  0  0  0  0  0  0  0
    8.5329  -12.6765   19.9174 C   0  0  0  0  0  0  0  0  0  0  0  0
    8.7314  -13.6509   20.8439 C   0  0  0  0  0  0  0  0  0  0  0  0
    8.0964  -14.8740   20.6658 C   0  0  0  0  0  0  0  0  0  0  0  0
    8.3288  -15.9290   21.6582 C   0  0  0  0  0  0  0  0  0  0  0  0
    9.6954  -16.5243   21.4600 C   0  0  2  0  0  0  0  0  0  0  0  0
    9.7816  -17.1897   20.1685 N   0  0  0  0  0  0  0  0  0  0  0  0
   10.1094  -17.4687   22.4992 C   0  0  0  0  0  0  0  0  0  0  0  0
    9.7317  -18.6493   22.5135 O   0  0  0  0  0  0  0  0  0  0  0  0
    7.2800  -15.1142   19.5815 C   0  0  0  0  0  0  0  0  0  0  0  0
    7.0946  -14.1188   18.6616 C   0  0  0  0  0  0  0  0  0  0  0  0
   13.7519  -17.8103   23.9046 C   0  0  0  0  0  0  0  0  0  0  0  0
   12.7795  -17.6646   25.0557 C   0  0  1  0  0  0  0  0  0  0  0  0
   12.8452  -16.3128   25.6844 C   0  0  0  0  0  0  0  0  0  0  0  0
   11.3908  -17.9863   24.5502 C   0  0  2  0  0  0  0  0  0  0  0  0
   10.9801  -17.0432   23.5482 N   0  0  0  0  0  0  0  0  0  0  0  0
   10.4371  -17.8970   25.7031 C   0  0  0  0  0  0  0  0  0  0  0  0
    9.6432  -16.9365   25.8534 O   0  0  0  0  0  0  0  0  0  0  0  0
   10.4268  -18.9105   26.6420 O   0  0  0  0  0  0  0  0  0  0  0  0
  2  1  1  6
  2  3  1  0
  3  4  1  0
  4  5  2  0
  6  7  2  0
  6  2  1  0
  8  4  1  0
  9 10  1  0
 10 11  2  0
 10 20  1  0
 11 12  1  0
 12 13  2  0
 13 14  1  0
 15 14  1  1
 15 17  1  0
 15 16  1  0
 16  6  1  0
 17 18  2  0
 19 13  1  0
 20 19  2  0
 22 21  1  6
 23 22  1  0
 24 22  1  0
 24 25  1  6
 25 17  1  0
 26 28  1  0
 26 24  1  0
 27 26  2  0
M  END
$$$$
