DYV.pdb
     RDKit          3D

 28 28  0  0  1  0  0  0  0  0999 V2000
    9.5612  -19.1031   21.0121 N   0  0  0  0  0  0  0  0  0  0  0  0
   10.0394  -17.7527   21.2199 C   0  0  1  0  0  0  0  0  0  0  0  0
    9.4543  -16.8394   20.1927 C   0  0  0  0  0  0  0  0  0  0  0  0
   10.1205  -17.0095   18.8588 C   0  0  0  0  0  0  0  0  0  0  0  0
   11.3449  -17.1955   18.8042 O   0  0  0  0  0  0  0  0  0  0  0  0
    9.7150  -17.2906   22.5714 C   0  0  0  0  0  0  0  0  0  0  0  0
    8.5247  -17.4387   23.0106 O   0  0  0  0  0  0  0  0  0  0  0  0
    9.3943  -16.9623   17.6897 O   0  0  0  0  0  0  0  0  0  0  0  0
   10.1542  -15.7393   30.9742 O   0  0  0  0  0  0  0  0  0  0  0  0
   10.5214  -15.8992   29.6471 C   0  0  0  0  0  0  0  0  0  0  0  0
   10.8968  -14.8182   28.8748 C   0  0  0  0  0  0  0  0  0  0  0  0
   11.2562  -14.9788   27.5740 C   0  0  0  0  0  0  0  0  0  0  0  0
   11.2381  -16.2594   27.0346 C   0  0  0  0  0  0  0  0  0  0  0  0
   11.6085  -16.4254   25.6250 C   0  0  0  0  0  0  0  0  0  0  0  0
   10.3820  -16.3299   24.7602 C   0  0  2  0  0  0  0  0  0  0  0  0
   10.6956  -16.6898   23.3854 N   0  0  0  0  0  0  0  0  0  0  0  0
    9.7314  -15.0184   24.7617 C   0  0  0  0  0  0  0  0  0  0  0  0
   10.1615  -14.0620   24.1006 O   0  0  0  0  0  0  0  0  0  0  0  0
   10.8671  -17.3549   27.7844 C   0  0  0  0  0  0  0  0  0  0  0  0
   10.5093  -17.1695   29.0916 C   0  0  0  0  0  0  0  0  0  0  0  0
    5.7902  -12.3102   25.8331 C   0  0  0  0  0  0  0  0  0  0  0  0
    6.4071  -13.6897   25.7425 C   0  0  1  0  0  0  0  0  0  0  0  0
    5.7426  -14.5403   24.7121 C   0  0  0  0  0  0  0  0  0  0  0  0
    7.8879  -13.5333   25.4775 C   0  0  2  0  0  0  0  0  0  0  0  0
    8.5561  -14.8027   25.5438 N   0  0  0  0  0  0  0  0  0  0  0  0
    8.4641  -12.6398   26.5340 C   0  0  0  0  0  0  0  0  0  0  0  0
    9.1582  -13.0745   27.4851 O   0  0  0  0  0  0  0  0  0  0  0  0
    8.2246  -11.2808   26.4634 O   0  0  0  0  0  0  0  0  0  0  0  0
  2  1  1  6
  2  3  1  0
  3  4  1  0
  4  5  2  0
  6  7  2  0
  6  2  1  0
  8  4  1  0
  9 10  1  0
 10 11  2  0
 10 20  1  0
 11 12  1  0
 12 13  2  0
 13 14  1  0
 15 14  1  1
 15 17  1  0
 15 16  1  0
 16  6  1  0
 17 18  2  0
 19 13  1  0
 20 19  2  0
 22 21  1  6
 23 22  1  0
 24 22  1  0
 24 25  1  1
 25 17  1  0
 26 28  1  0
 26 24  1  0
 27 26  2  0
M  END
$$$$
