DYV.pdb
     RDKit          3D

 28 28  0  0  1  0  0  0  0  0999 V2000
   10.3337  -18.1670   20.5740 N   0  0  0  0  0  0  0  0  0  0  0  0
   11.4172  -17.3842   21.1296 C   0  0  1  0  0  0  0  0  0  0  0  0
   12.1124  -16.6302   20.0433 C   0  0  0  0  0  0  0  0  0  0  0  0
   12.8648  -17.5501   19.1269 C   0  0  0  0  0  0  0  0  0  0  0  0
   12.9783  -18.7493   19.4197 O   0  0  0  0  0  0  0  0  0  0  0  0
   10.9201  -16.4702   22.1606 C   0  0  0  0  0  0  0  0  0  0  0  0
   11.6924  -15.5554   22.6060 O   0  0  0  0  0  0  0  0  0  0  0  0
   13.4339  -17.0849   17.9623 O   0  0  0  0  0  0  0  0  0  0  0  0
    5.8903  -11.5039   27.0694 O   0  0  0  0  0  0  0  0  0  0  0  0
    6.3334  -12.4766   26.1868 C   0  0  0  0  0  0  0  0  0  0  0  0
    7.1114  -12.1488   25.0944 C   0  0  0  0  0  0  0  0  0  0  0  0
    7.5441  -13.1052   24.2312 C   0  0  0  0  0  0  0  0  0  0  0  0
    7.1858  -14.4261   24.4718 C   0  0  0  0  0  0  0  0  0  0  0  0
    7.6392  -15.4526   23.5269 C   0  0  0  0  0  0  0  0  0  0  0  0
    9.1231  -15.6536   23.6648 C   0  0  2  0  0  0  0  0  0  0  0  0
    9.6084  -16.5892   22.6613 N   0  0  0  0  0  0  0  0  0  0  0  0
    9.5591  -16.1169   24.9833 C   0  0  0  0  0  0  0  0  0  0  0  0
    9.9659  -17.2710   25.1815 O   0  0  0  0  0  0  0  0  0  0  0  0
    6.4100  -14.7795   25.5549 C   0  0  0  0  0  0  0  0  0  0  0  0
    5.9858  -13.8001   26.4106 C   0  0  0  0  0  0  0  0  0  0  0  0
   10.9502  -14.8636   29.5386 C   0  0  0  0  0  0  0  0  0  0  0  0
   10.1273  -14.4731   28.3294 C   0  0  1  0  0  0  0  0  0  0  0  0
   10.5073  -13.1325   27.7952 C   0  0  0  0  0  0  0  0  0  0  0  0
   10.2687  -15.5586   27.2858 C   0  0  2  0  0  0  0  0  0  0  0  0
    9.5262  -15.2292   26.1015 N   0  0  0  0  0  0  0  0  0  0  0  0
    9.7159  -16.8316   27.8518 C   0  0  0  0  0  0  0  0  0  0  0  0
   10.3306  -17.5180   28.7040 O   0  0  0  0  0  0  0  0  0  0  0  0
    8.4792  -17.2726   27.4217 O   0  0  0  0  0  0  0  0  0  0  0  0
  2  1  1  6
  2  3  1  0
  3  4  1  0
  4  5  2  0
  6  7  2  0
  6  2  1  0
  8  4  1  0
  9 10  1  0
 10 11  2  0
 10 20  1  0
 11 12  1  0
 12 13  2  0
 13 14  1  0
 15 14  1  1
 15 17  1  0
 15 16  1  0
 16  6  1  0
 17 18  2  0
 19 13  1  0
 20 19  2  0
 22 21  1  1
 23 22  1  0
 24 22  1  0
 24 25  1  6
 25 17  1  0
 26 28  1  0
 26 24  1  0
 27 26  2  0
M  END
$$$$
