DYV.pdb
     RDKit          3D

 28 28  0  0  1  0  0  0  0  0999 V2000
    9.2690  -17.0937   19.3824 N   0  0  0  0  0  0  0  0  0  0  0  0
   10.1802  -17.4896   20.4353 C   0  0  1  0  0  0  0  0  0  0  0  0
   11.5862  -17.4629   19.9313 C   0  0  0  0  0  0  0  0  0  0  0  0
   11.6631  -17.8652   18.4877 C   0  0  0  0  0  0  0  0  0  0  0  0
   10.6334  -18.2156   17.8930 O   0  0  0  0  0  0  0  0  0  0  0  0
   10.0304  -16.6196   21.6040 C   0  0  0  0  0  0  0  0  0  0  0  0
   11.0742  -16.2382   22.2338 O   0  0  0  0  0  0  0  0  0  0  0  0
   12.8611  -17.8526   17.8085 O   0  0  0  0  0  0  0  0  0  0  0  0
    6.8388  -11.8619   28.0945 O   0  0  0  0  0  0  0  0  0  0  0  0
    6.9685  -12.5624   26.9053 C   0  0  0  0  0  0  0  0  0  0  0  0
    7.7011  -12.0523   25.8523 C   0  0  0  0  0  0  0  0  0  0  0  0
    7.8263  -12.7419   24.6879 C   0  0  0  0  0  0  0  0  0  0  0  0
    7.1987  -13.9769   24.5784 C   0  0  0  0  0  0  0  0  0  0  0  0
    7.3207  -14.7091   23.3131 C   0  0  0  0  0  0  0  0  0  0  0  0
    8.6122  -15.4790   23.2913 C   0  0  2  0  0  0  0  0  0  0  0  0
    8.7560  -16.2021   22.0365 N   0  0  0  0  0  0  0  0  0  0  0  0
    8.7809  -16.4247   24.3960 C   0  0  0  0  0  0  0  0  0  0  0  0
    8.0356  -17.4026   24.5539 O   0  0  0  0  0  0  0  0  0  0  0  0
    6.4615  -14.5081   25.6149 C   0  0  0  0  0  0  0  0  0  0  0  0
    6.3493  -13.7964   26.7776 C   0  0  0  0  0  0  0  0  0  0  0  0
   11.2180  -18.7845   24.9324 C   0  0  0  0  0  0  0  0  0  0  0  0
   11.3234  -17.9575   26.1962 C   0  0  1  0  0  0  0  0  0  0  0  0
   12.4987  -17.0383   26.1747 C   0  0  0  0  0  0  0  0  0  0  0  0
   10.0231  -17.2087   26.3857 C   0  0  2  0  0  0  0  0  0  0  0  0
    9.8342  -16.2400   25.3426 N   0  0  0  0  0  0  0  0  0  0  0  0
   10.0822  -16.4858   27.6974 C   0  0  0  0  0  0  0  0  0  0  0  0
   10.1751  -15.2368   27.7797 O   0  0  0  0  0  0  0  0  0  0  0  0
   10.0329  -17.2191   28.8673 O   0  0  0  0  0  0  0  0  0  0  0  0
  2  1  1  6
  2  3  1  0
  3  4  1  0
  4  5  2  0
  6  7  2  0
  6  2  1  0
  8  4  1  0
  9 10  1  0
 10 11  2  0
 10 20  1  0
 11 12  1  0
 12 13  2  0
 13 14  1  0
 15 14  1  6
 15 17  1  0
 15 16  1  0
 16  6  1  0
 17 18  2  0
 19 13  1  0
 20 19  2  0
 22 21  1  6
 23 22  1  0
 24 22  1  0
 24 25  1  6
 25 17  1  0
 26 28  1  0
 26 24  1  0
 27 26  2  0
M  END
$$$$
