DYV.pdb
     RDKit          3D

 28 28  0  0  1  0  0  0  0  0999 V2000
    8.8858  -18.0243   18.8689 N   0  0  0  0  0  0  0  0  0  0  0  0
   10.1153  -18.3435   19.5631 C   0  0  1  0  0  0  0  0  0  0  0  0
   11.2903  -17.9856   18.7127 C   0  0  0  0  0  0  0  0  0  0  0  0
   11.3056  -18.7702   17.4336 C   0  0  0  0  0  0  0  0  0  0  0  0
   10.8098  -19.9061   17.4049 O   0  0  0  0  0  0  0  0  0  0  0  0
   10.1768  -17.6513   20.8524 C   0  0  0  0  0  0  0  0  0  0  0  0
   11.2894  -17.1596   21.2422 O   0  0  0  0  0  0  0  0  0  0  0  0
   11.8626  -18.2500   16.2865 O   0  0  0  0  0  0  0  0  0  0  0  0
    7.5064  -12.1163   19.0196 O   0  0  0  0  0  0  0  0  0  0  0  0
    7.5916  -13.0722   20.0200 C   0  0  0  0  0  0  0  0  0  0  0  0
    6.9429  -14.2854   19.9058 C   0  0  0  0  0  0  0  0  0  0  0  0
    7.0289  -15.2202   20.8886 C   0  0  0  0  0  0  0  0  0  0  0  0
    7.7867  -14.9283   22.0163 C   0  0  0  0  0  0  0  0  0  0  0  0
    7.8611  -15.9327   23.0829 C   0  0  0  0  0  0  0  0  0  0  0  0
    9.0946  -16.7744   22.9064 C   0  0  2  0  0  0  0  0  0  0  0  0
    9.0294  -17.5231   21.6601 N   0  0  0  0  0  0  0  0  0  0  0  0
    9.3590  -17.7116   23.9996 C   0  0  0  0  0  0  0  0  0  0  0  0
    8.7441  -18.7810   24.1219 O   0  0  0  0  0  0  0  0  0  0  0  0
    8.4438  -13.7246   22.1546 C   0  0  0  0  0  0  0  0  0  0  0  0
    8.3432  -12.7987   21.1527 C   0  0  0  0  0  0  0  0  0  0  0  0
   12.4885  -19.4320   27.2869 C   0  0  0  0  0  0  0  0  0  0  0  0
   12.1930  -18.4064   26.2133 C   0  0  1  0  0  0  0  0  0  0  0  0
   12.9702  -18.6549   24.9638 C   0  0  0  0  0  0  0  0  0  0  0  0
   10.7020  -18.3978   25.9597 C   0  0  2  0  0  0  0  0  0  0  0  0
   10.3563  -17.4100   24.9763 N   0  0  0  0  0  0  0  0  0  0  0  0
   10.0077  -18.0516   27.2421 C   0  0  0  0  0  0  0  0  0  0  0  0
    9.6086  -16.8910   27.5052 O   0  0  0  0  0  0  0  0  0  0  0  0
    9.7954  -19.0466   28.1769 O   0  0  0  0  0  0  0  0  0  0  0  0
  2  1  1  6
  2  3  1  0
  3  4  1  0
  4  5  2  0
  6  7  2  0
  6  2  1  0
  8  4  1  0
  9 10  1  0
 10 11  2  0
 10 20  1  0
 11 12  1  0
 12 13  2  0
 13 14  1  0
 15 14  1  1
 15 17  1  0
 15 16  1  0
 16  6  1  0
 17 18  2  0
 19 13  1  0
 20 19  2  0
 22 21  1  1
 23 22  1  0
 24 22  1  0
 24 25  1  6
 25 17  1  0
 26 28  1  0
 26 24  1  0
 27 26  2  0
M  END
$$$$
