DYV.pdb
     RDKit          3D

 28 28  0  0  1  0  0  0  0  0999 V2000
    8.2225  -17.2442   18.9924 N   0  0  0  0  0  0  0  0  0  0  0  0
    9.5670  -17.1669   19.5233 C   0  0  1  0  0  0  0  0  0  0  0  0
   10.4788  -16.5440   18.5172 C   0  0  0  0  0  0  0  0  0  0  0  0
   10.4417  -17.2782   17.2090 C   0  0  0  0  0  0  0  0  0  0  0  0
    9.5741  -18.1422   17.0151 O   0  0  0  0  0  0  0  0  0  0  0  0
    9.5854  -16.4127   20.7787 C   0  0  0  0  0  0  0  0  0  0  0  0
   10.7079  -16.1367   21.3224 O   0  0  0  0  0  0  0  0  0  0  0  0
   11.3571  -17.0092   16.2159 O   0  0  0  0  0  0  0  0  0  0  0  0
    7.4843  -11.9148   27.8296 O   0  0  0  0  0  0  0  0  0  0  0  0
    7.3887  -12.5844   26.6196 C   0  0  0  0  0  0  0  0  0  0  0  0
    6.6513  -13.7456   26.5023 C   0  0  0  0  0  0  0  0  0  0  0  0
    6.5598  -14.3994   25.3143 C   0  0  0  0  0  0  0  0  0  0  0  0
    7.2268  -13.8727   24.2149 C   0  0  0  0  0  0  0  0  0  0  0  0
    7.1408  -14.5919   22.9393 C   0  0  0  0  0  0  0  0  0  0  0  0
    8.4178  -15.3463   22.6914 C   0  0  2  0  0  0  0  0  0  0  0  0
    8.3865  -15.9916   21.3873 N   0  0  0  0  0  0  0  0  0  0  0  0
    8.7404  -16.3546   23.7026 C   0  0  0  0  0  0  0  0  0  0  0  0
    8.1781  -17.4586   23.7437 O   0  0  0  0  0  0  0  0  0  0  0  0
    7.9697  -12.7151   24.3058 C   0  0  0  0  0  0  0  0  0  0  0  0
    8.0476  -12.0739   25.5116 C   0  0  0  0  0  0  0  0  0  0  0  0
   12.0257  -18.5065   26.3819 C   0  0  0  0  0  0  0  0  0  0  0  0
   11.6190  -17.4617   25.3646 C   0  0  1  0  0  0  0  0  0  0  0  0
   11.9005  -17.8951   23.9647 C   0  0  0  0  0  0  0  0  0  0  0  0
   10.1565  -17.1373   25.5730 C   0  0  2  0  0  0  0  0  0  0  0  0
    9.7354  -16.0852   24.6910 N   0  0  0  0  0  0  0  0  0  0  0  0
    9.9736  -16.6716   26.9859 C   0  0  0  0  0  0  0  0  0  0  0  0
   10.2837  -15.5158   27.3644 O   0  0  0  0  0  0  0  0  0  0  0  0
    9.4423  -17.5461   27.9143 O   0  0  0  0  0  0  0  0  0  0  0  0
  2  1  1  6
  2  3  1  0
  3  4  1  0
  4  5  2  0
  6  7  2  0
  6  2  1  0
  8  4  1  0
  9 10  1  0
 10 11  2  0
 10 20  1  0
 11 12  1  0
 12 13  2  0
 13 14  1  0
 15 14  1  1
 15 17  1  0
 15 16  1  0
 16  6  1  0
 17 18  2  0
 19 13  1  0
 20 19  2  0
 22 21  1  1
 23 22  1  0
 24 22  1  0
 24 25  1  6
 25 17  1  0
 26 28  1  0
 26 24  1  0
 27 26  2  0
M  END
$$$$
