DYV.pdb
     RDKit          3D

 28 28  0  0  1  0  0  0  0  0999 V2000
   11.9002  -17.0195   19.9454 N   0  0  0  0  0  0  0  0  0  0  0  0
   11.4216  -17.6590   21.1526 C   0  0  1  0  0  0  0  0  0  0  0  0
   12.4774  -18.5582   21.7079 C   0  0  0  0  0  0  0  0  0  0  0  0
   12.8432  -19.6443   20.7391 C   0  0  0  0  0  0  0  0  0  0  0  0
   14.0330  -19.9596   20.5919 O   0  0  0  0  0  0  0  0  0  0  0  0
   11.0172  -16.6587   22.1431 C   0  0  0  0  0  0  0  0  0  0  0  0
   11.7565  -15.6339   22.3301 O   0  0  0  0  0  0  0  0  0  0  0  0
   11.8779  -20.2998   20.0076 O   0  0  0  0  0  0  0  0  0  0  0  0
    7.2662  -12.9401   18.5983 O   0  0  0  0  0  0  0  0  0  0  0  0
    7.4263  -13.5563   19.8297 C   0  0  0  0  0  0  0  0  0  0  0  0
    7.9470  -12.8710   20.9090 C   0  0  0  0  0  0  0  0  0  0  0  0
    8.1025  -13.4785   22.1148 C   0  0  0  0  0  0  0  0  0  0  0  0
    7.7247  -14.8099   22.2396 C   0  0  0  0  0  0  0  0  0  0  0  0
    7.9120  -15.4670   23.5378 C   0  0  0  0  0  0  0  0  0  0  0  0
    9.3723  -15.7468   23.7623 C   0  0  2  0  0  0  0  0  0  0  0  0
    9.8298  -16.8144   22.8854 N   0  0  0  0  0  0  0  0  0  0  0  0
    9.7255  -16.0923   25.1404 C   0  0  0  0  0  0  0  0  0  0  0  0
   10.1339  -17.2183   25.4598 O   0  0  0  0  0  0  0  0  0  0  0  0
    7.2025  -15.5164   21.1775 C   0  0  0  0  0  0  0  0  0  0  0  0
    7.0550  -14.8845   19.9732 C   0  0  0  0  0  0  0  0  0  0  0  0
   10.4698  -14.5995   29.7745 C   0  0  0  0  0  0  0  0  0  0  0  0
    9.7850  -14.3028   28.4573 C   0  0  1  0  0  0  0  0  0  0  0  0
   10.1450  -12.9567   27.9229 C   0  0  0  0  0  0  0  0  0  0  0  0
   10.1265  -15.4080   27.4829 C   0  0  2  0  0  0  0  0  0  0  0  0
    9.6058  -15.1169   26.1767 N   0  0  0  0  0  0  0  0  0  0  0  0
    9.4970  -16.6777   27.9709 C   0  0  0  0  0  0  0  0  0  0  0  0
    8.3604  -17.0579   27.5981 O   0  0  0  0  0  0  0  0  0  0  0  0
   10.1916  -17.4662   28.8680 O   0  0  0  0  0  0  0  0  0  0  0  0
  2  1  1  6
  2  3  1  0
  3  4  1  0
  4  5  2  0
  6  7  2  0
  6  2  1  0
  8  4  1  0
  9 10  1  0
 10 11  2  0
 10 20  1  0
 11 12  1  0
 12 13  2  0
 13 14  1  0
 15 14  1  1
 15 17  1  0
 15 16  1  0
 16  6  1  0
 17 18  2  0
 19 13  1  0
 20 19  2  0
 22 21  1  1
 23 22  1  0
 24 22  1  0
 24 25  1  6
 25 17  1  0
 26 28  1  0
 26 24  1  0
 27 26  2  0
M  END
$$$$
