DYV.pdb
     RDKit          3D

 28 28  0  0  1  0  0  0  0  0999 V2000
    8.6294  -16.5753   19.7814 N   0  0  0  0  0  0  0  0  0  0  0  0
    7.3195  -16.1666   20.2424 C   0  0  1  0  0  0  0  0  0  0  0  0
    6.2613  -16.9428   19.5286 C   0  0  0  0  0  0  0  0  0  0  0  0
    6.8478  -17.8375   18.4762 C   0  0  0  0  0  0  0  0  0  0  0  0
    8.0788  -17.9128   18.3519 O   0  0  0  0  0  0  0  0  0  0  0  0
    7.2031  -16.3407   21.6920 C   0  0  0  0  0  0  0  0  0  0  0  0
    6.0931  -16.0715   22.2639 O   0  0  0  0  0  0  0  0  0  0  0  0
    6.0406  -18.5791   17.6425 O   0  0  0  0  0  0  0  0  0  0  0  0
    8.2582  -18.7526   29.8812 O   0  0  0  0  0  0  0  0  0  0  0  0
    8.4440  -18.6010   28.5159 C   0  0  0  0  0  0  0  0  0  0  0  0
    9.6195  -18.0853   28.0080 C   0  0  0  0  0  0  0  0  0  0  0  0
    9.7982  -17.9382   26.6688 C   0  0  0  0  0  0  0  0  0  0  0  0
    8.7684  -18.3193   25.8170 C   0  0  0  0  0  0  0  0  0  0  0  0
    8.9583  -18.1411   24.3734 C   0  0  0  0  0  0  0  0  0  0  0  0
    8.1623  -16.9580   23.8961 C   0  0  2  0  0  0  0  0  0  0  0  0
    8.2950  -16.7991   22.4555 N   0  0  0  0  0  0  0  0  0  0  0  0
    8.5061  -15.6882   24.5385 C   0  0  0  0  0  0  0  0  0  0  0  0
    9.4935  -15.0186   24.2018 O   0  0  0  0  0  0  0  0  0  0  0  0
    7.5852  -18.8367   26.2989 C   0  0  0  0  0  0  0  0  0  0  0  0
    7.4275  -18.9758   27.6505 C   0  0  0  0  0  0  0  0  0  0  0  0
    7.0847  -11.8301   27.1396 C   0  0  0  0  0  0  0  0  0  0  0  0
    6.7197  -13.1084   26.4152 C   0  0  1  0  0  0  0  0  0  0  0  0
    5.9542  -12.8492   25.1607 C   0  0  0  0  0  0  0  0  0  0  0  0
    7.9895  -13.8867   26.1523 C   0  0  2  0  0  0  0  0  0  0  0  0
    7.6926  -15.1764   25.5949 N   0  0  0  0  0  0  0  0  0  0  0  0
    8.6982  -14.0875   27.4577 C   0  0  0  0  0  0  0  0  0  0  0  0
    8.6082  -15.1487   28.1219 O   0  0  0  0  0  0  0  0  0  0  0  0
    9.4841  -13.0660   27.9555 O   0  0  0  0  0  0  0  0  0  0  0  0
  2  1  1  6
  2  3  1  0
  3  4  1  0
  4  5  2  0
  6  7  2  0
  6  2  1  0
  8  4  1  0
  9 10  1  0
 10 11  2  0
 10 20  1  0
 11 12  1  0
 12 13  2  0
 13 14  1  0
 15 14  1  1
 15 17  1  0
 15 16  1  0
 16  6  1  0
 17 18  2  0
 19 13  1  0
 20 19  2  0
 22 21  1  6
 23 22  1  0
 24 22  1  0
 24 25  1  1
 25 17  1  0
 26 28  1  0
 26 24  1  0
 27 26  2  0
M  END
$$$$
