DYV.pdb
     RDKit          3D

 28 28  0  0  1  0  0  0  0  0999 V2000
    7.9941  -19.2695   20.5703 N   0  0  0  0  0  0  0  0  0  0  0  0
    8.7969  -18.1011   20.8633 C   0  0  1  0  0  0  0  0  0  0  0  0
    8.4114  -16.9761   19.9591 C   0  0  0  0  0  0  0  0  0  0  0  0
    9.1163  -17.0638   18.6373 C   0  0  0  0  0  0  0  0  0  0  0  0
    9.9174  -17.9867   18.4295 O   0  0  0  0  0  0  0  0  0  0  0  0
    8.6517  -17.7120   22.2679 C   0  0  0  0  0  0  0  0  0  0  0  0
    7.4941  -17.7470   22.8068 O   0  0  0  0  0  0  0  0  0  0  0  0
    8.8892  -16.1342   17.6469 O   0  0  0  0  0  0  0  0  0  0  0  0
   10.0628  -17.2633   30.6967 O   0  0  0  0  0  0  0  0  0  0  0  0
   10.2489  -17.3966   29.3295 C   0  0  0  0  0  0  0  0  0  0  0  0
   11.2330  -16.6876   28.6703 C   0  0  0  0  0  0  0  0  0  0  0  0
   11.4126  -16.8209   27.3297 C   0  0  0  0  0  0  0  0  0  0  0  0
   10.5813  -17.6895   26.6328 C   0  0  0  0  0  0  0  0  0  0  0  0
   10.7663  -17.8158   25.1831 C   0  0  0  0  0  0  0  0  0  0  0  0
    9.6459  -17.1178   24.4628 C   0  0  2  0  0  0  0  0  0  0  0  0
    9.7679  -17.3034   23.0245 N   0  0  0  0  0  0  0  0  0  0  0  0
    9.5376  -15.6845   24.7401 C   0  0  0  0  0  0  0  0  0  0  0  0
   10.3668  -14.8622   24.3242 O   0  0  0  0  0  0  0  0  0  0  0  0
    9.5913  -18.4085   27.2675 C   0  0  0  0  0  0  0  0  0  0  0  0
    9.4288  -18.2586   28.6175 C   0  0  0  0  0  0  0  0  0  0  0  0
    6.9450  -11.9339   26.5721 C   0  0  0  0  0  0  0  0  0  0  0  0
    6.9414  -13.3779   26.1175 C   0  0  1  0  0  0  0  0  0  0  0  0
    6.0179  -13.6070   24.9679 C   0  0  0  0  0  0  0  0  0  0  0  0
    8.3626  -13.7781   25.7898 C   0  0  2  0  0  0  0  0  0  0  0  0
    8.4473  -15.1852   25.5157 N   0  0  0  0  0  0  0  0  0  0  0  0
    9.2236  -13.4753   26.9787 C   0  0  0  0  0  0  0  0  0  0  0  0
    9.6167  -14.3624   27.7749 O   0  0  0  0  0  0  0  0  0  0  0  0
    9.6035  -12.1677   27.2130 O   0  0  0  0  0  0  0  0  0  0  0  0
  2  1  1  6
  2  3  1  0
  3  4  1  0
  4  5  2  0
  6  7  2  0
  6  2  1  0
  8  4  1  0
  9 10  1  0
 10 11  2  0
 10 20  1  0
 11 12  1  0
 12 13  2  0
 13 14  1  0
 15 14  1  1
 15 17  1  0
 15 16  1  0
 16  6  1  0
 17 18  2  0
 19 13  1  0
 20 19  2  0
 22 21  1  6
 23 22  1  0
 24 22  1  0
 24 25  1  1
 25 17  1  0
 26 28  1  0
 26 24  1  0
 27 26  2  0
M  END
$$$$
