DYV.pdb
     RDKit          3D

 28 28  0  0  1  0  0  0  0  0999 V2000
   12.0105  -16.5711   19.8590 N   0  0  0  0  0  0  0  0  0  0  0  0
   11.5234  -17.3277   20.9930 C   0  0  1  0  0  0  0  0  0  0  0  0
   12.6155  -18.1867   21.5416 C   0  0  0  0  0  0  0  0  0  0  0  0
   13.1317  -19.1484   20.5117 C   0  0  0  0  0  0  0  0  0  0  0  0
   14.3538  -19.2641   20.3386 O   0  0  0  0  0  0  0  0  0  0  0  0
   10.9981  -16.4320   22.0260 C   0  0  0  0  0  0  0  0  0  0  0  0
   11.6914  -15.4206   22.3839 O   0  0  0  0  0  0  0  0  0  0  0  0
   12.2698  -19.9078   19.7521 O   0  0  0  0  0  0  0  0  0  0  0  0
    5.8022  -11.8027   27.0625 O   0  0  0  0  0  0  0  0  0  0  0  0
    6.2715  -12.7398   26.1551 C   0  0  0  0  0  0  0  0  0  0  0  0
    5.9458  -14.0759   26.2754 C   0  0  0  0  0  0  0  0  0  0  0  0
    6.4077  -14.9918   25.3838 C   0  0  0  0  0  0  0  0  0  0  0  0
    7.2184  -14.5538   24.3437 C   0  0  0  0  0  0  0  0  0  0  0  0
    7.7302  -15.5486   23.3948 C   0  0  0  0  0  0  0  0  0  0  0  0
    9.2086  -15.7342   23.5975 C   0  0  2  0  0  0  0  0  0  0  0  0
    9.7450  -16.6731   22.6235 N   0  0  0  0  0  0  0  0  0  0  0  0
    9.5922  -16.1827   24.9373 C   0  0  0  0  0  0  0  0  0  0  0  0
    9.8598  -17.3662   25.1910 O   0  0  0  0  0  0  0  0  0  0  0  0
    7.5584  -13.2255   24.2016 C   0  0  0  0  0  0  0  0  0  0  0  0
    7.0819  -12.3213   25.1107 C   0  0  0  0  0  0  0  0  0  0  0  0
   10.5867  -15.1023   29.6329 C   0  0  0  0  0  0  0  0  0  0  0  0
    9.9412  -14.6339   28.3461 C   0  0  1  0  0  0  0  0  0  0  0  0
   10.3954  -13.2689   27.9493 C   0  0  0  0  0  0  0  0  0  0  0  0
   10.2236  -15.6589   27.2704 C   0  0  2  0  0  0  0  0  0  0  0  0
    9.6697  -15.2451   26.0118 N   0  0  0  0  0  0  0  0  0  0  0  0
    9.5777  -16.9512   27.6694 C   0  0  0  0  0  0  0  0  0  0  0  0
    8.3910  -17.2352   27.3755 O   0  0  0  0  0  0  0  0  0  0  0  0
   10.3138  -17.8715   28.3906 O   0  0  0  0  0  0  0  0  0  0  0  0
  2  1  1  6
  2  3  1  0
  3  4  1  0
  4  5  2  0
  6  7  2  0
  6  2  1  0
  8  4  1  0
  9 10  1  0
 10 11  2  0
 10 20  1  0
 11 12  1  0
 12 13  2  0
 13 14  1  0
 15 14  1  1
 15 17  1  0
 15 16  1  0
 16  6  1  0
 17 18  2  0
 19 13  1  0
 20 19  2  0
 22 21  1  1
 23 22  1  0
 24 22  1  0
 24 25  1  6
 25 17  1  0
 26 28  1  0
 26 24  1  0
 27 26  2  0
M  END
$$$$
