DYV.pdb
     RDKit          3D

 28 28  0  0  1  0  0  0  0  0999 V2000
   11.1074  -17.9655   20.6659 N   0  0  0  0  0  0  0  0  0  0  0  0
   12.1060  -17.2628   21.4433 C   0  0  1  0  0  0  0  0  0  0  0  0
   13.0014  -16.4811   20.5385 C   0  0  0  0  0  0  0  0  0  0  0  0
   13.8576  -17.3812   19.6965 C   0  0  0  0  0  0  0  0  0  0  0  0
   13.6788  -17.4269   18.4707 O   0  0  0  0  0  0  0  0  0  0  0  0
   11.4713  -16.3863   22.4304 C   0  0  0  0  0  0  0  0  0  0  0  0
   12.1406  -15.4159   22.9224 O   0  0  0  0  0  0  0  0  0  0  0  0
   14.8419  -18.1605   20.2625 O   0  0  0  0  0  0  0  0  0  0  0  0
    7.2875  -13.1313   18.4639 O   0  0  0  0  0  0  0  0  0  0  0  0
    7.4730  -13.7415   19.6947 C   0  0  0  0  0  0  0  0  0  0  0  0
    7.1469  -15.0686   19.8903 C   0  0  0  0  0  0  0  0  0  0  0  0
    7.3303  -15.6634   21.0985 C   0  0  0  0  0  0  0  0  0  0  0  0
    7.8551  -14.9049   22.1378 C   0  0  0  0  0  0  0  0  0  0  0  0
    8.0335  -15.5459   23.4452 C   0  0  0  0  0  0  0  0  0  0  0  0
    9.4993  -15.6712   23.7566 C   0  0  2  0  0  0  0  0  0  0  0  0
   10.1400  -16.6013   22.8387 N   0  0  0  0  0  0  0  0  0  0  0  0
    9.8015  -16.0868   25.1274 C   0  0  0  0  0  0  0  0  0  0  0  0
   10.3400  -17.1721   25.3898 O   0  0  0  0  0  0  0  0  0  0  0  0
    8.1886  -13.5782   21.9684 C   0  0  0  0  0  0  0  0  0  0  0  0
    7.9956  -13.0004   20.7436 C   0  0  0  0  0  0  0  0  0  0  0  0
   10.3450  -14.6933   29.8168 C   0  0  0  0  0  0  0  0  0  0  0  0
    9.6015  -14.4525   28.5202 C   0  0  1  0  0  0  0  0  0  0  0  0
    9.7916  -13.0638   28.0082 C   0  0  0  0  0  0  0  0  0  0  0  0
   10.0467  -15.4916   27.5154 C   0  0  2  0  0  0  0  0  0  0  0  0
    9.4758  -15.2313   26.2236 N   0  0  0  0  0  0  0  0  0  0  0  0
    9.5689  -16.8335   27.9819 C   0  0  0  0  0  0  0  0  0  0  0  0
    8.4656  -17.3195   27.6327 O   0  0  0  0  0  0  0  0  0  0  0  0
   10.3717  -17.5705   28.8312 O   0  0  0  0  0  0  0  0  0  0  0  0
  2  1  1  6
  2  3  1  0
  3  4  1  0
  4  5  2  0
  6  7  2  0
  6  2  1  0
  8  4  1  0
  9 10  1  0
 10 11  2  0
 10 20  1  0
 11 12  1  0
 12 13  2  0
 13 14  1  0
 15 14  1  1
 15 17  1  0
 15 16  1  0
 16  6  1  0
 17 18  2  0
 19 13  1  0
 20 19  2  0
 22 21  1  1
 23 22  1  0
 24 22  1  0
 24 25  1  6
 25 17  1  0
 26 28  1  0
 26 24  1  0
 27 26  2  0
M  END
$$$$
