DYV.pdb
     RDKit          3D

 28 28  0  0  1  0  0  0  0  0999 V2000
   11.1233  -19.4573   20.0475 N   0  0  0  0  0  0  0  0  0  0  0  0
   10.2406  -18.5428   20.7403 C   0  0  1  0  0  0  0  0  0  0  0  0
    8.8461  -19.0783   20.7387 C   0  0  0  0  0  0  0  0  0  0  0  0
    8.3246  -19.2567   19.3429 C   0  0  0  0  0  0  0  0  0  0  0  0
    9.0743  -19.0512   18.3772 O   0  0  0  0  0  0  0  0  0  0  0  0
   10.7066  -18.3105   22.1093 C   0  0  0  0  0  0  0  0  0  0  0  0
   11.3386  -19.2391   22.7175 O   0  0  0  0  0  0  0  0  0  0  0  0
    7.0236  -19.6458   19.1138 O   0  0  0  0  0  0  0  0  0  0  0  0
   16.5420  -16.3937   21.2784 O   0  0  0  0  0  0  0  0  0  0  0  0
   15.3731  -16.1957   21.9969 C   0  0  0  0  0  0  0  0  0  0  0  0
   15.2264  -16.6975   23.2746 C   0  0  0  0  0  0  0  0  0  0  0  0
   14.0790  -16.5012   23.9760 C   0  0  0  0  0  0  0  0  0  0  0  0
   13.0515  -15.7817   23.3780 C   0  0  0  0  0  0  0  0  0  0  0  0
   11.8078  -15.5887   24.1315 C   0  0  0  0  0  0  0  0  0  0  0  0
   10.9881  -16.8488   24.0951 C   0  0  2  0  0  0  0  0  0  0  0  0
   10.4669  -17.0820   22.7564 N   0  0  0  0  0  0  0  0  0  0  0  0
    9.8720  -16.8818   25.0419 C   0  0  0  0  0  0  0  0  0  0  0  0
    8.9801  -16.0208   25.0487 O   0  0  0  0  0  0  0  0  0  0  0  0
   13.1729  -15.2704   22.1037 C   0  0  0  0  0  0  0  0  0  0  0  0
   14.3369  -15.4802   21.4164 C   0  0  0  0  0  0  0  0  0  0  0  0
    7.2104  -17.1719   24.9208 C   0  0  0  0  0  0  0  0  0  0  0  0
    7.4018  -18.3810   25.8115 C   0  0  1  0  0  0  0  0  0  0  0  0
    7.5990  -19.6356   25.0279 C   0  0  0  0  0  0  0  0  0  0  0  0
    8.5612  -18.1080   26.7434 C   0  0  2  0  0  0  0  0  0  0  0  0
    9.7803  -17.9324   26.0049 N   0  0  0  0  0  0  0  0  0  0  0  0
    8.7244  -19.2891   27.6515 C   0  0  0  0  0  0  0  0  0  0  0  0
    9.6893  -20.0866   27.5602 O   0  0  0  0  0  0  0  0  0  0  0  0
    7.7768  -19.5146   28.6314 O   0  0  0  0  0  0  0  0  0  0  0  0
  2  1  1  1
  2  3  1  0
  3  4  1  0
  4  5  2  0
  6  7  2  0
  6  2  1  0
  8  4  1  0
  9 10  1  0
 10 11  2  0
 10 20  1  0
 11 12  1  0
 12 13  2  0
 13 14  1  0
 15 14  1  6
 15 17  1  0
 15 16  1  0
 16  6  1  0
 17 18  2  0
 19 13  1  0
 20 19  2  0
 22 21  1  6
 23 22  1  0
 24 22  1  0
 24 25  1  6
 25 17  1  0
 26 28  1  0
 26 24  1  0
 27 26  2  0
M  END
$$$$
