DYV.pdb
     RDKit          3D

 28 28  0  0  1  0  0  0  0  0999 V2000
    9.5092  -17.9208   20.6048 N   0  0  0  0  0  0  0  0  0  0  0  0
    8.3922  -17.0010   20.5644 C   0  0  1  0  0  0  0  0  0  0  0  0
    7.3666  -17.4847   19.5919 C   0  0  0  0  0  0  0  0  0  0  0  0
    7.9348  -17.6150   18.2091 C   0  0  0  0  0  0  0  0  0  0  0  0
    7.4516  -16.9485   17.2823 O   0  0  0  0  0  0  0  0  0  0  0  0
    7.8080  -16.8370   21.8974 C   0  0  0  0  0  0  0  0  0  0  0  0
    6.6533  -16.3022   22.0092 O   0  0  0  0  0  0  0  0  0  0  0  0
    8.9870  -18.4646   17.9495 O   0  0  0  0  0  0  0  0  0  0  0  0
    5.4563  -22.7497   23.1908 O   0  0  0  0  0  0  0  0  0  0  0  0
    6.1264  -21.6492   23.7021 C   0  0  0  0  0  0  0  0  0  0  0  0
    5.4690  -20.7020   24.4614 C   0  0  0  0  0  0  0  0  0  0  0  0
    6.1294  -19.6244   24.9611 C   0  0  0  0  0  0  0  0  0  0  0  0
    7.4863  -19.4947   24.6909 C   0  0  0  0  0  0  0  0  0  0  0  0
    8.1908  -18.3202   25.2163 C   0  0  0  0  0  0  0  0  0  0  0  0
    7.8902  -17.1200   24.3616 C   0  0  2  0  0  0  0  0  0  0  0  0
    8.5016  -17.2606   23.0484 N   0  0  0  0  0  0  0  0  0  0  0  0
    8.3071  -15.8391   24.9349 C   0  0  0  0  0  0  0  0  0  0  0  0
    9.4747  -15.4284   24.8662 O   0  0  0  0  0  0  0  0  0  0  0  0
    8.1657  -20.4263   23.9354 C   0  0  0  0  0  0  0  0  0  0  0  0
    7.4807  -21.5030   23.4428 C   0  0  0  0  0  0  0  0  0  0  0  0
    7.1127  -11.6401   27.2008 C   0  0  0  0  0  0  0  0  0  0  0  0
    6.6040  -12.8833   26.5026 C   0  0  1  0  0  0  0  0  0  0  0  0
    5.8081  -12.5614   25.2820 C   0  0  0  0  0  0  0  0  0  0  0  0
    7.7873  -13.7714   26.1882 C   0  0  2  0  0  0  0  0  0  0  0  0
    7.3558  -15.0102   25.6040 N   0  0  0  0  0  0  0  0  0  0  0  0
    8.5014  -14.0765   27.4702 C   0  0  0  0  0  0  0  0  0  0  0  0
    8.3368  -15.1502   28.0991 O   0  0  0  0  0  0  0  0  0  0  0  0
    9.3780  -13.1413   27.9858 O   0  0  0  0  0  0  0  0  0  0  0  0
  2  1  1  1
  2  3  1  0
  3  4  1  0
  4  5  2  0
  6  7  2  0
  6  2  1  0
  8  4  1  0
  9 10  1  0
 10 11  2  0
 10 20  1  0
 11 12  1  0
 12 13  2  0
 13 14  1  0
 15 14  1  1
 15 17  1  0
 15 16  1  0
 16  6  1  0
 17 18  2  0
 19 13  1  0
 20 19  2  0
 22 21  1  6
 23 22  1  0
 24 22  1  0
 24 25  1  1
 25 17  1  0
 26 28  1  0
 26 24  1  0
 27 26  2  0
M  END
$$$$
