DYV.pdb
     RDKit          3D

 28 28  0  0  1  0  0  0  0  0999 V2000
   11.8057  -16.7097   19.8665 N   0  0  0  0  0  0  0  0  0  0  0  0
   11.2539  -17.4399   20.9879 C   0  0  1  0  0  0  0  0  0  0  0  0
   12.2688  -18.3955   21.5249 C   0  0  0  0  0  0  0  0  0  0  0  0
   12.5066  -19.5371   20.5803 C   0  0  0  0  0  0  0  0  0  0  0  0
   11.9132  -19.5666   19.4923 O   0  0  0  0  0  0  0  0  0  0  0  0
   10.8024  -16.5192   22.0337 C   0  0  0  0  0  0  0  0  0  0  0  0
   11.5836  -15.5855   22.4204 O   0  0  0  0  0  0  0  0  0  0  0  0
   13.3749  -20.5568   20.9010 O   0  0  0  0  0  0  0  0  0  0  0  0
    5.9436  -11.3750   26.8850 O   0  0  0  0  0  0  0  0  0  0  0  0
    6.3373  -12.4050   26.0450 C   0  0  0  0  0  0  0  0  0  0  0  0
    5.9251  -13.7040   26.2660 C   0  0  0  0  0  0  0  0  0  0  0  0
    6.3131  -14.7113   25.4402 C   0  0  0  0  0  0  0  0  0  0  0  0
    7.1370  -14.4056   24.3637 C   0  0  0  0  0  0  0  0  0  0  0  0
    7.5687  -15.4990   23.4862 C   0  0  0  0  0  0  0  0  0  0  0  0
    9.0588  -15.6747   23.5848 C   0  0  2  0  0  0  0  0  0  0  0  0
    9.5246  -16.6522   22.6123 N   0  0  0  0  0  0  0  0  0  0  0  0
    9.5435  -16.0678   24.9091 C   0  0  0  0  0  0  0  0  0  0  0  0
    9.7911  -17.2461   25.2039 O   0  0  0  0  0  0  0  0  0  0  0  0
    7.5624  -13.1171   24.1214 C   0  0  0  0  0  0  0  0  0  0  0  0
    7.1594  -12.1192   24.9657 C   0  0  0  0  0  0  0  0  0  0  0  0
   10.9079  -14.7704   29.4593 C   0  0  0  0  0  0  0  0  0  0  0  0
   10.2563  -14.3199   28.1692 C   0  0  1  0  0  0  0  0  0  0  0  0
   10.8933  -13.0904   27.6127 C   0  0  0  0  0  0  0  0  0  0  0  0
   10.2953  -15.4704   27.1883 C   0  0  2  0  0  0  0  0  0  0  0  0
    9.7484  -15.0793   25.9194 N   0  0  0  0  0  0  0  0  0  0  0  0
    9.4611  -16.5875   27.7387 C   0  0  0  0  0  0  0  0  0  0  0  0
    8.2239  -16.6694   27.5439 O   0  0  0  0  0  0  0  0  0  0  0  0
   10.0737  -17.5704   28.4921 O   0  0  0  0  0  0  0  0  0  0  0  0
  2  1  1  6
  2  3  1  0
  3  4  1  0
  4  5  2  0
  6  7  2  0
  6  2  1  0
  8  4  1  0
  9 10  1  0
 10 11  2  0
 10 20  1  0
 11 12  1  0
 12 13  2  0
 13 14  1  0
 15 14  1  1
 15 17  1  0
 15 16  1  0
 16  6  1  0
 17 18  2  0
 19 13  1  0
 20 19  2  0
 22 21  1  1
 23 22  1  0
 24 22  1  0
 24 25  1  6
 25 17  1  0
 26 28  1  0
 26 24  1  0
 27 26  2  0
M  END
$$$$
