DYV.pdb
     RDKit          3D

 28 28  0  0  1  0  0  0  0  0999 V2000
   10.2295  -17.0236   18.8050 N   0  0  0  0  0  0  0  0  0  0  0  0
    9.0956  -17.2862   19.6656 C   0  0  1  0  0  0  0  0  0  0  0  0
    8.9709  -18.7542   19.9132 C   0  0  0  0  0  0  0  0  0  0  0  0
    8.6436  -19.5008   18.6533 C   0  0  0  0  0  0  0  0  0  0  0  0
    7.4981  -19.4383   18.1835 O   0  0  0  0  0  0  0  0  0  0  0  0
    9.2237  -16.5552   20.9284 C   0  0  0  0  0  0  0  0  0  0  0  0
   10.3757  -16.4442   21.4690 O   0  0  0  0  0  0  0  0  0  0  0  0
    9.5956  -20.2574   18.0070 O   0  0  0  0  0  0  0  0  0  0  0  0
    7.5953  -11.7902   27.9832 O   0  0  0  0  0  0  0  0  0  0  0  0
    7.4737  -12.4283   26.7587 C   0  0  0  0  0  0  0  0  0  0  0  0
    8.1453  -11.9682   25.6437 C   0  0  0  0  0  0  0  0  0  0  0  0
    8.0237  -12.5966   24.4447 C   0  0  0  0  0  0  0  0  0  0  0  0
    7.2057  -13.7170   24.3637 C   0  0  0  0  0  0  0  0  0  0  0  0
    7.0625  -14.3807   23.0633 C   0  0  0  0  0  0  0  0  0  0  0  0
    8.2391  -15.2847   22.8192 C   0  0  2  0  0  0  0  0  0  0  0  0
    8.0975  -15.9773   21.5471 N   0  0  0  0  0  0  0  0  0  0  0  0
    8.4762  -16.2790   23.8673 C   0  0  0  0  0  0  0  0  0  0  0  0
    7.7144  -17.2381   24.0584 O   0  0  0  0  0  0  0  0  0  0  0  0
    6.5244  -14.1963   25.4619 C   0  0  0  0  0  0  0  0  0  0  0  0
    6.6618  -13.5479   26.6585 C   0  0  0  0  0  0  0  0  0  0  0  0
   12.2901  -16.9435   25.0734 C   0  0  0  0  0  0  0  0  0  0  0  0
   11.1765  -17.9572   25.2289 C   0  0  1  0  0  0  0  0  0  0  0  0
   11.5294  -19.0425   26.1904 C   0  0  0  0  0  0  0  0  0  0  0  0
    9.9188  -17.2246   25.6396 C   0  0  2  0  0  0  0  0  0  0  0  0
    9.6189  -16.1663   24.7164 N   0  0  0  0  0  0  0  0  0  0  0  0
   10.1452  -16.6215   26.9930 C   0  0  0  0  0  0  0  0  0  0  0  0
   10.3849  -15.4008   27.1599 O   0  0  0  0  0  0  0  0  0  0  0  0
   10.0891  -17.4379   28.1063 O   0  0  0  0  0  0  0  0  0  0  0  0
  2  1  1  6
  2  3  1  0
  3  4  1  0
  4  5  2  0
  6  7  2  0
  6  2  1  0
  8  4  1  0
  9 10  1  0
 10 11  2  0
 10 20  1  0
 11 12  1  0
 12 13  2  0
 13 14  1  0
 15 14  1  1
 15 17  1  0
 15 16  1  0
 16  6  1  0
 17 18  2  0
 19 13  1  0
 20 19  2  0
 22 21  1  1
 23 22  1  0
 24 22  1  0
 24 25  1  6
 25 17  1  0
 26 28  1  0
 26 24  1  0
 27 26  2  0
M  END
$$$$
