DYV.pdb
     RDKit          3D

 28 28  0  0  1  0  0  0  0  0999 V2000
    8.4869  -18.5992   20.0512 N   0  0  0  0  0  0  0  0  0  0  0  0
    8.4514  -17.1872   20.3683 C   0  0  1  0  0  0  0  0  0  0  0  0
    7.7060  -16.4439   19.3083 C   0  0  0  0  0  0  0  0  0  0  0  0
    8.5749  -16.1600   18.1181 C   0  0  0  0  0  0  0  0  0  0  0  0
    9.7454  -16.5680   18.1021 O   0  0  0  0  0  0  0  0  0  0  0  0
    7.8437  -16.9668   21.6826 C   0  0  0  0  0  0  0  0  0  0  0  0
    6.6605  -16.4901   21.7491 O   0  0  0  0  0  0  0  0  0  0  0  0
    8.0943  -15.4517   17.0392 O   0  0  0  0  0  0  0  0  0  0  0  0
    5.0558  -22.5794   22.9979 O   0  0  0  0  0  0  0  0  0  0  0  0
    5.8100  -21.5324   23.5045 C   0  0  0  0  0  0  0  0  0  0  0  0
    5.2877  -20.6643   24.4423 C   0  0  0  0  0  0  0  0  0  0  0  0
    6.0301  -19.6389   24.9368 C   0  0  0  0  0  0  0  0  0  0  0  0
    7.3320  -19.4814   24.4770 C   0  0  0  0  0  0  0  0  0  0  0  0
    8.1232  -18.3620   24.9993 C   0  0  0  0  0  0  0  0  0  0  0  0
    7.8923  -17.1373   24.1580 C   0  0  2  0  0  0  0  0  0  0  0  0
    8.5461  -17.2737   22.8649 N   0  0  0  0  0  0  0  0  0  0  0  0
    8.3290  -15.8814   24.7706 C   0  0  0  0  0  0  0  0  0  0  0  0
    9.4959  -15.4715   24.6875 O   0  0  0  0  0  0  0  0  0  0  0  0
    7.8768  -20.3343   23.5411 C   0  0  0  0  0  0  0  0  0  0  0  0
    7.1110  -21.3594   23.0574 C   0  0  0  0  0  0  0  0  0  0  0  0
    7.1666  -11.7190   27.1205 C   0  0  0  0  0  0  0  0  0  0  0  0
    6.6479  -12.9772   26.4574 C   0  0  1  0  0  0  0  0  0  0  0  0
    5.7558  -12.6797   25.2986 C   0  0  0  0  0  0  0  0  0  0  0  0
    7.8324  -13.8274   26.0555 C   0  0  2  0  0  0  0  0  0  0  0  0
    7.3987  -15.0772   25.4970 N   0  0  0  0  0  0  0  0  0  0  0  0
    8.6447  -14.1140   27.2822 C   0  0  0  0  0  0  0  0  0  0  0  0
    9.3799  -13.2536   27.8250 O   0  0  0  0  0  0  0  0  0  0  0  0
    8.5859  -15.3753   27.8430 O   0  0  0  0  0  0  0  0  0  0  0  0
  2  1  1  6
  2  3  1  0
  3  4  1  0
  4  5  2  0
  6  7  2  0
  6  2  1  0
  8  4  1  0
  9 10  1  0
 10 11  2  0
 10 20  1  0
 11 12  1  0
 12 13  2  0
 13 14  1  0
 15 14  1  1
 15 17  1  0
 15 16  1  0
 16  6  1  0
 17 18  2  0
 19 13  1  0
 20 19  2  0
 22 21  1  6
 23 22  1  0
 24 22  1  0
 24 25  1  1
 25 17  1  0
 26 28  1  0
 26 24  1  0
 27 26  2  0
M  END
$$$$
