DYV.pdb
     RDKit          3D

 28 28  0  0  1  0  0  0  0  0999 V2000
   11.9082  -16.6009   19.8070 N   0  0  0  0  0  0  0  0  0  0  0  0
   11.5008  -17.3479   20.9782 C   0  0  1  0  0  0  0  0  0  0  0  0
   12.6534  -18.1372   21.5074 C   0  0  0  0  0  0  0  0  0  0  0  0
   13.1998  -19.0778   20.4736 C   0  0  0  0  0  0  0  0  0  0  0  0
   14.4166  -19.0893   20.2369 O   0  0  0  0  0  0  0  0  0  0  0  0
   10.9701  -16.4499   22.0064 C   0  0  0  0  0  0  0  0  0  0  0  0
   11.5759  -15.3511   22.2459 O   0  0  0  0  0  0  0  0  0  0  0  0
   12.3713  -19.9317   19.7799 O   0  0  0  0  0  0  0  0  0  0  0  0
    5.8391  -11.6056   26.7878 O   0  0  0  0  0  0  0  0  0  0  0  0
    6.3289  -12.6161   25.9751 C   0  0  0  0  0  0  0  0  0  0  0  0
    7.1099  -12.3309   24.8730 C   0  0  0  0  0  0  0  0  0  0  0  0
    7.5885  -13.3243   24.0785 C   0  0  0  0  0  0  0  0  0  0  0  0
    7.2742  -14.6392   24.3996 C   0  0  0  0  0  0  0  0  0  0  0  0
    7.7771  -15.7069   23.5284 C   0  0  0  0  0  0  0  0  0  0  0  0
    9.2631  -15.8535   23.7062 C   0  0  2  0  0  0  0  0  0  0  0  0
    9.8065  -16.7836   22.7276 N   0  0  0  0  0  0  0  0  0  0  0  0
    9.6812  -16.2848   25.0413 C   0  0  0  0  0  0  0  0  0  0  0  0
    9.8383  -17.4788   25.3355 O   0  0  0  0  0  0  0  0  0  0  0  0
    6.4963  -14.9505   25.4942 C   0  0  0  0  0  0  0  0  0  0  0  0
    6.0256  -13.9344   26.2798 C   0  0  0  0  0  0  0  0  0  0  0  0
   11.3120  -13.4318   27.5981 C   0  0  0  0  0  0  0  0  0  0  0  0
   10.5969  -14.5805   28.2771 C   0  0  1  0  0  0  0  0  0  0  0  0
    9.2511  -14.1867   28.7876 C   0  0  0  0  0  0  0  0  0  0  0  0
   10.5169  -15.7347   27.3030 C   0  0  2  0  0  0  0  0  0  0  0  0
    9.9246  -15.3173   26.0632 N   0  0  0  0  0  0  0  0  0  0  0  0
    9.6520  -16.8005   27.9052 C   0  0  0  0  0  0  0  0  0  0  0  0
    8.4520  -16.9662   27.5762 O   0  0  0  0  0  0  0  0  0  0  0  0
   10.1921  -17.6380   28.8621 O   0  0  0  0  0  0  0  0  0  0  0  0
  2  1  1  6
  2  3  1  0
  3  4  1  0
  4  5  2  0
  6  7  2  0
  6  2  1  0
  8  4  1  0
  9 10  1  0
 10 11  2  0
 10 20  1  0
 11 12  1  0
 12 13  2  0
 13 14  1  0
 15 14  1  1
 15 17  1  0
 15 16  1  0
 16  6  1  0
 17 18  2  0
 19 13  1  0
 20 19  2  0
 22 21  1  6
 23 22  1  0
 24 22  1  0
 24 25  1  6
 25 17  1  0
 26 28  1  0
 26 24  1  0
 27 26  2  0
M  END
$$$$
