RYG.pdb
     RDKit          3D

 28 28  0  0  1  0  0  0  0  0999 V2000
   20.8713  -26.7905  -11.7930 N   0  0  0  0  0  0  0  0  0  0  0  0
   21.2169  -28.1083  -11.3321 C   0  0  0  0  0  0  0  0  0  0  0  0
   22.4429  -28.4760  -11.2141 N   0  0  0  0  0  0  0  0  0  0  0  0
   20.2035  -29.0516  -10.9900 N   0  0  0  0  0  0  0  0  0  0  0  0
   18.8643  -28.6178  -10.6761 C   0  0  0  0  0  0  0  0  0  0  0  0
   18.9087  -27.8015   -9.4156 C   0  0  0  0  0  0  0  0  0  0  0  0
   17.5504  -27.7918   -8.7114 C   0  0  0  0  0  0  0  0  0  0  0  0
   17.4719  -29.0473   -7.8920 C   0  0  2  0  0  0  0  0  0  0  0  0
   16.6968  -30.0777   -8.5030 N   0  0  0  0  0  0  0  0  0  0  0  0
   17.0042  -28.8191   -6.5146 C   0  0  0  0  0  0  0  0  0  0  0  0
   15.7400  -28.9270   -6.3225 O   0  0  0  0  0  0  0  0  0  0  0  0
   22.6605  -29.4403  -10.8995 O   0  0  0  0  0  0  0  0  0  0  0  0
   16.0780  -27.0292    2.0036 C   0  0  0  0  0  0  0  0  0  0  0  0
   16.6252  -27.3226    0.7524 C   0  0  0  0  0  0  0  0  0  0  0  0
   17.3191  -26.3952    0.0125 C   0  0  0  0  0  0  0  0  0  0  0  0
   17.8456  -26.7148   -1.2156 C   0  0  0  0  0  0  0  0  0  0  0  0
   17.6937  -27.9988   -1.7582 C   0  0  0  0  0  0  0  0  0  0  0  0
   18.2489  -28.3462   -3.0616 C   0  0  2  0  0  0  0  0  0  0  0  0
   17.2747  -28.0562   -4.1752 N   0  0  0  0  0  0  0  0  0  0  0  0
   17.8546  -28.4998   -5.4414 C   0  0  0  0  0  0  0  0  0  0  0  0
   16.8280  -26.6721   -4.2802 O   0  0  0  0  0  0  0  0  0  0  0  0
   17.5612  -25.8600   -4.9229 C   0  0  0  0  0  0  0  0  0  0  0  0
   16.9970  -28.9077   -1.0006 C   0  0  0  0  0  0  0  0  0  0  0  0
   16.4585  -28.6020    0.2418 N   0  0  0  0  0  0  0  0  0  0  0  0
   15.6377  -26.1657   -3.7256 C   0  0  0  0  0  0  0  0  0  0  0  0
   15.2856  -24.7601   -3.8011 C   0  0  0  0  0  0  0  0  0  0  0  0
   14.5538  -24.3968   -5.0105 O   0  0  0  0  0  0  0  0  0  0  0  0
   14.3665  -25.2292   -5.9246 O   0  0  0  0  0  0  0  0  0  0  0  0
  2  1  1  0
  3  2  2  0
  4  2  1  0
  5  4  1  0
  6  5  1  0
  7  6  1  0
  8 10  1  0
  8  7  1  0
  8  9  1  6
 10 11  2  0
 12 13  1  0
 13 23  2  0
 13 14  1  0
 14 15  2  0
 15 16  1  0
 16 17  1  0
 18 17  1  1
 19 18  1  0
 19 10  1  0
 20 21  2  0
 20 18  1  0
 22 16  2  0
 23 22  1  0
 24 20  1  0
 25 24  1  0
 26 28  1  0
 26 25  1  0
 27 26  2  0
M  END
$$$$
