RYG.pdb
     RDKit          3D

 28 28  0  0  1  0  0  0  0  0999 V2000
   23.7394  -16.2413  -17.7453 N   0  0  0  0  0  0  0  0  0  0  0  0
   23.9223  -16.7490  -19.0783 C   0  0  0  0  0  0  0  0  0  0  0  0
   24.3079  -15.9859  -20.0381 N   0  0  0  0  0  0  0  0  0  0  0  0
   23.6800  -18.1224  -19.3765 N   0  0  0  0  0  0  0  0  0  0  0  0
   23.3237  -19.0540  -18.3348 C   0  0  0  0  0  0  0  0  0  0  0  0
   24.5301  -19.2909  -17.4714 C   0  0  0  0  0  0  0  0  0  0  0  0
   24.2767  -20.4075  -16.4563 C   0  0  0  0  0  0  0  0  0  0  0  0
   25.4819  -20.4704  -15.5632 C   0  0  2  0  0  0  0  0  0  0  0  0
   26.5450  -21.2581  -16.0972 N   0  0  0  0  0  0  0  0  0  0  0  0
   25.1724  -20.9104  -14.1926 C   0  0  0  0  0  0  0  0  0  0  0  0
   25.1736  -22.1780  -13.9928 O   0  0  0  0  0  0  0  0  0  0  0  0
   24.5408  -16.4005  -20.9602 O   0  0  0  0  0  0  0  0  0  0  0  0
   30.8026  -21.3247  -11.3432 C   0  0  0  0  0  0  0  0  0  0  0  0
   29.4587  -20.9634  -11.2238 C   0  0  0  0  0  0  0  0  0  0  0  0
   28.8843  -19.9842  -11.9985 C   0  0  0  0  0  0  0  0  0  0  0  0
   27.5588  -19.6515  -11.8570 C   0  0  0  0  0  0  0  0  0  0  0  0
   26.7445  -20.2992  -10.9169 C   0  0  0  0  0  0  0  0  0  0  0  0
   25.3365  -19.9516  -10.7599 C   0  0  2  0  0  0  0  0  0  0  0  0
   24.4870  -20.5763  -11.8375 N   0  0  0  0  0  0  0  0  0  0  0  0
   24.8864  -20.0311  -13.1334 C   0  0  0  0  0  0  0  0  0  0  0  0
   23.0452  -20.4513  -11.6582 O   0  0  0  0  0  0  0  0  0  0  0  0
   22.4879  -19.3862  -12.0644 C   0  0  0  0  0  0  0  0  0  0  0  0
   27.3408  -21.2735  -10.1551 C   0  0  0  0  0  0  0  0  0  0  0  0
   28.6782  -21.6224  -10.2846 N   0  0  0  0  0  0  0  0  0  0  0  0
   22.2190  -21.4278  -11.0714 C   0  0  0  0  0  0  0  0  0  0  0  0
   20.7909  -21.2334  -10.9027 C   0  0  0  0  0  0  0  0  0  0  0  0
   19.9885  -21.7472  -12.0082 O   0  0  0  0  0  0  0  0  0  0  0  0
   20.5294  -22.2355  -13.0243 O   0  0  0  0  0  0  0  0  0  0  0  0
  2  1  1  0
  3  2  2  0
  4  2  1  0
  5  4  1  0
  6  5  1  0
  7  6  1  0
  8 10  1  0
  8  7  1  0
  8  9  1  6
 10 11  2  0
 12 13  1  0
 13 23  2  0
 13 14  1  0
 14 15  2  0
 15 16  1  0
 16 17  1  0
 18 17  1  6
 19 18  1  0
 19 10  1  0
 20 21  2  0
 20 18  1  0
 22 16  2  0
 23 22  1  0
 24 20  1  0
 25 24  1  0
 26 28  1  0
 26 25  1  0
 27 26  2  0
M  END
$$$$
