RYG.pdb
     RDKit          3D

 28 28  0  0  1  0  0  0  0  0999 V2000
   18.7814  -18.9684  -14.0099 N   0  0  0  0  0  0  0  0  0  0  0  0
   18.3076  -20.1743  -14.6340 C   0  0  0  0  0  0  0  0  0  0  0  0
   17.1743  -20.6914  -14.3168 N   0  0  0  0  0  0  0  0  0  0  0  0
   19.0855  -20.8360  -15.6295 N   0  0  0  0  0  0  0  0  0  0  0  0
   20.5074  -20.6147  -15.7255 C   0  0  0  0  0  0  0  0  0  0  0  0
   21.1612  -21.1591  -14.4873 C   0  0  0  0  0  0  0  0  0  0  0  0
   22.4170  -20.3632  -14.1258 C   0  0  0  0  0  0  0  0  0  0  0  0
   23.4514  -20.6788  -15.1671 C   0  0  2  0  0  0  0  0  0  0  0  0
   23.6608  -22.0776  -15.3550 N   0  0  0  0  0  0  0  0  0  0  0  0
   24.7405  -20.0065  -14.9342 C   0  0  0  0  0  0  0  0  0  0  0  0
   24.6931  -18.7337  -14.7771 O   0  0  0  0  0  0  0  0  0  0  0  0
   16.8260  -21.5196  -14.8355 O   0  0  0  0  0  0  0  0  0  0  0  0
   24.2794  -20.3699   -8.9688 C   0  0  0  0  0  0  0  0  0  0  0  0
   25.1668  -20.3547  -10.0472 C   0  0  0  0  0  0  0  0  0  0  0  0
   25.8914  -19.2394  -10.3935 C   0  0  0  0  0  0  0  0  0  0  0  0
   26.7567  -19.2563  -11.4605 C   0  0  0  0  0  0  0  0  0  0  0  0
   26.9316  -20.4124  -12.2346 C   0  0  0  0  0  0  0  0  0  0  0  0
   27.8478  -20.4386  -13.3694 C   0  0  2  0  0  0  0  0  0  0  0  0
   27.1945  -19.9132  -14.6226 N   0  0  0  0  0  0  0  0  0  0  0  0
   25.9750  -20.6771  -14.8788 C   0  0  0  0  0  0  0  0  0  0  0  0
   28.0368  -19.8898  -15.8127 O   0  0  0  0  0  0  0  0  0  0  0  0
   28.1462  -20.9621  -16.4823 C   0  0  0  0  0  0  0  0  0  0  0  0
   26.1972  -21.5135  -11.8692 C   0  0  0  0  0  0  0  0  0  0  0  0
   25.3186  -21.5141  -10.7944 N   0  0  0  0  0  0  0  0  0  0  0  0
   28.7370  -18.7626  -16.2816 C   0  0  0  0  0  0  0  0  0  0  0  0
   28.1234  -17.7778  -17.1529 C   0  0  0  0  0  0  0  0  0  0  0  0
   28.0998  -18.1646  -18.5600 O   0  0  0  0  0  0  0  0  0  0  0  0
   27.4574  -19.1671  -18.9417 O   0  0  0  0  0  0  0  0  0  0  0  0
  2  1  1  0
  3  2  2  0
  4  2  1  0
  5  4  1  0
  6  5  1  0
  7  6  1  0
  8 10  1  0
  8  7  1  0
  8  9  1  1
 10 11  2  0
 12 13  1  0
 13 23  2  0
 13 14  1  0
 14 15  2  0
 15 16  1  0
 16 17  1  0
 18 17  1  1
 19 18  1  0
 19 10  1  0
 20 21  2  0
 20 18  1  0
 22 16  2  0
 23 22  1  0
 24 20  1  0
 25 24  1  0
 26 28  1  0
 26 25  1  0
 27 26  2  0
M  END
$$$$
