RYG.pdb
     RDKit          3D

 28 28  0  0  1  0  0  0  0  0999 V2000
   28.6540  -20.6098  -10.8112 N   0  0  0  0  0  0  0  0  0  0  0  0
   29.4988  -21.1199  -11.8573 C   0  0  0  0  0  0  0  0  0  0  0  0
   30.1275  -22.2334  -11.7267 N   0  0  0  0  0  0  0  0  0  0  0  0
   29.6648  -20.4013  -13.0778 N   0  0  0  0  0  0  0  0  0  0  0  0
   28.7512  -19.3480  -13.4464 C   0  0  0  0  0  0  0  0  0  0  0  0
   27.3663  -19.9239  -13.5327 C   0  0  0  0  0  0  0  0  0  0  0  0
   26.3404  -18.8516  -13.9051 C   0  0  0  0  0  0  0  0  0  0  0  0
   25.9156  -19.1230  -15.3193 C   0  0  2  0  0  0  0  0  0  0  0  0
   26.7840  -18.5476  -16.2943 N   0  0  0  0  0  0  0  0  0  0  0  0
   24.5231  -18.7337  -15.5972 C   0  0  0  0  0  0  0  0  0  0  0  0
   24.2930  -17.4733  -15.6696 O   0  0  0  0  0  0  0  0  0  0  0  0
   30.6907  -22.5995  -12.5173 O   0  0  0  0  0  0  0  0  0  0  0  0
   24.7899  -16.5095  -21.1548 C   0  0  0  0  0  0  0  0  0  0  0  0
   24.0548  -17.2612  -20.2352 C   0  0  0  0  0  0  0  0  0  0  0  0
   24.4790  -18.4834  -19.7715 C   0  0  0  0  0  0  0  0  0  0  0  0
   23.7327  -19.1989  -18.8666 C   0  0  0  0  0  0  0  0  0  0  0  0
   22.5113  -18.7076  -18.3838 C   0  0  0  0  0  0  0  0  0  0  0  0
   21.7127  -19.4611  -17.4235 C   0  0  2  0  0  0  0  0  0  0  0  0
   22.1180  -19.1560  -16.0036 N   0  0  0  0  0  0  0  0  0  0  0  0
   23.4744  -19.6523  -15.7796 C   0  0  0  0  0  0  0  0  0  0  0  0
   21.2194  -19.6535  -14.9686 O   0  0  0  0  0  0  0  0  0  0  0  0
   21.5288  -20.7378  -14.3865 C   0  0  0  0  0  0  0  0  0  0  0  0
   22.1089  -17.4849  -18.8615 C   0  0  0  0  0  0  0  0  0  0  0  0
   22.8500  -16.7486  -19.7757 N   0  0  0  0  0  0  0  0  0  0  0  0
   20.0322  -19.0181  -14.5593 C   0  0  0  0  0  0  0  0  0  0  0  0
   19.1866  -19.5591  -13.5116 C   0  0  0  0  0  0  0  0  0  0  0  0
   18.2167  -20.5430  -13.9821 O   0  0  0  0  0  0  0  0  0  0  0  0
   17.3335  -20.9926  -13.2196 O   0  0  0  0  0  0  0  0  0  0  0  0
  2  1  1  0
  3  2  2  0
  4  2  1  0
  5  4  1  0
  6  5  1  0
  7  6  1  0
  8 10  1  0
  8  7  1  0
  8  9  1  6
 10 11  2  0
 12 13  1  0
 13 23  2  0
 13 14  1  0
 14 15  2  0
 15 16  1  0
 16 17  1  0
 18 17  1  6
 19 18  1  0
 19 10  1  0
 20 21  2  0
 20 18  1  0
 22 16  2  0
 23 22  1  0
 24 20  1  0
 25 24  1  0
 26 28  1  0
 26 25  1  0
 27 26  2  0
M  END
$$$$
