RYG.pdb
     RDKit          3D

 28 28  0  0  1  0  0  0  0  0999 V2000
   13.4383  -20.2853    3.5732 N   0  0  0  0  0  0  0  0  0  0  0  0
   13.6167  -20.2055    2.1484 C   0  0  0  0  0  0  0  0  0  0  0  0
   12.6130  -20.2313    1.3457 N   0  0  0  0  0  0  0  0  0  0  0  0
   14.9200  -20.0944    1.5804 N   0  0  0  0  0  0  0  0  0  0  0  0
   16.0908  -20.0358    2.4206 C   0  0  0  0  0  0  0  0  0  0  0  0
   16.0565  -18.7522    3.2005 C   0  0  0  0  0  0  0  0  0  0  0  0
   17.3142  -18.5877    4.0562 C   0  0  0  0  0  0  0  0  0  0  0  0
   17.1899  -17.2732    4.7709 C   0  0  2  0  0  0  0  0  0  0  0  0
   16.7739  -16.2027    3.9243 N   0  0  0  0  0  0  0  0  0  0  0  0
   18.4076  -16.8879    5.5035 C   0  0  0  0  0  0  0  0  0  0  0  0
   19.3850  -16.4619    4.7895 O   0  0  0  0  0  0  0  0  0  0  0  0
   12.7691  -20.1175    0.3264 O   0  0  0  0  0  0  0  0  0  0  0  0
   20.4055  -10.3903    6.0411 C   0  0  0  0  0  0  0  0  0  0  0  0
   20.2218  -11.6335    6.6508 C   0  0  0  0  0  0  0  0  0  0  0  0
   21.2530  -12.3323    7.2317 C   0  0  0  0  0  0  0  0  0  0  0  0
   21.0398  -13.5536    7.8238 C   0  0  0  0  0  0  0  0  0  0  0  0
   19.7623  -14.1310    7.8566 C   0  0  0  0  0  0  0  0  0  0  0  0
   19.5276  -15.4274    8.4825 C   0  0  2  0  0  0  0  0  0  0  0  0
   19.7962  -16.5622    7.5268 N   0  0  0  0  0  0  0  0  0  0  0  0
   18.5380  -16.9647    6.9014 C   0  0  0  0  0  0  0  0  0  0  0  0
   20.4725  -17.7219    8.0961 O   0  0  0  0  0  0  0  0  0  0  0  0
   21.6221  -17.5471    8.6040 C   0  0  0  0  0  0  0  0  0  0  0  0
   18.7487  -13.4140    7.2700 C   0  0  0  0  0  0  0  0  0  0  0  0
   18.9460  -12.1791    6.6675 N   0  0  0  0  0  0  0  0  0  0  0  0
   19.9438  -19.0257    8.1309 C   0  0  0  0  0  0  0  0  0  0  0  0
   20.6796  -20.1444    8.6901 C   0  0  0  0  0  0  0  0  0  0  0  0
   20.3682  -20.4179   10.0895 O   0  0  0  0  0  0  0  0  0  0  0  0
   19.5761  -19.6905   10.7273 O   0  0  0  0  0  0  0  0  0  0  0  0
  2  1  1  0
  3  2  2  0
  4  2  1  0
  5  4  1  0
  6  5  1  0
  7  6  1  0
  8 10  1  0
  8  7  1  0
  8  9  1  6
 10 11  2  0
 12 13  1  0
 13 23  2  0
 13 14  1  0
 14 15  2  0
 15 16  1  0
 16 17  1  0
 18 17  1  6
 19 18  1  0
 19 10  1  0
 20 21  2  0
 20 18  1  0
 22 16  2  0
 23 22  1  0
 24 20  1  0
 25 24  1  0
 26 28  1  0
 26 25  1  0
 27 26  2  0
M  END
$$$$
