RYG.pdb
     RDKit          3D

 28 28  0  0  1  0  0  0  0  0999 V2000
   19.1936  -29.3384  -11.2029 N   0  0  0  0  0  0  0  0  0  0  0  0
   20.5891  -28.9921  -11.1716 C   0  0  0  0  0  0  0  0  0  0  0  0
   21.4555  -29.7554  -10.6068 N   0  0  0  0  0  0  0  0  0  0  0  0
   21.0557  -27.7848  -11.7702 N   0  0  0  0  0  0  0  0  0  0  0  0
   20.1605  -26.9339  -12.5149 C   0  0  0  0  0  0  0  0  0  0  0  0
   20.6239  -26.8850  -13.9431 C   0  0  0  0  0  0  0  0  0  0  0  0
   21.5209  -25.6714  -14.1953 C   0  0  0  0  0  0  0  0  0  0  0  0
   20.6946  -24.6617  -14.9381 C   0  0  2  0  0  0  0  0  0  0  0  0
   21.3977  -24.0243  -16.0034 N   0  0  0  0  0  0  0  0  0  0  0  0
   20.0846  -23.6468  -14.0630 C   0  0  0  0  0  0  0  0  0  0  0  0
   20.7741  -23.2963  -13.0390 O   0  0  0  0  0  0  0  0  0  0  0  0
   22.4590  -29.4928  -10.6256 O   0  0  0  0  0  0  0  0  0  0  0  0
   23.6276  -19.4664  -15.6183 C   0  0  0  0  0  0  0  0  0  0  0  0
   22.3393  -19.7674  -15.1704 C   0  0  0  0  0  0  0  0  0  0  0  0
   21.9621  -19.6299  -13.8559 C   0  0  0  0  0  0  0  0  0  0  0  0
   20.6864  -19.9344  -13.4465 C   0  0  0  0  0  0  0  0  0  0  0  0
   19.7236  -20.3965  -14.3551 C   0  0  0  0  0  0  0  0  0  0  0  0
   18.3674  -20.7226  -13.9285 C   0  0  2  0  0  0  0  0  0  0  0  0
   18.2901  -22.1057  -13.3330 N   0  0  0  0  0  0  0  0  0  0  0  0
   18.8245  -23.0677  -14.2949 C   0  0  0  0  0  0  0  0  0  0  0  0
   16.9700  -22.5252  -12.8774 O   0  0  0  0  0  0  0  0  0  0  0  0
   16.1623  -22.9825  -13.7427 C   0  0  0  0  0  0  0  0  0  0  0  0
   20.1241  -20.5256  -15.6621 C   0  0  0  0  0  0  0  0  0  0  0  0
   21.4084  -20.2226  -16.0933 N   0  0  0  0  0  0  0  0  0  0  0  0
   16.5220  -22.4672  -11.5445 C   0  0  0  0  0  0  0  0  0  0  0  0
   15.1941  -22.9036  -11.1548 C   0  0  0  0  0  0  0  0  0  0  0  0
   14.1371  -21.9537  -11.4870 O   0  0  0  0  0  0  0  0  0  0  0  0
   12.9504  -22.1691  -11.1570 O   0  0  0  0  0  0  0  0  0  0  0  0
  2  1  1  0
  3  2  2  0
  4  2  1  0
  5  4  1  0
  6  5  1  0
  7  6  1  0
  8 10  1  0
  8  7  1  0
  8  9  1  6
 10 11  2  0
 12 13  1  0
 13 23  2  0
 13 14  1  0
 14 15  2  0
 15 16  1  0
 16 17  1  0
 18 17  1  1
 19 18  1  0
 19 10  1  0
 20 21  2  0
 20 18  1  0
 22 16  2  0
 23 22  1  0
 24 20  1  0
 25 24  1  0
 26 28  1  0
 26 25  1  0
 27 26  2  0
M  END
$$$$
