RYG.pdb
     RDKit          3D

 28 28  0  0  1  0  0  0  0  0999 V2000
   28.6219  -26.7025  -15.7885 N   0  0  0  0  0  0  0  0  0  0  0  0
   28.6669  -26.5257  -17.2150 C   0  0  0  0  0  0  0  0  0  0  0  0
   29.1654  -27.4257  -17.9856 N   0  0  0  0  0  0  0  0  0  0  0  0
   28.1565  -25.3398  -17.8206 N   0  0  0  0  0  0  0  0  0  0  0  0
   27.2919  -24.4479  -17.0876 C   0  0  0  0  0  0  0  0  0  0  0  0
   25.9043  -25.0237  -17.0819 C   0  0  0  0  0  0  0  0  0  0  0  0
   24.9071  -24.0648  -16.4283 C   0  0  0  0  0  0  0  0  0  0  0  0
   25.0236  -24.2555  -14.9437 C   0  0  2  0  0  0  0  0  0  0  0  0
   24.2142  -25.3177  -14.4415 N   0  0  0  0  0  0  0  0  0  0  0  0
   24.7702  -23.0261  -14.1740 C   0  0  0  0  0  0  0  0  0  0  0  0
   23.5717  -22.8662  -13.7438 O   0  0  0  0  0  0  0  0  0  0  0  0
   29.2245  -27.2506  -19.0065 O   0  0  0  0  0  0  0  0  0  0  0  0
   26.4097  -20.8271   -7.1777 C   0  0  0  0  0  0  0  0  0  0  0  0
   26.4655  -20.6468   -8.5616 C   0  0  0  0  0  0  0  0  0  0  0  0
   27.5833  -20.9482   -9.3024 C   0  0  0  0  0  0  0  0  0  0  0  0
   27.6069  -20.7595  -10.6631 C   0  0  0  0  0  0  0  0  0  0  0  0
   26.4913  -20.2524  -11.3448 C   0  0  0  0  0  0  0  0  0  0  0  0
   26.5083  -20.0484  -12.7890 C   0  0  2  0  0  0  0  0  0  0  0  0
   25.3396  -20.7255  -13.4591 N   0  0  0  0  0  0  0  0  0  0  0  0
   25.7511  -22.0564  -13.9012 C   0  0  0  0  0  0  0  0  0  0  0  0
   24.7308  -19.9913  -14.5621 O   0  0  0  0  0  0  0  0  0  0  0  0
   25.2614  -20.0987  -15.7098 C   0  0  0  0  0  0  0  0  0  0  0  0
   25.3870  -19.9590  -10.5833 C   0  0  0  0  0  0  0  0  0  0  0  0
   25.3456  -20.1434   -9.2081 N   0  0  0  0  0  0  0  0  0  0  0  0
   23.5911  -19.1728  -14.4529 C   0  0  0  0  0  0  0  0  0  0  0  0
   22.9180  -18.6245  -15.6156 C   0  0  0  0  0  0  0  0  0  0  0  0
   23.6578  -17.5556  -16.2791 O   0  0  0  0  0  0  0  0  0  0  0  0
   24.7296  -17.7901  -16.8788 O   0  0  0  0  0  0  0  0  0  0  0  0
  2  1  1  0
  3  2  2  0
  4  2  1  0
  5  4  1  0
  6  5  1  0
  7  6  1  0
  8 10  1  0
  8  7  1  0
  8  9  1  1
 10 11  2  0
 12 13  1  0
 13 23  2  0
 13 14  1  0
 14 15  2  0
 15 16  1  0
 16 17  1  0
 18 17  1  1
 19 18  1  0
 19 10  1  0
 20 21  2  0
 20 18  1  0
 22 16  2  0
 23 22  1  0
 24 20  1  0
 25 24  1  0
 26 28  1  0
 26 25  1  0
 27 26  2  0
M  END
$$$$
