RYG.pdb
     RDKit          3D

 28 28  0  0  1  0  0  0  0  0999 V2000
   27.6297  -19.2075  -19.6202 N   0  0  0  0  0  0  0  0  0  0  0  0
   26.4782  -18.3525  -19.5133 C   0  0  0  0  0  0  0  0  0  0  0  0
   25.8217  -17.9809  -20.5541 N   0  0  0  0  0  0  0  0  0  0  0  0
   26.0278  -17.8893  -18.2420 N   0  0  0  0  0  0  0  0  0  0  0  0
   26.6619  -18.3339  -17.0254 C   0  0  0  0  0  0  0  0  0  0  0  0
   26.0058  -19.6108  -16.5826 C   0  0  0  0  0  0  0  0  0  0  0  0
   25.4736  -19.4957  -15.1527 C   0  0  0  0  0  0  0  0  0  0  0  0
   26.5182  -20.0815  -14.2472 C   0  0  2  0  0  0  0  0  0  0  0  0
   26.7741  -21.4634  -14.4936 N   0  0  0  0  0  0  0  0  0  0  0  0
   26.2376  -19.8715  -12.8172 C   0  0  0  0  0  0  0  0  0  0  0  0
   25.9316  -18.6741  -12.4718 O   0  0  0  0  0  0  0  0  0  0  0  0
   25.0055  -17.3496  -20.4464 O   0  0  0  0  0  0  0  0  0  0  0  0
   20.0181  -19.5410  -12.2392 C   0  0  0  0  0  0  0  0  0  0  0  0
   21.2090  -19.9690  -11.6479 C   0  0  0  0  0  0  0  0  0  0  0  0
   21.6353  -19.5082  -10.4253 C   0  0  0  0  0  0  0  0  0  0  0  0
   22.8123  -19.9488   -9.8701 C   0  0  0  0  0  0  0  0  0  0  0  0
   23.6208  -20.8846  -10.5310 C   0  0  0  0  0  0  0  0  0  0  0  0
   24.8720  -21.3572   -9.9489 C   0  0  2  0  0  0  0  0  0  0  0  0
   26.0516  -20.5611  -10.4469 N   0  0  0  0  0  0  0  0  0  0  0  0
   26.2892  -20.8915  -11.8507 C   0  0  0  0  0  0  0  0  0  0  0  0
   27.2819  -20.7050   -9.6776 O   0  0  0  0  0  0  0  0  0  0  0  0
   28.3632  -20.8834  -10.3173 C   0  0  0  0  0  0  0  0  0  0  0  0
   23.1738  -21.3301  -11.7505 C   0  0  0  0  0  0  0  0  0  0  0  0
   21.9877  -20.8959  -12.3263 N   0  0  0  0  0  0  0  0  0  0  0  0
   27.3642  -20.6556   -8.2735 C   0  0  0  0  0  0  0  0  0  0  0  0
   27.6372  -19.4235   -7.5573 C   0  0  0  0  0  0  0  0  0  0  0  0
   27.7084  -19.5839   -6.1084 O   0  0  0  0  0  0  0  0  0  0  0  0
   27.3980  -20.6659   -5.5641 O   0  0  0  0  0  0  0  0  0  0  0  0
  2  1  1  0
  3  2  2  0
  4  2  1  0
  5  4  1  0
  6  5  1  0
  7  6  1  0
  8 10  1  0
  8  7  1  0
  8  9  1  1
 10 11  2  0
 12 13  1  0
 13 23  2  0
 13 14  1  0
 14 15  2  0
 15 16  1  0
 16 17  1  0
 18 17  1  6
 19 18  1  0
 19 10  1  0
 20 21  2  0
 20 18  1  0
 22 16  2  0
 23 22  1  0
 24 20  1  0
 25 24  1  0
 26 28  1  0
 26 25  1  0
 27 26  2  0
M  END
$$$$
