RYG.pdb
     RDKit          3D

 28 28  0  0  1  0  0  0  0  0999 V2000
   29.8942  -23.2295  -16.8666 N   0  0  0  0  0  0  0  0  0  0  0  0
   29.7066  -23.7404  -18.1978 C   0  0  0  0  0  0  0  0  0  0  0  0
   30.5137  -24.6038  -18.7032 N   0  0  0  0  0  0  0  0  0  0  0  0
   28.6128  -23.3021  -19.0010 N   0  0  0  0  0  0  0  0  0  0  0  0
   27.4913  -22.6130  -18.4116 C   0  0  0  0  0  0  0  0  0  0  0  0
   27.1801  -23.2506  -17.0873 C   0  0  0  0  0  0  0  0  0  0  0  0
   25.7032  -23.0841  -16.7235 C   0  0  0  0  0  0  0  0  0  0  0  0
   25.5308  -23.6213  -15.3322 C   0  0  2  0  0  0  0  0  0  0  0  0
   25.6121  -25.0438  -15.2577 N   0  0  0  0  0  0  0  0  0  0  0  0
   24.2994  -23.1549  -14.6732 C   0  0  0  0  0  0  0  0  0  0  0  0
   23.3115  -23.9739  -14.6782 O   0  0  0  0  0  0  0  0  0  0  0  0
   30.3873  -24.9088  -19.6867 O   0  0  0  0  0  0  0  0  0  0  0  0
   18.2033  -18.6850  -10.2041 C   0  0  0  0  0  0  0  0  0  0  0  0
   19.4116  -19.1234  -10.7507 C   0  0  0  0  0  0  0  0  0  0  0  0
   20.0910  -18.4117  -11.7103 C   0  0  0  0  0  0  0  0  0  0  0  0
   21.2780  -18.8700  -12.2285 C   0  0  0  0  0  0  0  0  0  0  0  0
   21.8388  -20.0806  -11.7970 C   0  0  0  0  0  0  0  0  0  0  0  0
   23.0981  -20.5747  -12.3425 C   0  0  1  0  0  0  0  0  0  0  0  0
   22.8720  -21.4990  -13.5121 N   0  0  0  0  0  0  0  0  0  0  0  0
   24.1669  -21.8959  -14.0614 C   0  0  0  0  0  0  0  0  0  0  0  0
   22.0105  -20.9823  -14.5691 O   0  0  0  0  0  0  0  0  0  0  0  0
   22.4868  -20.0946  -15.3407 C   0  0  0  0  0  0  0  0  0  0  0  0
   21.1418  -20.7734  -10.8380 C   0  0  0  0  0  0  0  0  0  0  0  0
   19.9416  -20.3253  -10.3035 N   0  0  0  0  0  0  0  0  0  0  0  0
   20.6866  -21.3979  -14.8044 C   0  0  0  0  0  0  0  0  0  0  0  0
   19.8482  -20.7766  -15.8125 C   0  0  0  0  0  0  0  0  0  0  0  0
   18.7157  -20.0354  -15.2665 O   0  0  0  0  0  0  0  0  0  0  0  0
   18.2317  -19.0570  -15.8764 O   0  0  0  0  0  0  0  0  0  0  0  0
  2  1  1  0
  3  2  2  0
  4  2  1  0
  5  4  1  0
  6  5  1  0
  7  6  1  0
  8 10  1  0
  8  7  1  0
  8  9  1  6
 10 11  2  0
 12 13  1  0
 13 23  2  0
 13 14  1  0
 14 15  2  0
 15 16  1  0
 16 17  1  0
 18 17  1  1
 19 18  1  0
 19 10  1  0
 20 21  2  0
 20 18  1  0
 22 16  2  0
 23 22  1  0
 24 20  1  0
 25 24  1  0
 26 28  1  0
 26 25  1  0
 27 26  2  0
M  END
$$$$
