RYG.pdb
     RDKit          3D

 28 28  0  0  1  0  0  0  0  0999 V2000
   18.7189  -23.9000  -13.3942 N   0  0  0  0  0  0  0  0  0  0  0  0
   18.0038  -22.8944  -12.6556 C   0  0  0  0  0  0  0  0  0  0  0  0
   16.9345  -22.3549  -13.1221 N   0  0  0  0  0  0  0  0  0  0  0  0
   18.4625  -22.4636  -11.3758 N   0  0  0  0  0  0  0  0  0  0  0  0
   19.4717  -21.4401  -11.2574 C   0  0  0  0  0  0  0  0  0  0  0  0
   20.4354  -21.5837  -12.4010 C   0  0  0  0  0  0  0  0  0  0  0  0
   21.5315  -20.5177  -12.3415 C   0  0  0  0  0  0  0  0  0  0  0  0
   22.4686  -20.7878  -13.4830 C   0  0  2  0  0  0  0  0  0  0  0  0
   22.6034  -22.1741  -13.7924 N   0  0  0  0  0  0  0  0  0  0  0  0
   23.7991  -20.1832  -13.3037 C   0  0  0  0  0  0  0  0  0  0  0  0
   23.8164  -18.9365  -13.0001 O   0  0  0  0  0  0  0  0  0  0  0  0
   16.4402  -21.6325  -12.5652 O   0  0  0  0  0  0  0  0  0  0  0  0
   24.6066  -20.2482   -6.9528 C   0  0  0  0  0  0  0  0  0  0  0  0
   25.1689  -20.4674   -8.2125 C   0  0  0  0  0  0  0  0  0  0  0  0
   24.7705  -21.4968   -9.0315 C   0  0  0  0  0  0  0  0  0  0  0  0
   25.3436  -21.6860  -10.2658 C   0  0  0  0  0  0  0  0  0  0  0  0
   26.3555  -20.8358  -10.7341 C   0  0  0  0  0  0  0  0  0  0  0  0
   26.9695  -21.0302  -12.0429 C   0  0  2  0  0  0  0  0  0  0  0  0
   26.2665  -20.2301  -13.1102 N   0  0  0  0  0  0  0  0  0  0  0  0
   25.0063  -20.8898  -13.4460 C   0  0  0  0  0  0  0  0  0  0  0  0
   27.0401  -19.9709  -14.3188 O   0  0  0  0  0  0  0  0  0  0  0  0
   27.3608  -20.9636  -15.0413 C   0  0  0  0  0  0  0  0  0  0  0  0
   26.7362  -19.8151   -9.8982 C   0  0  0  0  0  0  0  0  0  0  0  0
   26.1683  -19.6091   -8.6484 N   0  0  0  0  0  0  0  0  0  0  0  0
   27.4562  -18.6978  -14.7511 C   0  0  0  0  0  0  0  0  0  0  0  0
   28.3657  -18.5188  -15.8675 C   0  0  0  0  0  0  0  0  0  0  0  0
   27.6998  -18.3958  -17.1603 O   0  0  0  0  0  0  0  0  0  0  0  0
   26.4576  -18.5006  -17.2576 O   0  0  0  0  0  0  0  0  0  0  0  0
  2  1  1  0
  3  2  2  0
  4  2  1  0
  5  4  1  0
  6  5  1  0
  7  6  1  0
  8 10  1  0
  8  7  1  0
  8  9  1  1
 10 11  2  0
 12 13  1  0
 13 23  2  0
 13 14  1  0
 14 15  2  0
 15 16  1  0
 16 17  1  0
 18 17  1  1
 19 18  1  0
 19 10  1  0
 20 21  2  0
 20 18  1  0
 22 16  2  0
 23 22  1  0
 24 20  1  0
 25 24  1  0
 26 28  1  0
 26 25  1  0
 27 26  2  0
M  END
$$$$
