RYG.pdb
     RDKit          3D

 28 28  0  0  1  0  0  0  0  0999 V2000
   24.0026  -20.5694   -8.3006 N   0  0  0  0  0  0  0  0  0  0  0  0
   23.5407  -21.4907   -9.3036 C   0  0  0  0  0  0  0  0  0  0  0  0
   22.3007  -21.8175   -9.3921 N   0  0  0  0  0  0  0  0  0  0  0  0
   24.4502  -22.0724  -10.2354 N   0  0  0  0  0  0  0  0  0  0  0  0
   25.8218  -21.6321  -10.3039 C   0  0  0  0  0  0  0  0  0  0  0  0
   26.1911  -21.4394  -11.7474 C   0  0  0  0  0  0  0  0  0  0  0  0
   25.0265  -20.8493  -12.5453 C   0  0  0  0  0  0  0  0  0  0  0  0
   25.5207  -20.6297  -13.9458 C   0  0  2  0  0  0  0  0  0  0  0  0
   26.6606  -21.4213  -14.2773 N   0  0  0  0  0  0  0  0  0  0  0  0
   25.7855  -19.2154  -14.2580 C   0  0  0  0  0  0  0  0  0  0  0  0
   26.6367  -18.6205  -13.5041 O   0  0  0  0  0  0  0  0  0  0  0  0
   21.9939  -22.4653  -10.1421 O   0  0  0  0  0  0  0  0  0  0  0  0
   27.2959  -11.2789  -17.2602 C   0  0  0  0  0  0  0  0  0  0  0  0
   27.1425  -12.6369  -16.9718 C   0  0  0  0  0  0  0  0  0  0  0  0
   27.5550  -13.1922  -15.7841 C   0  0  0  0  0  0  0  0  0  0  0  0
   27.3899  -14.5324  -15.5303 C   0  0  0  0  0  0  0  0  0  0  0  0
   26.7947  -15.3817  -16.4740 C   0  0  0  0  0  0  0  0  0  0  0  0
   26.6163  -16.8056  -16.2127 C   0  0  1  0  0  0  0  0  0  0  0  0
   25.3609  -17.0718  -15.4212 N   0  0  0  0  0  0  0  0  0  0  0  0
   25.1669  -18.5161  -15.3094 C   0  0  0  0  0  0  0  0  0  0  0  0
   24.1492  -16.4356  -15.9244 O   0  0  0  0  0  0  0  0  0  0  0  0
   23.4938  -17.0401  -16.8272 C   0  0  0  0  0  0  0  0  0  0  0  0
   26.3910  -14.8039  -17.6524 C   0  0  0  0  0  0  0  0  0  0  0  0
   26.5498  -13.4522  -17.9255 N   0  0  0  0  0  0  0  0  0  0  0  0
   23.6448  -15.1991  -15.4801 C   0  0  0  0  0  0  0  0  0  0  0  0
   22.3944  -14.6516  -15.9724 C   0  0  0  0  0  0  0  0  0  0  0  0
   22.3716  -14.4307  -17.4148 O   0  0  0  0  0  0  0  0  0  0  0  0
   21.3764  -13.9189  -17.9725 O   0  0  0  0  0  0  0  0  0  0  0  0
  2  1  1  0
  3  2  2  0
  4  2  1  0
  5  4  1  0
  6  5  1  0
  7  6  1  0
  8 10  1  0
  8  7  1  0
  8  9  1  1
 10 11  2  0
 12 13  1  0
 13 23  2  0
 13 14  1  0
 14 15  2  0
 15 16  1  0
 16 17  1  0
 18 17  1  1
 19 18  1  0
 19 10  1  0
 20 21  2  0
 20 18  1  0
 22 16  2  0
 23 22  1  0
 24 20  1  0
 25 24  1  0
 26 28  1  0
 26 25  1  0
 27 26  2  0
M  END
$$$$
