RYG.pdb
     RDKit          3D

 28 28  0  0  1  0  0  0  0  0999 V2000
   24.6711  -24.4080  -15.8464 N   0  0  0  0  0  0  0  0  0  0  0  0
   26.0167  -24.3100  -16.3445 C   0  0  0  0  0  0  0  0  0  0  0  0
   26.5406  -25.2504  -17.0468 N   0  0  0  0  0  0  0  0  0  0  0  0
   26.8142  -23.1594  -16.0725 N   0  0  0  0  0  0  0  0  0  0  0  0
   26.3008  -22.0757  -15.2713 C   0  0  0  0  0  0  0  0  0  0  0  0
   25.8768  -20.9626  -16.1870 C   0  0  0  0  0  0  0  0  0  0  0  0
   25.2452  -19.8092  -15.4048 C   0  0  0  0  0  0  0  0  0  0  0  0
   23.8792  -20.2639  -14.9790 C   0  0  2  0  0  0  0  0  0  0  0  0
   23.4194  -21.4178  -15.6811 N   0  0  0  0  0  0  0  0  0  0  0  0
   22.8623  -19.2010  -15.0424 C   0  0  0  0  0  0  0  0  0  0  0  0
   23.1031  -18.1473  -14.3506 O   0  0  0  0  0  0  0  0  0  0  0  0
   27.5449  -25.2004  -17.3022 O   0  0  0  0  0  0  0  0  0  0  0  0
   17.2413  -13.0686  -17.3278 C   0  0  0  0  0  0  0  0  0  0  0  0
   18.0652  -14.1961  -17.2994 C   0  0  0  0  0  0  0  0  0  0  0  0
   17.6164  -15.4492  -17.6417 C   0  0  0  0  0  0  0  0  0  0  0  0
   18.4521  -16.5391  -17.6034 C   0  0  0  0  0  0  0  0  0  0  0  0
   19.7931  -16.4119  -17.2137 C   0  0  0  0  0  0  0  0  0  0  0  0
   20.6868  -17.5639  -17.1697 C   0  0  2  0  0  0  0  0  0  0  0  0
   20.7382  -18.1744  -15.7921 N   0  0  0  0  0  0  0  0  0  0  0  0
   21.6823  -19.2901  -15.8017 C   0  0  0  0  0  0  0  0  0  0  0  0
   19.4570  -18.6000  -15.2408 O   0  0  0  0  0  0  0  0  0  0  0  0
   19.0408  -19.7614  -15.5375 C   0  0  0  0  0  0  0  0  0  0  0  0
   20.2180  -15.1504  -16.8766 C   0  0  0  0  0  0  0  0  0  0  0  0
   19.3876  -14.0385  -16.9095 N   0  0  0  0  0  0  0  0  0  0  0  0
   18.6448  -17.8203  -14.3962 C   0  0  0  0  0  0  0  0  0  0  0  0
   17.3850  -18.3089  -13.8674 C   0  0  0  0  0  0  0  0  0  0  0  0
   16.3739  -18.5657  -14.8881 O   0  0  0  0  0  0  0  0  0  0  0  0
   16.1744  -17.7520  -15.8163 O   0  0  0  0  0  0  0  0  0  0  0  0
  2  1  1  0
  3  2  2  0
  4  2  1  0
  5  4  1  0
  6  5  1  0
  7  6  1  0
  8 10  1  0
  8  7  1  0
  8  9  1  6
 10 11  2  0
 12 13  1  0
 13 23  2  0
 13 14  1  0
 14 15  2  0
 15 16  1  0
 16 17  1  0
 18 17  1  1
 19 18  1  0
 19 10  1  0
 20 21  2  0
 20 18  1  0
 22 16  2  0
 23 22  1  0
 24 20  1  0
 25 24  1  0
 26 28  1  0
 26 25  1  0
 27 26  2  0
M  END
$$$$
