EMS.pdb
     RDKit          3D

 24 23  0  0  1  0  0  0  0  0999 V2000
   18.5994  -12.2079  -17.3093 N   0  0  0  0  0  0  0  0  0  0  0  0
   18.7391  -10.8943  -17.8743 C   0  0  1  0  0  0  0  0  0  0  0  0
   17.4589  -10.5100  -18.5897 C   0  0  0  0  0  0  0  0  0  0  0  0
   17.3384  -11.2965  -19.8842 C   0  0  0  0  0  0  0  0  0  0  0  0
   16.1442  -10.9018  -20.6418 C   0  0  0  0  0  0  0  0  0  0  0  0
   15.7521   -9.7099  -20.6289 O   0  0  0  0  0  0  0  0  0  0  0  0
   19.0119   -9.8843  -16.8035 C   0  0  0  0  0  0  0  0  0  0  0  0
   18.3084   -9.8413  -15.7682 O   0  0  0  0  0  0  0  0  0  0  0  0
   15.4531  -11.8412  -21.3682 O   0  0  0  0  0  0  0  0  0  0  0  0
   22.4642   -5.9928  -11.9161 C   0  0  0  0  0  0  0  0  0  0  0  0
   22.0284   -7.3863  -13.0195 S   0  0  0  0  0  0  0  0  0  0  0  0
   22.2973   -6.8163  -14.7419 C   0  0  0  0  0  0  0  0  0  0  0  0
   21.9354   -7.8883  -15.7154 C   0  0  0  0  0  0  0  0  0  0  0  0
   20.4727   -7.9243  -16.0998 C   0  0  2  0  0  0  0  0  0  0  0  0
   20.0626   -8.9765  -16.9552 N   0  0  0  0  0  0  0  0  0  0  0  0
   19.9956   -6.6122  -16.4726 C   0  0  0  0  0  0  0  0  0  0  0  0
   20.4067   -6.1235  -17.5756 O   0  0  0  0  0  0  0  0  0  0  0  0
   16.9421   -4.6774  -14.6053 O   0  0  0  0  0  0  0  0  0  0  0  0
   17.1692   -4.4146  -15.9663 C   0  0  0  0  0  0  0  0  0  0  0  0
   18.6734   -4.5247  -16.2356 C   0  0  2  0  0  0  0  0  0  0  0  0
   19.1028   -5.8259  -15.7026 N   0  0  0  0  0  0  0  0  0  0  0  0
   19.3891   -3.4542  -15.5183 C   0  0  0  0  0  0  0  0  0  0  0  0
   19.1726   -2.2453  -15.8026 O   0  0  0  0  0  0  0  0  0  0  0  0
   20.3102   -3.7853  -14.5206 O   0  0  0  0  0  0  0  0  0  0  0  0
  2  1  1  1
  2  3  1  0
  4  5  1  0
  4  3  1  0
  5  6  2  0
  7 15  1  0
  7  2  1  0
  8  7  2  0
  9  5  1  0
 10 11  1  0
 11 12  1  0
 12 13  1  0
 14 13  1  6
 14 15  1  0
 16 21  1  0
 16 14  1  0
 17 16  2  0
 20 19  1  1
 19 18  1  0
 20 21  1  0
 20 22  1  0
 22 24  1  0
 23 22  2  0
M  END
$$$$
