EMS.pdb
     RDKit          3D

 24 23  0  0  1  0  0  0  0  0999 V2000
   14.9920  -22.8559   -1.0936 N   0  0  0  0  0  0  0  0  0  0  0  0
   14.8951  -21.9171   -0.0102 C   0  0  1  0  0  0  0  0  0  0  0  0
   13.8217  -22.3697    0.9600 C   0  0  0  0  0  0  0  0  0  0  0  0
   12.4545  -22.2395    0.3101 C   0  0  0  0  0  0  0  0  0  0  0  0
   11.3949  -22.7632    1.1812 C   0  0  0  0  0  0  0  0  0  0  0  0
   10.4402  -22.0268    1.5289 O   0  0  0  0  0  0  0  0  0  0  0  0
   16.1960  -21.8210    0.7244 C   0  0  0  0  0  0  0  0  0  0  0  0
   16.9924  -22.7874    0.7475 O   0  0  0  0  0  0  0  0  0  0  0  0
   11.4485  -24.0648    1.6177 O   0  0  0  0  0  0  0  0  0  0  0  0
   22.1529  -17.1047    2.4596 C   0  0  0  0  0  0  0  0  0  0  0  0
   20.4734  -17.2121    1.7406 S   0  0  0  0  0  0  0  0  0  0  0  0
   19.7416  -18.7943    2.3108 C   0  0  0  0  0  0  0  0  0  0  0  0
   18.4508  -19.0616    1.6108 C   0  0  0  0  0  0  0  0  0  0  0  0
   17.7250  -20.3040    2.0778 C   0  0  2  0  0  0  0  0  0  0  0  0
   16.5312  -20.6417    1.3937 N   0  0  0  0  0  0  0  0  0  0  0  0
   17.6373  -20.3499    3.5194 C   0  0  0  0  0  0  0  0  0  0  0  0
   16.6108  -19.8299    4.0674 O   0  0  0  0  0  0  0  0  0  0  0  0
   18.6699  -23.2663    5.8861 O   0  0  0  0  0  0  0  0  0  0  0  0
   19.1737  -22.0680    6.4185 C   0  0  0  0  0  0  0  0  0  0  0  0
   18.3773  -20.9022    5.8236 C   0  0  2  0  0  0  0  0  0  0  0  0
   18.6087  -20.9309    4.3720 N   0  0  0  0  0  0  0  0  0  0  0  0
   18.8809  -19.6262    6.3632 C   0  0  0  0  0  0  0  0  0  0  0  0
   19.4728  -18.8078    5.6089 O   0  0  0  0  0  0  0  0  0  0  0  0
   18.6993  -19.3271    7.7163 O   0  0  0  0  0  0  0  0  0  0  0  0
  2  1  1  6
  2  3  1  0
  4  5  1  0
  4  3  1  0
  5  6  2  0
  7 15  1  0
  7  2  1  0
  8  7  2  0
  9  5  1  0
 10 11  1  0
 11 12  1  0
 12 13  1  0
 14 13  1  1
 14 15  1  0
 16 21  1  0
 16 14  1  0
 17 16  2  0
 20 19  1  1
 19 18  1  0
 20 21  1  0
 20 22  1  0
 22 24  1  0
 23 22  2  0
M  END
$$$$
