EMS.pdb
     RDKit          3D

 24 23  0  0  1  0  0  0  0  0999 V2000
   27.6354  -19.3171  -14.5967 N   0  0  0  0  0  0  0  0  0  0  0  0
   27.3413  -20.5912  -15.1922 C   0  0  1  0  0  0  0  0  0  0  0  0
   28.5938  -21.4452  -15.2098 C   0  0  0  0  0  0  0  0  0  0  0  0
   29.4025  -21.1446  -16.4605 C   0  0  0  0  0  0  0  0  0  0  0  0
   28.7939  -21.7514  -17.6510 C   0  0  0  0  0  0  0  0  0  0  0  0
   28.4054  -22.9443  -17.6246 O   0  0  0  0  0  0  0  0  0  0  0  0
   26.2830  -21.3078  -14.4127 C   0  0  0  0  0  0  0  0  0  0  0  0
   25.8928  -22.4468  -14.7579 O   0  0  0  0  0  0  0  0  0  0  0  0
   28.6489  -21.0104  -18.7988 O   0  0  0  0  0  0  0  0  0  0  0  0
   25.9150  -19.4960   -8.3813 C   0  0  0  0  0  0  0  0  0  0  0  0
   26.2243  -21.2944   -8.5198 S   0  0  0  0  0  0  0  0  0  0  0  0
   26.0293  -21.7419  -10.2877 C   0  0  0  0  0  0  0  0  0  0  0  0
   24.9505  -20.9287  -10.9223 C   0  0  0  0  0  0  0  0  0  0  0  0
   24.7377  -21.2017  -12.3950 C   0  0  2  0  0  0  0  0  0  0  0  0
   25.7206  -20.7041  -13.2856 N   0  0  0  0  0  0  0  0  0  0  0  0
   23.3710  -20.9404  -12.7849 C   0  0  0  0  0  0  0  0  0  0  0  0
   22.9756  -19.7288  -12.7829 O   0  0  0  0  0  0  0  0  0  0  0  0
   19.0180  -22.4005  -14.3380 O   0  0  0  0  0  0  0  0  0  0  0  0
   20.3511  -22.7465  -14.0618 C   0  0  0  0  0  0  0  0  0  0  0  0
   21.0608  -21.5161  -13.4875 C   0  0  2  0  0  0  0  0  0  0  0  0
   22.4350  -21.9319  -13.1706 N   0  0  0  0  0  0  0  0  0  0  0  0
   20.3922  -21.0879  -12.2456 C   0  0  0  0  0  0  0  0  0  0  0  0
   19.4328  -20.2713  -12.2905 O   0  0  0  0  0  0  0  0  0  0  0  0
   20.8268  -21.5914  -11.0164 O   0  0  0  0  0  0  0  0  0  0  0  0
  2  1  1  1
  2  3  1  0
  4  5  1  0
  4  3  1  0
  5  6  2  0
  7 15  1  0
  7  2  1  0
  8  7  2  0
  9  5  1  0
 10 11  1  0
 11 12  1  0
 12 13  1  0
 14 13  1  1
 14 15  1  0
 16 21  1  0
 16 14  1  0
 17 16  2  0
 20 19  1  1
 19 18  1  0
 20 21  1  0
 20 22  1  0
 22 24  1  0
 23 22  2  0
M  END
$$$$
