EMS.pdb
     RDKit          3D

 24 23  0  0  1  0  0  0  0  0999 V2000
   19.1260  -12.8208  -17.6106 N   0  0  0  0  0  0  0  0  0  0  0  0
   18.4915  -11.8911  -16.7176 C   0  0  1  0  0  0  0  0  0  0  0  0
   18.5737  -12.4142  -15.2970 C   0  0  0  0  0  0  0  0  0  0  0  0
   17.6771  -13.6314  -15.1455 C   0  0  0  0  0  0  0  0  0  0  0  0
   16.2685  -13.2443  -14.9969 C   0  0  0  0  0  0  0  0  0  0  0  0
   15.9516  -12.2822  -14.2563 O   0  0  0  0  0  0  0  0  0  0  0  0
   19.1662  -10.5561  -16.7769 C   0  0  0  0  0  0  0  0  0  0  0  0
   20.3693  -10.4598  -17.1117 O   0  0  0  0  0  0  0  0  0  0  0  0
   15.2932  -13.9382  -15.6713 O   0  0  0  0  0  0  0  0  0  0  0  0
   17.7165   -3.0580  -18.5916 C   0  0  0  0  0  0  0  0  0  0  0  0
   16.9989   -4.7138  -18.2874 S   0  0  0  0  0  0  0  0  0  0  0  0
   18.3105   -5.7380  -17.5163 C   0  0  0  0  0  0  0  0  0  0  0  0
   17.8251   -7.1302  -17.2839 C   0  0  0  0  0  0  0  0  0  0  0  0
   18.8232   -8.0415  -16.6044 C   0  0  2  0  0  0  0  0  0  0  0  0
   18.4504   -9.4002  -16.4565 N   0  0  0  0  0  0  0  0  0  0  0  0
   19.3732   -7.4259  -15.4183 C   0  0  0  0  0  0  0  0  0  0  0  0
   18.8114   -7.6816  -14.3032 O   0  0  0  0  0  0  0  0  0  0  0  0
   22.4066   -7.1269  -12.3589 O   0  0  0  0  0  0  0  0  0  0  0  0
   21.7217   -7.4631  -13.5384 C   0  0  0  0  0  0  0  0  0  0  0  0
   21.0794   -6.1921  -14.1034 C   0  0  2  0  0  0  0  0  0  0  0  0
   20.4928   -6.5575  -15.4012 N   0  0  0  0  0  0  0  0  0  0  0  0
   22.1126   -5.1630  -14.3181 C   0  0  0  0  0  0  0  0  0  0  0  0
   22.5838   -4.9676  -15.4709 O   0  0  0  0  0  0  0  0  0  0  0  0
   22.5685   -4.4038  -13.2368 O   0  0  0  0  0  0  0  0  0  0  0  0
  2  1  1  6
  2  3  1  0
  4  5  1  0
  4  3  1  0
  5  6  2  0
  7 15  1  0
  7  2  1  0
  8  7  2  0
  9  5  1  0
 10 11  1  0
 11 12  1  0
 12 13  1  0
 14 13  1  1
 14 15  1  0
 16 21  1  0
 16 14  1  0
 17 16  2  0
 20 19  1  6
 19 18  1  0
 20 21  1  0
 20 22  1  0
 22 24  1  0
 23 22  2  0
M  END
$$$$
