EMS.pdb
     RDKit          3D

 24 23  0  0  1  0  0  0  0  0999 V2000
   17.7314  -11.8674  -16.6611 N   0  0  0  0  0  0  0  0  0  0  0  0
   18.6363  -11.0922  -17.4640 C   0  0  1  0  0  0  0  0  0  0  0  0
   17.8643  -10.0222  -18.2106 C   0  0  0  0  0  0  0  0  0  0  0  0
   16.8381  -10.6722  -19.1233 C   0  0  0  0  0  0  0  0  0  0  0  0
   17.4423  -11.0969  -20.3923 C   0  0  0  0  0  0  0  0  0  0  0  0
   16.8465  -11.9149  -21.1343 O   0  0  0  0  0  0  0  0  0  0  0  0
   19.6685  -10.4286  -16.6065 C   0  0  0  0  0  0  0  0  0  0  0  0
   19.4094  -10.1064  -15.4242 O   0  0  0  0  0  0  0  0  0  0  0  0
   18.6652  -10.5968  -20.7694 O   0  0  0  0  0  0  0  0  0  0  0  0
   27.2794  -10.3245  -14.9117 C   0  0  0  0  0  0  0  0  0  0  0  0
   25.9898  -10.9594  -16.0443 S   0  0  0  0  0  0  0  0  0  0  0  0
   24.5209   -9.8783  -15.8512 C   0  0  0  0  0  0  0  0  0  0  0  0
   23.3832  -10.3808  -16.6764 C   0  0  0  0  0  0  0  0  0  0  0  0
   22.0819   -9.6352  -16.4782 C   0  0  2  0  0  0  0  0  0  0  0  0
   20.9379  -10.1634  -17.1256 N   0  0  0  0  0  0  0  0  0  0  0  0
   22.2658   -8.2098  -16.6284 C   0  0  0  0  0  0  0  0  0  0  0  0
   22.6483   -7.7782  -17.7650 O   0  0  0  0  0  0  0  0  0  0  0  0
   20.7852   -3.9517  -16.4727 O   0  0  0  0  0  0  0  0  0  0  0  0
   20.7316   -5.3282  -16.1979 C   0  0  0  0  0  0  0  0  0  0  0  0
   22.1580   -5.8263  -15.9433 C   0  0  2  0  0  0  0  0  0  0  0  0
   22.0521   -7.2531  -15.6050 N   0  0  0  0  0  0  0  0  0  0  0  0
   22.7422   -5.1051  -14.7982 C   0  0  0  0  0  0  0  0  0  0  0  0
   22.9652   -5.7095  -13.7146 O   0  0  0  0  0  0  0  0  0  0  0  0
   23.0481   -3.7467  -14.9187 O   0  0  0  0  0  0  0  0  0  0  0  0
  2  1  1  1
  2  3  1  0
  4  5  1  0
  4  3  1  0
  5  6  2  0
  7 15  1  0
  7  2  1  0
  8  7  2  0
  9  5  1  0
 10 11  1  0
 11 12  1  0
 12 13  1  0
 14 13  1  6
 14 15  1  0
 16 21  1  0
 16 14  1  0
 17 16  2  0
 20 19  1  1
 19 18  1  0
 20 21  1  0
 20 22  1  0
 22 24  1  0
 23 22  2  0
M  END
$$$$
