EMS.pdb
     RDKit          3D

 24 23  0  0  1  0  0  0  0  0999 V2000
   25.3927  -32.6964   -0.0834 N   0  0  0  0  0  0  0  0  0  0  0  0
   24.9545  -33.2900    1.1495 C   0  0  1  0  0  0  0  0  0  0  0  0
   25.7567  -34.5474    1.4216 C   0  0  0  0  0  0  0  0  0  0  0  0
   25.3998  -35.6148    0.4009 C   0  0  0  0  0  0  0  0  0  0  0  0
   26.1820  -36.8396    0.6104 C   0  0  0  0  0  0  0  0  0  0  0  0
   26.3751  -37.6371   -0.3390 O   0  0  0  0  0  0  0  0  0  0  0  0
   25.1477  -32.3414    2.2914 C   0  0  0  0  0  0  0  0  0  0  0  0
   26.1326  -31.5683    2.3233 O   0  0  0  0  0  0  0  0  0  0  0  0
   26.7048  -37.1140    1.8510 O   0  0  0  0  0  0  0  0  0  0  0  0
   21.4364  -27.6918    5.7260 C   0  0  0  0  0  0  0  0  0  0  0  0
   20.8244  -29.0937    4.7214 S   0  0  0  0  0  0  0  0  0  0  0  0
   22.2908  -29.9069    3.9782 C   0  0  0  0  0  0  0  0  0  0  0  0
   22.8471  -30.9389    4.9020 C   0  0  0  0  0  0  0  0  0  0  0  0
   24.1933  -31.4935    4.4916 C   0  0  2  0  0  0  0  0  0  0  0  0
   24.2214  -32.3133    3.3365 N   0  0  0  0  0  0  0  0  0  0  0  0
   24.9147  -32.0158    5.6296 C   0  0  0  0  0  0  0  0  0  0  0  0
   24.7072  -33.2302    5.9562 O   0  0  0  0  0  0  0  0  0  0  0  0
   28.4524  -31.7627    8.8955 O   0  0  0  0  0  0  0  0  0  0  0  0
   27.7083  -31.0839    7.9165 C   0  0  0  0  0  0  0  0  0  0  0  0
   26.5064  -31.9535    7.5334 C   0  0  2  0  0  0  0  0  0  0  0  0
   25.8380  -31.2781    6.4115 N   0  0  0  0  0  0  0  0  0  0  0  0
   25.5691  -32.0382    8.6679 C   0  0  0  0  0  0  0  0  0  0  0  0
   24.6885  -31.1510    8.8310 O   0  0  0  0  0  0  0  0  0  0  0  0
   25.6608  -33.1074    9.5633 O   0  0  0  0  0  0  0  0  0  0  0  0
  2  1  1  6
  2  3  1  0
  4  5  1  0
  4  3  1  0
  5  6  2  0
  7 15  1  0
  7  2  1  0
  8  7  2  0
  9  5  1  0
 10 11  1  0
 11 12  1  0
 12 13  1  0
 14 13  1  1
 14 15  1  0
 16 21  1  0
 16 14  1  0
 17 16  2  0
 20 19  1  1
 19 18  1  0
 20 21  1  0
 20 22  1  0
 22 24  1  0
 23 22  2  0
M  END
$$$$
