EMS.pdb
     RDKit          3D

 24 23  0  0  1  0  0  0  0  0999 V2000
   22.6249  -13.7058  -17.2858 N   0  0  0  0  0  0  0  0  0  0  0  0
   22.8578  -12.4881  -18.0118 C   0  0  1  0  0  0  0  0  0  0  0  0
   21.5961  -12.0880  -18.7512 C   0  0  0  0  0  0  0  0  0  0  0  0
   21.3039  -13.0957  -19.8503 C   0  0  0  0  0  0  0  0  0  0  0  0
   22.1026  -12.8245  -21.0521 C   0  0  0  0  0  0  0  0  0  0  0  0
   22.2690  -11.6456  -21.4484 O   0  0  0  0  0  0  0  0  0  0  0  0
   23.2386  -11.3807  -17.0792 C   0  0  0  0  0  0  0  0  0  0  0  0
   22.6812  -11.2613  -15.9639 O   0  0  0  0  0  0  0  0  0  0  0  0
   22.6703  -13.8656  -21.7460 O   0  0  0  0  0  0  0  0  0  0  0  0
   27.9208  -12.6135  -15.1146 C   0  0  0  0  0  0  0  0  0  0  0  0
   26.6939  -11.2681  -15.2985 S   0  0  0  0  0  0  0  0  0  0  0  0
   27.1797  -10.2915  -16.7731 C   0  0  0  0  0  0  0  0  0  0  0  0
   26.2701   -9.1221  -16.9550 C   0  0  0  0  0  0  0  0  0  0  0  0
   24.8077   -9.4145  -16.7016 C   0  0  2  0  0  0  0  0  0  0  0  0
   24.2272  -10.4668  -17.4516 N   0  0  0  0  0  0  0  0  0  0  0  0
   24.0301   -8.1975  -16.6526 C   0  0  0  0  0  0  0  0  0  0  0  0
   23.8702   -7.5523  -17.7400 O   0  0  0  0  0  0  0  0  0  0  0  0
   21.8798   -6.9616  -13.4000 O   0  0  0  0  0  0  0  0  0  0  0  0
   21.4172   -6.6158  -14.6805 C   0  0  0  0  0  0  0  0  0  0  0  0
   22.6292   -6.4387  -15.6009 C   0  0  2  0  0  0  0  0  0  0  0  0
   23.4301   -7.6660  -15.4839 N   0  0  0  0  0  0  0  0  0  0  0  0
   23.4388   -5.2938  -15.1463 C   0  0  0  0  0  0  0  0  0  0  0  0
   24.6165   -5.4734  -14.7339 O   0  0  0  0  0  0  0  0  0  0  0  0
   22.8947   -4.0067  -15.1742 O   0  0  0  0  0  0  0  0  0  0  0  0
  2  1  1  1
  2  3  1  0
  4  5  1  0
  4  3  1  0
  5  6  2  0
  7 15  1  0
  7  2  1  0
  8  7  2  0
  9  5  1  0
 10 11  1  0
 11 12  1  0
 12 13  1  0
 14 13  1  6
 14 15  1  0
 16 21  1  0
 16 14  1  0
 17 16  2  0
 20 19  1  1
 19 18  1  0
 20 21  1  0
 20 22  1  0
 22 24  1  0
 23 22  2  0
M  END
$$$$
