EMS.pdb
     RDKit          3D

 24 23  0  0  1  0  0  0  0  0999 V2000
   20.0660  -12.8432  -16.4235 N   0  0  0  0  0  0  0  0  0  0  0  0
   20.4891  -11.6404  -17.0857 C   0  0  1  0  0  0  0  0  0  0  0  0
   19.2870  -10.9456  -17.6946 C   0  0  0  0  0  0  0  0  0  0  0  0
   18.6020  -11.8759  -18.6816 C   0  0  0  0  0  0  0  0  0  0  0  0
   17.5060  -11.1978  -19.3850 C   0  0  0  0  0  0  0  0  0  0  0  0
   16.3376  -11.6512  -19.3219 O   0  0  0  0  0  0  0  0  0  0  0  0
   21.1436  -10.7054  -16.1170 C   0  0  0  0  0  0  0  0  0  0  0  0
   20.6869  -10.5573  -14.9602 O   0  0  0  0  0  0  0  0  0  0  0  0
   17.7602  -10.0623  -20.1154 O   0  0  0  0  0  0  0  0  0  0  0  0
   27.4355  -12.4019  -15.3604 C   0  0  0  0  0  0  0  0  0  0  0  0
   26.9035  -10.7165  -15.8353 S   0  0  0  0  0  0  0  0  0  0  0  0
   25.0990  -10.6117  -15.5244 C   0  0  0  0  0  0  0  0  0  0  0  0
   24.5806   -9.2566  -15.8750 C   0  0  0  0  0  0  0  0  0  0  0  0
   23.0817   -9.1007  -15.7434 C   0  0  2  0  0  0  0  0  0  0  0  0
   22.2780   -9.9871  -16.5020 N   0  0  0  0  0  0  0  0  0  0  0  0
   22.6907   -7.7112  -15.8111 C   0  0  0  0  0  0  0  0  0  0  0  0
   22.5656   -7.1864  -16.9658 O   0  0  0  0  0  0  0  0  0  0  0  0
   19.9528   -4.2869  -15.2596 O   0  0  0  0  0  0  0  0  0  0  0  0
   20.4585   -5.5937  -15.1611 C   0  0  0  0  0  0  0  0  0  0  0  0
   21.9688   -5.5106  -14.9175 C   0  0  2  0  0  0  0  0  0  0  0  0
   22.4350   -6.8859  -14.6878 N   0  0  0  0  0  0  0  0  0  0  0  0
   22.2371   -4.7068  -13.7114 C   0  0  0  0  0  0  0  0  0  0  0  0
   22.6382   -5.2637  -12.6540 O   0  0  0  0  0  0  0  0  0  0  0  0
   22.0445   -3.3229  -13.7449 O   0  0  0  0  0  0  0  0  0  0  0  0
  2  1  1  1
  2  3  1  0
  4  5  1  0
  4  3  1  0
  5  6  2  0
  7 15  1  0
  7  2  1  0
  8  7  2  0
  9  5  1  0
 10 11  1  0
 11 12  1  0
 12 13  1  0
 14 13  1  6
 14 15  1  0
 16 21  1  0
 16 14  1  0
 17 16  2  0
 20 19  1  1
 19 18  1  0
 20 21  1  0
 20 22  1  0
 22 24  1  0
 23 22  2  0
M  END
$$$$
