EMS.pdb
     RDKit          3D

 24 23  0  0  1  0  0  0  0  0999 V2000
   17.5049  -11.9056  -15.9036 N   0  0  0  0  0  0  0  0  0  0  0  0
   18.4540  -11.2661  -16.7722 C   0  0  1  0  0  0  0  0  0  0  0  0
   17.7376  -10.2699  -17.6625 C   0  0  0  0  0  0  0  0  0  0  0  0
   16.8062  -11.0060  -18.6107 C   0  0  0  0  0  0  0  0  0  0  0  0
   17.5266  -11.5074  -19.7878 C   0  0  0  0  0  0  0  0  0  0  0  0
   16.9106  -12.1216  -20.6923 O   0  0  0  0  0  0  0  0  0  0  0  0
   19.4924  -10.5382  -15.9765 C   0  0  0  0  0  0  0  0  0  0  0  0
   19.1713   -9.8493  -14.9810 O   0  0  0  0  0  0  0  0  0  0  0  0
   18.8806  -11.3034  -19.8999 O   0  0  0  0  0  0  0  0  0  0  0  0
   27.3058   -9.8583  -14.6812 C   0  0  0  0  0  0  0  0  0  0  0  0
   26.0304  -10.6995  -15.6885 S   0  0  0  0  0  0  0  0  0  0  0  0
   24.4437   -9.8302  -15.3874 C   0  0  0  0  0  0  0  0  0  0  0  0
   23.3139  -10.5506  -16.0449 C   0  0  0  0  0  0  0  0  0  0  0  0
   21.9555   -9.9184  -15.8363 C   0  0  2  0  0  0  0  0  0  0  0  0
   20.8373  -10.6248  -16.3438 N   0  0  0  0  0  0  0  0  0  0  0  0
   21.9799   -8.5075  -16.1477 C   0  0  0  0  0  0  0  0  0  0  0  0
   21.9945   -8.1722  -17.3772 O   0  0  0  0  0  0  0  0  0  0  0  0
   20.5505   -4.1316  -15.4533 O   0  0  0  0  0  0  0  0  0  0  0  0
   20.6313   -5.4800  -15.0681 C   0  0  0  0  0  0  0  0  0  0  0  0
   21.9144   -6.0750  -15.6572 C   0  0  2  0  0  0  0  0  0  0  0  0
   21.9886   -7.4660  -15.1868 N   0  0  0  0  0  0  0  0  0  0  0  0
   23.0856   -5.3361  -15.1522 C   0  0  0  0  0  0  0  0  0  0  0  0
   23.8793   -5.8833  -14.3399 O   0  0  0  0  0  0  0  0  0  0  0  0
   23.3129   -4.0244  -15.5780 O   0  0  0  0  0  0  0  0  0  0  0  0
  2  1  1  1
  2  3  1  0
  4  5  1  0
  4  3  1  0
  5  6  2  0
  7 15  1  0
  7  2  1  0
  8  7  2  0
  9  5  1  0
 10 11  1  0
 11 12  1  0
 12 13  1  0
 14 13  1  6
 14 15  1  0
 16 21  1  0
 16 14  1  0
 17 16  2  0
 20 19  1  1
 19 18  1  0
 20 21  1  0
 20 22  1  0
 22 24  1  0
 23 22  2  0
M  END
$$$$
