EMS.pdb
     RDKit          3D

 24 23  0  0  1  0  0  0  0  0999 V2000
   27.4470  -20.4796  -17.4194 N   0  0  0  0  0  0  0  0  0  0  0  0
   26.7906  -19.6087  -16.4840 C   0  0  1  0  0  0  0  0  0  0  0  0
   25.8876  -18.6475  -17.2319 C   0  0  0  0  0  0  0  0  0  0  0  0
   26.3938  -18.4683  -18.6532 C   0  0  0  0  0  0  0  0  0  0  0  0
   27.3413  -17.3507  -18.7478 C   0  0  0  0  0  0  0  0  0  0  0  0
   28.3167  -17.4131  -19.5348 O   0  0  0  0  0  0  0  0  0  0  0  0
   25.9589  -20.3972  -15.5209 C   0  0  0  0  0  0  0  0  0  0  0  0
   25.2839  -21.3780  -15.9100 O   0  0  0  0  0  0  0  0  0  0  0  0
   27.1596  -16.2317  -17.9717 O   0  0  0  0  0  0  0  0  0  0  0  0
   24.6557  -21.4561   -7.7125 C   0  0  0  0  0  0  0  0  0  0  0  0
   25.7269  -20.6815   -8.9780 S   0  0  0  0  0  0  0  0  0  0  0  0
   24.9461  -20.9892  -10.6089 C   0  0  0  0  0  0  0  0  0  0  0  0
   25.7766  -20.4158  -11.7085 C   0  0  0  0  0  0  0  0  0  0  0  0
   25.2193  -20.6309  -13.0983 C   0  0  2  0  0  0  0  0  0  0  0  0
   25.9316  -20.0399  -14.1709 N   0  0  0  0  0  0  0  0  0  0  0  0
   23.7892  -20.4261  -13.1278 C   0  0  0  0  0  0  0  0  0  0  0  0
   23.3602  -19.2288  -13.0440 O   0  0  0  0  0  0  0  0  0  0  0  0
   21.2338  -23.3171  -14.3123 O   0  0  0  0  0  0  0  0  0  0  0  0
   20.9295  -21.9838  -14.6329 C   0  0  0  0  0  0  0  0  0  0  0  0
   21.4246  -21.0874  -13.4933 C   0  0  2  0  0  0  0  0  0  0  0  0
   22.8252  -21.4583  -13.2434 N   0  0  0  0  0  0  0  0  0  0  0  0
   20.6363  -21.3468  -12.2750 C   0  0  0  0  0  0  0  0  0  0  0  0
   19.3978  -21.1124  -12.2588 O   0  0  0  0  0  0  0  0  0  0  0  0
   21.2685  -21.8540  -11.1364 O   0  0  0  0  0  0  0  0  0  0  0  0
  2  1  1  6
  2  3  1  0
  4  5  1  0
  4  3  1  0
  5  6  2  0
  7 15  1  0
  7  2  1  0
  8  7  2  0
  9  5  1  0
 10 11  1  0
 11 12  1  0
 12 13  1  0
 14 13  1  1
 14 15  1  0
 16 21  1  0
 16 14  1  0
 17 16  2  0
 20 19  1  6
 19 18  1  0
 20 21  1  0
 20 22  1  0
 22 24  1  0
 23 22  2  0
M  END
$$$$
