EMS.pdb
     RDKit          3D

 24 23  0  0  1  0  0  0  0  0999 V2000
   18.9004  -12.3523  -15.7605 N   0  0  0  0  0  0  0  0  0  0  0  0
   19.7477  -11.5472  -16.5960 C   0  0  1  0  0  0  0  0  0  0  0  0
   18.9144  -10.8806  -17.6728 C   0  0  0  0  0  0  0  0  0  0  0  0
   18.3535  -11.9339  -18.6134 C   0  0  0  0  0  0  0  0  0  0  0  0
   19.3759  -12.4134  -19.5518 C   0  0  0  0  0  0  0  0  0  0  0  0
   19.7959  -11.6644  -20.4668 O   0  0  0  0  0  0  0  0  0  0  0  0
   20.4294  -10.4850  -15.7908 C   0  0  0  0  0  0  0  0  0  0  0  0
   19.8507   -9.9459  -14.8196 O   0  0  0  0  0  0  0  0  0  0  0  0
   19.8752  -13.6874  -19.4279 O   0  0  0  0  0  0  0  0  0  0  0  0
   26.8739  -12.4408  -14.8134 C   0  0  0  0  0  0  0  0  0  0  0  0
   26.3560  -10.8151  -15.4752 S   0  0  0  0  0  0  0  0  0  0  0  0
   24.5628  -10.6386  -15.1330 C   0  0  0  0  0  0  0  0  0  0  0  0
   24.0551   -9.3292  -15.6384 C   0  0  0  0  0  0  0  0  0  0  0  0
   22.5624   -9.1318  -15.4917 C   0  0  2  0  0  0  0  0  0  0  0  0
   21.7267  -10.0866  -16.1216 N   0  0  0  0  0  0  0  0  0  0  0  0
   22.1911   -7.7531  -15.7140 C   0  0  0  0  0  0  0  0  0  0  0  0
   22.1465   -7.3382  -16.9183 O   0  0  0  0  0  0  0  0  0  0  0  0
   19.4844   -4.0768  -14.6416 O   0  0  0  0  0  0  0  0  0  0  0  0
   19.9975   -5.3517  -14.3508 C   0  0  0  0  0  0  0  0  0  0  0  0
   21.3371   -5.5110  -15.0770 C   0  0  2  0  0  0  0  0  0  0  0  0
   21.8718   -6.8252  -14.6916 N   0  0  0  0  0  0  0  0  0  0  0  0
   22.2743   -4.4639  -14.6320 C   0  0  0  0  0  0  0  0  0  0  0  0
   23.2712   -4.7649  -13.9216 O   0  0  0  0  0  0  0  0  0  0  0  0
   22.0528   -3.1342  -15.0012 O   0  0  0  0  0  0  0  0  0  0  0  0
  2  1  1  1
  2  3  1  0
  4  5  1  0
  4  3  1  0
  5  6  2  0
  7 15  1  0
  7  2  1  0
  8  7  2  0
  9  5  1  0
 10 11  1  0
 11 12  1  0
 12 13  1  0
 14 13  1  6
 14 15  1  0
 16 21  1  0
 16 14  1  0
 17 16  2  0
 20 19  1  1
 19 18  1  0
 20 21  1  0
 20 22  1  0
 22 24  1  0
 23 22  2  0
M  END
$$$$
