EMS.pdb
     RDKit          3D

 24 23  0  0  1  0  0  0  0  0999 V2000
   20.6672  -12.7820  -17.5156 N   0  0  0  0  0  0  0  0  0  0  0  0
   20.8332  -11.4358  -17.9892 C   0  0  1  0  0  0  0  0  0  0  0  0
   19.4964  -10.8916  -18.4530 C   0  0  0  0  0  0  0  0  0  0  0  0
   18.8956  -11.8232  -19.4921 C   0  0  0  0  0  0  0  0  0  0  0  0
   17.6340  -11.2917  -20.0229 C   0  0  0  0  0  0  0  0  0  0  0  0
   16.5514  -11.5245  -19.4327 O   0  0  0  0  0  0  0  0  0  0  0  0
   21.3587  -10.5530  -16.9003 C   0  0  0  0  0  0  0  0  0  0  0  0
   20.9750  -10.6969  -15.7167 O   0  0  0  0  0  0  0  0  0  0  0  0
   17.6384  -10.5362  -21.1704 O   0  0  0  0  0  0  0  0  0  0  0  0
   27.2684  -11.5894  -14.9739 C   0  0  0  0  0  0  0  0  0  0  0  0
   26.7410   -9.9362  -15.5552 S   0  0  0  0  0  0  0  0  0  0  0  0
   24.9091   -9.9533  -15.6435 C   0  0  0  0  0  0  0  0  0  0  0  0
   24.3953   -8.6675  -16.2005 C   0  0  0  0  0  0  0  0  0  0  0  0
   22.8911   -8.5994  -16.3472 C   0  0  2  0  0  0  0  0  0  0  0  0
   22.2887   -9.5553  -17.2018 N   0  0  0  0  0  0  0  0  0  0  0  0
   22.4437   -7.2390  -16.5401 C   0  0  0  0  0  0  0  0  0  0  0  0
   22.5189   -6.7515  -17.7152 O   0  0  0  0  0  0  0  0  0  0  0  0
   19.1890   -5.6307  -15.7748 O   0  0  0  0  0  0  0  0  0  0  0  0
   20.1552   -4.8093  -15.1709 C   0  0  0  0  0  0  0  0  0  0  0  0
   21.4964   -5.0434  -15.8735 C   0  0  2  0  0  0  0  0  0  0  0  0
   21.9262   -6.4040  -15.5188 N   0  0  0  0  0  0  0  0  0  0  0  0
   22.4959   -4.0810  -15.3761 C   0  0  0  0  0  0  0  0  0  0  0  0
   23.5404   -4.4908  -14.8014 O   0  0  0  0  0  0  0  0  0  0  0  0
   22.2806   -2.7103  -15.5442 O   0  0  0  0  0  0  0  0  0  0  0  0
  2  1  1  1
  2  3  1  0
  4  5  1  0
  4  3  1  0
  5  6  2  0
  7 15  1  0
  7  2  1  0
  8  7  2  0
  9  5  1  0
 10 11  1  0
 11 12  1  0
 12 13  1  0
 14 13  1  6
 14 15  1  0
 16 21  1  0
 16 14  1  0
 17 16  2  0
 20 19  1  1
 19 18  1  0
 20 21  1  0
 20 22  1  0
 22 24  1  0
 23 22  2  0
M  END
$$$$
