EMS.pdb
     RDKit          3D

 24 23  0  0  1  0  0  0  0  0999 V2000
   24.6816  -15.6644  -19.4243 N   0  0  0  0  0  0  0  0  0  0  0  0
   24.4556  -14.3618  -19.9869 C   0  0  1  0  0  0  0  0  0  0  0  0
   22.9943  -14.2175  -20.3639 C   0  0  0  0  0  0  0  0  0  0  0  0
   22.6234  -15.2712  -21.3938 C   0  0  0  0  0  0  0  0  0  0  0  0
   21.3148  -15.8693  -21.1014 C   0  0  0  0  0  0  0  0  0  0  0  0
   21.0945  -16.3932  -19.9826 O   0  0  0  0  0  0  0  0  0  0  0  0
   24.8043  -13.2915  -18.9999 C   0  0  0  0  0  0  0  0  0  0  0  0
   24.6095  -13.4612  -17.7744 O   0  0  0  0  0  0  0  0  0  0  0  0
   20.3271  -15.8555  -22.0563 O   0  0  0  0  0  0  0  0  0  0  0  0
   30.1697   -7.7342  -17.6907 C   0  0  0  0  0  0  0  0  0  0  0  0
   29.4400   -8.8543  -18.9406 S   0  0  0  0  0  0  0  0  0  0  0  0
   27.8365   -9.4405  -18.2705 C   0  0  0  0  0  0  0  0  0  0  0  0
   27.2306  -10.4648  -19.1713 C   0  0  0  0  0  0  0  0  0  0  0  0
   25.9056  -11.0188  -18.6960 C   0  0  2  0  0  0  0  0  0  0  0  0
   25.3541  -12.0871  -19.4452 N   0  0  0  0  0  0  0  0  0  0  0  0
   24.9797   -9.9582  -18.3708 C   0  0  0  0  0  0  0  0  0  0  0  0
   24.4854   -9.2868  -19.3349 O   0  0  0  0  0  0  0  0  0  0  0  0
   22.3357   -7.4110  -15.2126 O   0  0  0  0  0  0  0  0  0  0  0  0
   23.1724   -8.5173  -15.4344 C   0  0  0  0  0  0  0  0  0  0  0  0
   23.6718   -8.4634  -16.8818 C   0  0  2  0  0  0  0  0  0  0  0  0
   24.5784   -9.6073  -17.0578 N   0  0  0  0  0  0  0  0  0  0  0  0
   24.4260   -7.2166  -17.1040 C   0  0  0  0  0  0  0  0  0  0  0  0
   25.6579   -7.1647  -16.8415 O   0  0  0  0  0  0  0  0  0  0  0  0
   23.7689   -6.0904  -17.6075 O   0  0  0  0  0  0  0  0  0  0  0  0
  2  1  1  1
  2  3  1  0
  4  5  1  0
  4  3  1  0
  5  6  2  0
  7 15  1  0
  7  2  1  0
  8  7  2  0
  9  5  1  0
 10 11  1  0
 11 12  1  0
 12 13  1  0
 14 13  1  6
 14 15  1  0
 16 21  1  0
 16 14  1  0
 17 16  2  0
 20 19  1  1
 19 18  1  0
 20 21  1  0
 20 22  1  0
 22 24  1  0
 23 22  2  0
M  END
$$$$
