EMS.pdb
     RDKit          3D

 24 23  0  0  1  0  0  0  0  0999 V2000
   15.4083  -11.4304  -11.6104 N   0  0  0  0  0  0  0  0  0  0  0  0
   16.2879  -10.2944  -11.6231 C   0  0  1  0  0  0  0  0  0  0  0  0
   16.8499  -10.1024  -13.0180 C   0  0  0  0  0  0  0  0  0  0  0  0
   17.7533  -11.2715  -13.3728 C   0  0  0  0  0  0  0  0  0  0  0  0
   18.3802  -11.0847  -14.6873 C   0  0  0  0  0  0  0  0  0  0  0  0
   18.1443  -11.8893  -15.6209 O   0  0  0  0  0  0  0  0  0  0  0  0
   15.5529   -9.0519  -11.2270 C   0  0  0  0  0  0  0  0  0  0  0  0
   14.4571   -8.7581  -11.7578 O   0  0  0  0  0  0  0  0  0  0  0  0
   19.2288  -10.0246  -14.8964 O   0  0  0  0  0  0  0  0  0  0  0  0
   11.9434   -7.4632   -5.7380 C   0  0  0  0  0  0  0  0  0  0  0  0
   13.6782   -7.0088   -6.1029 S   0  0  0  0  0  0  0  0  0  0  0  0
   13.9153   -7.1905   -7.9125 C   0  0  0  0  0  0  0  0  0  0  0  0
   15.3200   -6.8632   -8.2965 C   0  0  0  0  0  0  0  0  0  0  0  0
   15.6087   -6.9618   -9.7782 C   0  0  2  0  0  0  0  0  0  0  0  0
   16.0905   -8.2062  -10.2539 N   0  0  0  0  0  0  0  0  0  0  0  0
   16.3347   -5.8046  -10.2495 C   0  0  0  0  0  0  0  0  0  0  0  0
   17.5908   -5.7664  -10.0374 O   0  0  0  0  0  0  0  0  0  0  0  0
   16.5929   -4.6020  -13.6324 O   0  0  0  0  0  0  0  0  0  0  0  0
   16.2599   -3.4401  -12.9167 C   0  0  0  0  0  0  0  0  0  0  0  0
   16.6391   -3.6519  -11.4475 C   0  0  2  0  0  0  0  0  0  0  0  0
   15.7541   -4.7066  -10.9316 N   0  0  0  0  0  0  0  0  0  0  0  0
   16.4007   -2.4124  -10.6861 C   0  0  0  0  0  0  0  0  0  0  0  0
   15.4720   -2.3591   -9.8353 O   0  0  0  0  0  0  0  0  0  0  0  0
   17.2093   -1.2950  -10.9118 O   0  0  0  0  0  0  0  0  0  0  0  0
  2  1  1  6
  2  3  1  0
  4  5  1  0
  4  3  1  0
  5  6  2  0
  7 15  1  0
  7  2  1  0
  8  7  2  0
  9  5  1  0
 10 11  1  0
 11 12  1  0
 12 13  1  0
 14 13  1  1
 14 15  1  0
 16 21  1  0
 16 14  1  0
 17 16  2  0
 20 19  1  6
 19 18  1  0
 20 21  1  0
 20 22  1  0
 22 24  1  0
 23 22  2  0
M  END
$$$$
