EMS.pdb
     RDKit          3D

 24 23  0  0  1  0  0  0  0  0999 V2000
   21.7941  -11.3864  -18.6993 N   0  0  0  0  0  0  0  0  0  0  0  0
   20.7843  -11.0335  -17.7402 C   0  0  1  0  0  0  0  0  0  0  0  0
   20.1829  -12.2931  -17.1485 C   0  0  0  0  0  0  0  0  0  0  0  0
   19.6386  -13.1735  -18.2608 C   0  0  0  0  0  0  0  0  0  0  0  0
   19.5963  -14.5842  -17.8557 C   0  0  0  0  0  0  0  0  0  0  0  0
   18.5095  -15.1133  -17.5189 O   0  0  0  0  0  0  0  0  0  0  0  0
   21.3702  -10.2153  -16.6318 C   0  0  0  0  0  0  0  0  0  0  0  0
   20.6994   -9.9475  -15.6086 O   0  0  0  0  0  0  0  0  0  0  0  0
   20.7512  -15.3282  -17.8453 O   0  0  0  0  0  0  0  0  0  0  0  0
   27.4473  -12.5366  -15.0100 C   0  0  0  0  0  0  0  0  0  0  0  0
   27.0913  -10.8199  -15.5345 S   0  0  0  0  0  0  0  0  0  0  0  0
   25.2731  -10.5948  -15.4500 C   0  0  0  0  0  0  0  0  0  0  0  0
   24.9019   -9.1797  -15.7453 C   0  0  0  0  0  0  0  0  0  0  0  0
   23.4138   -8.9240  -15.8401 C   0  0  2  0  0  0  0  0  0  0  0  0
   22.6806   -9.7426  -16.7342 N   0  0  0  0  0  0  0  0  0  0  0  0
   23.1291   -7.5103  -15.9323 C   0  0  0  0  0  0  0  0  0  0  0  0
   23.4678   -6.9061  -17.0021 O   0  0  0  0  0  0  0  0  0  0  0  0
   19.9459   -5.9459  -15.0648 O   0  0  0  0  0  0  0  0  0  0  0  0
   20.8685   -5.2348  -15.8499 C   0  0  0  0  0  0  0  0  0  0  0  0
   22.2421   -5.3185  -15.1765 C   0  0  2  0  0  0  0  0  0  0  0  0
   22.5000   -6.7431  -14.9205 N   0  0  0  0  0  0  0  0  0  0  0  0
   22.2129   -4.5988  -13.8904 C   0  0  0  0  0  0  0  0  0  0  0  0
   22.3670   -5.2268  -12.8083 O   0  0  0  0  0  0  0  0  0  0  0  0
   22.0132   -3.2156  -13.8756 O   0  0  0  0  0  0  0  0  0  0  0  0
  2  1  1  6
  2  3  1  0
  4  5  1  0
  4  3  1  0
  5  6  2  0
  7 15  1  0
  7  2  1  0
  8  7  2  0
  9  5  1  0
 10 11  1  0
 11 12  1  0
 12 13  1  0
 14 13  1  6
 14 15  1  0
 16 21  1  0
 16 14  1  0
 17 16  2  0
 20 19  1  1
 19 18  1  0
 20 21  1  0
 20 22  1  0
 22 24  1  0
 23 22  2  0
M  END
$$$$
