EMS.pdb
     RDKit          3D

 24 23  0  0  1  0  0  0  0  0999 V2000
   16.2103  -10.7007  -15.2120 N   0  0  0  0  0  0  0  0  0  0  0  0
   17.1482  -10.0554  -16.0885 C   0  0  1  0  0  0  0  0  0  0  0  0
   16.4803   -8.8763  -16.7683 C   0  0  0  0  0  0  0  0  0  0  0  0
   15.3994   -9.3734  -17.7133 C   0  0  0  0  0  0  0  0  0  0  0  0
   15.9369   -9.6283  -19.0557 C   0  0  0  0  0  0  0  0  0  0  0  0
   16.9738   -9.0381  -19.4445 O   0  0  0  0  0  0  0  0  0  0  0  0
   18.3336   -9.5583  -15.3212 C   0  0  0  0  0  0  0  0  0  0  0  0
   18.2220   -9.2096  -14.1234 O   0  0  0  0  0  0  0  0  0  0  0  0
   15.3022  -10.5165  -19.8899 O   0  0  0  0  0  0  0  0  0  0  0  0
   26.1246   -9.9242  -14.4501 C   0  0  0  0  0  0  0  0  0  0  0  0
   24.6627  -10.5651  -15.3452 S   0  0  0  0  0  0  0  0  0  0  0  0
   23.2914   -9.3814  -15.0583 C   0  0  0  0  0  0  0  0  0  0  0  0
   22.0395   -9.8531  -15.7202 C   0  0  0  0  0  0  0  0  0  0  0  0
   20.8159   -9.0129  -15.4279 C   0  0  2  0  0  0  0  0  0  0  0  0
   19.5819   -9.4805  -15.9432 N   0  0  0  0  0  0  0  0  0  0  0  0
   21.0781   -7.6092  -15.6490 C   0  0  0  0  0  0  0  0  0  0  0  0
   21.2456   -7.2198  -16.8509 O   0  0  0  0  0  0  0  0  0  0  0  0
   20.2082   -3.1433  -15.0611 O   0  0  0  0  0  0  0  0  0  0  0  0
   20.0456   -4.4994  -14.7333 C   0  0  0  0  0  0  0  0  0  0  0  0
   21.3646   -5.2263  -15.0149 C   0  0  2  0  0  0  0  0  0  0  0  0
   21.1630   -6.6303  -14.6278 N   0  0  0  0  0  0  0  0  0  0  0  0
   22.4391   -4.6510  -14.1859 C   0  0  0  0  0  0  0  0  0  0  0  0
   22.8748   -3.4927  -14.4262 O   0  0  0  0  0  0  0  0  0  0  0  0
   22.9738   -5.3960  -13.1312 O   0  0  0  0  0  0  0  0  0  0  0  0
  2  1  1  1
  2  3  1  0
  4  5  1  0
  4  3  1  0
  5  6  2  0
  7 15  1  0
  7  2  1  0
  8  7  2  0
  9  5  1  0
 10 11  1  0
 11 12  1  0
 12 13  1  0
 14 13  1  6
 14 15  1  0
 16 21  1  0
 16 14  1  0
 17 16  2  0
 20 19  1  1
 19 18  1  0
 20 21  1  0
 20 22  1  0
 22 24  1  0
 23 22  2  0
M  END
$$$$
