HSD.pdb
     RDKit          3D

 25 25  0  0  1  0  0  0  0  0999 V2000
   15.4839  -15.2656    5.3600 N   0  0  0  0  0  0  0  0  0  0  0  0
   16.2831  -16.4525    5.1193 C   0  0  1  0  0  0  0  0  0  0  0  0
   17.7480  -16.0166    5.2470 C   0  0  0  0  0  0  0  0  0  0  0  0
   18.1444  -15.2084    4.0651 C   0  0  0  0  0  0  0  0  0  0  0  0
   18.3783  -13.8465    4.0022 C   0  0  0  0  0  0  0  0  0  0  0  0
   18.7184  -13.4817    2.7530 N   0  0  0  0  0  0  0  0  0  0  0  0
   18.6989  -14.6210    2.0228 C   0  0  0  0  0  0  0  0  0  0  0  0
   18.3559  -15.6600    2.8021 N   0  0  0  0  0  0  0  0  0  0  0  0
   15.9473  -17.4568    6.1587 C   0  0  0  0  0  0  0  0  0  0  0  0
   15.7472  -17.1131    7.3502 O   0  0  0  0  0  0  0  0  0  0  0  0
   13.2556  -20.0417    6.0463 O   0  0  0  0  0  0  0  0  0  0  0  0
   14.4088  -20.7371    6.3204 C   0  0  0  0  0  0  0  0  0  0  0  0
   15.5147  -19.8304    6.8748 C   0  0  2  0  0  0  0  0  0  0  0  0
   15.8354  -18.8458    5.8644 N   0  0  0  0  0  0  0  0  0  0  0  0
   16.7005  -20.6337    7.2571 C   0  0  0  0  0  0  0  0  0  0  0  0
   17.6573  -20.8000    6.4531 O   0  0  0  0  0  0  0  0  0  0  0  0
   16.7688  -21.2235    8.5336 N   0  0  0  0  0  0  0  0  0  0  0  0
   17.8938  -22.0310    8.9976 C   0  0  1  0  0  0  0  0  0  0  0  0
   18.6621  -21.2822   10.0574 C   0  0  0  0  0  0  0  0  0  0  0  0
   19.7918  -22.1095   10.5469 C   0  0  0  0  0  0  0  0  0  0  0  0
   20.1296  -23.2160   10.1082 O   0  0  0  0  0  0  0  0  0  0  0  0
   17.4068  -23.3092    9.5984 C   0  0  0  0  0  0  0  0  0  0  0  0
   18.0572  -24.5092    9.4941 O   0  0  0  0  0  0  0  0  0  0  0  0
   20.5503  -21.5887   11.6084 O   0  0  0  0  0  0  0  0  0  0  0  0
   16.3258  -23.2577   10.2383 O   0  0  0  0  0  0  0  0  0  0  0  0
  2  1  1  1
  3  2  1  0
  4  3  1  0
  5  4  2  0
  6  7  1  0
  6  5  1  0
  7  8  2  0
  8  4  1  0
  9 10  2  0
  9  2  1  0
 11 12  1  0
 13 12  1  6
 13 14  1  0
 14  9  1  0
 15 13  1  0
 15 17  1  0
 16 15  2  0
 18 17  1  0
 18 22  1  0
 18 19  1  1
 19 20  1  0
 20 21  2  0
 22 25  2  0
 22 23  1  0
 24 20  1  0
M  END
$$$$
