HSD.pdb
     RDKit          3D

 25 25  0  0  1  0  0  0  0  0999 V2000
   19.7088  -10.6178  -15.2209 N   0  0  0  0  0  0  0  0  0  0  0  0
   19.1329   -9.2935  -15.3612 C   0  0  1  0  0  0  0  0  0  0  0  0
   17.8249   -9.3073  -14.5603 C   0  0  0  0  0  0  0  0  0  0  0  0
   16.8160  -10.1552  -15.2462 C   0  0  0  0  0  0  0  0  0  0  0  0
   16.1886   -9.9242  -16.4571 C   0  0  0  0  0  0  0  0  0  0  0  0
   15.3352  -10.9228  -16.7462 N   0  0  0  0  0  0  0  0  0  0  0  0
   15.4246  -11.7897  -15.7108 C   0  0  0  0  0  0  0  0  0  0  0  0
   16.3100  -11.3366  -14.8079 N   0  0  0  0  0  0  0  0  0  0  0  0
   20.0840   -8.3106  -14.7859 C   0  0  0  0  0  0  0  0  0  0  0  0
   20.5107   -8.4339  -13.6109 O   0  0  0  0  0  0  0  0  0  0  0  0
   22.7981   -6.4613  -16.9974 O   0  0  0  0  0  0  0  0  0  0  0  0
   22.8629   -6.4854  -15.6248 C   0  0  0  0  0  0  0  0  0  0  0  0
   21.4960   -6.2358  -14.9753 C   0  0  2  0  0  0  0  0  0  0  0  0
   20.5575   -7.1895  -15.5259 N   0  0  0  0  0  0  0  0  0  0  0  0
   21.0600   -4.8379  -15.2061 C   0  0  0  0  0  0  0  0  0  0  0  0
   20.3181   -4.5431  -16.1819 O   0  0  0  0  0  0  0  0  0  0  0  0
   21.4749   -3.8178  -14.3290 N   0  0  0  0  0  0  0  0  0  0  0  0
   21.1525   -2.4053  -14.5135 C   0  0  1  0  0  0  0  0  0  0  0  0
   21.1650   -1.6967  -13.1824 C   0  0  0  0  0  0  0  0  0  0  0  0
   20.7257   -0.2899  -13.3508 C   0  0  0  0  0  0  0  0  0  0  0  0
   19.7684    0.0991  -14.0312 O   0  0  0  0  0  0  0  0  0  0  0  0
   22.1651   -1.7490  -15.3942 C   0  0  0  0  0  0  0  0  0  0  0  0
   21.8707   -0.8021  -16.3379 O   0  0  0  0  0  0  0  0  0  0  0  0
   21.4656    0.6942  -12.6745 O   0  0  0  0  0  0  0  0  0  0  0  0
   23.3617   -2.1041  -15.2426 O   0  0  0  0  0  0  0  0  0  0  0  0
  2  1  1  1
  3  2  1  0
  4  3  1  0
  5  4  2  0
  6  7  1  0
  6  5  1  0
  7  8  2  0
  8  4  1  0
  9 10  2  0
  9  2  1  0
 11 12  1  0
 13 12  1  6
 13 14  1  0
 14  9  1  0
 15 13  1  0
 15 17  1  0
 16 15  2  0
 18 17  1  0
 18 22  1  0
 18 19  1  1
 19 20  1  0
 20 21  2  0
 22 25  2  0
 22 23  1  0
 24 20  1  0
M  END
$$$$
