HSD.pdb
     RDKit          3D

 25 25  0  0  1  0  0  0  0  0999 V2000
   18.3247  -12.7019  -16.6006 N   0  0  0  0  0  0  0  0  0  0  0  0
   19.2878  -11.7679  -17.1530 C   0  0  1  0  0  0  0  0  0  0  0  0
   18.5558  -11.0029  -18.2627 C   0  0  0  0  0  0  0  0  0  0  0  0
   18.3730  -11.8773  -19.4497 C   0  0  0  0  0  0  0  0  0  0  0  0
   19.0510  -13.0412  -19.7647 C   0  0  0  0  0  0  0  0  0  0  0  0
   18.6026  -13.5507  -20.9259 N   0  0  0  0  0  0  0  0  0  0  0  0
   17.6353  -12.7028  -21.3465 C   0  0  0  0  0  0  0  0  0  0  0  0
   17.4919  -11.6975  -20.4672 N   0  0  0  0  0  0  0  0  0  0  0  0
   19.7077  -10.8411  -16.0729 C   0  0  0  0  0  0  0  0  0  0  0  0
   18.8855  -10.4290  -15.2175 O   0  0  0  0  0  0  0  0  0  0  0  0
   23.2709   -8.9419  -13.4495 O   0  0  0  0  0  0  0  0  0  0  0  0
   22.8586   -9.7445  -14.4861 C   0  0  0  0  0  0  0  0  0  0  0  0
   21.4428   -9.3957  -14.9618 C   0  0  2  0  0  0  0  0  0  0  0  0
   21.0482  -10.3757  -15.9505 N   0  0  0  0  0  0  0  0  0  0  0  0
   21.4038   -8.0175  -15.5063 C   0  0  0  0  0  0  0  0  0  0  0  0
   21.6483   -7.7940  -16.7227 O   0  0  0  0  0  0  0  0  0  0  0  0
   21.0903   -6.9360  -14.6613 N   0  0  0  0  0  0  0  0  0  0  0  0
   21.1479   -5.5366  -15.0754 C   0  0  1  0  0  0  0  0  0  0  0  0
   19.7635   -4.9387  -15.0617 C   0  0  0  0  0  0  0  0  0  0  0  0
   19.8110   -3.5349  -15.5386 C   0  0  0  0  0  0  0  0  0  0  0  0
   19.9743   -2.5304  -14.8350 O   0  0  0  0  0  0  0  0  0  0  0  0
   21.9995   -4.7480  -14.1349 C   0  0  0  0  0  0  0  0  0  0  0  0
   22.6936   -3.6202  -14.4817 O   0  0  0  0  0  0  0  0  0  0  0  0
   19.6559   -3.3249  -16.9189 O   0  0  0  0  0  0  0  0  0  0  0  0
   22.0701   -5.1648  -12.9508 O   0  0  0  0  0  0  0  0  0  0  0  0
  2  1  1  1
  3  2  1  0
  4  3  1  0
  5  4  2  0
  6  7  1  0
  6  5  1  0
  7  8  2  0
  8  4  1  0
  9 10  2  0
  9  2  1  0
 11 12  1  0
 13 12  1  6
 13 14  1  0
 14  9  1  0
 15 13  1  0
 15 17  1  0
 16 15  2  0
 18 17  1  0
 18 22  1  0
 18 19  1  1
 19 20  1  0
 20 21  2  0
 22 25  2  0
 22 23  1  0
 24 20  1  0
M  END
$$$$
