HSD.pdb
     RDKit          3D

 25 25  0  0  1  0  0  0  0  0999 V2000
   21.9902  -12.7867  -16.6246 N   0  0  0  0  0  0  0  0  0  0  0  0
   21.2905  -11.5432  -16.8877 C   0  0  1  0  0  0  0  0  0  0  0  0
   19.9476  -11.6429  -16.1536 C   0  0  0  0  0  0  0  0  0  0  0  0
   19.1299  -12.7397  -16.7329 C   0  0  0  0  0  0  0  0  0  0  0  0
   18.5421  -13.8050  -16.0748 C   0  0  0  0  0  0  0  0  0  0  0  0
   17.8799  -14.5905  -16.9428 N   0  0  0  0  0  0  0  0  0  0  0  0
   18.0509  -14.0172  -18.1567 C   0  0  0  0  0  0  0  0  0  0  0  0
   18.7990  -12.9076  -18.0391 N   0  0  0  0  0  0  0  0  0  0  0  0
   22.1017  -10.4290  -16.3379 C   0  0  0  0  0  0  0  0  0  0  0  0
   22.5391  -10.4660  -15.1611 O   0  0  0  0  0  0  0  0  0  0  0  0
   25.0831   -6.7860  -17.0188 O   0  0  0  0  0  0  0  0  0  0  0  0
   24.3208   -7.8316  -17.4818 C   0  0  0  0  0  0  0  0  0  0  0  0
   23.1438   -8.1480  -16.5507 C   0  0  2  0  0  0  0  0  0  0  0  0
   22.4234   -9.2733  -17.1057 N   0  0  0  0  0  0  0  0  0  0  0  0
   22.2724   -6.9590  -16.3945 C   0  0  0  0  0  0  0  0  0  0  0  0
   21.4492   -6.6361  -17.2932 O   0  0  0  0  0  0  0  0  0  0  0  0
   22.3576   -6.1725  -15.2299 N   0  0  0  0  0  0  0  0  0  0  0  0
   21.6175   -4.9291  -15.0318 C   0  0  1  0  0  0  0  0  0  0  0  0
   20.1360   -5.2099  -15.0116 C   0  0  0  0  0  0  0  0  0  0  0  0
   19.3797   -3.9418  -14.8699 C   0  0  0  0  0  0  0  0  0  0  0  0
   19.7523   -2.8240  -15.2472 O   0  0  0  0  0  0  0  0  0  0  0  0
   21.9858   -4.3042  -13.7258 C   0  0  0  0  0  0  0  0  0  0  0  0
   22.7945   -4.8902  -12.7897 O   0  0  0  0  0  0  0  0  0  0  0  0
   18.1218   -4.0157  -14.2489 O   0  0  0  0  0  0  0  0  0  0  0  0
   21.5109   -3.1641  -13.4903 O   0  0  0  0  0  0  0  0  0  0  0  0
  2  1  1  1
  3  2  1  0
  4  3  1  0
  5  4  2  0
  6  7  1  0
  6  5  1  0
  7  8  2  0
  8  4  1  0
  9 10  2  0
  9  2  1  0
 11 12  1  0
 13 12  1  6
 13 14  1  0
 14  9  1  0
 15 13  1  0
 15 17  1  0
 16 15  2  0
 18 17  1  0
 18 22  1  0
 18 19  1  1
 19 20  1  0
 20 21  2  0
 22 25  2  0
 22 23  1  0
 24 20  1  0
M  END
$$$$
