HSD.pdb
     RDKit          3D

 25 25  0  0  1  0  0  0  0  0999 V2000
   21.9058  -13.9223  -16.6104 N   0  0  0  0  0  0  0  0  0  0  0  0
   21.3066  -12.7468  -17.2139 C   0  0  1  0  0  0  0  0  0  0  0  0
   19.9002  -12.6261  -16.6141 C   0  0  0  0  0  0  0  0  0  0  0  0
   19.0564  -13.7649  -17.0594 C   0  0  0  0  0  0  0  0  0  0  0  0
   18.3532  -14.6631  -16.2769 C   0  0  0  0  0  0  0  0  0  0  0  0
   17.7057  -15.5559  -17.0468 N   0  0  0  0  0  0  0  0  0  0  0  0
   18.0022  -15.2190  -18.3235 C   0  0  0  0  0  0  0  0  0  0  0  0
   18.8112  -14.1467  -18.3392 N   0  0  0  0  0  0  0  0  0  0  0  0
   22.1299  -11.5673  -16.8496 C   0  0  0  0  0  0  0  0  0  0  0  0
   22.3453  -11.2747  -15.6472 O   0  0  0  0  0  0  0  0  0  0  0  0
   25.3641   -8.2778  -18.3733 O   0  0  0  0  0  0  0  0  0  0  0  0
   24.5322   -9.3431  -18.6215 C   0  0  0  0  0  0  0  0  0  0  0  0
   23.5316   -9.5751  -17.4824 C   0  0  2  0  0  0  0  0  0  0  0  0
   22.7120  -10.7153  -17.8313 N   0  0  0  0  0  0  0  0  0  0  0  0
   22.7150   -8.3591  -17.2542 C   0  0  0  0  0  0  0  0  0  0  0  0
   21.7225   -8.0981  -17.9865 O   0  0  0  0  0  0  0  0  0  0  0  0
   23.0443   -7.4769  -16.2077 N   0  0  0  0  0  0  0  0  0  0  0  0
   22.3064   -6.2511  -15.9143 C   0  0  1  0  0  0  0  0  0  0  0  0
   22.4236   -5.9185  -14.4481 C   0  0  0  0  0  0  0  0  0  0  0  0
   21.6140   -4.7162  -14.1329 C   0  0  0  0  0  0  0  0  0  0  0  0
   20.6801   -4.2676  -14.8091 O   0  0  0  0  0  0  0  0  0  0  0  0
   22.8661   -5.1054  -16.6927 C   0  0  0  0  0  0  0  0  0  0  0  0
   22.1080   -4.1697  -17.3435 O   0  0  0  0  0  0  0  0  0  0  0  0
   21.9373   -4.0205  -12.9561 O   0  0  0  0  0  0  0  0  0  0  0  0
   24.1191   -5.0126  -16.7408 O   0  0  0  0  0  0  0  0  0  0  0  0
  2  1  1  1
  3  2  1  0
  4  3  1  0
  5  4  2  0
  6  7  1  0
  6  5  1  0
  7  8  2  0
  8  4  1  0
  9 10  2  0
  9  2  1  0
 11 12  1  0
 13 12  1  6
 13 14  1  0
 14  9  1  0
 15 13  1  0
 15 17  1  0
 16 15  2  0
 18 17  1  0
 18 22  1  0
 18 19  1  1
 19 20  1  0
 20 21  2  0
 22 25  2  0
 22 23  1  0
 24 20  1  0
M  END
$$$$
