HSD.pdb
     RDKit          3D

 25 25  0  0  1  0  0  0  0  0999 V2000
   10.7588  -20.1838    2.3330 N   0  0  0  0  0  0  0  0  0  0  0  0
   12.1749  -19.9486    2.1227 C   0  0  1  0  0  0  0  0  0  0  0  0
   12.4277  -18.4841    2.5018 C   0  0  0  0  0  0  0  0  0  0  0  0
   11.7778  -17.5827    1.5158 C   0  0  0  0  0  0  0  0  0  0  0  0
   10.6314  -16.8257    1.6778 C   0  0  0  0  0  0  0  0  0  0  0  0
   10.3570  -16.1361    0.5561 N   0  0  0  0  0  0  0  0  0  0  0  0
   11.3367  -16.4600   -0.3196 C   0  0  0  0  0  0  0  0  0  0  0  0
   12.1919  -17.3264    0.2483 N   0  0  0  0  0  0  0  0  0  0  0  0
   12.9341  -20.8557    3.0186 C   0  0  0  0  0  0  0  0  0  0  0  0
   12.7004  -20.8918    4.2522 O   0  0  0  0  0  0  0  0  0  0  0  0
   16.1478  -23.3740    1.6393 O   0  0  0  0  0  0  0  0  0  0  0  0
   15.1560  -23.8141    2.4827 C   0  0  0  0  0  0  0  0  0  0  0  0
   14.6168  -22.6922    3.3789 C   0  0  2  0  0  0  0  0  0  0  0  0
   13.9549  -21.7225    2.5335 N   0  0  0  0  0  0  0  0  0  0  0  0
   15.7168  -22.0805    4.1620 C   0  0  0  0  0  0  0  0  0  0  0  0
   16.4429  -21.1781    3.6640 O   0  0  0  0  0  0  0  0  0  0  0  0
   15.9624  -22.5063    5.4812 N   0  0  0  0  0  0  0  0  0  0  0  0
   17.0399  -21.9840    6.3174 C   0  0  1  0  0  0  0  0  0  0  0  0
   16.5619  -21.8370    7.7401 C   0  0  0  0  0  0  0  0  0  0  0  0
   15.8267  -20.5587    7.9002 C   0  0  0  0  0  0  0  0  0  0  0  0
   15.7520  -19.6502    7.0637 O   0  0  0  0  0  0  0  0  0  0  0  0
   18.2030  -22.9216    6.3169 C   0  0  0  0  0  0  0  0  0  0  0  0
   19.3598  -22.7183    7.0200 O   0  0  0  0  0  0  0  0  0  0  0  0
   15.1511  -20.3598    9.1157 O   0  0  0  0  0  0  0  0  0  0  0  0
   18.0917  -23.9606    5.6177 O   0  0  0  0  0  0  0  0  0  0  0  0
  2  1  1  1
  3  2  1  0
  4  3  1  0
  5  4  2  0
  6  7  1  0
  6  5  1  0
  7  8  2  0
  8  4  1  0
  9 10  2  0
  9  2  1  0
 11 12  1  0
 13 12  1  6
 13 14  1  0
 14  9  1  0
 15 13  1  0
 15 17  1  0
 16 15  2  0
 18 17  1  0
 18 22  1  0
 18 19  1  1
 19 20  1  0
 20 21  2  0
 22 25  2  0
 22 23  1  0
 24 20  1  0
M  END
$$$$
