HSD.pdb
     RDKit          3D

 25 25  0  0  1  0  0  0  0  0999 V2000
   23.8805  -11.2837  -16.9626 N   0  0  0  0  0  0  0  0  0  0  0  0
   24.1650   -9.9632  -16.4331 C   0  0  1  0  0  0  0  0  0  0  0  0
   25.2798   -9.3801  -17.3104 C   0  0  0  0  0  0  0  0  0  0  0  0
   26.5354  -10.1505  -17.1183 C   0  0  0  0  0  0  0  0  0  0  0  0
   27.6228   -9.8263  -16.3271 C   0  0  0  0  0  0  0  0  0  0  0  0
   28.5713  -10.7761  -16.4139 N   0  0  0  0  0  0  0  0  0  0  0  0
   28.0792  -11.7058  -17.2654 C   0  0  0  0  0  0  0  0  0  0  0  0
   26.8596  -11.3379  -17.6917 N   0  0  0  0  0  0  0  0  0  0  0  0
   22.9333   -9.1432  -16.5448 C   0  0  0  0  0  0  0  0  0  0  0  0
   22.2660   -9.1190  -17.6087 O   0  0  0  0  0  0  0  0  0  0  0  0
   19.2657   -7.0391  -14.2746 O   0  0  0  0  0  0  0  0  0  0  0  0
   20.4437   -7.7469  -14.2671 C   0  0  0  0  0  0  0  0  0  0  0  0
   21.2410   -7.5595  -15.5639 C   0  0  2  0  0  0  0  0  0  0  0  0
   22.4487   -8.3502  -15.4655 N   0  0  0  0  0  0  0  0  0  0  0  0
   21.5388   -6.1245  -15.7865 C   0  0  0  0  0  0  0  0  0  0  0  0
   22.4456   -5.5417  -15.1327 O   0  0  0  0  0  0  0  0  0  0  0  0
   20.8043   -5.3933  -16.7393 N   0  0  0  0  0  0  0  0  0  0  0  0
   20.9627   -3.9586  -16.9626 C   0  0  1  0  0  0  0  0  0  0  0  0
   20.8147   -3.6471  -18.4306 C   0  0  0  0  0  0  0  0  0  0  0  0
   21.0375   -2.2000  -18.6685 C   0  0  0  0  0  0  0  0  0  0  0  0
   21.3417   -1.3584  -17.8141 O   0  0  0  0  0  0  0  0  0  0  0  0
   19.9136   -3.1956  -16.2217 C   0  0  0  0  0  0  0  0  0  0  0  0
   20.0847   -1.9327  -15.7220 O   0  0  0  0  0  0  0  0  0  0  0  0
   20.8894   -1.7406  -19.9878 O   0  0  0  0  0  0  0  0  0  0  0  0
   18.8071   -3.7695  -16.0569 O   0  0  0  0  0  0  0  0  0  0  0  0
  2  1  1  6
  3  2  1  0
  4  3  1  0
  5  4  2  0
  6  7  1  0
  6  5  1  0
  7  8  2  0
  8  4  1  0
  9 10  2  0
  9  2  1  0
 11 12  1  0
 13 12  1  1
 13 14  1  0
 14  9  1  0
 15 13  1  0
 15 17  1  0
 16 15  2  0
 18 17  1  0
 18 22  1  0
 18 19  1  6
 19 20  1  0
 20 21  2  0
 22 25  2  0
 22 23  1  0
 24 20  1  0
M  END
$$$$
