HSD.pdb
     RDKit          3D

 25 25  0  0  1  0  0  0  0  0999 V2000
   28.0102  -21.3040  -16.6387 N   0  0  0  0  0  0  0  0  0  0  0  0
   27.5489  -20.3934  -15.6076 C   0  0  1  0  0  0  0  0  0  0  0  0
   27.1422  -19.1013  -16.3270 C   0  0  0  0  0  0  0  0  0  0  0  0
   28.3482  -18.4026  -16.8412 C   0  0  0  0  0  0  0  0  0  0  0  0
   28.7344  -18.2234  -18.1573 C   0  0  0  0  0  0  0  0  0  0  0  0
   29.8896  -17.5376  -18.2226 N   0  0  0  0  0  0  0  0  0  0  0  0
   30.2348  -17.2824  -16.9391 C   0  0  0  0  0  0  0  0  0  0  0  0
   29.3160  -17.7976  -16.1055 N   0  0  0  0  0  0  0  0  0  0  0  0
   26.3754  -21.0067  -14.9379 C   0  0  0  0  0  0  0  0  0  0  0  0
   25.4957  -21.6120  -15.5994 O   0  0  0  0  0  0  0  0  0  0  0  0
   25.4439  -20.3335  -10.7781 O   0  0  0  0  0  0  0  0  0  0  0  0
   25.2745  -21.5571  -11.3805 C   0  0  0  0  0  0  0  0  0  0  0  0
   24.9872  -21.4296  -12.8817 C   0  0  2  0  0  0  0  0  0  0  0  0
   26.1867  -20.9425  -13.5277 N   0  0  0  0  0  0  0  0  0  0  0  0
   23.8324  -20.5295  -13.1137 C   0  0  0  0  0  0  0  0  0  0  0  0
   24.0050  -19.3326  -13.4702 O   0  0  0  0  0  0  0  0  0  0  0  0
   22.5205  -21.0085  -12.9363 N   0  0  0  0  0  0  0  0  0  0  0  0
   21.3225  -20.2118  -13.1881 C   0  0  1  0  0  0  0  0  0  0  0  0
   21.3059  -19.7471  -14.6227 C   0  0  0  0  0  0  0  0  0  0  0  0
   20.1013  -18.9192  -14.8753 C   0  0  0  0  0  0  0  0  0  0  0  0
   19.5428  -18.1757  -14.0593 O   0  0  0  0  0  0  0  0  0  0  0  0
   20.0935  -21.0282  -12.9541 C   0  0  0  0  0  0  0  0  0  0  0  0
   18.9567  -20.5585  -12.3534 O   0  0  0  0  0  0  0  0  0  0  0  0
   19.5411  -18.9848  -16.1618 O   0  0  0  0  0  0  0  0  0  0  0  0
   20.1261  -22.2237  -13.3421 O   0  0  0  0  0  0  0  0  0  0  0  0
  2  1  1  6
  3  2  1  0
  4  3  1  0
  5  4  2  0
  6  7  1  0
  6  5  1  0
  7  8  2  0
  8  4  1  0
  9 10  2  0
  9  2  1  0
 11 12  1  0
 13 12  1  1
 13 14  1  0
 14  9  1  0
 15 13  1  0
 15 17  1  0
 16 15  2  0
 18 17  1  0
 18 22  1  0
 18 19  1  6
 19 20  1  0
 20 21  2  0
 22 25  2  0
 22 23  1  0
 24 20  1  0
M  END
$$$$
