HSD.pdb
     RDKit          3D

 25 25  0  0  1  0  0  0  0  0999 V2000
   18.5119  -12.7713  -16.8050 N   0  0  0  0  0  0  0  0  0  0  0  0
   18.3072  -11.3443  -16.9690 C   0  0  1  0  0  0  0  0  0  0  0  0
   16.8188  -11.0906  -16.6995 C   0  0  0  0  0  0  0  0  0  0  0  0
   15.9974  -11.6590  -17.7991 C   0  0  0  0  0  0  0  0  0  0  0  0
   15.0137  -12.6280  -17.7162 C   0  0  0  0  0  0  0  0  0  0  0  0
   14.4943  -12.8804  -18.9309 N   0  0  0  0  0  0  0  0  0  0  0  0
   15.1545  -12.0653  -19.7861 C   0  0  0  0  0  0  0  0  0  0  0  0
   16.0568  -11.3302  -19.1153 N   0  0  0  0  0  0  0  0  0  0  0  0
   19.1444  -10.6374  -15.9684 C   0  0  0  0  0  0  0  0  0  0  0  0
   18.9976  -10.8457  -14.7385 O   0  0  0  0  0  0  0  0  0  0  0  0
   23.2875   -9.0806  -14.6084 O   0  0  0  0  0  0  0  0  0  0  0  0
   22.3886   -9.6826  -15.4558 C   0  0  0  0  0  0  0  0  0  0  0  0
   20.9978   -9.0408  -15.3768 C   0  0  2  0  0  0  0  0  0  0  0  0
   20.1459   -9.6972  -16.3447 N   0  0  0  0  0  0  0  0  0  0  0  0
   21.0858   -7.5813  -15.6206 C   0  0  0  0  0  0  0  0  0  0  0  0
   21.2047   -7.1256  -16.7900 O   0  0  0  0  0  0  0  0  0  0  0  0
   21.0369   -6.6830  -14.5377 N   0  0  0  0  0  0  0  0  0  0  0  0
   21.1787   -5.2358  -14.6740 C   0  0  1  0  0  0  0  0  0  0  0  0
   20.0766   -4.5374  -13.9178 C   0  0  0  0  0  0  0  0  0  0  0  0
   18.8066   -4.6181  -14.6798 C   0  0  0  0  0  0  0  0  0  0  0  0
   17.6742   -4.7488  -14.1989 O   0  0  0  0  0  0  0  0  0  0  0  0
   22.4847   -4.7831  -14.1073 C   0  0  0  0  0  0  0  0  0  0  0  0
   23.2913   -3.8390  -14.6834 O   0  0  0  0  0  0  0  0  0  0  0  0
   18.8968   -4.5387  -16.0794 O   0  0  0  0  0  0  0  0  0  0  0  0
   22.8490   -5.3173  -13.0289 O   0  0  0  0  0  0  0  0  0  0  0  0
  2  1  1  1
  3  2  1  0
  4  3  1  0
  5  4  2  0
  6  7  1  0
  6  5  1  0
  7  8  2  0
  8  4  1  0
  9 10  2  0
  9  2  1  0
 11 12  1  0
 13 12  1  6
 13 14  1  0
 14  9  1  0
 15 13  1  0
 15 17  1  0
 16 15  2  0
 18 17  1  0
 18 22  1  0
 18 19  1  1
 19 20  1  0
 20 21  2  0
 22 25  2  0
 22 23  1  0
 24 20  1  0
M  END
$$$$
