HSD.pdb
     RDKit          3D

 25 25  0  0  1  0  0  0  0  0999 V2000
   18.9681  -12.7456  -16.6191 N   0  0  0  0  0  0  0  0  0  0  0  0
   19.2646  -11.4221  -17.1344 C   0  0  1  0  0  0  0  0  0  0  0  0
   17.9245  -10.8266  -17.5839 C   0  0  0  0  0  0  0  0  0  0  0  0
   17.4361  -11.5292  -18.7984 C   0  0  0  0  0  0  0  0  0  0  0  0
   17.7859  -11.2981  -20.1166 C   0  0  0  0  0  0  0  0  0  0  0  0
   17.1302  -12.1403  -20.9350 N   0  0  0  0  0  0  0  0  0  0  0  0
   16.3614  -12.9079  -20.1279 C   0  0  0  0  0  0  0  0  0  0  0  0
   16.5393  -12.5477  -18.8461 N   0  0  0  0  0  0  0  0  0  0  0  0
   19.8485  -10.6158  -16.0341 C   0  0  0  0  0  0  0  0  0  0  0  0
   19.2197  -10.4317  -14.9624 O   0  0  0  0  0  0  0  0  0  0  0  0
   23.8445   -9.1541  -16.1425 O   0  0  0  0  0  0  0  0  0  0  0  0
   23.1566   -9.3852  -14.9754 C   0  0  0  0  0  0  0  0  0  0  0  0
   21.6540   -9.1165  -15.1249 C   0  0  2  0  0  0  0  0  0  0  0  0
   21.1362  -10.0155  -16.1335 N   0  0  0  0  0  0  0  0  0  0  0  0
   21.4139   -7.6967  -15.4772 C   0  0  0  0  0  0  0  0  0  0  0  0
   21.1796   -7.3550  -16.6679 O   0  0  0  0  0  0  0  0  0  0  0  0
   21.4460   -6.7083  -14.4752 N   0  0  0  0  0  0  0  0  0  0  0  0
   21.2808   -5.2806  -14.7351 C   0  0  1  0  0  0  0  0  0  0  0  0
   19.8449   -4.8793  -14.5086 C   0  0  0  0  0  0  0  0  0  0  0  0
   19.6774   -3.4266  -14.7576 C   0  0  0  0  0  0  0  0  0  0  0  0
   20.3442   -2.7389  -15.5405 O   0  0  0  0  0  0  0  0  0  0  0  0
   22.1349   -4.4786  -13.8083 C   0  0  0  0  0  0  0  0  0  0  0  0
   22.5909   -3.2159  -14.0757 O   0  0  0  0  0  0  0  0  0  0  0  0
   18.6667   -2.7687  -14.0371 O   0  0  0  0  0  0  0  0  0  0  0  0
   22.4442   -5.0174  -12.7152 O   0  0  0  0  0  0  0  0  0  0  0  0
  2  1  1  1
  3  2  1  0
  4  3  1  0
  5  4  2  0
  6  7  1  0
  6  5  1  0
  7  8  2  0
  8  4  1  0
  9 10  2  0
  9  2  1  0
 11 12  1  0
 13 12  1  6
 13 14  1  0
 14  9  1  0
 15 13  1  0
 15 17  1  0
 16 15  2  0
 18 17  1  0
 18 22  1  0
 18 19  1  1
 19 20  1  0
 20 21  2  0
 22 25  2  0
 22 23  1  0
 24 20  1  0
M  END
$$$$
