HSD.pdb
     RDKit          3D

 25 25  0  0  1  0  0  0  0  0999 V2000
   18.2496  -11.0090  -17.1386 N   0  0  0  0  0  0  0  0  0  0  0  0
   19.3280  -10.1763  -17.6373 C   0  0  1  0  0  0  0  0  0  0  0  0
   18.7509   -9.3902  -18.8210 C   0  0  0  0  0  0  0  0  0  0  0  0
   18.4543  -10.3109  -19.9486 C   0  0  0  0  0  0  0  0  0  0  0  0
   19.3493  -10.9323  -20.8008 C   0  0  0  0  0  0  0  0  0  0  0  0
   18.6979  -11.6930  -21.6986 N   0  0  0  0  0  0  0  0  0  0  0  0
   17.3831  -11.5506  -21.4112 C   0  0  0  0  0  0  0  0  0  0  0  0
   17.2292  -10.7239  -20.3637 N   0  0  0  0  0  0  0  0  0  0  0  0
   19.7410   -9.2526  -16.5519 C   0  0  0  0  0  0  0  0  0  0  0  0
   18.8928   -8.5724  -15.9231 O   0  0  0  0  0  0  0  0  0  0  0  0
   22.6378   -9.8876  -13.7877 O   0  0  0  0  0  0  0  0  0  0  0  0
   22.8239   -8.7374  -14.5163 C   0  0  0  0  0  0  0  0  0  0  0  0
   21.5109   -8.2035  -15.1024 C   0  0  2  0  0  0  0  0  0  0  0  0
   21.1037   -9.0904  -16.1706 N   0  0  0  0  0  0  0  0  0  0  0  0
   21.6846   -6.8106  -15.5791 C   0  0  0  0  0  0  0  0  0  0  0  0
   21.7911   -6.5550  -16.8090 O   0  0  0  0  0  0  0  0  0  0  0  0
   21.7325   -5.7511  -14.6532 N   0  0  0  0  0  0  0  0  0  0  0  0
   21.9069   -4.3503  -15.0280 C   0  0  1  0  0  0  0  0  0  0  0  0
   20.7658   -3.9076  -15.9089 C   0  0  0  0  0  0  0  0  0  0  0  0
   20.9823   -2.5106  -16.3581 C   0  0  0  0  0  0  0  0  0  0  0  0
   22.0665   -1.9156  -16.3944 O   0  0  0  0  0  0  0  0  0  0  0  0
   21.9147   -3.4814  -13.8128 C   0  0  0  0  0  0  0  0  0  0  0  0
   22.4546   -2.2244  -13.7652 O   0  0  0  0  0  0  0  0  0  0  0  0
   19.8506   -1.7948  -16.7826 O   0  0  0  0  0  0  0  0  0  0  0  0
   21.3853   -3.9549  -12.7754 O   0  0  0  0  0  0  0  0  0  0  0  0
  2  1  1  1
  3  2  1  0
  4  3  1  0
  5  4  2  0
  6  7  1  0
  6  5  1  0
  7  8  2  0
  8  4  1  0
  9 10  2  0
  9  2  1  0
 11 12  1  0
 13 12  1  6
 13 14  1  0
 14  9  1  0
 15 13  1  0
 15 17  1  0
 16 15  2  0
 18 17  1  0
 18 22  1  0
 18 19  1  6
 19 20  1  0
 20 21  2  0
 22 25  2  0
 22 23  1  0
 24 20  1  0
M  END
$$$$
