HSD.pdb
     RDKit          3D

 25 25  0  0  1  0  0  0  0  0999 V2000
   22.5410   -9.9556  -14.9113 N   0  0  0  0  0  0  0  0  0  0  0  0
   21.9934   -9.3482  -16.1097 C   0  0  1  0  0  0  0  0  0  0  0  0
   20.4926   -9.6641  -16.1035 C   0  0  0  0  0  0  0  0  0  0  0  0
   20.2745  -11.1089  -16.3720 C   0  0  0  0  0  0  0  0  0  0  0  0
   20.3312  -11.7692  -17.5862 C   0  0  0  0  0  0  0  0  0  0  0  0
   20.0754  -13.0797  -17.4248 N   0  0  0  0  0  0  0  0  0  0  0  0
   19.8556  -13.2476  -16.0999 C   0  0  0  0  0  0  0  0  0  0  0  0
   19.9732  -12.0710  -15.4624 N   0  0  0  0  0  0  0  0  0  0  0  0
   22.2164   -7.8833  -16.0309 C   0  0  0  0  0  0  0  0  0  0  0  0
   22.0168   -7.2547  -14.9619 O   0  0  0  0  0  0  0  0  0  0  0  0
   23.1319   -5.6905  -19.4738 O   0  0  0  0  0  0  0  0  0  0  0  0
   23.7329   -5.2938  -18.3033 C   0  0  0  0  0  0  0  0  0  0  0  0
   22.9206   -5.7007  -17.0675 C   0  0  2  0  0  0  0  0  0  0  0  0
   22.6627   -7.1221  -17.1489 N   0  0  0  0  0  0  0  0  0  0  0  0
   21.6649   -4.9165  -16.9915 C   0  0  0  0  0  0  0  0  0  0  0  0
   21.6893   -3.6711  -16.7972 O   0  0  0  0  0  0  0  0  0  0  0  0
   20.4224   -5.5624  -17.1370 N   0  0  0  0  0  0  0  0  0  0  0  0
   19.1341   -4.8870  -17.0059 C   0  0  1  0  0  0  0  0  0  0  0  0
   18.0484   -5.7235  -17.6349 C   0  0  0  0  0  0  0  0  0  0  0  0
   16.7456   -5.0204  -17.5408 C   0  0  0  0  0  0  0  0  0  0  0  0
   16.1958   -4.6392  -16.5001 O   0  0  0  0  0  0  0  0  0  0  0  0
   18.7900   -4.6932  -15.5651 C   0  0  0  0  0  0  0  0  0  0  0  0
   19.0105   -5.6242  -14.5861 O   0  0  0  0  0  0  0  0  0  0  0  0
   16.0719   -4.7626  -18.7462 O   0  0  0  0  0  0  0  0  0  0  0  0
   18.2638   -3.5952  -15.2519 O   0  0  0  0  0  0  0  0  0  0  0  0
  2  1  1  1
  3  2  1  0
  4  3  1  0
  5  4  2  0
  6  7  1  0
  6  5  1  0
  7  8  2  0
  8  4  1  0
  9 10  2  0
  9  2  1  0
 11 12  1  0
 13 12  1  6
 13 14  1  0
 14  9  1  0
 15 13  1  0
 15 17  1  0
 16 15  2  0
 18 17  1  0
 18 22  1  0
 18 19  1  1
 19 20  1  0
 20 21  2  0
 22 25  2  0
 22 23  1  0
 24 20  1  0
M  END
$$$$
