WAM.pdb
     RDKit          3D

 28 29  0  0  1  0  0  0  0  0999 V2000
   22.6670  -18.7801  -14.5383 N   0  0  0  0  0  0  0  0  0  0  0  0
   23.9098  -19.3269  -14.0508 C   0  0  1  0  0  0  0  0  0  0  0  0
   23.7337  -20.8147  -13.7420 C   0  0  0  0  0  0  0  0  0  0  0  0
   23.2755  -21.0427  -12.3680 C   0  0  0  0  0  0  0  0  0  0  0  0
   21.9920  -21.3527  -11.9703 C   0  0  0  0  0  0  0  0  0  0  0  0
   21.9981  -21.4776  -10.6317 N   0  0  0  0  0  0  0  0  0  0  0  0
   23.2405  -21.2587  -10.1571 C   0  0  0  0  0  0  0  0  0  0  0  0
   23.7802  -21.2664   -8.8747 C   0  0  0  0  0  0  0  0  0  0  0  0
   25.1235  -20.9977   -8.7138 C   0  0  0  0  0  0  0  0  0  0  0  0
   25.9209  -20.7271   -9.7874 C   0  0  0  0  0  0  0  0  0  0  0  0
   25.4117  -20.7113  -11.0869 C   0  0  0  0  0  0  0  0  0  0  0  0
   24.0639  -20.9813  -11.2451 C   0  0  0  0  0  0  0  0  0  0  0  0
   24.9459  -19.2366  -15.0944 C   0  0  0  0  0  0  0  0  0  0  0  0
   24.6556  -19.0685  -16.3089 O   0  0  0  0  0  0  0  0  0  0  0  0
   28.6270  -18.7714  -14.9224 C   0  0  0  0  0  0  0  0  0  0  0  0
   27.3775  -19.0764  -15.7219 C   0  0  2  0  0  0  0  0  0  0  0  0
   26.3156  -19.3385  -14.7473 N   0  0  0  0  0  0  0  0  0  0  0  0
   27.6045  -20.2871  -16.5500 C   0  0  0  0  0  0  0  0  0  0  0  0
   28.4928  -20.3458  -17.4339 O   0  0  0  0  0  0  0  0  0  0  0  0
   24.8574  -25.7351  -14.8482 C   0  0  0  0  0  0  0  0  0  0  0  0
   25.7571  -26.3504  -16.2826 S   0  0  0  0  0  0  0  0  0  0  0  0
   26.2367  -24.9416  -17.3476 C   0  0  0  0  0  0  0  0  0  0  0  0
   26.7473  -23.8643  -16.4350 C   0  0  0  0  0  0  0  0  0  0  0  0
   26.9806  -22.6155  -17.1993 C   0  0  2  0  0  0  0  0  0  0  0  0
   26.8046  -21.4312  -16.3564 N   0  0  0  0  0  0  0  0  0  0  0  0
   26.1136  -22.5352  -18.3770 C   0  0  0  0  0  0  0  0  0  0  0  0
   26.3692  -23.0671  -19.6161 O   0  0  0  0  0  0  0  0  0  0  0  0
   25.0023  -21.9090  -18.2662 O   0  0  0  0  0  0  0  0  0  0  0  0
  2 13  1  0
  2  1  1  6
  3  2  1  0
  4 12  1  0
  4  3  1  0
  5  4  2  0
  6  5  1  0
  6  7  1  0
  7  8  1  0
  7 12  2  0
  8  9  2  0
  9 10  1  0
 11 10  2  0
 12 11  1  0
 13 14  2  0
 16 15  1  1
 17 16  1  0
 17 13  1  0
 18 16  1  0
 19 18  2  0
 21 20  1  0
 22 23  1  0
 22 21  1  0
 24 23  1  1
 24 25  1  0
 25 18  1  0
 26 24  1  0
 26 27  1  0
 28 26  2  0
M  END
$$$$
