WAM.pdb
     RDKit          3D

 28 29  0  0  1  0  0  0  0  0999 V2000
   26.5131  -22.4949  -12.5721 N   0  0  0  0  0  0  0  0  0  0  0  0
   25.6612  -21.7108  -11.7114 C   0  0  1  0  0  0  0  0  0  0  0  0
   26.3402  -20.3791  -11.3865 C   0  0  0  0  0  0  0  0  0  0  0  0
   27.4983  -20.5510  -10.5040 C   0  0  0  0  0  0  0  0  0  0  0  0
   28.8022  -20.7749  -10.8930 C   0  0  0  0  0  0  0  0  0  0  0  0
   29.5493  -20.8751   -9.7797 N   0  0  0  0  0  0  0  0  0  0  0  0
   28.7701  -20.7233   -8.6904 C   0  0  0  0  0  0  0  0  0  0  0  0
   29.0367  -20.7374   -7.3248 C   0  0  0  0  0  0  0  0  0  0  0  0
   27.9969  -20.5456   -6.4393 C   0  0  0  0  0  0  0  0  0  0  0  0
   26.7223  -20.3442   -6.8829 C   0  0  0  0  0  0  0  0  0  0  0  0
   26.4203  -20.3241   -8.2454 C   0  0  0  0  0  0  0  0  0  0  0  0
   27.4656  -20.5168   -9.1314 C   0  0  0  0  0  0  0  0  0  0  0  0
   24.4055  -21.3806  -12.4077 C   0  0  0  0  0  0  0  0  0  0  0  0
   24.3561  -21.2302  -13.6576 O   0  0  0  0  0  0  0  0  0  0  0  0
   20.8732  -21.4273  -11.2074 C   0  0  0  0  0  0  0  0  0  0  0  0
   21.8923  -21.2901  -12.3193 C   0  0  2  0  0  0  0  0  0  0  0  0
   23.2049  -21.2227  -11.6723 N   0  0  0  0  0  0  0  0  0  0  0  0
   21.6400  -20.0335  -13.0678 C   0  0  0  0  0  0  0  0  0  0  0  0
   21.9966  -18.9087  -12.6420 O   0  0  0  0  0  0  0  0  0  0  0  0
   22.2937  -19.5696  -19.1432 C   0  0  0  0  0  0  0  0  0  0  0  0
   21.1455  -18.1843  -19.0539 S   0  0  0  0  0  0  0  0  0  0  0  0
   20.7814  -17.8107  -17.2998 C   0  0  0  0  0  0  0  0  0  0  0  0
   21.0276  -19.0751  -16.5286 C   0  0  0  0  0  0  0  0  0  0  0  0
   20.7656  -18.8531  -15.0864 C   0  0  2  0  0  0  0  0  0  0  0  0
   20.9751  -20.0766  -14.3097 N   0  0  0  0  0  0  0  0  0  0  0  0
   19.4166  -18.3304  -14.8585 C   0  0  0  0  0  0  0  0  0  0  0  0
   19.0448  -17.0094  -14.8460 O   0  0  0  0  0  0  0  0  0  0  0  0
   18.4731  -19.1691  -14.6441 O   0  0  0  0  0  0  0  0  0  0  0  0
  2 13  1  0
  2  1  1  6
  3  2  1  0
  4 12  1  0
  4  3  1  0
  5  4  2  0
  6  5  1  0
  6  7  1  0
  7  8  1  0
  7 12  2  0
  8  9  2  0
  9 10  1  0
 11 10  2  0
 12 11  1  0
 13 14  2  0
 16 15  1  1
 17 16  1  0
 17 13  1  0
 18 16  1  0
 19 18  2  0
 21 20  1  0
 22 23  1  0
 22 21  1  0
 24 23  1  6
 24 25  1  0
 25 18  1  0
 26 24  1  0
 26 27  1  0
 28 26  2  0
M  END
$$$$
