WAM.pdb
     RDKit          3D

 28 29  0  0  1  0  0  0  0  0999 V2000
   26.0284  -19.3504  -12.5939 N   0  0  0  0  0  0  0  0  0  0  0  0
   26.2917  -20.7627  -12.7254 C   0  0  1  0  0  0  0  0  0  0  0  0
   25.6117  -21.5233  -11.5855 C   0  0  0  0  0  0  0  0  0  0  0  0
   26.0044  -21.0112  -10.2690 C   0  0  0  0  0  0  0  0  0  0  0  0
   25.1697  -20.4639   -9.3175 C   0  0  0  0  0  0  0  0  0  0  0  0
   25.9254  -20.1209   -8.2597 N   0  0  0  0  0  0  0  0  0  0  0  0
   27.2154  -20.4291   -8.4996 C   0  0  0  0  0  0  0  0  0  0  0  0
   28.3791  -20.2866   -7.7502 C   0  0  0  0  0  0  0  0  0  0  0  0
   29.5760  -20.7116   -8.2880 C   0  0  0  0  0  0  0  0  0  0  0  0
   29.6311  -21.2646   -9.5342 C   0  0  0  0  0  0  0  0  0  0  0  0
   28.4830  -21.4222  -10.3122 C   0  0  0  0  0  0  0  0  0  0  0  0
   27.2839  -20.9950   -9.7700 C   0  0  0  0  0  0  0  0  0  0  0  0
   25.7041  -21.2723  -13.9767 C   0  0  0  0  0  0  0  0  0  0  0  0
   24.7135  -20.7170  -14.5223 O   0  0  0  0  0  0  0  0  0  0  0  0
   26.8576  -23.8633  -16.4041 C   0  0  0  0  0  0  0  0  0  0  0  0
   25.8604  -22.8138  -15.9594 C   0  0  2  0  0  0  0  0  0  0  0  0
   26.2513  -22.4186  -14.6040 N   0  0  0  0  0  0  0  0  0  0  0  0
   24.4995  -23.4056  -15.9335 C   0  0  0  0  0  0  0  0  0  0  0  0
   23.9161  -23.8073  -16.9690 O   0  0  0  0  0  0  0  0  0  0  0  0
   22.5421  -28.3670  -13.9378 C   0  0  0  0  0  0  0  0  0  0  0  0
   21.0077  -27.5975  -13.3910 S   0  0  0  0  0  0  0  0  0  0  0  0
   20.9599  -25.8621  -13.9695 C   0  0  0  0  0  0  0  0  0  0  0  0
   22.3856  -25.4055  -14.0844 C   0  0  0  0  0  0  0  0  0  0  0  0
   22.4409  -24.0468  -14.6750 C   0  0  2  0  0  0  0  0  0  0  0  0
   23.8119  -23.5337  -14.7099 N   0  0  0  0  0  0  0  0  0  0  0  0
   21.5664  -23.1136  -13.9614 C   0  0  0  0  0  0  0  0  0  0  0  0
   20.2282  -22.9122  -14.1901 O   0  0  0  0  0  0  0  0  0  0  0  0
   22.0780  -22.4009  -13.0287 O   0  0  0  0  0  0  0  0  0  0  0  0
  2 13  1  0
  2  1  1  1
  3  2  1  0
  4 12  1  0
  4  3  1  0
  5  4  2  0
  6  5  1  0
  6  7  1  0
  7  8  1  0
  7 12  2  0
  8  9  2  0
  9 10  1  0
 11 10  2  0
 12 11  1  0
 13 14  2  0
 16 15  1  1
 17 16  1  0
 17 13  1  0
 18 16  1  0
 19 18  2  0
 21 20  1  0
 22 23  1  0
 22 21  1  0
 24 23  1  1
 24 25  1  0
 25 18  1  0
 26 24  1  0
 26 27  1  0
 28 26  2  0
M  END
$$$$
