WAM.pdb
     RDKit          3D

 28 29  0  0  1  0  0  0  0  0999 V2000
   28.1971  -20.2070  -13.1032 N   0  0  0  0  0  0  0  0  0  0  0  0
   26.9734  -20.9094  -12.8024 C   0  0  1  0  0  0  0  0  0  0  0  0
   26.5684  -20.6433  -11.3514 C   0  0  0  0  0  0  0  0  0  0  0  0
   27.6794  -20.8604  -10.4197 C   0  0  0  0  0  0  0  0  0  0  0  0
   28.9274  -21.3581  -10.7302 C   0  0  0  0  0  0  0  0  0  0  0  0
   29.6450  -21.3997   -9.5940 N   0  0  0  0  0  0  0  0  0  0  0  0
   28.9008  -20.9461   -8.5658 C   0  0  0  0  0  0  0  0  0  0  0  0
   29.1591  -20.7832   -7.2082 C   0  0  0  0  0  0  0  0  0  0  0  0
   28.1651  -20.2803   -6.3950 C   0  0  0  0  0  0  0  0  0  0  0  0
   26.9436  -19.9441   -6.9017 C   0  0  0  0  0  0  0  0  0  0  0  0
   26.6515  -20.0948   -8.2582 C   0  0  0  0  0  0  0  0  0  0  0  0
   27.6507  -20.5995   -9.0715 C   0  0  0  0  0  0  0  0  0  0  0  0
   25.8769  -20.3976  -13.6428 C   0  0  0  0  0  0  0  0  0  0  0  0
   25.6354  -19.1654  -13.7456 O   0  0  0  0  0  0  0  0  0  0  0  0
   24.0961  -21.6450  -16.5235 C   0  0  0  0  0  0  0  0  0  0  0  0
   23.9928  -20.8232  -15.2556 C   0  0  2  0  0  0  0  0  0  0  0  0
   25.0562  -21.2974  -14.3665 N   0  0  0  0  0  0  0  0  0  0  0  0
   22.6712  -21.0576  -14.6219 C   0  0  0  0  0  0  0  0  0  0  0  0
   21.5883  -20.7906  -15.1960 O   0  0  0  0  0  0  0  0  0  0  0  0
   22.0392  -21.2852   -8.3751 C   0  0  0  0  0  0  0  0  0  0  0  0
   20.2876  -21.2241   -8.7917 S   0  0  0  0  0  0  0  0  0  0  0  0
   20.0677  -21.6661  -10.5538 C   0  0  0  0  0  0  0  0  0  0  0  0
   21.3580  -21.3354  -11.2465 C   0  0  0  0  0  0  0  0  0  0  0  0
   21.3083  -21.7815  -12.6595 C   0  0  2  0  0  0  0  0  0  0  0  0
   22.6009  -21.6013  -13.3235 N   0  0  0  0  0  0  0  0  0  0  0  0
   20.2528  -21.0921  -13.4049 C   0  0  0  0  0  0  0  0  0  0  0  0
   19.0954  -21.6511  -13.8860 O   0  0  0  0  0  0  0  0  0  0  0  0
   20.4025  -19.8438  -13.6473 O   0  0  0  0  0  0  0  0  0  0  0  0
  2 13  1  0
  2  1  1  6
  3  2  1  0
  4 12  1  0
  4  3  1  0
  5  4  2  0
  6  5  1  0
  6  7  1  0
  7  8  1  0
  7 12  2  0
  8  9  2  0
  9 10  1  0
 11 10  2  0
 12 11  1  0
 13 14  2  0
 16 15  1  6
 17 16  1  0
 17 13  1  0
 18 16  1  0
 19 18  2  0
 21 20  1  0
 22 23  1  0
 22 21  1  0
 24 23  1  1
 24 25  1  0
 25 18  1  0
 26 24  1  0
 26 27  1  0
 28 26  2  0
M  END
$$$$
