WAM.pdb
     RDKit          3D

 28 29  0  0  1  0  0  0  0  0999 V2000
   14.0700  -26.8210    1.8898 N   0  0  0  0  0  0  0  0  0  0  0  0
   15.3968  -27.3606    2.0616 C   0  0  1  0  0  0  0  0  0  0  0  0
   16.4347  -26.2569    1.8498 C   0  0  0  0  0  0  0  0  0  0  0  0
   16.8416  -26.1439    0.4458 C   0  0  0  0  0  0  0  0  0  0  0  0
   16.0460  -25.7568   -0.6120 C   0  0  0  0  0  0  0  0  0  0  0  0
   16.8013  -25.7873   -1.7238 N   0  0  0  0  0  0  0  0  0  0  0  0
   18.0533  -26.1804   -1.4161 C   0  0  0  0  0  0  0  0  0  0  0  0
   19.2008  -26.3729   -2.1791 C   0  0  0  0  0  0  0  0  0  0  0  0
   20.3571  -26.7891   -1.5529 C   0  0  0  0  0  0  0  0  0  0  0  0
   20.3880  -27.0121   -0.2071 C   0  0  0  0  0  0  0  0  0  0  0  0
   19.2552  -26.8286    0.5874 C   0  0  0  0  0  0  0  0  0  0  0  0
   18.0967  -26.4109   -0.0436 C   0  0  0  0  0  0  0  0  0  0  0  0
   15.5727  -27.8399    3.4436 C   0  0  0  0  0  0  0  0  0  0  0  0
   15.0899  -27.2222    4.4297 O   0  0  0  0  0  0  0  0  0  0  0  0
   16.3287  -31.0600    4.9478 C   0  0  0  0  0  0  0  0  0  0  0  0
   16.4654  -29.5554    5.0536 C   0  0  2  0  0  0  0  0  0  0  0  0
   16.3018  -29.0279    3.6967 N   0  0  0  0  0  0  0  0  0  0  0  0
   17.8188  -29.2172    5.5605 C   0  0  0  0  0  0  0  0  0  0  0  0
   18.8001  -29.0344    4.8005 O   0  0  0  0  0  0  0  0  0  0  0  0
   19.4362  -23.3657    6.8871 C   0  0  0  0  0  0  0  0  0  0  0  0
   19.4517  -24.7417    8.0498 S   0  0  0  0  0  0  0  0  0  0  0  0
   19.4778  -26.3190    7.1223 C   0  0  0  0  0  0  0  0  0  0  0  0
   19.3507  -27.4187    8.1365 C   0  0  0  0  0  0  0  0  0  0  0  0
   19.3635  -28.7392    7.4626 C   0  0  2  0  0  0  0  0  0  0  0  0
   18.0387  -29.0897    6.9467 N   0  0  0  0  0  0  0  0  0  0  0  0
   19.8583  -29.7926    8.3517 C   0  0  0  0  0  0  0  0  0  0  0  0
   20.9346  -30.6132    8.1244 O   0  0  0  0  0  0  0  0  0  0  0  0
   19.2406  -29.9893    9.4560 O   0  0  0  0  0  0  0  0  0  0  0  0
  2 13  1  0
  2  1  1  1
  3  2  1  0
  4 12  1  0
  4  3  1  0
  5  4  2  0
  6  5  1  0
  6  7  1  0
  7  8  1  0
  7 12  2  0
  8  9  2  0
  9 10  1  0
 11 10  2  0
 12 11  1  0
 13 14  2  0
 16 15  1  6
 17 16  1  0
 17 13  1  0
 18 16  1  0
 19 18  2  0
 21 20  1  0
 22 23  1  0
 22 21  1  0
 24 23  1  1
 24 25  1  0
 25 18  1  0
 26 24  1  0
 26 27  1  0
 28 26  2  0
M  END
$$$$
