WAM.pdb
     RDKit          3D

 28 29  0  0  1  0  0  0  0  0999 V2000
   27.7472  -20.8525   -9.9380 N   0  0  0  0  0  0  0  0  0  0  0  0
   26.3688  -21.2417   -9.7662 C   0  0  1  0  0  0  0  0  0  0  0  0
   25.9743  -21.1094   -8.2941 C   0  0  0  0  0  0  0  0  0  0  0  0
   26.7637  -20.0866   -7.6010 C   0  0  0  0  0  0  0  0  0  0  0  0
   27.0528  -18.8193   -8.0616 C   0  0  0  0  0  0  0  0  0  0  0  0
   27.7990  -18.2053   -7.1268 N   0  0  0  0  0  0  0  0  0  0  0  0
   27.9984  -19.0344   -6.0830 C   0  0  0  0  0  0  0  0  0  0  0  0
   28.6843  -18.8961   -4.8803 C   0  0  0  0  0  0  0  0  0  0  0  0
   28.7026  -19.9547   -3.9963 C   0  0  0  0  0  0  0  0  0  0  0  0
   28.0621  -21.1244   -4.2853 C   0  0  0  0  0  0  0  0  0  0  0  0
   27.3651  -21.2964   -5.4823 C   0  0  0  0  0  0  0  0  0  0  0  0
   27.3485  -20.2326   -6.3669 C   0  0  0  0  0  0  0  0  0  0  0  0
   25.4886  -20.3304  -10.5182 C   0  0  0  0  0  0  0  0  0  0  0  0
   25.4096  -19.1032  -10.2442 O   0  0  0  0  0  0  0  0  0  0  0  0
   25.9949  -20.0921  -13.4497 C   0  0  0  0  0  0  0  0  0  0  0  0
   24.5992  -20.1137  -12.8621 C   0  0  2  0  0  0  0  0  0  0  0  0
   24.6982  -20.8246  -11.5850 N   0  0  0  0  0  0  0  0  0  0  0  0
   23.6908  -20.8518  -13.7748 C   0  0  0  0  0  0  0  0  0  0  0  0
   23.4985  -20.5048  -14.9649 O   0  0  0  0  0  0  0  0  0  0  0  0
   20.9244  -26.4616  -12.7740 C   0  0  0  0  0  0  0  0  0  0  0  0
   22.6489  -26.0210  -13.0522 S   0  0  0  0  0  0  0  0  0  0  0  0
   22.7300  -24.4946  -14.0583 C   0  0  0  0  0  0  0  0  0  0  0  0
   21.4309  -23.7709  -13.8511 C   0  0  0  0  0  0  0  0  0  0  0  0
   21.6627  -22.3073  -13.8077 C   0  0  2  0  0  0  0  0  0  0  0  0
   23.0041  -21.9922  -13.3120 N   0  0  0  0  0  0  0  0  0  0  0  0
   20.6487  -21.6254  -13.0004 C   0  0  0  0  0  0  0  0  0  0  0  0
   19.3344  -21.4246  -13.3407 O   0  0  0  0  0  0  0  0  0  0  0  0
   20.9990  -21.1583  -11.8608 O   0  0  0  0  0  0  0  0  0  0  0  0
  2 13  1  0
  2  1  1  1
  3  2  1  0
  4 12  1  0
  4  3  1  0
  5  4  2  0
  6  5  1  0
  6  7  1  0
  7  8  1  0
  7 12  2  0
  8  9  2  0
  9 10  1  0
 11 10  2  0
 12 11  1  0
 13 14  2  0
 16 15  1  6
 17 16  1  0
 17 13  1  0
 18 16  1  0
 19 18  2  0
 21 20  1  0
 22 23  1  0
 22 21  1  0
 24 23  1  1
 24 25  1  0
 25 18  1  0
 26 24  1  0
 26 27  1  0
 28 26  2  0
M  END
$$$$
