WAM.pdb
     RDKit          3D

 28 29  0  0  1  0  0  0  0  0999 V2000
   24.6878  -28.8250  -18.2633 N   0  0  0  0  0  0  0  0  0  0  0  0
   25.9993  -29.1884  -17.7848 C   0  0  1  0  0  0  0  0  0  0  0  0
   26.2369  -28.5673  -16.4071 C   0  0  0  0  0  0  0  0  0  0  0  0
   26.5230  -27.1318  -16.4908 C   0  0  0  0  0  0  0  0  0  0  0  0
   25.6078  -26.1045  -16.3978 C   0  0  0  0  0  0  0  0  0  0  0  0
   26.2788  -24.9466  -16.5266 N   0  0  0  0  0  0  0  0  0  0  0  0
   27.5923  -25.1955  -16.6991 C   0  0  0  0  0  0  0  0  0  0  0  0
   28.6982  -24.3699  -16.8758 C   0  0  0  0  0  0  0  0  0  0  0  0
   29.9430  -24.9442  -17.0273 C   0  0  0  0  0  0  0  0  0  0  0  0
   30.1005  -26.2994  -17.0060 C   0  0  0  0  0  0  0  0  0  0  0  0
   29.0126  -27.1561  -16.8307 C   0  0  0  0  0  0  0  0  0  0  0  0
   27.7651  -26.5770  -16.6790 C   0  0  0  0  0  0  0  0  0  0  0  0
   26.0855  -30.6482  -17.6054 C   0  0  0  0  0  0  0  0  0  0  0  0
   25.0814  -31.3417  -17.2922 O   0  0  0  0  0  0  0  0  0  0  0  0
   28.6743  -33.1744  -18.4254 C   0  0  0  0  0  0  0  0  0  0  0  0
   27.4399  -32.7686  -17.6475 C   0  0  2  0  0  0  0  0  0  0  0  0
   27.3226  -31.3148  -17.7852 N   0  0  0  0  0  0  0  0  0  0  0  0
   27.6199  -33.1212  -16.2170 C   0  0  0  0  0  0  0  0  0  0  0  0
   28.1212  -32.3298  -15.3826 O   0  0  0  0  0  0  0  0  0  0  0  0
   25.6223  -33.0978   -9.4209 C   0  0  0  0  0  0  0  0  0  0  0  0
   25.6413  -32.7247  -11.1833 S   0  0  0  0  0  0  0  0  0  0  0  0
   26.4804  -34.0806  -12.0811 C   0  0  0  0  0  0  0  0  0  0  0  0
   26.5216  -33.6804  -13.5276 C   0  0  0  0  0  0  0  0  0  0  0  0
   27.2494  -34.7007  -14.3195 C   0  0  2  0  0  0  0  0  0  0  0  0
   27.2200  -34.3894  -15.7500 N   0  0  0  0  0  0  0  0  0  0  0  0
   26.7208  -36.0455  -14.0804 C   0  0  0  0  0  0  0  0  0  0  0  0
   27.3128  -37.0343  -13.3352 O   0  0  0  0  0  0  0  0  0  0  0  0
   25.5974  -36.3551  -14.6112 O   0  0  0  0  0  0  0  0  0  0  0  0
  2 13  1  0
  2  1  1  1
  3  2  1  0
  4 12  1  0
  4  3  1  0
  5  4  2  0
  6  5  1  0
  6  7  1  0
  7  8  1  0
  7 12  2  0
  8  9  2  0
  9 10  1  0
 11 10  2  0
 12 11  1  0
 13 14  2  0
 16 15  1  6
 17 16  1  0
 17 13  1  0
 18 16  1  0
 19 18  2  0
 21 20  1  0
 22 23  1  0
 22 21  1  0
 24 23  1  1
 24 25  1  0
 25 18  1  0
 26 24  1  0
 26 27  1  0
 28 26  2  0
M  END
$$$$
