WAM.pdb
     RDKit          3D

 28 29  0  0  1  0  0  0  0  0999 V2000
   26.6836  -19.2279  -11.5087 N   0  0  0  0  0  0  0  0  0  0  0  0
   26.5260  -20.6454  -11.7253 C   0  0  1  0  0  0  0  0  0  0  0  0
   26.2115  -21.3388  -10.3985 C   0  0  0  0  0  0  0  0  0  0  0  0
   27.1545  -20.9612   -9.3413 C   0  0  0  0  0  0  0  0  0  0  0  0
   26.8701  -20.2243   -8.2109 C   0  0  0  0  0  0  0  0  0  0  0  0
   28.0082  -20.1021   -7.5058 N   0  0  0  0  0  0  0  0  0  0  0  0
   29.0125  -20.7348   -8.1444 C   0  0  0  0  0  0  0  0  0  0  0  0
   30.3613  -20.9098   -7.8505 C   0  0  0  0  0  0  0  0  0  0  0  0
   31.1480  -21.6277   -8.7268 C   0  0  0  0  0  0  0  0  0  0  0  0
   30.6238  -22.1629   -9.8672 C   0  0  0  0  0  0  0  0  0  0  0  0
   29.2754  -22.0063  -10.1920 C   0  0  0  0  0  0  0  0  0  0  0  0
   28.4887  -21.2856   -9.3110 C   0  0  0  0  0  0  0  0  0  0  0  0
   25.3757  -20.8967  -12.6110 C   0  0  0  0  0  0  0  0  0  0  0  0
   24.2950  -20.2592  -12.4971 O   0  0  0  0  0  0  0  0  0  0  0  0
   24.8555  -23.1553  -15.5510 C   0  0  0  0  0  0  0  0  0  0  0  0
   24.3693  -22.1023  -14.5771 C   0  0  2  0  0  0  0  0  0  0  0  0
   25.4629  -21.8788  -13.6283 N   0  0  0  0  0  0  0  0  0  0  0  0
   23.1776  -22.6118  -13.8537 C   0  0  0  0  0  0  0  0  0  0  0  0
   23.2452  -23.5257  -12.9970 O   0  0  0  0  0  0  0  0  0  0  0  0
   16.4504  -20.9112  -10.4907 C   0  0  0  0  0  0  0  0  0  0  0  0
   17.9491  -20.4009  -11.3503 S   0  0  0  0  0  0  0  0  0  0  0  0
   18.7871  -21.8762  -12.0358 C   0  0  0  0  0  0  0  0  0  0  0  0
   20.0190  -21.3853  -12.7398 C   0  0  0  0  0  0  0  0  0  0  0  0
   20.7283  -22.5194  -13.3791 C   0  0  2  0  0  0  0  0  0  0  0  0
   21.9064  -22.0647  -14.1203 N   0  0  0  0  0  0  0  0  0  0  0  0
   19.8395  -23.2847  -14.2562 C   0  0  0  0  0  0  0  0  0  0  0  0
   19.1490  -24.4237  -13.9251 O   0  0  0  0  0  0  0  0  0  0  0  0
   19.6760  -22.8724  -15.4573 O   0  0  0  0  0  0  0  0  0  0  0  0
  2 13  1  0
  2  1  1  1
  3  2  1  0
  4 12  1  0
  4  3  1  0
  5  4  2  0
  6  5  1  0
  6  7  1  0
  7  8  1  0
  7 12  2  0
  8  9  2  0
  9 10  1  0
 11 10  2  0
 12 11  1  0
 13 14  2  0
 16 15  1  6
 17 16  1  0
 17 13  1  0
 18 16  1  0
 19 18  2  0
 21 20  1  0
 22 23  1  0
 22 21  1  0
 24 23  1  6
 24 25  1  0
 25 18  1  0
 26 24  1  0
 26 27  1  0
 28 26  2  0
M  END
$$$$
