WAM.pdb
     RDKit          3D

 28 29  0  0  1  0  0  0  0  0999 V2000
   29.1876  -19.6564  -14.6294 N   0  0  0  0  0  0  0  0  0  0  0  0
   28.6784  -21.0054  -14.5868 C   0  0  1  0  0  0  0  0  0  0  0  0
   28.2999  -21.3694  -13.1500 C   0  0  0  0  0  0  0  0  0  0  0  0
   29.4165  -21.1772  -12.2195 C   0  0  0  0  0  0  0  0  0  0  0  0
   29.5242  -20.1965  -11.2561 C   0  0  0  0  0  0  0  0  0  0  0  0
   30.6974  -20.3723  -10.6234 N   0  0  0  0  0  0  0  0  0  0  0  0
   31.3458  -21.4315  -11.1474 C   0  0  0  0  0  0  0  0  0  0  0  0
   32.5693  -22.0297  -10.8624 C   0  0  0  0  0  0  0  0  0  0  0  0
   32.9614  -23.1304  -11.5953 C   0  0  0  0  0  0  0  0  0  0  0  0
   32.1708  -23.6341  -12.5868 C   0  0  0  0  0  0  0  0  0  0  0  0
   30.9381  -23.0583  -12.8984 C   0  0  0  0  0  0  0  0  0  0  0  0
   30.5475  -21.9543  -12.1614 C   0  0  0  0  0  0  0  0  0  0  0  0
   27.4423  -21.1047  -15.3824 C   0  0  0  0  0  0  0  0  0  0  0  0
   26.6565  -20.1292  -15.5174 O   0  0  0  0  0  0  0  0  0  0  0  0
   25.8034  -23.9224  -17.2233 C   0  0  0  0  0  0  0  0  0  0  0  0
   25.7552  -22.5758  -16.5319 C   0  0  2  0  0  0  0  0  0  0  0  0
   27.1057  -22.3220  -16.0242 N   0  0  0  0  0  0  0  0  0  0  0  0
   24.7993  -22.6371  -15.3981 C   0  0  0  0  0  0  0  0  0  0  0  0
   24.9775  -23.3783  -14.4017 O   0  0  0  0  0  0  0  0  0  0  0  0
   23.7401  -21.7157   -9.9610 C   0  0  0  0  0  0  0  0  0  0  0  0
   24.5836  -20.4122  -10.8748 S   0  0  0  0  0  0  0  0  0  0  0  0
   23.5099  -19.8367  -12.2403 C   0  0  0  0  0  0  0  0  0  0  0  0
   24.0875  -20.3949  -13.5087 C   0  0  0  0  0  0  0  0  0  0  0  0
   23.1000  -21.2776  -14.1747 C   0  0  2  0  0  0  0  0  0  0  0  0
   23.6365  -21.8410  -15.4152 N   0  0  0  0  0  0  0  0  0  0  0  0
   21.8415  -20.5758  -14.4371 C   0  0  0  0  0  0  0  0  0  0  0  0
   21.6008  -19.6844  -15.4525 O   0  0  0  0  0  0  0  0  0  0  0  0
   20.8532  -20.7965  -13.6535 O   0  0  0  0  0  0  0  0  0  0  0  0
  2 13  1  0
  2  1  1  1
  3  2  1  0
  4 12  1  0
  4  3  1  0
  5  4  2  0
  6  5  1  0
  6  7  1  0
  7  8  1  0
  7 12  2  0
  8  9  2  0
  9 10  1  0
 11 10  2  0
 12 11  1  0
 13 14  2  0
 16 15  1  1
 17 16  1  0
 17 13  1  0
 18 16  1  0
 19 18  2  0
 21 20  1  0
 22 23  1  0
 22 21  1  0
 24 23  1  6
 24 25  1  0
 25 18  1  0
 26 24  1  0
 26 27  1  0
 28 26  2  0
M  END
$$$$
