WAM.pdb
     RDKit          3D

 28 29  0  0  1  0  0  0  0  0999 V2000
   23.7278  -20.4178  -12.1205 N   0  0  0  0  0  0  0  0  0  0  0  0
   25.1478  -20.1642  -12.1402 C   0  0  1  0  0  0  0  0  0  0  0  0
   25.8808  -21.2716  -11.3811 C   0  0  0  0  0  0  0  0  0  0  0  0
   26.0992  -20.9245   -9.9735 C   0  0  0  0  0  0  0  0  0  0  0  0
   25.1274  -20.6554   -9.0328 C   0  0  0  0  0  0  0  0  0  0  0  0
   25.7473  -20.3823   -7.8715 N   0  0  0  0  0  0  0  0  0  0  0  0
   27.0826  -20.4668   -8.0345 C   0  0  0  0  0  0  0  0  0  0  0  0
   28.1566  -20.2844   -7.1688 C   0  0  0  0  0  0  0  0  0  0  0  0
   29.4384  -20.4490   -7.6509 C   0  0  0  0  0  0  0  0  0  0  0  0
   29.6628  -20.7852   -8.9541 C   0  0  0  0  0  0  0  0  0  0  0  0
   28.6085  -20.9756   -9.8488 C   0  0  0  0  0  0  0  0  0  0  0  0
   27.3238  -20.8099   -9.3623 C   0  0  0  0  0  0  0  0  0  0  0  0
   25.6494  -20.2043  -13.5250 C   0  0  0  0  0  0  0  0  0  0  0  0
   24.9042  -20.5049  -14.4953 O   0  0  0  0  0  0  0  0  0  0  0  0
   28.7585  -18.6433  -14.8207 C   0  0  0  0  0  0  0  0  0  0  0  0
   27.4172  -19.3006  -15.0710 C   0  0  2  0  0  0  0  0  0  0  0  0
   27.0055  -19.8996  -13.7990 N   0  0  0  0  0  0  0  0  0  0  0  0
   27.5718  -20.3630  -16.0958 C   0  0  0  0  0  0  0  0  0  0  0  0
   28.0341  -20.1377  -17.2401 O   0  0  0  0  0  0  0  0  0  0  0  0
   25.0952  -26.3137  -15.4488 C   0  0  0  0  0  0  0  0  0  0  0  0
   26.4546  -26.6825  -16.5719 S   0  0  0  0  0  0  0  0  0  0  0  0
   27.0725  -25.1252  -17.3079 C   0  0  0  0  0  0  0  0  0  0  0  0
   26.9454  -24.0672  -16.2503 C   0  0  0  0  0  0  0  0  0  0  0  0
   27.3237  -22.7444  -16.8028 C   0  0  2  0  0  0  0  0  0  0  0  0
   27.1921  -21.6872  -15.7982 N   0  0  0  0  0  0  0  0  0  0  0  0
   26.5391  -22.4144  -17.9946 C   0  0  0  0  0  0  0  0  0  0  0  0
   26.9659  -22.4832  -19.2972 O   0  0  0  0  0  0  0  0  0  0  0  0
   25.3330  -22.0167  -17.8316 O   0  0  0  0  0  0  0  0  0  0  0  0
  2 13  1  0
  2  1  1  6
  3  2  1  0
  4 12  1  0
  4  3  1  0
  5  4  2  0
  6  5  1  0
  6  7  1  0
  7  8  1  0
  7 12  2  0
  8  9  2  0
  9 10  1  0
 11 10  2  0
 12 11  1  0
 13 14  2  0
 16 15  1  1
 17 16  1  0
 17 13  1  0
 18 16  1  0
 19 18  2  0
 21 20  1  0
 22 23  1  0
 22 21  1  0
 24 23  1  1
 24 25  1  0
 25 18  1  0
 26 24  1  0
 26 27  1  0
 28 26  2  0
M  END
$$$$
