VVM.pdb
     RDKit          3D

 23 22  0  0  1  0  0  0  0  0999 V2000
   20.7165  -20.8925  -12.2714 C   0  0  0  0  0  0  0  0  0  0  0  0
   21.5237  -20.0739  -13.2551 C   0  0  2  0  0  0  0  0  0  0  0  0
   20.5446  -19.6507  -14.3573 C   0  0  0  0  0  0  0  0  0  0  0  0
   22.6287  -20.8699  -13.9072 C   0  0  2  0  0  0  0  0  0  0  0  0
   22.1096  -21.9520  -14.7167 N   0  0  0  0  0  0  0  0  0  0  0  0
   23.6053  -21.4071  -12.9453 C   0  0  0  0  0  0  0  0  0  0  0  0
   23.4041  -22.5369  -12.3809 O   0  0  0  0  0  0  0  0  0  0  0  0
   27.6012  -20.0419  -12.5113 C   0  0  0  0  0  0  0  0  0  0  0  0
   27.0614  -21.4437  -12.2297 C   0  0  2  0  0  0  0  0  0  0  0  0
   27.0739  -22.2242  -13.4985 C   0  0  0  0  0  0  0  0  0  0  0  0
   25.7150  -21.3397  -11.5543 C   0  0  2  0  0  0  0  0  0  0  0  0
   24.8075  -20.7550  -12.5681 N   0  0  0  0  0  0  0  0  0  0  0  0
   25.7032  -20.5430  -10.3306 C   0  0  0  0  0  0  0  0  0  0  0  0
   25.2337  -19.3531  -10.3442 O   0  0  0  0  0  0  0  0  0  0  0  0
   29.7573  -21.2674   -4.6470 C   0  0  0  0  0  0  0  0  0  0  0  0
   28.0323  -21.0532   -4.2431 S   0  0  0  0  0  0  0  0  0  0  0  0
   27.1132  -20.1962   -5.5047 C   0  0  0  0  0  0  0  0  0  0  0  0
   26.8888  -20.9115   -6.7835 C   0  0  0  0  0  0  0  0  0  0  0  0
   26.2147  -20.1726   -7.8814 C   0  0  2  0  0  0  0  0  0  0  0  0
   26.1839  -20.9926   -9.0807 N   0  0  0  0  0  0  0  0  0  0  0  0
   26.7045  -18.8202   -8.1347 C   0  0  0  0  0  0  0  0  0  0  0  0
   27.6545  -18.6656   -8.9764 O   0  0  0  0  0  0  0  0  0  0  0  0
   26.2411  -17.6681   -7.5460 O   0  0  0  0  0  0  0  0  0  0  0  0
  2  1  1  1
  2  3  1  0
  4  2  1  0
  4  6  1  0
  4  5  1  1
  6  7  2  0
  9 11  1  0
  9  8  1  6
 10  9  1  0
 11 13  1  0
 12  6  1  0
 11 12  1  6
 13 14  2  0
 16 15  1  0
 17 18  1  0
 17 16  1  0
 19 18  1  1
 19 21  1  0
 20 19  1  0
 20 13  1  0
 21 22  2  0
 21 23  1  0
M  END
$$$$
