VVM.pdb
     RDKit          3D

 23 22  0  0  1  0  0  0  0  0999 V2000
   19.5956  -14.5456  -16.5913 C   0  0  0  0  0  0  0  0  0  0  0  0
   18.6122  -13.5551  -17.1753 C   0  0  2  0  0  0  0  0  0  0  0  0
   18.0140  -14.2331  -18.4144 C   0  0  0  0  0  0  0  0  0  0  0  0
   19.2735  -12.2760  -17.6296 C   0  0  2  0  0  0  0  0  0  0  0  0
   20.1630  -12.4962  -18.7503 N   0  0  0  0  0  0  0  0  0  0  0  0
   20.0061  -11.5857  -16.5552 C   0  0  0  0  0  0  0  0  0  0  0  0
   19.4388  -11.3474  -15.4341 O   0  0  0  0  0  0  0  0  0  0  0  0
   24.1480  -10.6430  -16.7618 C   0  0  0  0  0  0  0  0  0  0  0  0
   23.4028  -10.9528  -15.4639 C   0  0  2  0  0  0  0  0  0  0  0  0
   23.4949  -12.4155  -15.1975 C   0  0  0  0  0  0  0  0  0  0  0  0
   21.9987  -10.4031  -15.5447 C   0  0  2  0  0  0  0  0  0  0  0  0
   21.3488  -11.1383  -16.6538 N   0  0  0  0  0  0  0  0  0  0  0  0
   21.9166   -8.9616  -15.7632 C   0  0  0  0  0  0  0  0  0  0  0  0
   22.0442   -8.4832  -16.9427 O   0  0  0  0  0  0  0  0  0  0  0  0
   18.4714   -2.7830  -17.4647 C   0  0  0  0  0  0  0  0  0  0  0  0
   18.6196   -4.4970  -16.9900 S   0  0  0  0  0  0  0  0  0  0  0  0
   20.1092   -4.8513  -16.0812 C   0  0  0  0  0  0  0  0  0  0  0  0
   20.3707   -6.2688  -15.7347 C   0  0  0  0  0  0  0  0  0  0  0  0
   21.6073   -6.5789  -14.9731 C   0  0  2  0  0  0  0  0  0  0  0  0
   21.6974   -8.0107  -14.7418 N   0  0  0  0  0  0  0  0  0  0  0  0
   21.8216   -5.7963  -13.7587 C   0  0  0  0  0  0  0  0  0  0  0  0
   21.6230   -6.3611  -12.6289 O   0  0  0  0  0  0  0  0  0  0  0  0
   22.2218   -4.4829  -13.7024 O   0  0  0  0  0  0  0  0  0  0  0  0
  2  1  1  6
  2  3  1  0
  4  2  1  0
  4  6  1  0
  4  5  1  6
  6  7  2  0
  9 11  1  0
  9  8  1  6
 10  9  1  0
 11 13  1  0
 12  6  1  0
 11 12  1  6
 13 14  2  0
 16 15  1  0
 17 18  1  0
 17 16  1  0
 19 18  1  1
 19 21  1  0
 20 19  1  0
 20 13  1  0
 21 22  2  0
 21 23  1  0
M  END
$$$$
