VVM.pdb
     RDKit          3D

 23 22  0  0  1  0  0  0  0  0999 V2000
   19.8081  -18.6058  -15.0113 C   0  0  0  0  0  0  0  0  0  0  0  0
   20.0691  -18.1560  -16.4321 C   0  0  2  0  0  0  0  0  0  0  0  0
   18.8107  -17.3985  -16.8741 C   0  0  0  0  0  0  0  0  0  0  0  0
   20.2633  -19.3125  -17.3832 C   0  0  2  0  0  0  0  0  0  0  0  0
   19.0019  -19.8952  -17.7898 N   0  0  0  0  0  0  0  0  0  0  0  0
   21.1363  -20.3688  -16.8452 C   0  0  0  0  0  0  0  0  0  0  0  0
   20.6577  -21.2807  -16.0870 O   0  0  0  0  0  0  0  0  0  0  0  0
   24.8480  -23.4183  -17.0873 C   0  0  0  0  0  0  0  0  0  0  0  0
   23.9191  -22.3323  -17.6290 C   0  0  2  0  0  0  0  0  0  0  0  0
   24.6599  -21.5328  -18.6445 C   0  0  0  0  0  0  0  0  0  0  0  0
   23.3480  -21.5372  -16.4794 C   0  0  2  0  0  0  0  0  0  0  0  0
   22.5276  -20.4734  -17.1026 N   0  0  0  0  0  0  0  0  0  0  0  0
   24.3426  -20.9609  -15.5789 C   0  0  0  0  0  0  0  0  0  0  0  0
   25.0336  -19.9500  -15.9487 O   0  0  0  0  0  0  0  0  0  0  0  0
   24.0605  -20.6310   -9.3618 C   0  0  0  0  0  0  0  0  0  0  0  0
   25.8426  -20.5720   -9.4361 S   0  0  0  0  0  0  0  0  0  0  0  0
   26.4985  -21.0380  -11.0246 C   0  0  0  0  0  0  0  0  0  0  0  0
   25.5286  -21.4796  -12.0551 C   0  0  0  0  0  0  0  0  0  0  0  0
   25.6564  -20.9041  -13.4183 C   0  0  2  0  0  0  0  0  0  0  0  0
   24.6174  -21.4427  -14.2797 N   0  0  0  0  0  0  0  0  0  0  0  0
   26.9846  -20.9798  -14.0207 C   0  0  0  0  0  0  0  0  0  0  0  0
   27.6894  -19.9142  -14.0738 O   0  0  0  0  0  0  0  0  0  0  0  0
   27.5695  -22.1042  -14.5519 O   0  0  0  0  0  0  0  0  0  0  0  0
  2  1  1  1
  2  3  1  0
  4  2  1  0
  4  6  1  0
  4  5  1  1
  6  7  2  0
  9 11  1  0
  9  8  1  1
 10  9  1  0
 11 13  1  0
 12  6  1  0
 11 12  1  6
 13 14  2  0
 16 15  1  0
 17 18  1  0
 17 16  1  0
 19 18  1  1
 19 21  1  0
 20 19  1  0
 20 13  1  0
 21 22  2  0
 21 23  1  0
M  END
$$$$
