VVM.pdb
     RDKit          3D

 23 22  0  0  1  0  0  0  0  0999 V2000
   28.9097  -19.2749  -16.1262 C   0  0  0  0  0  0  0  0  0  0  0  0
   28.4702  -20.7198  -16.0344 C   0  0  2  0  0  0  0  0  0  0  0  0
   28.9095  -21.3799  -17.3474 C   0  0  0  0  0  0  0  0  0  0  0  0
   26.9713  -20.8675  -15.9285 C   0  0  2  0  0  0  0  0  0  0  0  0
   26.2991  -20.4322  -17.1345 N   0  0  0  0  0  0  0  0  0  0  0  0
   26.3971  -20.1632  -14.7701 C   0  0  0  0  0  0  0  0  0  0  0  0
   26.5026  -18.8929  -14.6670 O   0  0  0  0  0  0  0  0  0  0  0  0
   22.9866  -21.0835  -12.7493 C   0  0  0  0  0  0  0  0  0  0  0  0
   23.7567  -19.7645  -12.8020 C   0  0  2  0  0  0  0  0  0  0  0  0
   23.4582  -19.0883  -14.0953 C   0  0  0  0  0  0  0  0  0  0  0  0
   25.2204  -20.0238  -12.5370 C   0  0  2  0  0  0  0  0  0  0  0  0
   25.7038  -20.7947  -13.7055 N   0  0  0  0  0  0  0  0  0  0  0  0
   25.5011  -20.7389  -11.2952 C   0  0  0  0  0  0  0  0  0  0  0  0
   25.4787  -22.0177  -11.2720 O   0  0  0  0  0  0  0  0  0  0  0  0
   28.6049  -18.5014   -5.6240 C   0  0  0  0  0  0  0  0  0  0  0  0
   29.3205  -19.2937   -7.0540 S   0  0  0  0  0  0  0  0  0  0  0  0
   28.2097  -20.4259   -7.8633 C   0  0  0  0  0  0  0  0  0  0  0  0
   26.7685  -20.0786   -7.8620 C   0  0  0  0  0  0  0  0  0  0  0  0
   25.8780  -20.8145   -8.7953 C   0  0  2  0  0  0  0  0  0  0  0  0
   25.8100  -20.1139  -10.0666 N   0  0  0  0  0  0  0  0  0  0  0  0
   24.5601  -21.1677   -8.2742 C   0  0  0  0  0  0  0  0  0  0  0  0
   23.5523  -20.4771   -8.6517 O   0  0  0  0  0  0  0  0  0  0  0  0
   24.2838  -22.1885   -7.3966 O   0  0  0  0  0  0  0  0  0  0  0  0
  2  1  1  6
  2  3  1  0
  4  2  1  0
  4  6  1  0
  4  5  1  6
  6  7  2  0
  9 11  1  0
  9  8  1  6
 10  9  1  0
 11 13  1  0
 12  6  1  0
 11 12  1  6
 13 14  2  0
 16 15  1  0
 17 18  1  0
 17 16  1  0
 19 18  1  1
 19 21  1  0
 20 19  1  0
 20 13  1  0
 21 22  2  0
 21 23  1  0
M  END
$$$$
