VVM.pdb
     RDKit          3D

 23 22  0  0  1  0  0  0  0  0999 V2000
   21.4602  -17.8912  -18.0454 C   0  0  0  0  0  0  0  0  0  0  0  0
   22.1096  -18.7574  -16.9885 C   0  0  2  0  0  0  0  0  0  0  0  0
   22.3478  -17.8433  -15.7799 C   0  0  0  0  0  0  0  0  0  0  0  0
   23.4506  -19.2992  -17.4221 C   0  0  2  0  0  0  0  0  0  0  0  0
   23.3287  -20.2131  -18.5382 N   0  0  0  0  0  0  0  0  0  0  0  0
   24.1928  -19.9566  -16.3337 C   0  0  0  0  0  0  0  0  0  0  0  0
   23.7717  -21.0562  -15.8349 O   0  0  0  0  0  0  0  0  0  0  0  0
   28.3816  -20.6079  -13.8121 C   0  0  0  0  0  0  0  0  0  0  0  0
   27.5642  -19.9177  -14.9035 C   0  0  2  0  0  0  0  0  0  0  0  0
   27.9342  -18.4751  -14.9374 C   0  0  0  0  0  0  0  0  0  0  0  0
   26.0963  -20.1981  -14.6879 C   0  0  2  0  0  0  0  0  0  0  0  0
   25.3903  -19.4582  -15.7590 N   0  0  0  0  0  0  0  0  0  0  0  0
   25.5858  -19.8160  -13.3742 C   0  0  0  0  0  0  0  0  0  0  0  0
   25.3541  -18.5862  -13.1088 O   0  0  0  0  0  0  0  0  0  0  0  0
   20.2515  -20.8971  -11.0220 C   0  0  0  0  0  0  0  0  0  0  0  0
   20.9767  -20.2142   -9.5413 S   0  0  0  0  0  0  0  0  0  0  0  0
   22.7418  -20.0063   -9.6510 C   0  0  0  0  0  0  0  0  0  0  0  0
   23.3852  -20.3468  -10.9423 C   0  0  0  0  0  0  0  0  0  0  0  0
   24.8690  -20.3276  -11.0032 C   0  0  2  0  0  0  0  0  0  0  0  0
   25.3128  -20.7255  -12.3284 N   0  0  0  0  0  0  0  0  0  0  0  0
   25.5604  -21.0468   -9.9366 C   0  0  0  0  0  0  0  0  0  0  0  0
   26.0928  -22.1765  -10.2115 O   0  0  0  0  0  0  0  0  0  0  0  0
   25.6996  -20.6271   -8.6355 O   0  0  0  0  0  0  0  0  0  0  0  0
  2  1  1  6
  2  3  1  0
  4  2  1  0
  4  6  1  0
  4  5  1  6
  6  7  2  0
  9 11  1  0
  9  8  1  1
 10  9  1  0
 11 13  1  0
 12  6  1  0
 11 12  1  6
 13 14  2  0
 16 15  1  0
 17 18  1  0
 17 16  1  0
 19 18  1  6
 19 21  1  0
 20 19  1  0
 20 13  1  0
 21 22  2  0
 21 23  1  0
M  END
$$$$
