VVM.pdb
     RDKit          3D

 23 22  0  0  1  0  0  0  0  0999 V2000
   29.4177  -20.3882  -13.2524 C   0  0  0  0  0  0  0  0  0  0  0  0
   28.6435  -20.8837  -14.4541 C   0  0  2  0  0  0  0  0  0  0  0  0
   29.6043  -20.7867  -15.6459 C   0  0  0  0  0  0  0  0  0  0  0  0
   27.4407  -20.0262  -14.7667 C   0  0  2  0  0  0  0  0  0  0  0  0
   27.8046  -18.8315  -15.4988 N   0  0  0  0  0  0  0  0  0  0  0  0
   26.6685  -19.6483  -13.5716 C   0  0  0  0  0  0  0  0  0  0  0  0
   26.9134  -18.5507  -12.9627 O   0  0  0  0  0  0  0  0  0  0  0  0
   22.6063  -19.8254  -10.8665 C   0  0  0  0  0  0  0  0  0  0  0  0
   23.4420  -20.2312  -12.0800 C   0  0  2  0  0  0  0  0  0  0  0  0
   23.1010  -21.6341  -12.4473 C   0  0  0  0  0  0  0  0  0  0  0  0
   24.9031  -19.9807  -11.7930 C   0  0  2  0  0  0  0  0  0  0  0  0
   25.6269  -20.4276  -13.0053 N   0  0  0  0  0  0  0  0  0  0  0  0
   25.4190  -20.6561  -10.6057 C   0  0  0  0  0  0  0  0  0  0  0  0
   25.6758  -21.9088  -10.6408 O   0  0  0  0  0  0  0  0  0  0  0  0
   29.4948  -18.4961   -5.8344 C   0  0  0  0  0  0  0  0  0  0  0  0
   28.2350  -19.3616   -4.9132 S   0  0  0  0  0  0  0  0  0  0  0  0
   27.1971  -20.3895   -5.9313 C   0  0  0  0  0  0  0  0  0  0  0  0
   26.8037  -19.8538   -7.2563 C   0  0  0  0  0  0  0  0  0  0  0  0
   25.9929  -20.7265   -8.1433 C   0  0  2  0  0  0  0  0  0  0  0  0
   25.6712  -20.0183   -9.3707 N   0  0  0  0  0  0  0  0  0  0  0  0
   24.8243  -21.3507   -7.5288 C   0  0  0  0  0  0  0  0  0  0  0  0
   23.6774  -20.8216   -7.7281 O   0  0  0  0  0  0  0  0  0  0  0  0
   24.8292  -22.4737   -6.7368 O   0  0  0  0  0  0  0  0  0  0  0  0
  2  1  1  1
  2  3  1  0
  4  2  1  0
  4  6  1  0
  4  5  1  1
  6  7  2  0
  9 11  1  0
  9  8  1  1
 10  9  1  0
 11 13  1  0
 12  6  1  0
 11 12  1  6
 13 14  2  0
 16 15  1  0
 17 18  1  0
 17 16  1  0
 19 18  1  1
 19 21  1  0
 20 19  1  0
 20 13  1  0
 21 22  2  0
 21 23  1  0
M  END
$$$$
