VVM.pdb
     RDKit          3D

 23 22  0  0  1  0  0  0  0  0999 V2000
   21.2341  -21.6169  -14.0871 C   0  0  0  0  0  0  0  0  0  0  0  0
   20.6642  -20.6845  -13.0406 C   0  0  2  0  0  0  0  0  0  0  0  0
   19.7089  -19.7444  -13.7865 C   0  0  0  0  0  0  0  0  0  0  0  0
   21.7218  -19.8317  -12.3818 C   0  0  2  0  0  0  0  0  0  0  0  0
   22.3916  -18.9707  -13.3336 N   0  0  0  0  0  0  0  0  0  0  0  0
   22.7262  -20.6158  -11.6443 C   0  0  0  0  0  0  0  0  0  0  0  0
   22.3617  -21.4980  -10.7932 O   0  0  0  0  0  0  0  0  0  0  0  0
   26.8884  -21.0079  -12.6696 C   0  0  0  0  0  0  0  0  0  0  0  0
   25.9423  -22.0059  -12.0029 C   0  0  2  0  0  0  0  0  0  0  0  0
   25.2003  -22.7428  -13.0638 C   0  0  0  0  0  0  0  0  0  0  0  0
   25.0762  -21.2858  -10.9972 C   0  0  2  0  0  0  0  0  0  0  0  0
   24.1296  -20.4758  -11.7979 N   0  0  0  0  0  0  0  0  0  0  0  0
   25.8048  -20.4438  -10.0525 C   0  0  0  0  0  0  0  0  0  0  0  0
   25.9354  -19.1914  -10.2778 O   0  0  0  0  0  0  0  0  0  0  0  0
   26.8325  -19.3119   -3.6026 C   0  0  0  0  0  0  0  0  0  0  0  0
   28.4103  -19.9022   -4.1914 S   0  0  0  0  0  0  0  0  0  0  0  0
   28.5748  -19.8290   -5.9629 C   0  0  0  0  0  0  0  0  0  0  0  0
   27.4829  -20.4239   -6.7700 C   0  0  0  0  0  0  0  0  0  0  0  0
   27.5719  -20.3082   -8.2480 C   0  0  2  0  0  0  0  0  0  0  0  0
   26.4011  -20.9125   -8.8608 N   0  0  0  0  0  0  0  0  0  0  0  0
   28.8225  -20.7637   -8.8492 C   0  0  0  0  0  0  0  0  0  0  0  0
   28.8547  -21.9287   -9.3755 O   0  0  0  0  0  0  0  0  0  0  0  0
   29.9981  -20.0545   -8.9075 O   0  0  0  0  0  0  0  0  0  0  0  0
  2  1  1  6
  2  3  1  0
  4  2  1  0
  4  6  1  0
  4  5  1  6
  6  7  2  0
  9 11  1  0
  9  8  1  6
 10  9  1  0
 11 13  1  0
 12  6  1  0
 11 12  1  6
 13 14  2  0
 16 15  1  0
 17 18  1  0
 17 16  1  0
 19 18  1  1
 19 21  1  0
 20 19  1  0
 20 13  1  0
 21 22  2  0
 21 23  1  0
M  END
$$$$
