VVM.pdb
     RDKit          3D

 23 22  0  0  1  0  0  0  0  0999 V2000
   17.5903  -11.1171  -17.9319 C   0  0  0  0  0  0  0  0  0  0  0  0
   17.4109  -12.2429  -16.9372 C   0  0  2  0  0  0  0  0  0  0  0  0
   16.3814  -11.7447  -15.9152 C   0  0  0  0  0  0  0  0  0  0  0  0
   18.6806  -12.5649  -16.1861 C   0  0  2  0  0  0  0  0  0  0  0  0
   18.5193  -13.7135  -15.3199 N   0  0  0  0  0  0  0  0  0  0  0  0
   19.1958  -11.4315  -15.4004 C   0  0  0  0  0  0  0  0  0  0  0  0
   18.6739  -11.1361  -14.2709 O   0  0  0  0  0  0  0  0  0  0  0  0
   22.7673   -9.5215  -16.3079 C   0  0  0  0  0  0  0  0  0  0  0  0
   22.1629   -9.4617  -14.9055 C   0  0  2  0  0  0  0  0  0  0  0  0
   22.7018  -10.5960  -14.1043 C   0  0  0  0  0  0  0  0  0  0  0  0
   20.6573   -9.4067  -15.0068 C   0  0  2  0  0  0  0  0  0  0  0  0
   20.2702  -10.5956  -15.8004 N   0  0  0  0  0  0  0  0  0  0  0  0
   20.1280   -8.1878  -15.6119 C   0  0  0  0  0  0  0  0  0  0  0  0
   20.1044   -8.0612  -16.8846 O   0  0  0  0  0  0  0  0  0  0  0  0
   14.9325   -2.3030  -15.4037 C   0  0  0  0  0  0  0  0  0  0  0  0
   15.5726   -3.8546  -14.7972 S   0  0  0  0  0  0  0  0  0  0  0  0
   17.1838   -4.2535  -15.4416 C   0  0  0  0  0  0  0  0  0  0  0  0
   17.7856   -5.5388  -15.0135 C   0  0  0  0  0  0  0  0  0  0  0  0
   19.1551   -5.8561  -15.4927 C   0  0  2  0  0  0  0  0  0  0  0  0
   19.6166   -7.0915  -14.8824 N   0  0  0  0  0  0  0  0  0  0  0  0
   20.1329   -4.7761  -15.3901 C   0  0  0  0  0  0  0  0  0  0  0  0
   20.9866   -4.8176  -14.4391 O   0  0  0  0  0  0  0  0  0  0  0  0
   20.2318   -3.6916  -16.2283 O   0  0  0  0  0  0  0  0  0  0  0  0
  2  1  1  6
  2  3  1  0
  4  2  1  0
  4  6  1  0
  4  5  1  1
  6  7  2  0
  9 11  1  0
  9  8  1  6
 10  9  1  0
 11 13  1  0
 12  6  1  0
 11 12  1  6
 13 14  2  0
 16 15  1  0
 17 18  1  0
 17 16  1  0
 19 18  1  1
 19 21  1  0
 20 19  1  0
 20 13  1  0
 21 22  2  0
 21 23  1  0
M  END
$$$$
