VVM.pdb
     RDKit          3D

 23 22  0  0  1  0  0  0  0  0999 V2000
   19.9633  -15.4213  -16.2952 C   0  0  0  0  0  0  0  0  0  0  0  0
   18.8953  -14.5184  -16.8724 C   0  0  2  0  0  0  0  0  0  0  0  0
   18.2121  -15.3271  -17.9824 C   0  0  0  0  0  0  0  0  0  0  0  0
   19.4652  -13.2700  -17.5022 C   0  0  2  0  0  0  0  0  0  0  0  0
   20.3398  -13.5769  -18.6142 N   0  0  0  0  0  0  0  0  0  0  0  0
   20.1791  -12.4087  -16.5451 C   0  0  0  0  0  0  0  0  0  0  0  0
   19.6651  -12.1429  -15.4046 O   0  0  0  0  0  0  0  0  0  0  0  0
   24.0443  -10.7958  -17.2877 C   0  0  0  0  0  0  0  0  0  0  0  0
   23.5349  -11.1129  -15.8821 C   0  0  2  0  0  0  0  0  0  0  0  0
   23.9652  -12.4917  -15.5177 C   0  0  0  0  0  0  0  0  0  0  0  0
   22.0464  -10.8677  -15.8176 C   0  0  2  0  0  0  0  0  0  0  0  0
   21.4465  -11.8172  -16.7830 N   0  0  0  0  0  0  0  0  0  0  0  0
   21.6372   -9.4987  -16.1183 C   0  0  0  0  0  0  0  0  0  0  0  0
   21.4399   -9.1395  -17.3301 O   0  0  0  0  0  0  0  0  0  0  0  0
   16.5089   -4.7640  -17.7955 C   0  0  0  0  0  0  0  0  0  0  0  0
   17.3411   -6.3066  -17.4595 S   0  0  0  0  0  0  0  0  0  0  0  0
   18.8612   -6.1058  -16.5543 C   0  0  0  0  0  0  0  0  0  0  0  0
   19.6142   -7.3363  -16.2130 C   0  0  0  0  0  0  0  0  0  0  0  0
   20.8719   -7.1860  -15.4375 C   0  0  2  0  0  0  0  0  0  0  0  0
   21.4299   -8.4956  -15.1455 N   0  0  0  0  0  0  0  0  0  0  0  0
   20.7950   -6.3292  -14.2573 C   0  0  0  0  0  0  0  0  0  0  0  0
   20.5203   -5.0912  -14.4220 O   0  0  0  0  0  0  0  0  0  0  0  0
   20.9946   -6.7239  -12.9562 O   0  0  0  0  0  0  0  0  0  0  0  0
  2  1  1  6
  2  3  1  0
  4  2  1  0
  4  6  1  0
  4  5  1  6
  6  7  2  0
  9 11  1  0
  9  8  1  6
 10  9  1  0
 11 13  1  0
 12  6  1  0
 11 12  1  6
 13 14  2  0
 16 15  1  0
 17 18  1  0
 17 16  1  0
 19 18  1  1
 19 21  1  0
 20 19  1  0
 20 13  1  0
 21 22  2  0
 21 23  1  0
M  END
$$$$
