VVM.pdb
     RDKit          3D

 23 22  0  0  1  0  0  0  0  0999 V2000
   23.1181  -20.1013  -18.1726 C   0  0  0  0  0  0  0  0  0  0  0  0
   22.1249  -19.5365  -17.1809 C   0  0  2  0  0  0  0  0  0  0  0  0
   21.3023  -18.4962  -17.9517 C   0  0  0  0  0  0  0  0  0  0  0  0
   22.7923  -18.8269  -16.0273 C   0  0  2  0  0  0  0  0  0  0  0  0
   23.4814  -17.6282  -16.4563 N   0  0  0  0  0  0  0  0  0  0  0  0
   23.7266  -19.6836  -15.2785 C   0  0  0  0  0  0  0  0  0  0  0  0
   23.3456  -20.8183  -14.8281 O   0  0  0  0  0  0  0  0  0  0  0  0
   28.3328  -20.5687  -13.6651 C   0  0  0  0  0  0  0  0  0  0  0  0
   27.3222  -20.0851  -14.7046 C   0  0  2  0  0  0  0  0  0  0  0  0
   27.7005  -18.7102  -15.1353 C   0  0  0  0  0  0  0  0  0  0  0  0
   25.9241  -20.2215  -14.1507 C   0  0  2  0  0  0  0  0  0  0  0  0
   25.0764  -19.3501  -14.9965 N   0  0  0  0  0  0  0  0  0  0  0  0
   25.7858  -19.8650  -12.7415 C   0  0  0  0  0  0  0  0  0  0  0  0
   25.6938  -18.6366  -12.3964 O   0  0  0  0  0  0  0  0  0  0  0  0
   21.2973  -21.7288   -8.6313 C   0  0  0  0  0  0  0  0  0  0  0  0
   22.7250  -21.6855   -7.5614 S   0  0  0  0  0  0  0  0  0  0  0  0
   24.1122  -20.8231   -8.2702 C   0  0  0  0  0  0  0  0  0  0  0  0
   24.4120  -21.0806   -9.6990 C   0  0  0  0  0  0  0  0  0  0  0  0
   25.6136  -20.4314  -10.2824 C   0  0  2  0  0  0  0  0  0  0  0  0
   25.7411  -20.7989  -11.6825 N   0  0  0  0  0  0  0  0  0  0  0  0
   26.8577  -20.6055   -9.5375 C   0  0  0  0  0  0  0  0  0  0  0  0
   27.7422  -21.3996  -10.0089 O   0  0  0  0  0  0  0  0  0  0  0  0
   27.1839  -19.9917   -8.3521 O   0  0  0  0  0  0  0  0  0  0  0  0
  2  1  1  6
  2  3  1  0
  4  2  1  0
  4  6  1  0
  4  5  1  6
  6  7  2  0
  9 11  1  0
  9  8  1  1
 10  9  1  0
 11 13  1  0
 12  6  1  0
 11 12  1  6
 13 14  2  0
 16 15  1  0
 17 18  1  0
 17 16  1  0
 19 18  1  1
 19 21  1  0
 20 19  1  0
 20 13  1  0
 21 22  2  0
 21 23  1  0
M  END
$$$$
