VVM.pdb
     RDKit          3D

 23 22  0  0  1  0  0  0  0  0999 V2000
   21.1008  -35.6217  -13.5943 C   0  0  0  0  0  0  0  0  0  0  0  0
   22.3313  -34.9723  -12.9998 C   0  0  2  0  0  0  0  0  0  0  0  0
   22.3210  -35.3320  -11.5088 C   0  0  0  0  0  0  0  0  0  0  0  0
   22.3045  -33.4664  -13.1062 C   0  0  2  0  0  0  0  0  0  0  0  0
   22.6232  -33.0136  -14.4439 N   0  0  0  0  0  0  0  0  0  0  0  0
   23.1940  -32.7985  -12.1417 C   0  0  0  0  0  0  0  0  0  0  0  0
   24.4483  -32.7065  -12.3736 O   0  0  0  0  0  0  0  0  0  0  0  0
   21.7268  -30.6511   -8.8292 C   0  0  0  0  0  0  0  0  0  0  0  0
   23.0083  -30.2720   -9.5704 C   0  0  2  0  0  0  0  0  0  0  0  0
   22.6656  -29.3127  -10.6573 C   0  0  0  0  0  0  0  0  0  0  0  0
   23.7195  -31.5251  -10.0221 C   0  0  2  0  0  0  0  0  0  0  0  0
   22.7672  -32.2195  -10.9188 N   0  0  0  0  0  0  0  0  0  0  0  0
   24.1493  -32.4089   -8.9421 C   0  0  0  0  0  0  0  0  0  0  0  0
   23.3741  -33.3375   -8.5260 O   0  0  0  0  0  0  0  0  0  0  0  0
   30.2512  -34.6377   -4.2569 C   0  0  0  0  0  0  0  0  0  0  0  0
   29.5907  -33.5277   -5.4883 S   0  0  0  0  0  0  0  0  0  0  0  0
   27.8755  -33.8274   -5.8612 C   0  0  0  0  0  0  0  0  0  0  0  0
   27.2441  -32.9634   -6.8871 C   0  0  0  0  0  0  0  0  0  0  0  0
   25.8179  -33.2114   -7.2190 C   0  0  2  0  0  0  0  0  0  0  0  0
   25.4003  -32.3243   -8.2914 N   0  0  0  0  0  0  0  0  0  0  0  0
   24.8906  -33.2085   -6.0906 C   0  0  0  0  0  0  0  0  0  0  0  0
   24.2497  -32.1324   -5.8335 O   0  0  0  0  0  0  0  0  0  0  0  0
   24.6306  -34.2673   -5.2540 O   0  0  0  0  0  0  0  0  0  0  0  0
  2  1  1  6
  2  3  1  0
  4  2  1  0
  4  6  1  0
  4  5  1  6
  6  7  2  0
  9 11  1  0
  9  8  1  6
 10  9  1  0
 11 13  1  0
 12  6  1  0
 11 12  1  6
 13 14  2  0
 16 15  1  0
 17 18  1  0
 17 16  1  0
 19 18  1  1
 19 21  1  0
 20 19  1  0
 20 13  1  0
 21 22  2  0
 21 23  1  0
M  END
$$$$
