VVM.pdb
     RDKit          3D

 23 22  0  0  1  0  0  0  0  0999 V2000
   21.3418  -21.7364  -13.7962 C   0  0  0  0  0  0  0  0  0  0  0  0
   20.9075  -20.4659  -13.0987 C   0  0  2  0  0  0  0  0  0  0  0  0
   20.1278  -19.6557  -14.1420 C   0  0  0  0  0  0  0  0  0  0  0  0
   22.0744  -19.6222  -12.6446 C   0  0  2  0  0  0  0  0  0  0  0  0
   22.8244  -19.0909  -13.7631 N   0  0  0  0  0  0  0  0  0  0  0  0
   22.9907  -20.3346  -11.7388 C   0  0  0  0  0  0  0  0  0  0  0  0
   22.5323  -21.0154  -10.7580 O   0  0  0  0  0  0  0  0  0  0  0  0
   27.2922  -20.9456  -12.3301 C   0  0  0  0  0  0  0  0  0  0  0  0
   26.2136  -21.8813  -11.7854 C   0  0  2  0  0  0  0  0  0  0  0  0
   25.5862  -22.6033  -12.9274 C   0  0  0  0  0  0  0  0  0  0  0  0
   25.2567  -21.0981  -10.9188 C   0  0  2  0  0  0  0  0  0  0  0  0
   24.4043  -20.3354  -11.8594 N   0  0  0  0  0  0  0  0  0  0  0  0
   25.8936  -20.2024   -9.9574 C   0  0  0  0  0  0  0  0  0  0  0  0
   26.1327  -18.9863  -10.2742 O   0  0  0  0  0  0  0  0  0  0  0  0
   28.7025  -21.6752   -3.4897 C   0  0  0  0  0  0  0  0  0  0  0  0
   27.7333  -20.1915   -3.6998 S   0  0  0  0  0  0  0  0  0  0  0  0
   27.8007  -19.5326   -5.3527 C   0  0  0  0  0  0  0  0  0  0  0  0
   26.9471  -20.1816   -6.3762 C   0  0  0  0  0  0  0  0  0  0  0  0
   27.1222  -19.7636   -7.7905 C   0  0  2  0  0  0  0  0  0  0  0  0
   26.2829  -20.5784   -8.6525 N   0  0  0  0  0  0  0  0  0  0  0  0
   28.5012  -19.6766   -8.2637 C   0  0  0  0  0  0  0  0  0  0  0  0
   28.9838  -20.6657   -8.9147 O   0  0  0  0  0  0  0  0  0  0  0  0
   29.3562  -18.6173   -8.0753 O   0  0  0  0  0  0  0  0  0  0  0  0
  2  1  1  6
  2  3  1  0
  4  2  1  0
  4  6  1  0
  4  5  1  6
  6  7  2  0
  9 11  1  0
  9  8  1  6
 10  9  1  0
 11 13  1  0
 12  6  1  0
 11 12  1  6
 13 14  2  0
 16 15  1  0
 17 18  1  0
 17 16  1  0
 19 18  1  1
 19 21  1  0
 20 19  1  0
 20 13  1  0
 21 22  2  0
 21 23  1  0
M  END
$$$$
