VVM.pdb
     RDKit          3D

 23 22  0  0  1  0  0  0  0  0999 V2000
   18.8560  -34.1447   -7.9362 C   0  0  0  0  0  0  0  0  0  0  0  0
   20.2182  -34.6089   -7.4690 C   0  0  2  0  0  0  0  0  0  0  0  0
   20.6967  -33.5628   -6.4544 C   0  0  0  0  0  0  0  0  0  0  0  0
   21.2322  -34.6580   -8.5866 C   0  0  2  0  0  0  0  0  0  0  0  0
   20.9800  -35.7549   -9.4971 N   0  0  0  0  0  0  0  0  0  0  0  0
   22.6227  -34.7324   -8.1086 C   0  0  0  0  0  0  0  0  0  0  0  0
   23.0580  -35.7950   -7.5456 O   0  0  0  0  0  0  0  0  0  0  0  0
   27.2812  -33.1420   -8.2356 C   0  0  0  0  0  0  0  0  0  0  0  0
   25.8163  -33.0219   -8.6543 C   0  0  2  0  0  0  0  0  0  0  0  0
   25.4605  -31.5778   -8.7389 C   0  0  0  0  0  0  0  0  0  0  0  0
   24.9562  -33.8404   -7.7215 C   0  0  2  0  0  0  0  0  0  0  0  0
   23.5705  -33.6826   -8.2199 N   0  0  0  0  0  0  0  0  0  0  0  0
   25.0447  -33.4605   -6.3144 C   0  0  0  0  0  0  0  0  0  0  0  0
   24.4313  -32.4211   -5.8906 O   0  0  0  0  0  0  0  0  0  0  0  0
   23.1025  -34.8588    0.7866 C   0  0  0  0  0  0  0  0  0  0  0  0
   23.1675  -35.1563   -0.9719 S   0  0  0  0  0  0  0  0  0  0  0  0
   24.5428  -34.3574   -1.7724 C   0  0  0  0  0  0  0  0  0  0  0  0
   24.6481  -34.5029   -3.2439 C   0  0  0  0  0  0  0  0  0  0  0  0
   25.7872  -33.8374   -3.9260 C   0  0  2  0  0  0  0  0  0  0  0  0
   25.7787  -34.1728   -5.3399 N   0  0  0  0  0  0  0  0  0  0  0  0
   27.0976  -34.0250   -3.3092 C   0  0  0  0  0  0  0  0  0  0  0  0
   27.9371  -34.7962   -3.8885 O   0  0  0  0  0  0  0  0  0  0  0  0
   27.5324  -33.4469   -2.1408 O   0  0  0  0  0  0  0  0  0  0  0  0
  2  1  1  6
  2  3  1  0
  4  2  1  0
  4  6  1  0
  4  5  1  6
  6  7  2  0
  9 11  1  0
  9  8  1  1
 10  9  1  0
 11 13  1  0
 12  6  1  0
 11 12  1  6
 13 14  2  0
 16 15  1  0
 17 18  1  0
 17 16  1  0
 19 18  1  1
 19 21  1  0
 20 19  1  0
 20 13  1  0
 21 22  2  0
 21 23  1  0
M  END
$$$$
