VVM.pdb
     RDKit          3D

 23 22  0  0  1  0  0  0  0  0999 V2000
   25.6665  -15.5830  -17.2657 C   0  0  0  0  0  0  0  0  0  0  0  0
   26.9008  -15.5013  -16.3946 C   0  0  2  0  0  0  0  0  0  0  0  0
   28.0445  -15.0688  -17.3208 C   0  0  0  0  0  0  0  0  0  0  0  0
   27.2793  -16.8337  -15.7936 C   0  0  2  0  0  0  0  0  0  0  0  0
   27.3121  -17.8851  -16.7882 N   0  0  0  0  0  0  0  0  0  0  0  0
   26.4032  -17.2416  -14.6830 C   0  0  0  0  0  0  0  0  0  0  0  0
   26.1496  -16.4311  -13.7269 O   0  0  0  0  0  0  0  0  0  0  0  0
   23.5063  -20.8740  -13.5203 C   0  0  0  0  0  0  0  0  0  0  0  0
   23.6695  -19.4179  -13.9548 C   0  0  2  0  0  0  0  0  0  0  0  0
   23.5435  -19.3447  -15.4373 C   0  0  0  0  0  0  0  0  0  0  0  0
   24.9573  -18.8650  -13.3928 C   0  0  2  0  0  0  0  0  0  0  0  0
   25.7843  -18.5132  -14.5699 N   0  0  0  0  0  0  0  0  0  0  0  0
   25.6800  -19.7741  -12.5077 C   0  0  0  0  0  0  0  0  0  0  0  0
   26.3899  -20.7183  -12.9986 O   0  0  0  0  0  0  0  0  0  0  0  0
   27.6278  -18.2126   -6.4543 C   0  0  0  0  0  0  0  0  0  0  0  0
   27.7686  -19.9896   -6.3692 S   0  0  0  0  0  0  0  0  0  0  0  0
   27.3287  -20.8061   -7.8892 C   0  0  0  0  0  0  0  0  0  0  0  0
   26.6580  -19.9885   -8.9281 C   0  0  0  0  0  0  0  0  0  0  0  0
   26.3431  -20.6394  -10.2253 C   0  0  2  0  0  0  0  0  0  0  0  0
   25.6633  -19.6964  -11.0973 N   0  0  0  0  0  0  0  0  0  0  0  0
   25.6586  -21.9269  -10.1433 C   0  0  0  0  0  0  0  0  0  0  0  0
   24.3886  -21.9316   -9.9944 O   0  0  0  0  0  0  0  0  0  0  0  0
   26.2522  -23.1646  -10.2083 O   0  0  0  0  0  0  0  0  0  0  0  0
  2  1  1  6
  2  3  1  0
  4  2  1  0
  4  6  1  0
  4  5  1  6
  6  7  2  0
  9 11  1  0
  9  8  1  6
 10  9  1  0
 11 13  1  0
 12  6  1  0
 11 12  1  6
 13 14  2  0
 16 15  1  0
 17 18  1  0
 17 16  1  0
 19 18  1  1
 19 21  1  0
 20 19  1  0
 20 13  1  0
 21 22  2  0
 21 23  1  0
M  END
$$$$
