VVM.pdb
     RDKit          3D

 23 22  0  0  1  0  0  0  0  0999 V2000
   19.2222  -26.0998  -14.3277 C   0  0  0  0  0  0  0  0  0  0  0  0
   20.4160  -25.5358  -13.5889 C   0  0  2  0  0  0  0  0  0  0  0  0
   21.6528  -25.9878  -14.3755 C   0  0  0  0  0  0  0  0  0  0  0  0
   20.5436  -26.0796  -12.1861 C   0  0  2  0  0  0  0  0  0  0  0  0
   20.8324  -27.4982  -12.1809 N   0  0  0  0  0  0  0  0  0  0  0  0
   19.3587  -25.8213  -11.3513 C   0  0  0  0  0  0  0  0  0  0  0  0
   18.8379  -24.6540  -11.3096 O   0  0  0  0  0  0  0  0  0  0  0  0
   16.1679  -28.5244   -9.8682 C   0  0  0  0  0  0  0  0  0  0  0  0
   16.3535  -27.1099  -10.4161 C   0  0  2  0  0  0  0  0  0  0  0  0
   16.4501  -27.1816  -11.9009 C   0  0  0  0  0  0  0  0  0  0  0  0
   17.5260  -26.4522   -9.7285 C   0  0  2  0  0  0  0  0  0  0  0  0
   18.7099  -26.7954  -10.5494 N   0  0  0  0  0  0  0  0  0  0  0  0
   17.7268  -26.8555   -8.3395 C   0  0  0  0  0  0  0  0  0  0  0  0
   18.4118  -27.9011   -8.0676 O   0  0  0  0  0  0  0  0  0  0  0  0
   15.7413  -23.1253   -3.1784 C   0  0  0  0  0  0  0  0  0  0  0  0
   16.0779  -24.6874   -2.3840 S   0  0  0  0  0  0  0  0  0  0  0  0
   16.8122  -25.8894   -3.4733 C   0  0  0  0  0  0  0  0  0  0  0  0
   16.7490  -25.6132   -4.9284 C   0  0  0  0  0  0  0  0  0  0  0  0
   17.4026  -26.5807   -5.8462 C   0  0  2  0  0  0  0  0  0  0  0  0
   17.2098  -26.1604   -7.2237 N   0  0  0  0  0  0  0  0  0  0  0  0
   17.0698  -27.9867   -5.6331 C   0  0  0  0  0  0  0  0  0  0  0  0
   17.8913  -28.7127   -4.9751 O   0  0  0  0  0  0  0  0  0  0  0  0
   15.9388  -28.6273   -6.0794 O   0  0  0  0  0  0  0  0  0  0  0  0
  2  1  1  6
  2  3  1  0
  4  2  1  0
  4  6  1  0
  4  5  1  6
  6  7  2  0
  9 11  1  0
  9  8  1  1
 10  9  1  0
 11 13  1  0
 12  6  1  0
 11 12  1  6
 13 14  2  0
 16 15  1  0
 17 18  1  0
 17 16  1  0
 19 18  1  1
 19 21  1  0
 20 19  1  0
 20 13  1  0
 21 22  2  0
 21 23  1  0
M  END
$$$$
