VVM.pdb
     RDKit          3D

 23 22  0  0  1  0  0  0  0  0999 V2000
   20.6371  -18.4778  -17.5487 C   0  0  0  0  0  0  0  0  0  0  0  0
   21.4490  -17.4052  -16.8563 C   0  0  2  0  0  0  0  0  0  0  0  0
   20.8725  -16.0654  -17.3311 C   0  0  0  0  0  0  0  0  0  0  0  0
   22.9080  -17.4372  -17.2437 C   0  0  2  0  0  0  0  0  0  0  0  0
   23.0841  -17.5877  -18.6728 N   0  0  0  0  0  0  0  0  0  0  0  0
   23.6730  -18.4840  -16.5463 C   0  0  0  0  0  0  0  0  0  0  0  0
   23.1803  -19.6545  -16.3956 O   0  0  0  0  0  0  0  0  0  0  0  0
   27.9500  -20.3370  -14.9738 C   0  0  0  0  0  0  0  0  0  0  0  0
   27.1305  -19.2471  -15.6638 C   0  0  2  0  0  0  0  0  0  0  0  0
   27.7194  -17.9209  -15.3267 C   0  0  0  0  0  0  0  0  0  0  0  0
   25.6723  -19.4102  -15.3073 C   0  0  2  0  0  0  0  0  0  0  0  0
   24.9696  -18.3052  -15.9988 N   0  0  0  0  0  0  0  0  0  0  0  0
   25.3853  -19.3884  -13.8757 C   0  0  0  0  0  0  0  0  0  0  0  0
   25.4518  -18.2892  -13.2247 O   0  0  0  0  0  0  0  0  0  0  0  0
   20.3861  -18.9715  -10.6238 C   0  0  0  0  0  0  0  0  0  0  0  0
   21.2041  -20.2050   -9.6268 S   0  0  0  0  0  0  0  0  0  0  0  0
   22.9476  -20.3405   -9.9617 C   0  0  0  0  0  0  0  0  0  0  0  0
   23.3651  -20.3583  -11.3840 C   0  0  0  0  0  0  0  0  0  0  0  0
   24.8134  -20.5040  -11.6790 C   0  0  2  0  0  0  0  0  0  0  0  0
   25.0236  -20.5235  -13.1167 N   0  0  0  0  0  0  0  0  0  0  0  0
   25.4971  -21.5974  -10.9935 C   0  0  0  0  0  0  0  0  0  0  0  0
   25.7969  -22.6430  -11.6658 O   0  0  0  0  0  0  0  0  0  0  0  0
   25.8583  -21.6215   -9.6678 O   0  0  0  0  0  0  0  0  0  0  0  0
  2  1  1  6
  2  3  1  0
  4  2  1  0
  4  6  1  0
  4  5  1  6
  6  7  2  0
  9 11  1  0
  9  8  1  1
 10  9  1  0
 11 13  1  0
 12  6  1  0
 11 12  1  6
 13 14  2  0
 16 15  1  0
 17 18  1  0
 17 16  1  0
 19 18  1  6
 19 21  1  0
 20 19  1  0
 20 13  1  0
 21 22  2  0
 21 23  1  0
M  END
$$$$
