FYH.pdb
     RDKit          3D

 34 36  0  0  1  0  0  0  0  0999 V2000
   27.4264  -21.7333  -15.8838 N   0  0  0  0  0  0  0  0  0  0  0  0
   26.2250  -21.3528  -15.1358 C   0  0  1  0  0  0  0  0  0  0  0  0
   26.4967  -20.1522  -14.2654 C   0  0  0  0  0  0  0  0  0  0  0  0
   27.6080  -20.3577  -13.3324 C   0  0  0  0  0  0  0  0  0  0  0  0
   28.8243  -19.7472  -13.5442 C   0  0  0  0  0  0  0  0  0  0  0  0
   29.8368  -19.9710  -12.6376 C   0  0  0  0  0  0  0  0  0  0  0  0
   29.6801  -20.7784  -11.5326 C   0  0  0  0  0  0  0  0  0  0  0  0
   28.4617  -21.3816  -11.3329 C   0  0  0  0  0  0  0  0  0  0  0  0
   27.4393  -21.1666  -12.2319 C   0  0  0  0  0  0  0  0  0  0  0  0
   25.1233  -21.1654  -16.0955 C   0  0  0  0  0  0  0  0  0  0  0  0
   25.1448  -20.2324  -16.9720 O   0  0  0  0  0  0  0  0  0  0  0  0
   19.1351  -21.8409  -22.2915 O   0  0  0  0  0  0  0  0  0  0  0  0
   20.0653  -22.0987  -21.2667 C   0  0  0  0  0  0  0  0  0  0  0  0
   19.8425  -23.0989  -20.3421 C   0  0  0  0  0  0  0  0  0  0  0  0
   20.7719  -23.3269  -19.3506 C   0  0  0  0  0  0  0  0  0  0  0  0
   21.9318  -22.5946  -19.2340 C   0  0  0  0  0  0  0  0  0  0  0  0
   22.9411  -22.7892  -18.2158 C   0  0  0  0  0  0  0  0  0  0  0  0
   22.8980  -21.7849  -17.0795 C   0  0  2  0  0  0  0  0  0  0  0  0
   23.9585  -21.9827  -16.1434 N   0  0  0  0  0  0  0  0  0  0  0  0
   21.5359  -21.8067  -16.5479 C   0  0  0  0  0  0  0  0  0  0  0  0
   20.6034  -21.6706  -17.4031 O   0  0  0  0  0  0  0  0  0  0  0  0
   22.1254  -21.6021  -20.1735 C   0  0  0  0  0  0  0  0  0  0  0  0
   21.2120  -21.3517  -21.1768 C   0  0  0  0  0  0  0  0  0  0  0  0
   21.1412  -21.9608  -15.2090 N   0  0  0  0  0  0  0  0  0  0  0  0
   19.7387  -21.8961  -14.8109 C   0  0  1  0  0  0  0  0  0  0  0  0
   19.4886  -22.6387  -13.5400 C   0  0  0  0  0  0  0  0  0  0  0  0
   18.0476  -22.5892  -13.2084 C   0  0  0  0  0  0  0  0  0  0  0  0
   17.0782  -21.8559  -13.8712 C   0  0  0  0  0  0  0  0  0  0  0  0
   15.8741  -22.0380  -13.3110 N   0  0  0  0  0  0  0  0  0  0  0  0
   16.0685  -22.8851  -12.2918 C   0  0  0  0  0  0  0  0  0  0  0  0
   17.3702  -23.2290  -12.2130 N   0  0  0  0  0  0  0  0  0  0  0  0
   19.3014  -20.4866  -14.7520 C   0  0  0  0  0  0  0  0  0  0  0  0
   18.1522  -20.2077  -15.2242 O   0  0  0  0  0  0  0  0  0  0  0  0
   20.0528  -19.4497  -14.2184 O   0  0  0  0  0  0  0  0  0  0  0  0
  2  1  1  6
  2  3  1  0
  4  9  1  0
  4  3  1  0
  5  4  2  0
  6  7  2  0
  6  5  1  0
  7  8  1  0
  8  9  2  0
 10  2  1  0
 10 11  2  0
 12 13  1  0
 13 23  2  0
 14 15  2  0
 14 13  1  0
 15 16  1  0
 16 17  1  0
 16 22  2  0
 18 17  1  6
 18 19  1  0
 19 10  1  0
 20 18  1  0
 21 20  2  0
 23 22  1  0
 24 20  1  0
 25 32  1  0
 25 24  1  0
 26 27  1  0
 25 26  1  1
 27 28  2  0
 28 29  1  0
 30 29  1  0
 31 27  1  0
 31 30  2  0
 32 34  1  0
 33 32  2  0
M  END
$$$$
