FYH.pdb
     RDKit          3D

 34 36  0  0  1  0  0  0  0  0999 V2000
   27.6492  -31.6426  -15.9169 N   0  0  0  0  0  0  0  0  0  0  0  0
   28.4808  -32.6678  -15.2803 C   0  0  1  0  0  0  0  0  0  0  0  0
   27.6547  -33.8764  -14.9199 C   0  0  0  0  0  0  0  0  0  0  0  0
   26.7164  -33.6253  -13.8225 C   0  0  0  0  0  0  0  0  0  0  0  0
   25.3862  -33.3768  -14.0795 C   0  0  0  0  0  0  0  0  0  0  0  0
   24.5443  -33.1480  -13.0137 C   0  0  0  0  0  0  0  0  0  0  0  0
   24.9797  -33.1583  -11.7069 C   0  0  0  0  0  0  0  0  0  0  0  0
   26.3091  -33.4074  -11.4642 C   0  0  0  0  0  0  0  0  0  0  0  0
   27.1632  -33.6380  -12.5210 C   0  0  0  0  0  0  0  0  0  0  0  0
   29.6183  -32.9581  -16.1701 C   0  0  0  0  0  0  0  0  0  0  0  0
   29.4984  -32.9398  -17.4446 O   0  0  0  0  0  0  0  0  0  0  0  0
   36.5483  -32.7004  -21.1434 O   0  0  0  0  0  0  0  0  0  0  0  0
   35.4774  -32.5931  -20.2360 C   0  0  0  0  0  0  0  0  0  0  0  0
   34.2352  -33.1120  -20.5408 C   0  0  0  0  0  0  0  0  0  0  0  0
   33.2067  -32.9911  -19.6317 C   0  0  0  0  0  0  0  0  0  0  0  0
   33.3585  -32.3679  -18.4136 C   0  0  0  0  0  0  0  0  0  0  0  0
   32.3163  -32.2120  -17.4221 C   0  0  0  0  0  0  0  0  0  0  0  0
   32.0451  -33.4491  -16.5867 C   0  0  2  0  0  0  0  0  0  0  0  0
   30.9285  -33.2764  -15.7129 N   0  0  0  0  0  0  0  0  0  0  0  0
   33.3148  -33.8279  -15.9682 C   0  0  0  0  0  0  0  0  0  0  0  0
   34.2078  -32.9219  -15.9327 O   0  0  0  0  0  0  0  0  0  0  0  0
   34.6120  -31.8598  -18.1386 C   0  0  0  0  0  0  0  0  0  0  0  0
   35.6598  -31.9664  -19.0299 C   0  0  0  0  0  0  0  0  0  0  0  0
   33.6592  -35.0700  -15.4108 N   0  0  0  0  0  0  0  0  0  0  0  0
   34.6892  -35.9171  -16.0035 C   0  0  1  0  0  0  0  0  0  0  0  0
   34.1094  -37.1515  -16.6113 C   0  0  0  0  0  0  0  0  0  0  0  0
   33.6054  -38.0438  -15.5442 C   0  0  0  0  0  0  0  0  0  0  0  0
   33.7546  -37.8571  -14.1806 C   0  0  0  0  0  0  0  0  0  0  0  0
   33.1777  -38.8543  -13.4951 N   0  0  0  0  0  0  0  0  0  0  0  0
   32.6596  -39.6790  -14.4146 C   0  0  0  0  0  0  0  0  0  0  0  0
   32.9061  -39.2091  -15.6544 N   0  0  0  0  0  0  0  0  0  0  0  0
   35.4964  -35.1285  -16.9564 C   0  0  0  0  0  0  0  0  0  0  0  0
   35.2414  -33.8847  -17.0537 O   0  0  0  0  0  0  0  0  0  0  0  0
   36.5101  -35.6470  -17.7487 O   0  0  0  0  0  0  0  0  0  0  0  0
  2  1  1  6
  2  3  1  0
  4  9  1  0
  4  3  1  0
  5  4  2  0
  6  7  2  0
  6  5  1  0
  7  8  1  0
  8  9  2  0
 10  2  1  0
 10 11  2  0
 12 13  1  0
 13 23  2  0
 14 15  2  0
 14 13  1  0
 15 16  1  0
 16 17  1  0
 16 22  2  0
 18 17  1  1
 18 19  1  0
 19 10  1  0
 20 18  1  0
 21 20  2  0
 23 22  1  0
 24 20  1  0
 25 32  1  0
 25 24  1  0
 26 27  1  0
 25 26  1  6
 27 28  2  0
 28 29  1  0
 30 29  1  0
 31 27  1  0
 31 30  2  0
 32 34  1  0
 33 32  2  0
M  END
$$$$
