FYH.pdb
     RDKit          3D

 34 36  0  0  1  0  0  0  0  0999 V2000
   38.8612   -7.5813  -12.3325 N   0  0  0  0  0  0  0  0  0  0  0  0
   38.0908   -8.0860  -11.1925 C   0  0  1  0  0  0  0  0  0  0  0  0
   38.3859   -9.5450  -10.9535 C   0  0  0  0  0  0  0  0  0  0  0  0
   38.0709  -10.3921  -12.1072 C   0  0  0  0  0  0  0  0  0  0  0  0
   39.0553  -11.1317  -12.7245 C   0  0  0  0  0  0  0  0  0  0  0  0
   38.7081  -11.9132  -13.8043 C   0  0  0  0  0  0  0  0  0  0  0  0
   37.4203  -11.9831  -14.2879 C   0  0  0  0  0  0  0  0  0  0  0  0
   36.4476  -11.2403  -13.6631 C   0  0  0  0  0  0  0  0  0  0  0  0
   36.7805  -10.4536  -12.5814 C   0  0  0  0  0  0  0  0  0  0  0  0
   38.3596   -7.2183  -10.0330 C   0  0  0  0  0  0  0  0  0  0  0  0
   39.4730   -6.6011   -9.8971 O   0  0  0  0  0  0  0  0  0  0  0  0
   37.3726   -2.5428   -2.5172 O   0  0  0  0  0  0  0  0  0  0  0  0
   37.1685   -3.3637   -3.6425 C   0  0  0  0  0  0  0  0  0  0  0  0
   37.3414   -2.8710   -4.9202 C   0  0  0  0  0  0  0  0  0  0  0  0
   37.1340   -3.6995   -6.0017 C   0  0  0  0  0  0  0  0  0  0  0  0
   36.7564   -5.0168   -5.8694 C   0  0  0  0  0  0  0  0  0  0  0  0
   36.5250   -5.9311   -6.9666 C   0  0  0  0  0  0  0  0  0  0  0  0
   37.7541   -6.2499   -7.7970 C   0  0  2  0  0  0  0  0  0  0  0  0
   37.4318   -6.9847   -8.9786 N   0  0  0  0  0  0  0  0  0  0  0  0
   38.7313   -6.8522   -6.8912 C   0  0  0  0  0  0  0  0  0  0  0  0
   38.4987   -8.0536   -6.5421 O   0  0  0  0  0  0  0  0  0  0  0  0
   36.5919   -5.4792   -4.5794 C   0  0  0  0  0  0  0  0  0  0  0  0
   36.7926   -4.6723   -3.4784 C   0  0  0  0  0  0  0  0  0  0  0  0
   39.8915   -6.2601   -6.3662 N   0  0  0  0  0  0  0  0  0  0  0  0
   40.9100   -7.0472   -5.6787 C   0  0  1  0  0  0  0  0  0  0  0  0
   41.4130   -8.1666   -6.5292 C   0  0  0  0  0  0  0  0  0  0  0  0
   42.5195   -8.8619   -5.8357 C   0  0  0  0  0  0  0  0  0  0  0  0
   42.4920   -9.3643   -4.5459 C   0  0  0  0  0  0  0  0  0  0  0  0
   43.6634   -9.9341   -4.2292 N   0  0  0  0  0  0  0  0  0  0  0  0
   44.4410   -9.7987   -5.3114 C   0  0  0  0  0  0  0  0  0  0  0  0
   43.7711   -9.1559   -6.2896 N   0  0  0  0  0  0  0  0  0  0  0  0
   41.9870   -6.1583   -5.1976 C   0  0  0  0  0  0  0  0  0  0  0  0
   42.8548   -6.6589   -4.4116 O   0  0  0  0  0  0  0  0  0  0  0  0
   42.1187   -4.8212   -5.5427 O   0  0  0  0  0  0  0  0  0  0  0  0
  2  1  1  6
  2  3  1  0
  4  9  1  0
  4  3  1  0
  5  4  2  0
  6  7  2  0
  6  5  1  0
  7  8  1  0
  8  9  2  0
 10  2  1  0
 10 11  2  0
 12 13  1  0
 13 23  2  0
 14 15  2  0
 14 13  1  0
 15 16  1  0
 16 17  1  0
 16 22  2  0
 18 17  1  1
 18 19  1  0
 19 10  1  0
 20 18  1  0
 21 20  2  0
 23 22  1  0
 24 20  1  0
 25 32  1  0
 25 24  1  0
 26 27  1  0
 25 26  1  6
 27 28  2  0
 28 29  1  0
 30 29  1  0
 31 27  1  0
 31 30  2  0
 32 34  1  0
 33 32  2  0
M  END
$$$$
