FYH.pdb
     RDKit          3D

 34 36  0  0  1  0  0  0  0  0999 V2000
   28.4490  -20.7823   -9.0114 N   0  0  0  0  0  0  0  0  0  0  0  0
   27.0175  -20.6995   -8.7084 C   0  0  1  0  0  0  0  0  0  0  0  0
   26.7505  -19.6264   -7.6838 C   0  0  0  0  0  0  0  0  0  0  0  0
   27.5272  -19.8000   -6.4532 C   0  0  0  0  0  0  0  0  0  0  0  0
   27.1296  -20.7050   -5.4941 C   0  0  0  0  0  0  0  0  0  0  0  0
   27.8944  -20.8321   -4.3556 C   0  0  0  0  0  0  0  0  0  0  0  0
   29.0362  -20.0923   -4.1407 C   0  0  0  0  0  0  0  0  0  0  0  0
   29.4220  -19.1929   -5.1054 C   0  0  0  0  0  0  0  0  0  0  0  0
   28.6663  -19.0551   -6.2498 C   0  0  0  0  0  0  0  0  0  0  0  0
   26.2870  -20.5197   -9.9748 C   0  0  0  0  0  0  0  0  0  0  0  0
   26.4614  -19.4879  -10.7126 O   0  0  0  0  0  0  0  0  0  0  0  0
   29.0359  -20.6816  -16.3556 O   0  0  0  0  0  0  0  0  0  0  0  0
   28.0403  -21.0771  -15.4422 C   0  0  0  0  0  0  0  0  0  0  0  0
   28.3692  -21.4671  -14.1597 C   0  0  0  0  0  0  0  0  0  0  0  0
   27.3719  -21.8488  -13.2887 C   0  0  0  0  0  0  0  0  0  0  0  0
   26.0407  -21.8609  -13.6397 C   0  0  0  0  0  0  0  0  0  0  0  0
   24.9532  -22.2512  -12.7688 C   0  0  0  0  0  0  0  0  0  0  0  0
   24.6049  -21.2374  -11.6952 C   0  0  2  0  0  0  0  0  0  0  0  0
   25.3422  -21.4515  -10.4907 N   0  0  0  0  0  0  0  0  0  0  0  0
   23.1470  -21.2248  -11.5831 C   0  0  0  0  0  0  0  0  0  0  0  0
   22.6810  -21.1736  -10.4000 O   0  0  0  0  0  0  0  0  0  0  0  0
   25.7445  -21.4656  -14.9285 C   0  0  0  0  0  0  0  0  0  0  0  0
   26.7223  -21.0786  -15.8215 C   0  0  0  0  0  0  0  0  0  0  0  0
   22.2073  -21.2615  -12.6261 N   0  0  0  0  0  0  0  0  0  0  0  0
   21.2749  -20.1628  -12.8568 C   0  0  1  0  0  0  0  0  0  0  0  0
   21.9764  -18.8467  -12.9297 C   0  0  0  0  0  0  0  0  0  0  0  0
   20.9813  -17.7538  -12.9942 C   0  0  0  0  0  0  0  0  0  0  0  0
   19.8316  -17.6453  -12.2308 C   0  0  0  0  0  0  0  0  0  0  0  0
   19.1534  -16.5318  -12.5427 N   0  0  0  0  0  0  0  0  0  0  0  0
   19.8645  -15.9266  -13.5030 C   0  0  0  0  0  0  0  0  0  0  0  0
   20.9686  -16.6462  -13.7893 N   0  0  0  0  0  0  0  0  0  0  0  0
   20.4547  -20.4471  -14.0517 C   0  0  0  0  0  0  0  0  0  0  0  0
   21.0592  -20.8528  -15.0964 O   0  0  0  0  0  0  0  0  0  0  0  0
   19.0762  -20.3044  -14.1138 O   0  0  0  0  0  0  0  0  0  0  0  0
  2  1  1  6
  2  3  1  0
  4  9  1  0
  4  3  1  0
  5  4  2  0
  6  7  2  0
  6  5  1  0
  7  8  1  0
  8  9  2  0
 10  2  1  0
 10 11  2  0
 12 13  1  0
 13 23  2  0
 14 15  2  0
 14 13  1  0
 15 16  1  0
 16 17  1  0
 16 22  2  0
 18 17  1  6
 18 19  1  0
 19 10  1  0
 20 18  1  0
 21 20  2  0
 23 22  1  0
 24 20  1  0
 25 32  1  0
 25 24  1  0
 26 27  1  0
 25 26  1  6
 27 28  2  0
 28 29  1  0
 30 29  1  0
 31 27  1  0
 31 30  2  0
 32 34  1  0
 33 32  2  0
M  END
$$$$
