FYH.pdb
     RDKit          3D

 34 36  0  0  1  0  0  0  0  0999 V2000
   16.5126  -13.7937    6.9374 N   0  0  0  0  0  0  0  0  0  0  0  0
   17.3815  -14.4404    5.9503 C   0  0  1  0  0  0  0  0  0  0  0  0
   18.8158  -14.4305    6.4147 C   0  0  0  0  0  0  0  0  0  0  0  0
   19.4785  -13.1399    6.2077 C   0  0  0  0  0  0  0  0  0  0  0  0
   20.4635  -12.7105    7.0694 C   0  0  0  0  0  0  0  0  0  0  0  0
   21.0568  -11.4905    6.8310 C   0  0  0  0  0  0  0  0  0  0  0  0
   20.7044  -10.6874    5.7689 C   0  0  0  0  0  0  0  0  0  0  0  0
   19.7204  -11.1274    4.9167 C   0  0  0  0  0  0  0  0  0  0  0  0
   19.1178  -12.3462    5.1429 C   0  0  0  0  0  0  0  0  0  0  0  0
   16.8462  -15.7846    5.6738 C   0  0  0  0  0  0  0  0  0  0  0  0
   16.2280  -16.4606    6.5682 O   0  0  0  0  0  0  0  0  0  0  0  0
   14.5959  -23.3487    1.5790 O   0  0  0  0  0  0  0  0  0  0  0  0
   15.0814  -22.0609    1.8751 C   0  0  0  0  0  0  0  0  0  0  0  0
   14.2148  -21.0220    2.1483 C   0  0  0  0  0  0  0  0  0  0  0  0
   14.7208  -19.7726    2.4347 C   0  0  0  0  0  0  0  0  0  0  0  0
   16.0708  -19.5040    2.4624 C   0  0  0  0  0  0  0  0  0  0  0  0
   16.6577  -18.2145    2.7561 C   0  0  0  0  0  0  0  0  0  0  0  0
   16.6215  -17.8197    4.2205 C   0  0  2  0  0  0  0  0  0  0  0  0
   16.9582  -16.4457    4.4178 N   0  0  0  0  0  0  0  0  0  0  0  0
   17.4228  -18.8060    4.9439 C   0  0  0  0  0  0  0  0  0  0  0  0
   18.6559  -18.5249    5.0846 O   0  0  0  0  0  0  0  0  0  0  0  0
   16.9109  -20.5634    2.1850 C   0  0  0  0  0  0  0  0  0  0  0  0
   16.4322  -21.8245    1.8951 C   0  0  0  0  0  0  0  0  0  0  0  0
   16.9893  -20.0209    5.4992 N   0  0  0  0  0  0  0  0  0  0  0  0
   17.8756  -20.8554    6.3040 C   0  0  1  0  0  0  0  0  0  0  0  0
   18.2733  -20.1777    7.5737 C   0  0  0  0  0  0  0  0  0  0  0  0
   19.0877  -21.0984    8.3970 C   0  0  0  0  0  0  0  0  0  0  0  0
   19.5135  -22.3646    8.0335 C   0  0  0  0  0  0  0  0  0  0  0  0
   20.2330  -22.9275    9.0146 N   0  0  0  0  0  0  0  0  0  0  0  0
   20.2695  -22.0266   10.0052 C   0  0  0  0  0  0  0  0  0  0  0  0
   19.5860  -20.9185    9.6532 N   0  0  0  0  0  0  0  0  0  0  0  0
   17.2529  -22.1763    6.5249 C   0  0  0  0  0  0  0  0  0  0  0  0
   16.0037  -22.2816    6.3017 O   0  0  0  0  0  0  0  0  0  0  0  0
   17.9326  -23.3062    6.9558 O   0  0  0  0  0  0  0  0  0  0  0  0
  2  1  1  1
  2  3  1  0
  4  9  1  0
  4  3  1  0
  5  4  2  0
  6  7  2  0
  6  5  1  0
  7  8  1  0
  8  9  2  0
 10  2  1  0
 10 11  2  0
 12 13  1  0
 13 23  2  0
 14 15  2  0
 14 13  1  0
 15 16  1  0
 16 17  1  0
 16 22  2  0
 18 17  1  6
 18 19  1  0
 19 10  1  0
 20 18  1  0
 21 20  2  0
 23 22  1  0
 24 20  1  0
 25 32  1  0
 25 24  1  0
 26 27  1  0
 25 26  1  1
 27 28  2  0
 28 29  1  0
 30 29  1  0
 31 27  1  0
 31 30  2  0
 32 34  1  0
 33 32  2  0
M  END
$$$$
