FYH.pdb
     RDKit          3D

 34 36  0  0  1  0  0  0  0  0999 V2000
   14.9661  -27.7748   -1.7423 N   0  0  0  0  0  0  0  0  0  0  0  0
   15.5774  -26.5632   -1.1889 C   0  0  1  0  0  0  0  0  0  0  0  0
   14.5689  -25.4454   -1.1100 C   0  0  0  0  0  0  0  0  0  0  0  0
   14.0576  -25.0383   -2.4217 C   0  0  0  0  0  0  0  0  0  0  0  0
   12.7921  -25.4026   -2.8256 C   0  0  0  0  0  0  0  0  0  0  0  0
   12.3573  -24.9940   -4.0670 C   0  0  0  0  0  0  0  0  0  0  0  0
   13.1359  -24.2388   -4.9159 C   0  0  0  0  0  0  0  0  0  0  0  0
   14.3964  -23.8820   -4.5010 C   0  0  0  0  0  0  0  0  0  0  0  0
   14.8448  -24.2838   -3.2611 C   0  0  0  0  0  0  0  0  0  0  0  0
   16.1988  -26.9074    0.1015 C   0  0  0  0  0  0  0  0  0  0  0  0
   15.8739  -27.9656    0.7448 O   0  0  0  0  0  0  0  0  0  0  0  0
   20.5961  -30.3324   -2.2374 O   0  0  0  0  0  0  0  0  0  0  0  0
   20.2548  -29.4287   -1.2134 C   0  0  0  0  0  0  0  0  0  0  0  0
   20.2022  -28.0707   -1.4547 C   0  0  0  0  0  0  0  0  0  0  0  0
   19.8649  -27.2114   -0.4316 C   0  0  0  0  0  0  0  0  0  0  0  0
   19.5725  -27.6469    0.8412 C   0  0  0  0  0  0  0  0  0  0  0  0
   19.2130  -26.7923    1.9520 C   0  0  0  0  0  0  0  0  0  0  0  0
   17.7409  -26.4328    2.0253 C   0  0  2  0  0  0  0  0  0  0  0  0
   17.1969  -26.1197    0.7423 N   0  0  0  0  0  0  0  0  0  0  0  0
   17.6061  -25.4141    3.0657 C   0  0  0  0  0  0  0  0  0  0  0  0
   18.0402  -25.7358    4.2179 O   0  0  0  0  0  0  0  0  0  0  0  0
   19.6338  -29.0098    1.0504 C   0  0  0  0  0  0  0  0  0  0  0  0
   19.9686  -29.8932    0.0449 C   0  0  0  0  0  0  0  0  0  0  0  0
   17.0565  -24.1280    2.9392 N   0  0  0  0  0  0  0  0  0  0  0  0
   16.7320  -23.3148    4.1067 C   0  0  1  0  0  0  0  0  0  0  0  0
   16.8670  -21.8556    3.8206 C   0  0  0  0  0  0  0  0  0  0  0  0
   16.4280  -21.0736    4.9973 C   0  0  0  0  0  0  0  0  0  0  0  0
   16.9378  -21.1676    6.2811 C   0  0  0  0  0  0  0  0  0  0  0  0
   16.3137  -20.3162    7.1073 N   0  0  0  0  0  0  0  0  0  0  0  0
   15.4060  -19.6772    6.3576 C   0  0  0  0  0  0  0  0  0  0  0  0
   15.4587  -20.1187    5.0843 N   0  0  0  0  0  0  0  0  0  0  0  0
   15.3948  -23.6825    4.6148 C   0  0  0  0  0  0  0  0  0  0  0  0
   15.1043  -23.3401    5.8063 O   0  0  0  0  0  0  0  0  0  0  0  0
   14.4365  -24.3714    3.8857 O   0  0  0  0  0  0  0  0  0  0  0  0
  2  1  1  1
  2  3  1  0
  4  9  1  0
  4  3  1  0
  5  4  2  0
  6  7  2  0
  6  5  1  0
  7  8  1  0
  8  9  2  0
 10  2  1  0
 10 11  2  0
 12 13  1  0
 13 23  2  0
 14 15  2  0
 14 13  1  0
 15 16  1  0
 16 17  1  0
 16 22  2  0
 18 17  1  6
 18 19  1  0
 19 10  1  0
 20 18  1  0
 21 20  2  0
 23 22  1  0
 24 20  1  0
 25 32  1  0
 25 24  1  0
 26 27  1  0
 25 26  1  6
 27 28  2  0
 28 29  1  0
 30 29  1  0
 31 27  1  0
 31 30  2  0
 32 34  1  0
 33 32  2  0
M  END
$$$$
