FYH.pdb
     RDKit          3D

 34 36  0  0  1  0  0  0  0  0999 V2000
   28.6038  -20.8947   -9.3419 N   0  0  0  0  0  0  0  0  0  0  0  0
   27.1638  -20.8224   -9.0793 C   0  0  1  0  0  0  0  0  0  0  0  0
   26.8655  -19.7876   -8.0242 C   0  0  0  0  0  0  0  0  0  0  0  0
   27.6571  -19.9658   -6.8038 C   0  0  0  0  0  0  0  0  0  0  0  0
   28.6245  -19.0496   -6.4548 C   0  0  0  0  0  0  0  0  0  0  0  0
   29.3405  -19.2612   -5.2973 C   0  0  0  0  0  0  0  0  0  0  0  0
   29.1271  -20.3488   -4.4795 C   0  0  0  0  0  0  0  0  0  0  0  0
   28.1591  -21.2554   -4.8391 C   0  0  0  0  0  0  0  0  0  0  0  0
   27.4347  -21.0565   -5.9947 C   0  0  0  0  0  0  0  0  0  0  0  0
   26.4717  -20.5955  -10.3596 C   0  0  0  0  0  0  0  0  0  0  0  0
   26.5361  -19.4721  -10.9704 O   0  0  0  0  0  0  0  0  0  0  0  0
   29.5321  -18.0645  -15.4312 O   0  0  0  0  0  0  0  0  0  0  0  0
   28.5646  -18.9683  -14.9526 C   0  0  0  0  0  0  0  0  0  0  0  0
   27.2182  -18.7331  -15.1448 C   0  0  0  0  0  0  0  0  0  0  0  0
   26.2953  -19.6367  -14.6644 C   0  0  0  0  0  0  0  0  0  0  0  0
   26.6551  -20.7822  -13.9908 C   0  0  0  0  0  0  0  0  0  0  0  0
   25.7317  -21.7643  -13.4652 C   0  0  0  0  0  0  0  0  0  0  0  0
   24.9656  -21.3197  -12.2335 C   0  0  2  0  0  0  0  0  0  0  0  0
   25.6860  -21.5773  -11.0274 N   0  0  0  0  0  0  0  0  0  0  0  0
   23.6260  -21.8965  -12.3381 C   0  0  0  0  0  0  0  0  0  0  0  0
   23.3881  -22.8904  -11.5798 O   0  0  0  0  0  0  0  0  0  0  0  0
   28.0084  -20.9886  -13.8148 C   0  0  0  0  0  0  0  0  0  0  0  0
   28.9543  -20.1011  -14.2849 C   0  0  0  0  0  0  0  0  0  0  0  0
   22.5772  -21.4807  -13.1744 N   0  0  0  0  0  0  0  0  0  0  0  0
   21.2334  -21.2420  -12.6577 C   0  0  1  0  0  0  0  0  0  0  0  0
   21.2588  -20.4504  -11.3920 C   0  0  0  0  0  0  0  0  0  0  0  0
   20.7611  -21.2812  -10.2736 C   0  0  0  0  0  0  0  0  0  0  0  0
   20.3182  -22.5902  -10.3582 C   0  0  0  0  0  0  0  0  0  0  0  0
   19.9366  -23.0448   -9.1563 N   0  0  0  0  0  0  0  0  0  0  0  0
   20.1334  -22.0321   -8.3021 C   0  0  0  0  0  0  0  0  0  0  0  0
   20.6293  -20.9611   -8.9549 N   0  0  0  0  0  0  0  0  0  0  0  0
   20.3973  -20.6258  -13.7078 C   0  0  0  0  0  0  0  0  0  0  0  0
   19.1594  -20.9237  -13.7233 O   0  0  0  0  0  0  0  0  0  0  0  0
   20.8655  -19.7471  -14.6737 O   0  0  0  0  0  0  0  0  0  0  0  0
  2  1  1  6
  2  3  1  0
  4  9  1  0
  4  3  1  0
  5  4  2  0
  6  7  2  0
  6  5  1  0
  7  8  1  0
  8  9  2  0
 10  2  1  0
 10 11  2  0
 12 13  1  0
 13 23  2  0
 14 15  2  0
 14 13  1  0
 15 16  1  0
 16 17  1  0
 16 22  2  0
 18 17  1  6
 18 19  1  0
 19 10  1  0
 20 18  1  0
 21 20  2  0
 23 22  1  0
 24 20  1  0
 25 32  1  0
 25 24  1  0
 26 27  1  0
 25 26  1  1
 27 28  2  0
 28 29  1  0
 30 29  1  0
 31 27  1  0
 31 30  2  0
 32 34  1  0
 33 32  2  0
M  END
$$$$
