FYH.pdb
     RDKit          3D

 34 36  0  0  1  0  0  0  0  0999 V2000
   17.1268  -14.9079    4.0773 N   0  0  0  0  0  0  0  0  0  0  0  0
   17.7305  -16.2020    4.4065 C   0  0  1  0  0  0  0  0  0  0  0  0
   18.3796  -16.8125    3.1904 C   0  0  0  0  0  0  0  0  0  0  0  0
   17.4627  -17.6433    2.4050 C   0  0  0  0  0  0  0  0  0  0  0  0
   17.3570  -17.4761    1.0420 C   0  0  0  0  0  0  0  0  0  0  0  0
   16.4819  -18.2827    0.3486 C   0  0  0  0  0  0  0  0  0  0  0  0
   15.7122  -19.2455    0.9633 C   0  0  0  0  0  0  0  0  0  0  0  0
   15.8272  -19.4021    2.3237 C   0  0  0  0  0  0  0  0  0  0  0  0
   16.6988  -18.6020    3.0305 C   0  0  0  0  0  0  0  0  0  0  0  0
   18.6446  -16.0090    5.5454 C   0  0  0  0  0  0  0  0  0  0  0  0
   19.9066  -16.1946    5.4353 O   0  0  0  0  0  0  0  0  0  0  0  0
   21.6298   -9.7770    6.4904 O   0  0  0  0  0  0  0  0  0  0  0  0
   20.9855  -10.8900    7.0631 C   0  0  0  0  0  0  0  0  0  0  0  0
   21.6458  -11.7096    7.9560 C   0  0  0  0  0  0  0  0  0  0  0  0
   20.9880  -12.7915    8.4996 C   0  0  0  0  0  0  0  0  0  0  0  0
   19.6825  -13.1015    8.1915 C   0  0  0  0  0  0  0  0  0  0  0  0
   18.9430  -14.2222    8.7304 C   0  0  0  0  0  0  0  0  0  0  0  0
   19.1106  -15.5206    7.9637 C   0  0  2  0  0  0  0  0  0  0  0  0
   18.2265  -15.6053    6.8452 N   0  0  0  0  0  0  0  0  0  0  0  0
   19.0393  -16.6026    8.9448 C   0  0  0  0  0  0  0  0  0  0  0  0
   17.8921  -17.1281    9.1101 O   0  0  0  0  0  0  0  0  0  0  0  0
   19.0500  -12.2631    7.2959 C   0  0  0  0  0  0  0  0  0  0  0  0
   19.6840  -11.1729    6.7362 C   0  0  0  0  0  0  0  0  0  0  0  0
   20.0865  -17.1262    9.7203 N   0  0  0  0  0  0  0  0  0  0  0  0
   19.9153  -18.3305   10.5266 C   0  0  1  0  0  0  0  0  0  0  0  0
   19.3711  -19.4639    9.7212 C   0  0  0  0  0  0  0  0  0  0  0  0
   19.1283  -20.6291   10.5999 C   0  0  0  0  0  0  0  0  0  0  0  0
   18.5116  -20.6074   11.8392 C   0  0  0  0  0  0  0  0  0  0  0  0
   18.4537  -21.8385   12.3665 N   0  0  0  0  0  0  0  0  0  0  0  0
   19.0311  -22.6487   11.4696 C   0  0  0  0  0  0  0  0  0  0  0  0
   19.4440  -21.9402   10.3989 N   0  0  0  0  0  0  0  0  0  0  0  0
   21.1847  -18.6612   11.2052 C   0  0  0  0  0  0  0  0  0  0  0  0
   22.2646  -18.4650   10.5595 O   0  0  0  0  0  0  0  0  0  0  0  0
   21.2816  -19.1677   12.4930 O   0  0  0  0  0  0  0  0  0  0  0  0
  2  1  1  6
  2  3  1  0
  4  9  1  0
  4  3  1  0
  5  4  2  0
  6  7  2  0
  6  5  1  0
  7  8  1  0
  8  9  2  0
 10  2  1  0
 10 11  2  0
 12 13  1  0
 13 23  2  0
 14 15  2  0
 14 13  1  0
 15 16  1  0
 16 17  1  0
 16 22  2  0
 18 17  1  1
 18 19  1  0
 19 10  1  0
 20 18  1  0
 21 20  2  0
 23 22  1  0
 24 20  1  0
 25 32  1  0
 25 24  1  0
 26 27  1  0
 25 26  1  6
 27 28  2  0
 28 29  1  0
 30 29  1  0
 31 27  1  0
 31 30  2  0
 32 34  1  0
 33 32  2  0
M  END
$$$$
