FYH.pdb
     RDKit          3D

 34 36  0  0  1  0  0  0  0  0999 V2000
   19.1327   -2.5463  -14.6761 N   0  0  0  0  0  0  0  0  0  0  0  0
   19.3061   -3.7902  -15.4312 C   0  0  1  0  0  0  0  0  0  0  0  0
   19.7874   -3.5020  -16.8306 C   0  0  0  0  0  0  0  0  0  0  0  0
   18.7771   -2.8413  -17.6616 C   0  0  0  0  0  0  0  0  0  0  0  0
   18.8680   -1.4954  -17.9397 C   0  0  0  0  0  0  0  0  0  0  0  0
   17.8941   -0.9214  -18.7267 C   0  0  0  0  0  0  0  0  0  0  0  0
   16.8378   -1.6386  -19.2436 C   0  0  0  0  0  0  0  0  0  0  0  0
   16.7588   -2.9806  -18.9586 C   0  0  0  0  0  0  0  0  0  0  0  0
   17.7263   -3.5684  -18.1724 C   0  0  0  0  0  0  0  0  0  0  0  0
   20.1918   -4.6792  -14.6598 C   0  0  0  0  0  0  0  0  0  0  0  0
   21.1759   -4.2242  -13.9788 O   0  0  0  0  0  0  0  0  0  0  0  0
   17.4544   -3.8160   -9.2553 O   0  0  0  0  0  0  0  0  0  0  0  0
   18.0908   -4.7328  -10.1133 C   0  0  0  0  0  0  0  0  0  0  0  0
   17.6616   -4.9019  -11.4142 C   0  0  0  0  0  0  0  0  0  0  0  0
   18.3052   -5.8072  -12.2298 C   0  0  0  0  0  0  0  0  0  0  0  0
   19.3733   -6.5647  -11.8048 C   0  0  0  0  0  0  0  0  0  0  0  0
   20.0859   -7.5285  -12.6152 C   0  0  0  0  0  0  0  0  0  0  0  0
   20.8595   -6.9326  -13.7763 C   0  0  2  0  0  0  0  0  0  0  0  0
   20.0434   -6.0938  -14.5951 N   0  0  0  0  0  0  0  0  0  0  0  0
   21.5429   -8.0410  -14.4417 C   0  0  0  0  0  0  0  0  0  0  0  0
   20.8187   -8.7700  -15.1923 O   0  0  0  0  0  0  0  0  0  0  0  0
   19.7783   -6.3726  -10.4993 C   0  0  0  0  0  0  0  0  0  0  0  0
   19.1527   -5.4733   -9.6607 C   0  0  0  0  0  0  0  0  0  0  0  0
   22.9000   -8.3903  -14.3486 N   0  0  0  0  0  0  0  0  0  0  0  0
   23.4645   -9.4870  -15.1285 C   0  0  1  0  0  0  0  0  0  0  0  0
   22.8916  -10.8057  -14.7257 C   0  0  0  0  0  0  0  0  0  0  0  0
   23.6424  -11.8978  -15.3833 C   0  0  0  0  0  0  0  0  0  0  0  0
   24.8477  -11.7766  -16.0535 C   0  0  0  0  0  0  0  0  0  0  0  0
   25.2513  -12.9627  -16.5304 N   0  0  0  0  0  0  0  0  0  0  0  0
   24.3090  -13.8431  -16.1682 C   0  0  0  0  0  0  0  0  0  0  0  0
   23.3317  -13.2221  -15.4767 N   0  0  0  0  0  0  0  0  0  0  0  0
   23.3090   -9.2058  -16.5701 C   0  0  0  0  0  0  0  0  0  0  0  0
   24.3677   -8.9922  -17.2446 O   0  0  0  0  0  0  0  0  0  0  0  0
   22.0939   -9.1599  -17.2378 O   0  0  0  0  0  0  0  0  0  0  0  0
  2  1  1  1
  2  3  1  0
  4  9  1  0
  4  3  1  0
  5  4  2  0
  6  7  2  0
  6  5  1  0
  7  8  1  0
  8  9  2  0
 10  2  1  0
 10 11  2  0
 12 13  1  0
 13 23  2  0
 14 15  2  0
 14 13  1  0
 15 16  1  0
 16 17  1  0
 16 22  2  0
 18 17  1  1
 18 19  1  0
 19 10  1  0
 20 18  1  0
 21 20  2  0
 23 22  1  0
 24 20  1  0
 25 32  1  0
 25 24  1  0
 26 27  1  0
 25 26  1  1
 27 28  2  0
 28 29  1  0
 30 29  1  0
 31 27  1  0
 31 30  2  0
 32 34  1  0
 33 32  2  0
M  END
$$$$
