FYH.pdb
     RDKit          3D

 34 36  0  0  1  0  0  0  0  0999 V2000
   25.0946  -28.9399  -17.2776 N   0  0  0  0  0  0  0  0  0  0  0  0
   26.0046  -30.0507  -16.9846 C   0  0  1  0  0  0  0  0  0  0  0  0
   25.3474  -31.3729  -17.2892 C   0  0  0  0  0  0  0  0  0  0  0  0
   24.1996  -31.6577  -16.4238 C   0  0  0  0  0  0  0  0  0  0  0  0
   22.9157  -31.4109  -16.8570 C   0  0  0  0  0  0  0  0  0  0  0  0
   21.8705  -31.6968  -16.0066 C   0  0  0  0  0  0  0  0  0  0  0  0
   22.0595  -32.2176  -14.7455 C   0  0  0  0  0  0  0  0  0  0  0  0
   23.3454  -32.4592  -14.3254 C   0  0  0  0  0  0  0  0  0  0  0  0
   24.4010  -32.1779  -15.1657 C   0  0  0  0  0  0  0  0  0  0  0  0
   27.2639  -29.8208  -17.7133 C   0  0  0  0  0  0  0  0  0  0  0  0
   27.2872  -29.2279  -18.8478 O   0  0  0  0  0  0  0  0  0  0  0  0
   27.4541  -23.9322  -17.6104 O   0  0  0  0  0  0  0  0  0  0  0  0
   28.2154  -25.1158  -17.5759 C   0  0  0  0  0  0  0  0  0  0  0  0
   29.0627  -25.4444  -18.6147 C   0  0  0  0  0  0  0  0  0  0  0  0
   29.7949  -26.6101  -18.5517 C   0  0  0  0  0  0  0  0  0  0  0  0
   29.7224  -27.4786  -17.4859 C   0  0  0  0  0  0  0  0  0  0  0  0
   30.4660  -28.7139  -17.3660 C   0  0  0  0  0  0  0  0  0  0  0  0
   29.7629  -29.9349  -17.9286 C   0  0  2  0  0  0  0  0  0  0  0  0
   28.5452  -30.2221  -17.2395 N   0  0  0  0  0  0  0  0  0  0  0  0
   30.7570  -31.0058  -17.9861 C   0  0  0  0  0  0  0  0  0  0  0  0
   31.4768  -31.1521  -16.9470 O   0  0  0  0  0  0  0  0  0  0  0  0
   28.8665  -27.1219  -16.4635 C   0  0  0  0  0  0  0  0  0  0  0  0
   28.1215  -25.9612  -16.5001 C   0  0  0  0  0  0  0  0  0  0  0  0
   31.0060  -31.8871  -19.0507 N   0  0  0  0  0  0  0  0  0  0  0  0
   31.1747  -33.3207  -18.8357 C   0  0  1  0  0  0  0  0  0  0  0  0
   30.1275  -33.8714  -17.9250 C   0  0  0  0  0  0  0  0  0  0  0  0
   30.2881  -35.3376  -17.8088 C   0  0  0  0  0  0  0  0  0  0  0  0
   31.2870  -36.0009  -17.1168 C   0  0  0  0  0  0  0  0  0  0  0  0
   31.1367  -37.3293  -17.2160 N   0  0  0  0  0  0  0  0  0  0  0  0
   30.0453  -37.5193  -17.9689 C   0  0  0  0  0  0  0  0  0  0  0  0
   29.5196  -36.3328  -18.3359 N   0  0  0  0  0  0  0  0  0  0  0  0
   31.2328  -34.0169  -20.1369 C   0  0  0  0  0  0  0  0  0  0  0  0
   31.4844  -35.2651  -20.1247 O   0  0  0  0  0  0  0  0  0  0  0  0
   31.0316  -33.4075  -21.3667 O   0  0  0  0  0  0  0  0  0  0  0  0
  2  1  1  6
  2  3  1  0
  4  9  1  0
  4  3  1  0
  5  4  2  0
  6  7  2  0
  6  5  1  0
  7  8  1  0
  8  9  2  0
 10  2  1  0
 10 11  2  0
 12 13  1  0
 13 23  2  0
 14 15  2  0
 14 13  1  0
 15 16  1  0
 16 17  1  0
 16 22  2  0
 18 17  1  1
 18 19  1  0
 19 10  1  0
 20 18  1  0
 21 20  2  0
 23 22  1  0
 24 20  1  0
 25 32  1  0
 25 24  1  0
 26 27  1  0
 25 26  1  1
 27 28  2  0
 28 29  1  0
 30 29  1  0
 31 27  1  0
 31 30  2  0
 32 34  1  0
 33 32  2  0
M  END
$$$$
