FYH.pdb
     RDKit          3D

 34 36  0  0  1  0  0  0  0  0999 V2000
   23.1764  -17.8184  -17.7429 N   0  0  0  0  0  0  0  0  0  0  0  0
   24.2315  -18.6987  -17.2335 C   0  0  1  0  0  0  0  0  0  0  0  0
   25.5539  -17.9761  -17.1895 C   0  0  0  0  0  0  0  0  0  0  0  0
   26.1039  -17.7015  -18.5199 C   0  0  0  0  0  0  0  0  0  0  0  0
   26.0779  -16.4267  -19.0407 C   0  0  0  0  0  0  0  0  0  0  0  0
   26.6086  -16.2200  -20.2948 C   0  0  0  0  0  0  0  0  0  0  0  0
   27.1616  -17.2346  -21.0444 C   0  0  0  0  0  0  0  0  0  0  0  0
   27.1813  -18.5019  -20.5133 C   0  0  0  0  0  0  0  0  0  0  0  0
   26.6538  -18.7235  -19.2594 C   0  0  0  0  0  0  0  0  0  0  0  0
   23.7955  -19.2384  -15.9341 C   0  0  0  0  0  0  0  0  0  0  0  0
   23.1375  -18.5283  -15.0962 O   0  0  0  0  0  0  0  0  0  0  0  0
   25.1760  -26.9043  -16.5268 O   0  0  0  0  0  0  0  0  0  0  0  0
   24.5457  -25.7449  -16.0365 C   0  0  0  0  0  0  0  0  0  0  0  0
   24.0475  -24.7899  -16.8995 C   0  0  0  0  0  0  0  0  0  0  0  0
   23.4357  -23.6656  -16.3889 C   0  0  0  0  0  0  0  0  0  0  0  0
   23.2941  -23.4433  -15.0377 C   0  0  0  0  0  0  0  0  0  0  0  0
   22.6622  -22.2840  -14.4460 C   0  0  0  0  0  0  0  0  0  0  0  0
   23.5792  -21.0908  -14.2530 C   0  0  2  0  0  0  0  0  0  0  0  0
   24.0535  -20.5679  -15.4947 N   0  0  0  0  0  0  0  0  0  0  0  0
   24.5908  -21.4893  -13.2752 C   0  0  0  0  0  0  0  0  0  0  0  0
   25.6024  -22.1046  -13.7416 O   0  0  0  0  0  0  0  0  0  0  0  0
   23.8024  -24.4165  -14.2012 C   0  0  0  0  0  0  0  0  0  0  0  0
   24.4197  -25.5517  -14.6846 C   0  0  0  0  0  0  0  0  0  0  0  0
   24.5744  -21.2707  -11.8881 N   0  0  0  0  0  0  0  0  0  0  0  0
   25.8009  -21.2721  -11.0973 C   0  0  1  0  0  0  0  0  0  0  0  0
   26.8359  -20.3663  -11.6783 C   0  0  0  0  0  0  0  0  0  0  0  0
   28.0206  -20.3293  -10.7929 C   0  0  0  0  0  0  0  0  0  0  0  0
   29.1058  -21.1877  -10.8387 C   0  0  0  0  0  0  0  0  0  0  0  0
   30.0036  -20.8748   -9.8937 N   0  0  0  0  0  0  0  0  0  0  0  0
   29.4976  -19.8192   -9.2427 C   0  0  0  0  0  0  0  0  0  0  0  0
   28.3043  -19.4752   -9.7687 N   0  0  0  0  0  0  0  0  0  0  0  0
   25.4863  -20.9609   -9.6882 C   0  0  0  0  0  0  0  0  0  0  0  0
   24.4342  -20.2817   -9.4572 O   0  0  0  0  0  0  0  0  0  0  0  0
   26.2542  -21.3571   -8.6030 O   0  0  0  0  0  0  0  0  0  0  0  0
  2  1  1  1
  2  3  1  0
  4  9  1  0
  4  3  1  0
  5  4  2  0
  6  7  2  0
  6  5  1  0
  7  8  1  0
  8  9  2  0
 10  2  1  0
 10 11  2  0
 12 13  1  0
 13 23  2  0
 14 15  2  0
 14 13  1  0
 15 16  1  0
 16 17  1  0
 16 22  2  0
 18 17  1  6
 18 19  1  0
 19 10  1  0
 20 18  1  0
 21 20  2  0
 23 22  1  0
 24 20  1  0
 25 32  1  0
 25 24  1  0
 26 27  1  0
 25 26  1  6
 27 28  2  0
 28 29  1  0
 30 29  1  0
 31 27  1  0
 31 30  2  0
 32 34  1  0
 33 32  2  0
M  END
$$$$
