FYH.pdb
     RDKit          3D

 34 36  0  0  1  0  0  0  0  0999 V2000
   26.0853  -18.8623   -7.2897 N   0  0  0  0  0  0  0  0  0  0  0  0
   26.9940  -19.8029   -7.9508 C   0  0  1  0  0  0  0  0  0  0  0  0
   27.2061  -21.0281   -7.0982 C   0  0  0  0  0  0  0  0  0  0  0  0
   27.9744  -20.7553   -5.8804 C   0  0  0  0  0  0  0  0  0  0  0  0
   29.3507  -20.8078   -5.8923 C   0  0  0  0  0  0  0  0  0  0  0  0
   30.0270  -20.5422   -4.7222 C   0  0  0  0  0  0  0  0  0  0  0  0
   29.3826  -20.2275   -3.5462 C   0  0  0  0  0  0  0  0  0  0  0  0
   28.0093  -20.1784   -3.5478 C   0  0  0  0  0  0  0  0  0  0  0  0
   27.3193  -20.4420   -4.7114 C   0  0  0  0  0  0  0  0  0  0  0  0
   26.4652  -20.0881   -9.2958 C   0  0  0  0  0  0  0  0  0  0  0  0
   25.2125  -20.0292   -9.5536 O   0  0  0  0  0  0  0  0  0  0  0  0
   26.9318  -19.0208  -18.1026 O   0  0  0  0  0  0  0  0  0  0  0  0
   27.2124  -19.3652  -16.7667 C   0  0  0  0  0  0  0  0  0  0  0  0
   27.0698  -20.6650  -16.3248 C   0  0  0  0  0  0  0  0  0  0  0  0
   27.3522  -20.9708  -15.0111 C   0  0  0  0  0  0  0  0  0  0  0  0
   27.7769  -20.0286  -14.1016 C   0  0  0  0  0  0  0  0  0  0  0  0
   28.0873  -20.2916  -12.7131 C   0  0  0  0  0  0  0  0  0  0  0  0
   26.9083  -20.1721  -11.7657 C   0  0  2  0  0  0  0  0  0  0  0  0
   27.2734  -20.4453  -10.4122 N   0  0  0  0  0  0  0  0  0  0  0  0
   25.8273  -20.9771  -12.3330 C   0  0  0  0  0  0  0  0  0  0  0  0
   25.7204  -22.1617  -11.8808 O   0  0  0  0  0  0  0  0  0  0  0  0
   27.9095  -18.7386  -14.5743 C   0  0  0  0  0  0  0  0  0  0  0  0
   27.6338  -18.4039  -15.8841 C   0  0  0  0  0  0  0  0  0  0  0  0
   24.8978  -20.5940  -13.3136 N   0  0  0  0  0  0  0  0  0  0  0  0
   23.5082  -21.0373  -13.2675 C   0  0  1  0  0  0  0  0  0  0  0  0
   22.8638  -20.7058  -11.9620 C   0  0  0  0  0  0  0  0  0  0  0  0
   21.4625  -21.1802  -11.9626 C   0  0  0  0  0  0  0  0  0  0  0  0
   20.8025  -21.7872  -13.0174 C   0  0  0  0  0  0  0  0  0  0  0  0
   19.5410  -22.0915  -12.6810 N   0  0  0  0  0  0  0  0  0  0  0  0
   19.3905  -21.6817  -11.4147 C   0  0  0  0  0  0  0  0  0  0  0  0
   20.5357  -21.1303  -10.9638 N   0  0  0  0  0  0  0  0  0  0  0  0
   22.7731  -20.4959  -14.4285 C   0  0  0  0  0  0  0  0  0  0  0  0
   23.0050  -19.2885  -14.7598 O   0  0  0  0  0  0  0  0  0  0  0  0
   21.8518  -21.2098  -15.1808 O   0  0  0  0  0  0  0  0  0  0  0  0
  2  1  1  1
  2  3  1  0
  4  9  1  0
  4  3  1  0
  5  4  2  0
  6  7  2  0
  6  5  1  0
  7  8  1  0
  8  9  2  0
 10  2  1  0
 10 11  2  0
 12 13  1  0
 13 23  2  0
 14 15  2  0
 14 13  1  0
 15 16  1  0
 16 17  1  0
 16 22  2  0
 18 17  1  6
 18 19  1  0
 19 10  1  0
 20 18  1  0
 21 20  2  0
 23 22  1  0
 24 20  1  0
 25 32  1  0
 25 24  1  0
 26 27  1  0
 25 26  1  1
 27 28  2  0
 28 29  1  0
 30 29  1  0
 31 27  1  0
 31 30  2  0
 32 34  1  0
 33 32  2  0
M  END
$$$$
