FYH.pdb
     RDKit          3D

 34 36  0  0  1  0  0  0  0  0999 V2000
   16.1107  -13.2428    6.2341 N   0  0  0  0  0  0  0  0  0  0  0  0
   16.7724  -14.5443    6.1075 C   0  0  1  0  0  0  0  0  0  0  0  0
   18.2354  -14.3698    5.7877 C   0  0  0  0  0  0  0  0  0  0  0  0
   18.4698  -13.8117    4.4531 C   0  0  0  0  0  0  0  0  0  0  0  0
   18.9710  -12.5375    4.3033 C   0  0  0  0  0  0  0  0  0  0  0  0
   19.1750  -12.0591    3.0278 C   0  0  0  0  0  0  0  0  0  0  0  0
   18.8982  -12.8027    1.9019 C   0  0  0  0  0  0  0  0  0  0  0  0
   18.3985  -14.0723    2.0651 C   0  0  0  0  0  0  0  0  0  0  0  0
   18.1893  -14.5642    3.3355 C   0  0  0  0  0  0  0  0  0  0  0  0
   16.5110  -15.3167    7.3342 C   0  0  0  0  0  0  0  0  0  0  0  0
   16.3975  -14.7493    8.4762 O   0  0  0  0  0  0  0  0  0  0  0  0
   17.1941  -22.1243    4.1552 O   0  0  0  0  0  0  0  0  0  0  0  0
   16.7853  -21.2770    5.2025 C   0  0  0  0  0  0  0  0  0  0  0  0
   16.0976  -20.1090    4.9421 C   0  0  0  0  0  0  0  0  0  0  0  0
   15.7110  -19.3004    5.9888 C   0  0  0  0  0  0  0  0  0  0  0  0
   15.9809  -19.6043    7.3041 C   0  0  0  0  0  0  0  0  0  0  0  0
   15.6003  -18.7947    8.4412 C   0  0  0  0  0  0  0  0  0  0  0  0
   16.3673  -17.4929    8.5783 C   0  0  2  0  0  0  0  0  0  0  0  0
   16.3602  -16.7320    7.3695 N   0  0  0  0  0  0  0  0  0  0  0  0
   17.6754  -17.8302    9.1381 C   0  0  0  0  0  0  0  0  0  0  0  0
   18.5622  -18.1912    8.2999 O   0  0  0  0  0  0  0  0  0  0  0  0
   16.6698  -20.7786    7.5314 C   0  0  0  0  0  0  0  0  0  0  0  0
   17.0691  -21.6071    6.5030 C   0  0  0  0  0  0  0  0  0  0  0  0
   18.0632  -17.8004   10.4875 N   0  0  0  0  0  0  0  0  0  0  0  0
   19.2110  -17.0201   10.9382 C   0  0  1  0  0  0  0  0  0  0  0  0
   19.1362  -15.6039   10.4711 C   0  0  0  0  0  0  0  0  0  0  0  0
   20.3002  -14.8475   10.9827 C   0  0  0  0  0  0  0  0  0  0  0  0
   21.3579  -15.3640   11.7116 C   0  0  0  0  0  0  0  0  0  0  0  0
   22.2428  -14.4043   12.0164 N   0  0  0  0  0  0  0  0  0  0  0  0
   21.7560  -13.2750   11.4855 C   0  0  0  0  0  0  0  0  0  0  0  0
   20.5872  -13.5204   10.8589 N   0  0  0  0  0  0  0  0  0  0  0  0
   19.3503  -17.1383   12.4038 C   0  0  0  0  0  0  0  0  0  0  0  0
   18.2813  -17.1691   13.0950 O   0  0  0  0  0  0  0  0  0  0  0  0
   20.5606  -17.2192   13.0767 O   0  0  0  0  0  0  0  0  0  0  0  0
  2  1  1  1
  2  3  1  0
  4  9  1  0
  4  3  1  0
  5  4  2  0
  6  7  2  0
  6  5  1  0
  7  8  1  0
  8  9  2  0
 10  2  1  0
 10 11  2  0
 12 13  1  0
 13 23  2  0
 14 15  2  0
 14 13  1  0
 15 16  1  0
 16 17  1  0
 16 22  2  0
 18 17  1  6
 18 19  1  0
 19 10  1  0
 20 18  1  0
 21 20  2  0
 23 22  1  0
 24 20  1  0
 25 32  1  0
 25 24  1  0
 26 27  1  0
 25 26  1  1
 27 28  2  0
 28 29  1  0
 30 29  1  0
 31 27  1  0
 31 30  2  0
 32 34  1  0
 33 32  2  0
M  END
$$$$
