TRC.pdb
     RDKit          3D

 25 24  0  0  1  0  0  0  0  0999 V2000
   26.7221  -19.9334  -16.0839 C   0  0  0  0  0  0  0  0  0  0  0  0
   27.0286  -21.4012  -16.3406 C   0  0  1  0  0  0  0  0  0  0  0  0
   28.2360  -21.5898  -16.9704 O   0  0  0  0  0  0  0  0  0  0  0  0
   26.7765  -22.2681  -15.1489 C   0  0  2  0  0  0  0  0  0  0  0  0
   27.1022  -23.6292  -15.5260 N   0  0  0  0  0  0  0  0  0  0  0  0
   25.4375  -22.1293  -14.5392 C   0  0  0  0  0  0  0  0  0  0  0  0
   24.5291  -22.8545  -15.0222 O   0  0  0  0  0  0  0  0  0  0  0  0
   22.7580  -21.9439   -7.4868 N   0  0  0  0  0  0  0  0  0  0  0  0
   22.5834  -20.6573   -8.0663 C   0  0  0  0  0  0  0  0  0  0  0  0
   21.4758  -19.9823   -7.8482 N   0  0  0  0  0  0  0  0  0  0  0  0
   23.5443  -20.0521   -8.9027 N   0  0  0  0  0  0  0  0  0  0  0  0
   24.8046  -20.6385   -9.2593 C   0  0  0  0  0  0  0  0  0  0  0  0
   24.8353  -21.2580  -10.6445 C   0  0  0  0  0  0  0  0  0  0  0  0
   23.9165  -20.4479  -11.5179 C   0  0  0  0  0  0  0  0  0  0  0  0
   23.7977  -20.9939  -12.9325 C   0  0  2  0  0  0  0  0  0  0  0  0
   25.0860  -21.2815  -13.5016 N   0  0  0  0  0  0  0  0  0  0  0  0
   23.1482  -19.9280  -13.7156 C   0  0  0  0  0  0  0  0  0  0  0  0
   23.6643  -18.8113  -13.8366 O   0  0  0  0  0  0  0  0  0  0  0  0
   21.3725  -19.0435   -8.3246 N   0  0  0  0  0  0  0  0  0  0  0  0
   21.9105  -20.1948  -14.3417 C   0  0  1  0  0  0  0  0  0  0  0  0
   21.4207  -19.4969  -15.5095 C   0  0  0  0  0  0  0  0  0  0  0  0
   22.3909  -19.6554  -16.6877 S   0  0  0  0  0  0  0  0  0  0  0  0
   22.6310  -18.0082  -17.4714 C   0  0  0  0  0  0  0  0  0  0  0  0
   20.1321  -20.0609  -15.9162 O   0  0  0  0  0  0  0  0  0  0  0  0
   19.1896  -19.2263  -16.4808 O   0  0  0  0  0  0  0  0  0  0  0  0
  2  4  1  0
  2  1  1  1
  3  2  1  0
  4  6  1  0
  4  5  1  6
  6 16  1  0
  7  6  2  0
  9  8  1  0
 10  9  2  0
 11  9  1  0
 12 11  1  0
 13 12  1  0
 14 13  1  0
 15 17  1  0
 15 14  1  1
 16 15  1  0
 17 19  1  0
 18 17  2  0
 19 20  1  0
 20 23  1  0
 21 22  1  0
 20 21  1  6
 23 25  2  0
 23 24  1  0
M  END
$$$$
