TRC.pdb
     RDKit          3D

 25 24  0  0  1  0  0  0  0  0999 V2000
   15.2922  -25.9941   -4.3267 C   0  0  0  0  0  0  0  0  0  0  0  0
   16.2780  -25.4602   -5.3549 C   0  0  1  0  0  0  0  0  0  0  0  0
   16.5312  -24.1176   -5.2015 O   0  0  0  0  0  0  0  0  0  0  0  0
   17.4812  -26.3323   -5.5190 C   0  0  2  0  0  0  0  0  0  0  0  0
   18.2532  -26.2410   -4.2958 N   0  0  0  0  0  0  0  0  0  0  0  0
   18.2778  -26.0860   -6.7390 C   0  0  0  0  0  0  0  0  0  0  0  0
   19.3992  -25.5400   -6.5696 O   0  0  0  0  0  0  0  0  0  0  0  0
   22.1321  -29.6554  -11.2032 N   0  0  0  0  0  0  0  0  0  0  0  0
   21.3543  -30.7563  -10.7506 C   0  0  0  0  0  0  0  0  0  0  0  0
   21.9472  -31.8586  -10.3463 N   0  0  0  0  0  0  0  0  0  0  0  0
   19.9442  -30.7462  -10.7283 N   0  0  0  0  0  0  0  0  0  0  0  0
   19.1311  -29.5782  -10.9130 C   0  0  0  0  0  0  0  0  0  0  0  0
   19.4733  -28.4263   -9.9858 C   0  0  0  0  0  0  0  0  0  0  0  0
   18.4613  -27.3400  -10.2288 C   0  0  0  0  0  0  0  0  0  0  0  0
   18.6062  -26.1617   -9.2780 C   0  0  2  0  0  0  0  0  0  0  0  0
   17.9112  -26.3883   -8.0403 N   0  0  0  0  0  0  0  0  0  0  0  0
   17.9975  -25.0140   -9.9733 C   0  0  0  0  0  0  0  0  0  0  0  0
   16.8009  -24.7370   -9.8345 O   0  0  0  0  0  0  0  0  0  0  0  0
   21.3310  -32.6661  -10.0510 N   0  0  0  0  0  0  0  0  0  0  0  0
   18.8045  -24.2149  -10.8131 C   0  0  2  0  0  0  0  0  0  0  0  0
   18.3094  -23.1210  -11.6187 C   0  0  0  0  0  0  0  0  0  0  0  0
   19.4135  -22.5712  -12.5315 S   0  0  0  0  0  0  0  0  0  0  0  0
   18.7390  -21.1350  -13.4630 C   0  0  0  0  0  0  0  0  0  0  0  0
   17.2196  -23.5935  -12.4749 O   0  0  0  0  0  0  0  0  0  0  0  0
   17.3545  -24.8097  -13.1125 O   0  0  0  0  0  0  0  0  0  0  0  0
  2  4  1  0
  2  1  1  1
  3  2  1  0
  4  6  1  0
  4  5  1  1
  6 16  1  0
  7  6  2  0
  9  8  1  0
 10  9  2  0
 11  9  1  0
 12 11  1  0
 13 12  1  0
 14 13  1  0
 15 17  1  0
 15 14  1  6
 16 15  1  0
 17 19  1  0
 18 17  2  0
 19 20  1  0
 20 23  1  0
 21 22  1  0
 20 21  1  1
 23 25  2  0
 23 24  1  0
M  END
$$$$
