TRC.pdb
     RDKit          3D

 25 24  0  0  1  0  0  0  0  0999 V2000
   29.5026  -20.7027  -18.8845 C   0  0  0  0  0  0  0  0  0  0  0  0
   28.5169  -20.7284  -17.7261 C   0  0  1  0  0  0  0  0  0  0  0  0
   29.1359  -20.8422  -16.5038 O   0  0  0  0  0  0  0  0  0  0  0  0
   27.4695  -19.6663  -17.8261 C   0  0  2  0  0  0  0  0  0  0  0  0
   28.1505  -18.4034  -18.0317 N   0  0  0  0  0  0  0  0  0  0  0  0
   26.4930  -19.6361  -16.7174 C   0  0  0  0  0  0  0  0  0  0  0  0
   26.6934  -18.7727  -15.8237 O   0  0  0  0  0  0  0  0  0  0  0  0
   19.7756  -19.7786  -15.2741 N   0  0  0  0  0  0  0  0  0  0  0  0
   19.2308  -20.9235  -14.6307 C   0  0  0  0  0  0  0  0  0  0  0  0
   18.0796  -20.8383  -14.0002 N   0  0  0  0  0  0  0  0  0  0  0  0
   19.8787  -22.1760  -14.6080 N   0  0  0  0  0  0  0  0  0  0  0  0
   21.1389  -22.4571  -15.2343 C   0  0  0  0  0  0  0  0  0  0  0  0
   22.2964  -21.6290  -14.7074 C   0  0  0  0  0  0  0  0  0  0  0  0
   23.2707  -21.4496  -15.8396 C   0  0  0  0  0  0  0  0  0  0  0  0
   24.4625  -20.5786  -15.4730 C   0  0  2  0  0  0  0  0  0  0  0  0
   25.3921  -20.4627  -16.5633 N   0  0  0  0  0  0  0  0  0  0  0  0
   25.1203  -21.2612  -14.3449 C   0  0  0  0  0  0  0  0  0  0  0  0
   26.0195  -22.0894  -14.5284 O   0  0  0  0  0  0  0  0  0  0  0  0
   17.7241  -21.7058  -13.5103 N   0  0  0  0  0  0  0  0  0  0  0  0
   24.7123  -20.9565  -13.0275 C   0  0  2  0  0  0  0  0  0  0  0  0
   25.4125  -21.3861  -11.8375 C   0  0  0  0  0  0  0  0  0  0  0  0
   26.8440  -20.8339  -11.8164 S   0  0  0  0  0  0  0  0  0  0  0  0
   27.5618  -21.1373  -10.1496 C   0  0  0  0  0  0  0  0  0  0  0  0
   24.7230  -20.8783  -10.6498 O   0  0  0  0  0  0  0  0  0  0  0  0
   23.7092  -19.9565  -10.8128 O   0  0  0  0  0  0  0  0  0  0  0  0
  2  4  1  0
  2  1  1  6
  3  2  1  0
  4  6  1  0
  4  5  1  1
  6 16  1  0
  7  6  2  0
  9  8  1  0
 10  9  2  0
 11  9  1  0
 12 11  1  0
 13 12  1  0
 14 13  1  0
 15 17  1  0
 15 14  1  6
 16 15  1  0
 17 19  1  0
 18 17  2  0
 19 20  1  0
 20 23  1  0
 21 22  1  0
 20 21  1  1
 23 25  2  0
 23 24  1  0
M  END
$$$$
