TRC.pdb
     RDKit          3D

 25 24  0  0  1  0  0  0  0  0999 V2000
   17.3661  -11.1932  -17.8001 C   0  0  0  0  0  0  0  0  0  0  0  0
   17.2585  -12.5975  -17.2253 C   0  0  1  0  0  0  0  0  0  0  0  0
   16.2125  -13.3119  -17.7597 O   0  0  0  0  0  0  0  0  0  0  0  0
   18.5716  -13.3105  -17.1741 C   0  0  2  0  0  0  0  0  0  0  0  0
   18.3347  -14.6142  -16.5866 N   0  0  0  0  0  0  0  0  0  0  0  0
   19.6709  -12.5635  -16.5283 C   0  0  0  0  0  0  0  0  0  0  0  0
   19.6706  -12.5518  -15.2697 O   0  0  0  0  0  0  0  0  0  0  0  0
   27.2767  -11.6591  -15.8340 N   0  0  0  0  0  0  0  0  0  0  0  0
   26.7451  -12.4086  -16.9190 C   0  0  0  0  0  0  0  0  0  0  0  0
   27.0628  -13.6771  -17.0604 N   0  0  0  0  0  0  0  0  0  0  0  0
   25.8903  -11.8533  -17.8937 N   0  0  0  0  0  0  0  0  0  0  0  0
   25.3344  -10.5315  -17.8373 C   0  0  0  0  0  0  0  0  0  0  0  0
   24.1658  -10.3860  -16.8800 C   0  0  0  0  0  0  0  0  0  0  0  0
   23.0222  -11.1839  -17.4446 C   0  0  0  0  0  0  0  0  0  0  0  0
   21.7461  -11.0655  -16.6255 C   0  0  2  0  0  0  0  0  0  0  0  0
   20.6891  -11.8750  -17.1674 N   0  0  0  0  0  0  0  0  0  0  0  0
   21.3574   -9.6462  -16.7001 C   0  0  0  0  0  0  0  0  0  0  0  0
   20.9830   -9.1353  -17.7616 O   0  0  0  0  0  0  0  0  0  0  0  0
   26.6420  -14.1992  -17.8785 N   0  0  0  0  0  0  0  0  0  0  0  0
   21.4132   -8.8579  -15.5294 C   0  0  2  0  0  0  0  0  0  0  0  0
   20.9895   -7.4773  -15.4554 C   0  0  0  0  0  0  0  0  0  0  0  0
   20.6427   -7.0887  -14.0121 S   0  0  0  0  0  0  0  0  0  0  0  0
   19.2997   -8.1962  -13.4163 C   0  0  0  0  0  0  0  0  0  0  0  0
   22.0766   -6.6038  -15.9017 O   0  0  0  0  0  0  0  0  0  0  0  0
   21.8705   -5.2395  -15.9143 O   0  0  0  0  0  0  0  0  0  0  0  0
  2  4  1  0
  2  1  1  6
  3  2  1  0
  4  6  1  0
  4  5  1  1
  6 16  1  0
  7  6  2  0
  9  8  1  0
 10  9  2  0
 11  9  1  0
 12 11  1  0
 13 12  1  0
 14 13  1  0
 15 17  1  0
 15 14  1  6
 16 15  1  0
 17 19  1  0
 18 17  2  0
 19 20  1  0
 20 23  1  0
 21 22  1  0
 20 21  1  6
 23 25  2  0
 23 24  1  0
M  END
$$$$
