TRC.pdb
     RDKit          3D

 25 24  0  0  1  0  0  0  0  0999 V2000
   33.2727  -22.9662  -10.4219 C   0  0  0  0  0  0  0  0  0  0  0  0
   31.8576  -23.0021  -10.9791 C   0  0  1  0  0  0  0  0  0  0  0  0
   31.0516  -23.9035  -10.3250 O   0  0  0  0  0  0  0  0  0  0  0  0
   31.2750  -21.6405  -11.1835 C   0  0  2  0  0  0  0  0  0  0  0  0
   31.3372  -20.9468   -9.9124 N   0  0  0  0  0  0  0  0  0  0  0  0
   29.9346  -21.6141  -11.8050 C   0  0  0  0  0  0  0  0  0  0  0  0
   29.8510  -22.0924  -12.9662 O   0  0  0  0  0  0  0  0  0  0  0  0
   22.4036  -19.6043  -12.3106 N   0  0  0  0  0  0  0  0  0  0  0  0
   22.0228  -20.5881  -11.3573 C   0  0  0  0  0  0  0  0  0  0  0  0
   20.9684  -21.3432  -11.5766 N   0  0  0  0  0  0  0  0  0  0  0  0
   22.7139  -20.7952  -10.1455 N   0  0  0  0  0  0  0  0  0  0  0  0
   24.1092  -20.5277   -9.9431 C   0  0  0  0  0  0  0  0  0  0  0  0
   24.9952  -20.9146  -11.1130 C   0  0  0  0  0  0  0  0  0  0  0  0
   26.4221  -20.7181  -10.6784 C   0  0  0  0  0  0  0  0  0  0  0  0
   27.4323  -21.0702  -11.7596 C   0  0  2  0  0  0  0  0  0  0  0  0
   28.7726  -21.1125  -11.2419 N   0  0  0  0  0  0  0  0  0  0  0  0
   27.3325  -19.9939  -12.7610 C   0  0  0  0  0  0  0  0  0  0  0  0
   27.4612  -18.8057  -12.4452 O   0  0  0  0  0  0  0  0  0  0  0  0
   20.7093  -22.0504  -10.8338 N   0  0  0  0  0  0  0  0  0  0  0  0
   27.0873  -20.3333  -14.1099 C   0  0  2  0  0  0  0  0  0  0  0  0
   26.9443  -19.3709  -15.1795 C   0  0  0  0  0  0  0  0  0  0  0  0
   28.0927  -19.5008  -16.1888 S   0  0  0  0  0  0  0  0  0  0  0  0
   28.6904  -21.2408  -16.1718 C   0  0  0  0  0  0  0  0  0  0  0  0
   25.6919  -19.6152  -15.8978 O   0  0  0  0  0  0  0  0  0  0  0  0
   25.2886  -18.7098  -16.8578 O   0  0  0  0  0  0  0  0  0  0  0  0
  2  4  1  0
  2  1  1  1
  3  2  1  0
  4  6  1  0
  4  5  1  1
  6 16  1  0
  7  6  2  0
  9  8  1  0
 10  9  2  0
 11  9  1  0
 12 11  1  0
 13 12  1  0
 14 13  1  0
 15 17  1  0
 15 14  1  1
 16 15  1  0
 17 19  1  0
 18 17  2  0
 19 20  1  0
 20 23  1  0
 21 22  1  0
 20 21  1  1
 23 25  2  0
 23 24  1  0
M  END
$$$$
