TRC.pdb
     RDKit          3D

 25 24  0  0  1  0  0  0  0  0999 V2000
   28.9090  -18.1706  -16.6880 C   0  0  0  0  0  0  0  0  0  0  0  0
   27.6943  -18.9504  -16.2077 C   0  0  1  0  0  0  0  0  0  0  0  0
   26.6196  -18.8365  -17.0575 O   0  0  0  0  0  0  0  0  0  0  0  0
   28.0281  -20.3394  -15.7668 C   0  0  2  0  0  0  0  0  0  0  0  0
   28.4183  -21.0867  -16.9458 N   0  0  0  0  0  0  0  0  0  0  0  0
   26.9895  -21.0121  -14.9591 C   0  0  0  0  0  0  0  0  0  0  0  0
   26.3665  -21.9489  -15.5236 O   0  0  0  0  0  0  0  0  0  0  0  0
   21.5409  -20.2748   -8.8936 N   0  0  0  0  0  0  0  0  0  0  0  0
   22.4364  -20.9776   -8.0416 C   0  0  0  0  0  0  0  0  0  0  0  0
   21.9734  -21.6425   -7.0055 N   0  0  0  0  0  0  0  0  0  0  0  0
   23.8337  -20.9876   -8.2326 N   0  0  0  0  0  0  0  0  0  0  0  0
   24.5217  -20.2878   -9.2796 C   0  0  0  0  0  0  0  0  0  0  0  0
   24.3135  -20.8741  -10.6639 C   0  0  0  0  0  0  0  0  0  0  0  0
   25.5739  -20.6295  -11.4481 C   0  0  0  0  0  0  0  0  0  0  0  0
   25.4923  -21.1241  -12.8841 C   0  0  2  0  0  0  0  0  0  0  0  0
   26.6330  -20.7105  -13.6549 N   0  0  0  0  0  0  0  0  0  0  0  0
   24.2774  -20.5088  -13.4469 C   0  0  0  0  0  0  0  0  0  0  0  0
   24.1289  -19.2819  -13.4728 O   0  0  0  0  0  0  0  0  0  0  0  0
   22.6761  -22.1262   -6.3801 N   0  0  0  0  0  0  0  0  0  0  0  0
   23.2651  -21.3440  -13.9692 C   0  0  2  0  0  0  0  0  0  0  0  0
   22.0231  -20.8643  -14.5333 C   0  0  0  0  0  0  0  0  0  0  0  0
   21.2808  -21.9935  -15.2601 S   0  0  0  0  0  0  0  0  0  0  0  0
   19.6790  -21.3341  -15.8803 C   0  0  0  0  0  0  0  0  0  0  0  0
   21.1514  -20.3768  -13.4625 O   0  0  0  0  0  0  0  0  0  0  0  0
   20.4748  -19.1883  -13.6452 O   0  0  0  0  0  0  0  0  0  0  0  0
  2  4  1  0
  2  1  1  6
  3  2  1  0
  4  6  1  0
  4  5  1  6
  6 16  1  0
  7  6  2  0
  9  8  1  0
 10  9  2  0
 11  9  1  0
 12 11  1  0
 13 12  1  0
 14 13  1  0
 15 17  1  0
 15 14  1  1
 16 15  1  0
 17 19  1  0
 18 17  2  0
 19 20  1  0
 20 23  1  0
 21 22  1  0
 20 21  1  6
 23 25  2  0
 23 24  1  0
M  END
$$$$
