TRC.pdb
     RDKit          3D

 25 24  0  0  1  0  0  0  0  0999 V2000
   11.0652  -11.4153  -13.1652 C   0  0  0  0  0  0  0  0  0  0  0  0
   11.4722  -11.8347  -11.7607 C   0  0  1  0  0  0  0  0  0  0  0  0
   10.4387  -12.4048  -11.0557 O   0  0  0  0  0  0  0  0  0  0  0  0
   12.7689  -12.5780  -11.7252 C   0  0  2  0  0  0  0  0  0  0  0  0
   13.0217  -12.9436  -10.3457 N   0  0  0  0  0  0  0  0  0  0  0  0
   13.9073  -11.8927  -12.3719 C   0  0  0  0  0  0  0  0  0  0  0  0
   14.3330  -10.8578  -11.7957 O   0  0  0  0  0  0  0  0  0  0  0  0
   20.0865  -13.4219  -16.2213 N   0  0  0  0  0  0  0  0  0  0  0  0
   19.5846  -14.6803  -16.6525 C   0  0  0  0  0  0  0  0  0  0  0  0
   20.3910  -15.7159  -16.7381 N   0  0  0  0  0  0  0  0  0  0  0  0
   18.2403  -14.8869  -17.0259 N   0  0  0  0  0  0  0  0  0  0  0  0
   17.2006  -13.9037  -16.9179 C   0  0  0  0  0  0  0  0  0  0  0  0
   17.0568  -13.2966  -15.5344 C   0  0  0  0  0  0  0  0  0  0  0  0
   15.8960  -12.3407  -15.5832 C   0  0  0  0  0  0  0  0  0  0  0  0
   15.6288  -11.6533  -14.2530 C   0  0  2  0  0  0  0  0  0  0  0  0
   14.5417  -12.2709  -13.5439 N   0  0  0  0  0  0  0  0  0  0  0  0
   15.2627  -10.2663  -14.5901 C   0  0  0  0  0  0  0  0  0  0  0  0
   14.1215   -9.9736  -14.9640 O   0  0  0  0  0  0  0  0  0  0  0  0
   19.9604  -16.6543  -16.9681 N   0  0  0  0  0  0  0  0  0  0  0  0
   16.2405   -9.2531  -14.4789 C   0  0  2  0  0  0  0  0  0  0  0  0
   16.0143   -7.8628  -14.8057 C   0  0  0  0  0  0  0  0  0  0  0  0
   14.9641   -7.2459  -13.8726 S   0  0  0  0  0  0  0  0  0  0  0  0
   14.9914   -5.4191  -14.0902 C   0  0  0  0  0  0  0  0  0  0  0  0
   17.2576   -7.1082  -14.6358 O   0  0  0  0  0  0  0  0  0  0  0  0
   17.4287   -5.9395  -15.3491 O   0  0  0  0  0  0  0  0  0  0  0  0
  2  4  1  0
  2  1  1  6
  3  2  1  0
  4  6  1  0
  4  5  1  1
  6 16  1  0
  7  6  2  0
  9  8  1  0
 10  9  2  0
 11  9  1  0
 12 11  1  0
 13 12  1  0
 14 13  1  0
 15 17  1  0
 15 14  1  6
 16 15  1  0
 17 19  1  0
 18 17  2  0
 19 20  1  0
 20 23  1  0
 21 22  1  0
 20 21  1  1
 23 25  2  0
 23 24  1  0
M  END
$$$$
