TRC.pdb
     RDKit          3D

 25 24  0  0  1  0  0  0  0  0999 V2000
   28.1666  -20.3583  -18.6627 C   0  0  0  0  0  0  0  0  0  0  0  0
   28.7098  -21.7523  -18.3874 C   0  0  1  0  0  0  0  0  0  0  0  0
   29.9580  -21.9527  -18.9276 O   0  0  0  0  0  0  0  0  0  0  0  0
   28.5449  -22.1730  -16.9623 C   0  0  2  0  0  0  0  0  0  0  0  0
   29.0990  -23.5064  -16.8367 N   0  0  0  0  0  0  0  0  0  0  0  0
   27.1749  -22.0503  -16.4222 C   0  0  0  0  0  0  0  0  0  0  0  0
   26.3353  -22.8893  -16.8410 O   0  0  0  0  0  0  0  0  0  0  0  0
   25.3323  -20.9484   -9.2108 N   0  0  0  0  0  0  0  0  0  0  0  0
   24.1362  -20.8563   -9.9741 C   0  0  0  0  0  0  0  0  0  0  0  0
   23.0681  -20.2889   -9.4573 N   0  0  0  0  0  0  0  0  0  0  0  0
   24.0151  -21.3706  -11.2817 N   0  0  0  0  0  0  0  0  0  0  0  0
   25.0490  -22.0777  -11.9821 C   0  0  0  0  0  0  0  0  0  0  0  0
   26.1327  -21.1867  -12.5610 C   0  0  0  0  0  0  0  0  0  0  0  0
   25.4786  -20.2853  -13.5724 C   0  0  0  0  0  0  0  0  0  0  0  0
   25.4149  -20.8931  -14.9651 C   0  0  2  0  0  0  0  0  0  0  0  0
   26.7266  -21.1060  -15.5132 N   0  0  0  0  0  0  0  0  0  0  0  0
   24.6962  -19.9097  -15.7943 C   0  0  0  0  0  0  0  0  0  0  0  0
   25.2366  -18.8616  -16.1652 O   0  0  0  0  0  0  0  0  0  0  0  0
   22.1681  -20.3440  -10.0104 N   0  0  0  0  0  0  0  0  0  0  0  0
   23.3620  -20.1771  -16.1730 C   0  0  2  0  0  0  0  0  0  0  0  0
   22.5305  -19.2657  -16.9271 C   0  0  0  0  0  0  0  0  0  0  0  0
   22.2995  -19.7878  -18.3514 S   0  0  0  0  0  0  0  0  0  0  0  0
   21.3098  -18.5425  -19.2759 C   0  0  0  0  0  0  0  0  0  0  0  0
   21.2222  -19.1432  -16.2812 O   0  0  0  0  0  0  0  0  0  0  0  0
   20.8990  -20.0167  -15.2631 O   0  0  0  0  0  0  0  0  0  0  0  0
  2  4  1  0
  2  1  1  1
  3  2  1  0
  4  6  1  0
  4  5  1  6
  6 16  1  0
  7  6  2  0
  9  8  1  0
 10  9  2  0
 11  9  1  0
 12 11  1  0
 13 12  1  0
 14 13  1  0
 15 17  1  0
 15 14  1  1
 16 15  1  0
 17 19  1  0
 18 17  2  0
 19 20  1  0
 20 23  1  0
 21 22  1  0
 20 21  1  6
 23 25  2  0
 23 24  1  0
M  END
$$$$
