TRC.pdb
     RDKit          3D

 25 24  0  0  1  0  0  0  0  0999 V2000
   14.8536   -5.7068   -9.0876 C   0  0  0  0  0  0  0  0  0  0  0  0
   16.1806   -6.2924   -9.5461 C   0  0  1  0  0  0  0  0  0  0  0  0
   17.1718   -6.1663   -8.6019 O   0  0  0  0  0  0  0  0  0  0  0  0
   16.0400   -7.6475  -10.1617 C   0  0  2  0  0  0  0  0  0  0  0  0
   15.6572   -8.5653   -9.1072 N   0  0  0  0  0  0  0  0  0  0  0  0
   17.2026   -8.1066  -10.9499 C   0  0  0  0  0  0  0  0  0  0  0  0
   18.0748   -8.7628  -10.3230 O   0  0  0  0  0  0  0  0  0  0  0  0
   16.5273  -12.9161  -17.3514 N   0  0  0  0  0  0  0  0  0  0  0  0
   15.7753  -12.1361  -16.4307 C   0  0  0  0  0  0  0  0  0  0  0  0
   14.4696  -12.0439  -16.5593 N   0  0  0  0  0  0  0  0  0  0  0  0
   16.3635  -11.4167  -15.3698 N   0  0  0  0  0  0  0  0  0  0  0  0
   17.7464  -11.4962  -14.9945 C   0  0  0  0  0  0  0  0  0  0  0  0
   18.1150  -10.6540  -13.7870 C   0  0  0  0  0  0  0  0  0  0  0  0
   18.1243   -9.2162  -14.2297 C   0  0  0  0  0  0  0  0  0  0  0  0
   18.5404   -8.2524  -13.1291 C   0  0  2  0  0  0  0  0  0  0  0  0
   17.4277   -7.8814  -12.2981 N   0  0  0  0  0  0  0  0  0  0  0  0
   19.0492   -7.0555  -13.8217 C   0  0  0  0  0  0  0  0  0  0  0  0
   18.2852   -6.1746  -14.2321 O   0  0  0  0  0  0  0  0  0  0  0  0
   13.9464  -11.4672  -15.8434 N   0  0  0  0  0  0  0  0  0  0  0  0
   20.4413   -6.9156  -14.0155 C   0  0  1  0  0  0  0  0  0  0  0  0
   21.0756   -5.7278  -14.5423 C   0  0  0  0  0  0  0  0  0  0  0  0
   22.4344   -5.4902  -13.8703 S   0  0  0  0  0  0  0  0  0  0  0  0
   22.1478   -5.1092  -12.0932 C   0  0  0  0  0  0  0  0  0  0  0  0
   21.3126   -5.8913  -15.9780 O   0  0  0  0  0  0  0  0  0  0  0  0
   21.7698   -4.8104  -16.7036 O   0  0  0  0  0  0  0  0  0  0  0  0
  2  4  1  0
  2  1  1  1
  3  2  1  0
  4  6  1  0
  4  5  1  1
  6 16  1  0
  7  6  2  0
  9  8  1  0
 10  9  2  0
 11  9  1  0
 12 11  1  0
 13 12  1  0
 14 13  1  0
 15 17  1  0
 15 14  1  6
 16 15  1  0
 17 19  1  0
 18 17  2  0
 19 20  1  0
 20 23  1  0
 21 22  1  0
 20 21  1  6
 23 25  2  0
 23 24  1  0
M  END
$$$$
