TRC.pdb
     RDKit          3D

 25 24  0  0  1  0  0  0  0  0999 V2000
   12.0770   -8.5699  -13.3483 C   0  0  0  0  0  0  0  0  0  0  0  0
   12.0440  -10.0828  -13.1932 C   0  0  1  0  0  0  0  0  0  0  0  0
   11.0830  -10.6766  -13.9768 O   0  0  0  0  0  0  0  0  0  0  0  0
   13.4019  -10.7059  -13.2486 C   0  0  2  0  0  0  0  0  0  0  0  0
   13.2336  -12.1312  -13.0462 N   0  0  0  0  0  0  0  0  0  0  0  0
   14.4120  -10.0988  -12.3571 C   0  0  0  0  0  0  0  0  0  0  0  0
   14.3597  -10.4376  -11.1460 O   0  0  0  0  0  0  0  0  0  0  0  0
   21.7932   -7.9914  -15.8648 N   0  0  0  0  0  0  0  0  0  0  0  0
   20.7919   -8.9548  -16.1662 C   0  0  0  0  0  0  0  0  0  0  0  0
   20.7669   -9.5298  -17.3489 N   0  0  0  0  0  0  0  0  0  0  0  0
   19.7812   -9.3265  -15.2554 N   0  0  0  0  0  0  0  0  0  0  0  0
   19.6991   -8.8760  -13.8954 C   0  0  0  0  0  0  0  0  0  0  0  0
   18.4943   -9.4003  -13.1358 C   0  0  0  0  0  0  0  0  0  0  0  0
   17.6411   -8.2146  -12.7756 C   0  0  0  0  0  0  0  0  0  0  0  0
   16.4306   -8.5812  -11.9309 C   0  0  2  0  0  0  0  0  0  0  0  0
   15.3979   -9.1957  -12.7196 N   0  0  0  0  0  0  0  0  0  0  0  0
   15.9299   -7.3085  -11.3824 C   0  0  0  0  0  0  0  0  0  0  0  0
   15.3540   -6.4807  -12.0973 O   0  0  0  0  0  0  0  0  0  0  0  0
   19.9933  -10.2258  -17.5389 N   0  0  0  0  0  0  0  0  0  0  0  0
   16.1123   -7.0353  -10.0087 C   0  0  1  0  0  0  0  0  0  0  0  0
   15.7216   -5.8012   -9.3643 C   0  0  0  0  0  0  0  0  0  0  0  0
   14.6313   -6.0542   -8.3146 S   0  0  0  0  0  0  0  0  0  0  0  0
   14.3277   -4.4873   -7.3994 C   0  0  0  0  0  0  0  0  0  0  0  0
   16.8748   -5.2186   -8.6753 O   0  0  0  0  0  0  0  0  0  0  0  0
   16.8874   -3.8604   -8.4321 O   0  0  0  0  0  0  0  0  0  0  0  0
  2  4  1  0
  2  1  1  6
  3  2  1  0
  4  6  1  0
  4  5  1  1
  6 16  1  0
  7  6  2  0
  9  8  1  0
 10  9  2  0
 11  9  1  0
 12 11  1  0
 13 12  1  0
 14 13  1  0
 15 17  1  0
 15 14  1  6
 16 15  1  0
 17 19  1  0
 18 17  2  0
 19 20  1  0
 20 23  1  0
 21 22  1  0
 20 21  1  1
 23 25  2  0
 23 24  1  0
M  END
$$$$
