TRC.pdb
     RDKit          3D

 25 24  0  0  1  0  0  0  0  0999 V2000
   27.3328  -20.3950  -16.5758 C   0  0  0  0  0  0  0  0  0  0  0  0
   27.6419  -21.8286  -16.9799 C   0  0  1  0  0  0  0  0  0  0  0  0
   28.7092  -21.9196  -17.8418 O   0  0  0  0  0  0  0  0  0  0  0  0
   27.6631  -22.7714  -15.8198 C   0  0  2  0  0  0  0  0  0  0  0  0
   27.8285  -24.1096  -16.3514 N   0  0  0  0  0  0  0  0  0  0  0  0
   26.5275  -22.6451  -14.8828 C   0  0  0  0  0  0  0  0  0  0  0  0
   25.5158  -23.3493  -15.1376 O   0  0  0  0  0  0  0  0  0  0  0  0
   22.0820  -19.6916   -9.0153 N   0  0  0  0  0  0  0  0  0  0  0  0
   22.5135  -20.9904   -8.6300 C   0  0  0  0  0  0  0  0  0  0  0  0
   21.6791  -21.8088   -8.0266 N   0  0  0  0  0  0  0  0  0  0  0  0
   23.8261  -21.4608   -8.8419 N   0  0  0  0  0  0  0  0  0  0  0  0
   24.8905  -20.6869   -9.4143 C   0  0  0  0  0  0  0  0  0  0  0  0
   24.6410  -20.2438  -10.8443 C   0  0  0  0  0  0  0  0  0  0  0  0
   25.7906  -20.7446  -11.6754 C   0  0  0  0  0  0  0  0  0  0  0  0
   25.3476  -21.4760  -12.9332 C   0  0  2  0  0  0  0  0  0  0  0  0
   26.4655  -21.8292  -13.7649 N   0  0  0  0  0  0  0  0  0  0  0  0
   24.4831  -20.5287  -13.6589 C   0  0  0  0  0  0  0  0  0  0  0  0
   24.8763  -19.3953  -13.9568 O   0  0  0  0  0  0  0  0  0  0  0  0
   22.0280  -22.7798   -7.7934 N   0  0  0  0  0  0  0  0  0  0  0  0
   23.1787  -20.9310  -14.0219 C   0  0  2  0  0  0  0  0  0  0  0  0
   22.2251  -20.0850  -14.7043 C   0  0  0  0  0  0  0  0  0  0  0  0
   21.8554  -20.6719  -16.0731 S   0  0  0  0  0  0  0  0  0  0  0  0
   23.3774  -20.7525  -17.1037 C   0  0  0  0  0  0  0  0  0  0  0  0
   20.9958  -19.9914  -13.9144 O   0  0  0  0  0  0  0  0  0  0  0  0
   20.0328  -19.0769  -14.2891 O   0  0  0  0  0  0  0  0  0  0  0  0
  2  4  1  0
  2  1  1  1
  3  2  1  0
  4  6  1  0
  4  5  1  6
  6 16  1  0
  7  6  2  0
  9  8  1  0
 10  9  2  0
 11  9  1  0
 12 11  1  0
 13 12  1  0
 14 13  1  0
 15 17  1  0
 15 14  1  1
 16 15  1  0
 17 19  1  0
 18 17  2  0
 19 20  1  0
 20 23  1  0
 21 22  1  0
 20 21  1  1
 23 25  2  0
 23 24  1  0
M  END
$$$$
