PQV.pdb
     RDKit          3D

 24 24  0  0  1  0  0  0  0  0999 V2000
    8.9570  -14.8656   19.1028 N   0  0  0  0  0  0  0  0  0  0  0  0
    9.0787  -14.1512   17.8314 C   0  0  0  0  0  0  0  0  0  0  0  0
    7.9137  -13.2157   17.7601 C   0  0  0  0  0  0  0  0  0  0  0  0
    7.2033  -13.4066   19.0813 C   0  0  0  0  0  0  0  0  0  0  0  0
    8.3524  -13.8549   19.9541 C   0  0  1  0  0  0  0  0  0  0  0  0
    7.9386  -14.4023   21.2609 C   0  0  0  0  0  0  0  0  0  0  0  0
    7.1251  -13.8223   21.9917 O   0  0  0  0  0  0  0  0  0  0  0  0
    9.9251  -20.0524   23.1635 N   0  0  0  0  0  0  0  0  0  0  0  0
    9.1727  -19.7459   21.9995 C   0  0  0  0  0  0  0  0  0  0  0  0
    9.0413  -20.6171   21.1176 O   0  0  0  0  0  0  0  0  0  0  0  0
    8.5544  -18.3690   21.8676 C   0  0  0  0  0  0  0  0  0  0  0  0
    8.8019  -17.5811   23.1227 C   0  0  0  0  0  0  0  0  0  0  0  0
    8.1974  -16.2096   22.9917 C   0  0  2  0  0  0  0  0  0  0  0  0
    8.5027  -15.6410   21.6806 N   0  0  0  0  0  0  0  0  0  0  0  0
    8.5848  -15.2473   24.0188 C   0  0  0  0  0  0  0  0  0  0  0  0
    9.7463  -14.7187   24.0764 O   0  0  0  0  0  0  0  0  0  0  0  0
    6.1336  -12.4971   25.2828 C   0  0  0  0  0  0  0  0  0  0  0  0
    6.8313  -13.1152   26.5000 C   0  0  2  0  0  0  0  0  0  0  0  0
    7.1518  -12.0160   27.4780 C   0  0  0  0  0  0  0  0  0  0  0  0
    8.0723  -13.8588   26.0336 C   0  0  2  0  0  0  0  0  0  0  0  0
    7.6913  -14.8315   25.0240 N   0  0  0  0  0  0  0  0  0  0  0  0
    8.6954  -14.4879   27.2105 C   0  0  0  0  0  0  0  0  0  0  0  0
    8.4055  -15.7164   27.4472 O   0  0  0  0  0  0  0  0  0  0  0  0
    9.5600  -13.9010   28.0909 O   0  0  0  0  0  0  0  0  0  0  0  0
  1  5  1  0
  1  2  1  0
  2  3  1  0
  4  3  1  0
  5  4  1  0
  5  6  1  1
  6  7  2  0
  9  8  1  0
  9 11  1  0
 10  9  2  0
 12 11  1  0
 13 14  1  0
 13 12  1  1
 14  6  1  0
 15 13  1  0
 16 15  2  0
 18 17  1  6
 18 20  1  0
 19 18  1  0
 20 22  1  0
 20 21  1  6
 21 15  1  0
 22 24  1  0
 23 22  2  0
M  END
$$$$
