PQV.pdb
     RDKit          3D

 24 24  0  0  1  0  0  0  0  0999 V2000
    8.3800  -15.5271   19.4025 N   0  0  0  0  0  0  0  0  0  0  0  0
    8.7357  -15.0317   18.0723 C   0  0  0  0  0  0  0  0  0  0  0  0
    8.0384  -13.7182   17.9110 C   0  0  0  0  0  0  0  0  0  0  0  0
    7.3534  -13.4961   19.2407 C   0  0  0  0  0  0  0  0  0  0  0  0
    8.2558  -14.2906   20.1560 C   0  0  1  0  0  0  0  0  0  0  0  0
    7.7001  -14.5138   21.5050 C   0  0  0  0  0  0  0  0  0  0  0  0
    7.3169  -13.5815   22.2234 O   0  0  0  0  0  0  0  0  0  0  0  0
    7.2725  -20.2586   24.2461 N   0  0  0  0  0  0  0  0  0  0  0  0
    6.7839  -19.3985   25.2641 C   0  0  0  0  0  0  0  0  0  0  0  0
    6.4312  -19.8906   26.3538 O   0  0  0  0  0  0  0  0  0  0  0  0
    6.7070  -17.9101   24.9919 C   0  0  0  0  0  0  0  0  0  0  0  0
    7.1556  -17.6292   23.5857 C   0  0  0  0  0  0  0  0  0  0  0  0
    7.0864  -16.1511   23.3137 C   0  0  2  0  0  0  0  0  0  0  0  0
    7.6075  -15.8529   21.9815 N   0  0  0  0  0  0  0  0  0  0  0  0
    7.7675  -15.2975   24.2825 C   0  0  0  0  0  0  0  0  0  0  0  0
    9.0129  -15.0215   24.2142 O   0  0  0  0  0  0  0  0  0  0  0  0
    5.7421  -12.3246   25.8932 C   0  0  0  0  0  0  0  0  0  0  0  0
    6.6712  -12.9297   26.9518 C   0  0  2  0  0  0  0  0  0  0  0  0
    7.2603  -11.8102   27.7687 C   0  0  0  0  0  0  0  0  0  0  0  0
    7.7347  -13.7645   26.2570 C   0  0  2  0  0  0  0  0  0  0  0  0
    7.0870  -14.7132   25.3675 N   0  0  0  0  0  0  0  0  0  0  0  0
    8.5409  -14.4299   27.2944 C   0  0  0  0  0  0  0  0  0  0  0  0
    9.3087  -13.6909   28.0112 O   0  0  0  0  0  0  0  0  0  0  0  0
    8.5629  -15.7654   27.5829 O   0  0  0  0  0  0  0  0  0  0  0  0
  1  5  1  0
  1  2  1  0
  2  3  1  0
  4  3  1  0
  5  4  1  0
  5  6  1  1
  6  7  2  0
  9  8  1  0
  9 11  1  0
 10  9  2  0
 12 11  1  0
 13 14  1  0
 13 12  1  1
 14  6  1  0
 15 13  1  0
 16 15  2  0
 18 17  1  6
 18 20  1  0
 19 18  1  0
 20 22  1  0
 20 21  1  6
 21 15  1  0
 22 24  1  0
 23 22  2  0
M  END
$$$$
