PQV.pdb
     RDKit          3D

 24 24  0  0  1  0  0  0  0  0999 V2000
    8.9974  -14.9119   19.1656 N   0  0  0  0  0  0  0  0  0  0  0  0
    9.1657  -14.2689   17.8619 C   0  0  0  0  0  0  0  0  0  0  0  0
    7.9910  -13.3598   17.6852 C   0  0  0  0  0  0  0  0  0  0  0  0
    7.2245  -13.4879   18.9825 C   0  0  0  0  0  0  0  0  0  0  0  0
    8.3396  -13.8653   19.9297 C   0  0  1  0  0  0  0  0  0  0  0  0
    7.8753  -14.3448   21.2462 C   0  0  0  0  0  0  0  0  0  0  0  0
    7.0254  -13.7355   21.9084 O   0  0  0  0  0  0  0  0  0  0  0  0
    5.6094  -18.5803   25.3163 N   0  0  0  0  0  0  0  0  0  0  0  0
    6.5861  -18.8163   24.3138 C   0  0  0  0  0  0  0  0  0  0  0  0
    6.3062  -19.5727   23.3631 O   0  0  0  0  0  0  0  0  0  0  0  0
    7.9371  -18.1410   24.4328 C   0  0  0  0  0  0  0  0  0  0  0  0
    8.3432  -17.5834   23.0980 C   0  0  0  0  0  0  0  0  0  0  0  0
    7.9707  -16.1279   23.0184 C   0  0  2  0  0  0  0  0  0  0  0  0
    8.4332  -15.5514   21.7578 N   0  0  0  0  0  0  0  0  0  0  0  0
    8.4482  -15.2922   24.1161 C   0  0  0  0  0  0  0  0  0  0  0  0
    9.6774  -14.9822   24.2725 O   0  0  0  0  0  0  0  0  0  0  0  0
    6.2760  -12.3176   25.3671 C   0  0  0  0  0  0  0  0  0  0  0  0
    6.8936  -12.9977   26.5945 C   0  0  2  0  0  0  0  0  0  0  0  0
    7.3362  -11.9313   27.5612 C   0  0  0  0  0  0  0  0  0  0  0  0
    8.0416  -13.8855   26.1422 C   0  0  2  0  0  0  0  0  0  0  0  0
    7.5734  -14.7645   25.0846 N   0  0  0  0  0  0  0  0  0  0  0  0
    8.5300  -14.6308   27.3148 C   0  0  0  0  0  0  0  0  0  0  0  0
    9.1377  -13.9635   28.2285 O   0  0  0  0  0  0  0  0  0  0  0  0
    8.4064  -15.9726   27.5416 O   0  0  0  0  0  0  0  0  0  0  0  0
  1  5  1  0
  1  2  1  0
  2  3  1  0
  4  3  1  0
  5  4  1  0
  5  6  1  1
  6  7  2  0
  9  8  1  0
  9 11  1  0
 10  9  2  0
 12 11  1  0
 13 14  1  0
 13 12  1  1
 14  6  1  0
 15 13  1  0
 16 15  2  0
 18 17  1  6
 18 20  1  0
 19 18  1  0
 20 22  1  0
 20 21  1  6
 21 15  1  0
 22 24  1  0
 23 22  2  0
M  END
$$$$
