PQV.pdb
     RDKit          3D

 24 24  0  0  1  0  0  0  0  0999 V2000
    8.5444  -15.2851   19.3950 N   0  0  0  0  0  0  0  0  0  0  0  0
    8.8919  -14.8096   18.0553 C   0  0  0  0  0  0  0  0  0  0  0  0
    8.1116  -13.5520   17.8386 C   0  0  0  0  0  0  0  0  0  0  0  0
    7.3876  -13.3343   19.1483 C   0  0  0  0  0  0  0  0  0  0  0  0
    8.3233  -14.0364   20.1047 C   0  0  1  0  0  0  0  0  0  0  0  0
    7.7578  -14.2533   21.4507 C   0  0  0  0  0  0  0  0  0  0  0  0
    7.3558  -13.3190   22.1561 O   0  0  0  0  0  0  0  0  0  0  0  0
    6.7661  -20.0222   23.9778 N   0  0  0  0  0  0  0  0  0  0  0  0
    6.5474  -19.1641   25.0872 C   0  0  0  0  0  0  0  0  0  0  0  0
    6.2369  -19.6639   26.1862 O   0  0  0  0  0  0  0  0  0  0  0  0
    6.6983  -17.6685   24.8982 C   0  0  0  0  0  0  0  0  0  0  0  0
    6.9943  -17.3681   23.4561 C   0  0  0  0  0  0  0  0  0  0  0  0
    7.1280  -15.8823   23.2615 C   0  0  2  0  0  0  0  0  0  0  0  0
    7.6778  -15.5887   21.9398 N   0  0  0  0  0  0  0  0  0  0  0  0
    7.9259  -15.1827   24.2641 C   0  0  0  0  0  0  0  0  0  0  0  0
    9.2019  -15.2316   24.2979 O   0  0  0  0  0  0  0  0  0  0  0  0
    6.0468  -13.3205   27.5878 C   0  0  0  0  0  0  0  0  0  0  0  0
    7.2809  -12.6625   26.9599 C   0  0  2  0  0  0  0  0  0  0  0  0
    6.8199  -11.6057   25.9913 C   0  0  0  0  0  0  0  0  0  0  0  0
    8.1266  -13.7345   26.2919 C   0  0  2  0  0  0  0  0  0  0  0  0
    7.3336  -14.3964   25.2703 N   0  0  0  0  0  0  0  0  0  0  0  0
    8.5871  -14.6668   27.3349 C   0  0  0  0  0  0  0  0  0  0  0  0
    8.0441  -15.8301   27.3697 O   0  0  0  0  0  0  0  0  0  0  0  0
    9.5415  -14.4278   28.2831 O   0  0  0  0  0  0  0  0  0  0  0  0
  1  5  1  0
  1  2  1  0
  2  3  1  0
  4  3  1  0
  5  4  1  0
  5  6  1  1
  6  7  2  0
  9  8  1  0
  9 11  1  0
 10  9  2  0
 12 11  1  0
 13 14  1  0
 13 12  1  1
 14  6  1  0
 15 13  1  0
 16 15  2  0
 18 17  1  6
 18 20  1  0
 19 18  1  0
 20 22  1  0
 20 21  1  6
 21 15  1  0
 22 24  1  0
 23 22  2  0
M  END
$$$$
