PQV.pdb
     RDKit          3D

 24 24  0  0  1  0  0  0  0  0999 V2000
    8.2344  -15.3170   19.2689 N   0  0  0  0  0  0  0  0  0  0  0  0
    8.5739  -14.9025   17.9071 C   0  0  0  0  0  0  0  0  0  0  0  0
    8.0920  -13.4938   17.7625 C   0  0  0  0  0  0  0  0  0  0  0  0
    7.5460  -13.1465   19.1293 C   0  0  0  0  0  0  0  0  0  0  0  0
    8.3669  -14.0685   20.0006 C   0  0  1  0  0  0  0  0  0  0  0  0
    7.8765  -14.1813   21.3882 C   0  0  0  0  0  0  0  0  0  0  0  0
    7.7872  -13.2008   22.1384 O   0  0  0  0  0  0  0  0  0  0  0  0
    5.4185  -19.5981   23.4943 N   0  0  0  0  0  0  0  0  0  0  0  0
    6.7738  -19.3674   23.8477 C   0  0  0  0  0  0  0  0  0  0  0  0
    7.4602  -20.3203   24.2660 O   0  0  0  0  0  0  0  0  0  0  0  0
    7.3410  -17.9698   23.7052 C   0  0  0  0  0  0  0  0  0  0  0  0
    6.2566  -17.0259   23.2687 C   0  0  0  0  0  0  0  0  0  0  0  0
    6.8117  -15.6330   23.1454 C   0  0  2  0  0  0  0  0  0  0  0  0
    7.4962  -15.4685   21.8648 N   0  0  0  0  0  0  0  0  0  0  0  0
    7.7148  -15.2156   24.2137 C   0  0  0  0  0  0  0  0  0  0  0  0
    8.9859  -15.3084   24.1281 O   0  0  0  0  0  0  0  0  0  0  0  0
    6.1225  -13.3370   27.6650 C   0  0  0  0  0  0  0  0  0  0  0  0
    7.4369  -12.8720   27.0276 C   0  0  2  0  0  0  0  0  0  0  0  0
    7.1278  -11.7902   26.0267 C   0  0  0  0  0  0  0  0  0  0  0  0
    8.1301  -14.0681   26.3956 C   0  0  2  0  0  0  0  0  0  0  0  0
    7.2377  -14.6740   25.4223 N   0  0  0  0  0  0  0  0  0  0  0  0
    8.5003  -15.0014   27.4731 C   0  0  0  0  0  0  0  0  0  0  0  0
    7.8393  -16.0993   27.5575 O   0  0  0  0  0  0  0  0  0  0  0  0
    9.4832  -14.8262   28.4061 O   0  0  0  0  0  0  0  0  0  0  0  0
  1  5  1  0
  1  2  1  0
  2  3  1  0
  4  3  1  0
  5  4  1  0
  5  6  1  1
  6  7  2  0
  9  8  1  0
  9 11  1  0
 10  9  2  0
 12 11  1  0
 13 14  1  0
 13 12  1  1
 14  6  1  0
 15 13  1  0
 16 15  2  0
 18 17  1  6
 18 20  1  0
 19 18  1  0
 20 22  1  0
 20 21  1  6
 21 15  1  0
 22 24  1  0
 23 22  2  0
M  END
$$$$
