PQV.pdb
     RDKit          3D

 24 24  0  0  1  0  0  0  0  0999 V2000
    8.1890  -15.6486   19.5044 N   0  0  0  0  0  0  0  0  0  0  0  0
    8.6031  -15.2662   18.1540 C   0  0  0  0  0  0  0  0  0  0  0  0
    8.0395  -13.9021   17.9104 C   0  0  0  0  0  0  0  0  0  0  0  0
    7.3681  -13.5396   19.2160 C   0  0  0  0  0  0  0  0  0  0  0  0
    8.1804  -14.3653   20.1864 C   0  0  1  0  0  0  0  0  0  0  0  0
    7.5938  -14.4567   21.5378 C   0  0  0  0  0  0  0  0  0  0  0  0
    7.4230  -13.4602   22.2518 O   0  0  0  0  0  0  0  0  0  0  0  0
    7.2836  -20.7514   23.8387 N   0  0  0  0  0  0  0  0  0  0  0  0
    6.9426  -19.4928   24.3995 C   0  0  0  0  0  0  0  0  0  0  0  0
    6.3278  -19.4604   25.4835 O   0  0  0  0  0  0  0  0  0  0  0  0
    7.3371  -18.2300   23.6612 C   0  0  0  0  0  0  0  0  0  0  0  0
    6.1422  -17.3293   23.5252 C   0  0  0  0  0  0  0  0  0  0  0  0
    6.5944  -15.9072   23.3340 C   0  0  2  0  0  0  0  0  0  0  0  0
    7.2159  -15.7419   22.0218 N   0  0  0  0  0  0  0  0  0  0  0  0
    7.5070  -15.3920   24.3503 C   0  0  0  0  0  0  0  0  0  0  0  0
    8.7760  -15.3777   24.2049 O   0  0  0  0  0  0  0  0  0  0  0  0
    6.0929  -12.2497   26.2014 C   0  0  0  0  0  0  0  0  0  0  0  0
    6.9518  -13.0598   27.1794 C   0  0  2  0  0  0  0  0  0  0  0  0
    7.7235  -12.1010   28.0470 C   0  0  0  0  0  0  0  0  0  0  0  0
    7.8593  -13.9879   26.3884 C   0  0  2  0  0  0  0  0  0  0  0  0
    7.0419  -14.8680   25.5712 N   0  0  0  0  0  0  0  0  0  0  0  0
    8.6971  -14.7302   27.3456 C   0  0  0  0  0  0  0  0  0  0  0  0
    8.3459  -15.9323   27.6305 O   0  0  0  0  0  0  0  0  0  0  0  0
    9.8225  -14.2753   27.9730 O   0  0  0  0  0  0  0  0  0  0  0  0
  1  5  1  0
  1  2  1  0
  2  3  1  0
  4  3  1  0
  5  4  1  0
  5  6  1  1
  6  7  2  0
  9  8  1  0
  9 11  1  0
 10  9  2  0
 12 11  1  0
 13 14  1  0
 13 12  1  1
 14  6  1  0
 15 13  1  0
 16 15  2  0
 18 17  1  6
 18 20  1  0
 19 18  1  0
 20 22  1  0
 20 21  1  1
 21 15  1  0
 22 24  1  0
 23 22  2  0
M  END
$$$$
