PQV.pdb
     RDKit          3D

 24 24  0  0  1  0  0  0  0  0999 V2000
    7.7869  -15.1250   18.6572 N   0  0  0  0  0  0  0  0  0  0  0  0
    8.0658  -14.2201   17.5416 C   0  0  0  0  0  0  0  0  0  0  0  0
    8.0436  -12.8351   18.1063 C   0  0  0  0  0  0  0  0  0  0  0  0
    7.8141  -13.0418   19.5866 C   0  0  0  0  0  0  0  0  0  0  0  0
    8.4017  -14.4217   19.7704 C   0  0  1  0  0  0  0  0  0  0  0  0
    8.0805  -15.0453   21.0690 C   0  0  0  0  0  0  0  0  0  0  0  0
    6.9155  -15.1901   21.4614 O   0  0  0  0  0  0  0  0  0  0  0  0
   10.6608  -19.6318   20.6873 N   0  0  0  0  0  0  0  0  0  0  0  0
   10.5116  -19.2658   22.0506 C   0  0  0  0  0  0  0  0  0  0  0  0
   11.3570  -19.6588   22.8782 O   0  0  0  0  0  0  0  0  0  0  0  0
    9.3289  -18.4094   22.4547 C   0  0  0  0  0  0  0  0  0  0  0  0
    9.7885  -17.3137   23.3743 C   0  0  0  0  0  0  0  0  0  0  0  0
    8.9202  -16.0984   23.1939 C   0  0  2  0  0  0  0  0  0  0  0  0
    9.1585  -15.4910   21.8864 N   0  0  0  0  0  0  0  0  0  0  0  0
    9.0552  -15.0673   24.2184 C   0  0  0  0  0  0  0  0  0  0  0  0
   10.1001  -14.3436   24.3458 O   0  0  0  0  0  0  0  0  0  0  0  0
    6.3899  -12.4670   25.1313 C   0  0  0  0  0  0  0  0  0  0  0  0
    6.8534  -13.1223   26.4375 C   0  0  2  0  0  0  0  0  0  0  0  0
    6.9366  -12.0613   27.5028 C   0  0  0  0  0  0  0  0  0  0  0  0
    8.1867  -13.8121   26.1983 C   0  0  2  0  0  0  0  0  0  0  0  0
    8.0284  -14.7979   25.1430 N   0  0  0  0  0  0  0  0  0  0  0  0
    8.6208  -14.4169   27.4691 C   0  0  0  0  0  0  0  0  0  0  0  0
    8.2794  -15.6348   27.6914 O   0  0  0  0  0  0  0  0  0  0  0  0
    9.3570  -13.8173   28.4517 O   0  0  0  0  0  0  0  0  0  0  0  0
  1  5  1  0
  1  2  1  0
  2  3  1  0
  4  3  1  0
  5  4  1  0
  5  6  1  1
  6  7  2  0
  9  8  1  0
  9 11  1  0
 10  9  2  0
 12 11  1  0
 13 14  1  0
 13 12  1  1
 14  6  1  0
 15 13  1  0
 16 15  2  0
 18 17  1  6
 18 20  1  0
 19 18  1  0
 20 22  1  0
 20 21  1  6
 21 15  1  0
 22 24  1  0
 23 22  2  0
M  END
$$$$
