PQV.pdb
     RDKit          3D

 24 24  0  0  1  0  0  0  0  0999 V2000
    8.3297  -15.4606   19.3410 N   0  0  0  0  0  0  0  0  0  0  0  0
    8.6189  -14.9416   18.0036 C   0  0  0  0  0  0  0  0  0  0  0  0
    7.8519  -13.6641   17.8721 C   0  0  0  0  0  0  0  0  0  0  0  0
    7.1980  -13.4833   19.2236 C   0  0  0  0  0  0  0  0  0  0  0  0
    8.1670  -14.2357   20.1057 C   0  0  1  0  0  0  0  0  0  0  0  0
    7.6651  -14.4930   21.4697 C   0  0  0  0  0  0  0  0  0  0  0  0
    7.3488  -13.5774   22.2402 O   0  0  0  0  0  0  0  0  0  0  0  0
    7.2785  -20.2784   24.0436 N   0  0  0  0  0  0  0  0  0  0  0  0
    6.6490  -19.4817   25.0355 C   0  0  0  0  0  0  0  0  0  0  0  0
    6.2819  -20.0185   26.0990 O   0  0  0  0  0  0  0  0  0  0  0  0
    6.4438  -18.0046   24.7680 C   0  0  0  0  0  0  0  0  0  0  0  0
    6.9084  -17.6729   23.3782 C   0  0  0  0  0  0  0  0  0  0  0  0
    7.0163  -16.1808   23.2188 C   0  0  2  0  0  0  0  0  0  0  0  0
    7.5456  -15.8460   21.8985 N   0  0  0  0  0  0  0  0  0  0  0  0
    7.8149  -15.4933   24.2292 C   0  0  0  0  0  0  0  0  0  0  0  0
    9.0921  -15.4777   24.2164 O   0  0  0  0  0  0  0  0  0  0  0  0
    6.4372  -12.1165   25.5939 C   0  0  0  0  0  0  0  0  0  0  0  0
    7.1073  -12.8617   26.7540 C   0  0  2  0  0  0  0  0  0  0  0  0
    7.8695  -11.8653   27.5870 C   0  0  0  0  0  0  0  0  0  0  0  0
    8.0022  -13.9529   26.1892 C   0  0  2  0  0  0  0  0  0  0  0  0
    7.2218  -14.7913   25.2955 N   0  0  0  0  0  0  0  0  0  0  0  0
    8.5646  -14.7110   27.3197 C   0  0  0  0  0  0  0  0  0  0  0  0
    7.9578  -15.7872   27.6703 O   0  0  0  0  0  0  0  0  0  0  0  0
    9.6763  -14.3917   28.0473 O   0  0  0  0  0  0  0  0  0  0  0  0
  1  5  1  0
  1  2  1  0
  2  3  1  0
  4  3  1  0
  5  4  1  0
  5  6  1  1
  6  7  2  0
  9  8  1  0
  9 11  1  0
 10  9  2  0
 12 11  1  0
 13 14  1  0
 13 12  1  1
 14  6  1  0
 15 13  1  0
 16 15  2  0
 18 17  1  6
 18 20  1  0
 19 18  1  0
 20 22  1  0
 20 21  1  6
 21 15  1  0
 22 24  1  0
 23 22  2  0
M  END
$$$$
