PQV.pdb
     RDKit          3D

 24 24  0  0  1  0  0  0  0  0999 V2000
    8.2054  -15.3296   19.4354 N   0  0  0  0  0  0  0  0  0  0  0  0
    8.4217  -14.8046   18.0867 C   0  0  0  0  0  0  0  0  0  0  0  0
    7.7255  -13.4818   18.0324 C   0  0  0  0  0  0  0  0  0  0  0  0
    7.1894  -13.2870   19.4329 C   0  0  0  0  0  0  0  0  0  0  0  0
    8.1762  -14.1111   20.2268 C   0  0  1  0  0  0  0  0  0  0  0  0
    7.7661  -14.3629   21.6221 C   0  0  0  0  0  0  0  0  0  0  0  0
    7.5342  -13.4436   22.4180 O   0  0  0  0  0  0  0  0  0  0  0  0
    6.9733  -20.1991   24.0823 N   0  0  0  0  0  0  0  0  0  0  0  0
    6.5938  -19.3587   25.1614 C   0  0  0  0  0  0  0  0  0  0  0  0
    6.1922  -19.8790   26.2208 O   0  0  0  0  0  0  0  0  0  0  0  0
    6.6891  -17.8565   24.9895 C   0  0  0  0  0  0  0  0  0  0  0  0
    7.1231  -17.5343   23.5876 C   0  0  0  0  0  0  0  0  0  0  0  0
    7.1986  -16.0427   23.4070 C   0  0  2  0  0  0  0  0  0  0  0  0
    7.6362  -15.7147   22.0518 N   0  0  0  0  0  0  0  0  0  0  0  0
    8.0509  -15.3333   24.3565 C   0  0  0  0  0  0  0  0  0  0  0  0
    9.3258  -15.3235   24.2767 O   0  0  0  0  0  0  0  0  0  0  0  0
    6.2765  -12.8579   27.2728 C   0  0  0  0  0  0  0  0  0  0  0  0
    7.6532  -12.5316   26.6824 C   0  0  2  0  0  0  0  0  0  0  0  0
    7.4619  -11.6369   25.4864 C   0  0  0  0  0  0  0  0  0  0  0  0
    8.3603  -13.8303   26.3300 C   0  0  2  0  0  0  0  0  0  0  0  0
    7.5164  -14.6021   25.4342 N   0  0  0  0  0  0  0  0  0  0  0  0
    8.6483  -14.5467   27.5842 C   0  0  0  0  0  0  0  0  0  0  0  0
    7.9477  -15.5916   27.8425 O   0  0  0  0  0  0  0  0  0  0  0  0
    9.5916  -14.2182   28.5166 O   0  0  0  0  0  0  0  0  0  0  0  0
  1  5  1  0
  1  2  1  0
  2  3  1  0
  4  3  1  0
  5  4  1  0
  5  6  1  1
  6  7  2  0
  9  8  1  0
  9 11  1  0
 10  9  2  0
 12 11  1  0
 13 14  1  0
 13 12  1  1
 14  6  1  0
 15 13  1  0
 16 15  2  0
 18 17  1  6
 18 20  1  0
 19 18  1  0
 20 22  1  0
 20 21  1  6
 21 15  1  0
 22 24  1  0
 23 22  2  0
M  END
$$$$
