PQV.pdb
     RDKit          3D

 24 24  0  0  1  0  0  0  0  0999 V2000
    8.6388  -15.1864   19.3184 N   0  0  0  0  0  0  0  0  0  0  0  0
    8.9511  -14.6037   18.0129 C   0  0  0  0  0  0  0  0  0  0  0  0
    8.0427  -13.4268   17.8481 C   0  0  0  0  0  0  0  0  0  0  0  0
    7.2817  -13.3600   19.1532 C   0  0  0  0  0  0  0  0  0  0  0  0
    8.2746  -14.0094   20.0890 C   0  0  1  0  0  0  0  0  0  0  0  0
    7.7175  -14.3591   21.4103 C   0  0  0  0  0  0  0  0  0  0  0  0
    7.2141  -13.5120   22.1595 O   0  0  0  0  0  0  0  0  0  0  0  0
    5.9841  -20.0330   25.8550 N   0  0  0  0  0  0  0  0  0  0  0  0
    6.5202  -19.4708   24.6670 C   0  0  0  0  0  0  0  0  0  0  0  0
    6.5974  -20.1792   23.6441 O   0  0  0  0  0  0  0  0  0  0  0  0
    6.9812  -18.0277   24.6819 C   0  0  0  0  0  0  0  0  0  0  0  0
    7.4250  -17.6242   23.3043 C   0  0  0  0  0  0  0  0  0  0  0  0
    7.2992  -16.1336   23.1439 C   0  0  2  0  0  0  0  0  0  0  0  0
    7.7675  -15.7216   21.8224 N   0  0  0  0  0  0  0  0  0  0  0  0
    7.9830  -15.3293   24.1523 C   0  0  0  0  0  0  0  0  0  0  0  0
    9.2439  -15.1251   24.1438 O   0  0  0  0  0  0  0  0  0  0  0  0
    6.1617  -12.2138   25.7945 C   0  0  0  0  0  0  0  0  0  0  0  0
    6.9399  -12.9838   26.8676 C   0  0  2  0  0  0  0  0  0  0  0  0
    7.5748  -11.9905   27.8045 C   0  0  0  0  0  0  0  0  0  0  0  0
    7.9634  -13.8795   26.1888 C   0  0  2  0  0  0  0  0  0  0  0  0
    7.2880  -14.7163   25.2120 N   0  0  0  0  0  0  0  0  0  0  0  0
    8.6394  -14.6700   27.2316 C   0  0  0  0  0  0  0  0  0  0  0  0
    9.4312  -14.0455   28.0268 O   0  0  0  0  0  0  0  0  0  0  0  0
    8.5157  -16.0132   27.4497 O   0  0  0  0  0  0  0  0  0  0  0  0
  1  5  1  0
  1  2  1  0
  2  3  1  0
  4  3  1  0
  5  4  1  0
  5  6  1  1
  6  7  2  0
  9  8  1  0
  9 11  1  0
 10  9  2  0
 12 11  1  0
 13 14  1  0
 13 12  1  1
 14  6  1  0
 15 13  1  0
 16 15  2  0
 18 17  1  6
 18 20  1  0
 19 18  1  0
 20 22  1  0
 20 21  1  6
 21 15  1  0
 22 24  1  0
 23 22  2  0
M  END
$$$$
