PQV.pdb
     RDKit          3D

 24 24  0  0  1  0  0  0  0  0999 V2000
    8.7680  -15.1549   19.2995 N   0  0  0  0  0  0  0  0  0  0  0  0
    9.0441  -14.5373   18.0019 C   0  0  0  0  0  0  0  0  0  0  0  0
    8.0986  -13.3854   17.8733 C   0  0  0  0  0  0  0  0  0  0  0  0
    7.3546  -13.3675   19.1897 C   0  0  0  0  0  0  0  0  0  0  0  0
    8.3797  -14.0049   20.0986 C   0  0  1  0  0  0  0  0  0  0  0  0
    7.8521  -14.3974   21.4201 C   0  0  0  0  0  0  0  0  0  0  0  0
    7.3020  -13.5881   22.1780 O   0  0  0  0  0  0  0  0  0  0  0  0
    4.5458  -19.1765   22.3909 N   0  0  0  0  0  0  0  0  0  0  0  0
    5.6919  -18.8202   23.1487 C   0  0  0  0  0  0  0  0  0  0  0  0
    5.6153  -18.8112   24.3930 O   0  0  0  0  0  0  0  0  0  0  0  0
    6.9708  -18.4622   22.4196 C   0  0  0  0  0  0  0  0  0  0  0  0
    7.8655  -17.6675   23.3281 C   0  0  0  0  0  0  0  0  0  0  0  0
    7.5907  -16.1983   23.1573 C   0  0  2  0  0  0  0  0  0  0  0  0
    7.9875  -15.7572   21.8218 N   0  0  0  0  0  0  0  0  0  0  0  0
    8.2142  -15.3198   24.1426 C   0  0  0  0  0  0  0  0  0  0  0  0
    9.4798  -15.2008   24.2686 O   0  0  0  0  0  0  0  0  0  0  0  0
    7.7612  -11.6605   27.4358 C   0  0  0  0  0  0  0  0  0  0  0  0
    7.0586  -12.6615   26.5113 C   0  0  2  0  0  0  0  0  0  0  0  0
    5.9183  -13.2921   27.2660 C   0  0  0  0  0  0  0  0  0  0  0  0
    8.0735  -13.6852   26.0288 C   0  0  2  0  0  0  0  0  0  0  0  0
    7.4515  -14.5344   25.0276 N   0  0  0  0  0  0  0  0  0  0  0  0
    8.5414  -14.4485   27.1982 C   0  0  0  0  0  0  0  0  0  0  0  0
    9.2604  -13.8261   28.0614 O   0  0  0  0  0  0  0  0  0  0  0  0
    8.2919  -15.7641   27.4704 O   0  0  0  0  0  0  0  0  0  0  0  0
  1  5  1  0
  1  2  1  0
  2  3  1  0
  4  3  1  0
  5  4  1  0
  5  6  1  1
  6  7  2  0
  9  8  1  0
  9 11  1  0
 10  9  2  0
 12 11  1  0
 13 14  1  0
 13 12  1  1
 14  6  1  0
 15 13  1  0
 16 15  2  0
 18 17  1  1
 18 20  1  0
 19 18  1  0
 20 22  1  0
 20 21  1  6
 21 15  1  0
 22 24  1  0
 23 22  2  0
M  END
$$$$
