SDE.pdb
     RDKit          3D

 24 23  0  0  1  0  0  0  0  0999 V2000
   16.7451   -9.4455  -17.6605 O   0  0  0  0  0  0  0  0  0  0  0  0
   16.9486   -9.0795  -16.3305 C   0  0  0  0  0  0  0  0  0  0  0  0
   18.2045   -9.7184  -15.7672 C   0  0  2  0  0  0  0  0  0  0  0  0
   18.0377  -11.1640  -15.7054 N   0  0  0  0  0  0  0  0  0  0  0  0
   18.5638   -9.1920  -14.4363 C   0  0  0  0  0  0  0  0  0  0  0  0
   18.2114   -9.8673  -13.3967 O   0  0  0  0  0  0  0  0  0  0  0  0
   19.2708   -7.9963  -14.2165 N   0  0  0  0  0  0  0  0  0  0  0  0
   19.6398   -7.5495  -12.8657 C   0  0  1  0  0  0  0  0  0  0  0  0
   20.8559   -6.6864  -13.0388 C   0  0  0  0  0  0  0  0  0  0  0  0
   21.3941   -6.0696  -11.8415 C   0  0  0  0  0  0  0  0  0  0  0  0
   22.1207   -5.0593  -11.8709 O   0  0  0  0  0  0  0  0  0  0  0  0
   18.4992   -6.8505  -12.2425 C   0  0  0  0  0  0  0  0  0  0  0  0
   17.8878   -5.9481  -12.8398 O   0  0  0  0  0  0  0  0  0  0  0  0
   21.1342   -6.5703  -10.5490 O   0  0  0  0  0  0  0  0  0  0  0  0
   18.0172   -7.1563  -10.9227 N   0  0  0  0  0  0  0  0  0  0  0  0
   16.9456   -6.3833  -10.3281 C   0  0  1  0  0  0  0  0  0  0  0  0
   16.0260   -7.2890   -9.5109 C   0  0  0  0  0  0  0  0  0  0  0  0
   14.9948   -6.4640   -8.7582 C   0  0  0  0  0  0  0  0  0  0  0  0
   13.9514   -7.3141   -8.1667 C   0  0  0  0  0  0  0  0  0  0  0  0
   13.9277   -8.5645   -8.2622 O   0  0  0  0  0  0  0  0  0  0  0  0
   17.4076   -5.2273   -9.5422 C   0  0  0  0  0  0  0  0  0  0  0  0
   16.6229   -4.3407   -9.0930 O   0  0  0  0  0  0  0  0  0  0  0  0
   12.9224   -6.7102   -7.4553 O   0  0  0  0  0  0  0  0  0  0  0  0
   18.7671   -5.1183   -9.2888 O   0  0  0  0  0  0  0  0  0  0  0  0
  2  1  1  0
  2  3  1  0
  3  4  1  1
  5  3  1  0
  5  6  2  0
  7  5  1  0
  8  7  1  0
  8 12  1  0
  8  9  1  6
 10 11  2  0
 10  9  1  0
 12 15  1  0
 13 12  2  0
 14 10  1  0
 15 16  1  0
 16 21  1  0
 16 17  1  1
 18 17  1  0
 19 18  1  0
 19 20  2  0
 21 22  2  0
 21 24  1  0
 23 19  1  0
M  END
$$$$
