SDE.pdb
     RDKit          3D

 24 23  0  0  1  0  0  0  0  0999 V2000
   24.7756  -12.9573  -17.3225 O   0  0  0  0  0  0  0  0  0  0  0  0
   23.8810  -14.0098  -17.5131 C   0  0  0  0  0  0  0  0  0  0  0  0
   23.0354  -13.7986  -18.7553 C   0  0  2  0  0  0  0  0  0  0  0  0
   23.8904  -13.7602  -19.9337 N   0  0  0  0  0  0  0  0  0  0  0  0
   22.2143  -12.5746  -18.6844 C   0  0  0  0  0  0  0  0  0  0  0  0
   22.4201  -11.6494  -19.5576 O   0  0  0  0  0  0  0  0  0  0  0  0
   21.2127  -12.3414  -17.7251 N   0  0  0  0  0  0  0  0  0  0  0  0
   20.4664  -11.0761  -17.6736 C   0  0  1  0  0  0  0  0  0  0  0  0
   19.0144  -11.4576  -17.6794 C   0  0  0  0  0  0  0  0  0  0  0  0
   18.0541  -10.3710  -17.6519 C   0  0  0  0  0  0  0  0  0  0  0  0
   18.3627   -9.1910  -17.9004 O   0  0  0  0  0  0  0  0  0  0  0  0
   20.8732  -10.3051  -16.4827 C   0  0  0  0  0  0  0  0  0  0  0  0
   21.1598  -10.8690  -15.4128 O   0  0  0  0  0  0  0  0  0  0  0  0
   16.6933  -10.5704  -17.3397 O   0  0  0  0  0  0  0  0  0  0  0  0
   20.9683   -8.8704  -16.4713 N   0  0  0  0  0  0  0  0  0  0  0  0
   21.4489   -8.1694  -15.2978 C   0  0  1  0  0  0  0  0  0  0  0  0
   21.7497   -6.7102  -15.6353 C   0  0  0  0  0  0  0  0  0  0  0  0
   22.3696   -6.0024  -14.4416 C   0  0  0  0  0  0  0  0  0  0  0  0
   22.6095   -4.5795  -14.7230 C   0  0  0  0  0  0  0  0  0  0  0  0
   22.5394   -4.0691  -15.8665 O   0  0  0  0  0  0  0  0  0  0  0  0
   20.5624   -8.2846  -14.1280 C   0  0  0  0  0  0  0  0  0  0  0  0
   19.2995   -8.2462  -14.2132 O   0  0  0  0  0  0  0  0  0  0  0  0
   22.9342   -3.7362  -13.6680 O   0  0  0  0  0  0  0  0  0  0  0  0
   21.1517   -8.4437  -12.8823 O   0  0  0  0  0  0  0  0  0  0  0  0
  2  1  1  0
  2  3  1  0
  3  4  1  6
  5  3  1  0
  5  6  2  0
  7  5  1  0
  8  7  1  0
  8 12  1  0
  8  9  1  1
 10 11  2  0
 10  9  1  0
 12 15  1  0
 13 12  2  0
 14 10  1  0
 15 16  1  0
 16 21  1  0
 16 17  1  6
 18 17  1  0
 19 18  1  0
 19 20  2  0
 21 22  2  0
 21 24  1  0
 23 19  1  0
M  END
$$$$
