SDE.pdb
     RDKit          3D

 24 23  0  0  1  0  0  0  0  0999 V2000
   16.6212  -10.5483  -11.7550 O   0  0  0  0  0  0  0  0  0  0  0  0
   16.5503  -10.7412  -10.3758 C   0  0  0  0  0  0  0  0  0  0  0  0
   15.2438  -10.2156   -9.8104 C   0  0  2  0  0  0  0  0  0  0  0  0
   14.1222  -10.8789  -10.4610 N   0  0  0  0  0  0  0  0  0  0  0  0
   15.1136   -8.7518   -9.9430 C   0  0  0  0  0  0  0  0  0  0  0  0
   14.3106   -8.2884  -10.8383 O   0  0  0  0  0  0  0  0  0  0  0  0
   15.8071   -7.8154   -9.1555 N   0  0  0  0  0  0  0  0  0  0  0  0
   15.7245   -6.3707   -9.4138 C   0  0  1  0  0  0  0  0  0  0  0  0
   15.2493   -5.7529   -8.1307 C   0  0  0  0  0  0  0  0  0  0  0  0
   14.9496   -4.3341   -8.1614 C   0  0  0  0  0  0  0  0  0  0  0  0
   15.8206   -3.4568   -8.0159 O   0  0  0  0  0  0  0  0  0  0  0  0
   17.0370   -5.8686   -9.8645 C   0  0  0  0  0  0  0  0  0  0  0  0
   18.0888   -6.1988   -9.2904 O   0  0  0  0  0  0  0  0  0  0  0  0
   13.6435   -3.8398   -8.3586 O   0  0  0  0  0  0  0  0  0  0  0  0
   17.1951   -4.9776  -10.9820 N   0  0  0  0  0  0  0  0  0  0  0  0
   18.4995   -4.7529  -11.5712 C   0  0  1  0  0  0  0  0  0  0  0  0
   19.1335   -6.0803  -11.9832 C   0  0  0  0  0  0  0  0  0  0  0  0
   20.5237   -5.8540  -12.5545 C   0  0  0  0  0  0  0  0  0  0  0  0
   21.1920   -7.1257  -12.8668 C   0  0  0  0  0  0  0  0  0  0  0  0
   21.6699   -7.8980  -12.0019 O   0  0  0  0  0  0  0  0  0  0  0  0
   18.4954   -3.7855  -12.6810 C   0  0  0  0  0  0  0  0  0  0  0  0
   17.4597   -3.5178  -13.3588 O   0  0  0  0  0  0  0  0  0  0  0  0
   21.3087   -7.5091  -14.1969 O   0  0  0  0  0  0  0  0  0  0  0  0
   19.6873   -3.1445  -12.9856 O   0  0  0  0  0  0  0  0  0  0  0  0
  2  1  1  0
  2  3  1  0
  3  4  1  6
  5  3  1  0
  5  6  2  0
  7  5  1  0
  8  7  1  0
  8 12  1  0
  8  9  1  1
 10 11  2  0
 10  9  1  0
 12 15  1  0
 13 12  2  0
 14 10  1  0
 15 16  1  0
 16 21  1  0
 16 17  1  6
 18 17  1  0
 19 18  1  0
 19 20  2  0
 21 22  2  0
 21 24  1  0
 23 19  1  0
M  END
$$$$
