SDE.pdb
     RDKit          3D

 24 23  0  0  1  0  0  0  0  0999 V2000
   16.9123  -11.4244  -17.9687 O   0  0  0  0  0  0  0  0  0  0  0  0
   17.1330  -10.1503  -17.4467 C   0  0  0  0  0  0  0  0  0  0  0  0
   18.6086   -9.7965  -17.4570 C   0  0  2  0  0  0  0  0  0  0  0  0
   19.3805  -10.8820  -16.8678 N   0  0  0  0  0  0  0  0  0  0  0  0
   18.8960   -8.5308  -16.7551 C   0  0  0  0  0  0  0  0  0  0  0  0
   17.9257   -7.9307  -16.1555 O   0  0  0  0  0  0  0  0  0  0  0  0
   20.1637   -7.9254  -16.6904 N   0  0  0  0  0  0  0  0  0  0  0  0
   20.3886   -6.6707  -15.9584 C   0  0  1  0  0  0  0  0  0  0  0  0
   21.3891   -6.9962  -14.8875 C   0  0  0  0  0  0  0  0  0  0  0  0
   20.8807   -7.6492  -13.6963 C   0  0  0  0  0  0  0  0  0  0  0  0
   19.7608   -7.3979  -13.2146 O   0  0  0  0  0  0  0  0  0  0  0  0
   20.8395   -5.6216  -16.8934 C   0  0  0  0  0  0  0  0  0  0  0  0
   21.5574   -5.8908  -17.8716 O   0  0  0  0  0  0  0  0  0  0  0  0
   21.6201   -8.6213  -12.9912 O   0  0  0  0  0  0  0  0  0  0  0  0
   20.4873   -4.2353  -16.7467 N   0  0  0  0  0  0  0  0  0  0  0  0
   20.9138   -3.2553  -17.7250 C   0  0  1  0  0  0  0  0  0  0  0  0
   19.8644   -2.1543  -17.8681 C   0  0  0  0  0  0  0  0  0  0  0  0
   20.2301   -1.2118  -19.0031 C   0  0  0  0  0  0  0  0  0  0  0  0
   19.2521   -0.1222  -19.1357 C   0  0  0  0  0  0  0  0  0  0  0  0
   19.4492    0.9198  -19.8053 O   0  0  0  0  0  0  0  0  0  0  0  0
   22.2528   -2.6993  -17.4696 C   0  0  0  0  0  0  0  0  0  0  0  0
   22.7934   -2.7010  -16.3244 O   0  0  0  0  0  0  0  0  0  0  0  0
   18.0301   -0.2397  -18.4856 O   0  0  0  0  0  0  0  0  0  0  0  0
   22.9427   -2.1535  -18.5423 O   0  0  0  0  0  0  0  0  0  0  0  0
  2  1  1  0
  2  3  1  0
  3  4  1  1
  5  3  1  0
  5  6  2  0
  7  5  1  0
  8  7  1  0
  8 12  1  0
  8  9  1  1
 10 11  2  0
 10  9  1  0
 12 15  1  0
 13 12  2  0
 14 10  1  0
 15 16  1  0
 16 21  1  0
 16 17  1  1
 18 17  1  0
 19 18  1  0
 19 20  2  0
 21 22  2  0
 21 24  1  0
 23 19  1  0
M  END
$$$$
