SDE.pdb
     RDKit          3D

 24 23  0  0  1  0  0  0  0  0999 V2000
   18.3803  -11.9728  -17.5585 O   0  0  0  0  0  0  0  0  0  0  0  0
   19.0313  -10.7976  -17.1850 C   0  0  0  0  0  0  0  0  0  0  0  0
   19.0186  -10.6133  -15.6788 C   0  0  2  0  0  0  0  0  0  0  0  0
   17.6443  -10.5471  -15.2012 N   0  0  0  0  0  0  0  0  0  0  0  0
   19.7644   -9.4162  -15.2450 C   0  0  0  0  0  0  0  0  0  0  0  0
   19.4968   -8.9156  -14.0879 O   0  0  0  0  0  0  0  0  0  0  0  0
   20.7567   -8.7754  -16.0084 N   0  0  0  0  0  0  0  0  0  0  0  0
   21.4956   -7.6106  -15.5007 C   0  0  1  0  0  0  0  0  0  0  0  0
   22.9257   -7.8266  -15.9034 C   0  0  0  0  0  0  0  0  0  0  0  0
   23.8735   -6.7970  -15.5226 C   0  0  0  0  0  0  0  0  0  0  0  0
   23.5497   -5.7917  -14.8637 O   0  0  0  0  0  0  0  0  0  0  0  0
   20.9065   -6.3710  -16.0433 C   0  0  0  0  0  0  0  0  0  0  0  0
   20.8277   -6.1733  -17.2679 O   0  0  0  0  0  0  0  0  0  0  0  0
   25.2385   -6.8571  -15.8720 O   0  0  0  0  0  0  0  0  0  0  0  0
   20.3876   -5.3190  -15.2117 N   0  0  0  0  0  0  0  0  0  0  0  0
   19.8427   -4.1115  -15.7986 C   0  0  1  0  0  0  0  0  0  0  0  0
   18.3780   -3.9398  -15.3999 C   0  0  0  0  0  0  0  0  0  0  0  0
   17.8243   -2.6350  -15.9486 C   0  0  0  0  0  0  0  0  0  0  0  0
   16.3677   -2.5495  -15.7694 C   0  0  0  0  0  0  0  0  0  0  0  0
   15.7578   -1.4939  -15.4749 O   0  0  0  0  0  0  0  0  0  0  0  0
   20.6291   -2.9003  -15.5121 C   0  0  0  0  0  0  0  0  0  0  0  0
   21.4121   -2.8045  -14.5215 O   0  0  0  0  0  0  0  0  0  0  0  0
   15.6066   -3.7000  -15.9333 O   0  0  0  0  0  0  0  0  0  0  0  0
   20.4972   -1.8233  -16.3765 O   0  0  0  0  0  0  0  0  0  0  0  0
  2  1  1  0
  2  3  1  0
  3  4  1  6
  5  3  1  0
  5  6  2  0
  7  5  1  0
  8  7  1  0
  8 12  1  0
  8  9  1  6
 10 11  2  0
 10  9  1  0
 12 15  1  0
 13 12  2  0
 14 10  1  0
 15 16  1  0
 16 21  1  0
 16 17  1  1
 18 17  1  0
 19 18  1  0
 19 20  2  0
 21 22  2  0
 21 24  1  0
 23 19  1  0
M  END
$$$$
