SDE.pdb
     RDKit          3D

 24 23  0  0  1  0  0  0  0  0999 V2000
   12.1524  -13.5585  -12.9004 O   0  0  0  0  0  0  0  0  0  0  0  0
   13.1042  -12.6845  -12.3765 C   0  0  0  0  0  0  0  0  0  0  0  0
   14.5140  -13.1848  -12.6314 C   0  0  2  0  0  0  0  0  0  0  0  0
   14.7666  -14.3766  -11.8332 N   0  0  0  0  0  0  0  0  0  0  0  0
   15.5405  -12.1618  -12.3540 C   0  0  0  0  0  0  0  0  0  0  0  0
   15.8970  -11.9700  -11.1304 O   0  0  0  0  0  0  0  0  0  0  0  0
   16.1659  -11.3734  -13.3365 N   0  0  0  0  0  0  0  0  0  0  0  0
   17.2185  -10.4040  -13.0003 C   0  0  1  0  0  0  0  0  0  0  0  0
   18.1297  -10.3603  -14.1926 C   0  0  0  0  0  0  0  0  0  0  0  0
   19.2838   -9.4868  -14.1001 C   0  0  0  0  0  0  0  0  0  0  0  0
   19.5181   -8.7813  -13.1017 O   0  0  0  0  0  0  0  0  0  0  0  0
   16.6095   -9.1009  -12.6700 C   0  0  0  0  0  0  0  0  0  0  0  0
   15.7187   -8.6037  -13.3801 O   0  0  0  0  0  0  0  0  0  0  0  0
   20.2307   -9.3700  -15.1388 O   0  0  0  0  0  0  0  0  0  0  0  0
   16.9925   -8.3238  -11.5225 N   0  0  0  0  0  0  0  0  0  0  0  0
   16.3952   -7.0274  -11.2731 C   0  0  1  0  0  0  0  0  0  0  0  0
   16.0895   -6.8594   -9.7858 C   0  0  0  0  0  0  0  0  0  0  0  0
   15.5249   -5.4754   -9.5094 C   0  0  0  0  0  0  0  0  0  0  0  0
   15.3051   -5.2599   -8.0719 C   0  0  0  0  0  0  0  0  0  0  0  0
   15.8191   -4.3221   -7.4165 O   0  0  0  0  0  0  0  0  0  0  0  0
   17.1796   -5.8972  -11.7974 C   0  0  0  0  0  0  0  0  0  0  0  0
   18.4117   -5.9833  -12.0766 O   0  0  0  0  0  0  0  0  0  0  0  0
   14.4799   -6.1403   -7.3836 O   0  0  0  0  0  0  0  0  0  0  0  0
   16.5252   -4.6894  -11.9907 O   0  0  0  0  0  0  0  0  0  0  0  0
  2  1  1  0
  2  3  1  0
  3  4  1  1
  5  3  1  0
  5  6  2  0
  7  5  1  0
  8  7  1  0
  8 12  1  0
  8  9  1  6
 10 11  2  0
 10  9  1  0
 12 15  1  0
 13 12  2  0
 14 10  1  0
 15 16  1  0
 16 21  1  0
 16 17  1  1
 18 17  1  0
 19 18  1  0
 19 20  2  0
 21 22  2  0
 21 24  1  0
 23 19  1  0
M  END
$$$$
