SDE.pdb
     RDKit          3D

 24 23  0  0  1  0  0  0  0  0999 V2000
   26.0909  -10.5996  -16.3429 O   0  0  0  0  0  0  0  0  0  0  0  0
   25.3950  -11.5231  -15.5638 C   0  0  0  0  0  0  0  0  0  0  0  0
   24.1065  -11.9562  -16.2384 C   0  0  2  0  0  0  0  0  0  0  0  0
   24.4063  -12.5850  -17.5174 N   0  0  0  0  0  0  0  0  0  0  0  0
   23.1613  -10.8396  -16.4314 C   0  0  0  0  0  0  0  0  0  0  0  0
   23.0896  -10.2943  -17.5970 O   0  0  0  0  0  0  0  0  0  0  0  0
   22.3235  -10.3221  -15.4273 N   0  0  0  0  0  0  0  0  0  0  0  0
   21.3410   -9.2646  -15.7046 C   0  0  1  0  0  0  0  0  0  0  0  0
   20.0779   -9.6888  -15.0128 C   0  0  0  0  0  0  0  0  0  0  0  0
   19.3680  -10.8169  -15.5847 C   0  0  0  0  0  0  0  0  0  0  0  0
   19.1624  -10.9360  -16.8066 O   0  0  0  0  0  0  0  0  0  0  0  0
   21.8636   -7.9642  -15.2419 C   0  0  0  0  0  0  0  0  0  0  0  0
   22.5715   -7.8758  -14.2241 O   0  0  0  0  0  0  0  0  0  0  0  0
   18.8548  -11.8677  -14.7964 O   0  0  0  0  0  0  0  0  0  0  0  0
   21.5996   -6.7252  -15.9221 N   0  0  0  0  0  0  0  0  0  0  0  0
   22.1062   -5.4718  -15.4009 C   0  0  1  0  0  0  0  0  0  0  0  0
   21.9059   -4.3516  -16.4201 C   0  0  0  0  0  0  0  0  0  0  0  0
   22.4719   -3.0428  -15.8939 C   0  0  0  0  0  0  0  0  0  0  0  0
   22.2120   -1.9315  -16.8205 C   0  0  0  0  0  0  0  0  0  0  0  0
   21.6635   -2.0656  -17.9405 O   0  0  0  0  0  0  0  0  0  0  0  0
   21.5620   -5.1094  -14.0818 C   0  0  0  0  0  0  0  0  0  0  0  0
   20.3624   -5.3352  -13.7449 O   0  0  0  0  0  0  0  0  0  0  0  0
   22.5910   -0.6484  -16.4466 O   0  0  0  0  0  0  0  0  0  0  0  0
   22.4145   -4.4948  -13.1764 O   0  0  0  0  0  0  0  0  0  0  0  0
  2  1  1  0
  2  3  1  0
  3  4  1  6
  5  3  1  0
  5  6  2  0
  7  5  1  0
  8  7  1  0
  8 12  1  0
  8  9  1  1
 10 11  2  0
 10  9  1  0
 12 15  1  0
 13 12  2  0
 14 10  1  0
 15 16  1  0
 16 21  1  0
 16 17  1  6
 18 17  1  0
 19 18  1  0
 19 20  2  0
 21 22  2  0
 21 24  1  0
 23 19  1  0
M  END
$$$$
