SDE.pdb
     RDKit          3D

 24 23  0  0  1  0  0  0  0  0999 V2000
    9.9820  -12.7734  -12.9496 O   0  0  0  0  0  0  0  0  0  0  0  0
   11.1550  -12.0200  -12.9243 C   0  0  0  0  0  0  0  0  0  0  0  0
   12.3001  -12.8002  -12.3057 C   0  0  2  0  0  0  0  0  0  0  0  0
   11.9305  -13.2417  -10.9679 N   0  0  0  0  0  0  0  0  0  0  0  0
   13.5554  -12.0262  -12.2556 C   0  0  0  0  0  0  0  0  0  0  0  0
   14.1569  -11.9104  -11.1216 O   0  0  0  0  0  0  0  0  0  0  0  0
   14.1507  -11.4004  -13.3655 N   0  0  0  0  0  0  0  0  0  0  0  0
   15.4825  -10.7834  -13.2873 C   0  0  1  0  0  0  0  0  0  0  0  0
   16.0920  -10.9532  -14.6488 C   0  0  0  0  0  0  0  0  0  0  0  0
   17.3719  -10.3097  -14.8756 C   0  0  0  0  0  0  0  0  0  0  0  0
   17.5855   -9.5535  -15.8410 O   0  0  0  0  0  0  0  0  0  0  0  0
   15.3559   -9.3751  -12.8646 C   0  0  0  0  0  0  0  0  0  0  0  0
   14.4909   -8.6277  -13.3524 O   0  0  0  0  0  0  0  0  0  0  0  0
   18.4751  -10.4935  -14.0164 O   0  0  0  0  0  0  0  0  0  0  0  0
   16.2068   -8.7734  -11.8739 N   0  0  0  0  0  0  0  0  0  0  0  0
   16.0522   -7.3786  -11.5134 C   0  0  1  0  0  0  0  0  0  0  0  0
   16.3986   -7.1678  -10.0406 C   0  0  0  0  0  0  0  0  0  0  0  0
   16.2899   -5.6974   -9.6712 C   0  0  0  0  0  0  0  0  0  0  0  0
   16.5976   -5.4738   -8.2511 C   0  0  0  0  0  0  0  0  0  0  0  0
   16.5718   -4.3493   -7.6963 O   0  0  0  0  0  0  0  0  0  0  0  0
   16.7931   -6.4507  -12.3838 C   0  0  0  0  0  0  0  0  0  0  0  0
   16.4089   -5.2665  -12.6151 O   0  0  0  0  0  0  0  0  0  0  0  0
   16.9394   -6.5652   -7.4626 O   0  0  0  0  0  0  0  0  0  0  0  0
   17.9648   -6.9080  -12.9689 O   0  0  0  0  0  0  0  0  0  0  0  0
  2  1  1  0
  2  3  1  0
  3  4  1  1
  5  3  1  0
  5  6  2  0
  7  5  1  0
  8  7  1  0
  8 12  1  0
  8  9  1  6
 10 11  2  0
 10  9  1  0
 12 15  1  0
 13 12  2  0
 14 10  1  0
 15 16  1  0
 16 21  1  0
 16 17  1  1
 18 17  1  0
 19 18  1  0
 19 20  2  0
 21 22  2  0
 21 24  1  0
 23 19  1  0
M  END
$$$$
