SDE.pdb
     RDKit          3D

 24 23  0  0  1  0  0  0  0  0999 V2000
   18.1437  -13.4023  -18.6519 O   0  0  0  0  0  0  0  0  0  0  0  0
   18.6974  -12.1853  -18.2561 C   0  0  0  0  0  0  0  0  0  0  0  0
   19.3808  -12.3017  -16.9062 C   0  0  2  0  0  0  0  0  0  0  0  0
   18.8538  -13.4513  -16.1838 N   0  0  0  0  0  0  0  0  0  0  0  0
   19.2397  -11.0811  -16.0891 C   0  0  0  0  0  0  0  0  0  0  0  0
   18.3138  -11.0493  -15.1931 O   0  0  0  0  0  0  0  0  0  0  0  0
   20.0502   -9.9388  -16.2164 N   0  0  0  0  0  0  0  0  0  0  0  0
   19.8620   -8.7545  -15.3663 C   0  0  1  0  0  0  0  0  0  0  0  0
   21.1594   -8.0012  -15.4221 C   0  0  0  0  0  0  0  0  0  0  0  0
   21.3050   -6.8839  -14.5088 C   0  0  0  0  0  0  0  0  0  0  0  0
   20.4185   -6.5533  -13.6999 O   0  0  0  0  0  0  0  0  0  0  0  0
   18.7024   -7.9767  -15.8440 C   0  0  0  0  0  0  0  0  0  0  0  0
   18.5629   -7.6942  -17.0463 O   0  0  0  0  0  0  0  0  0  0  0  0
   22.4661   -6.0844  -14.4689 O   0  0  0  0  0  0  0  0  0  0  0  0
   17.6652   -7.4974  -14.9710 N   0  0  0  0  0  0  0  0  0  0  0  0
   16.5715   -6.7001  -15.4883 C   0  0  1  0  0  0  0  0  0  0  0  0
   15.2400   -7.1938  -14.9252 C   0  0  0  0  0  0  0  0  0  0  0  0
   14.0835   -6.4081  -15.5215 C   0  0  0  0  0  0  0  0  0  0  0  0
   12.7907   -6.8655  -14.9915 C   0  0  0  0  0  0  0  0  0  0  0  0
   11.6822   -6.3975  -15.3456 O   0  0  0  0  0  0  0  0  0  0  0  0
   16.7416   -5.2514  -15.2891 C   0  0  0  0  0  0  0  0  0  0  0  0
   17.3733   -4.7595  -14.3079 O   0  0  0  0  0  0  0  0  0  0  0  0
   12.7801   -7.8775  -14.0400 O   0  0  0  0  0  0  0  0  0  0  0  0
   16.1802   -4.3984  -16.2280 O   0  0  0  0  0  0  0  0  0  0  0  0
  2  1  1  0
  2  3  1  0
  3  4  1  1
  5  3  1  0
  5  6  2  0
  7  5  1  0
  8  7  1  0
  8 12  1  0
  8  9  1  6
 10 11  2  0
 10  9  1  0
 12 15  1  0
 13 12  2  0
 14 10  1  0
 15 16  1  0
 16 21  1  0
 16 17  1  1
 18 17  1  0
 19 18  1  0
 19 20  2  0
 21 22  2  0
 21 24  1  0
 23 19  1  0
M  END
$$$$
