SDE.pdb
     RDKit          3D

 24 23  0  0  1  0  0  0  0  0999 V2000
   18.7037  -13.1177  -13.9545 O   0  0  0  0  0  0  0  0  0  0  0  0
   18.2121  -11.9081  -13.4651 C   0  0  0  0  0  0  0  0  0  0  0  0
   16.7101  -11.9656  -13.2564 C   0  0  2  0  0  0  0  0  0  0  0  0
   16.0390  -12.1180  -14.5399 N   0  0  0  0  0  0  0  0  0  0  0  0
   16.1876  -10.7811  -12.5483 C   0  0  0  0  0  0  0  0  0  0  0  0
   15.8676   -9.7448  -13.2447 O   0  0  0  0  0  0  0  0  0  0  0  0
   16.0100  -10.6991  -11.1556 N   0  0  0  0  0  0  0  0  0  0  0  0
   15.5042   -9.4805  -10.5077 C   0  0  1  0  0  0  0  0  0  0  0  0
   14.6628   -9.9493   -9.3560 C   0  0  0  0  0  0  0  0  0  0  0  0
   13.3568  -10.4907   -9.6799 C   0  0  0  0  0  0  0  0  0  0  0  0
   13.1716  -11.6922   -9.9475 O   0  0  0  0  0  0  0  0  0  0  0  0
   16.6359   -8.6226  -10.1061 C   0  0  0  0  0  0  0  0  0  0  0  0
   17.5578   -9.0575   -9.3949 O   0  0  0  0  0  0  0  0  0  0  0  0
   12.1941   -9.6934   -9.7167 O   0  0  0  0  0  0  0  0  0  0  0  0
   16.7556   -7.2453  -10.5012 N   0  0  0  0  0  0  0  0  0  0  0  0
   17.9380   -6.4784  -10.1647 C   0  0  1  0  0  0  0  0  0  0  0  0
   18.9942   -6.6208  -11.2592 C   0  0  0  0  0  0  0  0  0  0  0  0
   20.2097   -5.7645  -10.9434 C   0  0  0  0  0  0  0  0  0  0  0  0
   21.2307   -5.8682  -11.9961 C   0  0  0  0  0  0  0  0  0  0  0  0
   21.1488   -6.6431  -12.9790 O   0  0  0  0  0  0  0  0  0  0  0  0
   17.6654   -5.0655   -9.8536 C   0  0  0  0  0  0  0  0  0  0  0  0
   16.6392   -4.4527  -10.2716 O   0  0  0  0  0  0  0  0  0  0  0  0
   22.3608   -5.0649  -11.9111 O   0  0  0  0  0  0  0  0  0  0  0  0
   18.5828   -4.3879   -9.0639 O   0  0  0  0  0  0  0  0  0  0  0  0
  2  1  1  0
  2  3  1  0
  3  4  1  6
  5  3  1  0
  5  6  2  0
  7  5  1  0
  8  7  1  0
  8 12  1  0
  8  9  1  1
 10 11  2  0
 10  9  1  0
 12 15  1  0
 13 12  2  0
 14 10  1  0
 15 16  1  0
 16 21  1  0
 16 17  1  6
 18 17  1  0
 19 18  1  0
 19 20  2  0
 21 22  2  0
 21 24  1  0
 23 19  1  0
M  END
$$$$
