SDE.pdb
     RDKit          3D

 24 23  0  0  1  0  0  0  0  0999 V2000
   18.1677   -9.5040  -17.8073 O   0  0  0  0  0  0  0  0  0  0  0  0
   17.8360  -10.3910  -16.7839 C   0  0  0  0  0  0  0  0  0  0  0  0
   18.9503  -10.4944  -15.7590 C   0  0  2  0  0  0  0  0  0  0  0  0
   18.5813  -11.4498  -14.7235 N   0  0  0  0  0  0  0  0  0  0  0  0
   19.2879   -9.1929  -15.1511 C   0  0  0  0  0  0  0  0  0  0  0  0
   18.5082   -8.7244  -14.2380 O   0  0  0  0  0  0  0  0  0  0  0  0
   20.4098   -8.4186  -15.4973 N   0  0  0  0  0  0  0  0  0  0  0  0
   20.6269   -7.0748  -14.9427 C   0  0  1  0  0  0  0  0  0  0  0  0
   22.0187   -7.0851  -14.3799 C   0  0  0  0  0  0  0  0  0  0  0  0
   22.4816   -5.8574  -13.7617 C   0  0  0  0  0  0  0  0  0  0  0  0
   23.0677   -4.9613  -14.3964 O   0  0  0  0  0  0  0  0  0  0  0  0
   20.4191   -6.0613  -15.9951 C   0  0  0  0  0  0  0  0  0  0  0  0
   20.3373   -6.3796  -17.1938 O   0  0  0  0  0  0  0  0  0  0  0  0
   22.3023   -5.5859  -12.3894 O   0  0  0  0  0  0  0  0  0  0  0  0
   20.2964   -4.6557  -15.7180 N   0  0  0  0  0  0  0  0  0  0  0  0
   19.7516   -3.7502  -16.7093 C   0  0  1  0  0  0  0  0  0  0  0  0
   18.4410   -4.3001  -17.2694 C   0  0  0  0  0  0  0  0  0  0  0  0
   17.8890   -3.3759  -18.3425 C   0  0  0  0  0  0  0  0  0  0  0  0
   16.6797   -3.9339  -18.9649 C   0  0  0  0  0  0  0  0  0  0  0  0
   16.5024   -5.1566  -19.1813 O   0  0  0  0  0  0  0  0  0  0  0  0
   19.6004   -2.3649  -16.2344 C   0  0  0  0  0  0  0  0  0  0  0  0
   19.5425   -1.3702  -17.0159 O   0  0  0  0  0  0  0  0  0  0  0  0
   15.6621   -3.0665  -19.3416 O   0  0  0  0  0  0  0  0  0  0  0  0
   19.5172   -2.1552  -14.8656 O   0  0  0  0  0  0  0  0  0  0  0  0
  2  1  1  0
  2  3  1  0
  3  4  1  1
  5  3  1  0
  5  6  2  0
  7  5  1  0
  8  7  1  0
  8 12  1  0
  8  9  1  6
 10 11  2  0
 10  9  1  0
 12 15  1  0
 13 12  2  0
 14 10  1  0
 15 16  1  0
 16 21  1  0
 16 17  1  1
 18 17  1  0
 19 18  1  0
 19 20  2  0
 21 22  2  0
 21 24  1  0
 23 19  1  0
M  END
$$$$
