SDE.pdb
     RDKit          3D

 24 23  0  0  1  0  0  0  0  0999 V2000
   12.3425  -10.8375  -16.1057 O   0  0  0  0  0  0  0  0  0  0  0  0
   13.5727  -10.3558  -15.6596 C   0  0  0  0  0  0  0  0  0  0  0  0
   14.6031  -11.4665  -15.5733 C   0  0  2  0  0  0  0  0  0  0  0  0
   14.3795  -12.2546  -14.3691 N   0  0  0  0  0  0  0  0  0  0  0  0
   15.9891  -10.9610  -15.5985 C   0  0  0  0  0  0  0  0  0  0  0  0
   16.7423  -11.1916  -14.5784 O   0  0  0  0  0  0  0  0  0  0  0  0
   16.5552  -10.2400  -16.6652 N   0  0  0  0  0  0  0  0  0  0  0  0
   17.9654   -9.8255  -16.6605 C   0  0  1  0  0  0  0  0  0  0  0  0
   18.5748  -10.4361  -17.8892 C   0  0  0  0  0  0  0  0  0  0  0  0
   19.9550  -10.0922  -18.1728 C   0  0  0  0  0  0  0  0  0  0  0  0
   20.3017   -9.4878  -19.2043 O   0  0  0  0  0  0  0  0  0  0  0  0
   18.0524   -8.3528  -16.6234 C   0  0  0  0  0  0  0  0  0  0  0  0
   17.3657   -7.6442  -17.3792 O   0  0  0  0  0  0  0  0  0  0  0  0
   21.0121  -10.4185  -17.2983 O   0  0  0  0  0  0  0  0  0  0  0  0
   18.9206   -7.6400  -15.7258 N   0  0  0  0  0  0  0  0  0  0  0  0
   18.9995   -6.1938  -15.7642 C   0  0  1  0  0  0  0  0  0  0  0  0
   19.7833   -5.6713  -14.5616 C   0  0  0  0  0  0  0  0  0  0  0  0
   21.2183   -6.1710  -14.6009 C   0  0  0  0  0  0  0  0  0  0  0  0
   22.0248   -5.5805  -13.5229 C   0  0  0  0  0  0  0  0  0  0  0  0
   21.9042   -4.3975  -13.1240 O   0  0  0  0  0  0  0  0  0  0  0  0
   19.5259   -5.6574  -17.0302 C   0  0  0  0  0  0  0  0  0  0  0  0
   20.1760   -6.3595  -17.8596 O   0  0  0  0  0  0  0  0  0  0  0  0
   22.9828   -6.3687  -12.8979 O   0  0  0  0  0  0  0  0  0  0  0  0
   19.2899   -4.3203  -17.3147 O   0  0  0  0  0  0  0  0  0  0  0  0
  2  1  1  0
  2  3  1  0
  3  4  1  1
  5  3  1  0
  5  6  2  0
  7  5  1  0
  8  7  1  0
  8 12  1  0
  8  9  1  6
 10 11  2  0
 10  9  1  0
 12 15  1  0
 13 12  2  0
 14 10  1  0
 15 16  1  0
 16 21  1  0
 16 17  1  1
 18 17  1  0
 19 18  1  0
 19 20  2  0
 21 22  2  0
 21 24  1  0
 23 19  1  0
M  END
$$$$
