HQI.pdb
     RDKit          3D

 28 28  0  0  1  0  0  0  0  0999 V2000
    6.2965  -16.9248   19.7066 N   0  0  0  0  0  0  0  0  0  0  0  0
    7.0607  -15.9601   20.5352 C   0  0  1  0  0  0  0  0  0  0  0  0
    6.5219  -14.6138   20.1531 C   0  0  0  0  0  0  0  0  0  0  0  0
    7.3149  -14.1950   18.9427 C   0  0  0  0  0  0  0  0  0  0  0  0
    8.2910  -13.2199   18.9603 C   0  0  0  0  0  0  0  0  0  0  0  0
    8.8023  -13.0823   17.7043 N   0  0  0  0  0  0  0  0  0  0  0  0
    8.1524  -13.9530   16.9459 C   0  0  0  0  0  0  0  0  0  0  0  0
    7.2421  -14.6414   17.6849 N   0  0  0  0  0  0  0  0  0  0  0  0
    6.8650  -16.3583   21.9320 C   0  0  0  0  0  0  0  0  0  0  0  0
    5.7402  -16.0862   22.4620 O   0  0  0  0  0  0  0  0  0  0  0  0
    6.8331  -20.4037   27.9753 N   0  0  0  0  0  0  0  0  0  0  0  0
    6.9394  -20.0767   26.6142 C   0  0  0  0  0  0  0  0  0  0  0  0
    6.7868  -21.0358   25.7863 O   0  0  0  0  0  0  0  0  0  0  0  0
    7.2142  -18.6871   26.1820 C   0  0  0  0  0  0  0  0  0  0  0  0
    7.2944  -18.6175   24.6485 C   0  0  0  0  0  0  0  0  0  0  0  0
    7.5271  -17.2624   24.1294 C   0  0  2  0  0  0  0  0  0  0  0  0
    7.7939  -17.0217   22.7642 N   0  0  0  0  0  0  0  0  0  0  0  0
    8.1847  -16.3265   25.0413 C   0  0  0  0  0  0  0  0  0  0  0  0
    9.4565  -16.1695   25.0306 O   0  0  0  0  0  0  0  0  0  0  0  0
    5.7398  -11.7289   27.1400 C   0  0  0  0  0  0  0  0  0  0  0  0
    6.6861  -12.7246   26.4429 C   0  0  0  0  0  0  0  0  0  0  0  0
    7.4341  -13.5432   27.4568 C   0  0  2  0  0  0  0  0  0  0  0  0
    8.2519  -12.5710   28.3084 C   0  0  0  0  0  0  0  0  0  0  0  0
    8.2460  -14.6477   26.9072 C   0  0  2  0  0  0  0  0  0  0  0  0
    7.5225  -15.5287   26.0081 N   0  0  0  0  0  0  0  0  0  0  0  0
    8.9501  -15.4506   27.9691 C   0  0  0  0  0  0  0  0  0  0  0  0
   10.1054  -14.9761   28.6129 O   0  0  0  0  0  0  0  0  0  0  0  0
    8.5624  -16.5685   28.3440 O   0  0  0  0  0  0  0  0  0  0  0  0
  2  1  1  6
  3  4  1  0
  3  2  1  0
  4  8  1  0
  5  6  1  0
  5  4  2  0
  6  7  1  0
  7  8  2  0
  9  2  1  0
  9 10  2  0
 12 11  1  0
 13 12  2  0
 14 12  1  0
 15 14  1  0
 16 15  1  1
 16 17  1  0
 17  9  1  0
 18 16  1  0
 19 18  2  0
 21 20  1  0
 22 21  1  0
 22 23  1  6
 24 25  1  1
 24 22  1  0
 25 18  1  0
 26 24  1  0
 27 26  1  0
 28 26  2  0
M  END
$$$$
