HQI.pdb
     RDKit          3D

 28 28  0  0  1  0  0  0  0  0999 V2000
    9.0288  -16.1848   19.8620 N   0  0  0  0  0  0  0  0  0  0  0  0
    8.1766  -15.1903   20.5590 C   0  0  1  0  0  0  0  0  0  0  0  0
    6.9212  -15.1198   19.7418 C   0  0  0  0  0  0  0  0  0  0  0  0
    7.3162  -14.4320   18.4611 C   0  0  0  0  0  0  0  0  0  0  0  0
    8.6030  -14.0296   18.1675 C   0  0  0  0  0  0  0  0  0  0  0  0
    8.6124  -13.4364   16.9403 N   0  0  0  0  0  0  0  0  0  0  0  0
    7.3627  -13.4796   16.5020 C   0  0  0  0  0  0  0  0  0  0  0  0
    6.5584  -14.0846   17.4162 N   0  0  0  0  0  0  0  0  0  0  0  0
    8.0209  -15.6627   21.9375 C   0  0  0  0  0  0  0  0  0  0  0  0
    7.4837  -14.8627   22.7691 O   0  0  0  0  0  0  0  0  0  0  0  0
   12.7947  -19.3887   22.4807 N   0  0  0  0  0  0  0  0  0  0  0  0
   12.7898  -18.7962   23.7534 C   0  0  0  0  0  0  0  0  0  0  0  0
   13.7405  -19.1275   24.5375 O   0  0  0  0  0  0  0  0  0  0  0  0
   11.7293  -17.8399   24.1463 C   0  0  0  0  0  0  0  0  0  0  0  0
   10.7711  -17.6012   22.9683 C   0  0  0  0  0  0  0  0  0  0  0  0
    9.4651  -17.0591   23.3689 C   0  0  2  0  0  0  0  0  0  0  0  0
    8.4007  -16.9224   22.4518 N   0  0  0  0  0  0  0  0  0  0  0  0
    9.4841  -16.0409   24.4190 C   0  0  0  0  0  0  0  0  0  0  0  0
   10.2956  -16.1194   25.4076 O   0  0  0  0  0  0  0  0  0  0  0  0
    6.2131  -11.1626   26.6258 C   0  0  0  0  0  0  0  0  0  0  0  0
    7.3991  -12.1332   26.7815 C   0  0  0  0  0  0  0  0  0  0  0  0
    7.4162  -13.1331   25.6601 C   0  0  2  0  0  0  0  0  0  0  0  0
    6.0899  -13.8930   25.7116 C   0  0  0  0  0  0  0  0  0  0  0  0
    8.5899  -14.0288   25.6257 C   0  0  2  0  0  0  0  0  0  0  0  0
    8.6363  -14.9057   24.4694 N   0  0  0  0  0  0  0  0  0  0  0  0
    8.7643  -14.8257   26.8916 C   0  0  0  0  0  0  0  0  0  0  0  0
    8.6784  -16.2282   26.9022 O   0  0  0  0  0  0  0  0  0  0  0  0
    8.9947  -14.3060   27.9949 O   0  0  0  0  0  0  0  0  0  0  0  0
  2  1  1  6
  3  4  1  0
  3  2  1  0
  4  8  1  0
  5  6  1  0
  5  4  2  0
  6  7  1  0
  7  8  2  0
  9  2  1  0
  9 10  2  0
 12 11  1  0
 13 12  2  0
 14 12  1  0
 15 14  1  0
 16 15  1  6
 16 17  1  0
 17  9  1  0
 18 16  1  0
 19 18  2  0
 21 20  1  0
 22 21  1  0
 22 23  1  1
 24 25  1  6
 24 22  1  0
 25 18  1  0
 26 24  1  0
 27 26  1  0
 28 26  2  0
M  END
$$$$
