HQI.pdb
     RDKit          3D

 28 28  0  0  1  0  0  0  0  0999 V2000
    7.1034  -16.6865   18.9699 N   0  0  0  0  0  0  0  0  0  0  0  0
    8.0172  -15.7870   19.7161 C   0  0  1  0  0  0  0  0  0  0  0  0
    7.5036  -14.4048   19.4432 C   0  0  0  0  0  0  0  0  0  0  0  0
    7.8952  -14.1070   18.0193 C   0  0  0  0  0  0  0  0  0  0  0  0
    6.9954  -13.7890   17.0229 C   0  0  0  0  0  0  0  0  0  0  0  0
    7.6759  -13.5882   15.8591 N   0  0  0  0  0  0  0  0  0  0  0  0
    8.9557  -13.7791   16.1445 C   0  0  0  0  0  0  0  0  0  0  0  0
    9.1083  -14.0951   17.4581 N   0  0  0  0  0  0  0  0  0  0  0  0
    7.9838  -16.2207   21.1156 C   0  0  0  0  0  0  0  0  0  0  0  0
    6.8408  -16.4534   21.6250 O   0  0  0  0  0  0  0  0  0  0  0  0
   10.9828  -20.2134   23.8971 N   0  0  0  0  0  0  0  0  0  0  0  0
   10.0695  -20.2419   22.8313 C   0  0  0  0  0  0  0  0  0  0  0  0
   10.2114  -21.1886   21.9873 O   0  0  0  0  0  0  0  0  0  0  0  0
    9.0051  -19.2193   22.7102 C   0  0  0  0  0  0  0  0  0  0  0  0
    9.1768  -18.1476   23.7987 C   0  0  0  0  0  0  0  0  0  0  0  0
    8.9271  -16.7788   23.3254 C   0  0  2  0  0  0  0  0  0  0  0  0
    9.0910  -16.4158   21.9711 N   0  0  0  0  0  0  0  0  0  0  0  0
    9.2247  -15.7044   24.2726 C   0  0  0  0  0  0  0  0  0  0  0  0
   10.3024  -15.0170   24.1820 O   0  0  0  0  0  0  0  0  0  0  0  0
    5.9338  -11.7962   25.9751 C   0  0  0  0  0  0  0  0  0  0  0  0
    7.1177  -12.6634   25.5066 C   0  0  0  0  0  0  0  0  0  0  0  0
    7.7721  -13.3429   26.6761 C   0  0  2  0  0  0  0  0  0  0  0  0
    8.2784  -12.2443   27.6120 C   0  0  0  0  0  0  0  0  0  0  0  0
    8.8149  -14.3312   26.3342 C   0  0  2  0  0  0  0  0  0  0  0  0
    8.3984  -15.3238   25.3598 N   0  0  0  0  0  0  0  0  0  0  0  0
    9.4115  -15.0047   27.5419 C   0  0  0  0  0  0  0  0  0  0  0  0
    9.2283  -16.3751   27.7923 O   0  0  0  0  0  0  0  0  0  0  0  0
   10.0974  -14.4046   28.3845 O   0  0  0  0  0  0  0  0  0  0  0  0
  2  1  1  6
  3  4  1  0
  3  2  1  0
  4  8  1  0
  5  6  1  0
  5  4  2  0
  6  7  1  0
  7  8  2  0
  9  2  1  0
  9 10  2  0
 12 11  1  0
 13 12  2  0
 14 12  1  0
 15 14  1  0
 16 15  1  1
 16 17  1  0
 17  9  1  0
 18 16  1  0
 19 18  2  0
 21 20  1  0
 22 21  1  0
 22 23  1  1
 24 25  1  6
 24 22  1  0
 25 18  1  0
 26 24  1  0
 27 26  1  0
 28 26  2  0
M  END
$$$$
