HQI.pdb
     RDKit          3D

 28 28  0  0  1  0  0  0  0  0999 V2000
   14.8591  -17.3901   16.7333 N   0  0  0  0  0  0  0  0  0  0  0  0
   14.4941  -18.4189   17.7379 C   0  0  1  0  0  0  0  0  0  0  0  0
   15.5879  -18.3612   18.7622 C   0  0  0  0  0  0  0  0  0  0  0  0
   16.6029  -19.3831   18.3208 C   0  0  0  0  0  0  0  0  0  0  0  0
   16.3048  -20.4739   17.5303 C   0  0  0  0  0  0  0  0  0  0  0  0
   17.4421  -21.1967   17.3256 N   0  0  0  0  0  0  0  0  0  0  0  0
   18.4046  -20.5585   17.9754 C   0  0  0  0  0  0  0  0  0  0  0  0
   17.9110  -19.4492   18.5873 N   0  0  0  0  0  0  0  0  0  0  0  0
   13.1491  -18.0833   18.2138 C   0  0  0  0  0  0  0  0  0  0  0  0
   12.9090  -16.8581   18.4613 O   0  0  0  0  0  0  0  0  0  0  0  0
    7.2125  -20.5270   18.0180 N   0  0  0  0  0  0  0  0  0  0  0  0
    7.0990  -19.2650   18.6225 C   0  0  0  0  0  0  0  0  0  0  0  0
    5.9141  -18.8449   18.8416 O   0  0  0  0  0  0  0  0  0  0  0  0
    8.3020  -18.4785   18.9797 C   0  0  0  0  0  0  0  0  0  0  0  0
    9.5705  -19.2202   18.5285 C   0  0  0  0  0  0  0  0  0  0  0  0
   10.8178  -18.5293   18.8848 C   0  0  2  0  0  0  0  0  0  0  0  0
   12.0759  -18.9768   18.4269 N   0  0  0  0  0  0  0  0  0  0  0  0
   10.8515  -17.8986   20.2043 C   0  0  0  0  0  0  0  0  0  0  0  0
   11.6255  -18.3314   21.1293 O   0  0  0  0  0  0  0  0  0  0  0  0
    7.7739  -13.2256   21.5093 C   0  0  0  0  0  0  0  0  0  0  0  0
    8.9231  -14.2043   21.2015 C   0  0  0  0  0  0  0  0  0  0  0  0
    8.9741  -15.3009   22.2274 C   0  0  2  0  0  0  0  0  0  0  0  0
    9.1337  -14.6341   23.5945 C   0  0  0  0  0  0  0  0  0  0  0  0
    9.9798  -16.3542   21.9816 C   0  0  2  0  0  0  0  0  0  0  0  0
   10.0582  -16.7920   20.5995 N   0  0  0  0  0  0  0  0  0  0  0  0
    9.8306  -17.5409   22.8967 C   0  0  0  0  0  0  0  0  0  0  0  0
   10.7074  -17.7625   23.9720 O   0  0  0  0  0  0  0  0  0  0  0  0
    8.9348  -18.3902   22.7668 O   0  0  0  0  0  0  0  0  0  0  0  0
  2  1  1  6
  3  4  1  0
  3  2  1  0
  4  8  1  0
  5  6  1  0
  5  4  2  0
  6  7  1  0
  7  8  2  0
  9  2  1  0
  9 10  2  0
 12 11  1  0
 13 12  2  0
 14 12  1  0
 15 14  1  0
 16 15  1  1
 16 17  1  0
 17  9  1  0
 18 16  1  0
 19 18  2  0
 21 20  1  0
 22 21  1  0
 22 23  1  1
 24 25  1  6
 24 22  1  0
 25 18  1  0
 26 24  1  0
 27 26  1  0
 28 26  2  0
M  END
$$$$
