HQI.pdb
     RDKit          3D

 28 28  0  0  1  0  0  0  0  0999 V2000
    8.6665  -18.3894   20.6551 N   0  0  0  0  0  0  0  0  0  0  0  0
    9.9243  -17.6824   20.3099 C   0  0  1  0  0  0  0  0  0  0  0  0
   10.1006  -17.9082   18.8378 C   0  0  0  0  0  0  0  0  0  0  0  0
   10.8126  -19.2304   18.7189 C   0  0  0  0  0  0  0  0  0  0  0  0
   11.7482  -19.6862   19.6248 C   0  0  0  0  0  0  0  0  0  0  0  0
   12.2007  -20.9060   19.2183 N   0  0  0  0  0  0  0  0  0  0  0  0
   11.5543  -21.1818   18.0950 C   0  0  0  0  0  0  0  0  0  0  0  0
   10.7024  -20.1712   17.7759 N   0  0  0  0  0  0  0  0  0  0  0  0
    9.7526  -16.2891   20.7307 C   0  0  0  0  0  0  0  0  0  0  0  0
   10.7369  -15.5022   20.5518 O   0  0  0  0  0  0  0  0  0  0  0  0
    8.8542  -12.6429   18.5289 N   0  0  0  0  0  0  0  0  0  0  0  0
    7.8392  -13.6117   18.4825 C   0  0  0  0  0  0  0  0  0  0  0  0
    7.6338  -14.1651   17.3511 O   0  0  0  0  0  0  0  0  0  0  0  0
    7.0596  -13.9592   19.6928 C   0  0  0  0  0  0  0  0  0  0  0  0
    7.7384  -13.3770   20.9430 C   0  0  0  0  0  0  0  0  0  0  0  0
    8.5576  -14.3505   21.6786 C   0  0  2  0  0  0  0  0  0  0  0  0
    8.6024  -15.7140   21.3155 N   0  0  0  0  0  0  0  0  0  0  0  0
    8.7150  -14.1083   23.1127 C   0  0  0  0  0  0  0  0  0  0  0  0
    9.3737  -13.0993   23.5488 O   0  0  0  0  0  0  0  0  0  0  0  0
    5.2921  -12.2723   25.9683 C   0  0  0  0  0  0  0  0  0  0  0  0
    6.5577  -12.8355   25.2945 C   0  0  0  0  0  0  0  0  0  0  0  0
    7.1674  -13.9208   26.1359 C   0  0  2  0  0  0  0  0  0  0  0  0
    7.4588  -13.3173   27.5107 C   0  0  0  0  0  0  0  0  0  0  0  0
    8.3398  -14.5984   25.5464 C   0  0  2  0  0  0  0  0  0  0  0  0
    8.1910  -14.9315   24.1410 N   0  0  0  0  0  0  0  0  0  0  0  0
    8.7776  -15.8104   26.3258 C   0  0  0  0  0  0  0  0  0  0  0  0
    8.8425  -17.0853   25.7388 O   0  0  0  0  0  0  0  0  0  0  0  0
    9.1081  -15.7659   27.5213 O   0  0  0  0  0  0  0  0  0  0  0  0
  2  1  1  6
  3  4  1  0
  3  2  1  0
  4  8  1  0
  5  6  1  0
  5  4  2  0
  6  7  1  0
  7  8  2  0
  9  2  1  0
  9 10  2  0
 12 11  1  0
 13 12  2  0
 14 12  1  0
 15 14  1  0
 16 15  1  1
 16 17  1  0
 17  9  1  0
 18 16  1  0
 19 18  2  0
 21 20  1  0
 22 21  1  0
 22 23  1  1
 24 25  1  6
 24 22  1  0
 25 18  1  0
 26 24  1  0
 27 26  1  0
 28 26  2  0
M  END
$$$$
