HQI.pdb
     RDKit          3D

 28 28  0  0  1  0  0  0  0  0999 V2000
    8.4746  -16.7258   19.7711 N   0  0  0  0  0  0  0  0  0  0  0  0
    8.8710  -15.6271   20.6858 C   0  0  1  0  0  0  0  0  0  0  0  0
    7.6572  -14.7518   20.7838 C   0  0  0  0  0  0  0  0  0  0  0  0
    7.5388  -14.0811   19.4401 C   0  0  0  0  0  0  0  0  0  0  0  0
    8.3911  -13.0917   18.9947 C   0  0  0  0  0  0  0  0  0  0  0  0
    8.0011  -12.6988   17.7491 N   0  0  0  0  0  0  0  0  0  0  0  0
    6.9398  -13.4328   17.4481 C   0  0  0  0  0  0  0  0  0  0  0  0
    6.6442  -14.2825   18.4676 N   0  0  0  0  0  0  0  0  0  0  0  0
    9.3118  -16.2571   21.9335 C   0  0  0  0  0  0  0  0  0  0  0  0
    8.5317  -17.1146   22.4590 O   0  0  0  0  0  0  0  0  0  0  0  0
   13.5473  -19.8500   23.6444 N   0  0  0  0  0  0  0  0  0  0  0  0
   13.1088  -19.5051   24.9327 C   0  0  0  0  0  0  0  0  0  0  0  0
   13.4071  -20.3176   25.8704 O   0  0  0  0  0  0  0  0  0  0  0  0
   12.3423  -18.2603   25.1706 C   0  0  0  0  0  0  0  0  0  0  0  0
   12.1526  -17.4969   23.8500 C   0  0  0  0  0  0  0  0  0  0  0  0
   10.8809  -16.7647   23.7678 C   0  0  2  0  0  0  0  0  0  0  0  0
   10.5212  -16.0198   22.6238 N   0  0  0  0  0  0  0  0  0  0  0  0
   10.3707  -16.2152   25.0238 C   0  0  0  0  0  0  0  0  0  0  0  0
   10.8544  -16.5773   26.1539 O   0  0  0  0  0  0  0  0  0  0  0  0
    6.3160  -12.1289   25.2159 C   0  0  0  0  0  0  0  0  0  0  0  0
    7.6672  -12.8676   25.2521 C   0  0  0  0  0  0  0  0  0  0  0  0
    7.6788  -13.8974   26.3462 C   0  0  2  0  0  0  0  0  0  0  0  0
    7.3878  -13.1668   27.6580 C   0  0  0  0  0  0  0  0  0  0  0  0
    8.8911  -14.7381   26.4142 C   0  0  2  0  0  0  0  0  0  0  0  0
    9.3202  -15.2695   25.1329 N   0  0  0  0  0  0  0  0  0  0  0  0
    8.7879  -15.8456   27.4296 C   0  0  0  0  0  0  0  0  0  0  0  0
    9.3053  -15.7103   28.7289 O   0  0  0  0  0  0  0  0  0  0  0  0
    8.2448  -16.9361   27.1922 O   0  0  0  0  0  0  0  0  0  0  0  0
  2  1  1  6
  3  4  1  0
  3  2  1  0
  4  8  1  0
  5  6  1  0
  5  4  2  0
  6  7  1  0
  7  8  2  0
  9  2  1  0
  9 10  2  0
 12 11  1  0
 13 12  2  0
 14 12  1  0
 15 14  1  0
 16 15  1  1
 16 17  1  0
 17  9  1  0
 18 16  1  0
 19 18  2  0
 21 20  1  0
 22 21  1  0
 22 23  1  1
 24 25  1  6
 24 22  1  0
 25 18  1  0
 26 24  1  0
 27 26  1  0
 28 26  2  0
M  END
$$$$
