HQI.pdb
     RDKit          3D

 28 28  0  0  1  0  0  0  0  0999 V2000
    8.4590  -16.3712   19.6481 N   0  0  0  0  0  0  0  0  0  0  0  0
    7.9263  -15.1482   20.2973 C   0  0  1  0  0  0  0  0  0  0  0  0
    6.8088  -14.6953   19.4056 C   0  0  0  0  0  0  0  0  0  0  0  0
    7.4461  -14.4411   18.0644 C   0  0  0  0  0  0  0  0  0  0  0  0
    8.2594  -13.3609   17.7898 C   0  0  0  0  0  0  0  0  0  0  0  0
    8.6592  -13.4269   16.4884 N   0  0  0  0  0  0  0  0  0  0  0  0
    8.1023  -14.5203   15.9883 C   0  0  0  0  0  0  0  0  0  0  0  0
    7.3597  -15.1522   16.9359 N   0  0  0  0  0  0  0  0  0  0  0  0
    7.5471  -15.5274   21.6612 C   0  0  0  0  0  0  0  0  0  0  0  0
    6.9425  -14.6528   22.3610 O   0  0  0  0  0  0  0  0  0  0  0  0
    6.0653  -20.8589   24.8098 N   0  0  0  0  0  0  0  0  0  0  0  0
    7.4458  -20.6105   24.8672 C   0  0  0  0  0  0  0  0  0  0  0  0
    8.1790  -21.5713   25.2769 O   0  0  0  0  0  0  0  0  0  0  0  0
    8.0026  -19.2971   24.4691 C   0  0  0  0  0  0  0  0  0  0  0  0
    6.8703  -18.3560   24.0275 C   0  0  0  0  0  0  0  0  0  0  0  0
    7.3360  -17.0264   23.6087 C   0  0  2  0  0  0  0  0  0  0  0  0
    7.7763  -16.7704   22.2921 N   0  0  0  0  0  0  0  0  0  0  0  0
    8.0123  -16.2282   24.6312 C   0  0  0  0  0  0  0  0  0  0  0  0
    9.2758  -16.0192   24.5845 O   0  0  0  0  0  0  0  0  0  0  0  0
    5.5772  -11.8922   26.9892 C   0  0  0  0  0  0  0  0  0  0  0  0
    6.4765  -12.9123   26.2655 C   0  0  0  0  0  0  0  0  0  0  0  0
    7.3019  -13.6860   27.2543 C   0  0  2  0  0  0  0  0  0  0  0  0
    8.1489  -12.6735   28.0267 C   0  0  0  0  0  0  0  0  0  0  0  0
    8.1025  -14.7900   26.6872 C   0  0  2  0  0  0  0  0  0  0  0  0
    7.3790  -15.6298   25.7495 N   0  0  0  0  0  0  0  0  0  0  0  0
    8.7709  -15.6374   27.7375 C   0  0  0  0  0  0  0  0  0  0  0  0
    9.8834  -15.1783   28.4625 O   0  0  0  0  0  0  0  0  0  0  0  0
    8.3888  -16.7811   28.0316 O   0  0  0  0  0  0  0  0  0  0  0  0
  2  1  1  6
  3  4  1  0
  3  2  1  0
  4  8  1  0
  5  6  1  0
  5  4  2  0
  6  7  1  0
  7  8  2  0
  9  2  1  0
  9 10  2  0
 12 11  1  0
 13 12  2  0
 14 12  1  0
 15 14  1  0
 16 15  1  1
 16 17  1  0
 17  9  1  0
 18 16  1  0
 19 18  2  0
 21 20  1  0
 22 21  1  0
 22 23  1  6
 24 25  1  1
 24 22  1  0
 25 18  1  0
 26 24  1  0
 27 26  1  0
 28 26  2  0
M  END
$$$$
