HQI.pdb
     RDKit          3D

 28 28  0  0  1  0  0  0  0  0999 V2000
    7.4063  -19.2960   19.3682 N   0  0  0  0  0  0  0  0  0  0  0  0
    7.9094  -17.9702   19.8043 C   0  0  1  0  0  0  0  0  0  0  0  0
    7.4884  -17.0236   18.7200 C   0  0  0  0  0  0  0  0  0  0  0  0
    8.5120  -17.1874   17.6270 C   0  0  0  0  0  0  0  0  0  0  0  0
    9.7834  -16.6536   17.6754 C   0  0  0  0  0  0  0  0  0  0  0  0
   10.4447  -16.9799   16.5290 N   0  0  0  0  0  0  0  0  0  0  0  0
    9.5949  -17.6941   15.8055 C   0  0  0  0  0  0  0  0  0  0  0  0
    8.4112  -17.8318   16.4603 N   0  0  0  0  0  0  0  0  0  0  0  0
    7.3411  -17.7209   21.1320 C   0  0  0  0  0  0  0  0  0  0  0  0
    6.0898  -17.4967   21.1961 O   0  0  0  0  0  0  0  0  0  0  0  0
    6.7622  -21.6227   25.9243 N   0  0  0  0  0  0  0  0  0  0  0  0
    6.2575  -20.8434   24.8714 C   0  0  0  0  0  0  0  0  0  0  0  0
    5.0245  -21.0059   24.5851 O   0  0  0  0  0  0  0  0  0  0  0  0
    7.1253  -19.8890   24.1437 C   0  0  0  0  0  0  0  0  0  0  0  0
    6.5546  -18.4661   24.2553 C   0  0  0  0  0  0  0  0  0  0  0  0
    7.3724  -17.4465   23.5832 C   0  0  2  0  0  0  0  0  0  0  0  0
    8.0337  -17.7054   22.3631 N   0  0  0  0  0  0  0  0  0  0  0  0
    8.0736  -16.5043   24.4552 C   0  0  0  0  0  0  0  0  0  0  0  0
    9.3490  -16.5326   24.5765 O   0  0  0  0  0  0  0  0  0  0  0  0
    6.1133  -11.4643   25.4909 C   0  0  0  0  0  0  0  0  0  0  0  0
    7.1161  -12.5737   25.1209 C   0  0  0  0  0  0  0  0  0  0  0  0
    7.5683  -13.3104   26.3499 C   0  0  2  0  0  0  0  0  0  0  0  0
    8.4529  -12.3536   27.1507 C   0  0  0  0  0  0  0  0  0  0  0  0
    8.2106  -14.6178   26.1063 C   0  0  2  0  0  0  0  0  0  0  0  0
    7.4507  -15.5029   25.2419 N   0  0  0  0  0  0  0  0  0  0  0  0
    8.5978  -15.3329   27.3738 C   0  0  0  0  0  0  0  0  0  0  0  0
    9.7744  -15.0163   28.0736 O   0  0  0  0  0  0  0  0  0  0  0  0
    7.9132  -16.2358   27.8804 O   0  0  0  0  0  0  0  0  0  0  0  0
  2  1  1  6
  3  4  1  0
  3  2  1  0
  4  8  1  0
  5  6  1  0
  5  4  2  0
  6  7  1  0
  7  8  2  0
  9  2  1  0
  9 10  2  0
 12 11  1  0
 13 12  2  0
 14 12  1  0
 15 14  1  0
 16 15  1  1
 16 17  1  0
 17  9  1  0
 18 16  1  0
 19 18  2  0
 21 20  1  0
 22 21  1  0
 22 23  1  6
 24 25  1  1
 24 22  1  0
 25 18  1  0
 26 24  1  0
 27 26  1  0
 28 26  2  0
M  END
$$$$
