HQI.pdb
     RDKit          3D

 28 28  0  0  1  0  0  0  0  0999 V2000
    6.9612  -17.4564   19.3435 N   0  0  0  0  0  0  0  0  0  0  0  0
    7.3812  -16.2584   20.1114 C   0  0  1  0  0  0  0  0  0  0  0  0
    6.5805  -15.1304   19.5322 C   0  0  0  0  0  0  0  0  0  0  0  0
    7.3847  -14.6300   18.3608 C   0  0  0  0  0  0  0  0  0  0  0  0
    8.5639  -15.2049   17.9336 C   0  0  0  0  0  0  0  0  0  0  0  0
    9.0346  -14.5063   16.8620 N   0  0  0  0  0  0  0  0  0  0  0  0
    8.1613  -13.5334   16.6457 C   0  0  0  0  0  0  0  0  0  0  0  0
    7.1476  -13.5943   17.5498 N   0  0  0  0  0  0  0  0  0  0  0  0
    7.1392  -16.5592   21.5252 C   0  0  0  0  0  0  0  0  0  0  0  0
    5.9344  -16.5085   21.9324 O   0  0  0  0  0  0  0  0  0  0  0  0
    7.0202  -21.0468   25.2973 N   0  0  0  0  0  0  0  0  0  0  0  0
    6.9228  -20.0004   26.2282 C   0  0  0  0  0  0  0  0  0  0  0  0
    6.6389  -20.3319   27.4274 O   0  0  0  0  0  0  0  0  0  0  0  0
    7.1415  -18.5934   25.8209 C   0  0  0  0  0  0  0  0  0  0  0  0
    7.4438  -18.5206   24.3156 C   0  0  0  0  0  0  0  0  0  0  0  0
    7.7466  -17.1640   23.8382 C   0  0  2  0  0  0  0  0  0  0  0  0
    8.1038  -16.9072   22.4968 N   0  0  0  0  0  0  0  0  0  0  0  0
    8.3732  -16.2642   24.8065 C   0  0  0  0  0  0  0  0  0  0  0  0
    9.6452  -16.2319   24.9588 O   0  0  0  0  0  0  0  0  0  0  0  0
    5.9221  -11.4930   26.2735 C   0  0  0  0  0  0  0  0  0  0  0  0
    6.9851  -12.4869   25.7684 C   0  0  0  0  0  0  0  0  0  0  0  0
    7.5756  -13.2588   26.9143 C   0  0  2  0  0  0  0  0  0  0  0  0
    8.3617  -12.2655   27.7712 C   0  0  0  0  0  0  0  0  0  0  0  0
    8.3693  -14.4462   26.5382 C   0  0  2  0  0  0  0  0  0  0  0  0
    7.6766  -15.3719   25.6599 N   0  0  0  0  0  0  0  0  0  0  0  0
    8.9372  -15.1793   27.7247 C   0  0  0  0  0  0  0  0  0  0  0  0
   10.0638  -14.7062   28.4184 O   0  0  0  0  0  0  0  0  0  0  0  0
    8.4546  -16.2344   28.1657 O   0  0  0  0  0  0  0  0  0  0  0  0
  2  1  1  6
  3  4  1  0
  3  2  1  0
  4  8  1  0
  5  6  1  0
  5  4  2  0
  6  7  1  0
  7  8  2  0
  9  2  1  0
  9 10  2  0
 12 11  1  0
 13 12  2  0
 14 12  1  0
 15 14  1  0
 16 15  1  1
 16 17  1  0
 17  9  1  0
 18 16  1  0
 19 18  2  0
 21 20  1  0
 22 21  1  0
 22 23  1  6
 24 25  1  1
 24 22  1  0
 25 18  1  0
 26 24  1  0
 27 26  1  0
 28 26  2  0
M  END
$$$$
