HQI.pdb
     RDKit          3D

 28 28  0  0  1  0  0  0  0  0999 V2000
    8.3420  -16.7152   18.7195 N   0  0  0  0  0  0  0  0  0  0  0  0
    8.4569  -15.4930   19.5526 C   0  0  1  0  0  0  0  0  0  0  0  0
    7.3005  -14.6339   19.1362 C   0  0  0  0  0  0  0  0  0  0  0  0
    7.5957  -14.2276   17.7160 C   0  0  0  0  0  0  0  0  0  0  0  0
    8.3825  -13.1480   17.3708 C   0  0  0  0  0  0  0  0  0  0  0  0
    8.4376  -13.0564   16.0120 N   0  0  0  0  0  0  0  0  0  0  0  0
    7.7031  -14.0563   15.5465 C   0  0  0  0  0  0  0  0  0  0  0  0
    7.1827  -14.7819   16.5719 N   0  0  0  0  0  0  0  0  0  0  0  0
    8.4591  -15.9353   20.9498 C   0  0  0  0  0  0  0  0  0  0  0  0
    7.3277  -16.0989   21.5096 O   0  0  0  0  0  0  0  0  0  0  0  0
   11.7985  -19.8539   24.3367 N   0  0  0  0  0  0  0  0  0  0  0  0
   11.0082  -19.2464   25.3252 C   0  0  0  0  0  0  0  0  0  0  0  0
   11.2660  -19.5653   26.5337 O   0  0  0  0  0  0  0  0  0  0  0  0
    9.9373  -18.2889   24.9649 C   0  0  0  0  0  0  0  0  0  0  0  0
    9.9431  -18.0368   23.4486 C   0  0  0  0  0  0  0  0  0  0  0  0
    9.4619  -16.7008   23.0695 C   0  0  2  0  0  0  0  0  0  0  0  0
    9.5889  -16.2076   21.7529 N   0  0  0  0  0  0  0  0  0  0  0  0
    9.5390  -15.6697   24.1042 C   0  0  0  0  0  0  0  0  0  0  0  0
   10.6279  -15.0323   24.3288 O   0  0  0  0  0  0  0  0  0  0  0  0
    6.6038  -11.1772   27.0129 C   0  0  0  0  0  0  0  0  0  0  0  0
    7.7478  -12.2058   27.0924 C   0  0  0  0  0  0  0  0  0  0  0  0
    7.5628  -13.2845   26.0630 C   0  0  2  0  0  0  0  0  0  0  0  0
    6.1813  -13.8986   26.2947 C   0  0  0  0  0  0  0  0  0  0  0  0
    8.6375  -14.2957   26.0025 C   0  0  2  0  0  0  0  0  0  0  0  0
    8.4694  -15.2814   24.9497 N   0  0  0  0  0  0  0  0  0  0  0  0
    8.8831  -14.9789   27.3219 C   0  0  0  0  0  0  0  0  0  0  0  0
    9.4464  -14.2991   28.4149 O   0  0  0  0  0  0  0  0  0  0  0  0
    8.6066  -16.1707   27.5314 O   0  0  0  0  0  0  0  0  0  0  0  0
  2  1  1  6
  3  4  1  0
  3  2  1  0
  4  8  1  0
  5  6  1  0
  5  4  2  0
  6  7  1  0
  7  8  2  0
  9  2  1  0
  9 10  2  0
 12 11  1  0
 13 12  2  0
 14 12  1  0
 15 14  1  0
 16 15  1  1
 16 17  1  0
 17  9  1  0
 18 16  1  0
 19 18  2  0
 21 20  1  0
 22 21  1  0
 22 23  1  1
 24 25  1  6
 24 22  1  0
 25 18  1  0
 26 24  1  0
 27 26  1  0
 28 26  2  0
M  END
$$$$
