HQI.pdb
     RDKit          3D

 28 28  0  0  1  0  0  0  0  0999 V2000
    8.4993  -16.8887   19.0154 N   0  0  0  0  0  0  0  0  0  0  0  0
    8.7157  -15.7150   19.8968 C   0  0  1  0  0  0  0  0  0  0  0  0
    7.5045  -14.8541   19.6948 C   0  0  0  0  0  0  0  0  0  0  0  0
    7.6711  -14.2448   18.3272 C   0  0  0  0  0  0  0  0  0  0  0  0
    8.8657  -13.7524   17.8431 C   0  0  0  0  0  0  0  0  0  0  0  0
    8.6676  -13.2677   16.5847 N   0  0  0  0  0  0  0  0  0  0  0  0
    7.3853  -13.4628   16.3137 C   0  0  0  0  0  0  0  0  0  0  0  0
    6.7622  -14.0589   17.3650 N   0  0  0  0  0  0  0  0  0  0  0  0
    8.9144  -16.2376   21.2515 C   0  0  0  0  0  0  0  0  0  0  0  0
    7.8806  -16.6348   21.8789 O   0  0  0  0  0  0  0  0  0  0  0  0
   12.5660  -20.1573   24.3580 N   0  0  0  0  0  0  0  0  0  0  0  0
   11.8782  -19.5092   25.3961 C   0  0  0  0  0  0  0  0  0  0  0  0
   12.0749  -19.9580   26.5745 O   0  0  0  0  0  0  0  0  0  0  0  0
   10.9768  -18.3673   25.1186 C   0  0  0  0  0  0  0  0  0  0  0  0
   10.9952  -18.0330   23.6184 C   0  0  0  0  0  0  0  0  0  0  0  0
   10.1991  -16.8487   23.2666 C   0  0  2  0  0  0  0  0  0  0  0  0
   10.1393  -16.3551   21.9454 N   0  0  0  0  0  0  0  0  0  0  0  0
   10.0903  -15.8155   24.2964 C   0  0  0  0  0  0  0  0  0  0  0  0
   10.9537  -14.8729   24.3873 O   0  0  0  0  0  0  0  0  0  0  0  0
    6.5169  -11.7544   26.7432 C   0  0  0  0  0  0  0  0  0  0  0  0
    7.7918  -12.5831   26.9893 C   0  0  0  0  0  0  0  0  0  0  0  0
    7.8439  -13.7633   26.0607 C   0  0  2  0  0  0  0  0  0  0  0  0
    6.5018  -14.4878   26.1745 C   0  0  0  0  0  0  0  0  0  0  0  0
    8.9998  -14.6644   26.2431 C   0  0  2  0  0  0  0  0  0  0  0  0
    9.0695  -15.7466   25.2777 N   0  0  0  0  0  0  0  0  0  0  0  0
    9.1129  -15.2068   27.6434 C   0  0  0  0  0  0  0  0  0  0  0  0
    9.0442  -16.5842   27.9124 O   0  0  0  0  0  0  0  0  0  0  0  0
    9.2745  -14.4852   28.6403 O   0  0  0  0  0  0  0  0  0  0  0  0
  2  1  1  6
  3  4  1  0
  3  2  1  0
  4  8  1  0
  5  6  1  0
  5  4  2  0
  6  7  1  0
  7  8  2  0
  9  2  1  0
  9 10  2  0
 12 11  1  0
 13 12  2  0
 14 12  1  0
 15 14  1  0
 16 15  1  6
 16 17  1  0
 17  9  1  0
 18 16  1  0
 19 18  2  0
 21 20  1  0
 22 21  1  0
 22 23  1  1
 24 25  1  6
 24 22  1  0
 25 18  1  0
 26 24  1  0
 27 26  1  0
 28 26  2  0
M  END
$$$$
