HQI.pdb
     RDKit          3D

 28 28  0  0  1  0  0  0  0  0999 V2000
    6.5512  -15.3473   20.9852 N   0  0  0  0  0  0  0  0  0  0  0  0
    6.9143  -16.7505   20.6683 C   0  0  1  0  0  0  0  0  0  0  0  0
    7.6268  -16.6750   19.3509 C   0  0  0  0  0  0  0  0  0  0  0  0
    8.0119  -15.2279   19.1873 C   0  0  0  0  0  0  0  0  0  0  0  0
    7.5634  -14.2134   20.0080 C   0  0  0  0  0  0  0  0  0  0  0  0
    8.0922  -13.0319   19.5811 N   0  0  0  0  0  0  0  0  0  0  0  0
    8.8426  -13.3243   18.5289 C   0  0  0  0  0  0  0  0  0  0  0  0
    8.8064  -14.6596   18.2750 N   0  0  0  0  0  0  0  0  0  0  0  0
    7.7042  -17.2460   21.7990 C   0  0  0  0  0  0  0  0  0  0  0  0
    7.8000  -18.5082   21.9325 O   0  0  0  0  0  0  0  0  0  0  0  0
   11.6011  -20.4361   23.1098 N   0  0  0  0  0  0  0  0  0  0  0  0
   11.5716  -19.9336   24.4203 C   0  0  0  0  0  0  0  0  0  0  0  0
   12.3233  -20.5185   25.2697 O   0  0  0  0  0  0  0  0  0  0  0  0
   10.7078  -18.7852   24.7785 C   0  0  0  0  0  0  0  0  0  0  0  0
   10.0261  -18.2249   23.5199 C   0  0  0  0  0  0  0  0  0  0  0  0
    9.1598  -17.0670   23.7824 C   0  0  2  0  0  0  0  0  0  0  0  0
    8.3824  -16.4709   22.7659 N   0  0  0  0  0  0  0  0  0  0  0  0
    9.6267  -16.1308   24.8048 C   0  0  0  0  0  0  0  0  0  0  0  0
   10.6767  -15.4184   24.6252 O   0  0  0  0  0  0  0  0  0  0  0  0
    6.3218  -12.5395   26.5565 C   0  0  0  0  0  0  0  0  0  0  0  0
    7.5154  -13.3926   26.0869 C   0  0  0  0  0  0  0  0  0  0  0  0
    8.3046  -13.8927   27.2636 C   0  0  2  0  0  0  0  0  0  0  0  0
    8.7863  -12.6659   28.0394 C   0  0  0  0  0  0  0  0  0  0  0  0
    9.3966  -14.8337   26.9422 C   0  0  2  0  0  0  0  0  0  0  0  0
    9.0065  -15.9207   26.0622 N   0  0  0  0  0  0  0  0  0  0  0  0
   10.0905  -15.3756   28.1640 C   0  0  0  0  0  0  0  0  0  0  0  0
   10.0630  -16.7428   28.4867 O   0  0  0  0  0  0  0  0  0  0  0  0
   10.7265  -14.6624   28.9562 O   0  0  0  0  0  0  0  0  0  0  0  0
  2  1  1  1
  3  4  1  0
  3  2  1  0
  4  8  1  0
  5  6  1  0
  5  4  2  0
  6  7  1  0
  7  8  2  0
  9  2  1  0
  9 10  2  0
 12 11  1  0
 13 12  2  0
 14 12  1  0
 15 14  1  0
 16 15  1  6
 16 17  1  0
 17  9  1  0
 18 16  1  0
 19 18  2  0
 21 20  1  0
 22 21  1  0
 22 23  1  6
 24 25  1  1
 24 22  1  0
 25 18  1  0
 26 24  1  0
 27 26  1  0
 28 26  2  0
M  END
$$$$
