HQI.pdb
     RDKit          3D

 28 28  0  0  1  0  0  0  0  0999 V2000
    7.9550  -16.8693   20.0001 N   0  0  0  0  0  0  0  0  0  0  0  0
    8.5773  -15.7300   20.7184 C   0  0  1  0  0  0  0  0  0  0  0  0
    7.6521  -14.5740   20.4803 C   0  0  0  0  0  0  0  0  0  0  0  0
    7.8380  -14.2055   19.0315 C   0  0  0  0  0  0  0  0  0  0  0  0
    8.5404  -13.0983   18.6018 C   0  0  0  0  0  0  0  0  0  0  0  0
    8.5084  -13.0546   17.2398 N   0  0  0  0  0  0  0  0  0  0  0  0
    7.8049  -14.1095   16.8551 C   0  0  0  0  0  0  0  0  0  0  0  0
    7.3890  -14.8237   17.9348 N   0  0  0  0  0  0  0  0  0  0  0  0
    8.7366  -16.1493   22.1136 C   0  0  0  0  0  0  0  0  0  0  0  0
    7.6870  -16.1881   22.8325 O   0  0  0  0  0  0  0  0  0  0  0  0
   11.8507  -20.5084   25.3325 N   0  0  0  0  0  0  0  0  0  0  0  0
   11.3263  -19.6932   26.3480 C   0  0  0  0  0  0  0  0  0  0  0  0
   11.5145  -20.0878   27.5469 O   0  0  0  0  0  0  0  0  0  0  0  0
   10.5967  -18.4454   26.0252 C   0  0  0  0  0  0  0  0  0  0  0  0
   10.5976  -18.2116   24.5060 C   0  0  0  0  0  0  0  0  0  0  0  0
    9.9572  -16.9523   24.1011 C   0  0  2  0  0  0  0  0  0  0  0  0
    9.9377  -16.5235   22.7562 N   0  0  0  0  0  0  0  0  0  0  0  0
   10.0044  -15.8623   25.0755 C   0  0  0  0  0  0  0  0  0  0  0  0
   11.0046  -15.0631   25.1323 O   0  0  0  0  0  0  0  0  0  0  0  0
    6.6233  -11.9140   25.8254 C   0  0  0  0  0  0  0  0  0  0  0  0
    7.8213  -12.8766   25.7205 C   0  0  0  0  0  0  0  0  0  0  0  0
    8.0917  -13.5321   27.0451 C   0  0  2  0  0  0  0  0  0  0  0  0
    8.3358  -12.4151   28.0610 C   0  0  0  0  0  0  0  0  0  0  0  0
    9.1617  -14.5501   27.0433 C   0  0  2  0  0  0  0  0  0  0  0  0
    8.9995  -15.5829   26.0357 N   0  0  0  0  0  0  0  0  0  0  0  0
    9.3897  -15.1724   28.3956 C   0  0  0  0  0  0  0  0  0  0  0  0
   10.0401  -14.4791   29.4303 O   0  0  0  0  0  0  0  0  0  0  0  0
    9.0221  -16.3221   28.6848 O   0  0  0  0  0  0  0  0  0  0  0  0
  2  1  1  6
  3  4  1  0
  3  2  1  0
  4  8  1  0
  5  6  1  0
  5  4  2  0
  6  7  1  0
  7  8  2  0
  9  2  1  0
  9 10  2  0
 12 11  1  0
 13 12  2  0
 14 12  1  0
 15 14  1  0
 16 15  1  6
 16 17  1  0
 17  9  1  0
 18 16  1  0
 19 18  2  0
 21 20  1  0
 22 21  1  0
 22 23  1  1
 24 25  1  6
 24 22  1  0
 25 18  1  0
 26 24  1  0
 27 26  1  0
 28 26  2  0
M  END
$$$$
