HQI.pdb
     RDKit          3D

 28 28  0  0  1  0  0  0  0  0999 V2000
    8.2556  -16.4099   19.6770 N   0  0  0  0  0  0  0  0  0  0  0  0
    7.7955  -15.2407   20.4660 C   0  0  1  0  0  0  0  0  0  0  0  0
    6.6676  -14.6580   19.6677 C   0  0  0  0  0  0  0  0  0  0  0  0
    7.2711  -14.2811   18.3398 C   0  0  0  0  0  0  0  0  0  0  0  0
    8.0779  -13.1789   18.1450 C   0  0  0  0  0  0  0  0  0  0  0  0
    8.4448  -13.1249   16.8334 N   0  0  0  0  0  0  0  0  0  0  0  0
    7.8750  -14.1689   16.2494 C   0  0  0  0  0  0  0  0  0  0  0  0
    7.1561  -14.8861   17.1536 N   0  0  0  0  0  0  0  0  0  0  0  0
    7.4480  -15.7430   21.7982 C   0  0  0  0  0  0  0  0  0  0  0  0
    6.4102  -15.2556   22.3509 O   0  0  0  0  0  0  0  0  0  0  0  0
    6.8676  -21.0241   24.9714 N   0  0  0  0  0  0  0  0  0  0  0  0
    6.9795  -20.0922   26.0154 C   0  0  0  0  0  0  0  0  0  0  0  0
    6.7989  -20.5390   27.1971 O   0  0  0  0  0  0  0  0  0  0  0  0
    7.2912  -18.6708   25.7401 C   0  0  0  0  0  0  0  0  0  0  0  0
    7.3603  -18.4300   24.2235 C   0  0  0  0  0  0  0  0  0  0  0  0
    7.7568  -17.0624   23.8594 C   0  0  2  0  0  0  0  0  0  0  0  0
    8.1413  -16.7218   22.5445 N   0  0  0  0  0  0  0  0  0  0  0  0
    8.4341  -16.2885   24.8998 C   0  0  0  0  0  0  0  0  0  0  0  0
    9.7128  -16.2295   24.9592 O   0  0  0  0  0  0  0  0  0  0  0  0
    6.2308  -11.5649   26.5677 C   0  0  0  0  0  0  0  0  0  0  0  0
    7.1644  -12.6735   26.0460 C   0  0  0  0  0  0  0  0  0  0  0  0
    7.7588  -13.4468   27.1889 C   0  0  2  0  0  0  0  0  0  0  0  0
    8.5948  -12.4659   28.0123 C   0  0  0  0  0  0  0  0  0  0  0  0
    8.5072  -14.6629   26.8118 C   0  0  2  0  0  0  0  0  0  0  0  0
    7.7839  -15.5565   25.9250 N   0  0  0  0  0  0  0  0  0  0  0  0
    9.0385  -15.4234   27.9982 C   0  0  0  0  0  0  0  0  0  0  0  0
   10.0938  -14.9291   28.7832 O   0  0  0  0  0  0  0  0  0  0  0  0
    8.5856  -16.5211   28.3594 O   0  0  0  0  0  0  0  0  0  0  0  0
  2  1  1  6
  3  4  1  0
  3  2  1  0
  4  8  1  0
  5  6  1  0
  5  4  2  0
  6  7  1  0
  7  8  2  0
  9  2  1  0
  9 10  2  0
 12 11  1  0
 13 12  2  0
 14 12  1  0
 15 14  1  0
 16 15  1  1
 16 17  1  0
 17  9  1  0
 18 16  1  0
 19 18  2  0
 21 20  1  0
 22 21  1  0
 22 23  1  6
 24 25  1  1
 24 22  1  0
 25 18  1  0
 26 24  1  0
 27 26  1  0
 28 26  2  0
M  END
$$$$
