WRI.pdb
     RDKit          3D

 34 35  0  0  1  0  0  0  0  0999 V2000
    5.8478  -18.6296   24.8056 N   0  0  0  0  0  0  0  0  0  0  0  0
    6.2335  -17.2603   24.5867 C   0  0  1  0  0  0  0  0  0  0  0  0
    6.8649  -16.6986   25.8127 C   0  0  0  0  0  0  0  0  0  0  0  0
    6.3825  -15.3784   26.2351 C   0  0  0  0  0  0  0  0  0  0  0  0
    5.0982  -15.1104   26.7412 C   0  0  0  0  0  0  0  0  0  0  0  0
    5.0173  -13.8303   27.0470 N   0  0  0  0  0  0  0  0  0  0  0  0
    6.1642  -13.1780   26.7878 C   0  0  0  0  0  0  0  0  0  0  0  0
    6.5509  -11.8670   26.9301 C   0  0  0  0  0  0  0  0  0  0  0  0
    7.8200  -11.5019   26.5575 C   0  0  0  0  0  0  0  0  0  0  0  0
    8.6982  -12.4440   26.0447 C   0  0  0  0  0  0  0  0  0  0  0  0
    8.2778  -13.7514   25.9153 C   0  0  0  0  0  0  0  0  0  0  0  0
    7.0236  -14.1609   26.2743 C   0  0  0  0  0  0  0  0  0  0  0  0
    7.1633  -17.2160   23.4093 C   0  0  0  0  0  0  0  0  0  0  0  0
    8.1542  -18.0258   23.3620 O   0  0  0  0  0  0  0  0  0  0  0  0
    7.9169  -15.8077   17.0762 N   0  0  0  0  0  0  0  0  0  0  0  0
    8.6886  -14.7175   16.5966 C   0  0  0  0  0  0  0  0  0  0  0  0
    9.2326  -14.7524   15.4294 N   0  0  0  0  0  0  0  0  0  0  0  0
    8.9041  -13.5338   17.3690 N   0  0  0  0  0  0  0  0  0  0  0  0
    8.2478  -13.3803   18.6452 C   0  0  0  0  0  0  0  0  0  0  0  0
    8.7542  -14.3615   19.6725 C   0  0  0  0  0  0  0  0  0  0  0  0
    7.5633  -14.8066   20.5063 C   0  0  0  0  0  0  0  0  0  0  0  0
    8.0641  -15.7601   21.5341 C   0  0  2  0  0  0  0  0  0  0  0  0
    7.0091  -16.3124   22.3227 N   0  0  0  0  0  0  0  0  0  0  0  0
    9.1436  -15.2167   22.4020 C   0  0  0  0  0  0  0  0  0  0  0  0
    9.2566  -13.9744   22.5027 O   0  0  0  0  0  0  0  0  0  0  0  0
    9.7510  -13.9320   15.0871 C   0  0  0  0  0  0  0  0  0  0  0  0
   10.8118  -14.3851   27.6708 C   0  0  0  0  0  0  0  0  0  0  0  0
   11.5265  -14.8990   26.4511 C   0  0  2  0  0  0  0  0  0  0  0  0
   10.5471  -15.3874   25.4436 C   0  0  0  0  0  0  0  0  0  0  0  0
   10.1281  -16.7990   25.8833 C   0  0  2  0  0  0  0  0  0  0  0  0
   11.0478  -15.5140   24.0467 N   0  0  0  0  0  0  0  0  0  0  0  0
   10.0513  -16.0149   23.1212 C   0  0  0  0  0  0  0  0  0  0  0  0
   12.3446  -16.1990   23.8969 O   0  0  0  0  0  0  0  0  0  0  0  0
   12.5126  -17.3438   23.1112 O   0  0  0  0  0  0  0  0  0  0  0  0
  2  1  1  1
  3  2  1  0
  4  3  1  0
  5  4  2  0
  6  5  1  0
  7  6  1  0
  7 12  2  0
  8  7  1  0
  9  8  2  0
  9 10  1  0
 10 11  2  0
 11 12  1  0
 12  4  1  0
 13 14  2  0
 13  2  1  0
 16 17  2  0
 16 15  1  0
 18 16  1  0
 18 19  1  0
 19 20  1  0
 20 21  1  0
 22 21  1  1
 22 23  1  0
 22 24  1  0
 23 13  1  0
 24 31  1  0
 24 25  2  0
 27 26  1  0
 28 27  1  0
 28 29  1  6
 30 28  1  0
 30 31  1  6
 32 33  1  0
 32 30  1  0
 34 32  2  0
M  END
$$$$
