WRI.pdb
     RDKit          3D

 34 35  0  0  1  0  0  0  0  0999 V2000
    6.5379  -17.2046   25.6699 N   0  0  0  0  0  0  0  0  0  0  0  0
    6.9042  -16.1368   24.7770 C   0  0  1  0  0  0  0  0  0  0  0  0
    8.0499  -15.3664   25.3348 C   0  0  0  0  0  0  0  0  0  0  0  0
    7.7407  -14.4895   26.4704 C   0  0  0  0  0  0  0  0  0  0  0  0
    7.9233  -14.8241   27.8240 C   0  0  0  0  0  0  0  0  0  0  0  0
    7.5725  -13.7951   28.5702 N   0  0  0  0  0  0  0  0  0  0  0  0
    7.1533  -12.7553   27.8278 C   0  0  0  0  0  0  0  0  0  0  0  0
    6.6930  -11.5001   28.1460 C   0  0  0  0  0  0  0  0  0  0  0  0
    6.3241  -10.6490   27.1350 C   0  0  0  0  0  0  0  0  0  0  0  0
    6.4149  -11.0518   25.8116 C   0  0  0  0  0  0  0  0  0  0  0  0
    6.8813  -12.3184   25.5272 C   0  0  0  0  0  0  0  0  0  0  0  0
    7.2610  -13.1996   26.5014 C   0  0  0  0  0  0  0  0  0  0  0  0
    7.2312  -16.7336   23.4392 C   0  0  0  0  0  0  0  0  0  0  0  0
    7.7748  -17.8918   23.3853 O   0  0  0  0  0  0  0  0  0  0  0  0
    9.2857  -15.4983   16.3693 N   0  0  0  0  0  0  0  0  0  0  0  0
    8.3749  -14.4404   16.1137 C   0  0  0  0  0  0  0  0  0  0  0  0
    8.2894  -13.9065   14.9445 N   0  0  0  0  0  0  0  0  0  0  0  0
    7.5112  -13.9131   17.1238 N   0  0  0  0  0  0  0  0  0  0  0  0
    8.0737  -13.3700   18.3369 C   0  0  0  0  0  0  0  0  0  0  0  0
    8.5742  -14.4451   19.2687 C   0  0  0  0  0  0  0  0  0  0  0  0
    7.5674  -14.5751   20.4005 C   0  0  0  0  0  0  0  0  0  0  0  0
    7.9329  -15.7815   21.1923 C   0  0  2  0  0  0  0  0  0  0  0  0
    6.9702  -16.0792   22.2045 N   0  0  0  0  0  0  0  0  0  0  0  0
    9.3066  -15.7487   21.7631 C   0  0  0  0  0  0  0  0  0  0  0  0
    9.7042  -14.6877   22.2946 O   0  0  0  0  0  0  0  0  0  0  0  0
    7.6275  -13.1344   14.7869 C   0  0  0  0  0  0  0  0  0  0  0  0
   10.5619  -17.9410   25.2041 C   0  0  0  0  0  0  0  0  0  0  0  0
   11.5716  -17.0288   24.5633 C   0  0  2  0  0  0  0  0  0  0  0  0
   11.9955  -17.5699   23.2440 C   0  0  0  0  0  0  0  0  0  0  0  0
   13.5316  -17.6123   23.2570 C   0  0  2  0  0  0  0  0  0  0  0  0
   11.6077  -16.7697   22.0493 N   0  0  0  0  0  0  0  0  0  0  0  0
   10.1928  -16.8407   21.7436 C   0  0  0  0  0  0  0  0  0  0  0  0
   12.4486  -16.9651   20.8543 O   0  0  0  0  0  0  0  0  0  0  0  0
   13.7146  -16.3873   20.7138 O   0  0  0  0  0  0  0  0  0  0  0  0
  2  1  1  1
  3  2  1  0
  4  3  1  0
  5  4  2  0
  6  5  1  0
  7  6  1  0
  7 12  2  0
  8  7  1  0
  9  8  2  0
  9 10  1  0
 10 11  2  0
 11 12  1  0
 12  4  1  0
 13 14  2  0
 13  2  1  0
 16 17  2  0
 16 15  1  0
 18 16  1  0
 18 19  1  0
 19 20  1  0
 20 21  1  0
 22 21  1  1
 22 23  1  0
 22 24  1  0
 23 13  1  0
 24 31  1  0
 24 25  2  0
 27 26  1  0
 28 27  1  0
 28 29  1  6
 30 28  1  0
 30 31  1  6
 32 33  1  0
 32 30  1  0
 34 32  2  0
M  END
$$$$
