WRI.pdb
     RDKit          3D

 34 35  0  0  1  0  0  0  0  0999 V2000
    6.0585  -19.2660   25.9206 N   0  0  0  0  0  0  0  0  0  0  0  0
    6.4528  -18.0061   25.3471 C   0  0  1  0  0  0  0  0  0  0  0  0
    6.7034  -17.0051   26.4207 C   0  0  0  0  0  0  0  0  0  0  0  0
    5.9758  -15.7365   26.2971 C   0  0  0  0  0  0  0  0  0  0  0  0
    4.6168  -15.5500   26.6064 C   0  0  0  0  0  0  0  0  0  0  0  0
    4.3025  -14.2848   26.4083 N   0  0  0  0  0  0  0  0  0  0  0  0
    5.3550  -13.5668   25.9780 C   0  0  0  0  0  0  0  0  0  0  0  0
    5.5131  -12.2445   25.6387 C   0  0  0  0  0  0  0  0  0  0  0  0
    6.7430  -11.8070   25.2163 C   0  0  0  0  0  0  0  0  0  0  0  0
    7.8099  -12.6883   25.1335 C   0  0  0  0  0  0  0  0  0  0  0  0
    7.6167  -14.0090   25.4819 C   0  0  0  0  0  0  0  0  0  0  0  0
    6.4098  -14.4892   25.9090 C   0  0  0  0  0  0  0  0  0  0  0  0
    7.6716  -18.2350   24.5016 C   0  0  0  0  0  0  0  0  0  0  0  0
    8.4914  -19.1651   24.8220 O   0  0  0  0  0  0  0  0  0  0  0  0
    8.8169  -12.8578   17.5785 N   0  0  0  0  0  0  0  0  0  0  0  0
    9.3346  -12.8490   18.8998 C   0  0  0  0  0  0  0  0  0  0  0  0
    9.1479  -11.8400   19.6787 N   0  0  0  0  0  0  0  0  0  0  0  0
   10.0824  -13.9431   19.4364 N   0  0  0  0  0  0  0  0  0  0  0  0
    9.4336  -15.2116   19.6662 C   0  0  0  0  0  0  0  0  0  0  0  0
    9.7770  -15.7960   21.0134 C   0  0  0  0  0  0  0  0  0  0  0  0
    8.9792  -17.0805   21.1719 C   0  0  0  0  0  0  0  0  0  0  0  0
    9.1726  -17.5617   22.5674 C   0  0  2  0  0  0  0  0  0  0  0  0
    7.9783  -17.4674   23.3450 N   0  0  0  0  0  0  0  0  0  0  0  0
   10.3181  -16.9344   23.2803 C   0  0  0  0  0  0  0  0  0  0  0  0
   11.4286  -16.8981   22.7044 O   0  0  0  0  0  0  0  0  0  0  0  0
    9.5847  -11.8313   20.6105 C   0  0  0  0  0  0  0  0  0  0  0  0
   11.5417  -14.1019   28.7162 C   0  0  0  0  0  0  0  0  0  0  0  0
   12.0847  -14.8032   27.5014 C   0  0  2  0  0  0  0  0  0  0  0  0
   10.9718  -15.3032   26.6505 C   0  0  0  0  0  0  0  0  0  0  0  0
   10.2361  -16.3747   27.4704 C   0  0  2  0  0  0  0  0  0  0  0  0
   11.3639  -15.9513   25.3682 N   0  0  0  0  0  0  0  0  0  0  0  0
   10.2323  -16.3761   24.5684 C   0  0  0  0  0  0  0  0  0  0  0  0
   12.3970  -16.9974   25.4757 O   0  0  0  0  0  0  0  0  0  0  0  0
   12.0923  -18.3491   25.6664 O   0  0  0  0  0  0  0  0  0  0  0  0
  2  1  1  1
  3  2  1  0
  4  3  1  0
  5  4  2  0
  6  5  1  0
  7  6  1  0
  7 12  2  0
  8  7  1  0
  9  8  2  0
  9 10  1  0
 10 11  2  0
 11 12  1  0
 12  4  1  0
 13 14  2  0
 13  2  1  0
 16 17  2  0
 16 15  1  0
 18 16  1  0
 18 19  1  0
 19 20  1  0
 20 21  1  0
 22 21  1  6
 22 23  1  0
 22 24  1  0
 23 13  1  0
 24 31  1  0
 24 25  2  0
 27 26  1  0
 28 27  1  0
 28 29  1  6
 30 28  1  0
 30 31  1  6
 32 33  1  0
 32 30  1  0
 34 32  2  0
M  END
$$$$
