WRI.pdb
     RDKit          3D

 34 35  0  0  1  0  0  0  0  0999 V2000
    5.9387  -17.9619   25.0463 N   0  0  0  0  0  0  0  0  0  0  0  0
    6.8646  -16.9559   24.5964 C   0  0  1  0  0  0  0  0  0  0  0  0
    7.1748  -16.0074   25.7015 C   0  0  0  0  0  0  0  0  0  0  0  0
    6.2696  -14.8599   25.8346 C   0  0  0  0  0  0  0  0  0  0  0  0
    5.0044  -14.8944   26.4475 C   0  0  0  0  0  0  0  0  0  0  0  0
    4.4810  -13.6845   26.4172 N   0  0  0  0  0  0  0  0  0  0  0  0
    5.2977  -12.7982   25.8207 C   0  0  0  0  0  0  0  0  0  0  0  0
    5.1895  -11.4546   25.5536 C   0  0  0  0  0  0  0  0  0  0  0  0
    6.2179  -10.8187   24.9051 C   0  0  0  0  0  0  0  0  0  0  0  0
    7.3494  -11.5239   24.5252 C   0  0  0  0  0  0  0  0  0  0  0  0
    7.4257  -12.8716   24.8090 C   0  0  0  0  0  0  0  0  0  0  0  0
    6.4265  -13.5463   25.4539 C   0  0  0  0  0  0  0  0  0  0  0  0
    8.0979  -17.6448   24.0891 C   0  0  0  0  0  0  0  0  0  0  0  0
    8.5734  -18.6394   24.7406 O   0  0  0  0  0  0  0  0  0  0  0  0
    8.0660  -13.9847   17.6131 N   0  0  0  0  0  0  0  0  0  0  0  0
    8.7867  -13.4361   18.7056 C   0  0  0  0  0  0  0  0  0  0  0  0
    8.5905  -12.2213   19.0868 N   0  0  0  0  0  0  0  0  0  0  0  0
    9.7583  -14.1881   19.4368 N   0  0  0  0  0  0  0  0  0  0  0  0
    9.7450  -15.6300   19.3746 C   0  0  0  0  0  0  0  0  0  0  0  0
    9.3333  -16.2570   20.6830 C   0  0  0  0  0  0  0  0  0  0  0  0
   10.6032  -16.6169   21.4377 C   0  0  0  0  0  0  0  0  0  0  0  0
   10.1995  -17.2647   22.7157 C   0  0  2  0  0  0  0  0  0  0  0  0
    8.7842  -17.2530   22.9074 N   0  0  0  0  0  0  0  0  0  0  0  0
   10.8999  -16.7395   23.9188 C   0  0  0  0  0  0  0  0  0  0  0  0
   11.4104  -15.5984   23.8586 O   0  0  0  0  0  0  0  0  0  0  0  0
    9.1078  -11.8544   19.8972 C   0  0  0  0  0  0  0  0  0  0  0  0
   11.1400  -13.7461   28.3507 C   0  0  0  0  0  0  0  0  0  0  0  0
   11.7692  -15.0686   28.0079 C   0  0  2  0  0  0  0  0  0  0  0  0
   11.1341  -15.6455   26.7927 C   0  0  0  0  0  0  0  0  0  0  0  0
    9.6585  -15.8950   27.1418 C   0  0  2  0  0  0  0  0  0  0  0  0
   11.6800  -16.9482   26.3204 N   0  0  0  0  0  0  0  0  0  0  0  0
   11.0260  -17.4478   25.1274 C   0  0  0  0  0  0  0  0  0  0  0  0
   11.8259  -17.9879   27.3553 O   0  0  0  0  0  0  0  0  0  0  0  0
   11.2095  -19.2402   27.2661 O   0  0  0  0  0  0  0  0  0  0  0  0
  2  1  1  1
  3  2  1  0
  4  3  1  0
  5  4  2  0
  6  5  1  0
  7  6  1  0
  7 12  2  0
  8  7  1  0
  9  8  2  0
  9 10  1  0
 10 11  2  0
 11 12  1  0
 12  4  1  0
 13 14  2  0
 13  2  1  0
 16 17  2  0
 16 15  1  0
 18 16  1  0
 18 19  1  0
 19 20  1  0
 20 21  1  0
 22 21  1  6
 22 23  1  0
 22 24  1  0
 23 13  1  0
 24 31  1  0
 24 25  2  0
 27 26  1  0
 28 27  1  0
 28 29  1  6
 30 28  1  0
 30 31  1  1
 32 33  1  0
 32 30  1  0
 34 32  2  0
M  END
$$$$
