WRI.pdb
     RDKit          3D

 34 35  0  0  1  0  0  0  0  0999 V2000
    5.8403  -17.7275   24.6342 N   0  0  0  0  0  0  0  0  0  0  0  0
    6.8000  -16.6675   24.4698 C   0  0  1  0  0  0  0  0  0  0  0  0
    7.1586  -16.0849   25.7924 C   0  0  0  0  0  0  0  0  0  0  0  0
    6.3924  -14.9016   26.2006 C   0  0  0  0  0  0  0  0  0  0  0  0
    5.2486  -14.9211   27.0185 C   0  0  0  0  0  0  0  0  0  0  0  0
    4.8357  -13.6830   27.2065 N   0  0  0  0  0  0  0  0  0  0  0  0
    5.6166  -12.7908   26.5719 C   0  0  0  0  0  0  0  0  0  0  0  0
    5.5839  -11.4208   26.4693 C   0  0  0  0  0  0  0  0  0  0  0  0
    6.5420  -10.7851   25.7207 C   0  0  0  0  0  0  0  0  0  0  0  0
    7.5283  -11.5167   25.0773 C   0  0  0  0  0  0  0  0  0  0  0  0
    7.5320  -12.8905   25.2014 C   0  0  0  0  0  0  0  0  0  0  0  0
    6.5985  -13.5663   25.9373 C   0  0  0  0  0  0  0  0  0  0  0  0
    8.0001  -17.2253   23.7615 C   0  0  0  0  0  0  0  0  0  0  0  0
    8.3977  -18.4104   24.0396 O   0  0  0  0  0  0  0  0  0  0  0  0
    9.1924  -12.6475   17.5385 N   0  0  0  0  0  0  0  0  0  0  0  0
    8.7479  -13.9727   17.2932 C   0  0  0  0  0  0  0  0  0  0  0  0
    8.1153  -14.2707   16.2113 N   0  0  0  0  0  0  0  0  0  0  0  0
    8.9730  -15.0392   18.2185 N   0  0  0  0  0  0  0  0  0  0  0  0
    9.5328  -14.7555   19.5181 C   0  0  0  0  0  0  0  0  0  0  0  0
    9.8457  -16.0101   20.2944 C   0  0  0  0  0  0  0  0  0  0  0  0
   10.6110  -15.5977   21.5417 C   0  0  0  0  0  0  0  0  0  0  0  0
   10.1596  -16.4737   22.6575 C   0  0  2  0  0  0  0  0  0  0  0  0
    8.7372  -16.5047   22.7826 N   0  0  0  0  0  0  0  0  0  0  0  0
   10.7990  -16.1779   23.9681 C   0  0  0  0  0  0  0  0  0  0  0  0
   11.4382  -15.1088   24.0897 O   0  0  0  0  0  0  0  0  0  0  0  0
    7.8368  -15.2463   16.0393 C   0  0  0  0  0  0  0  0  0  0  0  0
    9.6274  -13.4667   27.5255 C   0  0  0  0  0  0  0  0  0  0  0  0
   10.5667  -14.3276   26.7261 C   0  0  2  0  0  0  0  0  0  0  0  0
   10.4708  -15.7458   27.1650 C   0  0  0  0  0  0  0  0  0  0  0  0
   10.9894  -15.7967   28.6107 C   0  0  2  0  0  0  0  0  0  0  0  0
   11.2803  -16.7295   26.3936 N   0  0  0  0  0  0  0  0  0  0  0  0
   10.7306  -17.0282   25.0863 C   0  0  0  0  0  0  0  0  0  0  0  0
   11.6688  -17.9470   27.1286 O   0  0  0  0  0  0  0  0  0  0  0  0
   12.5609  -17.9318   28.2057 O   0  0  0  0  0  0  0  0  0  0  0  0
  2  1  1  1
  3  2  1  0
  4  3  1  0
  5  4  2  0
  6  5  1  0
  7  6  1  0
  7 12  2  0
  8  7  1  0
  9  8  2  0
  9 10  1  0
 10 11  2  0
 11 12  1  0
 12  4  1  0
 13 14  2  0
 13  2  1  0
 16 17  2  0
 16 15  1  0
 18 16  1  0
 18 19  1  0
 19 20  1  0
 20 21  1  0
 22 21  1  6
 22 23  1  0
 22 24  1  0
 23 13  1  0
 24 31  1  0
 24 25  2  0
 27 26  1  0
 28 27  1  0
 28 29  1  6
 30 28  1  0
 30 31  1  6
 32 33  1  0
 32 30  1  0
 34 32  2  0
M  END
$$$$
