WRI.pdb
     RDKit          3D

 34 35  0  0  1  0  0  0  0  0999 V2000
    7.5357  -17.3869   20.1013 N   0  0  0  0  0  0  0  0  0  0  0  0
    7.9863  -16.4468   21.0937 C   0  0  1  0  0  0  0  0  0  0  0  0
    6.8885  -15.5064   21.4512 C   0  0  0  0  0  0  0  0  0  0  0  0
    7.3075  -14.2019   21.9771 C   0  0  0  0  0  0  0  0  0  0  0  0
    7.8817  -13.1691   21.2148 C   0  0  0  0  0  0  0  0  0  0  0  0
    8.1055  -12.1324   21.9984 N   0  0  0  0  0  0  0  0  0  0  0  0
    7.7255  -12.3694   23.2664 C   0  0  0  0  0  0  0  0  0  0  0  0
    7.7642  -11.6147   24.4142 C   0  0  0  0  0  0  0  0  0  0  0  0
    7.2966  -12.1567   25.5847 C   0  0  0  0  0  0  0  0  0  0  0  0
    6.7928  -13.4481   25.6070 C   0  0  0  0  0  0  0  0  0  0  0  0
    6.7684  -14.1781   24.4368 C   0  0  0  0  0  0  0  0  0  0  0  0
    7.2223  -13.6789   23.2475 C   0  0  0  0  0  0  0  0  0  0  0  0
    8.4713  -17.2181   22.2864 C   0  0  0  0  0  0  0  0  0  0  0  0
    7.7003  -18.0851   22.8284 O   0  0  0  0  0  0  0  0  0  0  0  0
   12.9423  -17.9983   19.9479 N   0  0  0  0  0  0  0  0  0  0  0  0
   12.6910  -19.3708   19.6892 C   0  0  0  0  0  0  0  0  0  0  0  0
   12.5764  -19.8085   18.4830 N   0  0  0  0  0  0  0  0  0  0  0  0
   12.5525  -20.3343   20.7364 N   0  0  0  0  0  0  0  0  0  0  0  0
   12.4850  -19.8965   22.1100 C   0  0  0  0  0  0  0  0  0  0  0  0
   11.3376  -18.9487   22.3544 C   0  0  0  0  0  0  0  0  0  0  0  0
   11.3370  -18.6028   23.8349 C   0  0  0  0  0  0  0  0  0  0  0  0
   10.2261  -17.6407   24.0724 C   0  0  2  0  0  0  0  0  0  0  0  0
    9.7587  -17.0414   22.8631 N   0  0  0  0  0  0  0  0  0  0  0  0
   10.5209  -16.6026   25.0968 C   0  0  0  0  0  0  0  0  0  0  0  0
   11.3248  -15.6894   24.8034 O   0  0  0  0  0  0  0  0  0  0  0  0
   12.3457  -20.7985   18.3228 C   0  0  0  0  0  0  0  0  0  0  0  0
    8.8156  -12.5686   27.3753 C   0  0  0  0  0  0  0  0  0  0  0  0
    9.8183  -13.6130   26.9676 C   0  0  2  0  0  0  0  0  0  0  0  0
    9.8608  -14.7106   27.9708 C   0  0  0  0  0  0  0  0  0  0  0  0
   10.6429  -14.1738   29.1798 C   0  0  2  0  0  0  0  0  0  0  0  0
   10.5483  -15.9622   27.5480 N   0  0  0  0  0  0  0  0  0  0  0  0
    9.9504  -16.5817   26.3822 C   0  0  0  0  0  0  0  0  0  0  0  0
   10.8143  -16.9346   28.6237 O   0  0  0  0  0  0  0  0  0  0  0  0
   11.7599  -16.7139   29.6303 O   0  0  0  0  0  0  0  0  0  0  0  0
  2  1  1  6
  3  2  1  0
  4  3  1  0
  5  4  2  0
  6  5  1  0
  7  6  1  0
  7 12  2  0
  8  7  1  0
  9  8  2  0
  9 10  1  0
 10 11  2  0
 11 12  1  0
 12  4  1  0
 13 14  2  0
 13  2  1  0
 16 17  2  0
 16 15  1  0
 18 16  1  0
 18 19  1  0
 19 20  1  0
 20 21  1  0
 22 21  1  6
 22 23  1  0
 22 24  1  0
 23 13  1  0
 24 31  1  0
 24 25  2  0
 27 26  1  0
 28 27  1  0
 28 29  1  1
 30 28  1  0
 30 31  1  6
 32 33  1  0
 32 30  1  0
 34 32  2  0
M  END
$$$$
