WRI.pdb
     RDKit          3D

 34 35  0  0  1  0  0  0  0  0999 V2000
    9.9162  -16.6817   21.0322 N   0  0  0  0  0  0  0  0  0  0  0  0
    8.9646  -15.9991   21.8691 C   0  0  1  0  0  0  0  0  0  0  0  0
    7.6116  -16.0340   21.2483 C   0  0  0  0  0  0  0  0  0  0  0  0
    7.4376  -15.2139   20.0436 C   0  0  0  0  0  0  0  0  0  0  0  0
    7.0119  -15.6945   18.7925 C   0  0  0  0  0  0  0  0  0  0  0  0
    6.9377  -14.6840   17.9486 N   0  0  0  0  0  0  0  0  0  0  0  0
    7.2850  -13.5202   18.5260 C   0  0  0  0  0  0  0  0  0  0  0  0
    7.3678  -12.2298   18.0607 C   0  0  0  0  0  0  0  0  0  0  0  0
    7.7737  -11.2372   18.9165 C   0  0  0  0  0  0  0  0  0  0  0  0
    8.0955  -11.5341   20.2318 C   0  0  0  0  0  0  0  0  0  0  0  0
    8.0011  -12.8399   20.6664 C   0  0  0  0  0  0  0  0  0  0  0  0
    7.6005  -13.8608   19.8499 C   0  0  0  0  0  0  0  0  0  0  0  0
    8.9754  -16.6502   23.2214 C   0  0  0  0  0  0  0  0  0  0  0  0
    8.1268  -16.2759   24.1043 O   0  0  0  0  0  0  0  0  0  0  0  0
   10.5817  -23.5035   21.8125 N   0  0  0  0  0  0  0  0  0  0  0  0
   11.8739  -22.9677   22.0519 C   0  0  0  0  0  0  0  0  0  0  0  0
   12.8722  -23.2827   21.3011 N   0  0  0  0  0  0  0  0  0  0  0  0
   12.1397  -22.0602   23.1242 N   0  0  0  0  0  0  0  0  0  0  0  0
   11.0672  -21.6472   23.9973 C   0  0  0  0  0  0  0  0  0  0  0  0
   10.6071  -20.2391   23.7146 C   0  0  0  0  0  0  0  0  0  0  0  0
   10.9686  -19.3883   24.9217 C   0  0  0  0  0  0  0  0  0  0  0  0
   10.0870  -18.1889   24.9079 C   0  0  2  0  0  0  0  0  0  0  0  0
    9.8880  -17.6761   23.5898 N   0  0  0  0  0  0  0  0  0  0  0  0
   10.5077  -17.1064   25.8380 C   0  0  0  0  0  0  0  0  0  0  0  0
   11.5857  -16.5128   25.6103 O   0  0  0  0  0  0  0  0  0  0  0  0
   13.8113  -22.9314   21.5327 C   0  0  0  0  0  0  0  0  0  0  0  0
    7.6358  -12.9594   26.9910 C   0  0  0  0  0  0  0  0  0  0  0  0
    8.7722  -13.9141   26.7472 C   0  0  2  0  0  0  0  0  0  0  0  0
    9.1849  -14.5648   28.0197 C   0  0  0  0  0  0  0  0  0  0  0  0
    9.8575  -13.4783   28.8733 C   0  0  2  0  0  0  0  0  0  0  0  0
   10.1698  -15.6756   27.9015 N   0  0  0  0  0  0  0  0  0  0  0  0
    9.7668  -16.7048   26.9641 C   0  0  0  0  0  0  0  0  0  0  0  0
   10.6487  -16.2377   29.1775 O   0  0  0  0  0  0  0  0  0  0  0  0
   10.4916  -17.5844   29.5207 O   0  0  0  0  0  0  0  0  0  0  0  0
  2  1  1  6
  3  2  1  0
  4  3  1  0
  5  4  2  0
  6  5  1  0
  7  6  1  0
  7 12  2  0
  8  7  1  0
  9  8  2  0
  9 10  1  0
 10 11  2  0
 11 12  1  0
 12  4  1  0
 13 14  2  0
 13  2  1  0
 16 17  2  0
 16 15  1  0
 18 16  1  0
 18 19  1  0
 19 20  1  0
 20 21  1  0
 22 21  1  6
 22 23  1  0
 22 24  1  0
 23 13  1  0
 24 31  1  0
 24 25  2  0
 27 26  1  0
 28 27  1  0
 28 29  1  1
 30 28  1  0
 30 31  1  6
 32 33  1  0
 32 30  1  0
 34 32  2  0
M  END
$$$$
