WRI.pdb
     RDKit          3D

 34 35  0  0  1  0  0  0  0  0999 V2000
    5.9589  -17.2649   24.2536 N   0  0  0  0  0  0  0  0  0  0  0  0
    7.1168  -16.4116   24.2003 C   0  0  1  0  0  0  0  0  0  0  0  0
    7.3049  -15.7134   25.5020 C   0  0  0  0  0  0  0  0  0  0  0  0
    6.4177  -14.5711   25.7510 C   0  0  0  0  0  0  0  0  0  0  0  0
    5.1357  -14.6522   26.3231 C   0  0  0  0  0  0  0  0  0  0  0  0
    4.6358  -13.4365   26.4273 N   0  0  0  0  0  0  0  0  0  0  0  0
    5.4849  -12.5024   25.9638 C   0  0  0  0  0  0  0  0  0  0  0  0
    5.4090  -11.1342   25.8596 C   0  0  0  0  0  0  0  0  0  0  0  0
    6.4665  -10.4469   25.3195 C   0  0  0  0  0  0  0  0  0  0  0  0
    7.5948  -11.1252   24.8852 C   0  0  0  0  0  0  0  0  0  0  0  0
    7.6383  -12.4988   25.0046 C   0  0  0  0  0  0  0  0  0  0  0  0
    6.6094  -13.2248   25.5372 C   0  0  0  0  0  0  0  0  0  0  0  0
    8.3059  -17.2542   23.8416 C   0  0  0  0  0  0  0  0  0  0  0  0
    8.4450  -18.4058   24.3842 O   0  0  0  0  0  0  0  0  0  0  0  0
   11.9677  -16.2944   17.4418 N   0  0  0  0  0  0  0  0  0  0  0  0
   11.3256  -17.5591   17.4879 C   0  0  0  0  0  0  0  0  0  0  0  0
   10.6495  -17.9970   16.4826 N   0  0  0  0  0  0  0  0  0  0  0  0
   11.3905  -18.4092   18.6357 N   0  0  0  0  0  0  0  0  0  0  0  0
   11.8792  -17.8865   19.8891 C   0  0  0  0  0  0  0  0  0  0  0  0
   10.8410  -17.0655   20.6121 C   0  0  0  0  0  0  0  0  0  0  0  0
   11.4795  -16.5415   21.8886 C   0  0  0  0  0  0  0  0  0  0  0  0
   10.7087  -17.0924   23.0369 C   0  0  2  0  0  0  0  0  0  0  0  0
    9.3071  -16.8443   22.9194 N   0  0  0  0  0  0  0  0  0  0  0  0
   11.2100  -16.6697   24.3726 C   0  0  0  0  0  0  0  0  0  0  0  0
   11.5417  -15.4735   24.5317 O   0  0  0  0  0  0  0  0  0  0  0  0
   10.1882  -18.9149   16.5430 C   0  0  0  0  0  0  0  0  0  0  0  0
   11.4586  -13.3983   27.4178 C   0  0  0  0  0  0  0  0  0  0  0  0
   12.0724  -14.6365   26.8240 C   0  0  2  0  0  0  0  0  0  0  0  0
   11.3242  -15.8462   27.2595 C   0  0  0  0  0  0  0  0  0  0  0  0
   11.4054  -15.8872   28.7935 C   0  0  2  0  0  0  0  0  0  0  0  0
   11.8486  -17.1537   26.7762 N   0  0  0  0  0  0  0  0  0  0  0  0
   11.3359  -17.5340   25.4750 C   0  0  0  0  0  0  0  0  0  0  0  0
   11.7858  -18.2609   27.7475 O   0  0  0  0  0  0  0  0  0  0  0  0
   12.6806  -18.3863   28.8151 O   0  0  0  0  0  0  0  0  0  0  0  0
  2  1  1  1
  3  2  1  0
  4  3  1  0
  5  4  2  0
  6  5  1  0
  7  6  1  0
  7 12  2  0
  8  7  1  0
  9  8  2  0
  9 10  1  0
 10 11  2  0
 11 12  1  0
 12  4  1  0
 13 14  2  0
 13  2  1  0
 16 17  2  0
 16 15  1  0
 18 16  1  0
 18 19  1  0
 19 20  1  0
 20 21  1  0
 22 21  1  6
 22 23  1  0
 22 24  1  0
 23 13  1  0
 24 31  1  0
 24 25  2  0
 27 26  1  0
 28 27  1  0
 28 29  1  6
 30 28  1  0
 30 31  1  1
 32 33  1  0
 32 30  1  0
 34 32  2  0
M  END
$$$$
