WRI.pdb
     RDKit          3D

 34 35  0  0  1  0  0  0  0  0999 V2000
    6.3573  -18.4710   24.9273 N   0  0  0  0  0  0  0  0  0  0  0  0
    6.6210  -17.1216   24.5017 C   0  0  1  0  0  0  0  0  0  0  0  0
    7.2175  -16.3349   25.6164 C   0  0  0  0  0  0  0  0  0  0  0  0
    6.3494  -15.3162   26.2185 C   0  0  0  0  0  0  0  0  0  0  0  0
    5.2612  -15.5807   27.0689 C   0  0  0  0  0  0  0  0  0  0  0  0
    4.7257  -14.4367   27.4473 N   0  0  0  0  0  0  0  0  0  0  0  0
    5.3679  -13.3811   26.9165 C   0  0  0  0  0  0  0  0  0  0  0  0
    5.1793  -12.0232   27.0114 C   0  0  0  0  0  0  0  0  0  0  0  0
    6.0193  -11.1837   26.3244 C   0  0  0  0  0  0  0  0  0  0  0  0
    7.0433  -11.7002   25.5456 C   0  0  0  0  0  0  0  0  0  0  0  0
    7.2048  -13.0682   25.4725 C   0  0  0  0  0  0  0  0  0  0  0  0
    6.3929  -13.9425   26.1403 C   0  0  0  0  0  0  0  0  0  0  0  0
    7.5284  -17.1740   23.3072 C   0  0  0  0  0  0  0  0  0  0  0  0
    8.4081  -18.1012   23.2282 O   0  0  0  0  0  0  0  0  0  0  0  0
   10.1032  -14.7710   16.7204 N   0  0  0  0  0  0  0  0  0  0  0  0
    8.7958  -14.2212   16.6694 C   0  0  0  0  0  0  0  0  0  0  0  0
    8.0248  -14.4358   15.6599 N   0  0  0  0  0  0  0  0  0  0  0  0
    8.2653  -13.4093   17.7198 N   0  0  0  0  0  0  0  0  0  0  0  0
    9.0734  -13.1182   18.8797 C   0  0  0  0  0  0  0  0  0  0  0  0
    9.3998  -14.3562   19.6769 C   0  0  0  0  0  0  0  0  0  0  0  0
    8.2693  -14.5720   20.6704 C   0  0  0  0  0  0  0  0  0  0  0  0
    8.5728  -15.8124   21.4357 C   0  0  2  0  0  0  0  0  0  0  0  0
    7.4708  -16.2390   22.2379 N   0  0  0  0  0  0  0  0  0  0  0  0
    9.8202  -15.7458   22.2440 C   0  0  0  0  0  0  0  0  0  0  0  0
   10.9179  -15.7337   21.6430 O   0  0  0  0  0  0  0  0  0  0  0  0
    7.0685  -14.0558   15.6627 C   0  0  0  0  0  0  0  0  0  0  0  0
   11.5335  -14.0858   27.9656 C   0  0  0  0  0  0  0  0  0  0  0  0
   11.9524  -14.7205   26.6679 C   0  0  2  0  0  0  0  0  0  0  0  0
   10.7635  -14.9936   25.8165 C   0  0  0  0  0  0  0  0  0  0  0  0
    9.9348  -16.0630   26.5454 C   0  0  2  0  0  0  0  0  0  0  0  0
   11.0384  -15.5311   24.4551 N   0  0  0  0  0  0  0  0  0  0  0  0
    9.8451  -15.6954   23.6493 C   0  0  0  0  0  0  0  0  0  0  0  0
   11.9144  -16.7158   24.4055 O   0  0  0  0  0  0  0  0  0  0  0  0
   11.5413  -17.9106   23.7813 O   0  0  0  0  0  0  0  0  0  0  0  0
  2  1  1  1
  3  2  1  0
  4  3  1  0
  5  4  2  0
  6  5  1  0
  7  6  1  0
  7 12  2  0
  8  7  1  0
  9  8  2  0
  9 10  1  0
 10 11  2  0
 11 12  1  0
 12  4  1  0
 13 14  2  0
 13  2  1  0
 16 17  2  0
 16 15  1  0
 18 16  1  0
 18 19  1  0
 19 20  1  0
 20 21  1  0
 22 21  1  1
 22 23  1  0
 22 24  1  0
 23 13  1  0
 24 31  1  0
 24 25  2  0
 27 26  1  0
 28 27  1  0
 28 29  1  6
 30 28  1  0
 30 31  1  6
 32 33  1  0
 32 30  1  0
 34 32  2  0
M  END
$$$$
