WRI.pdb
     RDKit          3D

 34 35  0  0  1  0  0  0  0  0999 V2000
    5.9475  -17.1858   24.6276 N   0  0  0  0  0  0  0  0  0  0  0  0
    7.1618  -16.5012   24.2693 C   0  0  1  0  0  0  0  0  0  0  0  0
    7.3187  -15.2653   25.0848 C   0  0  0  0  0  0  0  0  0  0  0  0
    6.7034  -14.0517   24.5347 C   0  0  0  0  0  0  0  0  0  0  0  0
    5.7681  -13.2436   25.2054 C   0  0  0  0  0  0  0  0  0  0  0  0
    5.4507  -12.2241   24.4317 N   0  0  0  0  0  0  0  0  0  0  0  0
    6.1033  -12.2625   23.2565 C   0  0  0  0  0  0  0  0  0  0  0  0
    6.0970  -11.4442   22.1525 C   0  0  0  0  0  0  0  0  0  0  0  0
    6.8882  -11.7667   21.0790 C   0  0  0  0  0  0  0  0  0  0  0  0
    7.6820  -12.9028   21.1096 C   0  0  0  0  0  0  0  0  0  0  0  0
    7.6648  -13.7022   22.2336 C   0  0  0  0  0  0  0  0  0  0  0  0
    6.8933  -13.4198   23.3266 C   0  0  0  0  0  0  0  0  0  0  0  0
    8.3103  -17.4478   24.4634 C   0  0  0  0  0  0  0  0  0  0  0  0
    8.2714  -18.2918   25.4257 O   0  0  0  0  0  0  0  0  0  0  0  0
   11.5014  -16.9336   17.6806 N   0  0  0  0  0  0  0  0  0  0  0  0
   11.9960  -17.5579   18.8552 C   0  0  0  0  0  0  0  0  0  0  0  0
   13.0271  -18.3289   18.8127 N   0  0  0  0  0  0  0  0  0  0  0  0
   11.3882  -17.3703   20.1356 N   0  0  0  0  0  0  0  0  0  0  0  0
   10.6358  -18.4449   20.7372 C   0  0  0  0  0  0  0  0  0  0  0  0
   11.3433  -19.0455   21.9260 C   0  0  0  0  0  0  0  0  0  0  0  0
   11.7169  -17.9055   22.8601 C   0  0  0  0  0  0  0  0  0  0  0  0
   10.7608  -17.9262   24.0010 C   0  0  2  0  0  0  0  0  0  0  0  0
    9.4612  -17.4650   23.6291 N   0  0  0  0  0  0  0  0  0  0  0  0
   11.2429  -17.2213   25.2194 C   0  0  0  0  0  0  0  0  0  0  0  0
   11.9126  -16.1740   25.0744 O   0  0  0  0  0  0  0  0  0  0  0  0
   13.3372  -18.8083   19.6689 C   0  0  0  0  0  0  0  0  0  0  0  0
   10.1907  -13.4258   27.6162 C   0  0  0  0  0  0  0  0  0  0  0  0
   11.0593  -14.5871   27.2169 C   0  0  2  0  0  0  0  0  0  0  0  0
   10.7797  -15.7650   28.0814 C   0  0  0  0  0  0  0  0  0  0  0  0
   11.2314  -15.3880   29.5010 C   0  0  2  0  0  0  0  0  0  0  0  0
   11.4974  -17.0225   27.7324 N   0  0  0  0  0  0  0  0  0  0  0  0
   10.9926  -17.6592   26.5324 C   0  0  0  0  0  0  0  0  0  0  0  0
   11.6771  -17.9789   28.8398 O   0  0  0  0  0  0  0  0  0  0  0  0
   12.5650  -17.7578   29.8977 O   0  0  0  0  0  0  0  0  0  0  0  0
  2  1  1  1
  3  2  1  0
  4  3  1  0
  5  4  2  0
  6  5  1  0
  7  6  1  0
  7 12  2  0
  8  7  1  0
  9  8  2  0
  9 10  1  0
 10 11  2  0
 11 12  1  0
 12  4  1  0
 13 14  2  0
 13  2  1  0
 16 17  2  0
 16 15  1  0
 18 16  1  0
 18 19  1  0
 19 20  1  0
 20 21  1  0
 22 21  1  6
 22 23  1  0
 22 24  1  0
 23 13  1  0
 24 31  1  0
 24 25  2  0
 27 26  1  0
 28 27  1  0
 28 29  1  6
 30 28  1  0
 30 31  1  6
 32 33  1  0
 32 30  1  0
 34 32  2  0
M  END
$$$$
