WRI.pdb
     RDKit          3D

 34 35  0  0  1  0  0  0  0  0999 V2000
    7.1405  -19.3748   20.4482 N   0  0  0  0  0  0  0  0  0  0  0  0
    7.5541  -18.1220   21.0236 C   0  0  1  0  0  0  0  0  0  0  0  0
    6.3856  -17.2115   21.1746 C   0  0  0  0  0  0  0  0  0  0  0  0
    6.6847  -15.8600   21.6624 C   0  0  0  0  0  0  0  0  0  0  0  0
    6.4331  -15.3964   22.9659 C   0  0  0  0  0  0  0  0  0  0  0  0
    6.8521  -14.1501   23.0653 N   0  0  0  0  0  0  0  0  0  0  0  0
    7.3833  -13.7049   21.9129 C   0  0  0  0  0  0  0  0  0  0  0  0
    7.9324  -12.5031   21.5353 C   0  0  0  0  0  0  0  0  0  0  0  0
    8.3906  -12.3536   20.2507 C   0  0  0  0  0  0  0  0  0  0  0  0
    8.2995  -13.4016   19.3477 C   0  0  0  0  0  0  0  0  0  0  0  0
    7.7430  -14.5946   19.7597 C   0  0  0  0  0  0  0  0  0  0  0  0
    7.2746  -14.7893   21.0294 C   0  0  0  0  0  0  0  0  0  0  0  0
    8.2153  -18.4050   22.3410 C   0  0  0  0  0  0  0  0  0  0  0  0
    8.1280  -19.5780   22.8473 O   0  0  0  0  0  0  0  0  0  0  0  0
   15.0043  -17.6547   18.6622 N   0  0  0  0  0  0  0  0  0  0  0  0
   14.0431  -18.3155   19.4707 C   0  0  0  0  0  0  0  0  0  0  0  0
   13.4284  -19.3651   19.0465 N   0  0  0  0  0  0  0  0  0  0  0  0
   13.7057  -17.8620   20.7839 N   0  0  0  0  0  0  0  0  0  0  0  0
   12.7507  -18.6004   21.5748 C   0  0  0  0  0  0  0  0  0  0  0  0
   11.7984  -17.6960   22.3163 C   0  0  0  0  0  0  0  0  0  0  0  0
   11.0824  -18.5408   23.3581 C   0  0  0  0  0  0  0  0  0  0  0  0
   10.0244  -17.6944   23.9749 C   0  0  2  0  0  0  0  0  0  0  0  0
    8.9460  -17.4319   23.0760 N   0  0  0  0  0  0  0  0  0  0  0  0
   10.5246  -16.4318   24.5829 C   0  0  0  0  0  0  0  0  0  0  0  0
   11.7325  -16.3641   24.9032 O   0  0  0  0  0  0  0  0  0  0  0  0
   12.7218  -19.8150   19.6443 C   0  0  0  0  0  0  0  0  0  0  0  0
    7.0972  -12.0239   27.2723 C   0  0  0  0  0  0  0  0  0  0  0  0
    8.0167  -13.1930   27.4960 C   0  0  2  0  0  0  0  0  0  0  0  0
    8.2459  -13.9239   26.2208 C   0  0  0  0  0  0  0  0  0  0  0  0
    7.1176  -14.9598   26.0967 C   0  0  2  0  0  0  0  0  0  0  0  0
    9.5243  -14.6808   26.1168 N   0  0  0  0  0  0  0  0  0  0  0  0
    9.7217  -15.3021   24.8224 C   0  0  0  0  0  0  0  0  0  0  0  0
    9.8069  -15.6052   27.2299 O   0  0  0  0  0  0  0  0  0  0  0  0
    9.1640  -16.8389   27.3745 O   0  0  0  0  0  0  0  0  0  0  0  0
  2  1  1  1
  3  2  1  0
  4  3  1  0
  5  4  2  0
  6  5  1  0
  7  6  1  0
  7 12  2  0
  8  7  1  0
  9  8  2  0
  9 10  1  0
 10 11  2  0
 11 12  1  0
 12  4  1  0
 13 14  2  0
 13  2  1  0
 16 17  2  0
 16 15  1  0
 18 16  1  0
 18 19  1  0
 19 20  1  0
 20 21  1  0
 22 21  1  6
 22 23  1  0
 22 24  1  0
 23 13  1  0
 24 31  1  0
 24 25  2  0
 27 26  1  0
 28 27  1  0
 28 29  1  6
 30 28  1  0
 30 31  1  1
 32 33  1  0
 32 30  1  0
 34 32  2  0
M  END
$$$$
