WRI.pdb
     RDKit          3D

 34 35  0  0  1  0  0  0  0  0999 V2000
    5.7142  -18.0685   24.9044 N   0  0  0  0  0  0  0  0  0  0  0  0
    6.6764  -17.0238   24.6710 C   0  0  1  0  0  0  0  0  0  0  0  0
    6.9026  -16.2412   25.9175 C   0  0  0  0  0  0  0  0  0  0  0  0
    6.2509  -14.9275   25.9769 C   0  0  0  0  0  0  0  0  0  0  0  0
    4.9900  -14.6750   26.5461 C   0  0  0  0  0  0  0  0  0  0  0  0
    4.7291  -13.3858   26.4535 N   0  0  0  0  0  0  0  0  0  0  0  0
    5.7270  -12.7127   25.8539 C   0  0  0  0  0  0  0  0  0  0  0  0
    5.9061  -11.3882   25.5344 C   0  0  0  0  0  0  0  0  0  0  0  0
    7.0607  -11.0057   24.8994 C   0  0  0  0  0  0  0  0  0  0  0  0
    8.0317  -11.9439   24.5853 C   0  0  0  0  0  0  0  0  0  0  0  0
    7.8201  -13.2652   24.9206 C   0  0  0  0  0  0  0  0  0  0  0  0
    6.6861  -13.6918   25.5543 C   0  0  0  0  0  0  0  0  0  0  0  0
    7.9430  -17.6542   24.1699 C   0  0  0  0  0  0  0  0  0  0  0  0
    8.3409  -18.7570   24.6851 O   0  0  0  0  0  0  0  0  0  0  0  0
    7.9190  -14.7198   18.5338 N   0  0  0  0  0  0  0  0  0  0  0  0
    8.6186  -13.6260   19.1066 C   0  0  0  0  0  0  0  0  0  0  0  0
    8.0757  -12.4606   19.1880 N   0  0  0  0  0  0  0  0  0  0  0  0
    9.9473  -13.7513   19.6196 N   0  0  0  0  0  0  0  0  0  0  0  0
   10.4596  -15.0529   19.9747 C   0  0  0  0  0  0  0  0  0  0  0  0
   10.0382  -15.4772   21.3593 C   0  0  0  0  0  0  0  0  0  0  0  0
   10.6068  -16.8657   21.6054 C   0  0  0  0  0  0  0  0  0  0  0  0
   10.1420  -17.3114   22.9476 C   0  0  2  0  0  0  0  0  0  0  0  0
    8.7439  -17.0911   23.1392 N   0  0  0  0  0  0  0  0  0  0  0  0
   10.9251  -16.7562   24.0845 C   0  0  0  0  0  0  0  0  0  0  0  0
   11.2847  -15.5587   24.0299 O   0  0  0  0  0  0  0  0  0  0  0  0
    8.6290  -11.6669   19.5387 C   0  0  0  0  0  0  0  0  0  0  0  0
    9.1773  -14.0550   27.5784 C   0  0  0  0  0  0  0  0  0  0  0  0
   10.4207  -14.6938   27.0232 C   0  0  2  0  0  0  0  0  0  0  0  0
   10.2945  -16.1759   27.0411 C   0  0  0  0  0  0  0  0  0  0  0  0
   10.0917  -16.5842   28.5087 C   0  0  2  0  0  0  0  0  0  0  0  0
   11.4735  -16.9427   26.5511 N   0  0  0  0  0  0  0  0  0  0  0  0
   11.2894  -17.4956   25.2241 C   0  0  0  0  0  0  0  0  0  0  0  0
   12.0264  -17.9295   27.4965 O   0  0  0  0  0  0  0  0  0  0  0  0
   12.1666  -19.2855   27.1835 O   0  0  0  0  0  0  0  0  0  0  0  0
  2  1  1  1
  3  2  1  0
  4  3  1  0
  5  4  2  0
  6  5  1  0
  7  6  1  0
  7 12  2  0
  8  7  1  0
  9  8  2  0
  9 10  1  0
 10 11  2  0
 11 12  1  0
 12  4  1  0
 13 14  2  0
 13  2  1  0
 16 17  2  0
 16 15  1  0
 18 16  1  0
 18 19  1  0
 19 20  1  0
 20 21  1  0
 22 21  1  6
 22 23  1  0
 22 24  1  0
 23 13  1  0
 24 31  1  0
 24 25  2  0
 27 26  1  0
 28 27  1  0
 28 29  1  6
 30 28  1  0
 30 31  1  1
 32 33  1  0
 32 30  1  0
 34 32  2  0
M  END
$$$$
