WRI.pdb
     RDKit          3D

 34 35  0  0  1  0  0  0  0  0999 V2000
    6.1490  -18.5327   25.3095 N   0  0  0  0  0  0  0  0  0  0  0  0
    6.4039  -17.1470   25.0155 C   0  0  1  0  0  0  0  0  0  0  0  0
    6.9818  -16.4636   26.2056 C   0  0  0  0  0  0  0  0  0  0  0  0
    6.3378  -15.2044   26.5975 C   0  0  0  0  0  0  0  0  0  0  0  0
    5.0027  -15.0760   27.0201 C   0  0  0  0  0  0  0  0  0  0  0  0
    4.7688  -13.8138   27.3215 N   0  0  0  0  0  0  0  0  0  0  0  0
    5.8554  -13.0432   27.1375 C   0  0  0  0  0  0  0  0  0  0  0  0
    6.0928  -11.7002   27.3060 C   0  0  0  0  0  0  0  0  0  0  0  0
    7.3379  -11.2016   27.0165 C   0  0  0  0  0  0  0  0  0  0  0  0
    8.3409  -12.0429   26.5602 C   0  0  0  0  0  0  0  0  0  0  0  0
    8.0689  -13.3860   26.4026 C   0  0  0  0  0  0  0  0  0  0  0  0
    6.8441  -13.9270   26.6794 C   0  0  0  0  0  0  0  0  0  0  0  0
    7.3236  -17.0789   23.8312 C   0  0  0  0  0  0  0  0  0  0  0  0
    8.2177  -17.9829   23.6788 O   0  0  0  0  0  0  0  0  0  0  0  0
    9.6992  -15.4667   17.1131 N   0  0  0  0  0  0  0  0  0  0  0  0
    8.5850  -14.6425   16.8078 C   0  0  0  0  0  0  0  0  0  0  0  0
    8.1888  -14.4862   15.5920 N   0  0  0  0  0  0  0  0  0  0  0  0
    7.8476  -13.9476   17.8165 N   0  0  0  0  0  0  0  0  0  0  0  0
    8.5327  -13.4241   18.9738 C   0  0  0  0  0  0  0  0  0  0  0  0
    8.9578  -14.5107   19.9293 C   0  0  0  0  0  0  0  0  0  0  0  0
    7.9075  -14.5928   21.0256 C   0  0  0  0  0  0  0  0  0  0  0  0
    8.3145  -15.6788   21.9590 C   0  0  2  0  0  0  0  0  0  0  0  0
    7.2624  -16.0523   22.8497 N   0  0  0  0  0  0  0  0  0  0  0  0
    9.5700  -15.4054   22.7094 C   0  0  0  0  0  0  0  0  0  0  0  0
   10.2672  -14.4251   22.3644 O   0  0  0  0  0  0  0  0  0  0  0  0
    7.3612  -13.9057   15.3991 C   0  0  0  0  0  0  0  0  0  0  0  0
    9.7928  -14.2237   27.7661 C   0  0  0  0  0  0  0  0  0  0  0  0
   10.0371  -14.3843   26.2906 C   0  0  2  0  0  0  0  0  0  0  0  0
   10.8492  -15.6029   26.0291 C   0  0  0  0  0  0  0  0  0  0  0  0
   12.1870  -15.4071   26.7593 C   0  0  2  0  0  0  0  0  0  0  0  0
   11.1847  -15.8767   24.6041 N   0  0  0  0  0  0  0  0  0  0  0  0
   10.0264  -16.1832   23.7887 C   0  0  0  0  0  0  0  0  0  0  0  0
   12.2909  -16.8259   24.3837 O   0  0  0  0  0  0  0  0  0  0  0  0
   13.6371  -16.4598   24.4835 O   0  0  0  0  0  0  0  0  0  0  0  0
  2  1  1  1
  3  2  1  0
  4  3  1  0
  5  4  2  0
  6  5  1  0
  7  6  1  0
  7 12  2  0
  8  7  1  0
  9  8  2  0
  9 10  1  0
 10 11  2  0
 11 12  1  0
 12  4  1  0
 13 14  2  0
 13  2  1  0
 16 17  2  0
 16 15  1  0
 18 16  1  0
 18 19  1  0
 19 20  1  0
 20 21  1  0
 22 21  1  1
 22 23  1  0
 22 24  1  0
 23 13  1  0
 24 31  1  0
 24 25  2  0
 27 26  1  0
 28 27  1  0
 28 29  1  1
 30 28  1  0
 30 31  1  6
 32 33  1  0
 32 30  1  0
 34 32  2  0
M  END
$$$$
