WRI.pdb
     RDKit          3D

 34 35  0  0  1  0  0  0  0  0999 V2000
    6.2540  -17.8525   24.7610 N   0  0  0  0  0  0  0  0  0  0  0  0
    7.1243  -16.7547   24.4308 C   0  0  1  0  0  0  0  0  0  0  0  0
    7.3165  -15.8729   25.6151 C   0  0  0  0  0  0  0  0  0  0  0  0
    6.3851  -14.7447   25.7324 C   0  0  0  0  0  0  0  0  0  0  0  0
    5.0994  -14.8126   26.2981 C   0  0  0  0  0  0  0  0  0  0  0  0
    4.5543  -13.6123   26.2670 N   0  0  0  0  0  0  0  0  0  0  0  0
    5.3749  -12.7016   25.7142 C   0  0  0  0  0  0  0  0  0  0  0  0
    5.2506  -11.3562   25.4637 C   0  0  0  0  0  0  0  0  0  0  0  0
    6.2894  -10.6910   24.8629 C   0  0  0  0  0  0  0  0  0  0  0  0
    7.4473  -11.3688   24.5140 C   0  0  0  0  0  0  0  0  0  0  0  0
    7.5391  -12.7192   24.7800 C   0  0  0  0  0  0  0  0  0  0  0  0
    6.5304  -13.4226   25.3776 C   0  0  0  0  0  0  0  0  0  0  0  0
    8.4250  -17.3177   23.9368 C   0  0  0  0  0  0  0  0  0  0  0  0
    8.6837  -18.5575   24.1259 O   0  0  0  0  0  0  0  0  0  0  0  0
   13.7447  -13.4607   18.6566 N   0  0  0  0  0  0  0  0  0  0  0  0
   14.1246  -14.8276   18.6940 C   0  0  0  0  0  0  0  0  0  0  0  0
   15.0629  -15.2764   17.9340 N   0  0  0  0  0  0  0  0  0  0  0  0
   13.4978  -15.7727   19.5646 N   0  0  0  0  0  0  0  0  0  0  0  0
   13.5960  -15.6059   20.9948 C   0  0  0  0  0  0  0  0  0  0  0  0
   12.8102  -16.6488   21.7495 C   0  0  0  0  0  0  0  0  0  0  0  0
   11.4137  -16.0928   21.9783 C   0  0  0  0  0  0  0  0  0  0  0  0
   10.7623  -16.9277   23.0246 C   0  0  2  0  0  0  0  0  0  0  0  0
    9.4067  -16.5441   23.2596 N   0  0  0  0  0  0  0  0  0  0  0  0
   11.5176  -17.0094   24.3039 C   0  0  0  0  0  0  0  0  0  0  0  0
   12.6828  -17.4653   24.2781 O   0  0  0  0  0  0  0  0  0  0  0  0
   15.3247  -16.2704   17.9849 C   0  0  0  0  0  0  0  0  0  0  0  0
   10.0613  -14.1264   29.1182 C   0  0  0  0  0  0  0  0  0  0  0  0
   10.1234  -15.3469   28.2414 C   0  0  2  0  0  0  0  0  0  0  0  0
   11.4971  -15.5269   27.6997 C   0  0  0  0  0  0  0  0  0  0  0  0
   11.8029  -14.2839   26.8494 C   0  0  1  0  0  0  0  0  0  0  0  0
   11.7054  -16.7045   26.8121 N   0  0  0  0  0  0  0  0  0  0  0  0
   11.0028  -16.6043   25.5485 C   0  0  0  0  0  0  0  0  0  0  0  0
   11.5232  -18.0207   27.4507 O   0  0  0  0  0  0  0  0  0  0  0  0
   12.2401  -18.4214   28.5828 O   0  0  0  0  0  0  0  0  0  0  0  0
  2  1  1  1
  3  2  1  0
  4  3  1  0
  5  4  2  0
  6  5  1  0
  7  6  1  0
  7 12  2  0
  8  7  1  0
  9  8  2  0
  9 10  1  0
 10 11  2  0
 11 12  1  0
 12  4  1  0
 13 14  2  0
 13  2  1  0
 16 17  2  0
 16 15  1  0
 18 16  1  0
 18 19  1  0
 19 20  1  0
 20 21  1  0
 22 21  1  6
 22 23  1  0
 22 24  1  0
 23 13  1  0
 24 31  1  0
 24 25  2  0
 27 26  1  0
 28 27  1  0
 28 29  1  1
 30 28  1  0
 30 31  1  6
 32 33  1  0
 32 30  1  0
 34 32  2  0
M  END
$$$$
