WRI.pdb
     RDKit          3D

 34 35  0  0  1  0  0  0  0  0999 V2000
    6.0121  -18.6586   25.2135 N   0  0  0  0  0  0  0  0  0  0  0  0
    6.4109  -17.2940   24.9889 C   0  0  1  0  0  0  0  0  0  0  0  0
    6.7235  -16.6269   26.2829 C   0  0  0  0  0  0  0  0  0  0  0  0
    6.0457  -15.3478   26.5251 C   0  0  0  0  0  0  0  0  0  0  0  0
    4.6601  -15.1877   26.7038 C   0  0  0  0  0  0  0  0  0  0  0  0
    4.4020  -13.9143   26.9287 N   0  0  0  0  0  0  0  0  0  0  0  0
    5.5190  -13.1656   26.9193 C   0  0  0  0  0  0  0  0  0  0  0  0
    5.7497  -11.8222   27.0940 C   0  0  0  0  0  0  0  0  0  0  0  0
    7.0357  -11.3506   27.0152 C   0  0  0  0  0  0  0  0  0  0  0  0
    8.0864  -12.2191   26.7625 C   0  0  0  0  0  0  0  0  0  0  0  0
    7.8197  -13.5618   26.5923 C   0  0  0  0  0  0  0  0  0  0  0  0
    6.5549  -14.0764   26.6633 C   0  0  0  0  0  0  0  0  0  0  0  0
    7.5914  -17.2954   24.0619 C   0  0  0  0  0  0  0  0  0  0  0  0
    8.3683  -18.3131   24.0378 O   0  0  0  0  0  0  0  0  0  0  0  0
    7.9750  -15.3946   16.8723 N   0  0  0  0  0  0  0  0  0  0  0  0
    8.4816  -14.1934   17.4332 C   0  0  0  0  0  0  0  0  0  0  0  0
    8.4836  -13.0956   16.7592 N   0  0  0  0  0  0  0  0  0  0  0  0
    9.0114  -14.1320   18.7598 N   0  0  0  0  0  0  0  0  0  0  0  0
    9.9449  -15.1378   19.2070 C   0  0  0  0  0  0  0  0  0  0  0  0
   10.3267  -14.9628   20.6554 C   0  0  0  0  0  0  0  0  0  0  0  0
    9.0422  -14.9463   21.4686 C   0  0  0  0  0  0  0  0  0  0  0  0
    9.1201  -16.0573   22.4565 C   0  0  2  0  0  0  0  0  0  0  0  0
    7.9066  -16.2154   23.1930 N   0  0  0  0  0  0  0  0  0  0  0  0
   10.2890  -15.9827   23.3740 C   0  0  0  0  0  0  0  0  0  0  0  0
   11.4313  -15.8758   22.8739 O   0  0  0  0  0  0  0  0  0  0  0  0
    8.8284  -12.2314   17.1989 C   0  0  0  0  0  0  0  0  0  0  0  0
    9.1449  -13.8311   27.8015 C   0  0  0  0  0  0  0  0  0  0  0  0
   10.4385  -13.9353   27.0412 C   0  0  2  0  0  0  0  0  0  0  0  0
   10.9169  -15.3437   27.0223 C   0  0  0  0  0  0  0  0  0  0  0  0
   12.1787  -15.3934   27.8980 C   0  0  2  0  0  0  0  0  0  0  0  0
   11.3071  -15.8883   25.6922 N   0  0  0  0  0  0  0  0  0  0  0  0
   10.1921  -16.0250   24.7765 C   0  0  0  0  0  0  0  0  0  0  0  0
   12.1558  -17.0933   25.7239 O   0  0  0  0  0  0  0  0  0  0  0  0
   11.6544  -18.3813   25.5098 O   0  0  0  0  0  0  0  0  0  0  0  0
  2  1  1  1
  3  2  1  0
  4  3  1  0
  5  4  2  0
  6  5  1  0
  7  6  1  0
  7 12  2  0
  8  7  1  0
  9  8  2  0
  9 10  1  0
 10 11  2  0
 11 12  1  0
 12  4  1  0
 13 14  2  0
 13  2  1  0
 16 17  2  0
 16 15  1  0
 18 16  1  0
 18 19  1  0
 19 20  1  0
 20 21  1  0
 22 21  1  1
 22 23  1  0
 22 24  1  0
 23 13  1  0
 24 31  1  0
 24 25  2  0
 27 26  1  0
 28 27  1  0
 28 29  1  6
 30 28  1  0
 30 31  1  6
 32 33  1  0
 32 30  1  0
 34 32  2  0
M  END
$$$$
