WRI.pdb
     RDKit          3D

 34 35  0  0  1  0  0  0  0  0999 V2000
    6.1091  -18.8267   25.0144 N   0  0  0  0  0  0  0  0  0  0  0  0
    6.2411  -17.3956   24.9361 C   0  0  1  0  0  0  0  0  0  0  0  0
    6.5756  -16.8332   26.2736 C   0  0  0  0  0  0  0  0  0  0  0  0
    5.9148  -15.5698   26.6215 C   0  0  0  0  0  0  0  0  0  0  0  0
    4.5285  -15.4008   26.7869 C   0  0  0  0  0  0  0  0  0  0  0  0
    4.2873  -14.1494   27.1254 N   0  0  0  0  0  0  0  0  0  0  0  0
    5.4169  -13.4244   27.2087 C   0  0  0  0  0  0  0  0  0  0  0  0
    5.6666  -12.1079   27.5135 C   0  0  0  0  0  0  0  0  0  0  0  0
    6.9619  -11.6556   27.5049 C   0  0  0  0  0  0  0  0  0  0  0  0
    8.0028  -12.5164   27.1926 C   0  0  0  0  0  0  0  0  0  0  0  0
    7.7170  -13.8319   26.8916 C   0  0  0  0  0  0  0  0  0  0  0  0
    6.4424  -14.3268   26.8887 C   0  0  0  0  0  0  0  0  0  0  0  0
    7.2949  -17.0756   23.9163 C   0  0  0  0  0  0  0  0  0  0  0  0
    8.2524  -17.9036   23.7231 O   0  0  0  0  0  0  0  0  0  0  0  0
    7.7265  -15.1200   18.2111 N   0  0  0  0  0  0  0  0  0  0  0  0
    8.6102  -14.1889   17.6061 C   0  0  0  0  0  0  0  0  0  0  0  0
    9.0631  -14.3812   16.4155 N   0  0  0  0  0  0  0  0  0  0  0  0
    9.0431  -13.0002   18.2722 N   0  0  0  0  0  0  0  0  0  0  0  0
    8.7167  -12.7979   19.6634 C   0  0  0  0  0  0  0  0  0  0  0  0
    9.1242  -13.9671   20.5244 C   0  0  0  0  0  0  0  0  0  0  0  0
    7.9740  -14.2583   21.4751 C   0  0  0  0  0  0  0  0  0  0  0  0
    8.3679  -15.4220   22.3158 C   0  0  2  0  0  0  0  0  0  0  0  0
    7.2958  -15.8864   23.1373 N   0  0  0  0  0  0  0  0  0  0  0  0
    9.5983  -15.2072   23.1244 C   0  0  0  0  0  0  0  0  0  0  0  0
   10.2503  -14.1539   22.9462 O   0  0  0  0  0  0  0  0  0  0  0  0
    9.6450  -13.6578   15.9715 C   0  0  0  0  0  0  0  0  0  0  0  0
   10.1039  -12.8794   27.2398 C   0  0  0  0  0  0  0  0  0  0  0  0
   10.6181  -13.5603   26.0011 C   0  0  2  0  0  0  0  0  0  0  0  0
   10.6742  -15.0329   26.2042 C   0  0  0  0  0  0  0  0  0  0  0  0
   11.6880  -15.2850   27.3311 C   0  0  2  0  0  0  0  0  0  0  0  0
   11.1313  -15.8408   25.0396 N   0  0  0  0  0  0  0  0  0  0  0  0
   10.0788  -16.1179   24.0825 C   0  0  0  0  0  0  0  0  0  0  0  0
   11.9170  -17.0435   25.3707 O   0  0  0  0  0  0  0  0  0  0  0  0
   13.1555  -16.9871   26.0180 O   0  0  0  0  0  0  0  0  0  0  0  0
  2  1  1  1
  3  2  1  0
  4  3  1  0
  5  4  2  0
  6  5  1  0
  7  6  1  0
  7 12  2  0
  8  7  1  0
  9  8  2  0
  9 10  1  0
 10 11  2  0
 11 12  1  0
 12  4  1  0
 13 14  2  0
 13  2  1  0
 16 17  2  0
 16 15  1  0
 18 16  1  0
 18 19  1  0
 19 20  1  0
 20 21  1  0
 22 21  1  1
 22 23  1  0
 22 24  1  0
 23 13  1  0
 24 31  1  0
 24 25  2  0
 27 26  1  0
 28 27  1  0
 28 29  1  6
 30 28  1  0
 30 31  1  6
 32 33  1  0
 32 30  1  0
 34 32  2  0
M  END
$$$$
