LIF.pdb
     RDKit          3D

 28 28  0  0  1  0  0  0  0  0999 V2000
  -51.5294   49.4359  -19.7272 C   0  0  0  0  0  0  0  0  0  0  0  0
  -51.8139   50.8775  -19.3990 C   0  0  1  0  0  0  0  0  0  0  0  0
  -51.8043   51.6782  -20.6847 C   0  0  0  0  0  0  0  0  0  0  0  0
  -53.1293   51.1043  -18.7296 C   0  0  0  0  0  0  0  0  0  0  0  0
  -52.9173   51.6289  -17.3403 C   0  0  2  0  0  0  0  0  0  0  0  0
  -51.6836   51.0958  -16.8146 N   0  0  0  0  0  0  0  0  0  0  0  0
  -54.1026   51.2618  -16.5203 C   0  0  0  0  0  0  0  0  0  0  0  0
  -55.2003   51.8611  -16.6690 O   0  0  0  0  0  0  0  0  0  0  0  0
  -57.3673   49.4617  -17.3321 C   0  0  0  0  0  0  0  0  0  0  0  0
  -56.5767   50.6612  -16.7921 C   0  0  0  0  0  0  0  0  0  0  0  0
  -56.3303   50.4051  -15.3301 C   0  0  2  0  0  0  0  0  0  0  0  0
  -56.2810   51.6602  -14.5166 C   0  0  0  0  0  0  0  0  0  0  0  0
  -55.1438   49.5630  -15.0295 C   0  0  2  0  0  0  0  0  0  0  0  0
  -53.9799   50.2307  -15.5710 N   0  0  0  0  0  0  0  0  0  0  0  0
  -55.2038   48.1981  -15.6004 C   0  0  0  0  0  0  0  0  0  0  0  0
  -55.2055   47.1612  -14.8697 O   0  0  0  0  0  0  0  0  0  0  0  0
  -55.2616   48.0120  -17.0008 N   0  0  0  0  0  0  0  0  0  0  0  0
  -55.6402   46.7255  -17.5450 C   0  0  1  0  0  0  0  0  0  0  0  0
  -54.4884   45.9934  -18.1485 C   0  0  0  0  0  0  0  0  0  0  0  0
  -53.5865   45.3927  -17.1513 C   0  0  0  0  0  0  0  0  0  0  0  0
  -52.4044   45.9929  -16.7598 C   0  0  0  0  0  0  0  0  0  0  0  0
  -51.5631   45.4260  -15.8255 C   0  0  0  0  0  0  0  0  0  0  0  0
  -51.8761   44.2184  -15.2374 C   0  0  0  0  0  0  0  0  0  0  0  0
  -53.0531   43.6102  -15.6203 C   0  0  0  0  0  0  0  0  0  0  0  0
  -53.8930   44.1804  -16.5558 C   0  0  0  0  0  0  0  0  0  0  0  0
  -56.2860   45.8770  -16.4810 C   0  0  0  0  0  0  0  0  0  0  0  0
  -56.5985   44.6905  -16.7498 O   0  0  0  0  0  0  0  0  0  0  0  0
  -56.5537   46.3499  -15.2124 O   0  0  0  0  0  0  0  0  0  0  0  0
  2  1  1  6
  2  3  1  0
  4  2  1  0
  5  4  1  0
  5  6  1  1
  7  5  1  0
  8  7  2  0
 10 11  1  0
 10  9  1  0
 11 13  1  0
 11 12  1  1
 13 15  1  0
 13 14  1  6
 14  7  1  0
 15 16  2  0
 17 18  1  0
 17 15  1  0
 18 19  1  1
 19 20  1  0
 20 25  2  0
 21 22  2  0
 21 20  1  0
 22 23  1  0
 23 24  2  0
 25 24  1  0
 26 18  1  0
 27 26  2  0
 28 26  1  0
M  END
$$$$
