LIF.pdb
     RDKit          3D

 28 28  0  0  1  0  0  0  0  0999 V2000
   28.0757  -14.9320  -15.5951 C   0  0  0  0  0  0  0  0  0  0  0  0
   27.3701  -16.2335  -15.8691 C   0  0  1  0  0  0  0  0  0  0  0  0
   28.3635  -17.2057  -16.4712 C   0  0  0  0  0  0  0  0  0  0  0  0
   26.7795  -16.8759  -14.6574 C   0  0  0  0  0  0  0  0  0  0  0  0
   26.1601  -18.1927  -15.0220 C   0  0  2  0  0  0  0  0  0  0  0  0
   25.1514  -17.9796  -16.0318 N   0  0  0  0  0  0  0  0  0  0  0  0
   25.6169  -18.8086  -13.7819 C   0  0  0  0  0  0  0  0  0  0  0  0
   24.5900  -18.3382  -13.2246 O   0  0  0  0  0  0  0  0  0  0  0  0
   24.6105  -23.7032  -14.4413 C   0  0  0  0  0  0  0  0  0  0  0  0
   24.6023  -22.2322  -14.0033 C   0  0  0  0  0  0  0  0  0  0  0  0
   25.4972  -22.1257  -12.7986 C   0  0  2  0  0  0  0  0  0  0  0  0
   25.1326  -23.0880  -11.7122 C   0  0  0  0  0  0  0  0  0  0  0  0
   25.6344  -20.7578  -12.2350 C   0  0  2  0  0  0  0  0  0  0  0  0
   26.2698  -19.9293  -13.2368 N   0  0  0  0  0  0  0  0  0  0  0  0
   26.4399  -20.6868  -10.9947 C   0  0  0  0  0  0  0  0  0  0  0  0
   27.7062  -20.7598  -11.0080 O   0  0  0  0  0  0  0  0  0  0  0  0
   25.8064  -20.5329   -9.7400 N   0  0  0  0  0  0  0  0  0  0  0  0
   26.5746  -20.6642   -8.5204 C   0  0  1  0  0  0  0  0  0  0  0  0
   27.2459  -19.3923   -8.1224 C   0  0  0  0  0  0  0  0  0  0  0  0
   27.9467  -19.4772   -6.8302 C   0  0  0  0  0  0  0  0  0  0  0  0
   27.5601  -18.7435   -5.7242 C   0  0  0  0  0  0  0  0  0  0  0  0
   28.2200  -18.8266   -4.5161 C   0  0  0  0  0  0  0  0  0  0  0  0
   29.3090  -19.6593   -4.3647 C   0  0  0  0  0  0  0  0  0  0  0  0
   29.7038  -20.3963   -5.4613 C   0  0  0  0  0  0  0  0  0  0  0  0
   29.0410  -20.3108   -6.6693 C   0  0  0  0  0  0  0  0  0  0  0  0
   25.6959  -21.1527   -7.3987 C   0  0  0  0  0  0  0  0  0  0  0  0
   24.4490  -21.0465   -7.5068 O   0  0  0  0  0  0  0  0  0  0  0  0
   26.2044  -21.7155   -6.2458 O   0  0  0  0  0  0  0  0  0  0  0  0
  2  1  1  1
  2  3  1  0
  4  2  1  0
  5  4  1  0
  5  6  1  6
  7  5  1  0
  8  7  2  0
 10 11  1  0
 10  9  1  0
 11 13  1  0
 11 12  1  1
 13 15  1  0
 13 14  1  6
 14  7  1  0
 15 16  2  0
 17 18  1  0
 17 15  1  0
 18 19  1  1
 19 20  1  0
 20 25  2  0
 21 22  2  0
 21 20  1  0
 22 23  1  0
 23 24  2  0
 25 24  1  0
 26 18  1  0
 27 26  2  0
 28 26  1  0
M  END
$$$$
