LIF.pdb
     RDKit          3D

 28 28  0  0  1  0  0  0  0  0999 V2000
   29.6484  -17.3405  -16.2013 C   0  0  0  0  0  0  0  0  0  0  0  0
   28.3978  -18.1669  -16.0614 C   0  0  1  0  0  0  0  0  0  0  0  0
   28.7450  -19.6187  -16.3188 C   0  0  0  0  0  0  0  0  0  0  0  0
   27.7564  -18.0826  -14.7155 C   0  0  0  0  0  0  0  0  0  0  0  0
   26.5315  -18.9477  -14.6729 C   0  0  2  0  0  0  0  0  0  0  0  0
   25.6163  -18.5260  -15.7059 N   0  0  0  0  0  0  0  0  0  0  0  0
   25.9467  -18.8560  -13.3085 C   0  0  0  0  0  0  0  0  0  0  0  0
   25.6761  -17.7375  -12.7965 O   0  0  0  0  0  0  0  0  0  0  0  0
   21.4837  -20.6416  -12.4893 C   0  0  0  0  0  0  0  0  0  0  0  0
   22.8115  -19.8738  -12.4343 C   0  0  0  0  0  0  0  0  0  0  0  0
   23.6968  -20.5932  -11.4533 C   0  0  2  0  0  0  0  0  0  0  0  0
   23.0611  -20.7666  -10.1098 C   0  0  0  0  0  0  0  0  0  0  0  0
   25.0586  -20.0202  -11.2963 C   0  0  2  0  0  0  0  0  0  0  0  0
   25.6991  -20.0422  -12.5935 N   0  0  0  0  0  0  0  0  0  0  0  0
   25.9214  -20.7504  -10.3399 C   0  0  0  0  0  0  0  0  0  0  0  0
   26.3344  -21.9279  -10.5678 O   0  0  0  0  0  0  0  0  0  0  0  0
   26.3144  -20.1426   -9.1252 N   0  0  0  0  0  0  0  0  0  0  0  0
   27.0459  -20.9064   -8.1372 C   0  0  1  0  0  0  0  0  0  0  0  0
   28.3805  -20.3163   -7.8249 C   0  0  0  0  0  0  0  0  0  0  0  0
   28.5349  -19.9268   -6.4133 C   0  0  0  0  0  0  0  0  0  0  0  0
   28.0973  -18.7099   -5.9248 C   0  0  0  0  0  0  0  0  0  0  0  0
   28.2445  -18.3498   -4.6017 C   0  0  0  0  0  0  0  0  0  0  0  0
   28.8441  -19.2058   -3.7018 C   0  0  0  0  0  0  0  0  0  0  0  0
   29.2846  -20.4228   -4.1777 C   0  0  0  0  0  0  0  0  0  0  0  0
   29.1357  -20.7802   -5.5028 C   0  0  0  0  0  0  0  0  0  0  0  0
   26.2361  -21.0395   -6.8741 C   0  0  0  0  0  0  0  0  0  0  0  0
   25.2810  -20.2490   -6.6728 O   0  0  0  0  0  0  0  0  0  0  0  0
   26.5002  -21.9991   -5.9181 O   0  0  0  0  0  0  0  0  0  0  0  0
  2  1  1  1
  2  3  1  0
  4  2  1  0
  5  4  1  0
  5  6  1  6
  7  5  1  0
  8  7  2  0
 10 11  1  0
 10  9  1  0
 11 13  1  0
 11 12  1  1
 13 15  1  0
 13 14  1  6
 14  7  1  0
 15 16  2  0
 17 18  1  0
 17 15  1  0
 18 19  1  1
 19 20  1  0
 20 25  2  0
 21 22  2  0
 21 20  1  0
 22 23  1  0
 23 24  2  0
 25 24  1  0
 26 18  1  0
 27 26  2  0
 28 26  1  0
M  END
$$$$
