LIF.pdb
     RDKit          3D

 28 28  0  0  1  0  0  0  0  0999 V2000
   20.2127  -16.2721  -15.9428 C   0  0  0  0  0  0  0  0  0  0  0  0
   21.3083  -16.8491  -16.7992 C   0  0  1  0  0  0  0  0  0  0  0  0
   22.2802  -15.7425  -17.1533 C   0  0  0  0  0  0  0  0  0  0  0  0
   22.0831  -17.9452  -16.1447 C   0  0  0  0  0  0  0  0  0  0  0  0
   23.2420  -18.3447  -17.0094 C   0  0  2  0  0  0  0  0  0  0  0  0
   22.7435  -18.9115  -18.2394 N   0  0  0  0  0  0  0  0  0  0  0  0
   24.0911  -19.2914  -16.2380 C   0  0  0  0  0  0  0  0  0  0  0  0
   23.6985  -20.4647  -16.0023 O   0  0  0  0  0  0  0  0  0  0  0  0
   28.4188  -21.8481  -15.3594 C   0  0  0  0  0  0  0  0  0  0  0  0
   28.6332  -20.4153  -14.8529 C   0  0  0  0  0  0  0  0  0  0  0  0
   27.5951  -19.5525  -15.5174 C   0  0  2  0  0  0  0  0  0  0  0  0
   27.9545  -18.0999  -15.5172 C   0  0  0  0  0  0  0  0  0  0  0  0
   26.2102  -19.7290  -15.0089 C   0  0  2  0  0  0  0  0  0  0  0  0
   25.3452  -18.8556  -15.7722 N   0  0  0  0  0  0  0  0  0  0  0  0
   26.0421  -19.4098  -13.5729 C   0  0  0  0  0  0  0  0  0  0  0  0
   26.0117  -18.2154  -13.1468 O   0  0  0  0  0  0  0  0  0  0  0  0
   25.9086  -20.4476  -12.6218 N   0  0  0  0  0  0  0  0  0  0  0  0
   25.8868  -20.1359  -11.2087 C   0  0  1  0  0  0  0  0  0  0  0  0
   24.6690  -19.3736  -10.8053 C   0  0  0  0  0  0  0  0  0  0  0  0
   23.4135  -20.1078  -11.0349 C   0  0  0  0  0  0  0  0  0  0  0  0
   22.9235  -20.3666  -12.3013 C   0  0  0  0  0  0  0  0  0  0  0  0
   21.7468  -21.0547  -12.5109 C   0  0  0  0  0  0  0  0  0  0  0  0
   21.0029  -21.5178  -11.4458 C   0  0  0  0  0  0  0  0  0  0  0  0
   21.4820  -21.2655  -10.1775 C   0  0  0  0  0  0  0  0  0  0  0  0
   22.6603  -20.5765   -9.9712 C   0  0  0  0  0  0  0  0  0  0  0  0
   25.9953  -21.3976  -10.3929 C   0  0  0  0  0  0  0  0  0  0  0  0
   26.0724  -22.5036  -10.9831 O   0  0  0  0  0  0  0  0  0  0  0  0
   26.0122  -21.3927   -9.0130 O   0  0  0  0  0  0  0  0  0  0  0  0
  2  1  1  1
  2  3  1  0
  4  2  1  0
  5  4  1  0
  5  6  1  6
  7  5  1  0
  8  7  2  0
 10 11  1  0
 10  9  1  0
 11 13  1  0
 11 12  1  1
 13 15  1  0
 13 14  1  6
 14  7  1  0
 15 16  2  0
 17 18  1  0
 17 15  1  0
 18 19  1  1
 19 20  1  0
 20 25  2  0
 21 22  2  0
 21 20  1  0
 22 23  1  0
 23 24  2  0
 25 24  1  0
 26 18  1  0
 27 26  2  0
 28 26  1  0
M  END
$$$$
