LIF.pdb
     RDKit          3D

 28 28  0  0  1  0  0  0  0  0999 V2000
   24.5534  -13.1418  -14.9754 C   0  0  0  0  0  0  0  0  0  0  0  0
   23.3087  -13.4564  -15.7620 C   0  0  1  0  0  0  0  0  0  0  0  0
   22.3861  -14.2894  -14.8963 C   0  0  0  0  0  0  0  0  0  0  0  0
   22.5489  -12.2523  -16.2121 C   0  0  0  0  0  0  0  0  0  0  0  0
   21.3285  -12.6693  -16.9784 C   0  0  2  0  0  0  0  0  0  0  0  0
   21.7337  -13.3950  -18.1581 N   0  0  0  0  0  0  0  0  0  0  0  0
   20.5387  -11.4487  -17.2921 C   0  0  0  0  0  0  0  0  0  0  0  0
   20.9388  -10.6266  -18.1584 O   0  0  0  0  0  0  0  0  0  0  0  0
   15.6051  -12.2645  -17.0320 C   0  0  0  0  0  0  0  0  0  0  0  0
   16.5634  -11.2878  -17.7273 C   0  0  0  0  0  0  0  0  0  0  0  0
   17.1188  -10.3816  -16.6625 C   0  0  2  0  0  0  0  0  0  0  0  0
   16.3058   -9.1403  -16.4684 C   0  0  0  0  0  0  0  0  0  0  0  0
   18.5521  -10.0251  -16.8237 C   0  0  2  0  0  0  0  0  0  0  0  0
   19.3325  -11.2235  -16.6038 N   0  0  0  0  0  0  0  0  0  0  0  0
   19.0303   -8.9814  -15.8885 C   0  0  0  0  0  0  0  0  0  0  0  0
   19.0958   -9.1765  -14.6369 O   0  0  0  0  0  0  0  0  0  0  0  0
   19.4338   -7.7169  -16.3758 N   0  0  0  0  0  0  0  0  0  0  0  0
   19.9248   -6.7108  -15.4586 C   0  0  1  0  0  0  0  0  0  0  0  0
   21.2617   -6.1765  -15.8510 C   0  0  0  0  0  0  0  0  0  0  0  0
   21.6926   -5.0218  -15.0452 C   0  0  0  0  0  0  0  0  0  0  0  0
   22.3992   -5.1599  -13.8650 C   0  0  0  0  0  0  0  0  0  0  0  0
   22.8002   -4.0751  -13.1139 C   0  0  0  0  0  0  0  0  0  0  0  0
   22.5058   -2.7903  -13.5198 C   0  0  0  0  0  0  0  0  0  0  0  0
   21.8012   -2.6402  -14.6957 C   0  0  0  0  0  0  0  0  0  0  0  0
   21.4012   -3.7283  -15.4453 C   0  0  0  0  0  0  0  0  0  0  0  0
   18.9353   -5.5810  -15.3427 C   0  0  0  0  0  0  0  0  0  0  0  0
   18.2529   -5.2591  -16.3468 O   0  0  0  0  0  0  0  0  0  0  0  0
   18.7443   -4.8759  -14.1718 O   0  0  0  0  0  0  0  0  0  0  0  0
  2  1  1  1
  2  3  1  0
  4  2  1  0
  5  4  1  0
  5  6  1  6
  7  5  1  0
  8  7  2  0
 10 11  1  0
 10  9  1  0
 11 13  1  0
 11 12  1  6
 13 15  1  0
 13 14  1  1
 14  7  1  0
 15 16  2  0
 17 18  1  0
 17 15  1  0
 18 19  1  6
 19 20  1  0
 20 25  2  0
 21 22  2  0
 21 20  1  0
 22 23  1  0
 23 24  2  0
 25 24  1  0
 26 18  1  0
 27 26  2  0
 28 26  1  0
M  END
$$$$
