LIF.pdb
     RDKit          3D

 28 28  0  0  1  0  0  0  0  0999 V2000
   19.2693  -18.2373  -12.0848 C   0  0  0  0  0  0  0  0  0  0  0  0
   20.2812  -19.0327  -12.8658 C   0  0  1  0  0  0  0  0  0  0  0  0
   21.0458  -18.0885  -13.7706 C   0  0  0  0  0  0  0  0  0  0  0  0
   21.2745  -19.7582  -12.0192 C   0  0  0  0  0  0  0  0  0  0  0  0
   22.2931  -20.4370  -12.8865 C   0  0  2  0  0  0  0  0  0  0  0  0
   21.6448  -21.4649  -13.6647 N   0  0  0  0  0  0  0  0  0  0  0  0
   23.3696  -20.9680  -12.0081 C   0  0  0  0  0  0  0  0  0  0  0  0
   23.1470  -21.9276  -11.2233 O   0  0  0  0  0  0  0  0  0  0  0  0
   28.0271  -21.7133  -14.3413 C   0  0  0  0  0  0  0  0  0  0  0  0
   26.7173  -21.7750  -13.5437 C   0  0  0  0  0  0  0  0  0  0  0  0
   26.9287  -20.9767  -12.2860 C   0  0  2  0  0  0  0  0  0  0  0  0
   28.1670  -21.3709  -11.5442 C   0  0  0  0  0  0  0  0  0  0  0  0
   25.7709  -20.9496  -11.3553 C   0  0  2  0  0  0  0  0  0  0  0  0
   24.6465  -20.3801  -12.0659 N   0  0  0  0  0  0  0  0  0  0  0  0
   25.9943  -20.1547  -10.1262 C   0  0  0  0  0  0  0  0  0  0  0  0
   25.9782  -18.8864  -10.1314 O   0  0  0  0  0  0  0  0  0  0  0  0
   26.2361  -20.8012   -8.8921 N   0  0  0  0  0  0  0  0  0  0  0  0
   27.0501  -20.1560   -7.8844 C   0  0  1  0  0  0  0  0  0  0  0  0
   26.5406  -20.3823   -6.5002 C   0  0  0  0  0  0  0  0  0  0  0  0
   27.4083  -19.8147   -5.4546 C   0  0  0  0  0  0  0  0  0  0  0  0
   28.1258  -20.6027   -4.5741 C   0  0  0  0  0  0  0  0  0  0  0  0
   28.9370  -20.0660   -3.5964 C   0  0  0  0  0  0  0  0  0  0  0  0
   29.0642  -18.6996   -3.4590 C   0  0  0  0  0  0  0  0  0  0  0  0
   28.3531  -17.9034   -4.3320 C   0  0  0  0  0  0  0  0  0  0  0  0
   27.5419  -18.4438   -5.3096 C   0  0  0  0  0  0  0  0  0  0  0  0
   28.4784  -20.6233   -7.9876 C   0  0  0  0  0  0  0  0  0  0  0  0
   28.7123  -21.8002   -8.3588 O   0  0  0  0  0  0  0  0  0  0  0  0
   29.5516  -19.8091   -7.6880 O   0  0  0  0  0  0  0  0  0  0  0  0
  2  1  1  1
  2  3  1  0
  4  2  1  0
  5  4  1  0
  5  6  1  1
  7  5  1  0
  8  7  2  0
 10 11  1  0
 10  9  1  0
 11 13  1  0
 11 12  1  1
 13 15  1  0
 13 14  1  6
 14  7  1  0
 15 16  2  0
 17 18  1  0
 17 15  1  0
 18 19  1  1
 19 20  1  0
 20 25  2  0
 21 22  2  0
 21 20  1  0
 22 23  1  0
 23 24  2  0
 25 24  1  0
 26 18  1  0
 27 26  2  0
 28 26  1  0
M  END
$$$$
