LIF.pdb
     RDKit          3D

 28 28  0  0  1  0  0  0  0  0999 V2000
   22.0790  -21.1250  -17.4344 C   0  0  0  0  0  0  0  0  0  0  0  0
   22.4635  -20.3071  -16.2303 C   0  0  1  0  0  0  0  0  0  0  0  0
   21.2345  -19.5791  -15.7265 C   0  0  0  0  0  0  0  0  0  0  0  0
   23.0160  -21.1084  -15.0977 C   0  0  0  0  0  0  0  0  0  0  0  0
   23.4651  -20.1982  -13.9931 C   0  0  2  0  0  0  0  0  0  0  0  0
   23.9381  -18.9590  -14.5616 N   0  0  0  0  0  0  0  0  0  0  0  0
   24.5066  -20.9074  -13.2028 C   0  0  0  0  0  0  0  0  0  0  0  0
   24.3571  -22.1143  -12.8751 O   0  0  0  0  0  0  0  0  0  0  0  0
   29.6102  -19.9691  -14.2414 C   0  0  0  0  0  0  0  0  0  0  0  0
   28.2347  -20.5712  -13.9234 C   0  0  0  0  0  0  0  0  0  0  0  0
   27.9999  -20.3808  -12.4496 C   0  0  2  0  0  0  0  0  0  0  0  0
   29.0689  -20.9965  -11.6026 C   0  0  0  0  0  0  0  0  0  0  0  0
   26.6628  -20.8101  -11.9643 C   0  0  2  0  0  0  0  0  0  0  0  0
   25.6669  -20.2078  -12.8240 N   0  0  0  0  0  0  0  0  0  0  0  0
   26.3668  -20.4206  -10.5668 C   0  0  0  0  0  0  0  0  0  0  0  0
   26.0464  -19.2346  -10.2509 O   0  0  0  0  0  0  0  0  0  0  0  0
   26.4351  -21.3785   -9.5290 N   0  0  0  0  0  0  0  0  0  0  0  0
   25.9427  -21.0510   -8.2081 C   0  0  1  0  0  0  0  0  0  0  0  0
   26.4834  -19.7579   -7.6958 C   0  0  0  0  0  0  0  0  0  0  0  0
   27.4209  -19.9174   -6.5716 C   0  0  0  0  0  0  0  0  0  0  0  0
   28.1933  -18.8755   -6.0931 C   0  0  0  0  0  0  0  0  0  0  0  0
   29.0701  -19.0302   -5.0399 C   0  0  0  0  0  0  0  0  0  0  0  0
   29.2109  -20.2514   -4.4146 C   0  0  0  0  0  0  0  0  0  0  0  0
   28.4453  -21.2983   -4.8834 C   0  0  0  0  0  0  0  0  0  0  0  0
   27.5685  -21.1401   -5.9380 C   0  0  0  0  0  0  0  0  0  0  0  0
   24.4368  -21.0138   -8.2055 C   0  0  0  0  0  0  0  0  0  0  0  0
   23.8343  -20.5363   -9.1988 O   0  0  0  0  0  0  0  0  0  0  0  0
   23.6824  -21.4838   -7.1498 O   0  0  0  0  0  0  0  0  0  0  0  0
  2  1  1  6
  2  3  1  0
  4  2  1  0
  5  4  1  0
  5  6  1  6
  7  5  1  0
  8  7  2  0
 10 11  1  0
 10  9  1  0
 11 13  1  0
 11 12  1  1
 13 15  1  0
 13 14  1  6
 14  7  1  0
 15 16  2  0
 17 18  1  0
 17 15  1  0
 18 19  1  6
 19 20  1  0
 20 25  2  0
 21 22  2  0
 21 20  1  0
 22 23  1  0
 23 24  2  0
 25 24  1  0
 26 18  1  0
 27 26  2  0
 28 26  1  0
M  END
$$$$
