LIF.pdb
     RDKit          3D

 28 28  0  0  1  0  0  0  0  0999 V2000
   25.8553  -30.1877  -18.8421 C   0  0  0  0  0  0  0  0  0  0  0  0
   27.2537  -29.8152  -18.4271 C   0  0  1  0  0  0  0  0  0  0  0  0
   28.1071  -29.6748  -19.6707 C   0  0  0  0  0  0  0  0  0  0  0  0
   27.3447  -28.5348  -17.6641 C   0  0  0  0  0  0  0  0  0  0  0  0
   28.7270  -28.3635  -17.1071 C   0  0  2  0  0  0  0  0  0  0  0  0
   28.9577  -29.3641  -16.0931 N   0  0  0  0  0  0  0  0  0  0  0  0
   28.8489  -26.9748  -16.5885 C   0  0  0  0  0  0  0  0  0  0  0  0
   28.7342  -26.7336  -15.3577 O   0  0  0  0  0  0  0  0  0  0  0  0
   32.9255  -24.0150  -17.8384 C   0  0  0  0  0  0  0  0  0  0  0  0
   31.7429  -24.7233  -17.1638 C   0  0  0  0  0  0  0  0  0  0  0  0
   30.4918  -24.0190  -17.6138 C   0  0  2  0  0  0  0  0  0  0  0  0
   30.5478  -22.5380  -17.4071 C   0  0  0  0  0  0  0  0  0  0  0  0
   29.2277  -24.5590  -17.0500 C   0  0  2  0  0  0  0  0  0  0  0  0
   29.0948  -25.9288  -17.4967 N   0  0  0  0  0  0  0  0  0  0  0  0
   28.0122  -23.8178  -17.4572 C   0  0  0  0  0  0  0  0  0  0  0  0
   27.5554  -23.8696  -18.6394 O   0  0  0  0  0  0  0  0  0  0  0  0
   27.3166  -23.0183  -16.5212 N   0  0  0  0  0  0  0  0  0  0  0  0
   26.1513  -22.2668  -16.9358 C   0  0  1  0  0  0  0  0  0  0  0  0
   24.9454  -22.5720  -16.1115 C   0  0  0  0  0  0  0  0  0  0  0  0
   24.1967  -23.7505  -16.5795 C   0  0  0  0  0  0  0  0  0  0  0  0
   24.5200  -25.0384  -16.1951 C   0  0  0  0  0  0  0  0  0  0  0  0
   23.8156  -26.1389  -16.6365 C   0  0  0  0  0  0  0  0  0  0  0  0
   22.7442  -25.9920  -17.4924 C   0  0  0  0  0  0  0  0  0  0  0  0
   22.4124  -24.7116  -17.8827 C   0  0  0  0  0  0  0  0  0  0  0  0
   23.1196  -23.6121  -17.4390 C   0  0  0  0  0  0  0  0  0  0  0  0
   26.4398  -20.7889  -16.8944 C   0  0  0  0  0  0  0  0  0  0  0  0
   27.4213  -20.3750  -16.2288 O   0  0  0  0  0  0  0  0  0  0  0  0
   25.6656  -19.8604  -17.5599 O   0  0  0  0  0  0  0  0  0  0  0  0
  2  1  1  6
  2  3  1  0
  4  2  1  0
  5  4  1  0
  5  6  1  1
  7  5  1  0
  8  7  2  0
 10 11  1  0
 10  9  1  0
 11 13  1  0
 11 12  1  1
 13 15  1  0
 13 14  1  6
 14  7  1  0
 15 16  2  0
 17 18  1  0
 17 15  1  0
 18 19  1  1
 19 20  1  0
 20 25  2  0
 21 22  2  0
 21 20  1  0
 22 23  1  0
 23 24  2  0
 25 24  1  0
 26 18  1  0
 27 26  2  0
 28 26  1  0
M  END
$$$$
