LIF.pdb
     RDKit          3D

 28 28  0  0  1  0  0  0  0  0999 V2000
   19.2689  -18.2913  -12.1883 C   0  0  0  0  0  0  0  0  0  0  0  0
   20.3754  -18.6816  -13.1317 C   0  0  1  0  0  0  0  0  0  0  0  0
   20.8861  -17.4338  -13.8222 C   0  0  0  0  0  0  0  0  0  0  0  0
   21.5378  -19.3453  -12.4698 C   0  0  0  0  0  0  0  0  0  0  0  0
   22.5736  -19.7105  -13.4917 C   0  0  2  0  0  0  0  0  0  0  0  0
   21.9459  -20.4485  -14.5612 N   0  0  0  0  0  0  0  0  0  0  0  0
   23.6470  -20.4809  -12.8087 C   0  0  0  0  0  0  0  0  0  0  0  0
   23.4161  -21.6223  -12.3290 O   0  0  0  0  0  0  0  0  0  0  0  0
   28.3846  -20.4504  -15.0708 C   0  0  0  0  0  0  0  0  0  0  0  0
   27.0551  -20.7681  -14.3731 C   0  0  0  0  0  0  0  0  0  0  0  0
   27.2313  -20.4371  -12.9160 C   0  0  2  0  0  0  0  0  0  0  0  0
   28.3966  -21.1398  -12.2934 C   0  0  0  0  0  0  0  0  0  0  0  0
   26.0207  -20.6275  -12.0761 C   0  0  2  0  0  0  0  0  0  0  0  0
   24.9304  -19.9138  -12.7050 N   0  0  0  0  0  0  0  0  0  0  0  0
   26.1582  -20.1346  -10.6866 C   0  0  0  0  0  0  0  0  0  0  0  0
   26.5180  -18.9466  -10.4253 O   0  0  0  0  0  0  0  0  0  0  0  0
   25.8869  -20.9914   -9.5951 N   0  0  0  0  0  0  0  0  0  0  0  0
   26.5780  -20.8025   -8.3376 C   0  0  1  0  0  0  0  0  0  0  0  0
   26.4166  -19.4227   -7.7928 C   0  0  0  0  0  0  0  0  0  0  0  0
   27.2050  -19.1764   -6.5738 C   0  0  0  0  0  0  0  0  0  0  0  0
   28.3651  -18.4245   -6.5771 C   0  0  0  0  0  0  0  0  0  0  0  0
   29.1000  -18.1969   -5.4325 C   0  0  0  0  0  0  0  0  0  0  0  0
   28.6974  -18.7203   -4.2217 C   0  0  0  0  0  0  0  0  0  0  0  0
   27.5415  -19.4721   -4.2063 C   0  0  0  0  0  0  0  0  0  0  0  0
   26.8080  -19.6981   -5.3538 C   0  0  0  0  0  0  0  0  0  0  0  0
   26.1057  -21.8121   -7.3243 C   0  0  0  0  0  0  0  0  0  0  0  0
   24.8875  -22.1156   -7.2841 O   0  0  0  0  0  0  0  0  0  0  0  0
   26.9593  -22.4230   -6.4284 O   0  0  0  0  0  0  0  0  0  0  0  0
  2  1  1  1
  2  3  1  0
  4  2  1  0
  5  4  1  0
  5  6  1  6
  7  5  1  0
  8  7  2  0
 10 11  1  0
 10  9  1  0
 11 13  1  0
 11 12  1  1
 13 15  1  0
 13 14  1  6
 14  7  1  0
 15 16  2  0
 17 18  1  0
 17 15  1  0
 18 19  1  1
 19 20  1  0
 20 25  2  0
 21 22  2  0
 21 20  1  0
 22 23  1  0
 23 24  2  0
 25 24  1  0
 26 18  1  0
 27 26  2  0
 28 26  1  0
M  END
$$$$
