REP.pdb
     RDKit          3D

 28 28  0  0  1  0  0  0  0  0999 V2000
   27.5244  -21.5942  -11.8282 N   0  0  0  0  0  0  0  0  0  0  0  0
   26.8313  -21.0907  -10.6935 C   0  0  0  0  0  0  0  0  0  0  0  0
   27.4630  -20.7228   -9.6189 N   0  0  0  0  0  0  0  0  0  0  0  0
   25.4272  -20.9911  -10.7362 N   0  0  0  0  0  0  0  0  0  0  0  0
   24.6144  -21.3713  -11.8627 C   0  0  0  0  0  0  0  0  0  0  0  0
   25.1775  -20.8034  -13.1357 C   0  0  0  0  0  0  0  0  0  0  0  0
   24.0685  -20.3779  -14.0786 C   0  0  0  0  0  0  0  0  0  0  0  0
   22.8837  -19.9220  -13.2568 C   0  0  2  0  0  0  0  0  0  0  0  0
   22.7831  -20.7387  -12.0637 N   0  0  0  0  0  0  0  0  0  0  0  0
   21.6151  -20.0439  -14.0080 C   0  0  0  0  0  0  0  0  0  0  0  0
   21.4523  -19.4209  -15.0647 O   0  0  0  0  0  0  0  0  0  0  0  0
   26.9645  -20.3508   -8.7821 N   0  0  0  0  0  0  0  0  0  0  0  0
   20.5342  -20.8729  -13.5620 C   0  0  2  0  0  0  0  0  0  0  0  0
   19.2974  -21.0638  -14.2312 C   0  0  0  0  0  0  0  0  0  0  0  0
   18.4337  -22.1850  -13.7863 C   0  0  0  0  0  0  0  0  0  0  0  0
   17.3151  -21.9533  -12.8717 C   0  0  0  0  0  0  0  0  0  0  0  0
   16.4415  -23.0716  -12.5222 O   0  0  0  0  0  0  0  0  0  0  0  0
   15.4905  -23.4012  -13.2492 C   0  0  0  0  0  0  0  0  0  0  0  0
   18.5587  -19.8776  -14.6806 O   0  0  0  0  0  0  0  0  0  0  0  0
   18.6718  -18.8372  -13.8976 O   0  0  0  0  0  0  0  0  0  0  0  0
   16.6600  -23.7907  -11.3636 N   0  0  0  0  0  0  0  0  0  0  0  0
   17.7500  -19.6585  -15.7957 C   0  0  0  0  0  0  0  0  0  0  0  0
   17.3318  -20.5713  -16.8094 C   0  0  0  0  0  0  0  0  0  0  0  0
   17.1722  -19.7046  -18.0459 C   0  0  0  0  0  0  0  0  0  0  0  0
   17.4107  -18.2884  -17.6155 C   0  0  1  0  0  0  0  0  0  0  0  0
   17.1224  -18.3679  -16.1359 C   0  0  0  0  0  0  0  0  0  0  0  0
   15.6552  -18.4407  -15.9610 O   0  0  0  0  0  0  0  0  0  0  0  0
   14.8634  -17.5015  -16.2448 O   0  0  0  0  0  0  0  0  0  0  0  0
  1  2  1  0
  2  3  2  0
  4  5  1  0
  4  2  1  0
  6  5  1  0
  7  6  1  0
  8  7  1  0
  8  9  1  1
 10  8  1  0
 11 10  2  0
 12 10  1  0
 13 12  1  0
 14 15  1  0
 13 14  1  6
 16 15  1  0
 16 20  1  0
 17 16  2  0
 18 21  1  0
 18 13  1  0
 19 18  2  0
 21 22  1  0
 22 23  1  0
 24 23  1  0
 25 21  1  0
 25 24  1  0
 25 26  1  1
 27 26  2  0
 28 26  1  0
M  END
$$$$
