REP.pdb
     RDKit          3D

 28 28  0  0  1  0  0  0  0  0999 V2000
   26.7485  -19.4446   -6.8873 N   0  0  0  0  0  0  0  0  0  0  0  0
   26.2941  -20.5241   -7.6933 C   0  0  0  0  0  0  0  0  0  0  0  0
   25.4875  -21.4294   -7.2254 N   0  0  0  0  0  0  0  0  0  0  0  0
   26.7311  -20.6139   -9.0290 N   0  0  0  0  0  0  0  0  0  0  0  0
   25.8751  -20.4822  -10.1798 C   0  0  0  0  0  0  0  0  0  0  0  0
   26.6730  -20.6034  -11.4481 C   0  0  0  0  0  0  0  0  0  0  0  0
   25.7967  -20.3794  -12.6654 C   0  0  0  0  0  0  0  0  0  0  0  0
   24.9564  -21.6165  -12.8903 C   0  0  2  0  0  0  0  0  0  0  0  0
   25.8147  -22.7160  -13.2838 N   0  0  0  0  0  0  0  0  0  0  0  0
   23.9514  -21.4110  -13.9562 C   0  0  0  0  0  0  0  0  0  0  0  0
   24.3105  -21.1669  -15.1150 O   0  0  0  0  0  0  0  0  0  0  0  0
   25.1400  -22.2190   -7.8109 N   0  0  0  0  0  0  0  0  0  0  0  0
   22.5416  -21.4844  -13.7080 C   0  0  2  0  0  0  0  0  0  0  0  0
   21.5135  -21.1560  -14.6294 C   0  0  0  0  0  0  0  0  0  0  0  0
   20.1522  -21.6844  -14.3673 C   0  0  0  0  0  0  0  0  0  0  0  0
   19.3625  -21.1958  -13.2364 C   0  0  0  0  0  0  0  0  0  0  0  0
   18.0103  -21.7140  -13.0392 O   0  0  0  0  0  0  0  0  0  0  0  0
   17.6094  -22.7220  -13.6433 C   0  0  0  0  0  0  0  0  0  0  0  0
   21.5329  -19.8254  -15.2489 O   0  0  0  0  0  0  0  0  0  0  0  0
   22.0756  -18.8908  -14.5138 O   0  0  0  0  0  0  0  0  0  0  0  0
   17.1434  -21.0852  -12.1674 N   0  0  0  0  0  0  0  0  0  0  0  0
   21.0713  -19.3733  -16.4851 C   0  0  0  0  0  0  0  0  0  0  0  0
   20.3305  -20.0665  -17.4882 C   0  0  0  0  0  0  0  0  0  0  0  0
   20.7703  -19.4177  -18.7887 C   0  0  0  0  0  0  0  0  0  0  0  0
   21.6806  -18.2848  -18.4209 C   0  0  1  0  0  0  0  0  0  0  0  0
   21.2569  -18.0036  -16.9996 C   0  0  0  0  0  0  0  0  0  0  0  0
   19.9647  -17.2846  -17.0433 O   0  0  0  0  0  0  0  0  0  0  0  0
   18.8622  -17.7938  -16.7042 O   0  0  0  0  0  0  0  0  0  0  0  0
  1  2  1  0
  2  3  2  0
  4  5  1  0
  4  2  1  0
  6  5  1  0
  7  6  1  0
  8  7  1  0
  8  9  1  6
 10  8  1  0
 11 10  2  0
 12 10  1  0
 13 12  1  0
 14 15  1  0
 13 14  1  6
 16 15  1  0
 16 20  1  0
 17 16  2  0
 18 21  1  0
 18 13  1  0
 19 18  2  0
 21 22  1  0
 22 23  1  0
 24 23  1  0
 25 21  1  0
 25 24  1  0
 25 26  1  6
 27 26  2  0
 28 26  1  0
M  END
$$$$
