REP.pdb
     RDKit          3D

 28 28  0  0  1  0  0  0  0  0999 V2000
   18.9191  -30.3979  -10.4632 N   0  0  0  0  0  0  0  0  0  0  0  0
   19.7951  -29.4334  -11.0321 C   0  0  0  0  0  0  0  0  0  0  0  0
   20.8763  -29.7845  -11.6621 N   0  0  0  0  0  0  0  0  0  0  0  0
   19.4832  -28.0658  -10.9073 N   0  0  0  0  0  0  0  0  0  0  0  0
   19.6922  -27.2850   -9.7153 C   0  0  0  0  0  0  0  0  0  0  0  0
   19.2101  -25.8753   -9.9160 C   0  0  0  0  0  0  0  0  0  0  0  0
   17.7760  -25.7192   -9.4484 C   0  0  0  0  0  0  0  0  0  0  0  0
   17.6830  -24.4867   -8.5772 C   0  0  2  0  0  0  0  0  0  0  0  0
   18.8034  -23.6120   -8.8601 N   0  0  0  0  0  0  0  0  0  0  0  0
   17.7157  -24.8280   -7.1381 C   0  0  0  0  0  0  0  0  0  0  0  0
   18.7685  -24.7273   -6.4957 O   0  0  0  0  0  0  0  0  0  0  0  0
   21.5149  -29.0864  -12.1000 N   0  0  0  0  0  0  0  0  0  0  0  0
   16.5553  -25.2809   -6.4290 C   0  0  2  0  0  0  0  0  0  0  0  0
   16.4820  -25.5599   -5.0395 C   0  0  0  0  0  0  0  0  0  0  0  0
   15.3424  -24.9931   -4.2772 C   0  0  0  0  0  0  0  0  0  0  0  0
   15.0493  -23.5600   -4.3203 C   0  0  0  0  0  0  0  0  0  0  0  0
   13.9543  -23.0354   -3.5070 O   0  0  0  0  0  0  0  0  0  0  0  0
   13.3672  -23.7471   -2.6761 C   0  0  0  0  0  0  0  0  0  0  0  0
   16.9225  -26.8791   -4.5701 O   0  0  0  0  0  0  0  0  0  0  0  0
   16.9200  -27.8113   -5.4863 O   0  0  0  0  0  0  0  0  0  0  0  0
   13.5474  -21.7234   -3.6492 N   0  0  0  0  0  0  0  0  0  0  0  0
   17.3419  -27.3226   -3.3160 C   0  0  0  0  0  0  0  0  0  0  0  0
   17.4118  -26.6165   -2.0782 C   0  0  0  0  0  0  0  0  0  0  0  0
   18.5674  -27.2714   -1.3425 C   0  0  0  0  0  0  0  0  0  0  0  0
   19.0254  -28.4196   -2.1908 C   0  0  1  0  0  0  0  0  0  0  0  0
   17.7944  -28.6948   -3.0199 C   0  0  0  0  0  0  0  0  0  0  0  0
   16.8128  -29.3923   -2.1605 O   0  0  0  0  0  0  0  0  0  0  0  0
   15.8556  -28.8186   -1.5737 O   0  0  0  0  0  0  0  0  0  0  0  0
  1  2  1  0
  2  3  2  0
  4  5  1  0
  4  2  1  0
  6  5  1  0
  7  6  1  0
  8  7  1  0
  8  9  1  6
 10  8  1  0
 11 10  2  0
 12 10  1  0
 13 12  1  0
 14 15  1  0
 13 14  1  6
 16 15  1  0
 16 20  1  0
 17 16  2  0
 18 21  1  0
 18 13  1  0
 19 18  2  0
 21 22  1  0
 22 23  1  0
 24 23  1  0
 25 21  1  0
 25 24  1  0
 25 26  1  1
 27 26  2  0
 28 26  1  0
M  END
$$$$
