REP.pdb
     RDKit          3D

 28 28  0  0  1  0  0  0  0  0999 V2000
   27.6575  -25.6742  -16.5586 N   0  0  0  0  0  0  0  0  0  0  0  0
   26.4022  -25.6787  -17.2261 C   0  0  0  0  0  0  0  0  0  0  0  0
   26.1540  -26.5003  -18.2020 N   0  0  0  0  0  0  0  0  0  0  0  0
   25.4064  -24.7694  -16.8202 N   0  0  0  0  0  0  0  0  0  0  0  0
   25.6521  -23.3994  -16.4500 C   0  0  0  0  0  0  0  0  0  0  0  0
   25.5262  -23.2236  -14.9623 C   0  0  0  0  0  0  0  0  0  0  0  0
   25.9937  -21.8453  -14.5361 C   0  0  0  0  0  0  0  0  0  0  0  0
   25.2998  -20.8124  -15.3956 C   0  0  2  0  0  0  0  0  0  0  0  0
   26.2688  -19.8350  -15.8495 N   0  0  0  0  0  0  0  0  0  0  0  0
   24.2400  -20.0996  -14.6491 C   0  0  0  0  0  0  0  0  0  0  0  0
   24.4736  -19.6286  -13.5288 O   0  0  0  0  0  0  0  0  0  0  0  0
   25.2519  -26.4849  -18.7246 N   0  0  0  0  0  0  0  0  0  0  0  0
   22.9183  -19.9199  -15.1737 C   0  0  2  0  0  0  0  0  0  0  0  0
   21.7994  -19.4141  -14.4624 C   0  0  0  0  0  0  0  0  0  0  0  0
   20.8826  -18.4917  -15.1764 C   0  0  0  0  0  0  0  0  0  0  0  0
   21.4049  -17.3665  -15.9526 C   0  0  0  0  0  0  0  0  0  0  0  0
   20.4668  -16.4939  -16.6557 O   0  0  0  0  0  0  0  0  0  0  0  0
   20.0931  -16.7448  -17.8130 C   0  0  0  0  0  0  0  0  0  0  0  0
   21.1331  -20.2948  -13.4954 O   0  0  0  0  0  0  0  0  0  0  0  0
   21.0715  -21.5498  -13.8550 O   0  0  0  0  0  0  0  0  0  0  0  0
   19.9729  -15.3611  -16.0393 N   0  0  0  0  0  0  0  0  0  0  0  0
   20.5466  -20.0338  -12.2571 C   0  0  0  0  0  0  0  0  0  0  0  0
   20.4107  -18.7978  -11.5575 C   0  0  0  0  0  0  0  0  0  0  0  0
   20.4314  -19.1967  -10.0925 C   0  0  0  0  0  0  0  0  0  0  0  0
   20.4677  -20.6950  -10.0525 C   0  0  1  0  0  0  0  0  0  0  0  0
   19.8991  -21.0490  -11.4053 C   0  0  0  0  0  0  0  0  0  0  0  0
   18.4367  -20.8309  -11.3560 O   0  0  0  0  0  0  0  0  0  0  0  0
   17.6353  -21.5640  -10.7158 O   0  0  0  0  0  0  0  0  0  0  0  0
  1  2  1  0
  2  3  2  0
  4  5  1  0
  4  2  1  0
  6  5  1  0
  7  6  1  0
  8  7  1  0
  8  9  1  1
 10  8  1  0
 11 10  2  0
 12 10  1  0
 13 12  1  0
 14 15  1  0
 13 14  1  6
 16 15  1  0
 16 20  1  0
 17 16  2  0
 18 21  1  0
 18 13  1  0
 19 18  2  0
 21 22  1  0
 22 23  1  0
 24 23  1  0
 25 21  1  0
 25 24  1  0
 25 26  1  1
 27 26  2  0
 28 26  1  0
M  END
$$$$
