REP.pdb
     RDKit          3D

 28 28  0  0  1  0  0  0  0  0999 V2000
   23.1817  -26.1272  -15.6289 N   0  0  0  0  0  0  0  0  0  0  0  0
   22.3808  -25.5918  -16.6745 C   0  0  0  0  0  0  0  0  0  0  0  0
   21.9441  -26.3367  -17.6459 N   0  0  0  0  0  0  0  0  0  0  0  0
   22.0558  -24.2217  -16.6565 N   0  0  0  0  0  0  0  0  0  0  0  0
   21.3700  -23.5582  -15.5777 C   0  0  0  0  0  0  0  0  0  0  0  0
   20.1504  -22.8425  -16.0882 C   0  0  0  0  0  0  0  0  0  0  0  0
   20.1645  -21.3830  -15.6768 C   0  0  0  0  0  0  0  0  0  0  0  0
   20.4997  -21.2989  -14.2045 C   0  0  2  0  0  0  0  0  0  0  0  0
   19.4417  -20.5928  -13.5099 N   0  0  0  0  0  0  0  0  0  0  0  0
   21.7686  -20.5751  -13.9710 C   0  0  0  0  0  0  0  0  0  0  0  0
   21.7968  -19.3383  -13.9990 O   0  0  0  0  0  0  0  0  0  0  0  0
   21.3504  -25.9556  -18.4136 N   0  0  0  0  0  0  0  0  0  0  0  0
   23.0027  -21.2536  -13.7042 C   0  0  2  0  0  0  0  0  0  0  0  0
   24.2748  -20.6434  -13.5514 C   0  0  0  0  0  0  0  0  0  0  0  0
   25.1427  -21.1163  -12.4450 C   0  0  0  0  0  0  0  0  0  0  0  0
   25.3087  -20.3198  -11.2287 C   0  0  0  0  0  0  0  0  0  0  0  0
   26.1979  -20.8086  -10.1769 O   0  0  0  0  0  0  0  0  0  0  0  0
   26.1808  -20.3187   -9.0360 C   0  0  0  0  0  0  0  0  0  0  0  0
   25.0055  -20.2452  -14.7606 O   0  0  0  0  0  0  0  0  0  0  0  0
   24.5566  -20.7763  -15.8673 O   0  0  0  0  0  0  0  0  0  0  0  0
   27.0839  -21.8359  -10.4352 N   0  0  0  0  0  0  0  0  0  0  0  0
   26.1008  -19.4013  -14.9442 C   0  0  0  0  0  0  0  0  0  0  0  0
   26.9387  -18.7745  -13.9743 C   0  0  0  0  0  0  0  0  0  0  0  0
   27.3849  -17.4878  -14.6459 C   0  0  0  0  0  0  0  0  0  0  0  0
   26.8434  -17.5188  -16.0435 C   0  0  1  0  0  0  0  0  0  0  0  0
   26.6386  -18.9990  -16.2573 C   0  0  0  0  0  0  0  0  0  0  0  0
   27.9645  -19.6138  -16.4870 O   0  0  0  0  0  0  0  0  0  0  0  0
   28.5439  -20.3704  -15.6616 O   0  0  0  0  0  0  0  0  0  0  0  0
  1  2  1  0
  2  3  2  0
  4  5  1  0
  4  2  1  0
  6  5  1  0
  7  6  1  0
  8  7  1  0
  8  9  1  1
 10  8  1  0
 11 10  2  0
 12 10  1  0
 13 12  1  0
 14 15  1  0
 13 14  1  1
 16 15  1  0
 16 20  1  0
 17 16  2  0
 18 21  1  0
 18 13  1  0
 19 18  2  0
 21 22  1  0
 22 23  1  0
 24 23  1  0
 25 21  1  0
 25 24  1  0
 25 26  1  6
 27 26  2  0
 28 26  1  0
M  END
$$$$
