REP.pdb
     RDKit          3D

 28 28  0  0  1  0  0  0  0  0999 V2000
   30.7999  -21.7902   -9.4473 N   0  0  0  0  0  0  0  0  0  0  0  0
   31.6344  -22.1891  -10.5271 C   0  0  0  0  0  0  0  0  0  0  0  0
   32.7953  -22.7366  -10.3229 N   0  0  0  0  0  0  0  0  0  0  0  0
   31.1917  -21.9837  -11.8481 N   0  0  0  0  0  0  0  0  0  0  0  0
   29.8886  -21.4852  -12.2055 C   0  0  0  0  0  0  0  0  0  0  0  0
   29.2355  -20.8209  -11.0256 C   0  0  0  0  0  0  0  0  0  0  0  0
   27.9638  -20.1058  -11.4394 C   0  0  0  0  0  0  0  0  0  0  0  0
   27.0111  -21.1188  -12.0338 C   0  0  2  0  0  0  0  0  0  0  0  0
   27.5097  -21.5480  -13.3251 N   0  0  0  0  0  0  0  0  0  0  0  0
   25.6580  -20.5527  -12.2263 C   0  0  0  0  0  0  0  0  0  0  0  0
   25.0393  -20.0726  -11.2681 O   0  0  0  0  0  0  0  0  0  0  0  0
   33.4420  -22.9744  -11.1054 N   0  0  0  0  0  0  0  0  0  0  0  0
   25.0089  -20.5297  -13.5041 C   0  0  1  0  0  0  0  0  0  0  0  0
   23.6976  -20.0547  -13.7660 C   0  0  0  0  0  0  0  0  0  0  0  0
   23.4493  -19.3842  -15.0659 C   0  0  0  0  0  0  0  0  0  0  0  0
   22.1037  -18.9469  -15.4397 C   0  0  0  0  0  0  0  0  0  0  0  0
   21.8479  -18.5414  -16.8203 O   0  0  0  0  0  0  0  0  0  0  0  0
   22.6980  -18.7046  -17.7105 C   0  0  0  0  0  0  0  0  0  0  0  0
   22.5609  -20.8378  -13.2667 O   0  0  0  0  0  0  0  0  0  0  0  0
   22.5934  -22.1058  -13.5819 O   0  0  0  0  0  0  0  0  0  0  0  0
   20.6423  -17.9625  -17.1644 N   0  0  0  0  0  0  0  0  0  0  0  0
   21.4437  -20.4722  -12.5159 C   0  0  0  0  0  0  0  0  0  0  0  0
   21.0107  -19.1775  -12.1012 C   0  0  0  0  0  0  0  0  0  0  0  0
   20.2900  -19.4304  -10.7887 C   0  0  0  0  0  0  0  0  0  0  0  0
   20.2621  -20.9161  -10.5897 C   0  0  2  0  0  0  0  0  0  0  0  0
   20.4320  -21.4154  -12.0041 C   0  0  0  0  0  0  0  0  0  0  0  0
   19.1448  -21.2315  -12.7097 O   0  0  0  0  0  0  0  0  0  0  0  0
   18.9628  -20.4001  -13.6400 O   0  0  0  0  0  0  0  0  0  0  0  0
  1  2  1  0
  2  3  2  0
  4  5  1  0
  4  2  1  0
  6  5  1  0
  7  6  1  0
  8  7  1  0
  8  9  1  6
 10  8  1  0
 11 10  2  0
 12 10  1  0
 13 12  1  0
 14 15  1  0
 13 14  1  1
 16 15  1  0
 16 20  1  0
 17 16  2  0
 18 21  1  0
 18 13  1  0
 19 18  2  0
 21 22  1  0
 22 23  1  0
 24 23  1  0
 25 21  1  0
 25 24  1  0
 25 26  1  6
 27 26  2  0
 28 26  1  0
M  END
$$$$
