REP.pdb
     RDKit          3D

 28 28  0  0  1  0  0  0  0  0999 V2000
   28.1824  -30.0249  -17.1556 N   0  0  0  0  0  0  0  0  0  0  0  0
   28.1687  -28.6816  -16.6900 C   0  0  0  0  0  0  0  0  0  0  0  0
   28.3916  -28.3920  -15.4427 N   0  0  0  0  0  0  0  0  0  0  0  0
   27.9054  -27.6421  -17.6028 N   0  0  0  0  0  0  0  0  0  0  0  0
   27.6455  -26.2748  -17.2320 C   0  0  0  0  0  0  0  0  0  0  0  0
   27.3568  -25.4430  -18.4506 C   0  0  0  0  0  0  0  0  0  0  0  0
   27.0277  -24.0131  -18.0674 C   0  0  0  0  0  0  0  0  0  0  0  0
   28.2578  -23.3815  -17.4550 C   0  0  2  0  0  0  0  0  0  0  0  0
   29.1729  -24.4225  -17.0317 N   0  0  0  0  0  0  0  0  0  0  0  0
   27.9209  -22.5552  -16.2751 C   0  0  0  0  0  0  0  0  0  0  0  0
   28.0223  -23.0239  -15.1343 O   0  0  0  0  0  0  0  0  0  0  0  0
   28.2828  -27.4245  -15.0697 N   0  0  0  0  0  0  0  0  0  0  0  0
   27.4717  -21.1988  -16.3895 C   0  0  2  0  0  0  0  0  0  0  0  0
   26.9068  -20.4159  -15.3493 C   0  0  0  0  0  0  0  0  0  0  0  0
   26.7173  -18.9655  -15.5974 C   0  0  0  0  0  0  0  0  0  0  0  0
   25.6687  -18.4895  -16.5004 C   0  0  0  0  0  0  0  0  0  0  0  0
   24.8613  -17.3374  -16.1046 O   0  0  0  0  0  0  0  0  0  0  0  0
   24.7650  -16.3348  -16.8307 C   0  0  0  0  0  0  0  0  0  0  0  0
   25.8691  -21.0224  -14.5067 O   0  0  0  0  0  0  0  0  0  0  0  0
   25.1978  -21.9865  -15.0794 O   0  0  0  0  0  0  0  0  0  0  0  0
   24.1827  -17.3424  -14.9018 N   0  0  0  0  0  0  0  0  0  0  0  0
   25.4640  -20.7528  -13.1995 C   0  0  0  0  0  0  0  0  0  0  0  0
   25.9206  -19.7486  -12.2946 C   0  0  0  0  0  0  0  0  0  0  0  0
   25.7378  -20.3745  -10.9233 C   0  0  0  0  0  0  0  0  0  0  0  0
   25.0631  -21.6961  -11.1372 C   0  0  2  0  0  0  0  0  0  0  0  0
   24.4068  -21.4883  -12.4806 C   0  0  0  0  0  0  0  0  0  0  0  0
   23.2196  -20.6289  -12.2796 O   0  0  0  0  0  0  0  0  0  0  0  0
   23.1758  -19.4049  -12.5788 O   0  0  0  0  0  0  0  0  0  0  0  0
  1  2  1  0
  2  3  2  0
  4  5  1  0
  4  2  1  0
  6  5  1  0
  7  6  1  0
  8  7  1  0
  8  9  1  1
 10  8  1  0
 11 10  2  0
 12 10  1  0
 13 12  1  0
 14 15  1  0
 13 14  1  6
 16 15  1  0
 16 20  1  0
 17 16  2  0
 18 21  1  0
 18 13  1  0
 19 18  2  0
 21 22  1  0
 22 23  1  0
 24 23  1  0
 25 21  1  0
 25 24  1  0
 25 26  1  1
 27 26  2  0
 28 26  1  0
M  END
$$$$
