REP.pdb
     RDKit          3D

 28 28  0  0  1  0  0  0  0  0999 V2000
   25.3786  -20.8513   -8.2027 N   0  0  0  0  0  0  0  0  0  0  0  0
   24.2561  -20.6487   -9.0513 C   0  0  0  0  0  0  0  0  0  0  0  0
   23.0395  -20.7409   -8.6033 N   0  0  0  0  0  0  0  0  0  0  0  0
   24.4693  -20.3429  -10.4093 N   0  0  0  0  0  0  0  0  0  0  0  0
   24.8855  -21.2954  -11.4062 C   0  0  0  0  0  0  0  0  0  0  0  0
   26.3854  -21.3840  -11.4583 C   0  0  0  0  0  0  0  0  0  0  0  0
   26.9265  -20.7159  -12.7075 C   0  0  0  0  0  0  0  0  0  0  0  0
   26.0029  -21.0307  -13.8628 C   0  0  2  0  0  0  0  0  0  0  0  0
   25.5366  -22.3980  -13.7471 N   0  0  0  0  0  0  0  0  0  0  0  0
   26.6857  -20.8845  -15.1670 C   0  0  0  0  0  0  0  0  0  0  0  0
   27.8654  -20.5143  -15.2167 O   0  0  0  0  0  0  0  0  0  0  0  0
   22.2095  -20.5942   -9.2170 N   0  0  0  0  0  0  0  0  0  0  0  0
   26.0315  -21.1599  -16.4123 C   0  0  2  0  0  0  0  0  0  0  0  0
   26.0143  -20.3135  -17.5513 C   0  0  0  0  0  0  0  0  0  0  0  0
   24.9132  -20.4896  -18.5299 C   0  0  0  0  0  0  0  0  0  0  0  0
   24.8251  -19.6435  -19.7206 C   0  0  0  0  0  0  0  0  0  0  0  0
   25.2217  -20.1962  -21.0141 O   0  0  0  0  0  0  0  0  0  0  0  0
   25.1261  -21.4105  -21.2554 C   0  0  0  0  0  0  0  0  0  0  0  0
   26.4618  -18.9245  -17.3933 O   0  0  0  0  0  0  0  0  0  0  0  0
   25.9520  -18.3026  -16.3629 O   0  0  0  0  0  0  0  0  0  0  0  0
   25.7158  -19.3690  -22.0034 N   0  0  0  0  0  0  0  0  0  0  0  0
   27.3340  -18.1415  -18.1493 C   0  0  0  0  0  0  0  0  0  0  0  0
   28.0257  -18.4575  -19.3565 C   0  0  0  0  0  0  0  0  0  0  0  0
   29.2995  -17.6346  -19.2803 C   0  0  0  0  0  0  0  0  0  0  0  0
   29.1961  -16.7904  -18.0457 C   0  0  2  0  0  0  0  0  0  0  0  0
   27.7027  -16.7497  -17.8296 C   0  0  0  0  0  0  0  0  0  0  0  0
   27.1242  -15.8171  -18.8216 O   0  0  0  0  0  0  0  0  0  0  0  0
   27.1801  -14.5612  -18.7257 O   0  0  0  0  0  0  0  0  0  0  0  0
  1  2  1  0
  2  3  2  0
  4  5  1  0
  4  2  1  0
  6  5  1  0
  7  6  1  0
  8  7  1  0
  8  9  1  1
 10  8  1  0
 11 10  2  0
 12 10  1  0
 13 12  1  0
 14 15  1  0
 13 14  1  1
 16 15  1  0
 16 20  1  0
 17 16  2  0
 18 21  1  0
 18 13  1  0
 19 18  2  0
 21 22  1  0
 22 23  1  0
 24 23  1  0
 25 21  1  0
 25 24  1  0
 25 26  1  6
 27 26  2  0
 28 26  1  0
M  END
$$$$
