REP.pdb
     RDKit          3D

 28 28  0  0  1  0  0  0  0  0999 V2000
   31.5904  -22.1035   -9.9727 N   0  0  0  0  0  0  0  0  0  0  0  0
   30.7203  -21.6392   -8.9486 C   0  0  0  0  0  0  0  0  0  0  0  0
   31.0842  -20.7088   -8.1173 N   0  0  0  0  0  0  0  0  0  0  0  0
   29.4352  -22.2033   -8.8326 N   0  0  0  0  0  0  0  0  0  0  0  0
   28.2644  -21.7177   -9.5164 C   0  0  0  0  0  0  0  0  0  0  0  0
   28.6315  -20.6245  -10.4809 C   0  0  0  0  0  0  0  0  0  0  0  0
   27.3916  -19.9772  -11.0668 C   0  0  0  0  0  0  0  0  0  0  0  0
   26.3805  -21.0592  -11.3736 C   0  0  2  0  0  0  0  0  0  0  0  0
   27.0540  -22.1875  -11.9848 N   0  0  0  0  0  0  0  0  0  0  0  0
   25.3350  -20.5849  -12.3065 C   0  0  0  0  0  0  0  0  0  0  0  0
   24.6372  -19.6047  -12.0170 O   0  0  0  0  0  0  0  0  0  0  0  0
   30.4703  -20.3909   -7.3368 N   0  0  0  0  0  0  0  0  0  0  0  0
   25.0831  -21.2204  -13.5663 C   0  0  1  0  0  0  0  0  0  0  0  0
   24.0651  -20.8684  -14.4902 C   0  0  0  0  0  0  0  0  0  0  0  0
   24.2396  -21.2798  -15.9049 C   0  0  0  0  0  0  0  0  0  0  0  0
   23.2163  -20.9768  -16.9061 C   0  0  0  0  0  0  0  0  0  0  0  0
   23.4094  -21.4380  -18.2794 O   0  0  0  0  0  0  0  0  0  0  0  0
   24.4322  -21.1485  -18.9212 C   0  0  0  0  0  0  0  0  0  0  0  0
   22.6717  -20.8795  -14.0284 O   0  0  0  0  0  0  0  0  0  0  0  0
   22.3879  -21.8309  -13.1784 O   0  0  0  0  0  0  0  0  0  0  0  0
   22.4470  -22.2130  -18.8960 N   0  0  0  0  0  0  0  0  0  0  0  0
   21.5882  -20.0570  -14.3364 C   0  0  0  0  0  0  0  0  0  0  0  0
   21.4765  -19.0304  -15.3208 C   0  0  0  0  0  0  0  0  0  0  0  0
   20.4843  -18.0491  -14.7222 C   0  0  0  0  0  0  0  0  0  0  0  0
   19.9945  -18.6558  -13.4418 C   0  0  2  0  0  0  0  0  0  0  0  0
   20.2718  -20.1213  -13.6743 C   0  0  0  0  0  0  0  0  0  0  0  0
   19.2452  -20.6369  -14.6064 O   0  0  0  0  0  0  0  0  0  0  0  0
   19.4774  -20.9616  -15.8023 O   0  0  0  0  0  0  0  0  0  0  0  0
  1  2  1  0
  2  3  2  0
  4  5  1  0
  4  2  1  0
  6  5  1  0
  7  6  1  0
  8  7  1  0
  8  9  1  6
 10  8  1  0
 11 10  2  0
 12 10  1  0
 13 12  1  0
 14 15  1  0
 13 14  1  1
 16 15  1  0
 16 20  1  0
 17 16  2  0
 18 21  1  0
 18 13  1  0
 19 18  2  0
 21 22  1  0
 22 23  1  0
 24 23  1  0
 25 21  1  0
 25 24  1  0
 25 26  1  6
 27 26  2  0
 28 26  1  0
M  END
$$$$
