REP.pdb
     RDKit          3D

 28 28  0  0  1  0  0  0  0  0999 V2000
   18.1022  -15.8732  -15.7108 N   0  0  0  0  0  0  0  0  0  0  0  0
   17.6549  -16.1342  -17.0348 C   0  0  0  0  0  0  0  0  0  0  0  0
   17.0870  -17.2596  -17.3512 N   0  0  0  0  0  0  0  0  0  0  0  0
   17.8340  -15.1497  -18.0258 N   0  0  0  0  0  0  0  0  0  0  0  0
   18.4991  -13.8897  -17.8156 C   0  0  0  0  0  0  0  0  0  0  0  0
   17.5962  -12.7472  -18.1893 C   0  0  0  0  0  0  0  0  0  0  0  0
   18.1021  -12.0379  -19.4306 C   0  0  0  0  0  0  0  0  0  0  0  0
   19.2574  -11.1438  -19.0394 C   0  0  2  0  0  0  0  0  0  0  0  0
   20.3507  -11.9582  -18.5476 N   0  0  0  0  0  0  0  0  0  0  0  0
   18.8770  -10.1898  -17.9746 C   0  0  0  0  0  0  0  0  0  0  0  0
   17.7322   -9.7216  -17.9349 O   0  0  0  0  0  0  0  0  0  0  0  0
   16.7832  -17.4733  -18.3255 N   0  0  0  0  0  0  0  0  0  0  0  0
   19.7935   -9.7695  -16.9558 C   0  0  1  0  0  0  0  0  0  0  0  0
   19.5528   -8.7707  -15.9768 C   0  0  0  0  0  0  0  0  0  0  0  0
   18.7346   -9.1400  -14.7956 C   0  0  0  0  0  0  0  0  0  0  0  0
   18.5561   -8.2047  -13.6844 C   0  0  0  0  0  0  0  0  0  0  0  0
   17.7383   -8.6082  -12.5424 O   0  0  0  0  0  0  0  0  0  0  0  0
   17.2020   -9.7271  -12.4940 C   0  0  0  0  0  0  0  0  0  0  0  0
   20.6206   -7.8051  -15.6904 O   0  0  0  0  0  0  0  0  0  0  0  0
   21.8034   -8.3354  -15.5235 O   0  0  0  0  0  0  0  0  0  0  0  0
   17.5445   -7.7428  -11.4838 N   0  0  0  0  0  0  0  0  0  0  0  0
   20.6019   -6.4166  -15.5592 C   0  0  0  0  0  0  0  0  0  0  0  0
   19.4941   -5.5174  -15.5640 C   0  0  0  0  0  0  0  0  0  0  0  0
   20.0620   -4.2325  -16.1404 C   0  0  0  0  0  0  0  0  0  0  0  0
   21.5323   -4.4559  -16.3298 C   0  0  2  0  0  0  0  0  0  0  0  0
   21.7974   -5.5774  -15.3547 C   0  0  0  0  0  0  0  0  0  0  0  0
   21.8033   -5.0036  -13.9912 O   0  0  0  0  0  0  0  0  0  0  0  0
   22.6786   -4.2013  -13.5672 O   0  0  0  0  0  0  0  0  0  0  0  0
  1  2  1  0
  2  3  2  0
  4  5  1  0
  4  2  1  0
  6  5  1  0
  7  6  1  0
  8  7  1  0
  8  9  1  1
 10  8  1  0
 11 10  2  0
 12 10  1  0
 13 12  1  0
 14 15  1  0
 13 14  1  6
 16 15  1  0
 16 20  1  0
 17 16  2  0
 18 21  1  0
 18 13  1  0
 19 18  2  0
 21 22  1  0
 22 23  1  0
 24 23  1  0
 25 21  1  0
 25 24  1  0
 25 26  1  1
 27 26  2  0
 28 26  1  0
M  END
$$$$
