THY.pdb
     RDKit          3D

 30 31  0  0  1  0  0  0  0  0999 V2000
   24.5961  -24.0449  -15.8612 C   0  0  0  0  0  0  0  0  0  0  0  0
   26.0968  -23.8827  -15.9695 C   0  0  1  0  0  0  0  0  0  0  0  0
   26.5867  -24.9841  -16.6206 O   0  0  0  0  0  0  0  0  0  0  0  0
   26.4643  -22.5806  -16.6542 C   0  0  2  0  0  0  0  0  0  0  0  0
   27.9276  -22.5075  -16.6707 N   0  0  0  0  0  0  0  0  0  0  0  0
   25.9190  -21.4049  -15.9622 C   0  0  0  0  0  0  0  0  0  0  0  0
   26.4983  -20.9730  -14.9212 O   0  0  0  0  0  0  0  0  0  0  0  0
   24.7616  -20.6790  -16.3621 N   0  0  0  0  0  0  0  0  0  0  0  0
   24.2470  -19.5131  -15.6641 C   0  0  1  0  0  0  0  0  0  0  0  0
   24.4199  -18.3027  -16.4896 C   0  0  0  0  0  0  0  0  0  0  0  0
   25.7664  -17.7617  -16.6349 C   0  0  0  0  0  0  0  0  0  0  0  0
   26.9983  -18.1103  -16.1569 C   0  0  0  0  0  0  0  0  0  0  0  0
   27.9655  -17.2590  -16.5781 N   0  0  0  0  0  0  0  0  0  0  0  0
   27.3027  -16.3546  -17.3407 C   0  0  0  0  0  0  0  0  0  0  0  0
   25.9966  -16.6444  -17.3808 N   0  0  0  0  0  0  0  0  0  0  0  0
   22.7987  -19.7307  -15.2995 C   0  0  0  0  0  0  0  0  0  0  0  0
   22.0243  -20.4164  -16.0312 O   0  0  0  0  0  0  0  0  0  0  0  0
   15.0552  -18.3879  -11.1510 O   0  0  0  0  0  0  0  0  0  0  0  0
   16.4179  -18.4659  -11.4694 C   0  0  0  0  0  0  0  0  0  0  0  0
   17.0552  -17.3222  -11.9086 C   0  0  0  0  0  0  0  0  0  0  0  0
   18.3862  -17.3606  -12.2284 C   0  0  0  0  0  0  0  0  0  0  0  0
   19.1333  -18.5240  -12.1270 C   0  0  0  0  0  0  0  0  0  0  0  0
   20.5453  -18.5550  -12.4743 C   0  0  0  0  0  0  0  0  0  0  0  0
   20.8148  -19.2413  -13.8162 C   0  0  2  0  0  0  0  0  0  0  0  0
   22.2383  -19.1796  -14.1266 N   0  0  0  0  0  0  0  0  0  0  0  0
   19.9829  -18.7119  -14.8901 C   0  0  0  0  0  0  0  0  0  0  0  0
   20.3310  -17.4962  -15.5310 O   0  0  0  0  0  0  0  0  0  0  0  0
   18.4973  -19.6574  -11.6906 C   0  0  0  0  0  0  0  0  0  0  0  0
   17.1370  -19.6275  -11.3612 C   0  0  0  0  0  0  0  0  0  0  0  0
   18.9381  -19.2455  -15.3309 O   0  0  0  0  0  0  0  0  0  0  0  0
  2  1  1  6
  2  3  1  0
  4  2  1  0
  4  5  1  1
  6  4  1  0
  6  7  2  0
  8  6  1  0
  9  8  1  0
  9 10  1  6
 10 11  1  0
 11 15  1  0
 11 12  2  0
 12 13  1  0
 14 13  1  0
 15 14  2  0
 16  9  1  0
 17 16  2  0
 18 19  1  0
 19 29  2  0
 20 19  1  0
 20 21  2  0
 21 22  1  0
 22 28  2  0
 22 23  1  0
 24 23  1  1
 24 25  1  0
 25 16  1  0
 26 24  1  0
 27 26  1  0
 29 28  1  0
 30 26  2  0
M  END
$$$$
