THY.pdb
     RDKit          3D

 30 31  0  0  1  0  0  0  0  0999 V2000
   30.5432   -8.5226  -17.5738 C   0  0  0  0  0  0  0  0  0  0  0  0
   31.2236   -9.3189  -18.6660 C   0  0  1  0  0  0  0  0  0  0  0  0
   32.5717   -9.2875  -18.4231 O   0  0  0  0  0  0  0  0  0  0  0  0
   30.6718  -10.7289  -18.7481 C   0  0  2  0  0  0  0  0  0  0  0  0
   31.3834  -11.4009  -19.8385 N   0  0  0  0  0  0  0  0  0  0  0  0
   29.2266  -10.7555  -19.0115 C   0  0  0  0  0  0  0  0  0  0  0  0
   28.8070  -10.5663  -20.1921 O   0  0  0  0  0  0  0  0  0  0  0  0
   28.2168  -10.9804  -18.0337 N   0  0  0  0  0  0  0  0  0  0  0  0
   26.7912  -10.8638  -18.2900 C   0  0  1  0  0  0  0  0  0  0  0  0
   26.1142  -12.1462  -18.0183 C   0  0  0  0  0  0  0  0  0  0  0  0
   26.3613  -13.2559  -18.9317 C   0  0  0  0  0  0  0  0  0  0  0  0
   26.3256  -13.4087  -20.2893 C   0  0  0  0  0  0  0  0  0  0  0  0
   26.6299  -14.6749  -20.6656 N   0  0  0  0  0  0  0  0  0  0  0  0
   26.8591  -15.3227  -19.4965 C   0  0  0  0  0  0  0  0  0  0  0  0
   26.7023  -14.4889  -18.4613 N   0  0  0  0  0  0  0  0  0  0  0  0
   26.2100   -9.7458  -17.4595 C   0  0  0  0  0  0  0  0  0  0  0  0
   26.5537   -9.5649  -16.2535 O   0  0  0  0  0  0  0  0  0  0  0  0
   21.7253   -2.3429  -15.5142 O   0  0  0  0  0  0  0  0  0  0  0  0
   22.4928   -3.3540  -16.1082 C   0  0  0  0  0  0  0  0  0  0  0  0
   21.8752   -4.2070  -17.0015 C   0  0  0  0  0  0  0  0  0  0  0  0
   22.5938   -5.2064  -17.6016 C   0  0  0  0  0  0  0  0  0  0  0  0
   23.9420   -5.3997  -17.3430 C   0  0  0  0  0  0  0  0  0  0  0  0
   24.6945   -6.4676  -17.9820 C   0  0  0  0  0  0  0  0  0  0  0  0
   24.6405   -7.7845  -17.2028 C   0  0  2  0  0  0  0  0  0  0  0  0
   25.2552   -8.8493  -17.9870 N   0  0  0  0  0  0  0  0  0  0  0  0
   23.2905   -8.1181  -16.7649 C   0  0  0  0  0  0  0  0  0  0  0  0
   22.4551   -8.9267  -17.5760 O   0  0  0  0  0  0  0  0  0  0  0  0
   24.5518   -4.5508  -16.4559 C   0  0  0  0  0  0  0  0  0  0  0  0
   23.8253   -3.5262  -15.8378 C   0  0  0  0  0  0  0  0  0  0  0  0
   22.7621   -7.7473  -15.6907 O   0  0  0  0  0  0  0  0  0  0  0  0
  2  1  1  1
  2  3  1  0
  4  2  1  0
  4  5  1  6
  6  4  1  0
  6  7  2  0
  8  6  1  0
  9  8  1  0
  9 10  1  1
 10 11  1  0
 11 15  1  0
 11 12  2  0
 12 13  1  0
 14 13  1  0
 15 14  2  0
 16  9  1  0
 17 16  2  0
 18 19  1  0
 19 29  2  0
 20 19  1  0
 20 21  2  0
 21 22  1  0
 22 28  2  0
 22 23  1  0
 24 23  1  6
 24 25  1  0
 25 16  1  0
 26 24  1  0
 27 26  1  0
 29 28  1  0
 30 26  2  0
M  END
$$$$
