THY.pdb
     RDKit          3D

 30 31  0  0  1  0  0  0  0  0999 V2000
   29.5100  -22.1871  -16.0686 C   0  0  0  0  0  0  0  0  0  0  0  0
   29.1849  -21.8260  -17.5018 C   0  0  1  0  0  0  0  0  0  0  0  0
   29.9719  -22.6005  -18.3130 O   0  0  0  0  0  0  0  0  0  0  0  0
   27.7047  -21.9848  -17.7900 C   0  0  2  0  0  0  0  0  0  0  0  0
   27.5178  -21.7101  -19.2171 N   0  0  0  0  0  0  0  0  0  0  0  0
   26.8734  -21.0683  -16.9978 C   0  0  0  0  0  0  0  0  0  0  0  0
   26.8619  -21.1747  -15.7352 O   0  0  0  0  0  0  0  0  0  0  0  0
   26.0501  -20.0366  -17.5308 N   0  0  0  0  0  0  0  0  0  0  0  0
   25.2017  -19.1720  -16.7281 C   0  0  1  0  0  0  0  0  0  0  0  0
   24.9414  -17.9053  -17.4383 C   0  0  0  0  0  0  0  0  0  0  0  0
   25.5619  -16.6916  -16.9197 C   0  0  0  0  0  0  0  0  0  0  0  0
   26.3223  -16.3945  -15.8238 C   0  0  0  0  0  0  0  0  0  0  0  0
   26.6533  -15.0808  -15.7768 N   0  0  0  0  0  0  0  0  0  0  0  0
   26.0736  -14.5527  -16.8832 C   0  0  0  0  0  0  0  0  0  0  0  0
   25.4234  -15.5010  -17.5684 N   0  0  0  0  0  0  0  0  0  0  0  0
   23.9175  -19.8871  -16.3857 C   0  0  0  0  0  0  0  0  0  0  0  0
   23.5712  -20.9526  -16.9775 O   0  0  0  0  0  0  0  0  0  0  0  0
   22.9039  -21.7079   -8.0208 O   0  0  0  0  0  0  0  0  0  0  0  0
   23.1089  -21.4886   -9.3899 C   0  0  0  0  0  0  0  0  0  0  0  0
   24.1785  -20.7050   -9.7756 C   0  0  0  0  0  0  0  0  0  0  0  0
   24.4100  -20.4695  -11.1046 C   0  0  0  0  0  0  0  0  0  0  0  0
   23.5978  -20.9963  -12.0969 C   0  0  0  0  0  0  0  0  0  0  0  0
   23.8497  -20.7356  -13.5053 C   0  0  0  0  0  0  0  0  0  0  0  0
   22.6207  -20.1947  -14.2411 C   0  0  2  0  0  0  0  0  0  0  0  0
   23.0412  -19.4020  -15.3907 N   0  0  0  0  0  0  0  0  0  0  0  0
   21.7177  -19.4669  -13.3578 C   0  0  0  0  0  0  0  0  0  0  0  0
   22.0576  -18.1691  -12.8997 O   0  0  0  0  0  0  0  0  0  0  0  0
   22.5371  -21.7740  -11.7102 C   0  0  0  0  0  0  0  0  0  0  0  0
   22.2928  -22.0203  -10.3540 C   0  0  0  0  0  0  0  0  0  0  0  0
   20.6143  -19.8882  -12.9386 O   0  0  0  0  0  0  0  0  0  0  0  0
  2  1  1  1
  2  3  1  0
  4  2  1  0
  4  5  1  6
  6  4  1  0
  6  7  2  0
  8  6  1  0
  9  8  1  0
  9 10  1  6
 10 11  1  0
 11 15  1  0
 11 12  2  0
 12 13  1  0
 14 13  1  0
 15 14  2  0
 16  9  1  0
 17 16  2  0
 18 19  1  0
 19 29  2  0
 20 19  1  0
 20 21  2  0
 21 22  1  0
 22 28  2  0
 22 23  1  0
 24 23  1  1
 24 25  1  0
 25 16  1  0
 26 24  1  0
 27 26  1  0
 29 28  1  0
 30 26  2  0
M  END
$$$$
