THY.pdb
     RDKit          3D

 30 31  0  0  1  0  0  0  0  0999 V2000
   26.5611  -34.5349  -14.4857 C   0  0  0  0  0  0  0  0  0  0  0  0
   27.7899  -33.7580  -14.9060 C   0  0  1  0  0  0  0  0  0  0  0  0
   28.7647  -34.6659  -15.2261 O   0  0  0  0  0  0  0  0  0  0  0  0
   27.4783  -32.8021  -16.0412 C   0  0  2  0  0  0  0  0  0  0  0  0
   28.7142  -32.0707  -16.3321 N   0  0  0  0  0  0  0  0  0  0  0  0
   26.4103  -31.8518  -15.7025 C   0  0  0  0  0  0  0  0  0  0  0  0
   26.7147  -30.7281  -15.2022 O   0  0  0  0  0  0  0  0  0  0  0  0
   25.0175  -32.0800  -15.8880 N   0  0  0  0  0  0  0  0  0  0  0  0
   23.9835  -31.1016  -15.5963 C   0  0  1  0  0  0  0  0  0  0  0  0
   23.2397  -30.7594  -16.8236 C   0  0  0  0  0  0  0  0  0  0  0  0
   23.9075  -29.9264  -17.8171 C   0  0  0  0  0  0  0  0  0  0  0  0
   24.5350  -30.1670  -19.0070 C   0  0  0  0  0  0  0  0  0  0  0  0
   25.0197  -29.0302  -19.5641 N   0  0  0  0  0  0  0  0  0  0  0  0
   24.6786  -28.0573  -18.6832 C   0  0  0  0  0  0  0  0  0  0  0  0
   24.0178  -28.5791  -17.6427 N   0  0  0  0  0  0  0  0  0  0  0  0
   23.0640  -31.6307  -14.5229 C   0  0  0  0  0  0  0  0  0  0  0  0
   22.6890  -32.8409  -14.5053 O   0  0  0  0  0  0  0  0  0  0  0  0
   19.5079  -25.2970  -11.8361 O   0  0  0  0  0  0  0  0  0  0  0  0
   20.1240  -26.5475  -11.6905 C   0  0  0  0  0  0  0  0  0  0  0  0
   19.3921  -27.5784  -11.1352 C   0  0  0  0  0  0  0  0  0  0  0  0
   19.9611  -28.8141  -10.9779 C   0  0  0  0  0  0  0  0  0  0  0  0
   21.2674  -29.0760  -11.3609 C   0  0  0  0  0  0  0  0  0  0  0  0
   21.8637  -30.3907  -11.1844 C   0  0  0  0  0  0  0  0  0  0  0  0
   21.7126  -31.2848  -12.4182 C   0  0  2  0  0  0  0  0  0  0  0  0
   22.5778  -30.8021  -13.4882 N   0  0  0  0  0  0  0  0  0  0  0  0
   20.3237  -31.4237  -12.8393 C   0  0  0  0  0  0  0  0  0  0  0  0
   19.4330  -32.2467  -12.1051 O   0  0  0  0  0  0  0  0  0  0  0  0
   21.9910  -28.0501  -11.9119 C   0  0  0  0  0  0  0  0  0  0  0  0
   21.4174  -26.7838  -12.0769 C   0  0  0  0  0  0  0  0  0  0  0  0
   19.8058  -30.8631  -13.8333 O   0  0  0  0  0  0  0  0  0  0  0  0
  2  1  1  6
  2  3  1  0
  4  2  1  0
  4  5  1  1
  6  4  1  0
  6  7  2  0
  8  6  1  0
  9  8  1  0
  9 10  1  6
 10 11  1  0
 11 15  1  0
 11 12  2  0
 12 13  1  0
 14 13  1  0
 15 14  2  0
 16  9  1  0
 17 16  2  0
 18 19  1  0
 19 29  2  0
 20 19  1  0
 20 21  2  0
 21 22  1  0
 22 28  2  0
 22 23  1  0
 24 23  1  1
 24 25  1  0
 25 16  1  0
 26 24  1  0
 27 26  1  0
 29 28  1  0
 30 26  2  0
M  END
$$$$
