THY.pdb
     RDKit          3D

 30 31  0  0  1  0  0  0  0  0999 V2000
   17.1606   -8.9413  -15.2062 C   0  0  0  0  0  0  0  0  0  0  0  0
   17.8343  -10.2717  -15.4641 C   0  0  1  0  0  0  0  0  0  0  0  0
   16.9271  -11.2578  -15.1780 O   0  0  0  0  0  0  0  0  0  0  0  0
   18.3693  -10.3553  -16.8804 C   0  0  2  0  0  0  0  0  0  0  0  0
   18.9519  -11.6907  -17.0363 N   0  0  0  0  0  0  0  0  0  0  0  0
   19.3896   -9.3358  -17.1600 C   0  0  0  0  0  0  0  0  0  0  0  0
   20.6121   -9.6141  -16.9763 O   0  0  0  0  0  0  0  0  0  0  0  0
   19.1279   -8.0190  -17.6333 N   0  0  0  0  0  0  0  0  0  0  0  0
   20.1591   -7.0574  -17.9846 C   0  0  1  0  0  0  0  0  0  0  0  0
   19.9567   -6.5676  -19.3615 C   0  0  0  0  0  0  0  0  0  0  0  0
   20.1216   -7.5178  -20.4555 C   0  0  0  0  0  0  0  0  0  0  0  0
   19.2803   -8.0812  -21.3733 C   0  0  0  0  0  0  0  0  0  0  0  0
   19.9296   -8.9407  -22.1963 N   0  0  0  0  0  0  0  0  0  0  0  0
   21.2153   -8.9043  -21.7668 C   0  0  0  0  0  0  0  0  0  0  0  0
   21.3397   -8.0624  -20.7338 N   0  0  0  0  0  0  0  0  0  0  0  0
   20.1632   -5.9225  -16.9898 C   0  0  0  0  0  0  0  0  0  0  0  0
   19.0947   -5.3337  -16.6479 O   0  0  0  0  0  0  0  0  0  0  0  0
   19.0347   -8.7289  -11.3645 O   0  0  0  0  0  0  0  0  0  0  0  0
   19.8132   -7.7971  -12.0646 C   0  0  0  0  0  0  0  0  0  0  0  0
   19.4816   -6.4602  -11.9667 C   0  0  0  0  0  0  0  0  0  0  0  0
   20.2200   -5.5213  -12.6365 C   0  0  0  0  0  0  0  0  0  0  0  0
   21.3075   -5.8662  -13.4241 C   0  0  0  0  0  0  0  0  0  0  0  0
   22.0817   -4.8614  -14.1355 C   0  0  0  0  0  0  0  0  0  0  0  0
   21.3986   -4.3797  -15.4184 C   0  0  2  0  0  0  0  0  0  0  0  0
   21.3579   -5.4628  -16.3941 N   0  0  0  0  0  0  0  0  0  0  0  0
   22.0063   -3.1666  -15.9518 C   0  0  0  0  0  0  0  0  0  0  0  0
   21.9914   -1.9676  -15.1958 O   0  0  0  0  0  0  0  0  0  0  0  0
   21.6338   -7.1944  -13.5188 C   0  0  0  0  0  0  0  0  0  0  0  0
   20.8849   -8.1611  -12.8374 C   0  0  0  0  0  0  0  0  0  0  0  0
   22.5709   -3.0656  -17.0661 O   0  0  0  0  0  0  0  0  0  0  0  0
  2  1  1  6
  2  3  1  0
  4  2  1  0
  4  5  1  1
  6  4  1  0
  6  7  2  0
  8  6  1  0
  9  8  1  0
  9 10  1  6
 10 11  1  0
 11 15  1  0
 11 12  2  0
 12 13  1  0
 14 13  1  0
 15 14  2  0
 16  9  1  0
 17 16  2  0
 18 19  1  0
 19 29  2  0
 20 19  1  0
 20 21  2  0
 21 22  1  0
 22 28  2  0
 22 23  1  0
 24 23  1  1
 24 25  1  0
 25 16  1  0
 26 24  1  0
 27 26  1  0
 29 28  1  0
 30 26  2  0
M  END
$$$$
