THY.pdb
     RDKit          3D

 30 31  0  0  1  0  0  0  0  0999 V2000
   23.4856  -10.7197  -20.0867 C   0  0  0  0  0  0  0  0  0  0  0  0
   22.0184  -10.4508  -20.3424 C   0  0  1  0  0  0  0  0  0  0  0  0
   21.4237  -11.6484  -20.6411 O   0  0  0  0  0  0  0  0  0  0  0  0
   21.3715   -9.7484  -19.1646 C   0  0  2  0  0  0  0  0  0  0  0  0
   19.9224   -9.8921  -19.3278 N   0  0  0  0  0  0  0  0  0  0  0  0
   21.7215   -8.3232  -19.0949 C   0  0  0  0  0  0  0  0  0  0  0  0
   22.9398   -7.9868  -19.0038 O   0  0  0  0  0  0  0  0  0  0  0  0
   20.7912   -7.2461  -19.1199 N   0  0  0  0  0  0  0  0  0  0  0  0
   21.1514   -5.8511  -18.9305 C   0  0  1  0  0  0  0  0  0  0  0  0
   20.3656   -4.9906  -19.8352 C   0  0  0  0  0  0  0  0  0  0  0  0
   20.7404   -4.9588  -21.2443 C   0  0  0  0  0  0  0  0  0  0  0  0
   21.9173   -5.0805  -21.9281 C   0  0  0  0  0  0  0  0  0  0  0  0
   21.7408   -4.9621  -23.2670 N   0  0  0  0  0  0  0  0  0  0  0  0
   20.4076   -4.7590  -23.4094 C   0  0  0  0  0  0  0  0  0  0  0  0
   19.8048   -4.7555  -22.2143 N   0  0  0  0  0  0  0  0  0  0  0  0
   20.9526   -5.4610  -17.4863 C   0  0  0  0  0  0  0  0  0  0  0  0
   19.7998   -5.4141  -16.9625 O   0  0  0  0  0  0  0  0  0  0  0  0
   19.3889  -10.5809  -14.3146 O   0  0  0  0  0  0  0  0  0  0  0  0
   20.1321   -9.3927  -14.2973 C   0  0  0  0  0  0  0  0  0  0  0  0
   21.1916   -9.2691  -15.1743 C   0  0  0  0  0  0  0  0  0  0  0  0
   21.9399   -8.1223  -15.1860 C   0  0  0  0  0  0  0  0  0  0  0  0
   21.6712   -7.0605  -14.3361 C   0  0  0  0  0  0  0  0  0  0  0  0
   22.4756   -5.8490  -14.3531 C   0  0  0  0  0  0  0  0  0  0  0  0
   21.8885   -4.7555  -15.2497 C   0  0  2  0  0  0  0  0  0  0  0  0
   22.0415   -5.1292  -16.6510 N   0  0  0  0  0  0  0  0  0  0  0  0
   22.4406   -3.4383  -14.9568 C   0  0  0  0  0  0  0  0  0  0  0  0
   22.2567   -2.8542  -13.6783 O   0  0  0  0  0  0  0  0  0  0  0  0
   20.6186   -7.1867  -13.4669 C   0  0  0  0  0  0  0  0  0  0  0  0
   19.8479   -8.3553  -13.4481 C   0  0  0  0  0  0  0  0  0  0  0  0
   23.0956   -2.7302  -15.7569 O   0  0  0  0  0  0  0  0  0  0  0  0
  2  1  1  1
  2  3  1  0
  4  2  1  0
  4  5  1  6
  6  4  1  0
  6  7  2  0
  8  6  1  0
  9  8  1  0
  9 10  1  6
 10 11  1  0
 11 15  1  0
 11 12  2  0
 12 13  1  0
 14 13  1  0
 15 14  2  0
 16  9  1  0
 17 16  2  0
 18 19  1  0
 19 29  2  0
 20 19  1  0
 20 21  2  0
 21 22  1  0
 22 28  2  0
 22 23  1  0
 24 23  1  1
 24 25  1  0
 25 16  1  0
 26 24  1  0
 27 26  1  0
 29 28  1  0
 30 26  2  0
M  END
$$$$
