THY.pdb
     RDKit          3D

 30 31  0  0  1  0  0  0  0  0999 V2000
   27.0399  -26.6142  -16.9912 C   0  0  0  0  0  0  0  0  0  0  0  0
   28.4837  -26.8861  -17.3541 C   0  0  1  0  0  0  0  0  0  0  0  0
   28.5450  -28.1430  -17.8961 O   0  0  0  0  0  0  0  0  0  0  0  0
   29.0321  -25.8173  -18.2793 C   0  0  2  0  0  0  0  0  0  0  0  0
   30.4314  -26.1619  -18.5444 N   0  0  0  0  0  0  0  0  0  0  0  0
   28.9574  -24.4714  -17.6948 C   0  0  0  0  0  0  0  0  0  0  0  0
   29.8759  -24.0818  -16.9137 O   0  0  0  0  0  0  0  0  0  0  0  0
   27.9155  -23.5301  -17.9292 N   0  0  0  0  0  0  0  0  0  0  0  0
   27.8610  -22.2066  -17.3320 C   0  0  1  0  0  0  0  0  0  0  0  0
   27.5618  -21.1915  -18.3599 C   0  0  0  0  0  0  0  0  0  0  0  0
   27.6780  -19.7865  -17.9865 C   0  0  0  0  0  0  0  0  0  0  0  0
   28.6915  -18.8698  -17.9998 C   0  0  0  0  0  0  0  0  0  0  0  0
   28.2914  -17.6641  -17.5267 N   0  0  0  0  0  0  0  0  0  0  0  0
   26.9857  -17.8483  -17.2103 C   0  0  0  0  0  0  0  0  0  0  0  0
   26.6119  -19.1050  -17.4797 N   0  0  0  0  0  0  0  0  0  0  0  0
   26.8391  -22.1859  -16.2216 C   0  0  0  0  0  0  0  0  0  0  0  0
   25.7477  -22.8234  -16.3100 O   0  0  0  0  0  0  0  0  0  0  0  0
   23.0412  -20.1735   -8.4537 O   0  0  0  0  0  0  0  0  0  0  0  0
   23.9652  -20.3034   -9.4995 C   0  0  0  0  0  0  0  0  0  0  0  0
   23.6386  -19.7745  -10.7326 C   0  0  0  0  0  0  0  0  0  0  0  0
   24.5170  -19.8821  -11.7776 C   0  0  0  0  0  0  0  0  0  0  0  0
   25.7442  -20.5129  -11.6444 C   0  0  0  0  0  0  0  0  0  0  0  0
   26.6675  -20.6262  -12.7623 C   0  0  0  0  0  0  0  0  0  0  0  0
   26.0768  -21.3930  -13.9487 C   0  0  2  0  0  0  0  0  0  0  0  0
   27.0506  -21.4546  -15.0325 N   0  0  0  0  0  0  0  0  0  0  0  0
   24.7928  -20.8524  -14.3783 C   0  0  0  0  0  0  0  0  0  0  0  0
   23.5840  -21.4649  -13.9622 O   0  0  0  0  0  0  0  0  0  0  0  0
   26.0652  -21.0366  -10.4188 C   0  0  0  0  0  0  0  0  0  0  0  0
   25.1736  -20.9311   -9.3447 C   0  0  0  0  0  0  0  0  0  0  0  0
   24.6354  -19.8505  -15.1146 O   0  0  0  0  0  0  0  0  0  0  0  0
  2  1  1  6
  2  3  1  0
  4  2  1  0
  4  5  1  1
  6  4  1  0
  6  7  2  0
  8  6  1  0
  9  8  1  0
  9 10  1  6
 10 11  1  0
 11 15  1  0
 11 12  2  0
 12 13  1  0
 14 13  1  0
 15 14  2  0
 16  9  1  0
 17 16  2  0
 18 19  1  0
 19 29  2  0
 20 19  1  0
 20 21  2  0
 21 22  1  0
 22 28  2  0
 22 23  1  0
 24 23  1  1
 24 25  1  0
 25 16  1  0
 26 24  1  0
 27 26  1  0
 29 28  1  0
 30 26  2  0
M  END
$$$$
