THY.pdb
     RDKit          3D

 30 31  0  0  1  0  0  0  0  0999 V2000
   27.0718  -25.3148  -18.4497 C   0  0  0  0  0  0  0  0  0  0  0  0
   26.2345  -24.1499  -17.9679 C   0  0  1  0  0  0  0  0  0  0  0  0
   25.8784  -24.4046  -16.6696 O   0  0  0  0  0  0  0  0  0  0  0  0
   26.9714  -22.8347  -18.1301 C   0  0  2  0  0  0  0  0  0  0  0  0
   28.2443  -22.9700  -17.4169 N   0  0  0  0  0  0  0  0  0  0  0  0
   26.2198  -21.6952  -17.5869 C   0  0  0  0  0  0  0  0  0  0  0  0
   26.7698  -20.9399  -16.7309 O   0  0  0  0  0  0  0  0  0  0  0  0
   24.8861  -21.3460  -17.9414 N   0  0  0  0  0  0  0  0  0  0  0  0
   24.2027  -20.1518  -17.4740 C   0  0  1  0  0  0  0  0  0  0  0  0
   24.2121  -19.1122  -18.5207 C   0  0  0  0  0  0  0  0  0  0  0  0
   25.4263  -18.3217  -18.6874 C   0  0  0  0  0  0  0  0  0  0  0  0
   25.8376  -17.0910  -18.2589 C   0  0  0  0  0  0  0  0  0  0  0  0
   27.0821  -16.7887  -18.7033 N   0  0  0  0  0  0  0  0  0  0  0  0
   27.4467  -17.8726  -19.4321 C   0  0  0  0  0  0  0  0  0  0  0  0
   26.4706  -18.7884  -19.4287 N   0  0  0  0  0  0  0  0  0  0  0  0
   22.7957  -20.4974  -17.0516 C   0  0  0  0  0  0  0  0  0  0  0  0
   22.1314  -21.4071  -17.6318 O   0  0  0  0  0  0  0  0  0  0  0  0
   15.9786  -23.5845  -13.0210 O   0  0  0  0  0  0  0  0  0  0  0  0
   17.1927  -23.1162  -13.5417 C   0  0  0  0  0  0  0  0  0  0  0  0
   18.2055  -22.7975  -12.6588 C   0  0  0  0  0  0  0  0  0  0  0  0
   19.4056  -22.3374  -13.1314 C   0  0  0  0  0  0  0  0  0  0  0  0
   19.6487  -22.1755  -14.4866 C   0  0  0  0  0  0  0  0  0  0  0  0
   20.9253  -21.6811  -14.9776 C   0  0  0  0  0  0  0  0  0  0  0  0
   20.8587  -20.2276  -15.4544 C   0  0  2  0  0  0  0  0  0  0  0  0
   22.1530  -19.8229  -15.9908 N   0  0  0  0  0  0  0  0  0  0  0  0
   20.3726  -19.3231  -14.4195 C   0  0  0  0  0  0  0  0  0  0  0  0
   18.9817  -19.1948  -14.1778 O   0  0  0  0  0  0  0  0  0  0  0  0
   18.6410  -22.4931  -15.3602 C   0  0  0  0  0  0  0  0  0  0  0  0
   17.4110  -22.9644  -14.8862 C   0  0  0  0  0  0  0  0  0  0  0  0
   21.0913  -18.6095  -13.6813 O   0  0  0  0  0  0  0  0  0  0  0  0
  2  1  1  1
  2  3  1  0
  4  2  1  0
  4  5  1  1
  6  4  1  0
  6  7  2  0
  8  6  1  0
  9  8  1  0
  9 10  1  6
 10 11  1  0
 11 15  1  0
 11 12  2  0
 12 13  1  0
 14 13  1  0
 15 14  2  0
 16  9  1  0
 17 16  2  0
 18 19  1  0
 19 29  2  0
 20 19  1  0
 20 21  2  0
 21 22  1  0
 22 28  2  0
 22 23  1  0
 24 23  1  1
 24 25  1  0
 25 16  1  0
 26 24  1  0
 27 26  1  0
 29 28  1  0
 30 26  2  0
M  END
$$$$
