THY.pdb
     RDKit          3D

 30 31  0  0  1  0  0  0  0  0999 V2000
   21.1619  -13.3761    7.0541 C   0  0  0  0  0  0  0  0  0  0  0  0
   20.2422  -12.2945    6.5301 C   0  0  1  0  0  0  0  0  0  0  0  0
   21.0226  -11.2318    6.1574 O   0  0  0  0  0  0  0  0  0  0  0  0
   19.3692  -12.8094    5.4024 C   0  0  2  0  0  0  0  0  0  0  0  0
   18.5195  -11.6932    4.9792 N   0  0  0  0  0  0  0  0  0  0  0  0
   18.5281  -13.9426    5.8113 C   0  0  0  0  0  0  0  0  0  0  0  0
   17.4498  -13.7209    6.4387 O   0  0  0  0  0  0  0  0  0  0  0  0
   18.8185  -15.3138    5.5623 N   0  0  0  0  0  0  0  0  0  0  0  0
   17.9763  -16.4178    5.9904 C   0  0  1  0  0  0  0  0  0  0  0  0
   17.1723  -16.9186    4.8593 C   0  0  0  0  0  0  0  0  0  0  0  0
   15.8793  -16.2918    4.6100 C   0  0  0  0  0  0  0  0  0  0  0  0
   15.1714  -15.2827    5.2000 C   0  0  0  0  0  0  0  0  0  0  0  0
   13.9788  -15.0753    4.5898 N   0  0  0  0  0  0  0  0  0  0  0  0
   13.9536  -15.9914    3.5903 C   0  0  0  0  0  0  0  0  0  0  0  0
   15.0774  -16.7184    3.5938 N   0  0  0  0  0  0  0  0  0  0  0  0
   18.8274  -17.5106    6.5895 C   0  0  0  0  0  0  0  0  0  0  0  0
   19.8602  -17.9481    6.0001 O   0  0  0  0  0  0  0  0  0  0  0  0
   23.6328  -14.6564    9.8097 O   0  0  0  0  0  0  0  0  0  0  0  0
   22.6971  -15.7000    9.8079 C   0  0  0  0  0  0  0  0  0  0  0  0
   21.3725  -15.3934   10.0495 C   0  0  0  0  0  0  0  0  0  0  0  0
   20.4302  -16.3871   10.0550 C   0  0  0  0  0  0  0  0  0  0  0  0
   20.7596  -17.7137    9.8235 C   0  0  0  0  0  0  0  0  0  0  0  0
   19.7516  -18.7620    9.8368 C   0  0  0  0  0  0  0  0  0  0  0  0
   19.2975  -19.1709    8.4329 C   0  0  2  0  0  0  0  0  0  0  0  0
   18.5124  -18.0976    7.8344 N   0  0  0  0  0  0  0  0  0  0  0  0
   18.5978  -20.4500    8.4238 C   0  0  0  0  0  0  0  0  0  0  0  0
   19.2304  -21.6145    8.9271 O   0  0  0  0  0  0  0  0  0  0  0  0
   22.0755  -18.0143    9.5838 C   0  0  0  0  0  0  0  0  0  0  0  0
   23.0455  -17.0049    9.5760 C   0  0  0  0  0  0  0  0  0  0  0  0
   17.4351  -20.6397    7.9964 O   0  0  0  0  0  0  0  0  0  0  0  0
  2  1  1  6
  2  3  1  0
  4  2  1  0
  4  5  1  1
  6  4  1  0
  6  7  2  0
  8  6  1  0
  9  8  1  0
  9 10  1  6
 10 11  1  0
 11 15  1  0
 11 12  2  0
 12 13  1  0
 14 13  1  0
 15 14  2  0
 16  9  1  0
 17 16  2  0
 18 19  1  0
 19 29  2  0
 20 19  1  0
 20 21  2  0
 21 22  1  0
 22 28  2  0
 22 23  1  0
 24 23  1  1
 24 25  1  0
 25 16  1  0
 26 24  1  0
 27 26  1  0
 29 28  1  0
 30 26  2  0
M  END
$$$$
