THY.pdb
     RDKit          3D

 30 31  0  0  1  0  0  0  0  0999 V2000
   30.9438  -18.5568  -21.0928 C   0  0  0  0  0  0  0  0  0  0  0  0
   31.9350  -19.6469  -21.4383 C   0  0  1  0  0  0  0  0  0  0  0  0
   33.1350  -19.0445  -21.7112 O   0  0  0  0  0  0  0  0  0  0  0  0
   32.0311  -20.6782  -20.3309 C   0  0  2  0  0  0  0  0  0  0  0  0
   33.0761  -21.6273  -20.7236 N   0  0  0  0  0  0  0  0  0  0  0  0
   30.7674  -21.3963  -20.1164 C   0  0  0  0  0  0  0  0  0  0  0  0
   30.3320  -22.1705  -21.0201 O   0  0  0  0  0  0  0  0  0  0  0  0
   29.9560  -21.3021  -18.9505 N   0  0  0  0  0  0  0  0  0  0  0  0
   28.6651  -21.9518  -18.7991 C   0  0  1  0  0  0  0  0  0  0  0  0
   28.5807  -22.6273  -17.4903 C   0  0  0  0  0  0  0  0  0  0  0  0
   29.5334  -23.6954  -17.2102 C   0  0  0  0  0  0  0  0  0  0  0  0
   30.5906  -24.2403  -17.8832 C   0  0  0  0  0  0  0  0  0  0  0  0
   31.1677  -25.2513  -17.1885 N   0  0  0  0  0  0  0  0  0  0  0  0
   30.4369  -25.3305  -16.0490 C   0  0  0  0  0  0  0  0  0  0  0  0
   29.4643  -24.4109  -16.0522 N   0  0  0  0  0  0  0  0  0  0  0  0
   27.5580  -20.9407  -18.9711 C   0  0  0  0  0  0  0  0  0  0  0  0
   27.7112  -19.7251  -18.6481 O   0  0  0  0  0  0  0  0  0  0  0  0
   21.6288  -15.6995  -22.3013 O   0  0  0  0  0  0  0  0  0  0  0  0
   22.6312  -16.6196  -21.9650 C   0  0  0  0  0  0  0  0  0  0  0  0
   22.4933  -17.9252  -22.3931 C   0  0  0  0  0  0  0  0  0  0  0  0
   23.4532  -18.8516  -22.0836 C   0  0  0  0  0  0  0  0  0  0  0  0
   24.5789  -18.5247  -21.3435 C   0  0  0  0  0  0  0  0  0  0  0  0
   25.5897  -19.5177  -21.0160 C   0  0  0  0  0  0  0  0  0  0  0  0
   25.2402  -20.3365  -19.7702 C   0  0  2  0  0  0  0  0  0  0  0  0
   26.2993  -21.3017  -19.4991 N   0  0  0  0  0  0  0  0  0  0  0  0
   23.9248  -20.9583  -19.8628 C   0  0  0  0  0  0  0  0  0  0  0  0
   22.7589  -20.2144  -19.5513 O   0  0  0  0  0  0  0  0  0  0  0  0
   24.7125  -17.2276  -20.9204 C   0  0  0  0  0  0  0  0  0  0  0  0
   23.7364  -16.2737  -21.2322 C   0  0  0  0  0  0  0  0  0  0  0  0
   23.7030  -22.1427  -20.2071 O   0  0  0  0  0  0  0  0  0  0  0  0
  2  1  1  1
  2  3  1  0
  4  2  1  0
  4  5  1  6
  6  4  1  0
  6  7  2  0
  8  6  1  0
  9  8  1  0
  9 10  1  1
 10 11  1  0
 11 15  1  0
 11 12  2  0
 12 13  1  0
 14 13  1  0
 15 14  2  0
 16  9  1  0
 17 16  2  0
 18 19  1  0
 19 29  2  0
 20 19  1  0
 20 21  2  0
 21 22  1  0
 22 28  2  0
 22 23  1  0
 24 23  1  6
 24 25  1  0
 25 16  1  0
 26 24  1  0
 27 26  1  0
 29 28  1  0
 30 26  2  0
M  END
$$$$
