THY.pdb
     RDKit          3D

 30 31  0  0  1  0  0  0  0  0999 V2000
   26.8851  -21.8945  -15.5051 C   0  0  0  0  0  0  0  0  0  0  0  0
   27.3150  -21.3990  -16.8689 C   0  0  1  0  0  0  0  0  0  0  0  0
   28.2062  -22.3068  -17.3776 O   0  0  0  0  0  0  0  0  0  0  0  0
   26.1215  -21.1719  -17.7762 C   0  0  2  0  0  0  0  0  0  0  0  0
   26.6376  -20.5962  -19.0209 N   0  0  0  0  0  0  0  0  0  0  0  0
   25.1284  -20.2637  -17.1868 C   0  0  0  0  0  0  0  0  0  0  0  0
   25.1565  -19.0331  -17.4877 O   0  0  0  0  0  0  0  0  0  0  0  0
   24.1020  -20.6464  -16.2777 N   0  0  0  0  0  0  0  0  0  0  0  0
   22.9167  -19.8520  -16.0025 C   0  0  1  0  0  0  0  0  0  0  0  0
   22.1791  -19.5809  -17.2510 C   0  0  0  0  0  0  0  0  0  0  0  0
   22.2696  -18.2413  -17.8206 C   0  0  0  0  0  0  0  0  0  0  0  0
   22.8530  -17.0689  -17.4300 C   0  0  0  0  0  0  0  0  0  0  0  0
   22.6367  -16.0723  -18.3231 N   0  0  0  0  0  0  0  0  0  0  0  0
   21.8923  -16.6540  -19.2959 C   0  0  0  0  0  0  0  0  0  0  0  0
   21.6691  -17.9417  -19.0070 N   0  0  0  0  0  0  0  0  0  0  0  0
   22.0484  -20.5588  -14.9905 C   0  0  0  0  0  0  0  0  0  0  0  0
   21.6875  -21.7630  -15.1492 O   0  0  0  0  0  0  0  0  0  0  0  0
   17.1058  -15.3514  -13.1611 O   0  0  0  0  0  0  0  0  0  0  0  0
   17.9192  -16.4248  -12.7731 C   0  0  0  0  0  0  0  0  0  0  0  0
   19.2794  -16.3294  -12.9915 C   0  0  0  0  0  0  0  0  0  0  0  0
   20.1050  -17.3586  -12.6249 C   0  0  0  0  0  0  0  0  0  0  0  0
   19.6205  -18.5143  -12.0323 C   0  0  0  0  0  0  0  0  0  0  0  0
   20.5057  -19.6037  -11.6516 C   0  0  0  0  0  0  0  0  0  0  0  0
   20.7880  -20.5731  -12.8026 C   0  0  2  0  0  0  0  0  0  0  0  0
   21.5967  -19.9114  -13.8199 N   0  0  0  0  0  0  0  0  0  0  0  0
   19.5703  -21.1604  -13.3483 C   0  0  0  0  0  0  0  0  0  0  0  0
   19.0841  -20.7499  -14.6151 O   0  0  0  0  0  0  0  0  0  0  0  0
   18.2696  -18.6055  -11.8168 C   0  0  0  0  0  0  0  0  0  0  0  0
   17.4180  -17.5583  -12.1881 C   0  0  0  0  0  0  0  0  0  0  0  0
   18.8709  -22.0362  -12.7875 O   0  0  0  0  0  0  0  0  0  0  0  0
  2  1  1  1
  2  3  1  0
  4  2  1  0
  4  5  1  6
  6  4  1  0
  6  7  2  0
  8  6  1  0
  9  8  1  0
  9 10  1  6
 10 11  1  0
 11 15  1  0
 11 12  2  0
 12 13  1  0
 14 13  1  0
 15 14  2  0
 16  9  1  0
 17 16  2  0
 18 19  1  0
 19 29  2  0
 20 19  1  0
 20 21  2  0
 21 22  1  0
 22 28  2  0
 22 23  1  0
 24 23  1  1
 24 25  1  0
 25 16  1  0
 26 24  1  0
 27 26  1  0
 29 28  1  0
 30 26  2  0
M  END
$$$$
