NYC.pdb
     RDKit          3D

 27 27  0  0  1  0  0  0  0  0999 V2000
   10.2516  -17.3074   17.2048 N   0  0  0  0  0  0  0  0  0  0  0  0
   11.2696  -17.4458   18.1739 C   0  0  0  0  0  0  0  0  0  0  0  0
   12.1326  -18.3375   18.0323 O   0  0  0  0  0  0  0  0  0  0  0  0
   11.3154  -16.5501   19.3393 C   0  0  0  0  0  0  0  0  0  0  0  0
   11.1226  -17.2850   20.6436 C   0  0  2  0  0  0  0  0  0  0  0  0
   10.1245  -18.3090   20.5639 N   0  0  0  0  0  0  0  0  0  0  0  0
   10.7302  -16.2998   21.6825 C   0  0  0  0  0  0  0  0  0  0  0  0
   11.5015  -15.3263   21.9119 O   0  0  0  0  0  0  0  0  0  0  0  0
    6.1644  -11.6768   27.4908 O   0  0  0  0  0  0  0  0  0  0  0  0
    6.5618  -12.5507   26.4889 C   0  0  0  0  0  0  0  0  0  0  0  0
    6.2161  -13.8815   26.6013 C   0  0  0  0  0  0  0  0  0  0  0  0
    6.6316  -14.7158   25.5825 C   0  0  0  0  0  0  0  0  0  0  0  0
    7.3570  -14.2503   24.5019 C   0  0  0  0  0  0  0  0  0  0  0  0
    7.7680  -15.2101   23.4558 C   0  0  0  0  0  0  0  0  0  0  0  0
    9.2298  -15.5143   23.4776 C   0  0  2  0  0  0  0  0  0  0  0  0
    9.5291  -16.4382   22.4008 N   0  0  0  0  0  0  0  0  0  0  0  0
    9.7219  -16.1014   24.7371 C   0  0  0  0  0  0  0  0  0  0  0  0
    9.8440  -17.3450   24.8195 O   0  0  0  0  0  0  0  0  0  0  0  0
    7.6802  -12.9194   24.4285 C   0  0  0  0  0  0  0  0  0  0  0  0
    7.2822  -12.0359   25.4350 C   0  0  0  0  0  0  0  0  0  0  0  0
   10.0640  -15.3128   25.8638 N   0  0  0  0  0  0  0  0  0  0  0  0
   10.8505  -15.9153   26.9186 C   0  0  1  0  0  0  0  0  0  0  0  0
   11.4028  -14.8100   27.8215 C   0  0  0  0  0  0  0  0  0  0  0  0
   10.0011  -13.7023   28.1849 S   0  0  0  0  0  0  0  0  0  0  0  0
    9.9550  -16.7801   27.7456 C   0  0  0  0  0  0  0  0  0  0  0  0
    8.5927  -16.8439   27.4811 O   0  0  0  0  0  0  0  0  0  0  0  0
   10.4399  -17.4578   28.6918 O   0  0  0  0  0  0  0  0  0  0  0  0
  2  3  2  0
  2  1  1  0
  4  2  1  0
  5  7  1  0
  5  4  1  0
  5  6  1  6
  7  8  2  0
  9 10  1  0
 10 20  2  0
 10 11  1  0
 11 12  2  0
 12 13  1  0
 13 14  1  0
 15 14  1  1
 16 15  1  0
 16  7  1  0
 17 15  1  0
 18 17  2  0
 19 13  2  0
 20 19  1  0
 21 17  1  0
 22 25  1  0
 22 21  1  0
 22 23  1  1
 24 23  1  0
 25 26  1  0
 27 25  2  0
M  END
$$$$
