NYC.pdb
     RDKit          3D

 27 27  0  0  1  0  0  0  0  0999 V2000
    9.3574  -18.4184   17.3768 N   0  0  0  0  0  0  0  0  0  0  0  0
    8.8883  -17.1033   17.1646 C   0  0  0  0  0  0  0  0  0  0  0  0
    8.4913  -16.7708   16.0281 O   0  0  0  0  0  0  0  0  0  0  0  0
    8.8663  -16.1331   18.2694 C   0  0  0  0  0  0  0  0  0  0  0  0
    9.4058  -16.7077   19.5567 C   0  0  2  0  0  0  0  0  0  0  0  0
    8.7182  -17.8945   19.9684 N   0  0  0  0  0  0  0  0  0  0  0  0
    9.2805  -15.6772   20.6181 C   0  0  0  0  0  0  0  0  0  0  0  0
    9.9701  -14.6236   20.5197 O   0  0  0  0  0  0  0  0  0  0  0  0
    6.5554  -11.6414   27.9119 O   0  0  0  0  0  0  0  0  0  0  0  0
    6.6627  -12.3970   26.7530 C   0  0  0  0  0  0  0  0  0  0  0  0
    6.4875  -13.7626   26.8394 C   0  0  0  0  0  0  0  0  0  0  0  0
    6.6027  -14.4758   25.6627 C   0  0  0  0  0  0  0  0  0  0  0  0
    6.8791  -13.8615   24.4557 C   0  0  0  0  0  0  0  0  0  0  0  0
    6.9913  -14.6977   23.2422 C   0  0  0  0  0  0  0  0  0  0  0  0
    8.3999  -14.8807   22.7816 C   0  0  2  0  0  0  0  0  0  0  0  0
    8.4166  -15.8602   21.7126 N   0  0  0  0  0  0  0  0  0  0  0  0
    9.3408  -15.3242   23.8262 C   0  0  0  0  0  0  0  0  0  0  0  0
    9.2499  -14.8304   24.9735 O   0  0  0  0  0  0  0  0  0  0  0  0
    7.0463  -12.5008   24.4133 C   0  0  0  0  0  0  0  0  0  0  0  0
    6.9392  -11.7361   25.5777 C   0  0  0  0  0  0  0  0  0  0  0  0
   10.3487  -16.2908   23.5846 N   0  0  0  0  0  0  0  0  0  0  0  0
   11.2920  -16.5876   24.6410 C   0  0  1  0  0  0  0  0  0  0  0  0
   10.6290  -17.5261   25.6517 C   0  0  0  0  0  0  0  0  0  0  0  0
    9.6803  -18.7379   24.6741 S   0  0  0  0  0  0  0  0  0  0  0  0
   12.4619  -17.3037   24.0473 C   0  0  0  0  0  0  0  0  0  0  0  0
   13.5348  -17.6857   24.8427 O   0  0  0  0  0  0  0  0  0  0  0  0
   12.4754  -17.5635   22.8136 O   0  0  0  0  0  0  0  0  0  0  0  0
  2  3  2  0
  2  1  1  0
  4  2  1  0
  5  7  1  0
  5  4  1  0
  5  6  1  1
  7  8  2  0
  9 10  1  0
 10 20  2  0
 10 11  1  0
 11 12  2  0
 12 13  1  0
 13 14  1  0
 15 14  1  1
 16 15  1  0
 16  7  1  0
 17 15  1  0
 18 17  2  0
 19 13  2  0
 20 19  1  0
 21 17  1  0
 22 25  1  0
 22 21  1  0
 22 23  1  1
 24 23  1  0
 25 26  1  0
 27 25  2  0
M  END
$$$$
