NYC.pdb
     RDKit          3D

 27 27  0  0  1  0  0  0  0  0999 V2000
   10.5108  -17.5347   17.1824 N   0  0  0  0  0  0  0  0  0  0  0  0
   11.4778  -17.4187   18.2052 C   0  0  0  0  0  0  0  0  0  0  0  0
   12.5141  -18.1136   18.1496 O   0  0  0  0  0  0  0  0  0  0  0  0
   11.2691  -16.4897   19.3258 C   0  0  0  0  0  0  0  0  0  0  0  0
   11.1713  -17.1974   20.6554 C   0  0  2  0  0  0  0  0  0  0  0  0
   10.2414  -18.2864   20.6399 N   0  0  0  0  0  0  0  0  0  0  0  0
   10.7508  -16.2102   21.6815 C   0  0  0  0  0  0  0  0  0  0  0  0
   11.4825  -15.2005   21.8820 O   0  0  0  0  0  0  0  0  0  0  0  0
    6.1777  -11.7146   27.5742 O   0  0  0  0  0  0  0  0  0  0  0  0
    6.5797  -12.5694   26.5578 C   0  0  0  0  0  0  0  0  0  0  0  0
    6.2848  -13.9122   26.6723 C   0  0  0  0  0  0  0  0  0  0  0  0
    6.7030  -14.7268   25.6388 C   0  0  0  0  0  0  0  0  0  0  0  0
    7.3827  -14.2311   24.5421 C   0  0  0  0  0  0  0  0  0  0  0  0
    7.8002  -15.1711   23.4807 C   0  0  0  0  0  0  0  0  0  0  0  0
    9.2613  -15.4786   23.5080 C   0  0  2  0  0  0  0  0  0  0  0  0
    9.5664  -16.3861   22.4190 N   0  0  0  0  0  0  0  0  0  0  0  0
    9.7432  -16.0865   24.7617 C   0  0  0  0  0  0  0  0  0  0  0  0
    9.8373  -17.3332   24.8340 O   0  0  0  0  0  0  0  0  0  0  0  0
    7.6563  -12.8892   24.4672 C   0  0  0  0  0  0  0  0  0  0  0  0
    7.2534  -12.0247   25.4882 C   0  0  0  0  0  0  0  0  0  0  0  0
   10.1060  -15.3147   25.8935 N   0  0  0  0  0  0  0  0  0  0  0  0
   10.8904  -15.9401   26.9365 C   0  0  1  0  0  0  0  0  0  0  0  0
   11.4211  -14.8567   27.8780 C   0  0  0  0  0  0  0  0  0  0  0  0
    9.9978  -13.7904   28.2799 S   0  0  0  0  0  0  0  0  0  0  0  0
    9.9981  -16.8406   27.7281 C   0  0  0  0  0  0  0  0  0  0  0  0
   10.5229  -17.6683   28.7127 O   0  0  0  0  0  0  0  0  0  0  0  0
    8.7580  -16.8493   27.5007 O   0  0  0  0  0  0  0  0  0  0  0  0
  2  3  2  0
  2  1  1  0
  4  2  1  0
  5  7  1  0
  5  4  1  0
  5  6  1  6
  7  8  2  0
  9 10  1  0
 10 20  2  0
 10 11  1  0
 11 12  2  0
 12 13  1  0
 13 14  1  0
 15 14  1  1
 16 15  1  0
 16  7  1  0
 17 15  1  0
 18 17  2  0
 19 13  2  0
 20 19  1  0
 21 17  1  0
 22 25  1  0
 22 21  1  0
 22 23  1  1
 24 23  1  0
 25 26  1  0
 27 25  2  0
M  END
$$$$
