NYC.pdb
     RDKit          3D

 27 27  0  0  1  0  0  0  0  0999 V2000
    4.9046  -21.5047   22.9392 N   0  0  0  0  0  0  0  0  0  0  0  0
    5.1144  -20.3407   22.1674 C   0  0  0  0  0  0  0  0  0  0  0  0
    4.5081  -20.2071   21.0837 O   0  0  0  0  0  0  0  0  0  0  0  0
    6.0372  -19.2947   22.6330 C   0  0  0  0  0  0  0  0  0  0  0  0
    6.6775  -18.5377   21.4948 C   0  0  2  0  0  0  0  0  0  0  0  0
    7.3509  -19.3940   20.5652 N   0  0  0  0  0  0  0  0  0  0  0  0
    7.6513  -17.5723   22.0639 C   0  0  0  0  0  0  0  0  0  0  0  0
    8.8539  -17.9354   22.1944 O   0  0  0  0  0  0  0  0  0  0  0  0
    8.0940  -12.6685   17.2540 O   0  0  0  0  0  0  0  0  0  0  0  0
    8.0157  -12.9871   18.6022 C   0  0  0  0  0  0  0  0  0  0  0  0
    9.1669  -13.3789   19.2536 C   0  0  0  0  0  0  0  0  0  0  0  0
    9.0440  -13.6866   20.5941 C   0  0  0  0  0  0  0  0  0  0  0  0
    7.8338  -13.6089   21.2573 C   0  0  0  0  0  0  0  0  0  0  0  0
    7.7862  -13.9604   22.6921 C   0  0  0  0  0  0  0  0  0  0  0  0
    8.2417  -15.3548   22.9719 C   0  0  2  0  0  0  0  0  0  0  0  0
    7.2540  -16.2803   22.4519 N   0  0  0  0  0  0  0  0  0  0  0  0
    8.4545  -15.6628   24.3978 C   0  0  0  0  0  0  0  0  0  0  0  0
    7.5506  -15.3863   25.2194 O   0  0  0  0  0  0  0  0  0  0  0  0
    6.7126  -13.2149   20.5725 C   0  0  0  0  0  0  0  0  0  0  0  0
    6.7867  -12.8932   19.2149 C   0  0  0  0  0  0  0  0  0  0  0  0
    9.6452  -16.2616   24.8794 N   0  0  0  0  0  0  0  0  0  0  0  0
    9.7226  -16.6229   26.2786 C   0  0  1  0  0  0  0  0  0  0  0  0
    8.6761  -17.6998   26.5736 C   0  0  0  0  0  0  0  0  0  0  0  0
    8.9597  -18.2262   28.2959 S   0  0  0  0  0  0  0  0  0  0  0  0
   11.0719  -17.2076   26.5454 C   0  0  0  0  0  0  0  0  0  0  0  0
   11.9963  -17.3501   25.5181 O   0  0  0  0  0  0  0  0  0  0  0  0
   11.3744  -17.5748   27.7130 O   0  0  0  0  0  0  0  0  0  0  0  0
  2  3  2  0
  2  1  1  0
  4  2  1  0
  5  7  1  0
  5  4  1  0
  5  6  1  6
  7  8  2  0
  9 10  1  0
 10 20  2  0
 10 11  1  0
 11 12  2  0
 12 13  1  0
 13 14  1  0
 15 14  1  1
 16 15  1  0
 16  7  1  0
 17 15  1  0
 18 17  2  0
 19 13  2  0
 20 19  1  0
 21 17  1  0
 22 25  1  0
 22 21  1  0
 22 23  1  6
 24 23  1  0
 25 26  1  0
 27 25  2  0
M  END
$$$$
