NYC.pdb
     RDKit          3D

 27 27  0  0  1  0  0  0  0  0999 V2000
   10.6478  -19.4785   17.5608 N   0  0  0  0  0  0  0  0  0  0  0  0
   10.7810  -18.0725   17.5696 C   0  0  0  0  0  0  0  0  0  0  0  0
   11.0550  -17.4767   16.5067 O   0  0  0  0  0  0  0  0  0  0  0  0
   10.5993  -17.3150   18.8169 C   0  0  0  0  0  0  0  0  0  0  0  0
   10.3639  -18.2095   20.0097 C   0  0  2  0  0  0  0  0  0  0  0  0
    9.0995  -18.8802   19.9622 N   0  0  0  0  0  0  0  0  0  0  0  0
   10.4308  -17.3788   21.2383 C   0  0  0  0  0  0  0  0  0  0  0  0
   11.4999  -16.7535   21.4857 O   0  0  0  0  0  0  0  0  0  0  0  0
    7.1291  -12.3514   19.0462 O   0  0  0  0  0  0  0  0  0  0  0  0
    7.3932  -13.1701   20.1350 C   0  0  0  0  0  0  0  0  0  0  0  0
    6.6288  -14.3058   20.3049 C   0  0  0  0  0  0  0  0  0  0  0  0
    6.9253  -15.0917   21.4009 C   0  0  0  0  0  0  0  0  0  0  0  0
    7.9342  -14.7650   22.2873 C   0  0  0  0  0  0  0  0  0  0  0  0
    8.1846  -15.6571   23.4388 C   0  0  0  0  0  0  0  0  0  0  0  0
    9.4374  -16.4581   23.3013 C   0  0  2  0  0  0  0  0  0  0  0  0
    9.3342  -17.2835   22.1136 N   0  0  0  0  0  0  0  0  0  0  0  0
    9.7403  -17.3360   24.4462 C   0  0  0  0  0  0  0  0  0  0  0  0
    9.0702  -18.3824   24.6020 O   0  0  0  0  0  0  0  0  0  0  0  0
    8.6709  -13.6264   22.0820 C   0  0  0  0  0  0  0  0  0  0  0  0
    8.4085  -12.7991   20.9871 C   0  0  0  0  0  0  0  0  0  0  0  0
   10.7634  -17.0433   25.3822 N   0  0  0  0  0  0  0  0  0  0  0  0
   11.0119  -17.9831   26.4542 C   0  0  1  0  0  0  0  0  0  0  0  0
   12.3997  -17.7144   27.0405 C   0  0  0  0  0  0  0  0  0  0  0  0
   13.5610  -17.7509   25.6355 S   0  0  0  0  0  0  0  0  0  0  0  0
   10.0041  -17.7517   27.5333 C   0  0  0  0  0  0  0  0  0  0  0  0
    9.0398  -16.7607   27.3993 O   0  0  0  0  0  0  0  0  0  0  0  0
   10.0290  -18.4621   28.5747 O   0  0  0  0  0  0  0  0  0  0  0  0
  2  3  2  0
  2  1  1  0
  4  2  1  0
  5  7  1  0
  5  4  1  0
  5  6  1  6
  7  8  2  0
  9 10  1  0
 10 20  2  0
 10 11  1  0
 11 12  2  0
 12 13  1  0
 13 14  1  0
 15 14  1  1
 16 15  1  0
 16  7  1  0
 17 15  1  0
 18 17  2  0
 19 13  2  0
 20 19  1  0
 21 17  1  0
 22 25  1  0
 22 21  1  0
 22 23  1  1
 24 23  1  0
 25 26  1  0
 27 25  2  0
M  END
$$$$
