NYC.pdb
     RDKit          3D

 27 27  0  0  1  0  0  0  0  0999 V2000
    9.2990  -21.3104   21.4823 N   0  0  0  0  0  0  0  0  0  0  0  0
   10.0498  -20.1818   21.0856 C   0  0  0  0  0  0  0  0  0  0  0  0
   10.8663  -19.6777   21.8850 O   0  0  0  0  0  0  0  0  0  0  0  0
    9.8738  -19.6040   19.7448 C   0  0  0  0  0  0  0  0  0  0  0  0
    9.0556  -18.3357   19.7627 C   0  0  2  0  0  0  0  0  0  0  0  0
    8.7489  -17.8520   18.4502 N   0  0  0  0  0  0  0  0  0  0  0  0
    9.8179  -17.2971   20.5006 C   0  0  0  0  0  0  0  0  0  0  0  0
   10.9346  -16.9281   20.0403 O   0  0  0  0  0  0  0  0  0  0  0  0
    6.9926  -12.8098   17.4925 O   0  0  0  0  0  0  0  0  0  0  0  0
    7.5023  -13.2211   18.7158 C   0  0  0  0  0  0  0  0  0  0  0  0
    8.8195  -12.9351   19.0094 C   0  0  0  0  0  0  0  0  0  0  0  0
    9.2856  -13.3624   20.2369 C   0  0  0  0  0  0  0  0  0  0  0  0
    8.4810  -14.0422   21.1318 C   0  0  0  0  0  0  0  0  0  0  0  0
    9.0584  -14.4697   22.4235 C   0  0  0  0  0  0  0  0  0  0  0  0
   10.0115  -15.6118   22.2930 C   0  0  2  0  0  0  0  0  0  0  0  0
    9.3168  -16.7307   21.6863 N   0  0  0  0  0  0  0  0  0  0  0  0
   10.6044  -16.0722   23.5618 C   0  0  0  0  0  0  0  0  0  0  0  0
   11.1850  -15.2408   24.2967 O   0  0  0  0  0  0  0  0  0  0  0  0
    7.1765  -14.3066   20.8009 C   0  0  0  0  0  0  0  0  0  0  0  0
    6.6590  -13.8944   19.5703 C   0  0  0  0  0  0  0  0  0  0  0  0
   10.5442  -17.4230   23.9861 N   0  0  0  0  0  0  0  0  0  0  0  0
   11.1289  -17.7755   25.2621 C   0  0  1  0  0  0  0  0  0  0  0  0
   10.0119  -18.1780   26.2276 C   0  0  0  0  0  0  0  0  0  0  0  0
    9.3136  -16.6229   26.8740 S   0  0  0  0  0  0  0  0  0  0  0  0
   12.0177  -18.9612   25.0672 C   0  0  0  0  0  0  0  0  0  0  0  0
   12.6989  -19.5183   26.1422 O   0  0  0  0  0  0  0  0  0  0  0  0
   12.1507  -19.4605   23.9171 O   0  0  0  0  0  0  0  0  0  0  0  0
  2  3  2  0
  2  1  1  0
  4  2  1  0
  5  7  1  0
  5  4  1  0
  5  6  1  6
  7  8  2  0
  9 10  1  0
 10 20  2  0
 10 11  1  0
 11 12  2  0
 12 13  1  0
 13 14  1  0
 15 14  1  1
 16 15  1  0
 16  7  1  0
 17 15  1  0
 18 17  2  0
 19 13  2  0
 20 19  1  0
 21 17  1  0
 22 25  1  0
 22 21  1  0
 22 23  1  1
 24 23  1  0
 25 26  1  0
 27 25  2  0
M  END
$$$$
