NYC.pdb
     RDKit          3D

 27 27  0  0  1  0  0  0  0  0999 V2000
    8.7778  -12.9794   17.7936 N   0  0  0  0  0  0  0  0  0  0  0  0
    8.3248  -14.0341   18.6164 C   0  0  0  0  0  0  0  0  0  0  0  0
    7.8482  -15.0609   18.0887 O   0  0  0  0  0  0  0  0  0  0  0  0
    8.4124  -13.9270   20.0803 C   0  0  0  0  0  0  0  0  0  0  0  0
    9.3134  -14.9759   20.6857 C   0  0  2  0  0  0  0  0  0  0  0  0
    8.8334  -16.3092   20.4792 N   0  0  0  0  0  0  0  0  0  0  0  0
    9.4214  -14.7156   22.1434 C   0  0  0  0  0  0  0  0  0  0  0  0
    9.9611  -13.6394   22.5251 O   0  0  0  0  0  0  0  0  0  0  0  0
    5.8041  -10.5495   27.0469 O   0  0  0  0  0  0  0  0  0  0  0  0
    6.2817  -11.7640   26.5753 C   0  0  0  0  0  0  0  0  0  0  0  0
    5.9315  -12.1584   25.3006 C   0  0  0  0  0  0  0  0  0  0  0  0
    6.4284  -13.3731   24.8714 C   0  0  0  0  0  0  0  0  0  0  0  0
    7.2358  -14.1601   25.6710 C   0  0  0  0  0  0  0  0  0  0  0  0
    7.7223  -15.4500   25.1383 C   0  0  0  0  0  0  0  0  0  0  0  0
    9.0694  -15.3533   24.5013 C   0  0  2  0  0  0  0  0  0  0  0  0
    8.9368  -15.6398   23.0861 N   0  0  0  0  0  0  0  0  0  0  0  0
   10.0863  -16.2622   25.0610 C   0  0  0  0  0  0  0  0  0  0  0  0
   10.8658  -16.8545   24.2802 O   0  0  0  0  0  0  0  0  0  0  0  0
    7.5602  -13.7311   26.9327 C   0  0  0  0  0  0  0  0  0  0  0  0
    7.0817  -12.5090   27.4117 C   0  0  0  0  0  0  0  0  0  0  0  0
   10.2185  -16.4944   26.4528 N   0  0  0  0  0  0  0  0  0  0  0  0
   11.4375  -17.1022   26.9414 C   0  0  1  0  0  0  0  0  0  0  0  0
   12.2988  -16.0262   27.6064 C   0  0  0  0  0  0  0  0  0  0  0  0
   11.2169  -15.1763   28.8027 S   0  0  0  0  0  0  0  0  0  0  0  0
   11.0811  -18.1140   27.9821 C   0  0  0  0  0  0  0  0  0  0  0  0
   12.0652  -18.8950   28.5750 O   0  0  0  0  0  0  0  0  0  0  0  0
    9.8767  -18.2603   28.3252 O   0  0  0  0  0  0  0  0  0  0  0  0
  2  3  2  0
  2  1  1  0
  4  2  1  0
  5  7  1  0
  5  4  1  0
  5  6  1  1
  7  8  2  0
  9 10  1  0
 10 20  2  0
 10 11  1  0
 11 12  2  0
 12 13  1  0
 13 14  1  0
 15 14  1  1
 16 15  1  0
 16  7  1  0
 17 15  1  0
 18 17  2  0
 19 13  2  0
 20 19  1  0
 21 17  1  0
 22 25  1  0
 22 21  1  0
 22 23  1  1
 24 23  1  0
 25 26  1  0
 27 25  2  0
M  END
$$$$
