NYC.pdb
     RDKit          3D

 27 27  0  0  1  0  0  0  0  0999 V2000
    9.7285  -19.6852   17.3494 N   0  0  0  0  0  0  0  0  0  0  0  0
    9.3506  -18.3386   17.1533 C   0  0  0  0  0  0  0  0  0  0  0  0
    9.0053  -17.9591   16.0146 O   0  0  0  0  0  0  0  0  0  0  0  0
    9.3629  -17.3903   18.2772 C   0  0  0  0  0  0  0  0  0  0  0  0
    9.7911  -18.0334   19.5739 C   0  0  2  0  0  0  0  0  0  0  0  0
    8.7582  -18.8258   20.1706 N   0  0  0  0  0  0  0  0  0  0  0  0
   10.1916  -16.9605   20.5187 C   0  0  0  0  0  0  0  0  0  0  0  0
   11.2755  -16.3469   20.3096 O   0  0  0  0  0  0  0  0  0  0  0  0
    6.7804  -12.2045   18.1849 O   0  0  0  0  0  0  0  0  0  0  0  0
    7.2559  -12.8169   19.3357 C   0  0  0  0  0  0  0  0  0  0  0  0
    8.4428  -12.3686   19.8772 C   0  0  0  0  0  0  0  0  0  0  0  0
    8.8792  -13.0057   21.0218 C   0  0  0  0  0  0  0  0  0  0  0  0
    8.1698  -14.0403   21.6022 C   0  0  0  0  0  0  0  0  0  0  0  0
    8.7084  -14.6730   22.8246 C   0  0  0  0  0  0  0  0  0  0  0  0
    9.8399  -15.6089   22.5534 C   0  0  2  0  0  0  0  0  0  0  0  0
    9.3893  -16.6272   21.6246 N   0  0  0  0  0  0  0  0  0  0  0  0
   10.3858  -16.2830   23.7454 C   0  0  0  0  0  0  0  0  0  0  0  0
    9.6209  -16.5307   24.7056 O   0  0  0  0  0  0  0  0  0  0  0  0
    6.9937  -14.4559   21.0319 C   0  0  0  0  0  0  0  0  0  0  0  0
    6.5111  -13.8422   19.8732 C   0  0  0  0  0  0  0  0  0  0  0  0
   11.7468  -16.6642   23.8499 N   0  0  0  0  0  0  0  0  0  0  0  0
   12.1932  -17.3148   25.0631 C   0  0  1  0  0  0  0  0  0  0  0  0
   12.5346  -18.7732   24.7495 C   0  0  0  0  0  0  0  0  0  0  0  0
   10.9492  -19.6024   24.3984 S   0  0  0  0  0  0  0  0  0  0  0  0
   13.4418  -16.6410   25.5328 C   0  0  0  0  0  0  0  0  0  0  0  0
   14.0844  -17.0690   26.6877 O   0  0  0  0  0  0  0  0  0  0  0  0
   13.9164  -15.6755   24.8754 O   0  0  0  0  0  0  0  0  0  0  0  0
  2  3  2  0
  2  1  1  0
  4  2  1  0
  5  7  1  0
  5  4  1  0
  5  6  1  1
  7  8  2  0
  9 10  1  0
 10 20  2  0
 10 11  1  0
 11 12  2  0
 12 13  1  0
 13 14  1  0
 15 14  1  1
 16 15  1  0
 16  7  1  0
 17 15  1  0
 18 17  2  0
 19 13  2  0
 20 19  1  0
 21 17  1  0
 22 25  1  0
 22 21  1  0
 22 23  1  6
 24 23  1  0
 25 26  1  0
 27 25  2  0
M  END
$$$$
