NYC.pdb
     RDKit          3D

 27 27  0  0  1  0  0  0  0  0999 V2000
   12.5678  -17.9694   17.5343 N   0  0  0  0  0  0  0  0  0  0  0  0
   11.3674  -17.3131   17.8851 C   0  0  0  0  0  0  0  0  0  0  0  0
   10.4110  -17.3155   17.0819 O   0  0  0  0  0  0  0  0  0  0  0  0
   11.2422  -16.6330   19.1828 C   0  0  0  0  0  0  0  0  0  0  0  0
   10.2914  -17.3394   20.1185 C   0  0  2  0  0  0  0  0  0  0  0  0
    8.9993  -17.5565   19.5404 N   0  0  0  0  0  0  0  0  0  0  0  0
   10.1457  -16.5176   21.3463 C   0  0  0  0  0  0  0  0  0  0  0  0
   11.1704  -16.3020   22.0524 O   0  0  0  0  0  0  0  0  0  0  0  0
    6.5503  -11.6139   27.6528 O   0  0  0  0  0  0  0  0  0  0  0  0
    6.8025  -12.2980   26.4721 C   0  0  0  0  0  0  0  0  0  0  0  0
    6.1568  -13.4978   26.2562 C   0  0  0  0  0  0  0  0  0  0  0  0
    6.4365  -14.1449   25.0689 C   0  0  0  0  0  0  0  0  0  0  0  0
    7.3168  -13.6247   24.1388 C   0  0  0  0  0  0  0  0  0  0  0  0
    7.5655  -14.3827   22.8946 C   0  0  0  0  0  0  0  0  0  0  0  0
    8.7855  -15.2412   22.9621 C   0  0  2  0  0  0  0  0  0  0  0  0
    8.8994  -15.9864   21.7234 N   0  0  0  0  0  0  0  0  0  0  0  0
    8.8059  -16.2020   24.0801 C   0  0  0  0  0  0  0  0  0  0  0  0
    8.0994  -17.2333   24.0064 O   0  0  0  0  0  0  0  0  0  0  0  0
    7.9382  -12.4286   24.3925 C   0  0  0  0  0  0  0  0  0  0  0  0
    7.6874  -11.7363   25.5799 C   0  0  0  0  0  0  0  0  0  0  0  0
    9.5958  -16.0056   25.2402 N   0  0  0  0  0  0  0  0  0  0  0  0
    9.7756  -17.1147   26.1523 C   0  0  1  0  0  0  0  0  0  0  0  0
   10.7341  -18.1276   25.5220 C   0  0  0  0  0  0  0  0  0  0  0  0
   11.0397  -19.3980   26.7934 S   0  0  0  0  0  0  0  0  0  0  0  0
   10.4074  -16.6023   27.4061 C   0  0  0  0  0  0  0  0  0  0  0  0
   10.8571  -15.2904   27.4861 O   0  0  0  0  0  0  0  0  0  0  0  0
   10.5335  -17.3674   28.4004 O   0  0  0  0  0  0  0  0  0  0  0  0
  2  3  2  0
  2  1  1  0
  4  2  1  0
  5  7  1  0
  5  4  1  0
  5  6  1  6
  7  8  2  0
  9 10  1  0
 10 20  2  0
 10 11  1  0
 11 12  2  0
 12 13  1  0
 13 14  1  0
 15 14  1  6
 16 15  1  0
 16  7  1  0
 17 15  1  0
 18 17  2  0
 19 13  2  0
 20 19  1  0
 21 17  1  0
 22 25  1  0
 22 21  1  0
 22 23  1  6
 24 23  1  0
 25 26  1  0
 27 25  2  0
M  END
$$$$
