NYC.pdb
     RDKit          3D

 27 27  0  0  1  0  0  0  0  0999 V2000
   11.3440  -18.0456   17.5037 N   0  0  0  0  0  0  0  0  0  0  0  0
   12.0237  -17.7181   18.6975 C   0  0  0  0  0  0  0  0  0  0  0  0
   13.1513  -18.2093   18.9147 O   0  0  0  0  0  0  0  0  0  0  0  0
   11.4121  -16.8077   19.6771 C   0  0  0  0  0  0  0  0  0  0  0  0
   11.3950  -17.3836   21.0723 C   0  0  2  0  0  0  0  0  0  0  0  0
   10.4383  -18.4378   21.2282 N   0  0  0  0  0  0  0  0  0  0  0  0
   11.0780  -16.2909   22.0260 C   0  0  0  0  0  0  0  0  0  0  0  0
   11.9059  -15.3460   22.1568 O   0  0  0  0  0  0  0  0  0  0  0  0
    6.7504  -13.2299   18.3205 O   0  0  0  0  0  0  0  0  0  0  0  0
    7.0980  -13.6247   19.6045 C   0  0  0  0  0  0  0  0  0  0  0  0
    6.7142  -14.8782   20.0340 C   0  0  0  0  0  0  0  0  0  0  0  0
    7.0808  -15.2305   21.3178 C   0  0  0  0  0  0  0  0  0  0  0  0
    7.7956  -14.3775   22.1375 C   0  0  0  0  0  0  0  0  0  0  0  0
    8.1444  -14.8289   23.5010 C   0  0  0  0  0  0  0  0  0  0  0  0
    9.5867  -15.1854   23.6521 C   0  0  2  0  0  0  0  0  0  0  0  0
    9.8858  -16.2982   22.7718 N   0  0  0  0  0  0  0  0  0  0  0  0
    9.9928  -15.5587   25.0192 C   0  0  0  0  0  0  0  0  0  0  0  0
   10.6076  -16.6352   25.1965 O   0  0  0  0  0  0  0  0  0  0  0  0
    8.1577  -13.1393   21.6718 C   0  0  0  0  0  0  0  0  0  0  0  0
    7.8099  -12.7375   20.3796 C   0  0  0  0  0  0  0  0  0  0  0  0
    9.7148  -14.7459   26.1463 N   0  0  0  0  0  0  0  0  0  0  0  0
   10.4711  -14.9627   27.3608 C   0  0  1  0  0  0  0  0  0  0  0  0
   10.1646  -13.8331   28.3468 C   0  0  0  0  0  0  0  0  0  0  0  0
   11.2092  -14.1377   29.8097 S   0  0  0  0  0  0  0  0  0  0  0  0
   10.0215  -16.2471   27.9788 C   0  0  0  0  0  0  0  0  0  0  0  0
   10.9168  -17.0466   28.6781 O   0  0  0  0  0  0  0  0  0  0  0  0
    8.8190  -16.6085   27.8647 O   0  0  0  0  0  0  0  0  0  0  0  0
  2  3  2  0
  2  1  1  0
  4  2  1  0
  5  7  1  0
  5  4  1  0
  5  6  1  6
  7  8  2  0
  9 10  1  0
 10 20  2  0
 10 11  1  0
 11 12  2  0
 12 13  1  0
 13 14  1  0
 15 14  1  1
 16 15  1  0
 16  7  1  0
 17 15  1  0
 18 17  2  0
 19 13  2  0
 20 19  1  0
 21 17  1  0
 22 25  1  0
 22 21  1  0
 22 23  1  1
 24 23  1  0
 25 26  1  0
 27 25  2  0
M  END
$$$$
