NYC.pdb
     RDKit          3D

 27 27  0  0  1  0  0  0  0  0999 V2000
   13.5805  -19.7144   19.9383 N   0  0  0  0  0  0  0  0  0  0  0  0
   12.2517  -19.4145   20.3111 C   0  0  0  0  0  0  0  0  0  0  0  0
   11.3166  -20.1030   19.8514 O   0  0  0  0  0  0  0  0  0  0  0  0
   11.9692  -18.3029   21.2314 C   0  0  0  0  0  0  0  0  0  0  0  0
   10.8306  -17.4326   20.7574 C   0  0  2  0  0  0  0  0  0  0  0  0
   11.1361  -16.7232   19.5515 N   0  0  0  0  0  0  0  0  0  0  0  0
   10.5086  -16.4577   21.8298 C   0  0  0  0  0  0  0  0  0  0  0  0
   11.1481  -15.3691   21.8666 O   0  0  0  0  0  0  0  0  0  0  0  0
    6.0113  -11.5214   27.3089 O   0  0  0  0  0  0  0  0  0  0  0  0
    6.4419  -12.4656   26.3877 C   0  0  0  0  0  0  0  0  0  0  0  0
    6.1324  -13.7913   26.6107 C   0  0  0  0  0  0  0  0  0  0  0  0
    6.5800  -14.6969   25.6694 C   0  0  0  0  0  0  0  0  0  0  0  0
    7.3018  -14.3045   24.5579 C   0  0  0  0  0  0  0  0  0  0  0  0
    7.7487  -15.3375   23.6000 C   0  0  0  0  0  0  0  0  0  0  0  0
    9.1805  -15.7234   23.7759 C   0  0  2  0  0  0  0  0  0  0  0  0
    9.5160  -16.7303   22.7879 N   0  0  0  0  0  0  0  0  0  0  0  0
    9.5197  -16.2556   25.1082 C   0  0  0  0  0  0  0  0  0  0  0  0
    9.6206  -17.4948   25.2585 O   0  0  0  0  0  0  0  0  0  0  0  0
    7.5885  -12.9759   24.3735 C   0  0  0  0  0  0  0  0  0  0  0  0
    7.1570  -12.0218   25.2984 C   0  0  0  0  0  0  0  0  0  0  0  0
    9.7372  -15.4189   26.2311 N   0  0  0  0  0  0  0  0  0  0  0  0
   10.3142  -15.9976   27.4254 C   0  0  1  0  0  0  0  0  0  0  0  0
   10.4797  -14.9013   28.4802 C   0  0  0  0  0  0  0  0  0  0  0  0
   11.4600  -13.5813   27.6924 S   0  0  0  0  0  0  0  0  0  0  0  0
    9.3650  -17.0172   27.9669 C   0  0  0  0  0  0  0  0  0  0  0  0
    9.6879  -17.7517   29.1009 O   0  0  0  0  0  0  0  0  0  0  0  0
    8.2614  -17.2127   27.3895 O   0  0  0  0  0  0  0  0  0  0  0  0
  2  3  2  0
  2  1  1  0
  4  2  1  0
  5  7  1  0
  5  4  1  0
  5  6  1  6
  7  8  2  0
  9 10  1  0
 10 20  2  0
 10 11  1  0
 11 12  2  0
 12 13  1  0
 13 14  1  0
 15 14  1  1
 16 15  1  0
 16  7  1  0
 17 15  1  0
 18 17  2  0
 19 13  2  0
 20 19  1  0
 21 17  1  0
 22 25  1  0
 22 21  1  0
 22 23  1  1
 24 23  1  0
 25 26  1  0
 27 25  2  0
M  END
$$$$
