NYC.pdb
     RDKit          3D

 27 27  0  0  1  0  0  0  0  0999 V2000
   12.2663  -18.5347   18.1439 N   0  0  0  0  0  0  0  0  0  0  0  0
   11.0275  -18.1946   18.7309 C   0  0  0  0  0  0  0  0  0  0  0  0
    9.9973  -18.8114   18.3873 O   0  0  0  0  0  0  0  0  0  0  0  0
   10.9487  -17.1252   19.7371 C   0  0  0  0  0  0  0  0  0  0  0  0
   10.7848  -17.6591   21.1394 C   0  0  2  0  0  0  0  0  0  0  0  0
    9.7335  -18.6255   21.2482 N   0  0  0  0  0  0  0  0  0  0  0  0
   10.4953  -16.5181   22.0440 C   0  0  0  0  0  0  0  0  0  0  0  0
   11.3693  -15.6157   22.1746 O   0  0  0  0  0  0  0  0  0  0  0  0
    6.1476  -10.8435   27.0512 O   0  0  0  0  0  0  0  0  0  0  0  0
    6.4978  -11.9451   26.2837 C   0  0  0  0  0  0  0  0  0  0  0  0
    7.3130  -11.7513   25.1878 C   0  0  0  0  0  0  0  0  0  0  0  0
    7.6367  -12.8741   24.4523 C   0  0  0  0  0  0  0  0  0  0  0  0
    7.1725  -14.1317   24.7893 C   0  0  0  0  0  0  0  0  0  0  0  0
    7.5613  -15.2819   23.9465 C   0  0  0  0  0  0  0  0  0  0  0  0
    9.0050  -15.2706   23.5648 C   0  0  2  0  0  0  0  0  0  0  0  0
    9.2787  -16.4343   22.7443 N   0  0  0  0  0  0  0  0  0  0  0  0
    9.9460  -15.2767   24.6997 C   0  0  0  0  0  0  0  0  0  0  0  0
   10.8206  -14.3829   24.7670 O   0  0  0  0  0  0  0  0  0  0  0  0
    6.3638  -14.2811   25.8869 C   0  0  0  0  0  0  0  0  0  0  0  0
    6.0086  -13.1747   26.6626 C   0  0  0  0  0  0  0  0  0  0  0  0
    9.9015  -16.2569   25.7223 N   0  0  0  0  0  0  0  0  0  0  0  0
   10.5205  -15.9586   26.9958 C   0  0  1  0  0  0  0  0  0  0  0  0
    9.7236  -14.8517   27.6899 C   0  0  0  0  0  0  0  0  0  0  0  0
   10.5187  -14.5921   29.3099 S   0  0  0  0  0  0  0  0  0  0  0  0
   10.4551  -17.1800   27.8547 C   0  0  0  0  0  0  0  0  0  0  0  0
    9.4196  -18.0941   27.7060 O   0  0  0  0  0  0  0  0  0  0  0  0
   11.3476  -17.3830   28.7219 O   0  0  0  0  0  0  0  0  0  0  0  0
  2  3  2  0
  2  1  1  0
  4  2  1  0
  5  7  1  0
  5  4  1  0
  5  6  1  6
  7  8  2  0
  9 10  1  0
 10 20  2  0
 10 11  1  0
 11 12  2  0
 12 13  1  0
 13 14  1  0
 15 14  1  1
 16 15  1  0
 16  7  1  0
 17 15  1  0
 18 17  2  0
 19 13  2  0
 20 19  1  0
 21 17  1  0
 22 25  1  0
 22 21  1  0
 22 23  1  1
 24 23  1  0
 25 26  1  0
 27 25  2  0
M  END
$$$$
