NYC.pdb
     RDKit          3D

 27 27  0  0  1  0  0  0  0  0999 V2000
   10.8509  -21.3152   20.9956 N   0  0  0  0  0  0  0  0  0  0  0  0
    9.6787  -20.5314   20.9171 C   0  0  0  0  0  0  0  0  0  0  0  0
    8.7568  -20.8836   20.1517 O   0  0  0  0  0  0  0  0  0  0  0  0
    9.5423  -19.3122   21.7278 C   0  0  0  0  0  0  0  0  0  0  0  0
    9.4518  -18.0628   20.8855 C   0  0  2  0  0  0  0  0  0  0  0  0
   10.4707  -17.9927   19.8815 N   0  0  0  0  0  0  0  0  0  0  0  0
    9.5668  -16.8847   21.7816 C   0  0  0  0  0  0  0  0  0  0  0  0
   10.7058  -16.3665   21.9528 O   0  0  0  0  0  0  0  0  0  0  0  0
    7.6567  -12.6987   17.5145 O   0  0  0  0  0  0  0  0  0  0  0  0
    7.6299  -13.0669   18.8521 C   0  0  0  0  0  0  0  0  0  0  0  0
    6.7350  -14.0387   19.2492 C   0  0  0  0  0  0  0  0  0  0  0  0
    6.7419  -14.3747   20.5885 C   0  0  0  0  0  0  0  0  0  0  0  0
    7.5978  -13.7734   21.4920 C   0  0  0  0  0  0  0  0  0  0  0  0
    7.5385  -14.1865   22.9098 C   0  0  0  0  0  0  0  0  0  0  0  0
    8.5885  -15.1828   23.2771 C   0  0  2  0  0  0  0  0  0  0  0  0
    8.4392  -16.3501   22.4300 N   0  0  0  0  0  0  0  0  0  0  0  0
    8.5564  -15.6274   24.6824 C   0  0  0  0  0  0  0  0  0  0  0  0
    8.5074  -14.7659   25.5900 O   0  0  0  0  0  0  0  0  0  0  0  0
    8.4724  -12.8111   21.0559 C   0  0  0  0  0  0  0  0  0  0  0  0
    8.5030  -12.4372   19.7101 C   0  0  0  0  0  0  0  0  0  0  0  0
    8.5786  -16.9958   25.0501 N   0  0  0  0  0  0  0  0  0  0  0  0
    8.6628  -17.3349   26.4545 C   0  0  1  0  0  0  0  0  0  0  0  0
    7.3553  -18.0036   26.8846 C   0  0  0  0  0  0  0  0  0  0  0  0
    6.9454  -19.2068   25.5776 S   0  0  0  0  0  0  0  0  0  0  0  0
    9.7678  -18.3240   26.6400 C   0  0  0  0  0  0  0  0  0  0  0  0
   10.1364  -18.7416   27.9127 O   0  0  0  0  0  0  0  0  0  0  0  0
   10.3711  -18.7836   25.6328 O   0  0  0  0  0  0  0  0  0  0  0  0
  2  3  2  0
  2  1  1  0
  4  2  1  0
  5  7  1  0
  5  4  1  0
  5  6  1  6
  7  8  2  0
  9 10  1  0
 10 20  2  0
 10 11  1  0
 11 12  2  0
 12 13  1  0
 13 14  1  0
 15 14  1  1
 16 15  1  0
 16  7  1  0
 17 15  1  0
 18 17  2  0
 19 13  2  0
 20 19  1  0
 21 17  1  0
 22 25  1  0
 22 21  1  0
 22 23  1  6
 24 23  1  0
 25 26  1  0
 27 25  2  0
M  END
$$$$
