WVG.pdb
     RDKit          3D

 26 27  0  0  1  0  0  0  0  0999 V2000
   26.9591  -18.4870  -16.5170 N   0  0  0  0  0  0  0  0  0  0  0  0
   25.6418  -18.8847  -16.0671 C   0  0  1  0  0  0  0  0  0  0  0  0
   24.8576  -19.2908  -17.2944 C   0  0  0  0  0  0  0  0  0  0  0  0
   24.2526  -18.1100  -17.9563 C   0  0  0  0  0  0  0  0  0  0  0  0
   24.7947  -17.4486  -19.0481 C   0  0  0  0  0  0  0  0  0  0  0  0
   23.9844  -16.4200  -19.3924 N   0  0  0  0  0  0  0  0  0  0  0  0
   22.9266  -16.3792  -18.5664 C   0  0  0  0  0  0  0  0  0  0  0  0
   21.8186  -15.5422  -18.4795 C   0  0  0  0  0  0  0  0  0  0  0  0
   20.9045  -15.7780  -17.5001 C   0  0  0  0  0  0  0  0  0  0  0  0
   21.0441  -16.8192  -16.5943 C   0  0  0  0  0  0  0  0  0  0  0  0
   22.1457  -17.6365  -16.6954 C   0  0  0  0  0  0  0  0  0  0  0  0
   23.0875  -17.4358  -17.6630 C   0  0  0  0  0  0  0  0  0  0  0  0
   25.7785  -19.9914  -15.0980 C   0  0  0  0  0  0  0  0  0  0  0  0
   26.5966  -20.8862  -15.3270 O   0  0  0  0  0  0  0  0  0  0  0  0
   26.9529  -20.0044  -11.6400 C   0  0  0  0  0  0  0  0  0  0  0  0
   25.5225  -20.5116  -11.5399 C   0  0  2  0  0  0  0  0  0  0  0  0
   25.5523  -21.5811  -10.4709 C   0  0  0  0  0  0  0  0  0  0  0  0
   25.1442  -21.0249  -12.8793 C   0  0  2  0  0  0  0  0  0  0  0  0
   25.0112  -20.0657  -13.9219 N   0  0  0  0  0  0  0  0  0  0  0  0
   23.8500  -21.7534  -12.7606 C   0  0  0  0  0  0  0  0  0  0  0  0
   23.7172  -22.7820  -12.0208 O   0  0  0  0  0  0  0  0  0  0  0  0
   22.6920  -21.3403  -13.4669 N   0  0  0  0  0  0  0  0  0  0  0  0
   21.4364  -22.0288  -13.2868 C   0  0  0  0  0  0  0  0  0  0  0  0
   20.6244  -21.4516  -12.2134 C   0  0  0  0  0  0  0  0  0  0  0  0
   19.3717  -21.9540  -11.9062 O   0  0  0  0  0  0  0  0  0  0  0  0
   21.0478  -20.4799  -11.5409 O   0  0  0  0  0  0  0  0  0  0  0  0
  2 13  1  0
  2  1  1  6
  3  2  1  0
  4  3  1  0
  5  4  2  0
  6  7  1  0
  6  5  1  0
  7 12  2  0
  8  9  2  0
  8  7  1  0
  9 10  1  0
 10 11  2  0
 12  4  1  0
 12 11  1  0
 13 14  2  0
 16 15  1  6
 17 16  1  0
 18 16  1  0
 18 19  1  6
 19 13  1  0
 20 21  2  0
 20 18  1  0
 22 20  1  0
 23 22  1  0
 24 23  1  0
 25 24  1  0
 26 24  2  0
M  END
$$$$
