WVG.pdb
     RDKit          3D

 26 27  0  0  1  0  0  0  0  0999 V2000
   27.8080  -21.0564   -9.2992 N   0  0  0  0  0  0  0  0  0  0  0  0
   26.3630  -21.1094   -9.3709 C   0  0  1  0  0  0  0  0  0  0  0  0
   25.8312  -20.2835   -8.2215 C   0  0  0  0  0  0  0  0  0  0  0  0
   26.9379  -19.6855   -7.4368 C   0  0  0  0  0  0  0  0  0  0  0  0
   27.7654  -18.6657   -7.8827 C   0  0  0  0  0  0  0  0  0  0  0  0
   28.6627  -18.3653   -6.9144 N   0  0  0  0  0  0  0  0  0  0  0  0
   28.4568  -19.1508   -5.8450 C   0  0  0  0  0  0  0  0  0  0  0  0
   29.0815  -19.2550   -4.6062 C   0  0  0  0  0  0  0  0  0  0  0  0
   28.6167  -20.1790   -3.7227 C   0  0  0  0  0  0  0  0  0  0  0  0
   27.5480  -21.0123   -4.0187 C   0  0  0  0  0  0  0  0  0  0  0  0
   26.9428  -20.8951   -5.2482 C   0  0  0  0  0  0  0  0  0  0  0  0
   27.3769  -19.9814   -6.1648 C   0  0  0  0  0  0  0  0  0  0  0  0
   25.9274  -20.5890  -10.6832 C   0  0  0  0  0  0  0  0  0  0  0  0
   26.4000  -19.5239  -11.0885 O   0  0  0  0  0  0  0  0  0  0  0  0
   24.7040  -23.1863  -13.5958 C   0  0  0  0  0  0  0  0  0  0  0  0
   25.0959  -21.7521  -13.9163 C   0  0  2  0  0  0  0  0  0  0  0  0
   26.6040  -21.7664  -14.0297 C   0  0  0  0  0  0  0  0  0  0  0  0
   24.5943  -20.9023  -12.8088 C   0  0  2  0  0  0  0  0  0  0  0  0
   24.9930  -21.2614  -11.4909 N   0  0  0  0  0  0  0  0  0  0  0  0
   23.1050  -20.8979  -12.8506 C   0  0  0  0  0  0  0  0  0  0  0  0
   22.4584  -20.7735  -13.9411 O   0  0  0  0  0  0  0  0  0  0  0  0
   22.3237  -21.0325  -11.6750 N   0  0  0  0  0  0  0  0  0  0  0  0
   20.8828  -20.9802  -11.7399 C   0  0  0  0  0  0  0  0  0  0  0  0
   20.3630  -19.6131  -11.6652 C   0  0  0  0  0  0  0  0  0  0  0  0
   19.0144  -19.3630  -11.4789 O   0  0  0  0  0  0  0  0  0  0  0  0
   21.1336  -18.6277  -11.7692 O   0  0  0  0  0  0  0  0  0  0  0  0
  2 13  1  0
  2  1  1  6
  3  2  1  0
  4  3  1  0
  5  4  2  0
  6  7  1  0
  6  5  1  0
  7 12  2  0
  8  9  2  0
  8  7  1  0
  9 10  1  0
 10 11  2  0
 12  4  1  0
 12 11  1  0
 13 14  2  0
 16 15  1  1
 17 16  1  0
 18 16  1  0
 18 19  1  1
 19 13  1  0
 20 21  2  0
 20 18  1  0
 22 20  1  0
 23 22  1  0
 24 23  1  0
 25 24  1  0
 26 24  2  0
M  END
$$$$
