WVG.pdb
     RDKit          3D

 26 27  0  0  1  0  0  0  0  0999 V2000
   25.0952  -19.9804  -10.2757 N   0  0  0  0  0  0  0  0  0  0  0  0
   24.5241  -20.8543   -9.2727 C   0  0  1  0  0  0  0  0  0  0  0  0
   25.1642  -20.4916   -7.9518 C   0  0  0  0  0  0  0  0  0  0  0  0
   26.6432  -20.4964   -8.0560 C   0  0  0  0  0  0  0  0  0  0  0  0
   27.3651  -21.1171   -9.0646 C   0  0  0  0  0  0  0  0  0  0  0  0
   28.6876  -20.9226   -8.8494 N   0  0  0  0  0  0  0  0  0  0  0  0
   28.8641  -20.1954   -7.7346 C   0  0  0  0  0  0  0  0  0  0  0  0
   29.9946  -19.7224   -7.0758 C   0  0  0  0  0  0  0  0  0  0  0  0
   29.8244  -18.9955   -5.9387 C   0  0  0  0  0  0  0  0  0  0  0  0
   28.5681  -18.7149   -5.4223 C   0  0  0  0  0  0  0  0  0  0  0  0
   27.4618  -19.1906   -6.0868 C   0  0  0  0  0  0  0  0  0  0  0  0
   27.5868  -19.9242   -7.2313 C   0  0  0  0  0  0  0  0  0  0  0  0
   23.0582  -20.6711   -9.2539 C   0  0  0  0  0  0  0  0  0  0  0  0
   22.5791  -19.6484   -9.7506 O   0  0  0  0  0  0  0  0  0  0  0  0
   20.3113  -23.0121  -10.5655 C   0  0  0  0  0  0  0  0  0  0  0  0
   20.0813  -21.6198   -9.9980 C   0  0  2  0  0  0  0  0  0  0  0  0
   20.6661  -20.6707  -11.0200 C   0  0  0  0  0  0  0  0  0  0  0  0
   20.7630  -21.5645   -8.6817 C   0  0  2  0  0  0  0  0  0  0  0  0
   22.1850  -21.6186   -8.6907 N   0  0  0  0  0  0  0  0  0  0  0  0
   20.2681  -22.6919   -7.8428 C   0  0  0  0  0  0  0  0  0  0  0  0
   20.8263  -23.8370   -7.8496 O   0  0  0  0  0  0  0  0  0  0  0  0
   19.1452  -22.5513   -6.9885 N   0  0  0  0  0  0  0  0  0  0  0  0
   18.7926  -23.5980   -6.0594 C   0  0  0  0  0  0  0  0  0  0  0  0
   17.9097  -24.6052   -6.6515 C   0  0  0  0  0  0  0  0  0  0  0  0
   17.4918  -25.7113   -5.9317 O   0  0  0  0  0  0  0  0  0  0  0  0
   17.5074  -24.4892   -7.8348 O   0  0  0  0  0  0  0  0  0  0  0  0
  2 13  1  0
  2  1  1  6
  3  2  1  0
  4  3  1  0
  5  4  2  0
  6  7  1  0
  6  5  1  0
  7 12  2  0
  8  9  2  0
  8  7  1  0
  9 10  1  0
 10 11  2  0
 12  4  1  0
 12 11  1  0
 13 14  2  0
 16 15  1  6
 17 16  1  0
 18 16  1  0
 18 19  1  6
 19 13  1  0
 20 21  2  0
 20 18  1  0
 22 20  1  0
 23 22  1  0
 24 23  1  0
 25 24  1  0
 26 24  2  0
M  END
$$$$
