WVG.pdb
     RDKit          3D

 26 27  0  0  1  0  0  0  0  0999 V2000
   26.7165  -22.0420  -13.1069 N   0  0  0  0  0  0  0  0  0  0  0  0
   25.8498  -21.3664  -12.1645 C   0  0  1  0  0  0  0  0  0  0  0  0
   26.6295  -20.1991  -11.6027 C   0  0  0  0  0  0  0  0  0  0  0  0
   27.6339  -20.6551  -10.6121 C   0  0  0  0  0  0  0  0  0  0  0  0
   28.8068  -21.3267  -10.9237 C   0  0  0  0  0  0  0  0  0  0  0  0
   29.4852  -21.5902   -9.7820 N   0  0  0  0  0  0  0  0  0  0  0  0
   28.8016  -21.1163   -8.7279 C   0  0  0  0  0  0  0  0  0  0  0  0
   29.0431  -21.1190   -7.3577 C   0  0  0  0  0  0  0  0  0  0  0  0
   28.1256  -20.5391   -6.5377 C   0  0  0  0  0  0  0  0  0  0  0  0
   26.9674  -19.9509   -7.0239 C   0  0  0  0  0  0  0  0  0  0  0  0
   26.7453  -19.9576   -8.3812 C   0  0  0  0  0  0  0  0  0  0  0  0
   27.6396  -20.5285   -9.2402 C   0  0  0  0  0  0  0  0  0  0  0  0
   24.6221  -20.9353  -12.8641 C   0  0  0  0  0  0  0  0  0  0  0  0
   24.7170  -20.1246  -13.7893 O   0  0  0  0  0  0  0  0  0  0  0  0
   21.9285  -23.1684  -14.3761 C   0  0  0  0  0  0  0  0  0  0  0  0
   21.8918  -21.6535  -14.5068 C   0  0  2  0  0  0  0  0  0  0  0  0
   22.9888  -21.3111  -15.4900 C   0  0  0  0  0  0  0  0  0  0  0  0
   22.1148  -21.0908  -13.1525 C   0  0  2  0  0  0  0  0  0  0  0  0
   23.3462  -21.4135  -12.5164 N   0  0  0  0  0  0  0  0  0  0  0  0
   21.0085  -21.5422  -12.2625 C   0  0  0  0  0  0  0  0  0  0  0  0
   21.1082  -22.5808  -11.5317 O   0  0  0  0  0  0  0  0  0  0  0  0
   19.7805  -20.8381  -12.1803 N   0  0  0  0  0  0  0  0  0  0  0  0
   18.7355  -21.2840  -11.2903 C   0  0  0  0  0  0  0  0  0  0  0  0
   17.8780  -22.3067  -11.8932 C   0  0  0  0  0  0  0  0  0  0  0  0
   16.8199  -22.8639  -11.1961 O   0  0  0  0  0  0  0  0  0  0  0  0
   18.0832  -22.7057  -13.0655 O   0  0  0  0  0  0  0  0  0  0  0  0
  2 13  1  0
  2  1  1  6
  3  2  1  0
  4  3  1  0
  5  4  2  0
  6  7  1  0
  6  5  1  0
  7 12  2  0
  8  9  2  0
  8  7  1  0
  9 10  1  0
 10 11  2  0
 12  4  1  0
 12 11  1  0
 13 14  2  0
 16 15  1  1
 17 16  1  0
 18 16  1  0
 18 19  1  1
 19 13  1  0
 20 21  2  0
 20 18  1  0
 22 20  1  0
 23 22  1  0
 24 23  1  0
 25 24  1  0
 26 24  2  0
M  END
$$$$
