WVG.pdb
     RDKit          3D

 26 27  0  0  1  0  0  0  0  0999 V2000
   26.6219  -22.0436  -10.3782 N   0  0  0  0  0  0  0  0  0  0  0  0
   26.0104  -20.8946   -9.7445 C   0  0  1  0  0  0  0  0  0  0  0  0
   27.1024  -19.8701   -9.5348 C   0  0  0  0  0  0  0  0  0  0  0  0
   28.1055  -20.3519   -8.5550 C   0  0  0  0  0  0  0  0  0  0  0  0
   29.1866  -21.1647   -8.8616 C   0  0  0  0  0  0  0  0  0  0  0  0
   29.8931  -21.4099   -7.7329 N   0  0  0  0  0  0  0  0  0  0  0  0
   29.3165  -20.7875   -6.6922 C   0  0  0  0  0  0  0  0  0  0  0  0
   29.6271  -20.7106   -5.3382 C   0  0  0  0  0  0  0  0  0  0  0  0
   28.8167  -19.9766   -4.5289 C   0  0  0  0  0  0  0  0  0  0  0  0
   27.7003  -19.3090   -5.0105 C   0  0  0  0  0  0  0  0  0  0  0  0
   27.4087  -19.3963   -6.3518 C   0  0  0  0  0  0  0  0  0  0  0  0
   28.1949  -20.1219   -7.1996 C   0  0  0  0  0  0  0  0  0  0  0  0
   24.9260  -20.3882  -10.6108 C   0  0  0  0  0  0  0  0  0  0  0  0
   24.1803  -19.5059  -10.1777 O   0  0  0  0  0  0  0  0  0  0  0  0
   24.0036  -21.3365  -15.1116 C   0  0  0  0  0  0  0  0  0  0  0  0
   24.9478  -20.4292  -14.3378 C   0  0  2  0  0  0  0  0  0  0  0  0
   26.2288  -21.2195  -14.1899 C   0  0  0  0  0  0  0  0  0  0  0  0
   24.2935  -20.1164  -13.0438 C   0  0  2  0  0  0  0  0  0  0  0  0
   24.7095  -20.8733  -11.9128 N   0  0  0  0  0  0  0  0  0  0  0  0
   22.8228  -20.2976  -13.1992 C   0  0  0  0  0  0  0  0  0  0  0  0
   22.0560  -19.3422  -13.5484 O   0  0  0  0  0  0  0  0  0  0  0  0
   22.1948  -21.5473  -12.9661 N   0  0  0  0  0  0  0  0  0  0  0  0
   20.7603  -21.6775  -13.0573 C   0  0  0  0  0  0  0  0  0  0  0  0
   20.3003  -23.0459  -12.8114 C   0  0  0  0  0  0  0  0  0  0  0  0
   18.9564  -23.3384  -12.6547 O   0  0  0  0  0  0  0  0  0  0  0  0
   21.1196  -23.9939  -12.7363 O   0  0  0  0  0  0  0  0  0  0  0  0
  2 13  1  0
  2  1  1  6
  3  2  1  0
  4  3  1  0
  5  4  2  0
  6  7  1  0
  6  5  1  0
  7 12  2  0
  8  9  2  0
  8  7  1  0
  9 10  1  0
 10 11  2  0
 12  4  1  0
 12 11  1  0
 13 14  2  0
 16 15  1  6
 17 16  1  0
 18 16  1  0
 18 19  1  1
 19 13  1  0
 20 21  2  0
 20 18  1  0
 22 20  1  0
 23 22  1  0
 24 23  1  0
 25 24  1  0
 26 24  2  0
M  END
$$$$
