WVG.pdb
     RDKit          3D

 26 27  0  0  1  0  0  0  0  0999 V2000
   25.0817  -21.4022   -9.3640 N   0  0  0  0  0  0  0  0  0  0  0  0
   26.0896  -20.4200   -9.7034 C   0  0  1  0  0  0  0  0  0  0  0  0
   27.2684  -20.6592   -8.7872 C   0  0  0  0  0  0  0  0  0  0  0  0
   26.9061  -20.4021   -7.3727 C   0  0  0  0  0  0  0  0  0  0  0  0
   25.6343  -20.5521   -6.8400 C   0  0  0  0  0  0  0  0  0  0  0  0
   25.6626  -20.2333   -5.5245 N   0  0  0  0  0  0  0  0  0  0  0  0
   26.9080  -19.8783   -5.1700 C   0  0  0  0  0  0  0  0  0  0  0  0
   27.4751  -19.4691   -3.9672 C   0  0  0  0  0  0  0  0  0  0  0  0
   28.8030  -19.1750   -3.9446 C   0  0  0  0  0  0  0  0  0  0  0  0
   29.6002  -19.2704   -5.0757 C   0  0  0  0  0  0  0  0  0  0  0  0
   29.0225  -19.6765   -6.2560 C   0  0  0  0  0  0  0  0  0  0  0  0
   27.6937  -19.9815   -6.3234 C   0  0  0  0  0  0  0  0  0  0  0  0
   26.4480  -20.5716  -11.1286 C   0  0  0  0  0  0  0  0  0  0  0  0
   27.4494  -21.2287  -11.4245 O   0  0  0  0  0  0  0  0  0  0  0  0
   23.8487  -21.2412  -13.9963 C   0  0  0  0  0  0  0  0  0  0  0  0
   25.3468  -21.2737  -14.2571 C   0  0  2  0  0  0  0  0  0  0  0  0
   25.8182  -22.6029  -13.7110 C   0  0  0  0  0  0  0  0  0  0  0  0
   25.9387  -20.1051  -13.5610 C   0  0  2  0  0  0  0  0  0  0  0  0
   25.6911  -19.9950  -12.1640 N   0  0  0  0  0  0  0  0  0  0  0  0
   25.4405  -18.8615  -14.2129 C   0  0  0  0  0  0  0  0  0  0  0  0
   24.6130  -18.0810  -13.6394 O   0  0  0  0  0  0  0  0  0  0  0  0
   25.8615  -18.4779  -15.5114 N   0  0  0  0  0  0  0  0  0  0  0  0
   25.3439  -17.2800  -16.1280 C   0  0  0  0  0  0  0  0  0  0  0  0
   26.3271  -16.1954  -16.1690 C   0  0  0  0  0  0  0  0  0  0  0  0
   26.0660  -15.0092  -16.8330 O   0  0  0  0  0  0  0  0  0  0  0  0
   27.4388  -16.3160  -15.5987 O   0  0  0  0  0  0  0  0  0  0  0  0
  2 13  1  0
  2  1  1  1
  3  2  1  0
  4  3  1  0
  5  4  2  0
  6  7  1  0
  6  5  1  0
  7 12  2  0
  8  9  2  0
  8  7  1  0
  9 10  1  0
 10 11  2  0
 12  4  1  0
 12 11  1  0
 13 14  2  0
 16 15  1  1
 17 16  1  0
 18 16  1  0
 18 19  1  1
 19 13  1  0
 20 21  2  0
 20 18  1  0
 22 20  1  0
 23 22  1  0
 24 23  1  0
 25 24  1  0
 26 24  2  0
M  END
$$$$
