WVG.pdb
     RDKit          3D

 26 27  0  0  1  0  0  0  0  0999 V2000
   28.2285  -21.8494  -10.2508 N   0  0  0  0  0  0  0  0  0  0  0  0
   26.9793  -21.1216  -10.1758 C   0  0  1  0  0  0  0  0  0  0  0  0
   27.2539  -19.8464   -9.4113 C   0  0  0  0  0  0  0  0  0  0  0  0
   26.9920  -20.0252   -7.9629 C   0  0  0  0  0  0  0  0  0  0  0  0
   25.7487  -20.2910   -7.4088 C   0  0  0  0  0  0  0  0  0  0  0  0
   25.8735  -20.3932   -6.0645 N   0  0  0  0  0  0  0  0  0  0  0  0
   27.1552  -20.2043   -5.7118 C   0  0  0  0  0  0  0  0  0  0  0  0
   27.8150  -20.2031   -4.4869 C   0  0  0  0  0  0  0  0  0  0  0  0
   29.1556  -19.9727   -4.4741 C   0  0  0  0  0  0  0  0  0  0  0  0
   29.8766  -19.7412   -5.6361 C   0  0  0  0  0  0  0  0  0  0  0  0
   29.2078  -19.7461   -6.8379 C   0  0  0  0  0  0  0  0  0  0  0  0
   27.8629  -19.9730   -6.8967 C   0  0  0  0  0  0  0  0  0  0  0  0
   26.4924  -20.8596  -11.5458 C   0  0  0  0  0  0  0  0  0  0  0  0
   27.2645  -20.3573  -12.3666 O   0  0  0  0  0  0  0  0  0  0  0  0
   23.6634  -23.1808  -13.3245 C   0  0  0  0  0  0  0  0  0  0  0  0
   24.4817  -22.1646  -14.1063 C   0  0  2  0  0  0  0  0  0  0  0  0
   25.7948  -22.8536  -14.4038 C   0  0  0  0  0  0  0  0  0  0  0  0
   24.6255  -20.9634  -13.2480 C   0  0  2  0  0  0  0  0  0  0  0  0
   25.1805  -21.1609  -11.9526 N   0  0  0  0  0  0  0  0  0  0  0  0
   23.2844  -20.3364  -13.0799 C   0  0  0  0  0  0  0  0  0  0  0  0
   22.5207  -20.6230  -12.1014 O   0  0  0  0  0  0  0  0  0  0  0  0
   22.7836  -19.3837  -14.0029 N   0  0  0  0  0  0  0  0  0  0  0  0
   21.5050  -18.7507  -13.7850 C   0  0  0  0  0  0  0  0  0  0  0  0
   20.3845  -19.5568  -14.2744 C   0  0  0  0  0  0  0  0  0  0  0  0
   19.0924  -19.0608  -14.2928 O   0  0  0  0  0  0  0  0  0  0  0  0
   20.5702  -20.7259  -14.6920 O   0  0  0  0  0  0  0  0  0  0  0  0
  2 13  1  0
  2  1  1  6
  3  2  1  0
  4  3  1  0
  5  4  2  0
  6  7  1  0
  6  5  1  0
  7 12  2  0
  8  9  2  0
  8  7  1  0
  9 10  1  0
 10 11  2  0
 12  4  1  0
 12 11  1  0
 13 14  2  0
 16 15  1  1
 17 16  1  0
 18 16  1  0
 18 19  1  1
 19 13  1  0
 20 21  2  0
 20 18  1  0
 22 20  1  0
 23 22  1  0
 24 23  1  0
 25 24  1  0
 26 24  2  0
M  END
$$$$
