WVG.pdb
     RDKit          3D

 26 27  0  0  1  0  0  0  0  0999 V2000
   24.4212  -20.2240  -11.5405 N   0  0  0  0  0  0  0  0  0  0  0  0
   25.5784  -20.9727  -11.9834 C   0  0  1  0  0  0  0  0  0  0  0  0
   25.9271  -21.9449  -10.8792 C   0  0  0  0  0  0  0  0  0  0  0  0
   26.3803  -21.2302   -9.6618 C   0  0  0  0  0  0  0  0  0  0  0  0
   25.5533  -20.5170   -8.8068 C   0  0  0  0  0  0  0  0  0  0  0  0
   26.2961  -19.9949   -7.8024 N   0  0  0  0  0  0  0  0  0  0  0  0
   27.5840  -20.3383   -7.9642 C   0  0  0  0  0  0  0  0  0  0  0  0
   28.7387  -20.0726   -7.2349 C   0  0  0  0  0  0  0  0  0  0  0  0
   29.9179  -20.5827   -7.6814 C   0  0  0  0  0  0  0  0  0  0  0  0
   30.0014  -21.3529   -8.8320 C   0  0  0  0  0  0  0  0  0  0  0  0
   28.8497  -21.6053   -9.5402 C   0  0  0  0  0  0  0  0  0  0  0  0
   27.6450  -21.1130   -9.1280 C   0  0  0  0  0  0  0  0  0  0  0  0
   25.2515  -21.6580  -13.2507 C   0  0  0  0  0  0  0  0  0  0  0  0
   24.2250  -22.3398  -13.3117 O   0  0  0  0  0  0  0  0  0  0  0  0
   25.5744  -21.7639  -18.0671 C   0  0  0  0  0  0  0  0  0  0  0  0
   25.2768  -21.1558  -16.7051 C   0  0  2  0  0  0  0  0  0  0  0  0
   25.9861  -19.8200  -16.7009 C   0  0  0  0  0  0  0  0  0  0  0  0
   25.7882  -22.1000  -15.6818 C   0  0  2  0  0  0  0  0  0  0  0  0
   26.0659  -21.5639  -14.3932 N   0  0  0  0  0  0  0  0  0  0  0  0
   27.0388  -22.7257  -16.1957 C   0  0  0  0  0  0  0  0  0  0  0  0
   27.0248  -23.6270  -17.0959 O   0  0  0  0  0  0  0  0  0  0  0  0
   28.3169  -22.3509  -15.7093 N   0  0  0  0  0  0  0  0  0  0  0  0
   29.5112  -22.9805  -16.2193 C   0  0  0  0  0  0  0  0  0  0  0  0
   30.0454  -22.3038  -17.4031 C   0  0  0  0  0  0  0  0  0  0  0  0
   31.2130  -22.7295  -18.0125 O   0  0  0  0  0  0  0  0  0  0  0  0
   29.4529  -21.3137  -17.8975 O   0  0  0  0  0  0  0  0  0  0  0  0
  2 13  1  0
  2  1  1  1
  3  2  1  0
  4  3  1  0
  5  4  2  0
  6  7  1  0
  6  5  1  0
  7 12  2  0
  8  9  2  0
  8  7  1  0
  9 10  1  0
 10 11  2  0
 12  4  1  0
 12 11  1  0
 13 14  2  0
 16 15  1  6
 17 16  1  0
 18 16  1  0
 18 19  1  1
 19 13  1  0
 20 21  2  0
 20 18  1  0
 22 20  1  0
 23 22  1  0
 24 23  1  0
 25 24  1  0
 26 24  2  0
M  END
$$$$
