WVG.pdb
     RDKit          3D

 26 27  0  0  1  0  0  0  0  0999 V2000
   28.4298  -21.4766  -10.2318 N   0  0  0  0  0  0  0  0  0  0  0  0
   27.0775  -20.9864  -10.0682 C   0  0  1  0  0  0  0  0  0  0  0  0
   27.1699  -19.6629   -9.3430 C   0  0  0  0  0  0  0  0  0  0  0  0
   28.0930  -19.7514   -8.1861 C   0  0  0  0  0  0  0  0  0  0  0  0
   29.4765  -19.7041   -8.2700 C   0  0  0  0  0  0  0  0  0  0  0  0
   30.0016  -19.8127   -7.0268 N   0  0  0  0  0  0  0  0  0  0  0  0
   29.0135  -19.9299   -6.1252 C   0  0  0  0  0  0  0  0  0  0  0  0
   28.9997  -20.0676   -4.7408 C   0  0  0  0  0  0  0  0  0  0  0  0
   27.7974  -20.1638   -4.1119 C   0  0  0  0  0  0  0  0  0  0  0  0
   26.5963  -20.1289   -4.8048 C   0  0  0  0  0  0  0  0  0  0  0  0
   26.6292  -19.9923   -6.1729 C   0  0  0  0  0  0  0  0  0  0  0  0
   27.8136  -19.8923   -6.8443 C   0  0  0  0  0  0  0  0  0  0  0  0
   26.4501  -20.8532  -11.3991 C   0  0  0  0  0  0  0  0  0  0  0  0
   27.1623  -20.5804  -12.3689 O   0  0  0  0  0  0  0  0  0  0  0  0
   23.1639  -22.9641  -12.6563 C   0  0  0  0  0  0  0  0  0  0  0  0
   24.0334  -22.1166  -13.5722 C   0  0  2  0  0  0  0  0  0  0  0  0
   25.2387  -22.9751  -13.8851 C   0  0  0  0  0  0  0  0  0  0  0  0
   24.3680  -20.8744  -12.8337 C   0  0  2  0  0  0  0  0  0  0  0  0
   25.0697  -21.0255  -11.6050 N   0  0  0  0  0  0  0  0  0  0  0  0
   23.1057  -20.1352  -12.5512 C   0  0  0  0  0  0  0  0  0  0  0  0
   22.5453  -20.1643  -11.4076 O   0  0  0  0  0  0  0  0  0  0  0  0
   22.4572  -19.3566  -13.5431 N   0  0  0  0  0  0  0  0  0  0  0  0
   21.2771  -18.5906  -13.2212 C   0  0  0  0  0  0  0  0  0  0  0  0
   20.0382  -19.3339  -13.4607 C   0  0  0  0  0  0  0  0  0  0  0  0
   18.7988  -18.7706  -13.2105 O   0  0  0  0  0  0  0  0  0  0  0  0
   20.0704  -20.5086  -13.9018 O   0  0  0  0  0  0  0  0  0  0  0  0
  2 13  1  0
  2  1  1  6
  3  2  1  0
  4  3  1  0
  5  4  2  0
  6  7  1  0
  6  5  1  0
  7 12  2  0
  8  9  2  0
  8  7  1  0
  9 10  1  0
 10 11  2  0
 12  4  1  0
 12 11  1  0
 13 14  2  0
 16 15  1  1
 17 16  1  0
 18 16  1  0
 18 19  1  1
 19 13  1  0
 20 21  2  0
 20 18  1  0
 22 20  1  0
 23 22  1  0
 24 23  1  0
 25 24  1  0
 26 24  2  0
M  END
$$$$
