PLC.pdb
     RDKit          3D

 22 22  0  0  1  0  0  0  0  0999 V2000
    7.1470  -15.0014   20.8112 N   0  0  0  0  0  0  0  0  0  0  0  0
    6.6739  -14.5266   19.5296 C   0  0  0  0  0  0  0  0  0  0  0  0
    7.3575  -13.2275   19.2428 C   0  0  0  0  0  0  0  0  0  0  0  0
    8.1055  -12.9349   20.5274 C   0  0  0  0  0  0  0  0  0  0  0  0
    8.3961  -14.3386   21.0202 C   0  0  1  0  0  0  0  0  0  0  0  0
    8.8255  -14.3535   22.4434 C   0  0  0  0  0  0  0  0  0  0  0  0
   10.0515  -14.2636   22.7103 O   0  0  0  0  0  0  0  0  0  0  0  0
    7.9308  -11.8282   26.1967 C   0  0  0  0  0  0  0  0  0  0  0  0
    6.7780  -12.6065   25.5597 C   0  0  2  0  0  0  0  0  0  0  0  0
    5.5344  -12.2064   26.3394 C   0  0  0  0  0  0  0  0  0  0  0  0
    6.9785  -14.0879   25.7611 C   0  0  0  0  0  0  0  0  0  0  0  0
    8.0648  -14.6554   24.8522 C   0  0  2  0  0  0  0  0  0  0  0  0
    7.8452  -14.4682   23.4578 N   0  0  0  0  0  0  0  0  0  0  0  0
    8.5520  -15.9592   25.2763 C   0  0  0  0  0  0  0  0  0  0  0  0
    7.7906  -16.9631   25.2447 O   0  0  0  0  0  0  0  0  0  0  0  0
    9.8758  -16.1887   25.7411 N   0  0  0  0  0  0  0  0  0  0  0  0
   10.3498  -17.5245   26.0330 C   0  0  1  0  0  0  0  0  0  0  0  0
   11.7431  -17.7487   25.4595 C   0  0  0  0  0  0  0  0  0  0  0  0
   12.3941  -19.3260   26.0235 S   0  0  0  0  0  0  0  0  0  0  0  0
   10.3386  -17.7784   27.4951 C   0  0  0  0  0  0  0  0  0  0  0  0
   10.5111  -19.0428   28.0126 O   0  0  0  0  0  0  0  0  0  0  0  0
   10.1665  -16.8061   28.2675 O   0  0  0  0  0  0  0  0  0  0  0  0
  1  5  1  0
  2  1  1  0
  3  4  1  0
  3  2  1  0
  4  5  1  0
  5  6  1  1
  6  7  2  0
  9  8  1  1
  9 10  1  0
  9 11  1  0
 12 11  1  1
 12 13  1  0
 12 14  1  0
 13  6  1  0
 14 16  1  0
 15 14  2  0
 16 17  1  0
 17 20  1  0
 17 18  1  1
 19 18  1  0
 20 22  2  0
 20 21  1  0
M  END
$$$$
