PLC.pdb
     RDKit          3D

 22 22  0  0  1  0  0  0  0  0999 V2000
    7.1636  -14.7347   20.6560 N   0  0  0  0  0  0  0  0  0  0  0  0
    6.8970  -14.0645   19.4025 C   0  0  0  0  0  0  0  0  0  0  0  0
    7.7886  -12.8660   19.3263 C   0  0  0  0  0  0  0  0  0  0  0  0
    8.4377  -12.8256   20.6947 C   0  0  0  0  0  0  0  0  0  0  0  0
    8.4686  -14.3000   21.0448 C   0  0  1  0  0  0  0  0  0  0  0  0
    8.7452  -14.5259   22.4880 C   0  0  0  0  0  0  0  0  0  0  0  0
    9.9051  -14.8624   22.8401 O   0  0  0  0  0  0  0  0  0  0  0  0
    7.9792  -11.7651   26.2932 C   0  0  0  0  0  0  0  0  0  0  0  0
    6.7943  -12.2962   25.4844 C   0  0  2  0  0  0  0  0  0  0  0  0
    5.5556  -11.6920   26.1287 C   0  0  0  0  0  0  0  0  0  0  0  0
    6.6941  -13.7939   25.6332 C   0  0  0  0  0  0  0  0  0  0  0  0
    7.7678  -14.5294   24.8367 C   0  0  2  0  0  0  0  0  0  0  0  0
    7.6982  -14.3567   23.4251 N   0  0  0  0  0  0  0  0  0  0  0  0
    8.0339  -15.8733   25.3269 C   0  0  0  0  0  0  0  0  0  0  0  0
    7.2026  -16.7991   25.1258 O   0  0  0  0  0  0  0  0  0  0  0  0
    9.2094  -16.2286   26.0432 N   0  0  0  0  0  0  0  0  0  0  0  0
    9.7254  -17.5804   26.0193 C   0  0  1  0  0  0  0  0  0  0  0  0
   10.3124  -17.9183   24.6548 C   0  0  0  0  0  0  0  0  0  0  0  0
   11.0893  -19.5381   24.7033 S   0  0  0  0  0  0  0  0  0  0  0  0
   10.7371  -17.7760   27.0871 C   0  0  0  0  0  0  0  0  0  0  0  0
   11.1316  -16.7444   27.9096 O   0  0  0  0  0  0  0  0  0  0  0  0
   11.2373  -18.9163   27.2325 O   0  0  0  0  0  0  0  0  0  0  0  0
  1  5  1  0
  2  1  1  0
  3  4  1  0
  3  2  1  0
  4  5  1  0
  5  6  1  1
  6  7  2  0
  9  8  1  1
  9 10  1  0
  9 11  1  0
 12 11  1  1
 12 13  1  0
 12 14  1  0
 13  6  1  0
 14 16  1  0
 15 14  2  0
 16 17  1  0
 17 20  1  0
 17 18  1  6
 19 18  1  0
 20 22  2  0
 20 21  1  0
M  END
$$$$
