PLC.pdb
     RDKit          3D

 22 22  0  0  1  0  0  0  0  0999 V2000
    7.2166  -14.6274   20.7421 N   0  0  0  0  0  0  0  0  0  0  0  0
    6.8603  -13.9606   19.5093 C   0  0  0  0  0  0  0  0  0  0  0  0
    7.7172  -12.7411   19.3850 C   0  0  0  0  0  0  0  0  0  0  0  0
    8.4453  -12.6886   20.7126 C   0  0  0  0  0  0  0  0  0  0  0  0
    8.5317  -14.1627   21.0546 C   0  0  1  0  0  0  0  0  0  0  0  0
    8.8987  -14.3856   22.4779 C   0  0  0  0  0  0  0  0  0  0  0  0
   10.1082  -14.5647   22.7738 O   0  0  0  0  0  0  0  0  0  0  0  0
    8.3139  -11.8723   26.2379 C   0  0  0  0  0  0  0  0  0  0  0  0
    7.0520  -12.4419   25.5873 C   0  0  2  0  0  0  0  0  0  0  0  0
    5.8879  -11.8692   26.3819 C   0  0  0  0  0  0  0  0  0  0  0  0
    7.0149  -13.9409   25.7515 C   0  0  0  0  0  0  0  0  0  0  0  0
    8.0247  -14.6484   24.8526 C   0  0  2  0  0  0  0  0  0  0  0  0
    7.8795  -14.3902   23.4599 N   0  0  0  0  0  0  0  0  0  0  0  0
    8.2870  -16.0242   25.2469 C   0  0  0  0  0  0  0  0  0  0  0  0
    7.4241  -16.9196   25.0409 O   0  0  0  0  0  0  0  0  0  0  0  0
    9.4929  -16.4450   25.8713 N   0  0  0  0  0  0  0  0  0  0  0  0
    9.9380  -17.8200   25.7980 C   0  0  1  0  0  0  0  0  0  0  0  0
   10.3325  -18.1927   24.3745 C   0  0  0  0  0  0  0  0  0  0  0  0
   10.9371  -19.8844   24.3266 S   0  0  0  0  0  0  0  0  0  0  0  0
   11.0657  -18.0581   26.7328 C   0  0  0  0  0  0  0  0  0  0  0  0
   11.4896  -19.3297   27.0483 O   0  0  0  0  0  0  0  0  0  0  0  0
   11.6380  -17.0653   27.2411 O   0  0  0  0  0  0  0  0  0  0  0  0
  1  5  1  0
  2  1  1  0
  3  4  1  0
  3  2  1  0
  4  5  1  0
  5  6  1  1
  6  7  2  0
  9  8  1  1
  9 10  1  0
  9 11  1  0
 12 11  1  1
 12 13  1  0
 12 14  1  0
 13  6  1  0
 14 16  1  0
 15 14  2  0
 16 17  1  0
 17 20  1  0
 17 18  1  6
 19 18  1  0
 20 22  2  0
 20 21  1  0
M  END
$$$$
