PLC.pdb
     RDKit          3D

 22 22  0  0  1  0  0  0  0  0999 V2000
    7.1228  -15.1366   21.2705 N   0  0  0  0  0  0  0  0  0  0  0  0
    6.6671  -14.6678   19.9805 C   0  0  0  0  0  0  0  0  0  0  0  0
    7.5177  -13.5006   19.5918 C   0  0  0  0  0  0  0  0  0  0  0  0
    8.3562  -13.2516   20.8288 C   0  0  0  0  0  0  0  0  0  0  0  0
    8.4625  -14.6539   21.3944 C   0  0  1  0  0  0  0  0  0  0  0  0
    8.9478  -14.6543   22.7997 C   0  0  0  0  0  0  0  0  0  0  0  0
   10.1781  -14.5098   23.0189 O   0  0  0  0  0  0  0  0  0  0  0  0
    8.3030  -12.0146   26.4475 C   0  0  0  0  0  0  0  0  0  0  0  0
    7.1000  -12.7761   25.8879 C   0  0  2  0  0  0  0  0  0  0  0  0
    5.9007  -12.2916   26.6887 C   0  0  0  0  0  0  0  0  0  0  0  0
    7.2517  -14.2532   26.1534 C   0  0  0  0  0  0  0  0  0  0  0  0
    8.2916  -14.9025   25.2450 C   0  0  2  0  0  0  0  0  0  0  0  0
    8.0143  -14.8170   23.8510 N   0  0  0  0  0  0  0  0  0  0  0  0
    8.7823  -16.1776   25.7453 C   0  0  0  0  0  0  0  0  0  0  0  0
    8.0348  -17.1925   25.7396 O   0  0  0  0  0  0  0  0  0  0  0  0
   10.0944  -16.3662   26.2591 N   0  0  0  0  0  0  0  0  0  0  0  0
   10.5392  -17.6603   26.7300 C   0  0  1  0  0  0  0  0  0  0  0  0
   11.8344  -18.0768   26.0445 C   0  0  0  0  0  0  0  0  0  0  0  0
   12.4486  -19.6039   26.7659 S   0  0  0  0  0  0  0  0  0  0  0  0
   10.7061  -17.6543   28.2045 C   0  0  0  0  0  0  0  0  0  0  0  0
   10.6744  -16.4861   28.9329 O   0  0  0  0  0  0  0  0  0  0  0  0
   10.8796  -18.7497   28.7891 O   0  0  0  0  0  0  0  0  0  0  0  0
  1  5  1  0
  2  1  1  0
  3  4  1  0
  3  2  1  0
  4  5  1  0
  5  6  1  1
  6  7  2  0
  9  8  1  1
  9 10  1  0
  9 11  1  0
 12 11  1  1
 12 13  1  0
 12 14  1  0
 13  6  1  0
 14 16  1  0
 15 14  2  0
 16 17  1  0
 17 20  1  0
 17 18  1  6
 19 18  1  0
 20 22  2  0
 20 21  1  0
M  END
$$$$
