PLC.pdb
     RDKit          3D

 22 22  0  0  1  0  0  0  0  0999 V2000
    7.0563  -14.8808   20.1614 N   0  0  0  0  0  0  0  0  0  0  0  0
    6.7255  -14.3521   18.8565 C   0  0  0  0  0  0  0  0  0  0  0  0
    7.6126  -13.1752   18.6018 C   0  0  0  0  0  0  0  0  0  0  0  0
    8.3318  -12.9872   19.9220 C   0  0  0  0  0  0  0  0  0  0  0  0
    8.3800  -14.4138   20.4318 C   0  0  1  0  0  0  0  0  0  0  0  0
    8.7309  -14.4798   21.8750 C   0  0  0  0  0  0  0  0  0  0  0  0
    9.9327  -14.6566   22.2017 O   0  0  0  0  0  0  0  0  0  0  0  0
    5.9348  -12.5438   27.1269 C   0  0  0  0  0  0  0  0  0  0  0  0
    7.1208  -13.2159   26.4327 C   0  0  2  0  0  0  0  0  0  0  0  0
    8.2950  -12.2664   26.6181 C   0  0  0  0  0  0  0  0  0  0  0  0
    6.8604  -13.3258   24.9509 C   0  0  0  0  0  0  0  0  0  0  0  0
    7.8577  -14.2457   24.2530 C   0  0  2  0  0  0  0  0  0  0  0  0
    7.7053  -14.3423   22.8406 N   0  0  0  0  0  0  0  0  0  0  0  0
    8.1105  -15.4819   24.9775 C   0  0  0  0  0  0  0  0  0  0  0  0
    7.1808  -16.3134   25.1592 O   0  0  0  0  0  0  0  0  0  0  0  0
    9.3797  -15.8307   25.5148 N   0  0  0  0  0  0  0  0  0  0  0  0
    9.6336  -17.1519   26.0481 C   0  0  1  0  0  0  0  0  0  0  0  0
   10.5557  -17.9447   25.1305 C   0  0  0  0  0  0  0  0  0  0  0  0
   12.0574  -17.0105   24.8111 S   0  0  0  0  0  0  0  0  0  0  0  0
   10.2034  -17.0663   27.4156 C   0  0  0  0  0  0  0  0  0  0  0  0
   10.4542  -18.1920   28.1682 O   0  0  0  0  0  0  0  0  0  0  0  0
   10.4583  -15.9322   27.8851 O   0  0  0  0  0  0  0  0  0  0  0  0
  1  5  1  0
  2  1  1  0
  3  4  1  0
  3  2  1  0
  4  5  1  0
  5  6  1  1
  6  7  2  0
  9  8  1  1
  9 10  1  0
  9 11  1  0
 12 11  1  1
 12 13  1  0
 12 14  1  0
 13  6  1  0
 14 16  1  0
 15 14  2  0
 16 17  1  0
 17 20  1  0
 17 18  1  6
 19 18  1  0
 20 22  2  0
 20 21  1  0
M  END
$$$$
