PLC.pdb
     RDKit          3D

 22 22  0  0  1  0  0  0  0  0999 V2000
    7.1463  -14.9454   20.4470 N   0  0  0  0  0  0  0  0  0  0  0  0
    6.7874  -14.5947   19.0907 C   0  0  0  0  0  0  0  0  0  0  0  0
    7.6247  -13.4239   18.6844 C   0  0  0  0  0  0  0  0  0  0  0  0
    8.3427  -13.0467   19.9641 C   0  0  0  0  0  0  0  0  0  0  0  0
    8.4514  -14.3967   20.6445 C   0  0  1  0  0  0  0  0  0  0  0  0
    8.8124  -14.2709   22.0812 C   0  0  0  0  0  0  0  0  0  0  0  0
   10.0185  -14.0947   22.3926 O   0  0  0  0  0  0  0  0  0  0  0  0
    5.8886  -12.5515   27.2883 C   0  0  0  0  0  0  0  0  0  0  0  0
    7.1210  -13.1533   26.6106 C   0  0  2  0  0  0  0  0  0  0  0  0
    8.2131  -12.1021   26.7401 C   0  0  0  0  0  0  0  0  0  0  0  0
    6.8588  -13.3512   25.1383 C   0  0  0  0  0  0  0  0  0  0  0  0
    7.9320  -14.2031   24.4671 C   0  0  2  0  0  0  0  0  0  0  0  0
    7.7915  -14.3527   23.0580 N   0  0  0  0  0  0  0  0  0  0  0  0
    8.2868  -15.3921   25.2268 C   0  0  0  0  0  0  0  0  0  0  0  0
    7.4085  -16.2506   25.5102 O   0  0  0  0  0  0  0  0  0  0  0  0
    9.6035  -15.6638   25.6891 N   0  0  0  0  0  0  0  0  0  0  0  0
    9.9299  -16.9156   26.3378 C   0  0  1  0  0  0  0  0  0  0  0  0
   11.1107  -17.5942   25.6554 C   0  0  0  0  0  0  0  0  0  0  0  0
   10.8557  -17.6304   23.8768 S   0  0  0  0  0  0  0  0  0  0  0  0
   10.2100  -16.7032   27.7795 C   0  0  0  0  0  0  0  0  0  0  0  0
   10.4868  -17.7531   28.6265 O   0  0  0  0  0  0  0  0  0  0  0  0
   10.1906  -15.5312   28.2240 O   0  0  0  0  0  0  0  0  0  0  0  0
  1  5  1  0
  2  1  1  0
  3  4  1  0
  3  2  1  0
  4  5  1  0
  5  6  1  1
  6  7  2  0
  9  8  1  1
  9 10  1  0
  9 11  1  0
 12 11  1  1
 12 13  1  0
 12 14  1  0
 13  6  1  0
 14 16  1  0
 15 14  2  0
 16 17  1  0
 17 20  1  0
 17 18  1  6
 19 18  1  0
 20 22  2  0
 20 21  1  0
M  END
$$$$
