PLC.pdb
     RDKit          3D

 22 22  0  0  1  0  0  0  0  0999 V2000
    7.2332  -14.8769   20.8702 N   0  0  0  0  0  0  0  0  0  0  0  0
    6.9365  -14.3434   19.5592 C   0  0  0  0  0  0  0  0  0  0  0  0
    7.7060  -13.0709   19.3986 C   0  0  0  0  0  0  0  0  0  0  0  0
    8.3091  -12.8514   20.7710 C   0  0  0  0  0  0  0  0  0  0  0  0
    8.4769  -14.2809   21.2462 C   0  0  1  0  0  0  0  0  0  0  0  0
    8.7339  -14.3572   22.7085 C   0  0  0  0  0  0  0  0  0  0  0  0
    9.9233  -14.3978   23.1162 O   0  0  0  0  0  0  0  0  0  0  0  0
    6.0726  -11.7526   27.2478 C   0  0  0  0  0  0  0  0  0  0  0  0
    7.1625  -12.4419   26.4250 C   0  0  2  0  0  0  0  0  0  0  0  0
    7.5323  -11.4551   25.3277 C   0  0  0  0  0  0  0  0  0  0  0  0
    6.6058  -13.6731   25.7543 C   0  0  0  0  0  0  0  0  0  0  0  0
    7.6803  -14.4708   25.0213 C   0  0  2  0  0  0  0  0  0  0  0  0
    7.6357  -14.3821   23.6009 N   0  0  0  0  0  0  0  0  0  0  0  0
    7.9175  -15.7866   25.5952 C   0  0  0  0  0  0  0  0  0  0  0  0
    8.0128  -15.9272   26.8441 O   0  0  0  0  0  0  0  0  0  0  0  0
    8.0542  -16.9687   24.8173 N   0  0  0  0  0  0  0  0  0  0  0  0
    8.2040  -18.2663   25.4403 C   0  0  1  0  0  0  0  0  0  0  0  0
    7.4980  -19.3468   24.6313 C   0  0  0  0  0  0  0  0  0  0  0  0
    5.9274  -18.7271   24.0158 S   0  0  0  0  0  0  0  0  0  0  0  0
    9.6385  -18.6006   25.6203 C   0  0  0  0  0  0  0  0  0  0  0  0
   10.0401  -19.7825   26.2017 O   0  0  0  0  0  0  0  0  0  0  0  0
   10.4966  -17.7752   25.2276 O   0  0  0  0  0  0  0  0  0  0  0  0
  1  5  1  0
  2  1  1  0
  3  4  1  0
  3  2  1  0
  4  5  1  0
  5  6  1  1
  6  7  2  0
  9  8  1  1
  9 10  1  0
  9 11  1  0
 12 11  1  1
 12 13  1  0
 12 14  1  0
 13  6  1  0
 14 16  1  0
 15 14  2  0
 16 17  1  0
 17 20  1  0
 17 18  1  6
 19 18  1  0
 20 22  2  0
 20 21  1  0
M  END
$$$$
