EQN.pdb
     RDKit          3D

 27 26  0  0  1  0  0  0  0  0999 V2000
   26.9787  -21.4791  -15.9085 N   0  0  0  0  0  0  0  0  0  0  0  0
   26.4666  -20.1764  -15.4275 C   0  0  1  0  0  0  0  0  0  0  0  0
   27.2809  -19.1546  -16.1455 C   0  0  0  0  0  0  0  0  0  0  0  0
   26.8161  -18.7703  -17.5031 C   0  0  0  0  0  0  0  0  0  0  0  0
   27.7518  -17.7064  -18.0185 C   0  0  0  0  0  0  0  0  0  0  0  0
   28.8413  -17.4800  -17.4380 O   0  0  0  0  0  0  0  0  0  0  0  0
   25.0295  -20.1483  -15.6804 C   0  0  0  0  0  0  0  0  0  0  0  0
   24.4399  -21.1948  -16.1158 O   0  0  0  0  0  0  0  0  0  0  0  0
   27.4395  -16.9537  -19.1387 O   0  0  0  0  0  0  0  0  0  0  0  0
   21.2427  -22.2194  -15.3989 N   0  0  0  0  0  0  0  0  0  0  0  0
   20.2704  -21.2279  -15.1053 C   0  0  0  0  0  0  0  0  0  0  0  0
   19.0613  -21.5038  -15.2768 O   0  0  0  0  0  0  0  0  0  0  0  0
   20.6621  -19.8944  -14.6074 C   0  0  0  0  0  0  0  0  0  0  0  0
   22.1497  -19.8274  -14.4982 C   0  0  0  0  0  0  0  0  0  0  0  0
   22.7593  -19.0572  -15.6774 C   0  0  2  0  0  0  0  0  0  0  0  0
   24.1985  -19.0171  -15.4751 N   0  0  0  0  0  0  0  0  0  0  0  0
   22.2665  -17.6566  -15.6747 C   0  0  0  0  0  0  0  0  0  0  0  0
   22.4219  -16.8926  -14.6737 O   0  0  0  0  0  0  0  0  0  0  0  0
   19.8727  -13.2651  -19.2093 N   0  0  0  0  0  0  0  0  0  0  0  0
   20.7675  -13.6892  -18.1897 C   0  0  0  0  0  0  0  0  0  0  0  0
   21.1823  -12.8336  -17.3902 O   0  0  0  0  0  0  0  0  0  0  0  0
   21.1316  -15.1240  -18.1671 C   0  0  0  0  0  0  0  0  0  0  0  0
   21.0989  -15.7146  -16.7856 C   0  0  2  0  0  0  0  0  0  0  0  0
   21.5893  -17.0788  -16.7904 N   0  0  0  0  0  0  0  0  0  0  0  0
   19.7545  -15.6182  -16.1608 C   0  0  0  0  0  0  0  0  0  0  0  0
   19.3760  -14.5306  -15.3865 O   0  0  0  0  0  0  0  0  0  0  0  0
   18.8998  -16.5291  -16.3121 O   0  0  0  0  0  0  0  0  0  0  0  0
  2  1  1  6
  2  7  1  0
  3  2  1  0
  3  4  1  0
  4  5  1  0
  5  9  1  0
  6  5  2  0
  7  8  2  0
 11 10  1  0
 11 13  1  0
 12 11  2  0
 14 13  1  0
 15 14  1  1
 15 17  1  0
 16  7  1  0
 16 15  1  0
 17 18  2  0
 19 20  1  0
 20 21  2  0
 20 22  1  0
 23 22  1  6
 23 25  1  0
 24 17  1  0
 24 23  1  0
 25 27  2  0
 25 26  1  0
M  END
$$$$
