EQN.pdb
     RDKit          3D

 27 26  0  0  1  0  0  0  0  0999 V2000
   16.4097  -14.0361  -18.2312 N   0  0  0  0  0  0  0  0  0  0  0  0
   15.7506  -13.2161  -17.1901 C   0  0  1  0  0  0  0  0  0  0  0  0
   16.1241  -13.8616  -15.8991 C   0  0  0  0  0  0  0  0  0  0  0  0
   15.6142  -15.2385  -15.6740 C   0  0  0  0  0  0  0  0  0  0  0  0
   16.1177  -15.6941  -14.3279 C   0  0  0  0  0  0  0  0  0  0  0  0
   17.2599  -15.3611  -13.9285 O   0  0  0  0  0  0  0  0  0  0  0  0
   16.1919  -11.8369  -17.3719 C   0  0  0  0  0  0  0  0  0  0  0  0
   17.1234  -11.5719  -18.2051 O   0  0  0  0  0  0  0  0  0  0  0  0
   15.3410  -16.4870  -13.4990 O   0  0  0  0  0  0  0  0  0  0  0  0
   12.0699   -6.9381  -17.2529 N   0  0  0  0  0  0  0  0  0  0  0  0
   12.5239   -8.2744  -17.4037 C   0  0  0  0  0  0  0  0  0  0  0  0
   11.7412   -9.2096  -17.1202 O   0  0  0  0  0  0  0  0  0  0  0  0
   13.8881   -8.5706  -17.8839 C   0  0  0  0  0  0  0  0  0  0  0  0
   14.8469   -8.4524  -16.7454 C   0  0  0  0  0  0  0  0  0  0  0  0
   16.0698   -9.3563  -16.9527 C   0  0  2  0  0  0  0  0  0  0  0  0
   15.6544  -10.7222  -16.6783 N   0  0  0  0  0  0  0  0  0  0  0  0
   17.1297   -9.0044  -15.9744 C   0  0  0  0  0  0  0  0  0  0  0  0
   17.1198   -9.4485  -14.7858 O   0  0  0  0  0  0  0  0  0  0  0  0
   21.9930   -8.6596  -13.7582 N   0  0  0  0  0  0  0  0  0  0  0  0
   21.7122   -7.9048  -14.9294 C   0  0  0  0  0  0  0  0  0  0  0  0
   22.4213   -6.9120  -15.1629 O   0  0  0  0  0  0  0  0  0  0  0  0
   20.5908   -8.3693  -15.7771 C   0  0  0  0  0  0  0  0  0  0  0  0
   19.2631   -7.8095  -15.3501 C   0  0  2  0  0  0  0  0  0  0  0  0
   18.2240   -8.1487  -16.3023 N   0  0  0  0  0  0  0  0  0  0  0  0
   19.3202   -6.3462  -15.0999 C   0  0  0  0  0  0  0  0  0  0  0  0
   19.7949   -5.8185  -13.9074 O   0  0  0  0  0  0  0  0  0  0  0  0
   18.9360   -5.5219  -15.9695 O   0  0  0  0  0  0  0  0  0  0  0  0
  2  1  1  6
  2  7  1  0
  3  2  1  0
  3  4  1  0
  4  5  1  0
  5  9  1  0
  6  5  2  0
  7  8  2  0
 11 10  1  0
 11 13  1  0
 12 11  2  0
 14 13  1  0
 15 14  1  1
 15 17  1  0
 16  7  1  0
 16 15  1  0
 17 18  2  0
 19 20  1  0
 20 21  2  0
 20 22  1  0
 23 22  1  6
 23 25  1  0
 24 17  1  0
 24 23  1  0
 25 27  2  0
 25 26  1  0
M  END
$$$$
