EQN.pdb
     RDKit          3D

 27 26  0  0  1  0  0  0  0  0999 V2000
   19.3618  -12.7554  -17.5021 N   0  0  0  0  0  0  0  0  0  0  0  0
   20.8031  -12.4188  -17.5084 C   0  0  1  0  0  0  0  0  0  0  0  0
   21.4398  -13.4716  -18.3504 C   0  0  0  0  0  0  0  0  0  0  0  0
   20.5528  -14.1827  -19.3065 C   0  0  0  0  0  0  0  0  0  0  0  0
   20.8624  -15.6546  -19.2035 C   0  0  0  0  0  0  0  0  0  0  0  0
   20.0607  -16.4366  -18.6368 O   0  0  0  0  0  0  0  0  0  0  0  0
   20.9320  -11.0461  -17.9870 C   0  0  0  0  0  0  0  0  0  0  0  0
   22.0877  -10.5081  -18.0716 O   0  0  0  0  0  0  0  0  0  0  0  0
   22.0311  -16.1832  -19.7268 O   0  0  0  0  0  0  0  0  0  0  0  0
   16.5869   -7.5425  -20.8975 N   0  0  0  0  0  0  0  0  0  0  0  0
   17.6326   -6.6050  -20.6918 C   0  0  0  0  0  0  0  0  0  0  0  0
   17.5034   -5.4501  -21.1578 O   0  0  0  0  0  0  0  0  0  0  0  0
   18.8531   -6.9699  -19.9456 C   0  0  0  0  0  0  0  0  0  0  0  0
   18.7670   -8.4021  -19.5319 C   0  0  0  0  0  0  0  0  0  0  0  0
   20.0075   -8.8252  -18.7334 C   0  0  2  0  0  0  0  0  0  0  0  0
   19.8438  -10.2268  -18.3833 N   0  0  0  0  0  0  0  0  0  0  0  0
   20.0815   -8.0522  -17.4679 C   0  0  0  0  0  0  0  0  0  0  0  0
   19.5387   -8.4640  -16.3975 O   0  0  0  0  0  0  0  0  0  0  0  0
   21.0567   -4.3711  -14.0091 N   0  0  0  0  0  0  0  0  0  0  0  0
   22.2860   -4.8266  -14.5581 C   0  0  0  0  0  0  0  0  0  0  0  0
   23.3378   -4.4537  -14.0125 O   0  0  0  0  0  0  0  0  0  0  0  0
   22.2078   -5.7127  -15.7416 C   0  0  0  0  0  0  0  0  0  0  0  0
   20.7948   -6.0225  -16.1487 C   0  0  2  0  0  0  0  0  0  0  0  0
   20.7635   -6.8022  -17.3704 N   0  0  0  0  0  0  0  0  0  0  0  0
   19.9566   -4.8008  -16.2572 C   0  0  0  0  0  0  0  0  0  0  0  0
   19.3437   -4.2249  -15.1534 O   0  0  0  0  0  0  0  0  0  0  0  0
   19.7691   -4.2366  -17.3662 O   0  0  0  0  0  0  0  0  0  0  0  0
  2  1  1  6
  2  7  1  0
  3  2  1  0
  3  4  1  0
  4  5  1  0
  5  9  1  0
  6  5  2  0
  7  8  2  0
 11 10  1  0
 11 13  1  0
 12 11  2  0
 14 13  1  0
 15 14  1  6
 15 17  1  0
 16  7  1  0
 16 15  1  0
 17 18  2  0
 19 20  1  0
 20 21  2  0
 20 22  1  0
 23 22  1  6
 23 25  1  0
 24 17  1  0
 24 23  1  0
 25 27  2  0
 25 26  1  0
M  END
$$$$
