EQN.pdb
     RDKit          3D

 27 26  0  0  1  0  0  0  0  0999 V2000
   20.4713  -12.9568  -17.8932 N   0  0  0  0  0  0  0  0  0  0  0  0
   20.6638  -11.7087  -18.6651 C   0  0  1  0  0  0  0  0  0  0  0  0
   19.2929  -11.1491  -18.8390 C   0  0  0  0  0  0  0  0  0  0  0  0
   18.4009  -11.8625  -19.7887 C   0  0  0  0  0  0  0  0  0  0  0  0
   17.0874  -11.1229  -19.8198 C   0  0  0  0  0  0  0  0  0  0  0  0
   16.8889  -10.2112  -20.6591 O   0  0  0  0  0  0  0  0  0  0  0  0
   21.6100  -10.8773  -17.9279 C   0  0  0  0  0  0  0  0  0  0  0  0
   21.5304  -10.7990  -16.6552 O   0  0  0  0  0  0  0  0  0  0  0  0
   16.0693  -11.4252  -18.9303 O   0  0  0  0  0  0  0  0  0  0  0  0
   27.0265   -8.4440  -19.9972 N   0  0  0  0  0  0  0  0  0  0  0  0
   26.9139   -7.8573  -18.7097 C   0  0  0  0  0  0  0  0  0  0  0  0
   27.8342   -7.1091  -18.3086 O   0  0  0  0  0  0  0  0  0  0  0  0
   25.7416   -8.1150  -17.8502 C   0  0  0  0  0  0  0  0  0  0  0  0
   24.7917   -9.0141  -18.5702 C   0  0  0  0  0  0  0  0  0  0  0  0
   23.5062   -9.2278  -17.7597 C   0  0  2  0  0  0  0  0  0  0  0  0
   22.6513  -10.1210  -18.5247 N   0  0  0  0  0  0  0  0  0  0  0  0
   22.7855   -7.9388  -17.6063 C   0  0  0  0  0  0  0  0  0  0  0  0
   22.1979   -7.3786  -18.5814 O   0  0  0  0  0  0  0  0  0  0  0  0
   20.6671   -3.6691  -15.7538 N   0  0  0  0  0  0  0  0  0  0  0  0
   20.6845   -4.5726  -14.6568 C   0  0  0  0  0  0  0  0  0  0  0  0
   20.0758   -4.2434  -13.6252 O   0  0  0  0  0  0  0  0  0  0  0  0
   21.4318   -5.8378  -14.8381 C   0  0  0  0  0  0  0  0  0  0  0  0
   22.0203   -5.9783  -16.2137 C   0  0  2  0  0  0  0  0  0  0  0  0
   22.7054   -7.2473  -16.3603 N   0  0  0  0  0  0  0  0  0  0  0  0
   22.9003   -4.8362  -16.5719 C   0  0  0  0  0  0  0  0  0  0  0  0
   24.2398   -5.0076  -16.8916 O   0  0  0  0  0  0  0  0  0  0  0  0
   22.4590   -3.6582  -16.5990 O   0  0  0  0  0  0  0  0  0  0  0  0
  2  1  1  1
  2  7  1  0
  3  2  1  0
  3  4  1  0
  4  5  1  0
  5  9  1  0
  6  5  2  0
  7  8  2  0
 11 10  1  0
 11 13  1  0
 12 11  2  0
 14 13  1  0
 15 14  1  6
 15 17  1  0
 16  7  1  0
 16 15  1  0
 17 18  2  0
 19 20  1  0
 20 21  2  0
 20 22  1  0
 23 22  1  1
 23 25  1  0
 24 17  1  0
 24 23  1  0
 25 27  2  0
 25 26  1  0
M  END
$$$$
