EQN.pdb
     RDKit          3D

 27 26  0  0  1  0  0  0  0  0999 V2000
   24.5196  -17.6422  -15.6270 N   0  0  0  0  0  0  0  0  0  0  0  0
   24.0188  -18.6922  -16.5421 C   0  0  1  0  0  0  0  0  0  0  0  0
   25.2176  -19.1378  -17.3082 C   0  0  0  0  0  0  0  0  0  0  0  0
   26.1668  -18.0764  -17.7312 C   0  0  0  0  0  0  0  0  0  0  0  0
   27.2379  -18.7320  -18.5655 C   0  0  0  0  0  0  0  0  0  0  0  0
   28.2321  -18.0743  -18.9581 O   0  0  0  0  0  0  0  0  0  0  0  0
   23.3610  -19.7086  -15.7271 C   0  0  0  0  0  0  0  0  0  0  0  0
   22.8961  -20.7630  -16.2787 O   0  0  0  0  0  0  0  0  0  0  0  0
   27.1571  -20.0686  -18.9203 O   0  0  0  0  0  0  0  0  0  0  0  0
   24.5601  -21.0669   -9.8127 N   0  0  0  0  0  0  0  0  0  0  0  0
   25.3184  -21.2901  -10.9916 C   0  0  0  0  0  0  0  0  0  0  0  0
   26.5246  -21.6061  -10.8783 O   0  0  0  0  0  0  0  0  0  0  0  0
   24.7107  -21.1560  -12.3303 C   0  0  0  0  0  0  0  0  0  0  0  0
   23.2861  -20.7335  -12.1840 C   0  0  0  0  0  0  0  0  0  0  0  0
   22.5767  -20.6905  -13.5442 C   0  0  2  0  0  0  0  0  0  0  0  0
   23.1880  -19.6248  -14.3216 N   0  0  0  0  0  0  0  0  0  0  0  0
   21.1450  -20.3448  -13.3566 C   0  0  0  0  0  0  0  0  0  0  0  0
   20.7834  -19.2637  -12.7994 O   0  0  0  0  0  0  0  0  0  0  0  0
   15.9291  -19.7651  -15.5459 N   0  0  0  0  0  0  0  0  0  0  0  0
   16.8118  -19.4797  -14.4690 C   0  0  0  0  0  0  0  0  0  0  0  0
   16.3392  -18.9220  -13.4646 O   0  0  0  0  0  0  0  0  0  0  0  0
   18.2288  -19.8742  -14.6370 C   0  0  0  0  0  0  0  0  0  0  0  0
   18.6877  -20.8637  -13.6032 C   0  0  2  0  0  0  0  0  0  0  0  0
   20.0859  -21.1991  -13.7873 N   0  0  0  0  0  0  0  0  0  0  0  0
   17.8336  -22.0787  -13.5647 C   0  0  0  0  0  0  0  0  0  0  0  0
   18.1752  -23.2435  -14.2371 O   0  0  0  0  0  0  0  0  0  0  0  0
   16.7569  -22.0968  -12.9138 O   0  0  0  0  0  0  0  0  0  0  0  0
  2  1  1  1
  2  7  1  0
  3  2  1  0
  3  4  1  0
  4  5  1  0
  5  9  1  0
  6  5  2  0
  7  8  2  0
 11 10  1  0
 11 13  1  0
 12 11  2  0
 14 13  1  0
 15 14  1  1
 15 17  1  0
 16  7  1  0
 16 15  1  0
 17 18  2  0
 19 20  1  0
 20 21  2  0
 20 22  1  0
 23 22  1  6
 23 25  1  0
 24 17  1  0
 24 23  1  0
 25 27  2  0
 25 26  1  0
M  END
$$$$
