EQN.pdb
     RDKit          3D

 27 26  0  0  1  0  0  0  0  0999 V2000
   19.3942  -12.9243  -17.7319 N   0  0  0  0  0  0  0  0  0  0  0  0
   19.0381  -12.4731  -16.3680 C   0  0  1  0  0  0  0  0  0  0  0  0
   19.1346  -13.6962  -15.5211 C   0  0  0  0  0  0  0  0  0  0  0  0
   18.2508  -14.8312  -15.8919 C   0  0  0  0  0  0  0  0  0  0  0  0
   16.9069  -14.5866  -15.2537 C   0  0  0  0  0  0  0  0  0  0  0  0
   16.7172  -14.8582  -14.0432 O   0  0  0  0  0  0  0  0  0  0  0  0
   19.9354  -11.3761  -16.0194 C   0  0  0  0  0  0  0  0  0  0  0  0
   19.9171  -10.8905  -14.8379 O   0  0  0  0  0  0  0  0  0  0  0  0
   15.8507  -14.0593  -15.9785 O   0  0  0  0  0  0  0  0  0  0  0  0
   25.1918  -10.3218  -16.0419 N   0  0  0  0  0  0  0  0  0  0  0  0
   24.9988   -8.9488  -16.3456 C   0  0  0  0  0  0  0  0  0  0  0  0
   25.8523   -8.1215  -15.9523 O   0  0  0  0  0  0  0  0  0  0  0  0
   23.8207   -8.4911  -17.1085 C   0  0  0  0  0  0  0  0  0  0  0  0
   22.9400   -9.6605  -17.4021 C   0  0  0  0  0  0  0  0  0  0  0  0
   21.6636   -9.6224  -16.5507 C   0  0  2  0  0  0  0  0  0  0  0  0
   20.8630  -10.7807  -16.9126 N   0  0  0  0  0  0  0  0  0  0  0  0
   20.8728   -8.4096  -16.8799 C   0  0  0  0  0  0  0  0  0  0  0  0
   20.2606   -8.2873  -17.9846 O   0  0  0  0  0  0  0  0  0  0  0  0
   18.5889   -3.8643  -16.8812 N   0  0  0  0  0  0  0  0  0  0  0  0
   17.8960   -4.8618  -16.1430 C   0  0  0  0  0  0  0  0  0  0  0  0
   16.7215   -4.6275  -15.8131 O   0  0  0  0  0  0  0  0  0  0  0  0
   18.6380   -6.1037  -15.8280 C   0  0  0  0  0  0  0  0  0  0  0  0
   20.0520   -6.0859  -16.3365 C   0  0  2  0  0  0  0  0  0  0  0  0
   20.7485   -7.3069  -15.9823 N   0  0  0  0  0  0  0  0  0  0  0  0
   20.7982   -4.8809  -15.8914 C   0  0  0  0  0  0  0  0  0  0  0  0
   21.3175   -3.9598  -16.7900 O   0  0  0  0  0  0  0  0  0  0  0  0
   20.9891   -4.6482  -14.6697 O   0  0  0  0  0  0  0  0  0  0  0  0
  2  1  1  6
  2  7  1  0
  3  2  1  0
  3  4  1  0
  4  5  1  0
  5  9  1  0
  6  5  2  0
  7  8  2  0
 11 10  1  0
 11 13  1  0
 12 11  2  0
 14 13  1  0
 15 14  1  6
 15 17  1  0
 16  7  1  0
 16 15  1  0
 17 18  2  0
 19 20  1  0
 20 21  2  0
 20 22  1  0
 23 22  1  1
 23 25  1  0
 24 17  1  0
 24 23  1  0
 25 27  2  0
 25 26  1  0
M  END
$$$$
