EQN.pdb
     RDKit          3D

 27 26  0  0  1  0  0  0  0  0999 V2000
   26.6201  -18.7953  -16.4697 N   0  0  0  0  0  0  0  0  0  0  0  0
   26.0287  -20.0186  -17.0567 C   0  0  1  0  0  0  0  0  0  0  0  0
   27.1916  -20.8048  -17.5588 C   0  0  0  0  0  0  0  0  0  0  0  0
   28.4067  -20.8109  -16.7043 C   0  0  0  0  0  0  0  0  0  0  0  0
   29.4443  -21.6570  -17.3975 C   0  0  0  0  0  0  0  0  0  0  0  0
   29.6361  -22.8462  -17.0454 O   0  0  0  0  0  0  0  0  0  0  0  0
   25.2191  -20.6553  -16.0228 C   0  0  0  0  0  0  0  0  0  0  0  0
   24.3573  -21.5415  -16.3457 O   0  0  0  0  0  0  0  0  0  0  0  0
   30.2104  -21.1510  -18.4350 O   0  0  0  0  0  0  0  0  0  0  0  0
   26.1492  -20.4296   -9.7971 N   0  0  0  0  0  0  0  0  0  0  0  0
   24.8999  -21.0981   -9.8807 C   0  0  0  0  0  0  0  0  0  0  0  0
   24.3449  -21.4675   -8.8209 O   0  0  0  0  0  0  0  0  0  0  0  0
   24.2563  -21.3593  -11.1834 C   0  0  0  0  0  0  0  0  0  0  0  0
   25.1002  -20.7849  -12.2731 C   0  0  0  0  0  0  0  0  0  0  0  0
   24.4521  -20.9967  -13.6480 C   0  0  2  0  0  0  0  0  0  0  0  0
   25.3109  -20.3658  -14.6370 N   0  0  0  0  0  0  0  0  0  0  0  0
   23.1348  -20.3135  -13.6962 C   0  0  0  0  0  0  0  0  0  0  0  0
   23.0304  -19.0747  -13.9502 O   0  0  0  0  0  0  0  0  0  0  0  0
   19.0060  -17.9839  -15.7077 N   0  0  0  0  0  0  0  0  0  0  0  0
   19.0513  -19.3293  -15.2517 C   0  0  0  0  0  0  0  0  0  0  0  0
   17.9716  -19.9153  -15.0672 O   0  0  0  0  0  0  0  0  0  0  0  0
   20.3904  -19.9218  -15.0338 C   0  0  0  0  0  0  0  0  0  0  0  0
   20.6129  -20.3599  -13.6136 C   0  0  2  0  0  0  0  0  0  0  0  0
   21.9051  -20.9992  -13.4618 N   0  0  0  0  0  0  0  0  0  0  0  0
   19.5130  -21.2213  -13.1084 C   0  0  0  0  0  0  0  0  0  0  0  0
   18.4153  -20.7006  -12.4379 O   0  0  0  0  0  0  0  0  0  0  0  0
   19.5362  -22.4687  -13.2715 O   0  0  0  0  0  0  0  0  0  0  0  0
  2  1  1  1
  2  7  1  0
  3  2  1  0
  3  4  1  0
  4  5  1  0
  5  9  1  0
  6  5  2  0
  7  8  2  0
 11 10  1  0
 11 13  1  0
 12 11  2  0
 14 13  1  0
 15 14  1  1
 15 17  1  0
 16  7  1  0
 16 15  1  0
 17 18  2  0
 19 20  1  0
 20 21  2  0
 20 22  1  0
 23 22  1  6
 23 25  1  0
 24 17  1  0
 24 23  1  0
 25 27  2  0
 25 26  1  0
M  END
$$$$
