EQN.pdb
     RDKit          3D

 27 26  0  0  1  0  0  0  0  0999 V2000
   27.4231  -22.6030  -16.8609 N   0  0  0  0  0  0  0  0  0  0  0  0
   26.9993  -21.3299  -16.2363 C   0  0  1  0  0  0  0  0  0  0  0  0
   26.4834  -20.5019  -17.3636 C   0  0  0  0  0  0  0  0  0  0  0  0
   27.5003  -19.8934  -18.2593 C   0  0  0  0  0  0  0  0  0  0  0  0
   28.1114  -18.7269  -17.5252 C   0  0  0  0  0  0  0  0  0  0  0  0
   27.4047  -17.9955  -16.7899 O   0  0  0  0  0  0  0  0  0  0  0  0
   26.0412  -21.6538  -15.1841 C   0  0  0  0  0  0  0  0  0  0  0  0
   25.2346  -22.6325  -15.3380 O   0  0  0  0  0  0  0  0  0  0  0  0
   29.4597  -18.4304  -17.6395 O   0  0  0  0  0  0  0  0  0  0  0  0
   26.4380  -20.0838   -9.1511 N   0  0  0  0  0  0  0  0  0  0  0  0
   25.1448  -20.6668   -9.2006 C   0  0  0  0  0  0  0  0  0  0  0  0
   24.4944  -20.7754   -8.1363 O   0  0  0  0  0  0  0  0  0  0  0  0
   24.5659  -21.1399  -10.4736 C   0  0  0  0  0  0  0  0  0  0  0  0
   25.5344  -20.8824  -11.5804 C   0  0  0  0  0  0  0  0  0  0  0  0
   24.9585  -21.3167  -12.9350 C   0  0  2  0  0  0  0  0  0  0  0  0
   25.9248  -20.9504  -13.9577 N   0  0  0  0  0  0  0  0  0  0  0  0
   23.7055  -20.5706  -13.2138 C   0  0  0  0  0  0  0  0  0  0  0  0
   23.6654  -19.3024  -13.2128 O   0  0  0  0  0  0  0  0  0  0  0  0
   22.3905  -19.1267  -15.7776 N   0  0  0  0  0  0  0  0  0  0  0  0
   21.3664  -20.0283  -16.1760 C   0  0  0  0  0  0  0  0  0  0  0  0
   21.1077  -20.1123  -17.3880 O   0  0  0  0  0  0  0  0  0  0  0  0
   20.6907  -20.7956  -15.1053 C   0  0  0  0  0  0  0  0  0  0  0  0
   21.2378  -20.4986  -13.7375 C   0  0  2  0  0  0  0  0  0  0  0  0
   22.4697  -21.2249  -13.4999 N   0  0  0  0  0  0  0  0  0  0  0  0
   20.2410  -20.7449  -12.6638 C   0  0  0  0  0  0  0  0  0  0  0  0
   19.5066  -19.7180  -12.0878 O   0  0  0  0  0  0  0  0  0  0  0  0
   20.0234  -21.9066  -12.2320 O   0  0  0  0  0  0  0  0  0  0  0  0
  2  1  1  6
  2  7  1  0
  3  2  1  0
  3  4  1  0
  4  5  1  0
  5  9  1  0
  6  5  2  0
  7  8  2  0
 11 10  1  0
 11 13  1  0
 12 11  2  0
 14 13  1  0
 15 14  1  1
 15 17  1  0
 16  7  1  0
 16 15  1  0
 17 18  2  0
 19 20  1  0
 20 21  2  0
 20 22  1  0
 23 22  1  6
 23 25  1  0
 24 17  1  0
 24 23  1  0
 25 27  2  0
 25 26  1  0
M  END
$$$$
