EQN.pdb
     RDKit          3D

 27 26  0  0  1  0  0  0  0  0999 V2000
   15.4925  -10.0172   -9.8329 N   0  0  0  0  0  0  0  0  0  0  0  0
   16.7244   -9.9463  -10.6503 C   0  0  1  0  0  0  0  0  0  0  0  0
   16.4746  -10.8598  -11.8017 C   0  0  0  0  0  0  0  0  0  0  0  0
   16.2014  -12.2824  -11.4727 C   0  0  0  0  0  0  0  0  0  0  0  0
   15.9401  -13.0056  -12.7696 C   0  0  0  0  0  0  0  0  0  0  0  0
   14.7870  -13.4133  -13.0510 O   0  0  0  0  0  0  0  0  0  0  0  0
   16.9536   -8.5431  -10.9795 C   0  0  0  0  0  0  0  0  0  0  0  0
   17.8937   -8.2239  -11.7836 O   0  0  0  0  0  0  0  0  0  0  0  0
   16.9565  -13.2396  -13.6813 O   0  0  0  0  0  0  0  0  0  0  0  0
   12.7034   -7.4068  -12.0290 N   0  0  0  0  0  0  0  0  0  0  0  0
   13.5871   -7.2955  -13.1340 C   0  0  0  0  0  0  0  0  0  0  0  0
   13.3007   -7.8968  -14.1943 O   0  0  0  0  0  0  0  0  0  0  0  0
   14.8220   -6.4909  -13.0496 C   0  0  0  0  0  0  0  0  0  0  0  0
   14.8995   -5.8484  -11.7041 C   0  0  0  0  0  0  0  0  0  0  0  0
   16.2521   -6.1245  -11.0336 C   0  0  2  0  0  0  0  0  0  0  0  0
   16.1928   -7.4616  -10.4657 N   0  0  0  0  0  0  0  0  0  0  0  0
   16.4658   -5.1712   -9.9156 C   0  0  0  0  0  0  0  0  0  0  0  0
   16.3202   -5.5156   -8.7031 O   0  0  0  0  0  0  0  0  0  0  0  0
   16.9256   -0.6758   -7.4069 N   0  0  0  0  0  0  0  0  0  0  0  0
   18.1880   -1.2308   -7.7512 C   0  0  0  0  0  0  0  0  0  0  0  0
   19.2019   -0.7238   -7.2430 O   0  0  0  0  0  0  0  0  0  0  0  0
   18.1872   -2.3736   -8.6924 C   0  0  0  0  0  0  0  0  0  0  0  0
   16.8030   -2.8153   -9.0758 C   0  0  2  0  0  0  0  0  0  0  0  0
   16.8467   -3.8121  -10.1276 N   0  0  0  0  0  0  0  0  0  0  0  0
   15.9252   -1.6734   -9.4397 C   0  0  0  0  0  0  0  0  0  0  0  0
   15.2852   -0.8991   -8.4823 O   0  0  0  0  0  0  0  0  0  0  0  0
   15.7272   -1.3624  -10.6428 O   0  0  0  0  0  0  0  0  0  0  0  0
  2  1  1  1
  2  7  1  0
  3  2  1  0
  3  4  1  0
  4  5  1  0
  5  9  1  0
  6  5  2  0
  7  8  2  0
 11 10  1  0
 11 13  1  0
 12 11  2  0
 14 13  1  0
 15 14  1  1
 15 17  1  0
 16  7  1  0
 16 15  1  0
 17 18  2  0
 19 20  1  0
 20 21  2  0
 20 22  1  0
 23 22  1  6
 23 25  1  0
 24 17  1  0
 24 23  1  0
 25 27  2  0
 25 26  1  0
M  END
$$$$
