EQN.pdb
     RDKit          3D

 27 26  0  0  1  0  0  0  0  0999 V2000
   21.4937  -20.4550  -13.8789 N   0  0  0  0  0  0  0  0  0  0  0  0
   20.6136  -19.6801  -14.7820 C   0  0  1  0  0  0  0  0  0  0  0  0
   19.2768  -19.6957  -14.1222 C   0  0  0  0  0  0  0  0  0  0  0  0
   18.2077  -20.4664  -14.8075 C   0  0  0  0  0  0  0  0  0  0  0  0
   17.7755  -21.5697  -13.8754 C   0  0  0  0  0  0  0  0  0  0  0  0
   16.9296  -21.3487  -12.9749 O   0  0  0  0  0  0  0  0  0  0  0  0
   21.2234  -18.3677  -14.9707 C   0  0  0  0  0  0  0  0  0  0  0  0
   21.6877  -17.7317  -13.9647 O   0  0  0  0  0  0  0  0  0  0  0  0
   18.2948  -22.8493  -13.9842 O   0  0  0  0  0  0  0  0  0  0  0  0
   25.0408  -16.8227  -19.3395 N   0  0  0  0  0  0  0  0  0  0  0  0
   24.8457  -15.5450  -18.7530 C   0  0  0  0  0  0  0  0  0  0  0  0
   25.5301  -14.5827  -19.1694 O   0  0  0  0  0  0  0  0  0  0  0  0
   23.8599  -15.3399  -17.6734 C   0  0  0  0  0  0  0  0  0  0  0  0
   23.1410  -16.6225  -17.4134 C   0  0  0  0  0  0  0  0  0  0  0  0
   22.0305  -16.4356  -16.3707 C   0  0  2  0  0  0  0  0  0  0  0  0
   21.3517  -17.7127  -16.2225 N   0  0  0  0  0  0  0  0  0  0  0  0
   21.0339  -15.4522  -16.8649 C   0  0  0  0  0  0  0  0  0  0  0  0
   20.3225  -15.6762  -17.8915 O   0  0  0  0  0  0  0  0  0  0  0  0
   17.1820  -12.8217  -16.9034 N   0  0  0  0  0  0  0  0  0  0  0  0
   17.7945  -12.2245  -15.7683 C   0  0  0  0  0  0  0  0  0  0  0  0
   17.0729  -11.5692  -14.9981 O   0  0  0  0  0  0  0  0  0  0  0  0
   19.2500  -12.4356  -15.5993 C   0  0  0  0  0  0  0  0  0  0  0  0
   19.8622  -13.2215  -16.7244 C   0  0  2  0  0  0  0  0  0  0  0  0
   20.8101  -14.1972  -16.2232 N   0  0  0  0  0  0  0  0  0  0  0  0
   20.4719  -12.3470  -17.7591 C   0  0  0  0  0  0  0  0  0  0  0  0
   19.7313  -11.8106  -18.8029 O   0  0  0  0  0  0  0  0  0  0  0  0
   21.6959  -12.0570  -17.7271 O   0  0  0  0  0  0  0  0  0  0  0  0
  2  1  1  1
  2  7  1  0
  3  2  1  0
  3  4  1  0
  4  5  1  0
  5  9  1  0
  6  5  2  0
  7  8  2  0
 11 10  1  0
 11 13  1  0
 12 11  2  0
 14 13  1  0
 15 14  1  6
 15 17  1  0
 16  7  1  0
 16 15  1  0
 17 18  2  0
 19 20  1  0
 20 21  2  0
 20 22  1  0
 23 22  1  1
 23 25  1  0
 24 17  1  0
 24 23  1  0
 25 27  2  0
 25 26  1  0
M  END
$$$$
