EQN.pdb
     RDKit          3D

 27 26  0  0  1  0  0  0  0  0999 V2000
   18.9116  -13.1319  -18.4181 N   0  0  0  0  0  0  0  0  0  0  0  0
   18.5005  -12.5240  -17.1327 C   0  0  1  0  0  0  0  0  0  0  0  0
   19.4069  -13.1280  -16.1147 C   0  0  0  0  0  0  0  0  0  0  0  0
   19.2625  -14.5878  -15.8810 C   0  0  0  0  0  0  0  0  0  0  0  0
   18.2235  -14.7741  -14.8045 C   0  0  0  0  0  0  0  0  0  0  0  0
   17.7189  -13.7807  -14.2268 O   0  0  0  0  0  0  0  0  0  0  0  0
   18.5797  -11.0748  -17.2865 C   0  0  0  0  0  0  0  0  0  0  0  0
   19.2682  -10.5731  -18.2386 O   0  0  0  0  0  0  0  0  0  0  0  0
   17.7986  -16.0366  -14.4243 O   0  0  0  0  0  0  0  0  0  0  0  0
   14.2138   -9.7871  -16.0598 N   0  0  0  0  0  0  0  0  0  0  0  0
   14.4604   -9.5423  -17.4359 C   0  0  0  0  0  0  0  0  0  0  0  0
   13.6503   -9.9893  -18.2795 O   0  0  0  0  0  0  0  0  0  0  0  0
   15.6434   -8.7779  -17.8783 C   0  0  0  0  0  0  0  0  0  0  0  0
   16.3954   -8.2986  -16.6807 C   0  0  0  0  0  0  0  0  0  0  0  0
   17.8699   -8.7195  -16.7455 C   0  0  2  0  0  0  0  0  0  0  0  0
   17.9323  -10.1393  -16.4391 N   0  0  0  0  0  0  0  0  0  0  0  0
   18.6465   -8.0010  -15.7038 C   0  0  0  0  0  0  0  0  0  0  0  0
   18.4836   -8.2319  -14.4668 O   0  0  0  0  0  0  0  0  0  0  0  0
   21.9132   -4.9120  -13.2503 N   0  0  0  0  0  0  0  0  0  0  0  0
   22.5309   -5.1706  -14.5040 C   0  0  0  0  0  0  0  0  0  0  0  0
   23.6871   -4.7509  -14.6778 O   0  0  0  0  0  0  0  0  0  0  0  0
   21.7385   -5.9231  -15.5028 C   0  0  0  0  0  0  0  0  0  0  0  0
   20.3706   -6.2958  -15.0046 C   0  0  2  0  0  0  0  0  0  0  0  0
   19.6221   -7.0087  -16.0211 N   0  0  0  0  0  0  0  0  0  0  0  0
   19.6167   -5.1233  -14.4908 C   0  0  0  0  0  0  0  0  0  0  0  0
   18.7522   -4.3918  -15.2927 O   0  0  0  0  0  0  0  0  0  0  0  0
   19.7355   -4.7459  -13.2964 O   0  0  0  0  0  0  0  0  0  0  0  0
  2  1  1  6
  2  7  1  0
  3  2  1  0
  3  4  1  0
  4  5  1  0
  5  9  1  0
  6  5  2  0
  7  8  2  0
 11 10  1  0
 11 13  1  0
 12 11  2  0
 14 13  1  0
 15 14  1  1
 15 17  1  0
 16  7  1  0
 16 15  1  0
 17 18  2  0
 19 20  1  0
 20 21  2  0
 20 22  1  0
 23 22  1  6
 23 25  1  0
 24 17  1  0
 24 23  1  0
 25 27  2  0
 25 26  1  0
M  END
$$$$
