EQN.pdb
     RDKit          3D

 27 26  0  0  1  0  0  0  0  0999 V2000
   21.5190  -15.9041  -18.0792 N   0  0  0  0  0  0  0  0  0  0  0  0
   21.7266  -14.5276  -18.5818 C   0  0  1  0  0  0  0  0  0  0  0  0
   20.4684  -14.1893  -19.3066 C   0  0  0  0  0  0  0  0  0  0  0  0
   19.2107  -14.2567  -18.5191 C   0  0  0  0  0  0  0  0  0  0  0  0
   18.0801  -13.8638  -19.4359 C   0  0  0  0  0  0  0  0  0  0  0  0
   17.4914  -14.7287  -20.1290 O   0  0  0  0  0  0  0  0  0  0  0  0
   22.0556  -13.6860  -17.4358 C   0  0  0  0  0  0  0  0  0  0  0  0
   21.5721  -13.9606  -16.2855 O   0  0  0  0  0  0  0  0  0  0  0  0
   17.6611  -12.5474  -19.5396 O   0  0  0  0  0  0  0  0  0  0  0  0
   27.4325  -11.2704  -16.0823 N   0  0  0  0  0  0  0  0  0  0  0  0
   26.8904  -12.5361  -15.7377 C   0  0  0  0  0  0  0  0  0  0  0  0
   27.6693  -13.4381  -15.3538 O   0  0  0  0  0  0  0  0  0  0  0  0
   25.4402  -12.7980  -15.8251 C   0  0  0  0  0  0  0  0  0  0  0  0
   24.7443  -11.5622  -16.2919 C   0  0  0  0  0  0  0  0  0  0  0  0
   23.2220  -11.7562  -16.3134 C   0  0  2  0  0  0  0  0  0  0  0  0
   22.8995  -12.5469  -17.4900 N   0  0  0  0  0  0  0  0  0  0  0  0
   22.5472  -10.4415  -16.4574 C   0  0  0  0  0  0  0  0  0  0  0  0
   22.6323   -9.7568  -17.5223 O   0  0  0  0  0  0  0  0  0  0  0  0
   19.6204   -6.3154  -15.8014 N   0  0  0  0  0  0  0  0  0  0  0  0
   18.8475   -7.5005  -15.6661 C   0  0  0  0  0  0  0  0  0  0  0  0
   17.6104   -7.3883  -15.6628 O   0  0  0  0  0  0  0  0  0  0  0  0
   19.5877   -8.7765  -15.5398 C   0  0  0  0  0  0  0  0  0  0  0  0
   21.0790   -8.5932  -15.5646 C   0  0  2  0  0  0  0  0  0  0  0  0
   21.7626   -9.8628  -15.4150 N   0  0  0  0  0  0  0  0  0  0  0  0
   21.5437   -7.5997  -14.5627 C   0  0  0  0  0  0  0  0  0  0  0  0
   21.5139   -6.2341  -14.8076 O   0  0  0  0  0  0  0  0  0  0  0  0
   21.9864   -7.9634  -13.4425 O   0  0  0  0  0  0  0  0  0  0  0  0
  2  1  1  1
  2  7  1  0
  3  2  1  0
  3  4  1  0
  4  5  1  0
  5  9  1  0
  6  5  2  0
  7  8  2  0
 11 10  1  0
 11 13  1  0
 12 11  2  0
 14 13  1  0
 15 14  1  6
 15 17  1  0
 16  7  1  0
 16 15  1  0
 17 18  2  0
 19 20  1  0
 20 21  2  0
 20 22  1  0
 23 22  1  1
 23 25  1  0
 24 17  1  0
 24 23  1  0
 25 27  2  0
 25 26  1  0
M  END
$$$$
