PTY.pdb
     RDKit          3D

 27 28  0  0  1  0  0  0  0  0999 V2000
    8.9485  -14.3472   18.9625 N   0  0  0  0  0  0  0  0  0  0  0  0
    8.8252  -13.3646   17.9080 C   0  0  0  0  0  0  0  0  0  0  0  0
    7.7171  -12.4374   18.2900 C   0  0  0  0  0  0  0  0  0  0  0  0
    7.3657  -12.8047   19.7163 C   0  0  0  0  0  0  0  0  0  0  0  0
    8.5588  -13.6212   20.1325 C   0  0  1  0  0  0  0  0  0  0  0  0
    8.2836  -14.4781   21.2979 C   0  0  0  0  0  0  0  0  0  0  0  0
    7.8920  -13.9285   22.3534 O   0  0  0  0  0  0  0  0  0  0  0  0
    7.1740  -18.6437   20.9491 C   0  0  0  0  0  0  0  0  0  0  0  0
    8.0607  -18.2052   22.0662 C   0  0  1  0  0  0  0  0  0  0  0  0
    9.3896  -18.4972   21.6706 O   0  0  0  0  0  0  0  0  0  0  0  0
    8.0223  -16.7505   22.3755 C   0  0  2  0  0  0  0  0  0  0  0  0
    8.4305  -15.8844   21.3109 N   0  0  0  0  0  0  0  0  0  0  0  0
    8.8737  -16.4910   23.5650 C   0  0  0  0  0  0  0  0  0  0  0  0
   10.0731  -16.0923   23.4578 O   0  0  0  0  0  0  0  0  0  0  0  0
    6.0211  -10.9397   25.7557 O   0  0  0  0  0  0  0  0  0  0  0  0
    6.6459  -12.1366   26.1028 C   0  0  0  0  0  0  0  0  0  0  0  0
    7.9914  -12.2220   26.3854 C   0  0  0  0  0  0  0  0  0  0  0  0
    8.5541  -13.4320   26.7226 C   0  0  0  0  0  0  0  0  0  0  0  0
    7.8109  -14.5856   26.7905 C   0  0  0  0  0  0  0  0  0  0  0  0
    8.4674  -15.8747   27.1578 C   0  0  0  0  0  0  0  0  0  0  0  0
    9.2429  -16.4651   26.0304 C   0  0  2  0  0  0  0  0  0  0  0  0
    8.3710  -16.6832   24.9034 N   0  0  0  0  0  0  0  0  0  0  0  0
    9.8776  -17.7417   26.4816 C   0  0  0  0  0  0  0  0  0  0  0  0
   10.8739  -17.6601   27.4219 O   0  0  0  0  0  0  0  0  0  0  0  0
    6.4661  -14.5149   26.5108 C   0  0  0  0  0  0  0  0  0  0  0  0
    5.9200  -13.3058   26.1771 C   0  0  0  0  0  0  0  0  0  0  0  0
    9.5408  -18.8573   26.0427 O   0  0  0  0  0  0  0  0  0  0  0  0
  1  5  1  0
  1  2  1  0
  2  3  1  0
  4  3  1  0
  5  4  1  0
  6  7  2  0
  5  6  1  1
  9  8  1  6
 10  9  1  0
 11  9  1  0
 11 12  1  6
 12  6  1  0
 13 11  1  0
 14 13  2  0
 16 17  2  0
 16 15  1  0
 18 17  1  0
 19 18  2  0
 21 20  1  1
 20 19  1  0
 21 22  1  0
 22 13  1  0
 23 24  1  0
 23 21  1  0
 25 19  1  0
 25 26  2  0
 26 16  1  0
 27 23  2  0
M  END
$$$$
