PTY.pdb
     RDKit          3D

 27 28  0  0  1  0  0  0  0  0999 V2000
    6.4221  -18.4873   18.6097 N   0  0  0  0  0  0  0  0  0  0  0  0
    5.4385  -19.1252   17.7623 C   0  0  0  0  0  0  0  0  0  0  0  0
    5.2084  -18.2257   16.5911 C   0  0  0  0  0  0  0  0  0  0  0  0
    6.2719  -17.1533   16.6990 C   0  0  0  0  0  0  0  0  0  0  0  0
    7.2351  -17.7649   17.6796 C   0  0  1  0  0  0  0  0  0  0  0  0
    8.1148  -16.7670   18.3111 C   0  0  0  0  0  0  0  0  0  0  0  0
    9.0557  -16.2970   17.6305 O   0  0  0  0  0  0  0  0  0  0  0  0
    7.6865  -13.3309   19.0448 C   0  0  0  0  0  0  0  0  0  0  0  0
    8.1036  -13.9369   20.3429 C   0  0  1  0  0  0  0  0  0  0  0  0
    6.9222  -14.1288   21.1015 O   0  0  0  0  0  0  0  0  0  0  0  0
    8.7611  -15.2675   20.2417 C   0  0  2  0  0  0  0  0  0  0  0  0
    7.9726  -16.2989   19.6378 N   0  0  0  0  0  0  0  0  0  0  0  0
    9.1709  -15.7041   21.6013 C   0  0  0  0  0  0  0  0  0  0  0  0
    8.3538  -16.2433   22.4078 O   0  0  0  0  0  0  0  0  0  0  0  0
   12.1256  -20.3218   28.0231 O   0  0  0  0  0  0  0  0  0  0  0  0
   11.7870  -19.6725   26.8369 C   0  0  0  0  0  0  0  0  0  0  0  0
   12.4550  -19.8865   25.6514 C   0  0  0  0  0  0  0  0  0  0  0  0
   12.0760  -19.2162   24.5106 C   0  0  0  0  0  0  0  0  0  0  0  0
   11.0338  -18.3209   24.5059 C   0  0  0  0  0  0  0  0  0  0  0  0
   10.6624  -17.6161   23.2438 C   0  0  0  0  0  0  0  0  0  0  0  0
   10.9383  -16.1527   23.3015 C   0  0  2  0  0  0  0  0  0  0  0  0
   10.5251  -15.5319   22.0679 N   0  0  0  0  0  0  0  0  0  0  0  0
   12.3951  -15.9337   23.5588 C   0  0  0  0  0  0  0  0  0  0  0  0
   13.2292  -15.8566   22.4717 O   0  0  0  0  0  0  0  0  0  0  0  0
   10.3578  -18.0975   25.6827 C   0  0  0  0  0  0  0  0  0  0  0  0
   10.7452  -18.7706   26.8089 C   0  0  0  0  0  0  0  0  0  0  0  0
   12.8707  -15.8207   24.7040 O   0  0  0  0  0  0  0  0  0  0  0  0
  1  5  1  0
  1  2  1  0
  2  3  1  0
  4  3  1  0
  5  4  1  0
  6  7  2  0
  5  6  1  1
  9  8  1  6
 10  9  1  0
 11  9  1  0
 11 12  1  1
 12  6  1  0
 13 11  1  0
 14 13  2  0
 16 17  2  0
 16 15  1  0
 18 17  1  0
 19 18  2  0
 21 20  1  6
 20 19  1  0
 21 22  1  0
 22 13  1  0
 23 24  1  0
 23 21  1  0
 25 19  1  0
 25 26  2  0
 26 16  1  0
 27 23  2  0
M  END
$$$$
