PTY.pdb
     RDKit          3D

 27 28  0  0  1  0  0  0  0  0999 V2000
    8.4771  -14.8093   18.3288 N   0  0  0  0  0  0  0  0  0  0  0  0
    8.4692  -13.9359   17.1757 C   0  0  0  0  0  0  0  0  0  0  0  0
    7.8194  -12.6556   17.5905 C   0  0  0  0  0  0  0  0  0  0  0  0
    7.6608  -12.7592   19.0927 C   0  0  0  0  0  0  0  0  0  0  0  0
    8.5845  -13.8986   19.4274 C   0  0  1  0  0  0  0  0  0  0  0  0
    8.2863  -14.5080   20.7343 C   0  0  0  0  0  0  0  0  0  0  0  0
    8.4216  -13.7998   21.7588 O   0  0  0  0  0  0  0  0  0  0  0  0
    5.8173  -18.0166   21.0110 C   0  0  0  0  0  0  0  0  0  0  0  0
    6.8552  -17.7889   22.0584 C   0  0  1  0  0  0  0  0  0  0  0  0
    7.9593  -18.6116   21.7239 O   0  0  0  0  0  0  0  0  0  0  0  0
    7.3762  -16.3981   22.1459 C   0  0  2  0  0  0  0  0  0  0  0  0
    7.8559  -15.8426   20.9165 N   0  0  0  0  0  0  0  0  0  0  0  0
    8.4667  -16.3577   23.1541 C   0  0  0  0  0  0  0  0  0  0  0  0
    9.6727  -16.1357   22.8298 O   0  0  0  0  0  0  0  0  0  0  0  0
    5.6975  -11.1932   26.7141 O   0  0  0  0  0  0  0  0  0  0  0  0
    6.7004  -12.1203   26.4345 C   0  0  0  0  0  0  0  0  0  0  0  0
    7.6465  -12.4993   27.3612 C   0  0  0  0  0  0  0  0  0  0  0  0
    8.6139  -13.4199   27.0285 C   0  0  0  0  0  0  0  0  0  0  0  0
    8.6761  -13.9900   25.7798 C   0  0  0  0  0  0  0  0  0  0  0  0
    9.7463  -14.9817   25.4657 C   0  0  0  0  0  0  0  0  0  0  0  0
    9.2579  -16.3886   25.5181 C   0  0  2  0  0  0  0  0  0  0  0  0
    8.2004  -16.5714   24.5557 N   0  0  0  0  0  0  0  0  0  0  0  0
    8.7907  -16.6989   26.9044 C   0  0  0  0  0  0  0  0  0  0  0  0
    9.7182  -16.6504   27.9148 O   0  0  0  0  0  0  0  0  0  0  0  0
    7.7376  -13.6208   24.8446 C   0  0  0  0  0  0  0  0  0  0  0  0
    6.7817  -12.7048   25.1890 C   0  0  0  0  0  0  0  0  0  0  0  0
    7.6109  -16.9945   27.1709 O   0  0  0  0  0  0  0  0  0  0  0  0
  1  5  1  0
  1  2  1  0
  2  3  1  0
  4  3  1  0
  5  4  1  0
  6  7  2  0
  5  6  1  1
  9  8  1  6
 10  9  1  0
 11  9  1  0
 11 12  1  6
 12  6  1  0
 13 11  1  0
 14 13  2  0
 16 17  2  0
 16 15  1  0
 18 17  1  0
 19 18  2  0
 21 20  1  1
 20 19  1  0
 21 22  1  0
 22 13  1  0
 23 24  1  0
 23 21  1  0
 25 19  1  0
 25 26  2  0
 26 16  1  0
 27 23  2  0
M  END
$$$$
