PTY.pdb
     RDKit          3D

 27 28  0  0  1  0  0  0  0  0999 V2000
    8.7826  -15.1068   18.4291 N   0  0  0  0  0  0  0  0  0  0  0  0
    9.0627  -14.3585   17.2232 C   0  0  0  0  0  0  0  0  0  0  0  0
    8.2821  -13.0862   17.2965 C   0  0  0  0  0  0  0  0  0  0  0  0
    7.7207  -13.0450   18.7021 C   0  0  0  0  0  0  0  0  0  0  0  0
    8.5541  -14.0832   19.4028 C   0  0  1  0  0  0  0  0  0  0  0  0
    7.9288  -14.5731   20.6427 C   0  0  0  0  0  0  0  0  0  0  0  0
    7.8476  -13.7843   21.6125 O   0  0  0  0  0  0  0  0  0  0  0  0
    4.6784  -17.0119   20.8752 C   0  0  0  0  0  0  0  0  0  0  0  0
    5.7514  -17.3923   21.8396 C   0  0  1  0  0  0  0  0  0  0  0  0
    6.3744  -18.5537   21.3192 O   0  0  0  0  0  0  0  0  0  0  0  0
    6.8282  -16.3824   22.0242 C   0  0  2  0  0  0  0  0  0  0  0  0
    7.4108  -15.8772   20.8178 N   0  0  0  0  0  0  0  0  0  0  0  0
    7.8983  -16.9721   22.8694 C   0  0  0  0  0  0  0  0  0  0  0  0
    9.1131  -16.9810   22.5048 O   0  0  0  0  0  0  0  0  0  0  0  0
   10.7381  -13.8059   30.2354 O   0  0  0  0  0  0  0  0  0  0  0  0
   10.0957  -14.2477   29.0798 C   0  0  0  0  0  0  0  0  0  0  0  0
    8.8872  -13.7398   28.6566 C   0  0  0  0  0  0  0  0  0  0  0  0
    8.2994  -14.2151   27.5064 C   0  0  0  0  0  0  0  0  0  0  0  0
    8.8826  -15.1990   26.7450 C   0  0  0  0  0  0  0  0  0  0  0  0
    8.2045  -15.6839   25.5070 C   0  0  0  0  0  0  0  0  0  0  0  0
    8.3437  -17.1551   25.3155 C   0  0  2  0  0  0  0  0  0  0  0  0
    7.6008  -17.5653   24.1503 N   0  0  0  0  0  0  0  0  0  0  0  0
    7.8630  -17.8615   26.5429 C   0  0  0  0  0  0  0  0  0  0  0  0
    8.8094  -18.3759   27.3933 O   0  0  0  0  0  0  0  0  0  0  0  0
   10.0895  -15.7152   27.1559 C   0  0  0  0  0  0  0  0  0  0  0  0
   10.6623  -15.2335   28.3010 C   0  0  0  0  0  0  0  0  0  0  0  0
    6.6560  -17.9976   26.8167 O   0  0  0  0  0  0  0  0  0  0  0  0
  1  5  1  0
  1  2  1  0
  2  3  1  0
  4  3  1  0
  5  4  1  0
  6  7  2  0
  5  6  1  1
  9  8  1  6
 10  9  1  0
 11  9  1  0
 11 12  1  6
 12  6  1  0
 13 11  1  0
 14 13  2  0
 16 17  2  0
 16 15  1  0
 18 17  1  0
 19 18  2  0
 21 20  1  1
 20 19  1  0
 21 22  1  0
 22 13  1  0
 23 24  1  0
 23 21  1  0
 25 19  1  0
 25 26  2  0
 26 16  1  0
 27 23  2  0
M  END
$$$$
