PTY.pdb
     RDKit          3D

 27 28  0  0  1  0  0  0  0  0999 V2000
    8.7571  -14.7576   18.6232 N   0  0  0  0  0  0  0  0  0  0  0  0
    8.8710  -13.9265   17.4448 C   0  0  0  0  0  0  0  0  0  0  0  0
    8.1189  -12.6637   17.7154 C   0  0  0  0  0  0  0  0  0  0  0  0
    7.7610  -12.7218   19.1855 C   0  0  0  0  0  0  0  0  0  0  0  0
    8.6762  -13.8050   19.6880 C   0  0  1  0  0  0  0  0  0  0  0  0
    8.2274  -14.3814   20.9667 C   0  0  0  0  0  0  0  0  0  0  0  0
    8.1050  -13.6126   21.9482 O   0  0  0  0  0  0  0  0  0  0  0  0
    5.8019  -17.8345   21.1686 C   0  0  0  0  0  0  0  0  0  0  0  0
    6.8226  -17.6761   22.2453 C   0  0  1  0  0  0  0  0  0  0  0  0
    7.8963  -18.5415   21.9197 O   0  0  0  0  0  0  0  0  0  0  0  0
    7.4037  -16.3127   22.3754 C   0  0  2  0  0  0  0  0  0  0  0  0
    7.9233  -15.7477   21.1667 N   0  0  0  0  0  0  0  0  0  0  0  0
    8.4819  -16.3470   23.3970 C   0  0  0  0  0  0  0  0  0  0  0  0
    9.6834  -16.0545   23.1148 O   0  0  0  0  0  0  0  0  0  0  0  0
    5.3727  -11.7813   27.1099 O   0  0  0  0  0  0  0  0  0  0  0  0
    6.4184  -12.6540   26.8127 C   0  0  0  0  0  0  0  0  0  0  0  0
    6.2145  -13.9640   26.4387 C   0  0  0  0  0  0  0  0  0  0  0  0
    7.2864  -14.7801   26.1570 C   0  0  0  0  0  0  0  0  0  0  0  0
    8.5825  -14.3308   26.2356 C   0  0  0  0  0  0  0  0  0  0  0  0
    9.7119  -15.2552   25.9232 C   0  0  0  0  0  0  0  0  0  0  0  0
    9.2656  -16.6654   25.7422 C   0  0  2  0  0  0  0  0  0  0  0  0
    8.2082  -16.7180   24.7640 N   0  0  0  0  0  0  0  0  0  0  0  0
    8.8163  -17.2150   27.0584 C   0  0  0  0  0  0  0  0  0  0  0  0
    9.7288  -17.2396   28.0832 O   0  0  0  0  0  0  0  0  0  0  0  0
    8.8008  -13.0248   26.6077 C   0  0  0  0  0  0  0  0  0  0  0  0
    7.7262  -12.2249   26.8847 C   0  0  0  0  0  0  0  0  0  0  0  0
    7.6640  -17.6439   27.2550 O   0  0  0  0  0  0  0  0  0  0  0  0
  1  5  1  0
  1  2  1  0
  2  3  1  0
  4  3  1  0
  5  4  1  0
  6  7  2  0
  5  6  1  1
  9  8  1  6
 10  9  1  0
 11  9  1  0
 11 12  1  6
 12  6  1  0
 13 11  1  0
 14 13  2  0
 16 17  2  0
 16 15  1  0
 18 17  1  0
 19 18  2  0
 21 20  1  1
 20 19  1  0
 21 22  1  0
 22 13  1  0
 23 24  1  0
 23 21  1  0
 25 19  1  0
 25 26  2  0
 26 16  1  0
 27 23  2  0
M  END
$$$$
