PTY.pdb
     RDKit          3D

 27 28  0  0  1  0  0  0  0  0999 V2000
    8.7854  -13.2767   19.6711 N   0  0  0  0  0  0  0  0  0  0  0  0
    8.6780  -12.5175   18.4445 C   0  0  0  0  0  0  0  0  0  0  0  0
    8.0422  -13.4058   17.4246 C   0  0  0  0  0  0  0  0  0  0  0  0
    7.5888  -14.6301   18.1915 C   0  0  0  0  0  0  0  0  0  0  0  0
    7.6523  -14.1489   19.6155 C   0  0  1  0  0  0  0  0  0  0  0  0
    7.7060  -15.2536   20.5877 C   0  0  0  0  0  0  0  0  0  0  0  0
    6.9724  -16.2493   20.3885 O   0  0  0  0  0  0  0  0  0  0  0  0
    9.0298  -17.9141   20.4225 C   0  0  0  0  0  0  0  0  0  0  0  0
    9.6804  -17.4547   21.6842 C   0  0  1  0  0  0  0  0  0  0  0  0
   10.9007  -16.8378   21.3126 O   0  0  0  0  0  0  0  0  0  0  0  0
    8.9158  -16.4432   22.4625 C   0  0  2  0  0  0  0  0  0  0  0  0
    8.5308  -15.2709   21.7362 N   0  0  0  0  0  0  0  0  0  0  0  0
    9.7209  -16.0389   23.6438 C   0  0  0  0  0  0  0  0  0  0  0  0
   10.4070  -14.9721   23.6552 O   0  0  0  0  0  0  0  0  0  0  0  0
    6.2740  -10.6885   26.9305 O   0  0  0  0  0  0  0  0  0  0  0  0
    6.6003  -12.0162   26.6582 C   0  0  0  0  0  0  0  0  0  0  0  0
    5.6502  -12.9997   26.4919 C   0  0  0  0  0  0  0  0  0  0  0  0
    6.0316  -14.2948   26.2244 C   0  0  0  0  0  0  0  0  0  0  0  0
    7.3529  -14.6553   26.1138 C   0  0  0  0  0  0  0  0  0  0  0  0
    7.7168  -16.0738   25.8256 C   0  0  0  0  0  0  0  0  0  0  0  0
    9.1629  -16.3526   26.0533 C   0  0  2  0  0  0  0  0  0  0  0  0
    9.7589  -16.8477   24.8377 N   0  0  0  0  0  0  0  0  0  0  0  0
    9.3072  -17.3372   27.1696 C   0  0  0  0  0  0  0  0  0  0  0  0
    9.6911  -18.6146   26.8464 O   0  0  0  0  0  0  0  0  0  0  0  0
    8.3122  -13.6834   26.2774 C   0  0  0  0  0  0  0  0  0  0  0  0
    7.9189  -12.4003   26.5429 C   0  0  0  0  0  0  0  0  0  0  0  0
    9.0953  -17.0453   28.3614 O   0  0  0  0  0  0  0  0  0  0  0  0
  1  5  1  0
  1  2  1  0
  2  3  1  0
  4  3  1  0
  5  4  1  0
  6  7  2  0
  5  6  1  1
  9  8  1  6
 10  9  1  0
 11  9  1  0
 11 12  1  6
 12  6  1  0
 13 11  1  0
 14 13  2  0
 16 17  2  0
 16 15  1  0
 18 17  1  0
 19 18  2  0
 21 20  1  6
 20 19  1  0
 21 22  1  0
 22 13  1  0
 23 24  1  0
 23 21  1  0
 25 19  1  0
 25 26  2  0
 26 16  1  0
 27 23  2  0
M  END
$$$$
