PTY.pdb
     RDKit          3D

 27 28  0  0  1  0  0  0  0  0999 V2000
    9.0568  -14.5739   17.8386 N   0  0  0  0  0  0  0  0  0  0  0  0
    8.9267  -13.6809   16.7080 C   0  0  0  0  0  0  0  0  0  0  0  0
    7.7812  -12.7645   16.9932 C   0  0  0  0  0  0  0  0  0  0  0  0
    7.4087  -13.0314   18.4363 C   0  0  0  0  0  0  0  0  0  0  0  0
    8.6172  -13.7726   18.9398 C   0  0  1  0  0  0  0  0  0  0  0  0
    8.3424  -14.5452   20.1629 C   0  0  0  0  0  0  0  0  0  0  0  0
    7.9408  -13.9238   21.1739 O   0  0  0  0  0  0  0  0  0  0  0  0
    7.4203  -18.7591   20.0659 C   0  0  0  0  0  0  0  0  0  0  0  0
    8.1937  -18.2081   21.2168 C   0  0  1  0  0  0  0  0  0  0  0  0
    9.5588  -18.4917   20.9637 O   0  0  0  0  0  0  0  0  0  0  0  0
    8.0958  -16.7353   21.4023 C   0  0  2  0  0  0  0  0  0  0  0  0
    8.5003  -15.9456   20.2785 N   0  0  0  0  0  0  0  0  0  0  0  0
    8.9066  -16.3464   22.5849 C   0  0  0  0  0  0  0  0  0  0  0  0
   10.0667  -15.8468   22.4684 O   0  0  0  0  0  0  0  0  0  0  0  0
   11.1106  -14.3669   30.9093 O   0  0  0  0  0  0  0  0  0  0  0  0
   10.4334  -14.6397   29.7217 C   0  0  0  0  0  0  0  0  0  0  0  0
    9.8521  -15.8602   29.4569 C   0  0  0  0  0  0  0  0  0  0  0  0
    9.1957  -16.0724   28.2659 C   0  0  0  0  0  0  0  0  0  0  0  0
    9.0942  -15.0932   27.3074 C   0  0  0  0  0  0  0  0  0  0  0  0
    8.3747  -15.3724   26.0299 C   0  0  0  0  0  0  0  0  0  0  0  0
    9.2163  -16.1123   25.0475 C   0  0  2  0  0  0  0  0  0  0  0  0
    8.4074  -16.5220   23.9269 N   0  0  0  0  0  0  0  0  0  0  0  0
    9.8457  -17.2890   25.7225 C   0  0  0  0  0  0  0  0  0  0  0  0
   11.0930  -17.1179   26.2687 O   0  0  0  0  0  0  0  0  0  0  0  0
    9.6700  -13.8696   27.5585 C   0  0  0  0  0  0  0  0  0  0  0  0
   10.3192  -13.6726   28.7464 C   0  0  0  0  0  0  0  0  0  0  0  0
    9.2888  -18.3996   25.8055 O   0  0  0  0  0  0  0  0  0  0  0  0
  1  5  1  0
  1  2  1  0
  2  3  1  0
  4  3  1  0
  5  4  1  0
  6  7  2  0
  5  6  1  1
  9  8  1  6
 10  9  1  0
 11  9  1  0
 11 12  1  6
 12  6  1  0
 13 11  1  0
 14 13  2  0
 16 17  2  0
 16 15  1  0
 18 17  1  0
 19 18  2  0
 21 20  1  1
 20 19  1  0
 21 22  1  0
 22 13  1  0
 23 24  1  0
 23 21  1  0
 25 19  1  0
 25 26  2  0
 26 16  1  0
 27 23  2  0
M  END
$$$$
