PTY.pdb
     RDKit          3D

 27 28  0  0  1  0  0  0  0  0999 V2000
    7.8124  -18.3430   19.2825 N   0  0  0  0  0  0  0  0  0  0  0  0
    7.6673  -19.2244   18.1447 C   0  0  0  0  0  0  0  0  0  0  0  0
    7.9363  -18.4157   16.9170 C   0  0  0  0  0  0  0  0  0  0  0  0
    8.4606  -17.0883   17.4228 C   0  0  0  0  0  0  0  0  0  0  0  0
    8.8100  -17.4127   18.8497 C   0  0  1  0  0  0  0  0  0  0  0  0
    8.9101  -16.2132   19.6980 C   0  0  0  0  0  0  0  0  0  0  0  0
    9.8689  -15.4313   19.5010 O   0  0  0  0  0  0  0  0  0  0  0  0
    7.3662  -12.9485   20.0271 C   0  0  0  0  0  0  0  0  0  0  0  0
    7.1823  -13.6318   21.3407 C   0  0  1  0  0  0  0  0  0  0  0  0
    5.8773  -14.1840   21.3340 O   0  0  0  0  0  0  0  0  0  0  0  0
    8.1161  -14.7587   21.6079 C   0  0  2  0  0  0  0  0  0  0  0  0
    7.9966  -15.8791   20.7243 N   0  0  0  0  0  0  0  0  0  0  0  0
    7.9213  -15.2212   23.0062 C   0  0  0  0  0  0  0  0  0  0  0  0
    6.7701  -15.4730   23.4756 O   0  0  0  0  0  0  0  0  0  0  0  0
   11.2919  -21.1208   22.4896 O   0  0  0  0  0  0  0  0  0  0  0  0
   10.5038  -20.1830   23.1550 C   0  0  0  0  0  0  0  0  0  0  0  0
    9.2090  -20.4400   23.5483 C   0  0  0  0  0  0  0  0  0  0  0  0
    8.4779  -19.4748   24.2027 C   0  0  0  0  0  0  0  0  0  0  0  0
    8.9994  -18.2356   24.4863 C   0  0  0  0  0  0  0  0  0  0  0  0
    8.1659  -17.2207   25.1955 C   0  0  0  0  0  0  0  0  0  0  0  0
    8.8115  -15.8784   25.2402 C   0  0  2  0  0  0  0  0  0  0  0  0
    9.0401  -15.4047   23.8981 N   0  0  0  0  0  0  0  0  0  0  0  0
   10.0906  -15.9700   26.0095 C   0  0  0  0  0  0  0  0  0  0  0  0
   10.0294  -16.4559   27.2916 O   0  0  0  0  0  0  0  0  0  0  0  0
   10.2913  -17.9653   24.0994 C   0  0  0  0  0  0  0  0  0  0  0  0
   11.0063  -18.9339   23.4499 C   0  0  0  0  0  0  0  0  0  0  0  0
   11.1907  -15.6272   25.5373 O   0  0  0  0  0  0  0  0  0  0  0  0
  1  5  1  0
  1  2  1  0
  2  3  1  0
  4  3  1  0
  5  4  1  0
  6  7  2  0
  5  6  1  1
  9  8  1  6
 10  9  1  0
 11  9  1  0
 11 12  1  6
 12  6  1  0
 13 11  1  0
 14 13  2  0
 16 17  2  0
 16 15  1  0
 18 17  1  0
 19 18  2  0
 21 20  1  6
 20 19  1  0
 21 22  1  0
 22 13  1  0
 23 24  1  0
 23 21  1  0
 25 19  1  0
 25 26  2  0
 26 16  1  0
 27 23  2  0
M  END
$$$$
