PTY.pdb
     RDKit          3D

 27 28  0  0  1  0  0  0  0  0999 V2000
    9.0748  -13.7384   19.1595 N   0  0  0  0  0  0  0  0  0  0  0  0
    8.4940  -12.8776   18.1524 C   0  0  0  0  0  0  0  0  0  0  0  0
    7.0113  -12.9134   18.3365 C   0  0  0  0  0  0  0  0  0  0  0  0
    6.7903  -13.6580   19.6363 C   0  0  0  0  0  0  0  0  0  0  0  0
    8.1613  -13.6221   20.2548 C   0  0  1  0  0  0  0  0  0  0  0  0
    8.3448  -14.6511   21.2920 C   0  0  0  0  0  0  0  0  0  0  0  0
    7.5444  -14.6650   22.2556 O   0  0  0  0  0  0  0  0  0  0  0  0
   10.6960  -18.8080   22.8731 C   0  0  0  0  0  0  0  0  0  0  0  0
   10.6746  -17.5893   22.0125 C   0  0  1  0  0  0  0  0  0  0  0  0
   10.5370  -18.0370   20.6751 O   0  0  0  0  0  0  0  0  0  0  0  0
    9.5454  -16.6536   22.2627 C   0  0  2  0  0  0  0  0  0  0  0  0
    9.3654  -15.6297   21.2781 N   0  0  0  0  0  0  0  0  0  0  0  0
    9.7347  -16.0191   23.5926 C   0  0  0  0  0  0  0  0  0  0  0  0
    9.6564  -14.7635   23.7546 O   0  0  0  0  0  0  0  0  0  0  0  0
    6.4823  -10.8358   27.0074 O   0  0  0  0  0  0  0  0  0  0  0  0
    6.8847  -12.1504   26.7762 C   0  0  0  0  0  0  0  0  0  0  0  0
    7.9146  -12.7488   27.4680 C   0  0  0  0  0  0  0  0  0  0  0  0
    8.2683  -14.0510   27.1968 C   0  0  0  0  0  0  0  0  0  0  0  0
    7.6205  -14.7961   26.2413 C   0  0  0  0  0  0  0  0  0  0  0  0
    8.0428  -16.2038   25.9811 C   0  0  0  0  0  0  0  0  0  0  0  0
    9.5208  -16.3813   26.0500 C   0  0  2  0  0  0  0  0  0  0  0  0
   10.0187  -16.8083   24.7664 N   0  0  0  0  0  0  0  0  0  0  0  0
    9.8507  -17.3742   27.1185 C   0  0  0  0  0  0  0  0  0  0  0  0
   10.3348  -18.5965   26.7246 O   0  0  0  0  0  0  0  0  0  0  0  0
    6.5901  -14.2112   25.5428 C   0  0  0  0  0  0  0  0  0  0  0  0
    6.2492  -12.9163   25.8228 C   0  0  0  0  0  0  0  0  0  0  0  0
    9.7045  -17.1365   28.3320 O   0  0  0  0  0  0  0  0  0  0  0  0
  1  5  1  0
  1  2  1  0
  2  3  1  0
  4  3  1  0
  5  4  1  0
  6  7  2  0
  5  6  1  1
  9  8  1  1
 10  9  1  0
 11  9  1  0
 11 12  1  6
 12  6  1  0
 13 11  1  0
 14 13  2  0
 16 17  2  0
 16 15  1  0
 18 17  1  0
 19 18  2  0
 21 20  1  6
 20 19  1  0
 21 22  1  0
 22 13  1  0
 23 24  1  0
 23 21  1  0
 25 19  1  0
 25 26  2  0
 26 16  1  0
 27 23  2  0
M  END
$$$$
