PTY.pdb
     RDKit          3D

 27 28  0  0  1  0  0  0  0  0999 V2000
    8.9513  -14.2954   19.2430 N   0  0  0  0  0  0  0  0  0  0  0  0
    8.9741  -13.2660   18.2270 C   0  0  0  0  0  0  0  0  0  0  0  0
    7.7783  -12.3967   18.4461 C   0  0  0  0  0  0  0  0  0  0  0  0
    7.1975  -12.8465   19.7700 C   0  0  0  0  0  0  0  0  0  0  0  0
    8.3320  -13.6424   20.3556 C   0  0  1  0  0  0  0  0  0  0  0  0
    7.8923  -14.5653   21.4154 C   0  0  0  0  0  0  0  0  0  0  0  0
    7.2916  -14.0837   22.4037 O   0  0  0  0  0  0  0  0  0  0  0  0
    6.8822  -18.6689   20.7031 C   0  0  0  0  0  0  0  0  0  0  0  0
    7.6309  -18.3240   21.9468 C   0  0  1  0  0  0  0  0  0  0  0  0
    8.9949  -18.6144   21.6953 O   0  0  0  0  0  0  0  0  0  0  0  0
    7.5711  -16.8931   22.3492 C   0  0  2  0  0  0  0  0  0  0  0  0
    8.1006  -15.9638   21.3972 N   0  0  0  0  0  0  0  0  0  0  0  0
    8.2894  -16.7277   23.6391 C   0  0  0  0  0  0  0  0  0  0  0  0
    9.4946  -16.3355   23.6907 O   0  0  0  0  0  0  0  0  0  0  0  0
    6.8872  -10.4908   25.7291 O   0  0  0  0  0  0  0  0  0  0  0  0
    6.9920  -11.8434   26.0497 C   0  0  0  0  0  0  0  0  0  0  0  0
    5.9131  -12.6997   26.0369 C   0  0  0  0  0  0  0  0  0  0  0  0
    6.0766  -14.0269   26.3629 C   0  0  0  0  0  0  0  0  0  0  0  0
    7.3014  -14.5448   26.7088 C   0  0  0  0  0  0  0  0  0  0  0  0
    7.4277  -15.9906   27.0574 C   0  0  0  0  0  0  0  0  0  0  0  0
    8.3345  -16.7266   26.1318 C   0  0  2  0  0  0  0  0  0  0  0  0
    7.6440  -17.0088   24.8983 N   0  0  0  0  0  0  0  0  0  0  0  0
    8.8017  -17.9840   26.7929 C   0  0  0  0  0  0  0  0  0  0  0  0
    8.4401  -19.1773   26.2196 O   0  0  0  0  0  0  0  0  0  0  0  0
    8.3875  -13.7011   26.7256 C   0  0  0  0  0  0  0  0  0  0  0  0
    8.2104  -12.3844   26.3994 C   0  0  0  0  0  0  0  0  0  0  0  0
    9.4952  -17.9876   27.8271 O   0  0  0  0  0  0  0  0  0  0  0  0
  1  5  1  0
  1  2  1  0
  2  3  1  0
  4  3  1  0
  5  4  1  0
  6  7  2  0
  5  6  1  1
  9  8  1  6
 10  9  1  0
 11  9  1  0
 11 12  1  6
 12  6  1  0
 13 11  1  0
 14 13  2  0
 16 17  2  0
 16 15  1  0
 18 17  1  0
 19 18  2  0
 21 20  1  1
 20 19  1  0
 21 22  1  0
 22 13  1  0
 23 24  1  0
 23 21  1  0
 25 19  1  0
 25 26  2  0
 26 16  1  0
 27 23  2  0
M  END
$$$$
