YSQ.pdb
     RDKit          3D

 28 28  0  0  1  0  0  0  0  0999 V2000
    8.0479  -12.2075   17.2563 O   0  0  0  0  0  0  0  0  0  0  0  0
    7.8660  -12.7890   18.5225 C   0  0  0  0  0  0  0  0  0  0  0  0
    8.6269  -12.3762   19.5834 C   0  0  0  0  0  0  0  0  0  0  0  0
    8.4347  -12.9631   20.8347 C   0  0  0  0  0  0  0  0  0  0  0  0
    7.4937  -13.9547   21.0364 C   0  0  0  0  0  0  0  0  0  0  0  0
    7.2694  -14.5893   22.3394 C   0  0  0  0  0  0  0  0  0  0  0  0
    8.3847  -15.5540   22.7154 C   0  0  2  0  0  0  0  0  0  0  0  0
    8.7051  -16.4510   21.6401 N   0  0  0  0  0  0  0  0  0  0  0  0
    7.9203  -16.3204   23.8812 C   0  0  0  0  0  0  0  0  0  0  0  0
    7.3773  -15.7456   24.8376 O   0  0  0  0  0  0  0  0  0  0  0  0
    6.7423  -14.3497   19.9490 C   0  0  0  0  0  0  0  0  0  0  0  0
    6.9193  -13.7753   18.6902 C   0  0  0  0  0  0  0  0  0  0  0  0
    8.7344  -20.4685   24.0617 O   0  0  0  0  0  0  0  0  0  0  0  0
    7.8555  -19.8933   24.9891 C   0  0  0  0  0  0  0  0  0  0  0  0
    8.1618  -18.4172   25.1474 C   0  0  2  0  0  0  0  0  0  0  0  0
    8.0974  -17.7172   23.9038 N   0  0  0  0  0  0  0  0  0  0  0  0
    9.4949  -18.2554   25.7927 C   0  0  0  0  0  0  0  0  0  0  0  0
   10.5013  -17.8584   25.1438 O   0  0  0  0  0  0  0  0  0  0  0  0
   10.8765  -12.9945   28.1808 N   0  0  0  0  0  0  0  0  0  0  0  0
    9.7958  -13.8974   28.3250 C   0  0  0  0  0  0  0  0  0  0  0  0
    8.6408  -13.5575   27.9647 O   0  0  0  0  0  0  0  0  0  0  0  0
   10.0303  -15.2289   28.8883 C   0  0  0  0  0  0  0  0  0  0  0  0
    9.6335  -16.3129   27.9567 C   0  0  0  0  0  0  0  0  0  0  0  0
   10.2767  -17.6454   28.1375 C   0  0  2  0  0  0  0  0  0  0  0  0
    9.6389  -18.5524   27.1620 N   0  0  0  0  0  0  0  0  0  0  0  0
   10.3692  -18.2315   29.4448 C   0  0  0  0  0  0  0  0  0  0  0  0
    9.4566  -19.2518   29.7834 O   0  0  0  0  0  0  0  0  0  0  0  0
   11.1874  -17.9339   30.3421 O   0  0  0  0  0  0  0  0  0  0  0  0
  2  1  1  0
  3  2  2  0
  4  3  1  0
  5 11  1  0
  5  4  2  0
  6  5  1  0
  7  6  1  0
  7  8  1  6
  9  7  1  0
  9 10  2  0
 11 12  2  0
 12  2  1  0
 14 13  1  0
 15 16  1  0
 15 14  1  6
 16  9  1  0
 17 15  1  0
 18 17  2  0
 20 19  1  0
 21 20  2  0
 22 20  1  0
 24 23  1  1
 23 22  1  0
 24 25  1  0
 25 17  1  0
 26 24  1  0
 26 27  1  0
 28 26  2  0
M  END
$$$$
