YSQ.pdb
     RDKit          3D

 28 28  0  0  1  0  0  0  0  0999 V2000
    7.7647  -13.5532   16.0663 O   0  0  0  0  0  0  0  0  0  0  0  0
    7.8081  -13.7720   17.4536 C   0  0  0  0  0  0  0  0  0  0  0  0
    7.7129  -12.7151   18.3189 C   0  0  0  0  0  0  0  0  0  0  0  0
    7.7576  -12.9483   19.6939 C   0  0  0  0  0  0  0  0  0  0  0  0
    7.8960  -14.2218   20.2118 C   0  0  0  0  0  0  0  0  0  0  0  0
    7.9457  -14.4974   21.6514 C   0  0  0  0  0  0  0  0  0  0  0  0
    7.0407  -15.6530   22.0533 C   0  0  2  0  0  0  0  0  0  0  0  0
    5.6536  -15.3512   21.8334 N   0  0  0  0  0  0  0  0  0  0  0  0
    7.2738  -15.9093   23.4823 C   0  0  0  0  0  0  0  0  0  0  0  0
    7.0624  -15.0227   24.3243 O   0  0  0  0  0  0  0  0  0  0  0  0
    7.9895  -15.2666   19.3156 C   0  0  0  0  0  0  0  0  0  0  0  0
    7.9469  -15.0541   17.9376 C   0  0  0  0  0  0  0  0  0  0  0  0
    6.8564  -19.0473   25.7160 O   0  0  0  0  0  0  0  0  0  0  0  0
    7.5088  -17.9091   26.2082 C   0  0  0  0  0  0  0  0  0  0  0  0
    8.4136  -17.3275   25.1399 C   0  0  2  0  0  0  0  0  0  0  0  0
    7.7407  -17.1741   23.8892 N   0  0  0  0  0  0  0  0  0  0  0  0
    9.6274  -18.1804   25.0021 C   0  0  0  0  0  0  0  0  0  0  0  0
    9.9700  -18.6706   23.8913 O   0  0  0  0  0  0  0  0  0  0  0  0
   13.1577  -15.4610   23.5322 N   0  0  0  0  0  0  0  0  0  0  0  0
   14.1657  -16.3474   23.9819 C   0  0  0  0  0  0  0  0  0  0  0  0
   15.3559  -16.1846   23.6128 O   0  0  0  0  0  0  0  0  0  0  0  0
   13.8173  -17.4486   24.8826 C   0  0  0  0  0  0  0  0  0  0  0  0
   12.3736  -17.4634   25.2226 C   0  0  0  0  0  0  0  0  0  0  0  0
   11.8874  -18.5561   26.1124 C   0  0  2  0  0  0  0  0  0  0  0  0
   10.4147  -18.4484   26.1388 N   0  0  0  0  0  0  0  0  0  0  0  0
   12.4440  -18.7201   27.4254 C   0  0  0  0  0  0  0  0  0  0  0  0
   13.1187  -19.9235   27.7173 O   0  0  0  0  0  0  0  0  0  0  0  0
   12.3986  -17.8972   28.3656 O   0  0  0  0  0  0  0  0  0  0  0  0
  2  1  1  0
  3  2  2  0
  4  3  1  0
  5 11  1  0
  5  4  2  0
  6  5  1  0
  7  6  1  0
  7  8  1  1
  9  7  1  0
  9 10  2  0
 11 12  2  0
 12  2  1  0
 14 13  1  0
 15 16  1  0
 15 14  1  1
 16  9  1  0
 17 15  1  0
 18 17  2  0
 20 19  1  0
 21 20  2  0
 22 20  1  0
 24 23  1  1
 23 22  1  0
 24 25  1  0
 25 17  1  0
 26 24  1  0
 26 27  1  0
 28 26  2  0
M  END
$$$$
