YSQ.pdb
     RDKit          3D

 28 28  0  0  1  0  0  0  0  0999 V2000
    7.7825  -13.7777   14.5899 O   0  0  0  0  0  0  0  0  0  0  0  0
    7.8843  -13.8356   15.9901 C   0  0  0  0  0  0  0  0  0  0  0  0
    8.5356  -14.8808   16.5887 C   0  0  0  0  0  0  0  0  0  0  0  0
    8.6286  -14.9244   17.9803 C   0  0  0  0  0  0  0  0  0  0  0  0
    8.0795  -13.9383   18.7774 C   0  0  0  0  0  0  0  0  0  0  0  0
    8.1615  -13.9573   20.2416 C   0  0  0  0  0  0  0  0  0  0  0  0
    7.1611  -14.9185   20.8671 C   0  0  2  0  0  0  0  0  0  0  0  0
    5.8054  -14.4847   20.6736 N   0  0  0  0  0  0  0  0  0  0  0  0
    7.4627  -14.9831   22.3047 C   0  0  0  0  0  0  0  0  0  0  0  0
    6.9305  -14.1896   23.0966 O   0  0  0  0  0  0  0  0  0  0  0  0
    7.4295  -12.8980   18.1460 C   0  0  0  0  0  0  0  0  0  0  0  0
    7.3259  -12.8364   16.7563 C   0  0  0  0  0  0  0  0  0  0  0  0
    6.6941  -17.6496   24.5438 O   0  0  0  0  0  0  0  0  0  0  0  0
    7.2098  -16.3927   24.8871 C   0  0  0  0  0  0  0  0  0  0  0  0
    8.5317  -16.1642   24.1810 C   0  0  2  0  0  0  0  0  0  0  0  0
    8.3638  -15.9564   22.7777 N   0  0  0  0  0  0  0  0  0  0  0  0
    9.4430  -17.3105   24.4548 C   0  0  0  0  0  0  0  0  0  0  0  0
    9.2598  -18.4427   23.9291 O   0  0  0  0  0  0  0  0  0  0  0  0
   15.0765  -17.7714   23.5665 N   0  0  0  0  0  0  0  0  0  0  0  0
   14.5188  -16.5817   24.0930 C   0  0  0  0  0  0  0  0  0  0  0  0
   15.1144  -15.4861   23.9375 O   0  0  0  0  0  0  0  0  0  0  0  0
   13.2439  -16.6319   24.8123 C   0  0  0  0  0  0  0  0  0  0  0  0
   12.7059  -18.0108   24.9102 C   0  0  0  0  0  0  0  0  0  0  0  0
   11.4655  -18.2102   25.7124 C   0  0  2  0  0  0  0  0  0  0  0  0
   10.5380  -17.1293   25.3220 N   0  0  0  0  0  0  0  0  0  0  0  0
   11.5443  -18.3707   27.1367 C   0  0  0  0  0  0  0  0  0  0  0  0
   12.3104  -19.4398   27.6452 O   0  0  0  0  0  0  0  0  0  0  0  0
   10.9976  -17.6527   28.0021 O   0  0  0  0  0  0  0  0  0  0  0  0
  2  1  1  0
  3  2  2  0
  4  3  1  0
  5 11  1  0
  5  4  2  0
  6  5  1  0
  7  6  1  0
  7  8  1  1
  9  7  1  0
  9 10  2  0
 11 12  2  0
 12  2  1  0
 14 13  1  0
 15 16  1  0
 15 14  1  1
 16  9  1  0
 17 15  1  0
 18 17  2  0
 20 19  1  0
 21 20  2  0
 22 20  1  0
 24 23  1  1
 23 22  1  0
 24 25  1  0
 25 17  1  0
 26 24  1  0
 26 27  1  0
 28 26  2  0
M  END
$$$$
