YSQ.pdb
     RDKit          3D

 28 28  0  0  1  0  0  0  0  0999 V2000
   17.4454  -14.5002   15.6609 O   0  0  0  0  0  0  0  0  0  0  0  0
   16.5200  -14.5490   16.7172 C   0  0  0  0  0  0  0  0  0  0  0  0
   15.9631  -15.7438   17.0877 C   0  0  0  0  0  0  0  0  0  0  0  0
   15.0457  -15.7762   18.1386 C   0  0  0  0  0  0  0  0  0  0  0  0
   14.6800  -14.6316   18.8208 C   0  0  0  0  0  0  0  0  0  0  0  0
   13.7192  -14.6350   19.9288 C   0  0  0  0  0  0  0  0  0  0  0  0
   12.3335  -15.0903   19.4946 C   0  0  2  0  0  0  0  0  0  0  0  0
   11.6385  -14.0708   18.7590 N   0  0  0  0  0  0  0  0  0  0  0  0
   11.5839  -15.4218   20.7153 C   0  0  0  0  0  0  0  0  0  0  0  0
   10.8582  -14.5746   21.2589 O   0  0  0  0  0  0  0  0  0  0  0  0
   15.2577  -13.4429   18.4251 C   0  0  0  0  0  0  0  0  0  0  0  0
   16.1768  -13.3896   17.3770 C   0  0  0  0  0  0  0  0  0  0  0  0
   11.3109  -19.4020   21.9273 O   0  0  0  0  0  0  0  0  0  0  0  0
   10.3017  -18.4762   22.2237 C   0  0  0  0  0  0  0  0  0  0  0  0
   10.8992  -17.0927   22.3879 C   0  0  2  0  0  0  0  0  0  0  0  0
   11.6964  -16.7135   21.2648 N   0  0  0  0  0  0  0  0  0  0  0  0
   11.6842  -17.0402   23.6531 C   0  0  0  0  0  0  0  0  0  0  0  0
   12.9457  -17.0550   23.6512 O   0  0  0  0  0  0  0  0  0  0  0  0
    8.9395  -15.3245   28.9412 N   0  0  0  0  0  0  0  0  0  0  0  0
    9.6752  -14.4063   28.1541 C   0  0  0  0  0  0  0  0  0  0  0  0
    9.5059  -13.1705   28.3075 O   0  0  0  0  0  0  0  0  0  0  0  0
   10.6374  -14.9015   27.1671 C   0  0  0  0  0  0  0  0  0  0  0  0
   10.7373  -16.3815   27.1707 C   0  0  0  0  0  0  0  0  0  0  0  0
   11.6765  -17.0101   26.1988 C   0  0  2  0  0  0  0  0  0  0  0  0
   11.0039  -16.9724   24.8845 N   0  0  0  0  0  0  0  0  0  0  0  0
   12.2519  -18.2953   26.4781 C   0  0  0  0  0  0  0  0  0  0  0  0
   13.3250  -18.3606   27.3906 O   0  0  0  0  0  0  0  0  0  0  0  0
   11.9022  -19.3933   25.9929 O   0  0  0  0  0  0  0  0  0  0  0  0
  2  1  1  0
  3  2  2  0
  4  3  1  0
  5 11  1  0
  5  4  2  0
  6  5  1  0
  7  6  1  0
  7  8  1  1
  9  7  1  0
  9 10  2  0
 11 12  2  0
 12  2  1  0
 14 13  1  0
 15 16  1  0
 15 14  1  6
 16  9  1  0
 17 15  1  0
 18 17  2  0
 20 19  1  0
 21 20  2  0
 22 20  1  0
 24 23  1  1
 23 22  1  0
 24 25  1  0
 25 17  1  0
 26 24  1  0
 26 27  1  0
 28 26  2  0
M  END
$$$$
