YSQ.pdb
     RDKit          3D

 28 28  0  0  1  0  0  0  0  0999 V2000
   18.2884  -14.3272   16.6824 O   0  0  0  0  0  0  0  0  0  0  0  0
   17.1494  -14.3703   17.5041 C   0  0  0  0  0  0  0  0  0  0  0  0
   16.9664  -15.4151   18.3701 C   0  0  0  0  0  0  0  0  0  0  0  0
   15.8303  -15.4439   19.1797 C   0  0  0  0  0  0  0  0  0  0  0  0
   14.8783  -14.4434   19.1334 C   0  0  0  0  0  0  0  0  0  0  0  0
   13.6751  -14.4467   19.9720 C   0  0  0  0  0  0  0  0  0  0  0  0
   12.5721  -15.3266   19.4018 C   0  0  2  0  0  0  0  0  0  0  0  0
   11.8092  -14.6462   18.3925 N   0  0  0  0  0  0  0  0  0  0  0  0
   11.6948  -15.7014   20.5206 C   0  0  0  0  0  0  0  0  0  0  0  0
   10.7828  -14.9441   20.8875 O   0  0  0  0  0  0  0  0  0  0  0  0
   15.0899  -13.4039   18.2514 C   0  0  0  0  0  0  0  0  0  0  0  0
   16.2191  -13.3569   17.4337 C   0  0  0  0  0  0  0  0  0  0  0  0
   12.0003  -19.5150   22.3366 O   0  0  0  0  0  0  0  0  0  0  0  0
   10.7897  -18.8123   22.2729 C   0  0  0  0  0  0  0  0  0  0  0  0
   11.0563  -17.3200   22.2615 C   0  0  2  0  0  0  0  0  0  0  0  0
   11.8985  -16.9317   21.1749 N   0  0  0  0  0  0  0  0  0  0  0  0
   11.6371  -16.9116   23.5712 C   0  0  0  0  0  0  0  0  0  0  0  0
   12.8665  -16.6602   23.7012 O   0  0  0  0  0  0  0  0  0  0  0  0
    9.9286  -12.8450   29.0797 N   0  0  0  0  0  0  0  0  0  0  0  0
    9.6521  -13.9911   28.2961 C   0  0  0  0  0  0  0  0  0  0  0  0
    8.4801  -14.4399   28.2311 O   0  0  0  0  0  0  0  0  0  0  0  0
   10.7343  -14.6462   27.5579 C   0  0  0  0  0  0  0  0  0  0  0  0
   10.2619  -15.8278   26.7957 C   0  0  0  0  0  0  0  0  0  0  0  0
   11.2866  -16.6383   26.0780 C   0  0  2  0  0  0  0  0  0  0  0  0
   10.7951  -16.8023   24.6950 N   0  0  0  0  0  0  0  0  0  0  0  0
   11.7528  -17.8745   26.6393 C   0  0  0  0  0  0  0  0  0  0  0  0
   12.8372  -17.8303   27.5396 O   0  0  0  0  0  0  0  0  0  0  0  0
   11.2963  -19.0169   26.4163 O   0  0  0  0  0  0  0  0  0  0  0  0
  2  1  1  0
  3  2  2  0
  4  3  1  0
  5 11  1  0
  5  4  2  0
  6  5  1  0
  7  6  1  0
  7  8  1  6
  9  7  1  0
  9 10  2  0
 11 12  2  0
 12  2  1  0
 14 13  1  0
 15 16  1  0
 15 14  1  1
 16  9  1  0
 17 15  1  0
 18 17  2  0
 20 19  1  0
 21 20  2  0
 22 20  1  0
 24 23  1  1
 23 22  1  0
 24 25  1  0
 25 17  1  0
 26 24  1  0
 26 27  1  0
 28 26  2  0
M  END
$$$$
