YSQ.pdb
     RDKit          3D

 28 28  0  0  1  0  0  0  0  0999 V2000
    4.9103  -10.4726   27.1574 O   0  0  0  0  0  0  0  0  0  0  0  0
    5.7276  -11.5118   26.6815 C   0  0  0  0  0  0  0  0  0  0  0  0
    6.6131  -12.1296   27.5236 C   0  0  0  0  0  0  0  0  0  0  0  0
    7.4180  -13.1600   27.0364 C   0  0  0  0  0  0  0  0  0  0  0  0
    7.3478  -13.5783   25.7214 C   0  0  0  0  0  0  0  0  0  0  0  0
    8.1805  -14.6581   25.1814 C   0  0  0  0  0  0  0  0  0  0  0  0
    7.3532  -15.7757   24.5628 C   0  0  2  0  0  0  0  0  0  0  0  0
    6.5217  -16.4302   25.5343 N   0  0  0  0  0  0  0  0  0  0  0  0
    8.2965  -16.7430   23.9826 C   0  0  0  0  0  0  0  0  0  0  0  0
    8.6215  -17.7617   24.6122 O   0  0  0  0  0  0  0  0  0  0  0  0
    6.4463  -12.9373   24.8969 C   0  0  0  0  0  0  0  0  0  0  0  0
    5.6330  -11.9051   25.3649 C   0  0  0  0  0  0  0  0  0  0  0  0
   10.6854  -15.5736   20.7305 O   0  0  0  0  0  0  0  0  0  0  0  0
   10.3003  -16.9193   20.7945 C   0  0  0  0  0  0  0  0  0  0  0  0
    9.9239  -17.2839   22.2170 C   0  0  2  0  0  0  0  0  0  0  0  0
    8.8301  -16.5031   22.7016 N   0  0  0  0  0  0  0  0  0  0  0  0
   11.1196  -17.1470   23.0953 C   0  0  0  0  0  0  0  0  0  0  0  0
   11.5849  -16.0172   23.4095 O   0  0  0  0  0  0  0  0  0  0  0  0
   10.6777  -20.3498   28.4900 N   0  0  0  0  0  0  0  0  0  0  0  0
   11.6958  -19.6771   27.7724 C   0  0  0  0  0  0  0  0  0  0  0  0
   12.7510  -19.3271   28.3583 O   0  0  0  0  0  0  0  0  0  0  0  0
   11.5173  -19.3976   26.3458 C   0  0  0  0  0  0  0  0  0  0  0  0
   12.3196  -18.2343   25.8947 C   0  0  0  0  0  0  0  0  0  0  0  0
   12.8948  -18.2865   24.5205 C   0  0  2  0  0  0  0  0  0  0  0  0
   11.7489  -18.3062   23.5891 N   0  0  0  0  0  0  0  0  0  0  0  0
   13.8827  -19.2735   24.1879 C   0  0  0  0  0  0  0  0  0  0  0  0
   13.5810  -20.2011   23.1696 O   0  0  0  0  0  0  0  0  0  0  0  0
   15.0103  -19.4095   24.7107 O   0  0  0  0  0  0  0  0  0  0  0  0
  2  1  1  0
  3  2  2  0
  4  3  1  0
  5 11  1  0
  5  4  2  0
  6  5  1  0
  7  6  1  0
  7  8  1  1
  9  7  1  0
  9 10  2  0
 11 12  2  0
 12  2  1  0
 14 13  1  0
 15 16  1  0
 15 14  1  6
 16  9  1  0
 17 15  1  0
 18 17  2  0
 20 19  1  0
 21 20  2  0
 22 20  1  0
 24 23  1  1
 23 22  1  0
 24 25  1  0
 25 17  1  0
 26 24  1  0
 26 27  1  0
 28 26  2  0
M  END
$$$$
