YSQ.pdb
     RDKit          3D

 28 28  0  0  1  0  0  0  0  0999 V2000
    7.5828  -13.2410   15.4548 O   0  0  0  0  0  0  0  0  0  0  0  0
    7.9871  -13.4209   16.7884 C   0  0  0  0  0  0  0  0  0  0  0  0
    7.3486  -12.7489   17.7962 C   0  0  0  0  0  0  0  0  0  0  0  0
    7.7615  -12.9379   19.1157 C   0  0  0  0  0  0  0  0  0  0  0  0
    8.8020  -13.7882   19.4377 C   0  0  0  0  0  0  0  0  0  0  0  0
    9.2575  -14.0068   20.8145 C   0  0  0  0  0  0  0  0  0  0  0  0
    8.9749  -15.4203   21.3023 C   0  0  2  0  0  0  0  0  0  0  0  0
    7.6384  -15.8412   20.9860 N   0  0  0  0  0  0  0  0  0  0  0  0
    9.1652  -15.4219   22.7603 C   0  0  0  0  0  0  0  0  0  0  0  0
   10.2661  -15.1293   23.2525 O   0  0  0  0  0  0  0  0  0  0  0  0
    9.4260  -14.4513   18.4013 C   0  0  0  0  0  0  0  0  0  0  0  0
    9.0281  -14.2759   17.0759 C   0  0  0  0  0  0  0  0  0  0  0  0
    6.0086  -16.5659   25.3803 O   0  0  0  0  0  0  0  0  0  0  0  0
    7.0268  -15.6993   25.7994 C   0  0  0  0  0  0  0  0  0  0  0  0
    8.2876  -15.9543   24.9974 C   0  0  2  0  0  0  0  0  0  0  0  0
    8.0839  -15.7593   23.5970 N   0  0  0  0  0  0  0  0  0  0  0  0
    8.7883  -17.3273   25.2869 C   0  0  0  0  0  0  0  0  0  0  0  0
    8.6090  -18.2815   24.4813 O   0  0  0  0  0  0  0  0  0  0  0  0
   12.5864  -20.0256   23.5785 N   0  0  0  0  0  0  0  0  0  0  0  0
   13.1395  -19.0618   24.4555 C   0  0  0  0  0  0  0  0  0  0  0  0
   14.3035  -18.6300   24.2608 O   0  0  0  0  0  0  0  0  0  0  0  0
   12.3485  -18.5661   25.5841 C   0  0  0  0  0  0  0  0  0  0  0  0
   11.0027  -19.1868   25.6450 C   0  0  0  0  0  0  0  0  0  0  0  0
   10.1416  -18.8497   26.8142 C   0  0  2  0  0  0  0  0  0  0  0  0
    9.4800  -17.5699   26.4897 N   0  0  0  0  0  0  0  0  0  0  0  0
   10.6897  -18.8572   28.1409 C   0  0  0  0  0  0  0  0  0  0  0  0
   11.2492  -20.0581   28.6237 O   0  0  0  0  0  0  0  0  0  0  0  0
   10.7294  -17.8961   28.9396 O   0  0  0  0  0  0  0  0  0  0  0  0
  2  1  1  0
  3  2  2  0
  4  3  1  0
  5 11  1  0
  5  4  2  0
  6  5  1  0
  7  6  1  0
  7  8  1  1
  9  7  1  0
  9 10  2  0
 11 12  2  0
 12  2  1  0
 14 13  1  0
 15 16  1  0
 15 14  1  1
 16  9  1  0
 17 15  1  0
 18 17  2  0
 20 19  1  0
 21 20  2  0
 22 20  1  0
 24 23  1  6
 23 22  1  0
 24 25  1  0
 25 17  1  0
 26 24  1  0
 26 27  1  0
 28 26  2  0
M  END
$$$$
