YSQ.pdb
     RDKit          3D

 28 28  0  0  1  0  0  0  0  0999 V2000
    5.8007  -10.9458   28.5826 O   0  0  0  0  0  0  0  0  0  0  0  0
    6.2937  -11.7734   27.5597 C   0  0  0  0  0  0  0  0  0  0  0  0
    5.5757  -11.9409   26.4058 C   0  0  0  0  0  0  0  0  0  0  0  0
    6.0784  -12.7659   25.3990 C   0  0  0  0  0  0  0  0  0  0  0  0
    7.2866  -13.4231   25.5323 C   0  0  0  0  0  0  0  0  0  0  0  0
    7.8399  -14.2958   24.4916 C   0  0  0  0  0  0  0  0  0  0  0  0
    6.9496  -15.4967   24.2067 C   0  0  2  0  0  0  0  0  0  0  0  0
    6.7582  -16.3129   25.3732 N   0  0  0  0  0  0  0  0  0  0  0  0
    7.6064  -16.2826   23.1517 C   0  0  0  0  0  0  0  0  0  0  0  0
    8.0212  -17.4286   23.3853 O   0  0  0  0  0  0  0  0  0  0  0  0
    7.9873  -13.2350   26.7057 C   0  0  0  0  0  0  0  0  0  0  0  0
    7.5018  -12.4144   27.7239 C   0  0  0  0  0  0  0  0  0  0  0  0
    8.8060  -14.5992   19.3208 O   0  0  0  0  0  0  0  0  0  0  0  0
    8.2529  -15.8766   19.4803 C   0  0  0  0  0  0  0  0  0  0  0  0
    8.5380  -16.3945   20.8762 C   0  0  2  0  0  0  0  0  0  0  0  0
    7.7616  -15.7222   21.8692 N   0  0  0  0  0  0  0  0  0  0  0  0
    9.9964  -16.2793   21.1579 C   0  0  0  0  0  0  0  0  0  0  0  0
   10.4992  -15.2211   21.6260 O   0  0  0  0  0  0  0  0  0  0  0  0
   10.8972  -16.7133   25.5021 N   0  0  0  0  0  0  0  0  0  0  0  0
   11.6228  -17.9288   25.5124 C   0  0  0  0  0  0  0  0  0  0  0  0
   12.2025  -18.3055   26.5618 O   0  0  0  0  0  0  0  0  0  0  0  0
   11.6891  -18.7469   24.2994 C   0  0  0  0  0  0  0  0  0  0  0  0
   10.9997  -18.1094   23.1511 C   0  0  0  0  0  0  0  0  0  0  0  0
   11.7717  -17.9527   21.8857 C   0  0  2  0  0  0  0  0  0  0  0  0
   10.8383  -17.3777   20.8961 N   0  0  0  0  0  0  0  0  0  0  0  0
   12.5164  -19.0579   21.3522 C   0  0  0  0  0  0  0  0  0  0  0  0
   13.9091  -19.0900   21.5704 O   0  0  0  0  0  0  0  0  0  0  0  0
   12.0606  -20.0216   20.6988 O   0  0  0  0  0  0  0  0  0  0  0  0
  2  1  1  0
  3  2  2  0
  4  3  1  0
  5 11  1  0
  5  4  2  0
  6  5  1  0
  7  6  1  0
  7  8  1  1
  9  7  1  0
  9 10  2  0
 11 12  2  0
 12  2  1  0
 14 13  1  0
 15 16  1  0
 15 14  1  6
 16  9  1  0
 17 15  1  0
 18 17  2  0
 20 19  1  0
 21 20  2  0
 22 20  1  0
 24 23  1  1
 23 22  1  0
 24 25  1  0
 25 17  1  0
 26 24  1  0
 26 27  1  0
 28 26  2  0
M  END
$$$$
