YSQ.pdb
     RDKit          3D

 28 28  0  0  1  0  0  0  0  0999 V2000
   17.7194  -14.7866   16.0098 O   0  0  0  0  0  0  0  0  0  0  0  0
   16.7171  -14.7562   16.9941 C   0  0  0  0  0  0  0  0  0  0  0  0
   15.9673  -15.8740   17.2456 C   0  0  0  0  0  0  0  0  0  0  0  0
   14.9756  -15.8284   18.2261 C   0  0  0  0  0  0  0  0  0  0  0  0
   14.7260  -14.6817   18.9556 C   0  0  0  0  0  0  0  0  0  0  0  0
   13.6912  -14.6041   19.9920 C   0  0  0  0  0  0  0  0  0  0  0  0
   12.3366  -15.0910   19.4979 C   0  0  2  0  0  0  0  0  0  0  0  0
   11.6953  -14.1260   18.6488 N   0  0  0  0  0  0  0  0  0  0  0  0
   11.5058  -15.3392   20.6854 C   0  0  0  0  0  0  0  0  0  0  0  0
   11.1462  -14.3988   21.4108 O   0  0  0  0  0  0  0  0  0  0  0  0
   15.4973  -13.5715   18.6801 C   0  0  0  0  0  0  0  0  0  0  0  0
   16.4934  -13.5971   17.7038 C   0  0  0  0  0  0  0  0  0  0  0  0
   10.7143  -19.2686   22.0191 O   0  0  0  0  0  0  0  0  0  0  0  0
    9.6892  -18.3153   22.0796 C   0  0  0  0  0  0  0  0  0  0  0  0
   10.2803  -16.9199   22.1199 C   0  0  2  0  0  0  0  0  0  0  0  0
   11.1198  -16.6578   20.9941 N   0  0  0  0  0  0  0  0  0  0  0  0
   11.0166  -16.7319   23.4014 C   0  0  0  0  0  0  0  0  0  0  0  0
   12.2773  -16.7383   23.4482 O   0  0  0  0  0  0  0  0  0  0  0  0
    9.7356  -13.8269   30.0784 N   0  0  0  0  0  0  0  0  0  0  0  0
    9.5481  -14.1765   28.7195 C   0  0  0  0  0  0  0  0  0  0  0  0
    8.6088  -13.6617   28.0622 O   0  0  0  0  0  0  0  0  0  0  0  0
   10.4556  -15.1334   28.0824 C   0  0  0  0  0  0  0  0  0  0  0  0
   10.0451  -15.4619   26.6953 C   0  0  0  0  0  0  0  0  0  0  0  0
   10.9151  -16.3935   25.9226 C   0  0  2  0  0  0  0  0  0  0  0  0
   10.2899  -16.5419   24.5929 N   0  0  0  0  0  0  0  0  0  0  0  0
   11.3008  -17.6563   26.4859 C   0  0  0  0  0  0  0  0  0  0  0  0
   12.4966  -17.7161   27.2308 O   0  0  0  0  0  0  0  0  0  0  0  0
   10.6824  -18.7387   26.3898 O   0  0  0  0  0  0  0  0  0  0  0  0
  2  1  1  0
  3  2  2  0
  4  3  1  0
  5 11  1  0
  5  4  2  0
  6  5  1  0
  7  6  1  0
  7  8  1  6
  9  7  1  0
  9 10  2  0
 11 12  2  0
 12  2  1  0
 14 13  1  0
 15 16  1  0
 15 14  1  6
 16  9  1  0
 17 15  1  0
 18 17  2  0
 20 19  1  0
 21 20  2  0
 22 20  1  0
 24 23  1  1
 23 22  1  0
 24 25  1  0
 25 17  1  0
 26 24  1  0
 26 27  1  0
 28 26  2  0
M  END
$$$$
