YSQ.pdb
     RDKit          3D

 28 28  0  0  1  0  0  0  0  0999 V2000
    8.1089  -12.1737   17.5621 O   0  0  0  0  0  0  0  0  0  0  0  0
    8.0137  -12.8291   18.8014 C   0  0  0  0  0  0  0  0  0  0  0  0
    9.1288  -13.3794   19.3747 C   0  0  0  0  0  0  0  0  0  0  0  0
    9.0184  -14.0270   20.6057 C   0  0  0  0  0  0  0  0  0  0  0  0
    7.8099  -14.1303   21.2677 C   0  0  0  0  0  0  0  0  0  0  0  0
    7.6636  -14.8043   22.5620 C   0  0  0  0  0  0  0  0  0  0  0  0
    7.9079  -16.3034   22.4671 C   0  0  2  0  0  0  0  0  0  0  0  0
    6.9104  -16.9614   21.6700 N   0  0  0  0  0  0  0  0  0  0  0  0
    7.8798  -16.8348   23.8378 C   0  0  0  0  0  0  0  0  0  0  0  0
    7.0772  -16.3863   24.6713 O   0  0  0  0  0  0  0  0  0  0  0  0
    6.7042  -13.5662   20.6657 C   0  0  0  0  0  0  0  0  0  0  0  0
    6.7939  -12.9146   19.4355 C   0  0  0  0  0  0  0  0  0  0  0  0
   10.5658  -19.8841   25.0021 O   0  0  0  0  0  0  0  0  0  0  0  0
    9.4058  -19.6408   25.7493 C   0  0  0  0  0  0  0  0  0  0  0  0
    8.9678  -18.2003   25.5727 C   0  0  2  0  0  0  0  0  0  0  0  0
    8.7745  -17.8607   24.1987 N   0  0  0  0  0  0  0  0  0  0  0  0
    9.9616  -17.2986   26.2200 C   0  0  0  0  0  0  0  0  0  0  0  0
   10.9986  -16.9121   25.6142 O   0  0  0  0  0  0  0  0  0  0  0  0
    8.2561  -14.5426   25.9664 N   0  0  0  0  0  0  0  0  0  0  0  0
    8.8838  -13.7552   26.9613 C   0  0  0  0  0  0  0  0  0  0  0  0
    9.1964  -12.5633   26.7147 O   0  0  0  0  0  0  0  0  0  0  0  0
    9.1606  -14.3324   28.2787 C   0  0  0  0  0  0  0  0  0  0  0  0
   10.5603  -14.8072   28.4032 C   0  0  0  0  0  0  0  0  0  0  0  0
   10.7901  -16.2800   28.4011 C   0  0  2  0  0  0  0  0  0  0  0  0
    9.7411  -16.8647   27.5417 N   0  0  0  0  0  0  0  0  0  0  0  0
   10.9359  -16.9902   29.6402 C   0  0  0  0  0  0  0  0  0  0  0  0
   10.0560  -18.0604   29.9021 O   0  0  0  0  0  0  0  0  0  0  0  0
   11.7757  -16.7634   30.5383 O   0  0  0  0  0  0  0  0  0  0  0  0
  2  1  1  0
  3  2  2  0
  4  3  1  0
  5 11  1  0
  5  4  2  0
  6  5  1  0
  7  6  1  0
  7  8  1  6
  9  7  1  0
  9 10  2  0
 11 12  2  0
 12  2  1  0
 14 13  1  0
 15 16  1  0
 15 14  1  6
 16  9  1  0
 17 15  1  0
 18 17  2  0
 20 19  1  0
 21 20  2  0
 22 20  1  0
 24 23  1  1
 23 22  1  0
 24 25  1  0
 25 17  1  0
 26 24  1  0
 26 27  1  0
 28 26  2  0
M  END
$$$$
