YSQ.pdb
     RDKit          3D

 28 28  0  0  1  0  0  0  0  0999 V2000
    7.6870  -18.9139   28.5647 O   0  0  0  0  0  0  0  0  0  0  0  0
    7.1830  -18.8952   27.2532 C   0  0  0  0  0  0  0  0  0  0  0  0
    7.0140  -20.0672   26.5656 C   0  0  0  0  0  0  0  0  0  0  0  0
    6.5126  -20.0324   25.2639 C   0  0  0  0  0  0  0  0  0  0  0  0
    6.1793  -18.8433   24.6441 C   0  0  0  0  0  0  0  0  0  0  0  0
    5.6502  -18.7759   23.2779 C   0  0  0  0  0  0  0  0  0  0  0  0
    6.6895  -19.1554   22.2330 C   0  0  2  0  0  0  0  0  0  0  0  0
    7.8010  -19.8585   22.8108 N   0  0  0  0  0  0  0  0  0  0  0  0
    7.1580  -17.9066   21.6141 C   0  0  0  0  0  0  0  0  0  0  0  0
    7.4389  -17.8687   20.4060 O   0  0  0  0  0  0  0  0  0  0  0  0
    6.3604  -17.6790   25.3617 C   0  0  0  0  0  0  0  0  0  0  0  0
    6.8604  -17.6927   26.6639 C   0  0  0  0  0  0  0  0  0  0  0  0
    6.2464  -14.2217   22.9424 O   0  0  0  0  0  0  0  0  0  0  0  0
    6.9218  -14.4288   21.7324 C   0  0  0  0  0  0  0  0  0  0  0  0
    7.9031  -15.5754   21.8759 C   0  0  2  0  0  0  0  0  0  0  0  0
    7.2857  -16.7494   22.4063 N   0  0  0  0  0  0  0  0  0  0  0  0
    9.0529  -15.1396   22.7170 C   0  0  0  0  0  0  0  0  0  0  0  0
    8.9054  -14.3284   23.6719 O   0  0  0  0  0  0  0  0  0  0  0  0
   11.0756  -19.3836   25.5847 N   0  0  0  0  0  0  0  0  0  0  0  0
   11.0346  -18.2419   26.4207 C   0  0  0  0  0  0  0  0  0  0  0  0
   11.2432  -18.3588   27.6544 O   0  0  0  0  0  0  0  0  0  0  0  0
   10.7555  -16.9258   25.8417 C   0  0  0  0  0  0  0  0  0  0  0  0
   10.4599  -16.9999   24.3900 C   0  0  0  0  0  0  0  0  0  0  0  0
   11.2669  -16.1394   23.4787 C   0  0  2  0  0  0  0  0  0  0  0  0
   10.3388  -15.6443   22.4421 N   0  0  0  0  0  0  0  0  0  0  0  0
   12.4941  -16.6312   22.9195 C   0  0  0  0  0  0  0  0  0  0  0  0
   12.4411  -17.2937   21.6758 O   0  0  0  0  0  0  0  0  0  0  0  0
   13.6356  -16.5375   23.4211 O   0  0  0  0  0  0  0  0  0  0  0  0
  2  1  1  0
  3  2  2  0
  4  3  1  0
  5 11  1  0
  5  4  2  0
  6  5  1  0
  7  6  1  0
  7  8  1  1
  9  7  1  0
  9 10  2  0
 11 12  2  0
 12  2  1  0
 14 13  1  0
 15 16  1  0
 15 14  1  1
 16  9  1  0
 17 15  1  0
 18 17  2  0
 20 19  1  0
 21 20  2  0
 22 20  1  0
 24 23  1  6
 23 22  1  0
 24 25  1  0
 25 17  1  0
 26 24  1  0
 26 27  1  0
 28 26  2  0
M  END
$$$$
