YSQ.pdb
     RDKit          3D

 28 28  0  0  1  0  0  0  0  0999 V2000
    5.5700  -10.3797   26.9279 O   0  0  0  0  0  0  0  0  0  0  0  0
    6.2032  -11.5354   26.4402 C   0  0  0  0  0  0  0  0  0  0  0  0
    6.8677  -11.5013   25.2434 C   0  0  0  0  0  0  0  0  0  0  0  0
    7.4916  -12.6570   24.7722 C   0  0  0  0  0  0  0  0  0  0  0  0
    7.4588  -13.8423   25.4816 C   0  0  0  0  0  0  0  0  0  0  0  0
    8.1052  -15.0721   25.0118 C   0  0  0  0  0  0  0  0  0  0  0  0
    7.1413  -15.9896   24.2736 C   0  0  2  0  0  0  0  0  0  0  0  0
    6.4963  -16.9174   25.1605 N   0  0  0  0  0  0  0  0  0  0  0  0
    7.9249  -16.7239   23.2693 C   0  0  0  0  0  0  0  0  0  0  0  0
    8.4012  -17.8388   23.5334 O   0  0  0  0  0  0  0  0  0  0  0  0
    6.7820  -13.8461   26.6837 C   0  0  0  0  0  0  0  0  0  0  0  0
    6.1519  -12.7013   27.1718 C   0  0  0  0  0  0  0  0  0  0  0  0
    8.2412  -14.8947   19.7965 O   0  0  0  0  0  0  0  0  0  0  0  0
    9.0835  -16.0137   19.7537 C   0  0  0  0  0  0  0  0  0  0  0  0
    9.0854  -16.7131   21.0987 C   0  0  2  0  0  0  0  0  0  0  0  0
    8.1313  -16.1494   22.0002 N   0  0  0  0  0  0  0  0  0  0  0  0
   10.4601  -16.6785   21.6719 C   0  0  0  0  0  0  0  0  0  0  0  0
   10.8588  -15.7131   22.3794 O   0  0  0  0  0  0  0  0  0  0  0  0
   11.2468  -20.5995   25.7472 N   0  0  0  0  0  0  0  0  0  0  0  0
   11.8952  -19.3506   25.9019 C   0  0  0  0  0  0  0  0  0  0  0  0
   11.8460  -18.7495   27.0043 O   0  0  0  0  0  0  0  0  0  0  0  0
   12.6276  -18.7667   24.7759 C   0  0  0  0  0  0  0  0  0  0  0  0
   11.8120  -18.7167   23.5380 C   0  0  0  0  0  0  0  0  0  0  0  0
   12.4447  -18.1354   22.3200 C   0  0  2  0  0  0  0  0  0  0  0  0
   11.3396  -17.7493   21.4196 N   0  0  0  0  0  0  0  0  0  0  0  0
   13.4810  -18.8522   21.6322 C   0  0  0  0  0  0  0  0  0  0  0  0
   14.8141  -18.6592   22.0494 O   0  0  0  0  0  0  0  0  0  0  0  0
   13.3344  -19.6494   20.6802 O   0  0  0  0  0  0  0  0  0  0  0  0
  2  1  1  0
  3  2  2  0
  4  3  1  0
  5 11  1  0
  5  4  2  0
  6  5  1  0
  7  6  1  0
  7  8  1  1
  9  7  1  0
  9 10  2  0
 11 12  2  0
 12  2  1  0
 14 13  1  0
 15 16  1  0
 15 14  1  6
 16  9  1  0
 17 15  1  0
 18 17  2  0
 20 19  1  0
 21 20  2  0
 22 20  1  0
 24 23  1  1
 23 22  1  0
 24 25  1  0
 25 17  1  0
 26 24  1  0
 26 27  1  0
 28 26  2  0
M  END
$$$$
