YSQ.pdb
     RDKit          3D

 28 28  0  0  1  0  0  0  0  0999 V2000
    7.6191  -12.0951   17.1275 O   0  0  0  0  0  0  0  0  0  0  0  0
    7.7606  -12.7860   18.3428 C   0  0  0  0  0  0  0  0  0  0  0  0
    8.9834  -13.2766   18.7155 C   0  0  0  0  0  0  0  0  0  0  0  0
    9.1083  -13.9606   19.9253 C   0  0  0  0  0  0  0  0  0  0  0  0
    8.0280  -14.1589   20.7638 C   0  0  0  0  0  0  0  0  0  0  0  0
    8.1289  -14.8732   22.0407 C   0  0  0  0  0  0  0  0  0  0  0  0
    9.4461  -15.6217   22.1851 C   0  0  2  0  0  0  0  0  0  0  0  0
    9.6542  -16.5554   21.1135 N   0  0  0  0  0  0  0  0  0  0  0  0
    9.3987  -16.3388   23.4678 C   0  0  0  0  0  0  0  0  0  0  0  0
    8.9704  -15.7774   24.4882 O   0  0  0  0  0  0  0  0  0  0  0  0
    6.8090  -13.6532   20.3617 C   0  0  0  0  0  0  0  0  0  0  0  0
    6.6638  -12.9667   19.1561 C   0  0  0  0  0  0  0  0  0  0  0  0
   11.4558  -19.9389   23.9710 O   0  0  0  0  0  0  0  0  0  0  0  0
   10.2047  -19.8427   24.5948 C   0  0  0  0  0  0  0  0  0  0  0  0
    9.8218  -18.3860   24.7671 C   0  0  2  0  0  0  0  0  0  0  0  0
    9.8451  -17.6730   23.5294 N   0  0  0  0  0  0  0  0  0  0  0  0
   10.7201  -17.7547   25.7741 C   0  0  0  0  0  0  0  0  0  0  0  0
   11.8585  -17.3105   25.4604 O   0  0  0  0  0  0  0  0  0  0  0  0
    9.4822  -13.4365   29.3472 N   0  0  0  0  0  0  0  0  0  0  0  0
    9.3482  -13.7825   27.9811 C   0  0  0  0  0  0  0  0  0  0  0  0
    8.7336  -13.0170   27.1965 O   0  0  0  0  0  0  0  0  0  0  0  0
    9.9333  -15.0305   27.4857 C   0  0  0  0  0  0  0  0  0  0  0  0
   10.6264  -15.7911   28.5541 C   0  0  0  0  0  0  0  0  0  0  0  0
   11.1398  -17.1477   28.2107 C   0  0  2  0  0  0  0  0  0  0  0  0
   10.2906  -17.6492   27.1114 N   0  0  0  0  0  0  0  0  0  0  0  0
   11.3318  -18.1295   29.2403 C   0  0  0  0  0  0  0  0  0  0  0  0
   12.2466  -17.8406   30.2738 O   0  0  0  0  0  0  0  0  0  0  0  0
   10.7665  -19.2411   29.3292 O   0  0  0  0  0  0  0  0  0  0  0  0
  2  1  1  0
  3  2  2  0
  4  3  1  0
  5 11  1  0
  5  4  2  0
  6  5  1  0
  7  6  1  0
  7  8  1  6
  9  7  1  0
  9 10  2  0
 11 12  2  0
 12  2  1  0
 14 13  1  0
 15 16  1  0
 15 14  1  6
 16  9  1  0
 17 15  1  0
 18 17  2  0
 20 19  1  0
 21 20  2  0
 22 20  1  0
 24 23  1  1
 23 22  1  0
 24 25  1  0
 25 17  1  0
 26 24  1  0
 26 27  1  0
 28 26  2  0
M  END
$$$$
