YSQ.pdb
     RDKit          3D

 28 28  0  0  1  0  0  0  0  0999 V2000
    8.6314  -12.2146   17.8073 O   0  0  0  0  0  0  0  0  0  0  0  0
    8.2023  -12.9364   18.9340 C   0  0  0  0  0  0  0  0  0  0  0  0
    6.9156  -12.8062   19.3839 C   0  0  0  0  0  0  0  0  0  0  0  0
    6.5043  -13.5295   20.5041 C   0  0  0  0  0  0  0  0  0  0  0  0
    7.3619  -14.3784   21.1772 C   0  0  0  0  0  0  0  0  0  0  0  0
    6.9580  -15.1511   22.3564 C   0  0  0  0  0  0  0  0  0  0  0  0
    6.8211  -16.6372   22.0583 C   0  0  2  0  0  0  0  0  0  0  0  0
    5.6129  -16.9324   21.3396 N   0  0  0  0  0  0  0  0  0  0  0  0
    6.8163  -17.3397   23.3499 C   0  0  0  0  0  0  0  0  0  0  0  0
    5.8708  -17.1977   24.1411 O   0  0  0  0  0  0  0  0  0  0  0  0
    8.6519  -14.4889   20.7006 C   0  0  0  0  0  0  0  0  0  0  0  0
    9.0823  -13.7744   19.5826 C   0  0  0  0  0  0  0  0  0  0  0  0
    9.0268  -20.7066   24.2679 O   0  0  0  0  0  0  0  0  0  0  0  0
    8.0297  -20.1700   25.0934 C   0  0  0  0  0  0  0  0  0  0  0  0
    8.0554  -18.6560   25.0204 C   0  0  2  0  0  0  0  0  0  0  0  0
    7.8973  -18.1785   23.6833 N   0  0  0  0  0  0  0  0  0  0  0  0
    9.3180  -18.1530   25.6306 C   0  0  0  0  0  0  0  0  0  0  0  0
   10.1769  -17.5246   24.9530 O   0  0  0  0  0  0  0  0  0  0  0  0
   10.3754  -13.8924   26.5074 N   0  0  0  0  0  0  0  0  0  0  0  0
   10.2231  -14.1253   27.8954 C   0  0  0  0  0  0  0  0  0  0  0  0
    9.8822  -13.1852   28.6565 O   0  0  0  0  0  0  0  0  0  0  0  0
   10.4574  -15.4653   28.4383 C   0  0  0  0  0  0  0  0  0  0  0  0
   10.8643  -16.4344   27.3916 C   0  0  0  0  0  0  0  0  0  0  0  0
   10.7531  -17.8850   27.7163 C   0  0  2  0  0  0  0  0  0  0  0  0
    9.5624  -18.3830   26.9985 N   0  0  0  0  0  0  0  0  0  0  0  0
   10.7873  -18.3241   29.0826 C   0  0  0  0  0  0  0  0  0  0  0  0
    9.6060  -18.8534   29.6419 O   0  0  0  0  0  0  0  0  0  0  0  0
   11.7700  -18.2908   29.8549 O   0  0  0  0  0  0  0  0  0  0  0  0
  2  1  1  0
  3  2  2  0
  4  3  1  0
  5 11  1  0
  5  4  2  0
  6  5  1  0
  7  6  1  0
  7  8  1  1
  9  7  1  0
  9 10  2  0
 11 12  2  0
 12  2  1  0
 14 13  1  0
 15 16  1  0
 15 14  1  6
 16  9  1  0
 17 15  1  0
 18 17  2  0
 20 19  1  0
 21 20  2  0
 22 20  1  0
 24 23  1  1
 23 22  1  0
 24 25  1  0
 25 17  1  0
 26 24  1  0
 26 27  1  0
 28 26  2  0
M  END
$$$$
