WFW.pdb
     RDKit          3D

 40 44  0  0  1  0  0  0  0  0999 V2000
   28.3882  -23.4604  -10.3274 N   0  0  0  0  0  0  0  0  0  0  0  0
   28.2982  -22.0222  -10.2810 C   0  0  1  0  0  0  0  0  0  0  0  0
   28.4286  -21.5037  -11.7054 C   0  0  0  0  0  0  0  0  0  0  0  0
   29.8230  -21.5538  -12.1705 C   0  0  0  0  0  0  0  0  0  0  0  0
   30.2319  -21.1220  -13.4345 C   0  0  0  0  0  0  0  0  0  0  0  0
   31.5549  -21.2985  -13.5419 N   0  0  0  0  0  0  0  0  0  0  0  0
   32.0340  -21.8311  -12.3944 C   0  0  0  0  0  0  0  0  0  0  0  0
   33.3159  -22.1819  -12.0385 C   0  0  0  0  0  0  0  0  0  0  0  0
   33.4947  -22.7116  -10.7687 C   0  0  0  0  0  0  0  0  0  0  0  0
   32.4300  -22.8810   -9.8945 C   0  0  0  0  0  0  0  0  0  0  0  0
   31.1530  -22.5223  -10.2723 C   0  0  0  0  0  0  0  0  0  0  0  0
   30.9622  -21.9941  -11.5335 C   0  0  0  0  0  0  0  0  0  0  0  0
   26.9973  -21.6348   -9.6927 C   0  0  0  0  0  0  0  0  0  0  0  0
   25.9993  -22.4158   -9.7202 O   0  0  0  0  0  0  0  0  0  0  0  0
   26.8611  -20.3663   -9.0847 N   0  0  0  0  0  0  0  0  0  0  0  0
   25.6617  -19.9847   -8.3726 C   0  0  1  0  0  0  0  0  0  0  0  0
   25.8747  -18.8396   -7.4569 C   0  0  0  0  0  0  0  0  0  0  0  0
   26.8481  -19.1789   -6.3895 C   0  0  0  0  0  0  0  0  0  0  0  0
   27.8770  -18.3282   -6.0659 C   0  0  0  0  0  0  0  0  0  0  0  0
   28.7701  -18.6697   -5.0617 C   0  0  0  0  0  0  0  0  0  0  0  0
   28.6612  -19.8605   -4.3591 C   0  0  0  0  0  0  0  0  0  0  0  0
   27.6290  -20.7029   -4.6912 C   0  0  0  0  0  0  0  0  0  0  0  0
   26.7331  -20.3664   -5.6942 C   0  0  0  0  0  0  0  0  0  0  0  0
   24.5631  -19.8059   -9.3387 C   0  0  0  0  0  0  0  0  0  0  0  0
   23.4097  -19.5569   -8.9164 O   0  0  0  0  0  0  0  0  0  0  0  0
   24.7057  -19.8955  -10.7488 N   0  0  0  0  0  0  0  0  0  0  0  0
   23.6018  -19.6752  -11.6629 C   0  0  1  0  0  0  0  0  0  0  0  0
   24.1283  -19.7217  -13.0813 C   0  0  0  0  0  0  0  0  0  0  0  0
   23.0687  -19.4388  -14.0714 C   0  0  0  0  0  0  0  0  0  0  0  0
   22.5767  -18.2003  -14.4230 C   0  0  0  0  0  0  0  0  0  0  0  0
   21.6352  -18.4051  -15.3596 N   0  0  0  0  0  0  0  0  0  0  0  0
   21.5192  -19.7336  -15.6083 C   0  0  0  0  0  0  0  0  0  0  0  0
   20.7279  -20.5014  -16.4521 C   0  0  0  0  0  0  0  0  0  0  0  0
   20.8192  -21.8742  -16.4992 C   0  0  0  0  0  0  0  0  0  0  0  0
   21.7304  -22.5186  -15.6787 C   0  0  0  0  0  0  0  0  0  0  0  0
   22.5339  -21.7916  -14.8273 C   0  0  0  0  0  0  0  0  0  0  0  0
   22.4139  -20.4027  -14.8065 C   0  0  0  0  0  0  0  0  0  0  0  0
   22.5464  -20.7182  -11.4833 C   0  0  0  0  0  0  0  0  0  0  0  0
   22.9563  -21.9969  -11.1524 O   0  0  0  0  0  0  0  0  0  0  0  0
   21.3186  -20.5049  -11.6140 O   0  0  0  0  0  0  0  0  0  0  0  0
  2  1  1  6
  2  3  1  0
  4  3  1  0
  5  4  2  0
  6  5  1  0
  7  6  1  0
  7 12  2  0
  8  7  1  0
  9  8  2  0
  9 10  1  0
 10 11  2  0
 11 12  1  0
 12  4  1  0
 13 15  1  0
 13  2  1  0
 14 13  2  0
 16 24  1  0
 16 17  1  6
 16 15  1  0
 18 17  1  0
 18 23  1  0
 19 18  2  0
 20 19  1  0
 20 21  2  0
 21 22  1  0
 22 23  2  0
 24 25  2  0
 26 27  1  0
 26 24  1  0
 27 38  1  0
 27 28  1  6
 29 30  2  0
 29 28  1  0
 31 30  1  0
 32 37  2  0
 32 31  1  0
 33 32  1  0
 34 33  2  0
 34 35  1  0
 35 36  2  0
 36 37  1  0
 37 29  1  0
 38 40  2  0
 38 39  1  0
M  END
$$$$
