WFW.pdb
     RDKit          3D

 40 44  0  0  1  0  0  0  0  0999 V2000
   17.8641  -16.7160    6.3314 N   0  0  0  0  0  0  0  0  0  0  0  0
   17.0679  -17.5510    5.4668 C   0  0  1  0  0  0  0  0  0  0  0  0
   17.5450  -17.3279    4.0395 C   0  0  0  0  0  0  0  0  0  0  0  0
   17.1618  -15.9963    3.5462 C   0  0  0  0  0  0  0  0  0  0  0  0
   18.0594  -14.9344    3.4117 C   0  0  0  0  0  0  0  0  0  0  0  0
   17.3985  -13.8704    2.9381 N   0  0  0  0  0  0  0  0  0  0  0  0
   16.0973  -14.1917    2.7552 C   0  0  0  0  0  0  0  0  0  0  0  0
   15.0464  -13.4351    2.2902 C   0  0  0  0  0  0  0  0  0  0  0  0
   13.8084  -14.0565    2.2125 C   0  0  0  0  0  0  0  0  0  0  0  0
   13.6349  -15.3820    2.5863 C   0  0  0  0  0  0  0  0  0  0  0  0
   14.7026  -16.1219    3.0495 C   0  0  0  0  0  0  0  0  0  0  0  0
   15.9398  -15.5146    3.1315 C   0  0  0  0  0  0  0  0  0  0  0  0
   17.2356  -18.9653    5.8671 C   0  0  0  0  0  0  0  0  0  0  0  0
   18.3508  -19.5574    5.7551 O   0  0  0  0  0  0  0  0  0  0  0  0
   16.1296  -19.6749    6.3871 N   0  0  0  0  0  0  0  0  0  0  0  0
   16.2271  -21.0643    6.7763 C   0  0  1  0  0  0  0  0  0  0  0  0
   15.2276  -21.4474    7.8007 C   0  0  0  0  0  0  0  0  0  0  0  0
   15.3019  -22.8972    8.1084 C   0  0  0  0  0  0  0  0  0  0  0  0
   16.2945  -23.4060    8.9103 C   0  0  0  0  0  0  0  0  0  0  0  0
   16.3376  -24.7647    9.1835 C   0  0  0  0  0  0  0  0  0  0  0  0
   15.3986  -25.6453    8.6675 C   0  0  0  0  0  0  0  0  0  0  0  0
   14.4112  -25.1254    7.8674 C   0  0  0  0  0  0  0  0  0  0  0  0
   14.3632  -23.7678    7.5910 C   0  0  0  0  0  0  0  0  0  0  0  0
   16.2241  -21.9058    5.5664 C   0  0  0  0  0  0  0  0  0  0  0  0
   15.2901  -21.7868    4.7392 O   0  0  0  0  0  0  0  0  0  0  0  0
   17.2191  -22.8685    5.2502 N   0  0  0  0  0  0  0  0  0  0  0  0
   17.1477  -23.7101    4.0716 C   0  0  1  0  0  0  0  0  0  0  0  0
   17.9751  -23.0785    2.9725 C   0  0  0  0  0  0  0  0  0  0  0  0
   17.9746  -23.8982    1.7431 C   0  0  0  0  0  0  0  0  0  0  0  0
   16.9271  -24.0666    0.8635 C   0  0  0  0  0  0  0  0  0  0  0  0
   17.3632  -24.8804   -0.1127 N   0  0  0  0  0  0  0  0  0  0  0  0
   18.6523  -25.2296    0.1250 C   0  0  0  0  0  0  0  0  0  0  0  0
   19.5818  -26.0280   -0.5279 C   0  0  0  0  0  0  0  0  0  0  0  0
   20.8578  -26.2156   -0.0465 C   0  0  0  0  0  0  0  0  0  0  0  0
   21.2344  -25.5889    1.1300 C   0  0  0  0  0  0  0  0  0  0  0  0
   20.3404  -24.7882    1.8075 C   0  0  0  0  0  0  0  0  0  0  0  0
   19.0565  -24.6211    1.2901 C   0  0  0  0  0  0  0  0  0  0  0  0
   17.6640  -25.0815    4.3654 C   0  0  0  0  0  0  0  0  0  0  0  0
   16.9915  -26.1543    3.8089 O   0  0  0  0  0  0  0  0  0  0  0  0
   18.6643  -25.3169    5.0824 O   0  0  0  0  0  0  0  0  0  0  0  0
  2  1  1  1
  2  3  1  0
  4  3  1  0
  5  4  2  0
  6  5  1  0
  7  6  1  0
  7 12  2  0
  8  7  1  0
  9  8  2  0
  9 10  1  0
 10 11  2  0
 11 12  1  0
 12  4  1  0
 13 15  1  0
 13  2  1  0
 14 13  2  0
 16 24  1  0
 16 17  1  1
 16 15  1  0
 18 17  1  0
 18 23  1  0
 19 18  2  0
 20 19  1  0
 20 21  2  0
 21 22  1  0
 22 23  2  0
 24 25  2  0
 26 27  1  0
 26 24  1  0
 27 38  1  0
 27 28  1  6
 29 30  2  0
 29 28  1  0
 31 30  1  0
 32 37  2  0
 32 31  1  0
 33 32  1  0
 34 33  2  0
 34 35  1  0
 35 36  2  0
 36 37  1  0
 37 29  1  0
 38 40  2  0
 38 39  1  0
M  END
$$$$
