WFW.pdb
     RDKit          3D

 40 44  0  0  1  0  0  0  0  0999 V2000
   26.0637  -16.2555  -18.4538 N   0  0  0  0  0  0  0  0  0  0  0  0
   26.5430  -16.4806  -17.1128 C   0  0  1  0  0  0  0  0  0  0  0  0
   26.1517  -15.2743  -16.2723 C   0  0  0  0  0  0  0  0  0  0  0  0
   27.0755  -14.1494  -16.4831 C   0  0  0  0  0  0  0  0  0  0  0  0
   26.6923  -12.8087  -16.3988 C   0  0  0  0  0  0  0  0  0  0  0  0
   27.7621  -12.0399  -16.6390 N   0  0  0  0  0  0  0  0  0  0  0  0
   28.8375  -12.8249  -16.8786 C   0  0  0  0  0  0  0  0  0  0  0  0
   30.1406  -12.4918  -17.1686 C   0  0  0  0  0  0  0  0  0  0  0  0
   31.0299  -13.5385  -17.3647 C   0  0  0  0  0  0  0  0  0  0  0  0
   30.6258  -14.8633  -17.2731 C   0  0  0  0  0  0  0  0  0  0  0  0
   29.3142  -15.1742  -16.9811 C   0  0  0  0  0  0  0  0  0  0  0  0
   28.4197  -14.1412  -16.7838 C   0  0  0  0  0  0  0  0  0  0  0  0
   25.9335  -17.7186  -16.5796 C   0  0  0  0  0  0  0  0  0  0  0  0
   24.8158  -18.1416  -17.0023 O   0  0  0  0  0  0  0  0  0  0  0  0
   26.6104  -18.4491  -15.5769 N   0  0  0  0  0  0  0  0  0  0  0  0
   26.0695  -19.6712  -15.0246 C   0  0  1  0  0  0  0  0  0  0  0  0
   27.0996  -20.5163  -14.3766 C   0  0  0  0  0  0  0  0  0  0  0  0
   26.4950  -21.7242  -13.7619 C   0  0  0  0  0  0  0  0  0  0  0  0
   26.1837  -22.8287  -14.5168 C   0  0  0  0  0  0  0  0  0  0  0  0
   25.6223  -23.9448  -13.9152 C   0  0  0  0  0  0  0  0  0  0  0  0
   25.3586  -23.9879  -12.5543 C   0  0  0  0  0  0  0  0  0  0  0  0
   25.6739  -22.8780  -11.8098 C   0  0  0  0  0  0  0  0  0  0  0  0
   26.2354  -21.7596  -12.4061 C   0  0  0  0  0  0  0  0  0  0  0  0
   24.9131  -19.3448  -14.1711 C   0  0  0  0  0  0  0  0  0  0  0  0
   25.0786  -18.6107  -13.1689 O   0  0  0  0  0  0  0  0  0  0  0  0
   23.5888  -19.8061  -14.3951 N   0  0  0  0  0  0  0  0  0  0  0  0
   22.5420  -19.6951  -13.3979 C   0  0  1  0  0  0  0  0  0  0  0  0
   21.2740  -19.2203  -14.0748 C   0  0  0  0  0  0  0  0  0  0  0  0
   20.1565  -19.0850  -13.1177 C   0  0  0  0  0  0  0  0  0  0  0  0
   19.9589  -18.0591  -12.2189 C   0  0  0  0  0  0  0  0  0  0  0  0
   18.8218  -18.3326  -11.5572 N   0  0  0  0  0  0  0  0  0  0  0  0
   18.2978  -19.4985  -12.0113 C   0  0  0  0  0  0  0  0  0  0  0  0
   17.1707  -20.2470  -11.6995 C   0  0  0  0  0  0  0  0  0  0  0  0
   16.8750  -21.4315  -12.3356 C   0  0  0  0  0  0  0  0  0  0  0  0
   17.7275  -21.8989  -13.3223 C   0  0  0  0  0  0  0  0  0  0  0  0
   18.8564  -21.1846  -13.6605 C   0  0  0  0  0  0  0  0  0  0  0  0
   19.1240  -19.9890  -12.9951 C   0  0  0  0  0  0  0  0  0  0  0  0
   22.2962  -21.0125  -12.7361 C   0  0  0  0  0  0  0  0  0  0  0  0
   22.0176  -21.0092  -11.3814 O   0  0  0  0  0  0  0  0  0  0  0  0
   22.3275  -22.1145  -13.3317 O   0  0  0  0  0  0  0  0  0  0  0  0
  2  1  1  6
  2  3  1  0
  4  3  1  0
  5  4  2  0
  6  5  1  0
  7  6  1  0
  7 12  2  0
  8  7  1  0
  9  8  2  0
  9 10  1  0
 10 11  2  0
 11 12  1  0
 12  4  1  0
 13 15  1  0
 13  2  1  0
 14 13  2  0
 16 24  1  0
 16 17  1  1
 16 15  1  0
 18 17  1  0
 18 23  1  0
 19 18  2  0
 20 19  1  0
 20 21  2  0
 21 22  1  0
 22 23  2  0
 24 25  2  0
 26 27  1  0
 26 24  1  0
 27 38  1  0
 27 28  1  6
 29 30  2  0
 29 28  1  0
 31 30  1  0
 32 37  2  0
 32 31  1  0
 33 32  1  0
 34 33  2  0
 34 35  1  0
 35 36  2  0
 36 37  1  0
 37 29  1  0
 38 40  2  0
 38 39  1  0
M  END
$$$$
