WFW.pdb
     RDKit          3D

 40 44  0  0  1  0  0  0  0  0999 V2000
   24.3759  -18.1823  -15.9568 N   0  0  0  0  0  0  0  0  0  0  0  0
   25.2128  -18.3285  -14.7919 C   0  0  1  0  0  0  0  0  0  0  0  0
   25.9175  -17.0006  -14.5581 C   0  0  0  0  0  0  0  0  0  0  0  0
   26.9088  -16.7254  -15.6092 C   0  0  0  0  0  0  0  0  0  0  0  0
   26.8674  -15.5991  -16.4345 C   0  0  0  0  0  0  0  0  0  0  0  0
   27.9073  -15.6450  -17.2769 N   0  0  0  0  0  0  0  0  0  0  0  0
   28.6335  -16.7610  -17.0374 C   0  0  0  0  0  0  0  0  0  0  0  0
   29.7772  -17.2302  -17.6415 C   0  0  0  0  0  0  0  0  0  0  0  0
   30.2967  -18.4251  -17.1649 C   0  0  0  0  0  0  0  0  0  0  0  0
   29.6919  -19.1183  -16.1255 C   0  0  0  0  0  0  0  0  0  0  0  0
   28.5458  -18.6292  -15.5343 C   0  0  0  0  0  0  0  0  0  0  0  0
   28.0191  -17.4410  -15.9998 C   0  0  0  0  0  0  0  0  0  0  0  0
   24.3715  -18.6940  -13.6312 C   0  0  0  0  0  0  0  0  0  0  0  0
   23.4342  -17.9411  -13.2295 O   0  0  0  0  0  0  0  0  0  0  0  0
   24.6152  -19.9097  -12.9531 N   0  0  0  0  0  0  0  0  0  0  0  0
   24.0829  -20.1693  -11.6338 C   0  0  1  0  0  0  0  0  0  0  0  0
   22.9412  -21.1135  -11.6485 C   0  0  0  0  0  0  0  0  0  0  0  0
   21.6911  -20.4387  -12.0773 C   0  0  0  0  0  0  0  0  0  0  0  0
   21.3035  -20.4258  -13.3951 C   0  0  0  0  0  0  0  0  0  0  0  0
   20.1286  -19.7901  -13.7667 C   0  0  0  0  0  0  0  0  0  0  0  0
   19.3154  -19.1549  -12.8401 C   0  0  0  0  0  0  0  0  0  0  0  0
   19.7128  -19.1742  -11.5259 C   0  0  0  0  0  0  0  0  0  0  0  0
   20.8864  -19.8084  -11.1488 C   0  0  0  0  0  0  0  0  0  0  0  0
   25.1866  -20.5498  -10.7343 C   0  0  0  0  0  0  0  0  0  0  0  0
   26.3429  -20.6744  -11.2013 O   0  0  0  0  0  0  0  0  0  0  0  0
   25.0457  -20.7947   -9.3425 N   0  0  0  0  0  0  0  0  0  0  0  0
   26.1583  -21.1897   -8.5006 C   0  0  1  0  0  0  0  0  0  0  0  0
   27.2146  -20.1066   -8.5510 C   0  0  0  0  0  0  0  0  0  0  0  0
   28.3858  -20.4407   -7.7145 C   0  0  0  0  0  0  0  0  0  0  0  0
   29.4305  -21.2740   -8.0518 C   0  0  0  0  0  0  0  0  0  0  0  0
   30.2749  -21.2850   -7.0066 N   0  0  0  0  0  0  0  0  0  0  0  0
   29.7944  -20.4849   -6.0222 C   0  0  0  0  0  0  0  0  0  0  0  0
   30.2334  -20.1300   -4.7537 C   0  0  0  0  0  0  0  0  0  0  0  0
   29.5231  -19.2747   -3.9419 C   0  0  0  0  0  0  0  0  0  0  0  0
   28.3276  -18.7460   -4.4002 C   0  0  0  0  0  0  0  0  0  0  0  0
   27.8582  -19.0740   -5.6537 C   0  0  0  0  0  0  0  0  0  0  0  0
   28.6044  -19.9433   -6.4484 C   0  0  0  0  0  0  0  0  0  0  0  0
   25.7113  -21.3915   -7.0888 C   0  0  0  0  0  0  0  0  0  0  0  0
   26.4214  -22.2884   -6.3117 O   0  0  0  0  0  0  0  0  0  0  0  0
   24.7363  -20.8001   -6.5693 O   0  0  0  0  0  0  0  0  0  0  0  0
  2  1  1  6
  2  3  1  0
  4  3  1  0
  5  4  2  0
  6  5  1  0
  7  6  1  0
  7 12  2  0
  8  7  1  0
  9  8  2  0
  9 10  1  0
 10 11  2  0
 11 12  1  0
 12  4  1  0
 13 15  1  0
 13  2  1  0
 14 13  2  0
 16 24  1  0
 16 17  1  6
 16 15  1  0
 18 17  1  0
 18 23  1  0
 19 18  2  0
 20 19  1  0
 20 21  2  0
 21 22  1  0
 22 23  2  0
 24 25  2  0
 26 27  1  0
 26 24  1  0
 27 38  1  0
 27 28  1  1
 29 30  2  0
 29 28  1  0
 31 30  1  0
 32 37  2  0
 32 31  1  0
 33 32  1  0
 34 33  2  0
 34 35  1  0
 35 36  2  0
 36 37  1  0
 37 29  1  0
 38 40  2  0
 38 39  1  0
M  END
$$$$
