WFW.pdb
     RDKit          3D

 40 44  0  0  1  0  0  0  0  0999 V2000
   26.3020  -19.6651  -14.3036 N   0  0  0  0  0  0  0  0  0  0  0  0
   25.1562  -20.2583  -13.6603 C   0  0  1  0  0  0  0  0  0  0  0  0
   24.4880  -21.1840  -14.6659 C   0  0  0  0  0  0  0  0  0  0  0  0
   24.1954  -20.4866  -15.9273 C   0  0  0  0  0  0  0  0  0  0  0  0
   24.7095  -20.8803  -17.1651 C   0  0  0  0  0  0  0  0  0  0  0  0
   24.2528  -20.0440  -18.1059 N   0  0  0  0  0  0  0  0  0  0  0  0
   23.4557  -19.1127  -17.5337 C   0  0  0  0  0  0  0  0  0  0  0  0
   22.7673  -18.0603  -18.0920 C   0  0  0  0  0  0  0  0  0  0  0  0
   22.0209  -17.2682  -17.2315 C   0  0  0  0  0  0  0  0  0  0  0  0
   21.9693  -17.5236  -15.8681 C   0  0  0  0  0  0  0  0  0  0  0  0
   22.6674  -18.5844  -15.3299 C   0  0  0  0  0  0  0  0  0  0  0  0
   23.4138  -19.3800  -16.1761 C   0  0  0  0  0  0  0  0  0  0  0  0
   25.6027  -21.0073  -12.4652 C   0  0  0  0  0  0  0  0  0  0  0  0
   25.1093  -22.1367  -12.1689 O   0  0  0  0  0  0  0  0  0  0  0  0
   26.6024  -20.4543  -11.6333 N   0  0  0  0  0  0  0  0  0  0  0  0
   26.8171  -20.9216  -10.2817 C   0  0  1  0  0  0  0  0  0  0  0  0
   28.1767  -20.6194   -9.7765 C   0  0  0  0  0  0  0  0  0  0  0  0
   28.1804  -20.4691   -8.3002 C   0  0  0  0  0  0  0  0  0  0  0  0
   27.6807  -19.3405   -7.6971 C   0  0  0  0  0  0  0  0  0  0  0  0
   27.6942  -19.2284   -6.3151 C   0  0  0  0  0  0  0  0  0  0  0  0
   28.2030  -20.2319   -5.5042 C   0  0  0  0  0  0  0  0  0  0  0  0
   28.6997  -21.3553   -6.1181 C   0  0  0  0  0  0  0  0  0  0  0  0
   28.6886  -21.4727   -7.4994 C   0  0  0  0  0  0  0  0  0  0  0  0
   25.7192  -20.4400   -9.4245 C   0  0  0  0  0  0  0  0  0  0  0  0
   25.3891  -19.2319   -9.4719 O   0  0  0  0  0  0  0  0  0  0  0  0
   24.9831  -21.2533   -8.5226 N   0  0  0  0  0  0  0  0  0  0  0  0
   23.9691  -20.7182   -7.6349 C   0  0  1  0  0  0  0  0  0  0  0  0
   22.8728  -20.0924   -8.4703 C   0  0  0  0  0  0  0  0  0  0  0  0
   21.9815  -21.1117   -9.0617 C   0  0  0  0  0  0  0  0  0  0  0  0
   21.2191  -22.0366   -8.3814 C   0  0  0  0  0  0  0  0  0  0  0  0
   20.5597  -22.7554   -9.3055 N   0  0  0  0  0  0  0  0  0  0  0  0
   20.8832  -22.3121  -10.5460 C   0  0  0  0  0  0  0  0  0  0  0  0
   20.5179  -22.6734  -11.8359 C   0  0  0  0  0  0  0  0  0  0  0  0
   21.0186  -22.0354  -12.9483 C   0  0  0  0  0  0  0  0  0  0  0  0
   21.9188  -20.9958  -12.7823 C   0  0  0  0  0  0  0  0  0  0  0  0
   22.3061  -20.6074  -11.5181 C   0  0  0  0  0  0  0  0  0  0  0  0
   21.7784  -21.2764  -10.4144 C   0  0  0  0  0  0  0  0  0  0  0  0
   23.3931  -21.7960   -6.7745 C   0  0  0  0  0  0  0  0  0  0  0  0
   22.5057  -21.4210   -5.7822 O   0  0  0  0  0  0  0  0  0  0  0  0
   23.6647  -23.0132   -6.8971 O   0  0  0  0  0  0  0  0  0  0  0  0
  2  1  1  6
  2  3  1  0
  4  3  1  0
  5  4  2  0
  6  5  1  0
  7  6  1  0
  7 12  2  0
  8  7  1  0
  9  8  2  0
  9 10  1  0
 10 11  2  0
 11 12  1  0
 12  4  1  0
 13 15  1  0
 13  2  1  0
 14 13  2  0
 16 24  1  0
 16 17  1  1
 16 15  1  0
 18 17  1  0
 18 23  1  0
 19 18  2  0
 20 19  1  0
 20 21  2  0
 21 22  1  0
 22 23  2  0
 24 25  2  0
 26 27  1  0
 26 24  1  0
 27 38  1  0
 27 28  1  6
 29 30  2  0
 29 28  1  0
 31 30  1  0
 32 37  2  0
 32 31  1  0
 33 32  1  0
 34 33  2  0
 34 35  1  0
 35 36  2  0
 36 37  1  0
 37 29  1  0
 38 40  2  0
 38 39  1  0
M  END
$$$$
