WFW.pdb
     RDKit          3D

 40 44  0  0  1  0  0  0  0  0999 V2000
   26.2178  -17.4695  -16.3373 N   0  0  0  0  0  0  0  0  0  0  0  0
   26.7750  -18.5680  -15.5879 C   0  0  1  0  0  0  0  0  0  0  0  0
   28.2699  -18.3222  -15.4477 C   0  0  0  0  0  0  0  0  0  0  0  0
   28.9554  -18.4217  -16.7451 C   0  0  0  0  0  0  0  0  0  0  0  0
   29.4270  -19.6230  -17.2797 C   0  0  0  0  0  0  0  0  0  0  0  0
   29.9948  -19.3720  -18.4662 N   0  0  0  0  0  0  0  0  0  0  0  0
   29.9150  -18.0483  -18.7339 C   0  0  0  0  0  0  0  0  0  0  0  0
   30.3530  -17.3282  -19.8214 C   0  0  0  0  0  0  0  0  0  0  0  0
   30.1195  -15.9607  -19.8071 C   0  0  0  0  0  0  0  0  0  0  0  0
   29.4732  -15.3440  -18.7446 C   0  0  0  0  0  0  0  0  0  0  0  0
   29.0424  -16.0856  -17.6645 C   0  0  0  0  0  0  0  0  0  0  0  0
   29.2690  -17.4475  -17.6671 C   0  0  0  0  0  0  0  0  0  0  0  0
   26.1217  -18.6337  -14.2623 C   0  0  0  0  0  0  0  0  0  0  0  0
   26.1158  -17.6387  -13.4769 O   0  0  0  0  0  0  0  0  0  0  0  0
   25.4882  -19.8311  -13.8596 N   0  0  0  0  0  0  0  0  0  0  0  0
   24.7729  -19.9338  -12.6069 C   0  0  1  0  0  0  0  0  0  0  0  0
   23.3601  -20.3440  -12.7818 C   0  0  0  0  0  0  0  0  0  0  0  0
   22.6447  -20.3757  -11.4820 C   0  0  0  0  0  0  0  0  0  0  0  0
   22.0417  -19.2517  -10.9723 C   0  0  0  0  0  0  0  0  0  0  0  0
   21.3775  -19.3112   -9.7566 C   0  0  0  0  0  0  0  0  0  0  0  0
   21.2981  -20.4853   -9.0226 C   0  0  0  0  0  0  0  0  0  0  0  0
   21.9045  -21.6024   -9.5420 C   0  0  0  0  0  0  0  0  0  0  0  0
   22.5698  -21.5486  -10.7570 C   0  0  0  0  0  0  0  0  0  0  0  0
   25.5483  -20.7730  -11.6759 C   0  0  0  0  0  0  0  0  0  0  0  0
   26.0515  -21.8437  -12.0895 O   0  0  0  0  0  0  0  0  0  0  0  0
   25.7792  -20.4615  -10.3097 N   0  0  0  0  0  0  0  0  0  0  0  0
   26.2941  -21.4307   -9.3620 C   0  0  1  0  0  0  0  0  0  0  0  0
   27.6685  -20.9857   -8.9099 C   0  0  0  0  0  0  0  0  0  0  0  0
   27.5949  -20.0168   -7.7968 C   0  0  0  0  0  0  0  0  0  0  0  0
   26.9923  -18.7776   -7.8193 C   0  0  0  0  0  0  0  0  0  0  0  0
   27.1543  -18.2417   -6.5978 N   0  0  0  0  0  0  0  0  0  0  0  0
   27.8400  -19.1048   -5.8073 C   0  0  0  0  0  0  0  0  0  0  0  0
   28.2829  -19.0792   -4.4916 C   0  0  0  0  0  0  0  0  0  0  0  0
   28.9812  -20.1242   -3.9299 C   0  0  0  0  0  0  0  0  0  0  0  0
   29.2551  -21.2436   -4.6985 C   0  0  0  0  0  0  0  0  0  0  0  0
   28.8322  -21.3071   -6.0086 C   0  0  0  0  0  0  0  0  0  0  0  0
   28.1274  -20.2298   -6.5440 C   0  0  0  0  0  0  0  0  0  0  0  0
   25.3891  -21.5500   -8.1786 C   0  0  0  0  0  0  0  0  0  0  0  0
   24.2662  -20.7433   -8.1443 O   0  0  0  0  0  0  0  0  0  0  0  0
   25.5855  -22.3329   -7.2202 O   0  0  0  0  0  0  0  0  0  0  0  0
  2  1  1  6
  2  3  1  0
  4  3  1  0
  5  4  2  0
  6  5  1  0
  7  6  1  0
  7 12  2  0
  8  7  1  0
  9  8  2  0
  9 10  1  0
 10 11  2  0
 11 12  1  0
 12  4  1  0
 13 15  1  0
 13  2  1  0
 14 13  2  0
 16 24  1  0
 16 17  1  6
 16 15  1  0
 18 17  1  0
 18 23  1  0
 19 18  2  0
 20 19  1  0
 20 21  2  0
 21 22  1  0
 22 23  2  0
 24 25  2  0
 26 27  1  0
 26 24  1  0
 27 38  1  0
 27 28  1  1
 29 30  2  0
 29 28  1  0
 31 30  1  0
 32 37  2  0
 32 31  1  0
 33 32  1  0
 34 33  2  0
 34 35  1  0
 35 36  2  0
 36 37  1  0
 37 29  1  0
 38 40  2  0
 38 39  1  0
M  END
$$$$
