WFW.pdb
     RDKit          3D

 40 44  0  0  1  0  0  0  0  0999 V2000
   27.2740  -22.1078  -17.4379 N   0  0  0  0  0  0  0  0  0  0  0  0
   27.0086  -20.9288  -16.6516 C   0  0  1  0  0  0  0  0  0  0  0  0
   25.6076  -20.4470  -16.9975 C   0  0  0  0  0  0  0  0  0  0  0  0
   25.5358  -19.9495  -18.3797 C   0  0  0  0  0  0  0  0  0  0  0  0
   26.6538  -19.7860  -19.2011 C   0  0  0  0  0  0  0  0  0  0  0  0
   26.2492  -19.3221  -20.3904 N   0  0  0  0  0  0  0  0  0  0  0  0
   24.9047  -19.1736  -20.3835 C   0  0  0  0  0  0  0  0  0  0  0  0
   24.0488  -18.7335  -21.3667 C   0  0  0  0  0  0  0  0  0  0  0  0
   22.6976  -18.6934  -21.0544 C   0  0  0  0  0  0  0  0  0  0  0  0
   22.2275  -19.0794  -19.8067 C   0  0  0  0  0  0  0  0  0  0  0  0
   23.1036  -19.5176  -18.8358 C   0  0  0  0  0  0  0  0  0  0  0  0
   24.4507  -19.5620  -19.1346 C   0  0  0  0  0  0  0  0  0  0  0  0
   27.1133  -21.2681  -15.2155 C   0  0  0  0  0  0  0  0  0  0  0  0
   26.5554  -22.3006  -14.7366 O   0  0  0  0  0  0  0  0  0  0  0  0
   27.8520  -20.4244  -14.3554 N   0  0  0  0  0  0  0  0  0  0  0  0
   27.8850  -20.6313  -12.9245 C   0  0  1  0  0  0  0  0  0  0  0  0
   29.0682  -20.0149  -12.2801 C   0  0  0  0  0  0  0  0  0  0  0  0
   29.0225  -20.1767  -10.8057 C   0  0  0  0  0  0  0  0  0  0  0  0
   29.7079  -21.1881  -10.1778 C   0  0  0  0  0  0  0  0  0  0  0  0
   29.6497  -21.3135   -8.7981 C   0  0  0  0  0  0  0  0  0  0  0  0
   28.9112  -20.4396   -8.0142 C   0  0  0  0  0  0  0  0  0  0  0  0
   28.2303  -19.4327   -8.6528 C   0  0  0  0  0  0  0  0  0  0  0  0
   28.2852  -19.3025  -10.0318 C   0  0  0  0  0  0  0  0  0  0  0  0
   26.5893  -20.2290  -12.3487 C   0  0  0  0  0  0  0  0  0  0  0  0
   25.9766  -19.2525  -12.8404 O   0  0  0  0  0  0  0  0  0  0  0  0
   25.9588  -20.8732  -11.2514 N   0  0  0  0  0  0  0  0  0  0  0  0
   24.6323  -20.5136  -10.7893 C   0  0  1  0  0  0  0  0  0  0  0  0
   23.6355  -20.8204  -11.8863 C   0  0  0  0  0  0  0  0  0  0  0  0
   22.2458  -20.5645  -11.4548 C   0  0  0  0  0  0  0  0  0  0  0  0
   21.8436  -19.8503  -10.3468 C   0  0  0  0  0  0  0  0  0  0  0  0
   20.5000  -19.8605  -10.3415 N   0  0  0  0  0  0  0  0  0  0  0  0
   20.0439  -20.5587  -11.4113 C   0  0  0  0  0  0  0  0  0  0  0  0
   18.7848  -20.8886  -11.8948 C   0  0  0  0  0  0  0  0  0  0  0  0
   18.6080  -21.6352  -13.0378 C   0  0  0  0  0  0  0  0  0  0  0  0
   19.7208  -22.0761  -13.7350 C   0  0  0  0  0  0  0  0  0  0  0  0
   20.9875  -21.7694  -13.2873 C   0  0  0  0  0  0  0  0  0  0  0  0
   21.1284  -21.0111  -12.1258 C   0  0  0  0  0  0  0  0  0  0  0  0
   24.2738  -21.2771   -9.5555 C   0  0  0  0  0  0  0  0  0  0  0  0
   24.4627  -22.6471   -9.5698 O   0  0  0  0  0  0  0  0  0  0  0  0
   23.8144  -20.7534   -8.5139 O   0  0  0  0  0  0  0  0  0  0  0  0
  2  1  1  6
  2  3  1  0
  4  3  1  0
  5  4  2  0
  6  5  1  0
  7  6  1  0
  7 12  2  0
  8  7  1  0
  9  8  2  0
  9 10  1  0
 10 11  2  0
 11 12  1  0
 12  4  1  0
 13 15  1  0
 13  2  1  0
 14 13  2  0
 16 24  1  0
 16 17  1  1
 16 15  1  0
 18 17  1  0
 18 23  1  0
 19 18  2  0
 20 19  1  0
 20 21  2  0
 21 22  1  0
 22 23  2  0
 24 25  2  0
 26 27  1  0
 26 24  1  0
 27 38  1  0
 27 28  1  6
 29 30  2  0
 29 28  1  0
 31 30  1  0
 32 37  2  0
 32 31  1  0
 33 32  1  0
 34 33  2  0
 34 35  1  0
 35 36  2  0
 36 37  1  0
 37 29  1  0
 38 40  2  0
 38 39  1  0
M  END
$$$$
