WFW.pdb
     RDKit          3D

 40 44  0  0  1  0  0  0  0  0999 V2000
   26.5971  -21.5027  -17.9064 N   0  0  0  0  0  0  0  0  0  0  0  0
   26.9286  -20.6045  -16.8284 C   0  0  1  0  0  0  0  0  0  0  0  0
   26.3446  -19.2407  -17.1656 C   0  0  0  0  0  0  0  0  0  0  0  0
   27.1801  -18.5240  -18.1409 C   0  0  0  0  0  0  0  0  0  0  0  0
   26.7266  -18.1232  -19.3999 C   0  0  0  0  0  0  0  0  0  0  0  0
   27.7243  -17.4969  -20.0369 N   0  0  0  0  0  0  0  0  0  0  0  0
   28.8198  -17.4700  -19.2437 C   0  0  0  0  0  0  0  0  0  0  0  0
   30.0700  -16.9391  -19.4636 C   0  0  0  0  0  0  0  0  0  0  0  0
   30.9987  -17.0694  -18.4412 C   0  0  0  0  0  0  0  0  0  0  0  0
   30.6835  -17.7063  -17.2487 C   0  0  0  0  0  0  0  0  0  0  0  0
   29.4236  -18.2311  -17.0497 C   0  0  0  0  0  0  0  0  0  0  0  0
   28.4907  -18.1077  -18.0598 C   0  0  0  0  0  0  0  0  0  0  0  0
   26.3601  -21.1278  -15.5669 C   0  0  0  0  0  0  0  0  0  0  0  0
   25.2998  -21.8224  -15.5563 O   0  0  0  0  0  0  0  0  0  0  0  0
   27.0118  -20.8494  -14.3442 N   0  0  0  0  0  0  0  0  0  0  0  0
   26.3773  -21.0908  -13.0673 C   0  0  1  0  0  0  0  0  0  0  0  0
   27.2481  -20.7515  -11.9177 C   0  0  0  0  0  0  0  0  0  0  0  0
   26.5026  -20.8307  -10.6370 C   0  0  0  0  0  0  0  0  0  0  0  0
   26.1075  -19.6964   -9.9705 C   0  0  0  0  0  0  0  0  0  0  0  0
   25.4094  -19.8003   -8.7770 C   0  0  0  0  0  0  0  0  0  0  0  0
   25.0894  -21.0299   -8.2209 C   0  0  0  0  0  0  0  0  0  0  0  0
   25.4894  -22.1568   -8.8959 C   0  0  0  0  0  0  0  0  0  0  0  0
   26.1875  -22.0586  -10.0895 C   0  0  0  0  0  0  0  0  0  0  0  0
   25.0559  -20.4384  -13.0540 C   0  0  0  0  0  0  0  0  0  0  0  0
   24.9817  -19.2000  -13.2320 O   0  0  0  0  0  0  0  0  0  0  0  0
   23.8238  -21.1146  -12.8500 N   0  0  0  0  0  0  0  0  0  0  0  0
   22.5433  -20.4349  -12.8805 C   0  0  1  0  0  0  0  0  0  0  0  0
   22.3843  -19.7577  -14.2250 C   0  0  0  0  0  0  0  0  0  0  0  0
   21.0851  -19.0635  -14.3414 C   0  0  0  0  0  0  0  0  0  0  0  0
   20.4759  -18.2852  -13.3809 C   0  0  0  0  0  0  0  0  0  0  0  0
   19.3208  -17.8461  -13.9084 N   0  0  0  0  0  0  0  0  0  0  0  0
   19.1838  -18.3237  -15.1706 C   0  0  0  0  0  0  0  0  0  0  0  0
   18.2165  -18.2012  -16.1592 C   0  0  0  0  0  0  0  0  0  0  0  0
   18.3357  -18.8157  -17.3852 C   0  0  0  0  0  0  0  0  0  0  0  0
   19.4572  -19.5848  -17.6487 C   0  0  0  0  0  0  0  0  0  0  0  0
   20.4396  -19.7306  -16.6933 C   0  0  0  0  0  0  0  0  0  0  0  0
   20.2852  -19.0935  -15.4628 C   0  0  0  0  0  0  0  0  0  0  0  0
   21.4232  -21.4012  -12.6680 C   0  0  0  0  0  0  0  0  0  0  0  0
   20.3378  -20.9738  -11.9250 O   0  0  0  0  0  0  0  0  0  0  0  0
   21.4083  -22.5699  -13.1200 O   0  0  0  0  0  0  0  0  0  0  0  0
  2  1  1  6
  2  3  1  0
  4  3  1  0
  5  4  2  0
  6  5  1  0
  7  6  1  0
  7 12  2  0
  8  7  1  0
  9  8  2  0
  9 10  1  0
 10 11  2  0
 11 12  1  0
 12  4  1  0
 13 15  1  0
 13  2  1  0
 14 13  2  0
 16 24  1  0
 16 17  1  1
 16 15  1  0
 18 17  1  0
 18 23  1  0
 19 18  2  0
 20 19  1  0
 20 21  2  0
 21 22  1  0
 22 23  2  0
 24 25  2  0
 26 27  1  0
 26 24  1  0
 27 38  1  0
 27 28  1  6
 29 30  2  0
 29 28  1  0
 31 30  1  0
 32 37  2  0
 32 31  1  0
 33 32  1  0
 34 33  2  0
 34 35  1  0
 35 36  2  0
 36 37  1  0
 37 29  1  0
 38 40  2  0
 38 39  1  0
M  END
$$$$
