ECI.pdb
     RDKit          3D

 24 23  0  0  1  0  0  0  0  0999 V2000
   20.6448  -10.3699  -15.6900 N   0  0  0  0  0  0  0  0  0  0  0  0
   19.7461   -9.2765  -15.3919 C   0  0  1  0  0  0  0  0  0  0  0  0
   18.3704   -9.6594  -15.8626 C   0  0  0  0  0  0  0  0  0  0  0  0
   18.2392  -11.1193  -16.1673 C   0  0  0  0  0  0  0  0  0  0  0  0
   16.8876  -11.5745  -15.7831 C   0  0  0  0  0  0  0  0  0  0  0  0
   15.9278  -10.7752  -15.8684 O   0  0  0  0  0  0  0  0  0  0  0  0
   19.6664   -9.0717  -13.9152 C   0  0  0  0  0  0  0  0  0  0  0  0
   19.7346  -10.0438  -13.1103 O   0  0  0  0  0  0  0  0  0  0  0  0
   16.6261  -12.8577  -15.3274 O   0  0  0  0  0  0  0  0  0  0  0  0
   19.5118   -7.7976  -13.3266 N   0  0  0  0  0  0  0  0  0  0  0  0
   19.4580   -7.5195  -11.9326 C   0  0  1  0  0  0  0  0  0  0  0  0
   20.6986   -6.9024  -11.3649 C   0  0  0  0  0  0  0  0  0  0  0  0
   21.2554   -5.5090  -12.3854 S   0  0  0  0  0  0  0  0  0  0  0  0
   18.2340   -6.7466  -11.5982 C   0  0  0  0  0  0  0  0  0  0  0  0
   17.8251   -5.8652  -12.3940 O   0  0  0  0  0  0  0  0  0  0  0  0
   12.7248   -6.7886   -9.0539 C   0  0  0  0  0  0  0  0  0  0  0  0
   13.9835   -6.0203   -9.3088 C   0  0  0  0  0  0  0  0  0  0  0  0
   15.1302   -6.9211   -9.7143 C   0  0  2  0  0  0  0  0  0  0  0  0
   15.4818   -7.8968   -8.6041 C   0  0  0  0  0  0  0  0  0  0  0  0
   16.3712   -6.1211  -10.0171 C   0  0  2  0  0  0  0  0  0  0  0  0
   17.4896   -6.9510  -10.4126 N   0  0  0  0  0  0  0  0  0  0  0  0
   16.7446   -5.2198   -8.8981 C   0  0  0  0  0  0  0  0  0  0  0  0
   17.6265   -5.5434   -8.0717 O   0  0  0  0  0  0  0  0  0  0  0  0
   16.1330   -3.9876   -8.7249 O   0  0  0  0  0  0  0  0  0  0  0  0
  2  1  1  1
  3  2  1  0
  4  3  1  0
  4  5  1  0
  5  6  2  0
  7  2  1  0
  8  7  2  0
  9  5  1  0
 10  7  1  0
 11 10  1  0
 11 14  1  0
 12 13  1  0
 11 12  1  6
 14 21  1  0
 15 14  2  0
 17 16  1  0
 18 20  1  0
 18 17  1  0
 18 19  1  1
 20 22  1  0
 20 21  1  1
 22 23  2  0
 22 24  1  0
M  END
$$$$
