ECI.pdb
     RDKit          3D

 24 23  0  0  1  0  0  0  0  0999 V2000
   20.0892  -15.6832  -16.0199 N   0  0  0  0  0  0  0  0  0  0  0  0
   19.8365  -14.4496  -16.7314 C   0  0  1  0  0  0  0  0  0  0  0  0
   18.3480  -14.2555  -16.8183 C   0  0  0  0  0  0  0  0  0  0  0  0
   17.6632  -15.3173  -17.6213 C   0  0  0  0  0  0  0  0  0  0  0  0
   17.3664  -16.4699  -16.7467 C   0  0  0  0  0  0  0  0  0  0  0  0
   16.5123  -16.3435  -15.8401 O   0  0  0  0  0  0  0  0  0  0  0  0
   20.3880  -13.2958  -15.9610 C   0  0  0  0  0  0  0  0  0  0  0  0
   20.1677  -13.1639  -14.7234 O   0  0  0  0  0  0  0  0  0  0  0  0
   17.9940  -17.6990  -16.8815 O   0  0  0  0  0  0  0  0  0  0  0  0
   21.1812  -12.2890  -16.5535 N   0  0  0  0  0  0  0  0  0  0  0  0
   21.8286  -11.2221  -15.8708 C   0  0  1  0  0  0  0  0  0  0  0  0
   23.3247  -11.2585  -15.9200 C   0  0  0  0  0  0  0  0  0  0  0  0
   23.9655  -12.7346  -15.0810 S   0  0  0  0  0  0  0  0  0  0  0  0
   21.2771   -9.9116  -16.3018 C   0  0  0  0  0  0  0  0  0  0  0  0
   21.2651   -9.6196  -17.5233 O   0  0  0  0  0  0  0  0  0  0  0  0
   16.4907   -8.4297  -15.7123 C   0  0  0  0  0  0  0  0  0  0  0  0
   17.9051   -8.4532  -16.2004 C   0  0  0  0  0  0  0  0  0  0  0  0
   18.7861   -7.4816  -15.4450 C   0  0  2  0  0  0  0  0  0  0  0  0
   18.4214   -6.0427  -15.7687 C   0  0  0  0  0  0  0  0  0  0  0  0
   20.2376   -7.6677  -15.8060 C   0  0  2  0  0  0  0  0  0  0  0  0
   20.7552   -8.9567  -15.3977 N   0  0  0  0  0  0  0  0  0  0  0  0
   21.0889   -6.5642  -15.2947 C   0  0  0  0  0  0  0  0  0  0  0  0
   21.1161   -5.4498  -15.8629 O   0  0  0  0  0  0  0  0  0  0  0  0
   21.8852   -6.7241  -14.1709 O   0  0  0  0  0  0  0  0  0  0  0  0
  2  1  1  1
  3  2  1  0
  4  3  1  0
  4  5  1  0
  5  6  2  0
  7  2  1  0
  8  7  2  0
  9  5  1  0
 10  7  1  0
 11 10  1  0
 11 14  1  0
 12 13  1  0
 11 12  1  6
 14 21  1  0
 15 14  2  0
 17 16  1  0
 18 20  1  0
 18 17  1  0
 18 19  1  6
 20 22  1  0
 20 21  1  1
 22 23  2  0
 22 24  1  0
M  END
$$$$
