ECI.pdb
     RDKit          3D

 24 23  0  0  1  0  0  0  0  0999 V2000
   13.8635  -22.6094   -3.3111 N   0  0  0  0  0  0  0  0  0  0  0  0
   14.1828  -23.4169   -2.1544 C   0  0  1  0  0  0  0  0  0  0  0  0
   15.6239  -23.8329   -2.2570 C   0  0  0  0  0  0  0  0  0  0  0  0
   15.8888  -24.7543   -3.4068 C   0  0  0  0  0  0  0  0  0  0  0  0
   15.5248  -26.1317   -3.0173 C   0  0  0  0  0  0  0  0  0  0  0  0
   16.0978  -26.6599   -2.0375 O   0  0  0  0  0  0  0  0  0  0  0  0
   14.0460  -22.6014   -0.9113 C   0  0  0  0  0  0  0  0  0  0  0  0
   14.2189  -21.3494   -0.9220 O   0  0  0  0  0  0  0  0  0  0  0  0
   14.5691  -26.8772   -3.6907 O   0  0  0  0  0  0  0  0  0  0  0  0
   13.7192  -23.1648    0.3415 N   0  0  0  0  0  0  0  0  0  0  0  0
   13.4628  -22.4463    1.5422 C   0  0  1  0  0  0  0  0  0  0  0  0
   12.5211  -23.1208    2.4912 C   0  0  0  0  0  0  0  0  0  0  0  0
   12.3379  -22.1570    4.0178 S   0  0  0  0  0  0  0  0  0  0  0  0
   14.7352  -22.0425    2.1943 C   0  0  0  0  0  0  0  0  0  0  0  0
   15.6509  -22.8903    2.3367 O   0  0  0  0  0  0  0  0  0  0  0  0
   18.4479  -18.4932    0.8254 C   0  0  0  0  0  0  0  0  0  0  0  0
   17.8189  -19.6368    1.5575 C   0  0  0  0  0  0  0  0  0  0  0  0
   16.8774  -19.1690    2.6464 C   0  0  2  0  0  0  0  0  0  0  0  0
   17.6203  -18.3887    3.7176 C   0  0  0  0  0  0  0  0  0  0  0  0
   16.2073  -20.3356    3.3260 C   0  0  2  0  0  0  0  0  0  0  0  0
   14.9781  -20.7334    2.6726 N   0  0  0  0  0  0  0  0  0  0  0  0
   15.9875  -20.0910    4.7736 C   0  0  0  0  0  0  0  0  0  0  0  0
   14.8919  -19.6627    5.1997 O   0  0  0  0  0  0  0  0  0  0  0  0
   16.9844  -20.3268    5.7081 O   0  0  0  0  0  0  0  0  0  0  0  0
  2  1  1  6
  3  2  1  0
  4  3  1  0
  4  5  1  0
  5  6  2  0
  7  2  1  0
  8  7  2  0
  9  5  1  0
 10  7  1  0
 11 10  1  0
 11 14  1  0
 12 13  1  0
 11 12  1  1
 14 21  1  0
 15 14  2  0
 17 16  1  0
 18 20  1  0
 18 17  1  0
 18 19  1  1
 20 22  1  0
 20 21  1  6
 22 23  2  0
 22 24  1  0
M  END
$$$$
