ECI.pdb
     RDKit          3D

 24 23  0  0  1  0  0  0  0  0999 V2000
   20.3892  -20.9204  -16.0987 N   0  0  0  0  0  0  0  0  0  0  0  0
   20.9800  -20.7998  -14.7841 C   0  0  1  0  0  0  0  0  0  0  0  0
   21.5982  -19.4338  -14.6720 C   0  0  0  0  0  0  0  0  0  0  0  0
   23.0004  -19.4650  -14.1485 C   0  0  0  0  0  0  0  0  0  0  0  0
   23.9400  -19.5468  -15.2852 C   0  0  0  0  0  0  0  0  0  0  0  0
   23.4917  -19.4851  -16.4525 O   0  0  0  0  0  0  0  0  0  0  0  0
   19.9180  -20.8909  -13.7387 C   0  0  0  0  0  0  0  0  0  0  0  0
   19.2362  -19.8814  -13.4019 O   0  0  0  0  0  0  0  0  0  0  0  0
   25.3094  -19.6903  -15.1217 O   0  0  0  0  0  0  0  0  0  0  0  0
   19.6079  -22.0928  -13.0656 N   0  0  0  0  0  0  0  0  0  0  0  0
   18.5305  -22.2911  -12.1582 C   0  0  1  0  0  0  0  0  0  0  0  0
   17.1846  -21.8959  -12.6822 C   0  0  0  0  0  0  0  0  0  0  0  0
   16.5612  -23.1258  -13.8620 S   0  0  0  0  0  0  0  0  0  0  0  0
   18.5467  -23.6751  -11.6182 C   0  0  0  0  0  0  0  0  0  0  0  0
   18.9110  -24.6215  -12.3591 O   0  0  0  0  0  0  0  0  0  0  0  0
   19.0273  -24.5275   -6.1587 C   0  0  0  0  0  0  0  0  0  0  0  0
   19.0439  -24.4610   -7.6536 C   0  0  0  0  0  0  0  0  0  0  0  0
   18.0345  -25.4000   -8.2782 C   0  0  2  0  0  0  0  0  0  0  0  0
   18.2944  -26.8392   -7.8666 C   0  0  0  0  0  0  0  0  0  0  0  0
   18.0983  -25.3463   -9.7832 C   0  0  2  0  0  0  0  0  0  0  0  0
   18.1682  -23.9929  -10.2926 N   0  0  0  0  0  0  0  0  0  0  0  0
   16.9882  -26.0994  -10.4191 C   0  0  0  0  0  0  0  0  0  0  0  0
   15.8786  -25.5619  -10.6319 O   0  0  0  0  0  0  0  0  0  0  0  0
   17.1364  -27.4240  -10.8011 O   0  0  0  0  0  0  0  0  0  0  0  0
  2  1  1  6
  3  2  1  0
  4  3  1  0
  4  5  1  0
  5  6  2  0
  7  2  1  0
  8  7  2  0
  9  5  1  0
 10  7  1  0
 11 10  1  0
 11 14  1  0
 12 13  1  0
 11 12  1  6
 14 21  1  0
 15 14  2  0
 17 16  1  0
 18 20  1  0
 18 17  1  0
 18 19  1  1
 20 22  1  0
 20 21  1  1
 22 23  2  0
 22 24  1  0
M  END
$$$$
