ECI.pdb
     RDKit          3D

 24 23  0  0  1  0  0  0  0  0999 V2000
   27.9079  -21.7480  -15.5260 N   0  0  0  0  0  0  0  0  0  0  0  0
   27.1385  -20.7921  -14.7603 C   0  0  1  0  0  0  0  0  0  0  0  0
   26.2535  -20.0344  -15.7107 C   0  0  0  0  0  0  0  0  0  0  0  0
   27.0193  -19.2968  -16.7647 C   0  0  0  0  0  0  0  0  0  0  0  0
   27.3931  -17.9644  -16.2485 C   0  0  0  0  0  0  0  0  0  0  0  0
   28.5825  -17.7482  -15.9230 O   0  0  0  0  0  0  0  0  0  0  0  0
   26.2458  -21.5087  -13.8018 C   0  0  0  0  0  0  0  0  0  0  0  0
   25.5523  -22.5016  -14.1633 O   0  0  0  0  0  0  0  0  0  0  0  0
   26.4816  -16.9294  -16.1048 O   0  0  0  0  0  0  0  0  0  0  0  0
   26.1176  -21.1315  -12.4472 N   0  0  0  0  0  0  0  0  0  0  0  0
   24.9739  -21.3334  -11.6258 C   0  0  1  0  0  0  0  0  0  0  0  0
   25.2066  -21.1302  -10.1606 C   0  0  0  0  0  0  0  0  0  0  0  0
   26.7433  -20.2098   -9.8695 S   0  0  0  0  0  0  0  0  0  0  0  0
   23.8184  -20.5487  -12.1323 C   0  0  0  0  0  0  0  0  0  0  0  0
   24.0067  -19.3860  -12.5682 O   0  0  0  0  0  0  0  0  0  0  0  0
   20.5838  -20.2701  -16.6593 C   0  0  0  0  0  0  0  0  0  0  0  0
   20.4612  -20.0323  -15.1869 C   0  0  0  0  0  0  0  0  0  0  0  0
   21.5546  -20.7262  -14.4035 C   0  0  2  0  0  0  0  0  0  0  0  0
   21.4915  -22.2329  -14.5879 C   0  0  0  0  0  0  0  0  0  0  0  0
   21.4269  -20.4500  -12.9273 C   0  0  2  0  0  0  0  0  0  0  0  0
   22.4942  -21.0462  -12.1518 N   0  0  0  0  0  0  0  0  0  0  0  0
   20.0974  -20.8424  -12.3960 C   0  0  0  0  0  0  0  0  0  0  0  0
   19.0738  -20.1687  -12.6483 O   0  0  0  0  0  0  0  0  0  0  0  0
   19.9376  -21.9676  -11.6017 O   0  0  0  0  0  0  0  0  0  0  0  0
  2  1  1  6
  3  2  1  0
  4  3  1  0
  4  5  1  0
  5  6  2  0
  7  2  1  0
  8  7  2  0
  9  5  1  0
 10  7  1  0
 11 10  1  0
 11 14  1  0
 12 13  1  0
 11 12  1  1
 14 21  1  0
 15 14  2  0
 17 16  1  0
 18 20  1  0
 18 17  1  0
 18 19  1  1
 20 22  1  0
 20 21  1  1
 22 23  2  0
 22 24  1  0
M  END
$$$$
