ECI.pdb
     RDKit          3D

 24 23  0  0  1  0  0  0  0  0999 V2000
   16.9897  -12.1853  -15.0816 N   0  0  0  0  0  0  0  0  0  0  0  0
   16.1242  -11.2133  -14.4506 C   0  0  1  0  0  0  0  0  0  0  0  0
   14.9786  -11.9500  -13.8138 C   0  0  0  0  0  0  0  0  0  0  0  0
   14.1362  -12.6937  -14.8030 C   0  0  0  0  0  0  0  0  0  0  0  0
   13.8833  -14.0574  -14.2951 C   0  0  0  0  0  0  0  0  0  0  0  0
   13.5627  -14.2113  -13.0947 O   0  0  0  0  0  0  0  0  0  0  0  0
   16.8598  -10.5110  -13.3575 C   0  0  0  0  0  0  0  0  0  0  0  0
   18.0084  -10.8876  -12.9882 O   0  0  0  0  0  0  0  0  0  0  0  0
   13.9844  -15.1883  -15.0909 O   0  0  0  0  0  0  0  0  0  0  0  0
   16.3303   -9.3955  -12.6726 N   0  0  0  0  0  0  0  0  0  0  0  0
   17.0816   -8.3735  -12.0288 C   0  0  1  0  0  0  0  0  0  0  0  0
   18.2017   -7.8061  -12.8446 C   0  0  0  0  0  0  0  0  0  0  0  0
   19.0149   -6.4405  -11.9688 S   0  0  0  0  0  0  0  0  0  0  0  0
   16.1820   -7.3218  -11.4884 C   0  0  0  0  0  0  0  0  0  0  0  0
   15.5471   -6.5857  -12.2837 O   0  0  0  0  0  0  0  0  0  0  0  0
   11.7602   -6.0806   -8.6386 C   0  0  0  0  0  0  0  0  0  0  0  0
   13.0931   -5.8916   -7.9851 C   0  0  0  0  0  0  0  0  0  0  0  0
   14.1317   -6.8555   -8.5170 C   0  0  2  0  0  0  0  0  0  0  0  0
   15.0524   -7.3380   -7.4091 C   0  0  0  0  0  0  0  0  0  0  0  0
   14.9960   -6.2020   -9.5648 C   0  0  2  0  0  0  0  0  0  0  0  0
   15.9968   -7.0986  -10.1037 N   0  0  0  0  0  0  0  0  0  0  0  0
   15.6139   -4.9433   -9.0771 C   0  0  0  0  0  0  0  0  0  0  0  0
   14.9146   -3.9459   -8.7917 O   0  0  0  0  0  0  0  0  0  0  0  0
   16.9862   -4.8234   -8.9191 O   0  0  0  0  0  0  0  0  0  0  0  0
  2  1  1  1
  3  2  1  0
  4  3  1  0
  4  5  1  0
  5  6  2  0
  7  2  1  0
  8  7  2  0
  9  5  1  0
 10  7  1  0
 11 10  1  0
 11 14  1  0
 12 13  1  0
 11 12  1  6
 14 21  1  0
 15 14  2  0
 17 16  1  0
 18 20  1  0
 18 17  1  0
 18 19  1  1
 20 22  1  0
 20 21  1  1
 22 23  2  0
 22 24  1  0
M  END
$$$$
