ECI.pdb
     RDKit          3D

 24 23  0  0  1  0  0  0  0  0999 V2000
   26.5788  -22.2989  -15.2231 N   0  0  0  0  0  0  0  0  0  0  0  0
   27.3098  -21.0576  -15.3517 C   0  0  1  0  0  0  0  0  0  0  0  0
   26.9478  -20.4355  -16.6718 C   0  0  0  0  0  0  0  0  0  0  0  0
   25.5046  -20.6124  -17.0283 C   0  0  0  0  0  0  0  0  0  0  0  0
   25.3254  -21.9226  -17.6861 C   0  0  0  0  0  0  0  0  0  0  0  0
   25.9770  -22.1779  -18.7242 O   0  0  0  0  0  0  0  0  0  0  0  0
   26.8860  -20.1046  -14.2835 C   0  0  0  0  0  0  0  0  0  0  0  0
   26.7328  -18.8729  -14.5218 O   0  0  0  0  0  0  0  0  0  0  0  0
   24.4616  -22.8949  -17.2055 O   0  0  0  0  0  0  0  0  0  0  0  0
   26.6314  -20.5085  -12.9546 N   0  0  0  0  0  0  0  0  0  0  0  0
   25.4981  -20.1511  -12.1727 C   0  0  1  0  0  0  0  0  0  0  0  0
   24.1788  -20.3244  -12.8594 C   0  0  0  0  0  0  0  0  0  0  0  0
   22.8160  -19.7749  -11.7945 S   0  0  0  0  0  0  0  0  0  0  0  0
   25.5419  -20.8214  -10.8475 C   0  0  0  0  0  0  0  0  0  0  0  0
   25.4165  -22.0695  -10.7837 O   0  0  0  0  0  0  0  0  0  0  0  0
   28.4335  -18.6504   -6.7568 C   0  0  0  0  0  0  0  0  0  0  0  0
   27.8176  -19.7303   -7.5897 C   0  0  0  0  0  0  0  0  0  0  0  0
   26.3553  -19.9412   -7.2609 C   0  0  2  0  0  0  0  0  0  0  0  0
   26.1892  -20.6899   -5.9494 C   0  0  0  0  0  0  0  0  0  0  0  0
   25.6676  -20.7516   -8.3295 C   0  0  2  0  0  0  0  0  0  0  0  0
   25.7202  -20.1207   -9.6315 N   0  0  0  0  0  0  0  0  0  0  0  0
   24.2721  -21.0979   -7.9601 C   0  0  0  0  0  0  0  0  0  0  0  0
   23.3073  -20.4008   -8.3457 O   0  0  0  0  0  0  0  0  0  0  0  0
   23.9832  -22.2041   -7.1755 O   0  0  0  0  0  0  0  0  0  0  0  0
  2  1  1  1
  3  2  1  0
  4  3  1  0
  4  5  1  0
  5  6  2  0
  7  2  1  0
  8  7  2  0
  9  5  1  0
 10  7  1  0
 11 10  1  0
 11 14  1  0
 12 13  1  0
 11 12  1  6
 14 21  1  0
 15 14  2  0
 17 16  1  0
 18 20  1  0
 18 17  1  0
 18 19  1  1
 20 22  1  0
 20 21  1  6
 22 23  2  0
 22 24  1  0
M  END
$$$$
