ECI.pdb
     RDKit          3D

 24 23  0  0  1  0  0  0  0  0999 V2000
   20.5092  -20.6081  -10.6882 N   0  0  0  0  0  0  0  0  0  0  0  0
   21.1250  -20.8789  -11.9686 C   0  0  1  0  0  0  0  0  0  0  0  0
   20.4419  -20.0311  -13.0055 C   0  0  0  0  0  0  0  0  0  0  0  0
   19.6174  -20.8297  -13.9667 C   0  0  0  0  0  0  0  0  0  0  0  0
   18.2811  -21.0616  -13.3818 C   0  0  0  0  0  0  0  0  0  0  0  0
   17.4358  -20.1384  -13.4071 O   0  0  0  0  0  0  0  0  0  0  0  0
   22.5605  -20.4696  -11.9394 C   0  0  0  0  0  0  0  0  0  0  0  0
   22.9020  -19.2819  -11.6743 O   0  0  0  0  0  0  0  0  0  0  0  0
   17.9122  -22.2647  -12.7995 O   0  0  0  0  0  0  0  0  0  0  0  0
   23.6179  -21.3678  -12.2019 N   0  0  0  0  0  0  0  0  0  0  0  0
   25.0048  -21.0514  -12.2050 C   0  0  1  0  0  0  0  0  0  0  0  0
   25.8445  -21.8910  -11.2927 C   0  0  0  0  0  0  0  0  0  0  0  0
   27.5500  -21.2742  -11.2302 S   0  0  0  0  0  0  0  0  0  0  0  0
   25.5326  -21.0177  -13.5934 C   0  0  0  0  0  0  0  0  0  0  0  0
   25.2993  -21.9808  -14.3650 O   0  0  0  0  0  0  0  0  0  0  0  0
   26.6724  -18.4749  -18.2185 C   0  0  0  0  0  0  0  0  0  0  0  0
   27.8306  -18.5387  -17.2730 C   0  0  0  0  0  0  0  0  0  0  0  0
   27.3861  -18.5625  -15.8264 C   0  0  2  0  0  0  0  0  0  0  0  0
   28.5439  -18.2595  -14.8905 C   0  0  0  0  0  0  0  0  0  0  0  0
   26.8442  -19.9161  -15.4447 C   0  0  2  0  0  0  0  0  0  0  0  0
   26.2970  -19.9425  -14.1046 N   0  0  0  0  0  0  0  0  0  0  0  0
   27.8461  -20.9952  -15.6336 C   0  0  0  0  0  0  0  0  0  0  0  0
   28.5840  -21.3664  -14.6939 O   0  0  0  0  0  0  0  0  0  0  0  0
   28.0035  -21.6325  -16.8549 O   0  0  0  0  0  0  0  0  0  0  0  0
  2  1  1  1
  3  2  1  0
  4  3  1  0
  4  5  1  0
  5  6  2  0
  7  2  1  0
  8  7  2  0
  9  5  1  0
 10  7  1  0
 11 10  1  0
 11 14  1  0
 12 13  1  0
 11 12  1  1
 14 21  1  0
 15 14  2  0
 17 16  1  0
 18 20  1  0
 18 17  1  0
 18 19  1  1
 20 22  1  0
 20 21  1  1
 22 23  2  0
 22 24  1  0
M  END
$$$$
