ECI.pdb
     RDKit          3D

 24 23  0  0  1  0  0  0  0  0999 V2000
   17.1508  -11.6358  -14.8762 N   0  0  0  0  0  0  0  0  0  0  0  0
   17.2784  -10.6154  -15.8933 C   0  0  1  0  0  0  0  0  0  0  0  0
   15.9838  -10.5488  -16.6550 C   0  0  0  0  0  0  0  0  0  0  0  0
   15.4479  -11.8979  -17.0212 C   0  0  0  0  0  0  0  0  0  0  0  0
   14.6382  -12.4178  -15.9006 C   0  0  0  0  0  0  0  0  0  0  0  0
   14.3529  -13.6364  -15.8684 O   0  0  0  0  0  0  0  0  0  0  0  0
   17.4833   -9.2822  -15.2533 C   0  0  0  0  0  0  0  0  0  0  0  0
   17.5812   -8.2278  -15.9435 O   0  0  0  0  0  0  0  0  0  0  0  0
   14.1732  -11.6140  -14.8709 O   0  0  0  0  0  0  0  0  0  0  0  0
   17.5802   -9.1112  -13.8551 N   0  0  0  0  0  0  0  0  0  0  0  0
   17.7998   -7.8816  -13.1744 C   0  0  1  0  0  0  0  0  0  0  0  0
   17.2463   -7.8234  -11.7843 C   0  0  0  0  0  0  0  0  0  0  0  0
   18.0189   -9.0784  -10.7254 S   0  0  0  0  0  0  0  0  0  0  0  0
   19.2341   -7.4984  -13.2321 C   0  0  0  0  0  0  0  0  0  0  0  0
   20.1081   -8.3265  -12.8747 O   0  0  0  0  0  0  0  0  0  0  0  0
   23.8214   -6.4679  -16.3871 C   0  0  0  0  0  0  0  0  0  0  0  0
   23.1634   -5.9573  -15.1438 C   0  0  0  0  0  0  0  0  0  0  0  0
   21.7231   -6.4089  -15.0332 C   0  0  2  0  0  0  0  0  0  0  0  0
   20.9021   -5.9222  -16.2152 C   0  0  0  0  0  0  0  0  0  0  0  0
   21.0760   -5.8664  -13.7847 C   0  0  2  0  0  0  0  0  0  0  0  0
   19.6790   -6.2305  -13.6748 N   0  0  0  0  0  0  0  0  0  0  0  0
   21.2574   -4.3991  -13.6509 C   0  0  0  0  0  0  0  0  0  0  0  0
   22.3948   -3.8964  -13.5133 O   0  0  0  0  0  0  0  0  0  0  0  0
   20.1771   -3.5302  -13.6730 O   0  0  0  0  0  0  0  0  0  0  0  0
  2  1  1  1
  3  2  1  0
  4  3  1  0
  4  5  1  0
  5  6  2  0
  7  2  1  0
  8  7  2  0
  9  5  1  0
 10  7  1  0
 11 10  1  0
 11 14  1  0
 12 13  1  0
 11 12  1  1
 14 21  1  0
 15 14  2  0
 17 16  1  0
 18 20  1  0
 18 17  1  0
 18 19  1  6
 20 22  1  0
 20 21  1  6
 22 23  2  0
 22 24  1  0
M  END
$$$$
