ECI.pdb
     RDKit          3D

 24 23  0  0  1  0  0  0  0  0999 V2000
   17.7673  -11.1653  -15.8207 N   0  0  0  0  0  0  0  0  0  0  0  0
   18.6573  -10.1697  -16.3762 C   0  0  1  0  0  0  0  0  0  0  0  0
   17.9723   -9.5340  -17.5540 C   0  0  0  0  0  0  0  0  0  0  0  0
   17.9946  -10.3928  -18.7801 C   0  0  0  0  0  0  0  0  0  0  0  0
   19.3894  -10.5392  -19.2433 C   0  0  0  0  0  0  0  0  0  0  0  0
   20.0433   -9.5143  -19.5428 O   0  0  0  0  0  0  0  0  0  0  0  0
   18.9033   -9.0912  -15.3734 C   0  0  0  0  0  0  0  0  0  0  0  0
   17.9536   -8.5604  -14.7299 O   0  0  0  0  0  0  0  0  0  0  0  0
   20.0177  -11.7693  -19.3644 O   0  0  0  0  0  0  0  0  0  0  0  0
   20.1936   -8.5984  -15.0804 N   0  0  0  0  0  0  0  0  0  0  0  0
   20.5269   -7.6899  -14.0379 C   0  0  1  0  0  0  0  0  0  0  0  0
   21.4718   -8.2300  -13.0095 C   0  0  0  0  0  0  0  0  0  0  0  0
   20.7249   -9.6156  -12.1065 S   0  0  0  0  0  0  0  0  0  0  0  0
   20.9785   -6.3902  -14.5984 C   0  0  0  0  0  0  0  0  0  0  0  0
   21.7619   -6.3813  -15.5801 O   0  0  0  0  0  0  0  0  0  0  0  0
   17.6819   -2.3082  -15.7031 C   0  0  0  0  0  0  0  0  0  0  0  0
   18.8220   -3.2766  -15.6606 C   0  0  0  0  0  0  0  0  0  0  0  0
   19.8969   -2.8506  -14.6839 C   0  0  2  0  0  0  0  0  0  0  0  0
   20.5214   -1.5284  -15.0960 C   0  0  0  0  0  0  0  0  0  0  0  0
   21.0066   -3.8683  -14.6165 C   0  0  2  0  0  0  0  0  0  0  0  0
   20.5686   -5.1395  -14.0796 N   0  0  0  0  0  0  0  0  0  0  0  0
   22.1917   -3.3584  -13.8820 C   0  0  0  0  0  0  0  0  0  0  0  0
   22.2857   -3.4783  -12.6401 O   0  0  0  0  0  0  0  0  0  0  0  0
   23.2381   -2.7310  -14.5408 O   0  0  0  0  0  0  0  0  0  0  0  0
  2  1  1  1
  3  2  1  0
  4  3  1  0
  4  5  1  0
  5  6  2  0
  7  2  1  0
  8  7  2  0
  9  5  1  0
 10  7  1  0
 11 10  1  0
 11 14  1  0
 12 13  1  0
 11 12  1  6
 14 21  1  0
 15 14  2  0
 17 16  1  0
 18 20  1  0
 18 17  1  0
 18 19  1  6
 20 22  1  0
 20 21  1  1
 22 23  2  0
 22 24  1  0
M  END
$$$$
