ECI.pdb
     RDKit          3D

 24 23  0  0  1  0  0  0  0  0999 V2000
   21.0300  -13.6046  -18.1325 N   0  0  0  0  0  0  0  0  0  0  0  0
   20.6864  -12.2038  -18.2411 C   0  0  1  0  0  0  0  0  0  0  0  0
   19.2026  -12.1013  -18.4611 C   0  0  0  0  0  0  0  0  0  0  0  0
   18.7742  -12.5860  -19.8112 C   0  0  0  0  0  0  0  0  0  0  0  0
   17.3038  -12.4936  -19.9148 C   0  0  0  0  0  0  0  0  0  0  0  0
   16.7877  -11.4345  -20.3384 O   0  0  0  0  0  0  0  0  0  0  0  0
   20.9919  -11.5042  -16.9581 C   0  0  0  0  0  0  0  0  0  0  0  0
   20.5250  -11.9129  -15.8569 O   0  0  0  0  0  0  0  0  0  0  0  0
   16.4570  -13.5333  -19.5621 O   0  0  0  0  0  0  0  0  0  0  0  0
   21.8106  -10.3558  -16.8887 N   0  0  0  0  0  0  0  0  0  0  0  0
   22.2823   -9.7335  -15.6997 C   0  0  1  0  0  0  0  0  0  0  0  0
   23.3771  -10.4720  -14.9939 C   0  0  0  0  0  0  0  0  0  0  0  0
   24.3480  -11.4647  -16.1623 S   0  0  0  0  0  0  0  0  0  0  0  0
   22.6273   -8.3108  -15.9529 C   0  0  0  0  0  0  0  0  0  0  0  0
   23.3699   -8.0200  -16.9231 O   0  0  0  0  0  0  0  0  0  0  0  0
   20.9347   -3.2376  -17.7967 C   0  0  0  0  0  0  0  0  0  0  0  0
   21.8224   -3.8223  -16.7434 C   0  0  0  0  0  0  0  0  0  0  0  0
   21.4996   -5.2749  -16.4664 C   0  0  2  0  0  0  0  0  0  0  0  0
   20.0829   -5.4327  -15.9410 C   0  0  0  0  0  0  0  0  0  0  0  0
   22.4288   -5.8516  -15.4292 C   0  0  2  0  0  0  0  0  0  0  0  0
   22.1580   -7.2459  -15.1484 N   0  0  0  0  0  0  0  0  0  0  0  0
   22.4436   -5.0487  -14.1806 C   0  0  0  0  0  0  0  0  0  0  0  0
   22.9146   -3.8898  -14.1607 O   0  0  0  0  0  0  0  0  0  0  0  0
   21.9377   -5.5495  -12.9907 O   0  0  0  0  0  0  0  0  0  0  0  0
  2  1  1  1
  3  2  1  0
  4  3  1  0
  4  5  1  0
  5  6  2  0
  7  2  1  0
  8  7  2  0
  9  5  1  0
 10  7  1  0
 11 10  1  0
 11 14  1  0
 12 13  1  0
 11 12  1  6
 14 21  1  0
 15 14  2  0
 17 16  1  0
 18 20  1  0
 18 17  1  0
 18 19  1  1
 20 22  1  0
 20 21  1  1
 22 23  2  0
 22 24  1  0
M  END
$$$$
