ECI.pdb
     RDKit          3D

 24 23  0  0  1  0  0  0  0  0999 V2000
   26.3935  -21.1638  -17.9364 N   0  0  0  0  0  0  0  0  0  0  0  0
   26.8484  -20.1054  -17.0619 C   0  0  1  0  0  0  0  0  0  0  0  0
   25.7928  -19.0351  -17.0334 C   0  0  0  0  0  0  0  0  0  0  0  0
   25.8702  -18.1027  -18.2021 C   0  0  0  0  0  0  0  0  0  0  0  0
   27.1132  -17.3105  -18.1079 C   0  0  0  0  0  0  0  0  0  0  0  0
   27.3294  -16.6354  -17.0760 O   0  0  0  0  0  0  0  0  0  0  0  0
   26.9907  -20.6225  -15.6686 C   0  0  0  0  0  0  0  0  0  0  0  0
   26.1657  -21.4490  -15.1848 O   0  0  0  0  0  0  0  0  0  0  0  0
   28.0634  -17.2772  -19.1172 O   0  0  0  0  0  0  0  0  0  0  0  0
   28.0404  -20.2295  -14.8099 N   0  0  0  0  0  0  0  0  0  0  0  0
   28.2301  -20.6595  -13.4672 C   0  0  1  0  0  0  0  0  0  0  0  0
   29.5834  -20.3666  -12.8972 C   0  0  0  0  0  0  0  0  0  0  0  0
   29.6527  -20.7982  -11.1359 S   0  0  0  0  0  0  0  0  0  0  0  0
   27.1289  -20.1699  -12.5984 C   0  0  0  0  0  0  0  0  0  0  0  0
   26.8358  -18.9486  -12.6042 O   0  0  0  0  0  0  0  0  0  0  0  0
   22.2201  -21.3682  -12.7239 C   0  0  0  0  0  0  0  0  0  0  0  0
   23.5481  -20.7472  -12.4238 C   0  0  0  0  0  0  0  0  0  0  0  0
   24.0270  -21.0712  -11.0251 C   0  0  2  0  0  0  0  0  0  0  0  0
   23.1158  -20.4569   -9.9759 C   0  0  0  0  0  0  0  0  0  0  0  0
   25.4138  -20.5317  -10.7849 C   0  0  2  0  0  0  0  0  0  0  0  0
   26.3780  -21.0170  -11.7497 N   0  0  0  0  0  0  0  0  0  0  0  0
   25.8784  -20.7764   -9.3964 C   0  0  0  0  0  0  0  0  0  0  0  0
   26.5498  -21.7917   -9.1068 O   0  0  0  0  0  0  0  0  0  0  0  0
   25.5876  -19.8925   -8.3684 O   0  0  0  0  0  0  0  0  0  0  0  0
  2  1  1  6
  3  2  1  0
  4  3  1  0
  4  5  1  0
  5  6  2  0
  7  2  1  0
  8  7  2  0
  9  5  1  0
 10  7  1  0
 11 10  1  0
 11 14  1  0
 12 13  1  0
 11 12  1  1
 14 21  1  0
 15 14  2  0
 17 16  1  0
 18 20  1  0
 18 17  1  0
 18 19  1  1
 20 22  1  0
 20 21  1  6
 22 23  2  0
 22 24  1  0
M  END
$$$$
