TAI.pdb
     RDKit          3D

 21 20  0  0  1  0  0  0  0  0999 V2000
   15.8643  -10.5183  -18.7265 C   0  0  0  0  0  0  0  0  0  0  0  0
   16.1191  -11.9088  -18.1312 C   0  0  1  0  0  0  0  0  0  0  0  0
   15.1382  -12.7984  -18.5956 O   0  0  0  0  0  0  0  0  0  0  0  0
   17.4522  -12.3797  -18.6445 C   0  0  2  0  0  0  0  0  0  0  0  0
   17.5919  -13.7919  -18.2842 N   0  0  0  0  0  0  0  0  0  0  0  0
   18.5190  -11.5859  -17.9329 C   0  0  0  0  0  0  0  0  0  0  0  0
   18.7978  -11.7281  -16.7218 O   0  0  0  0  0  0  0  0  0  0  0  0
   20.8942   -8.8948  -19.0248 C   0  0  0  0  0  0  0  0  0  0  0  0
   20.2881   -9.8270  -18.0053 C   0  0  2  0  0  0  0  0  0  0  0  0
   19.2744  -10.6064  -18.6411 N   0  0  0  0  0  0  0  0  0  0  0  0
   19.7066   -9.0072  -16.8728 C   0  0  0  0  0  0  0  0  0  0  0  0
   18.5438   -8.5351  -16.9354 O   0  0  0  0  0  0  0  0  0  0  0  0
   18.2019   -8.9654  -11.3107 C   0  0  0  0  0  0  0  0  0  0  0  0
   18.8428   -8.0868  -12.3553 C   0  0  0  0  0  0  0  0  0  0  0  0
   19.4798   -8.9166  -13.4664 C   0  0  2  0  0  0  0  0  0  0  0  0
   20.6938   -9.6056  -12.8940 C   0  0  0  0  0  0  0  0  0  0  0  0
   19.9259   -7.9946  -14.5758 C   0  0  2  0  0  0  0  0  0  0  0  0
   20.4607   -8.7464  -15.7011 N   0  0  0  0  0  0  0  0  0  0  0  0
   20.9304   -7.0048  -14.0832 C   0  0  0  0  0  0  0  0  0  0  0  0
   20.5926   -6.0860  -13.2987 O   0  0  0  0  0  0  0  0  0  0  0  0
   22.2633   -7.0401  -14.4528 O   0  0  0  0  0  0  0  0  0  0  0  0
  2  1  1  6
  2  4  1  0
  3  2  1  0
  4  5  1  1
  6  4  1  0
  6 10  1  0
  7  6  2  0
  9 10  1  0
  9  8  1  6
 11  9  1  0
 12 11  2  0
 13 14  1  0
 14 15  1  0
 15 16  1  1
 17 15  1  0
 17 18  1  6
 18 11  1  0
 19 17  1  0
 20 19  2  0
 21 19  1  0
M  END
$$$$
