TAI.pdb
     RDKit          3D

 21 20  0  0  1  0  0  0  0  0999 V2000
   27.5065  -23.5575  -18.2258 C   0  0  0  0  0  0  0  0  0  0  0  0
   26.2717  -23.0121  -17.4973 C   0  0  1  0  0  0  0  0  0  0  0  0
   25.2737  -23.9983  -17.4750 O   0  0  0  0  0  0  0  0  0  0  0  0
   26.6765  -22.7302  -16.0764 C   0  0  2  0  0  0  0  0  0  0  0  0
   27.0109  -24.0100  -15.4489 N   0  0  0  0  0  0  0  0  0  0  0  0
   25.4813  -22.1382  -15.3725 C   0  0  0  0  0  0  0  0  0  0  0  0
   24.8280  -22.7384  -14.4906 O   0  0  0  0  0  0  0  0  0  0  0  0
   23.7836  -18.7984  -15.5364 C   0  0  0  0  0  0  0  0  0  0  0  0
   23.9195  -20.2189  -15.0472 C   0  0  2  0  0  0  0  0  0  0  0  0
   25.0349  -20.8252  -15.7013 N   0  0  0  0  0  0  0  0  0  0  0  0
   22.6412  -20.9699  -15.3544 C   0  0  0  0  0  0  0  0  0  0  0  0
   22.5069  -21.6284  -16.4162 O   0  0  0  0  0  0  0  0  0  0  0  0
   20.0765  -24.9251  -12.8060 C   0  0  0  0  0  0  0  0  0  0  0  0
   20.4130  -23.9574  -13.9124 C   0  0  0  0  0  0  0  0  0  0  0  0
   19.9077  -22.5526  -13.5963 C   0  0  2  0  0  0  0  0  0  0  0  0
   18.4026  -22.6090  -13.5081 C   0  0  0  0  0  0  0  0  0  0  0  0
   20.2909  -21.6257  -14.7250 C   0  0  2  0  0  0  0  0  0  0  0  0
   21.5512  -20.9530  -14.4482 N   0  0  0  0  0  0  0  0  0  0  0  0
   19.2126  -20.6270  -14.9924 C   0  0  0  0  0  0  0  0  0  0  0  0
   18.2016  -20.9411  -15.6655 O   0  0  0  0  0  0  0  0  0  0  0  0
   19.2614  -19.3257  -14.5249 O   0  0  0  0  0  0  0  0  0  0  0  0
  2  1  1  6
  2  4  1  0
  3  2  1  0
  4  5  1  1
  6  4  1  0
  6 10  1  0
  7  6  2  0
  9 10  1  0
  9  8  1  6
 11  9  1  0
 12 11  2  0
 13 14  1  0
 14 15  1  0
 15 16  1  6
 17 15  1  0
 17 18  1  1
 18 11  1  0
 19 17  1  0
 20 19  2  0
 21 19  1  0
M  END
$$$$
