TAI.pdb
     RDKit          3D

 21 20  0  0  1  0  0  0  0  0999 V2000
   17.5127  -11.3570  -17.8726 C   0  0  0  0  0  0  0  0  0  0  0  0
   18.7736  -12.1807  -17.5815 C   0  0  1  0  0  0  0  0  0  0  0  0
   18.7808  -13.3213  -18.3990 O   0  0  0  0  0  0  0  0  0  0  0  0
   19.9593  -11.3345  -17.9560 C   0  0  2  0  0  0  0  0  0  0  0  0
   20.9947  -12.2288  -18.4772 N   0  0  0  0  0  0  0  0  0  0  0  0
   20.4672  -10.6810  -16.6953 C   0  0  0  0  0  0  0  0  0  0  0  0
   19.7431  -10.0265  -15.9129 O   0  0  0  0  0  0  0  0  0  0  0  0
   23.8155  -10.5343  -15.0169 C   0  0  0  0  0  0  0  0  0  0  0  0
   22.3950  -10.0739  -15.2311 C   0  0  2  0  0  0  0  0  0  0  0  0
   21.8429  -10.7875  -16.3381 N   0  0  0  0  0  0  0  0  0  0  0  0
   22.3953   -8.5833  -15.4970 C   0  0  0  0  0  0  0  0  0  0  0  0
   22.5435   -8.1246  -16.6574 O   0  0  0  0  0  0  0  0  0  0  0  0
   19.6654   -3.9424  -16.4732 C   0  0  0  0  0  0  0  0  0  0  0  0
   20.8544   -4.3495  -15.6399 C   0  0  0  0  0  0  0  0  0  0  0  0
   20.8728   -5.8554  -15.3941 C   0  0  2  0  0  0  0  0  0  0  0  0
   19.6940   -6.1975  -14.5168 C   0  0  0  0  0  0  0  0  0  0  0  0
   22.1419   -6.2195  -14.6613 C   0  0  2  0  0  0  0  0  0  0  0  0
   22.2272   -7.6550  -14.4388 N   0  0  0  0  0  0  0  0  0  0  0  0
   22.2473   -5.4823  -13.3664 C   0  0  0  0  0  0  0  0  0  0  0  0
   22.4301   -4.2413  -13.3492 O   0  0  0  0  0  0  0  0  0  0  0  0
   22.1517   -6.1079  -12.1360 O   0  0  0  0  0  0  0  0  0  0  0  0
  2  1  1  6
  2  4  1  0
  3  2  1  0
  4  5  1  1
  6  4  1  0
  6 10  1  0
  7  6  2  0
  9 10  1  0
  9  8  1  6
 11  9  1  0
 12 11  2  0
 13 14  1  0
 14 15  1  0
 15 16  1  1
 17 15  1  0
 17 18  1  1
 18 11  1  0
 19 17  1  0
 20 19  2  0
 21 19  1  0
M  END
$$$$
