TAI.pdb
     RDKit          3D

 21 20  0  0  1  0  0  0  0  0999 V2000
   19.4552  -13.9930  -20.1813 C   0  0  0  0  0  0  0  0  0  0  0  0
   19.9243  -12.9639  -19.1450 C   0  0  1  0  0  0  0  0  0  0  0  0
   18.8744  -12.0756  -18.8660 O   0  0  0  0  0  0  0  0  0  0  0  0
   20.2456  -13.7134  -17.8812 C   0  0  2  0  0  0  0  0  0  0  0  0
   19.0271  -14.4030  -17.4533 N   0  0  0  0  0  0  0  0  0  0  0  0
   20.6250  -12.6965  -16.8340 C   0  0  0  0  0  0  0  0  0  0  0  0
   19.7923  -12.0314  -16.1789 O   0  0  0  0  0  0  0  0  0  0  0  0
   23.8946  -11.5812  -15.3800 C   0  0  0  0  0  0  0  0  0  0  0  0
   22.4023  -11.4780  -15.5750 C   0  0  2  0  0  0  0  0  0  0  0  0
   21.9978  -12.4455  -16.5445 N   0  0  0  0  0  0  0  0  0  0  0  0
   22.0618  -10.0770  -16.0372 C   0  0  0  0  0  0  0  0  0  0  0  0
   22.0586   -9.7716  -17.2562 O   0  0  0  0  0  0  0  0  0  0  0  0
   18.4006   -6.3570  -17.5637 C   0  0  0  0  0  0  0  0  0  0  0  0
   19.6103   -6.3578  -16.6635 C   0  0  0  0  0  0  0  0  0  0  0  0
   20.0052   -7.7763  -16.2626 C   0  0  2  0  0  0  0  0  0  0  0  0
   18.9374   -8.3133  -15.3419 C   0  0  0  0  0  0  0  0  0  0  0  0
   21.3132   -7.7293  -15.5097 C   0  0  2  0  0  0  0  0  0  0  0  0
   21.7343   -9.0618  -15.1036 N   0  0  0  0  0  0  0  0  0  0  0  0
   21.2206   -6.8258  -14.3237 C   0  0  0  0  0  0  0  0  0  0  0  0
   21.1785   -5.5805  -14.4692 O   0  0  0  0  0  0  0  0  0  0  0  0
   21.1762   -7.2958  -13.0231 O   0  0  0  0  0  0  0  0  0  0  0  0
  2  1  1  6
  2  4  1  0
  3  2  1  0
  4  5  1  1
  6  4  1  0
  6 10  1  0
  7  6  2  0
  9 10  1  0
  9  8  1  6
 11  9  1  0
 12 11  2  0
 13 14  1  0
 14 15  1  0
 15 16  1  1
 17 15  1  0
 17 18  1  1
 18 11  1  0
 19 17  1  0
 20 19  2  0
 21 19  1  0
M  END
$$$$
