TAI.pdb
     RDKit          3D

 21 20  0  0  1  0  0  0  0  0999 V2000
   27.8773  -19.5926  -15.6295 C   0  0  0  0  0  0  0  0  0  0  0  0
   27.6792  -18.1164  -15.9964 C   0  0  1  0  0  0  0  0  0  0  0  0
   28.3267  -17.8504  -17.2126 O   0  0  0  0  0  0  0  0  0  0  0  0
   26.2049  -17.8978  -16.1987 C   0  0  2  0  0  0  0  0  0  0  0  0
   26.0139  -16.4997  -16.5891 N   0  0  0  0  0  0  0  0  0  0  0  0
   25.5249  -18.1324  -14.8732 C   0  0  0  0  0  0  0  0  0  0  0  0
   25.7334  -17.4378  -13.8539 O   0  0  0  0  0  0  0  0  0  0  0  0
   22.6779  -20.2708  -13.7793 C   0  0  0  0  0  0  0  0  0  0  0  0
   23.9067  -19.4425  -13.4970 C   0  0  2  0  0  0  0  0  0  0  0  0
   24.5870  -19.1958  -14.7282 N   0  0  0  0  0  0  0  0  0  0  0  0
   24.7969  -20.1956  -12.5311 C   0  0  0  0  0  0  0  0  0  0  0  0
   25.5798  -21.0953  -12.9267 O   0  0  0  0  0  0  0  0  0  0  0  0
   26.7369  -17.5115   -8.2938 C   0  0  0  0  0  0  0  0  0  0  0  0
   26.6984  -18.5527   -9.3839 C   0  0  0  0  0  0  0  0  0  0  0  0
   25.8771  -19.7684   -8.9642 C   0  0  2  0  0  0  0  0  0  0  0  0
   26.7022  -20.5729   -7.9904 C   0  0  0  0  0  0  0  0  0  0  0  0
   25.5997  -20.6192  -10.1804 C   0  0  2  0  0  0  0  0  0  0  0  0
   24.7739  -19.9066  -11.1435 N   0  0  0  0  0  0  0  0  0  0  0  0
   24.9591  -21.9135   -9.7983 C   0  0  0  0  0  0  0  0  0  0  0  0
   23.7136  -22.0526   -9.8545 O   0  0  0  0  0  0  0  0  0  0  0  0
   25.6829  -23.0121   -9.3698 O   0  0  0  0  0  0  0  0  0  0  0  0
  2  1  1  6
  2  4  1  0
  3  2  1  0
  4  5  1  1
  6  4  1  0
  6 10  1  0
  7  6  2  0
  9 10  1  0
  9  8  1  6
 11  9  1  0
 12 11  2  0
 13 14  1  0
 14 15  1  0
 15 16  1  1
 17 15  1  0
 17 18  1  6
 18 11  1  0
 19 17  1  0
 20 19  2  0
 21 19  1  0
M  END
$$$$
