TAI.pdb
     RDKit          3D

 21 20  0  0  1  0  0  0  0  0999 V2000
   18.3312   -8.8328  -18.3666 C   0  0  0  0  0  0  0  0  0  0  0  0
   17.3321   -9.6822  -17.5707 C   0  0  1  0  0  0  0  0  0  0  0  0
   16.5199  -10.3992  -18.4626 O   0  0  0  0  0  0  0  0  0  0  0  0
   18.1264  -10.6747  -16.7669 C   0  0  2  0  0  0  0  0  0  0  0  0
   17.1758  -11.5614  -16.0935 N   0  0  0  0  0  0  0  0  0  0  0  0
   18.8969   -9.9026  -15.7253 C   0  0  0  0  0  0  0  0  0  0  0  0
   18.3783   -9.0549  -14.9655 O   0  0  0  0  0  0  0  0  0  0  0  0
   22.4622   -9.9519  -14.5731 C   0  0  0  0  0  0  0  0  0  0  0  0
   21.0801   -9.3520  -14.6487 C   0  0  2  0  0  0  0  0  0  0  0  0
   20.2968  -10.1175  -15.5652 N   0  0  0  0  0  0  0  0  0  0  0  0
   21.1922   -7.9132  -15.1065 C   0  0  0  0  0  0  0  0  0  0  0  0
   21.3664   -7.6220  -16.3164 O   0  0  0  0  0  0  0  0  0  0  0  0
   17.7804   -4.5236  -15.6458 C   0  0  0  0  0  0  0  0  0  0  0  0
   19.1884   -5.0522  -15.7549 C   0  0  0  0  0  0  0  0  0  0  0  0
   20.0195   -4.6800  -14.5304 C   0  0  2  0  0  0  0  0  0  0  0  0
   20.3378   -3.2077  -14.6149 C   0  0  0  0  0  0  0  0  0  0  0  0
   21.3142   -5.4564  -14.5593 C   0  0  2  0  0  0  0  0  0  0  0  0
   21.1032   -6.8450  -14.1788 N   0  0  0  0  0  0  0  0  0  0  0  0
   22.3423   -4.8234  -13.6797 C   0  0  0  0  0  0  0  0  0  0  0  0
   22.4028   -5.1066  -12.4591 O   0  0  0  0  0  0  0  0  0  0  0  0
   23.2692   -3.9082  -14.1463 O   0  0  0  0  0  0  0  0  0  0  0  0
  2  1  1  6
  2  4  1  0
  3  2  1  0
  4  5  1  1
  6  4  1  0
  6 10  1  0
  7  6  2  0
  9 10  1  0
  9  8  1  6
 11  9  1  0
 12 11  2  0
 13 14  1  0
 14 15  1  0
 15 16  1  6
 17 15  1  0
 17 18  1  1
 18 11  1  0
 19 17  1  0
 20 19  2  0
 21 19  1  0
M  END
$$$$
