TAI.pdb
     RDKit          3D

 21 20  0  0  1  0  0  0  0  0999 V2000
   17.0897  -13.2590  -17.8823 C   0  0  0  0  0  0  0  0  0  0  0  0
   17.3514  -11.7480  -17.8449 C   0  0  1  0  0  0  0  0  0  0  0  0
   16.3040  -11.0801  -18.4977 O   0  0  0  0  0  0  0  0  0  0  0  0
   17.3416  -11.3260  -16.4012 C   0  0  2  0  0  0  0  0  0  0  0  0
   15.9452  -11.2726  -15.9648 N   0  0  0  0  0  0  0  0  0  0  0  0
   17.9296   -9.9391  -16.3294 C   0  0  0  0  0  0  0  0  0  0  0  0
   19.1046   -9.6657  -16.6604 O   0  0  0  0  0  0  0  0  0  0  0  0
   16.5311   -6.5828  -15.4221 C   0  0  0  0  0  0  0  0  0  0  0  0
   17.6605   -7.5243  -15.7593 C   0  0  2  0  0  0  0  0  0  0  0  0
   17.1385   -8.8497  -15.8617 N   0  0  0  0  0  0  0  0  0  0  0  0
   18.7116   -7.4416  -14.6726 C   0  0  0  0  0  0  0  0  0  0  0  0
   18.5567   -8.0161  -13.5658 O   0  0  0  0  0  0  0  0  0  0  0  0
   23.6676   -9.6395  -13.6344 C   0  0  0  0  0  0  0  0  0  0  0  0
   23.0648   -8.2635  -13.5036 C   0  0  0  0  0  0  0  0  0  0  0  0
   21.9032   -8.0699  -14.4741 C   0  0  2  0  0  0  0  0  0  0  0  0
   22.4801   -7.7756  -15.8367 C   0  0  0  0  0  0  0  0  0  0  0  0
   21.0832   -6.8822  -14.0302 C   0  0  2  0  0  0  0  0  0  0  0  0
   19.9090   -6.7096  -14.8722 N   0  0  0  0  0  0  0  0  0  0  0  0
   21.9047   -5.6347  -14.0158 C   0  0  0  0  0  0  0  0  0  0  0  0
   22.7701   -5.4480  -13.1270 O   0  0  0  0  0  0  0  0  0  0  0  0
   21.7653   -4.6328  -14.9598 O   0  0  0  0  0  0  0  0  0  0  0  0
  2  1  1  1
  2  4  1  0
  3  2  1  0
  4  5  1  6
  6  4  1  0
  6 10  1  0
  7  6  2  0
  9 10  1  0
  9  8  1  1
 11  9  1  0
 12 11  2  0
 13 14  1  0
 14 15  1  0
 15 16  1  6
 17 15  1  0
 17 18  1  6
 18 11  1  0
 19 17  1  0
 20 19  2  0
 21 19  1  0
M  END
$$$$
