TAI.pdb
     RDKit          3D

 21 20  0  0  1  0  0  0  0  0999 V2000
   32.6374  -35.2802   -3.5936 C   0  0  0  0  0  0  0  0  0  0  0  0
   33.4851  -35.2813   -4.8720 C   0  0  1  0  0  0  0  0  0  0  0  0
   34.8431  -35.3599   -4.5274 O   0  0  0  0  0  0  0  0  0  0  0  0
   33.1305  -36.5219   -5.6450 C   0  0  2  0  0  0  0  0  0  0  0  0
   33.9040  -36.5055   -6.8880 N   0  0  0  0  0  0  0  0  0  0  0  0
   31.6625  -36.4431   -5.9818 C   0  0  0  0  0  0  0  0  0  0  0  0
   31.2100  -35.8273   -6.9721 O   0  0  0  0  0  0  0  0  0  0  0  0
   28.5976  -38.0746   -4.6005 C   0  0  0  0  0  0  0  0  0  0  0  0
   29.3007  -37.0189   -5.4172 C   0  0  2  0  0  0  0  0  0  0  0  0
   30.7019  -37.0897   -5.1507 N   0  0  0  0  0  0  0  0  0  0  0  0
   28.7492  -35.6591   -5.0439 C   0  0  0  0  0  0  0  0  0  0  0  0
   29.1403  -35.0532   -4.0148 O   0  0  0  0  0  0  0  0  0  0  0  0
   26.5588  -32.5477   -9.0809 C   0  0  0  0  0  0  0  0  0  0  0  0
   27.3175  -33.0137   -7.8639 C   0  0  0  0  0  0  0  0  0  0  0  0
   26.3948  -33.1703   -6.6586 C   0  0  2  0  0  0  0  0  0  0  0  0
   25.8955  -31.7995   -6.2743 C   0  0  0  0  0  0  0  0  0  0  0  0
   27.1850  -33.7377   -5.5038 C   0  0  2  0  0  0  0  0  0  0  0  0
   27.7695  -35.0249   -5.8486 N   0  0  0  0  0  0  0  0  0  0  0  0
   26.3384  -33.8589   -4.2790 C   0  0  0  0  0  0  0  0  0  0  0  0
   26.3508  -32.9631   -3.4008 O   0  0  0  0  0  0  0  0  0  0  0  0
   25.5082  -34.9405   -4.0439 O   0  0  0  0  0  0  0  0  0  0  0  0
  2  1  1  1
  2  4  1  0
  3  2  1  0
  4  5  1  6
  6  4  1  0
  6 10  1  0
  7  6  2  0
  9 10  1  0
  9  8  1  1
 11  9  1  0
 12 11  2  0
 13 14  1  0
 14 15  1  0
 15 16  1  1
 17 15  1  0
 17 18  1  6
 18 11  1  0
 19 17  1  0
 20 19  2  0
 21 19  1  0
M  END
$$$$
