TAI.pdb
     RDKit          3D

 21 20  0  0  1  0  0  0  0  0999 V2000
   20.2048  -22.6172  -13.3909 C   0  0  0  0  0  0  0  0  0  0  0  0
   21.3072  -21.5553  -13.4913 C   0  0  1  0  0  0  0  0  0  0  0  0
   20.7195  -20.2911  -13.6512 O   0  0  0  0  0  0  0  0  0  0  0  0
   22.0534  -21.5577  -12.1853 C   0  0  2  0  0  0  0  0  0  0  0  0
   21.1744  -20.9714  -11.1719 N   0  0  0  0  0  0  0  0  0  0  0  0
   23.2642  -20.6742  -12.3525 C   0  0  0  0  0  0  0  0  0  0  0  0
   23.2254  -19.4253  -12.2921 O   0  0  0  0  0  0  0  0  0  0  0  0
   26.9161  -21.3426  -12.8516 C   0  0  0  0  0  0  0  0  0  0  0  0
   25.6977  -20.4530  -12.8600 C   0  0  2  0  0  0  0  0  0  0  0  0
   24.5438  -21.2523  -12.5972 N   0  0  0  0  0  0  0  0  0  0  0  0
   25.5898  -19.7786  -14.2112 C   0  0  0  0  0  0  0  0  0  0  0  0
   24.8674  -20.2518  -15.1241 O   0  0  0  0  0  0  0  0  0  0  0  0
   25.1762  -14.2065  -16.4945 C   0  0  0  0  0  0  0  0  0  0  0  0
   25.6532  -15.6176  -16.7293 C   0  0  0  0  0  0  0  0  0  0  0  0
   25.8308  -16.3715  -15.4145 C   0  0  2  0  0  0  0  0  0  0  0  0
   27.0238  -15.7857  -14.7004 C   0  0  0  0  0  0  0  0  0  0  0  0
   26.1127  -17.8244  -15.7138 C   0  0  2  0  0  0  0  0  0  0  0  0
   26.3042  -18.5861  -14.4888 N   0  0  0  0  0  0  0  0  0  0  0  0
   27.2980  -17.9700  -16.6112 C   0  0  0  0  0  0  0  0  0  0  0  0
   28.4337  -18.2137  -16.1374 O   0  0  0  0  0  0  0  0  0  0  0  0
   27.2177  -17.8484  -17.9871 O   0  0  0  0  0  0  0  0  0  0  0  0
  2  1  1  1
  2  4  1  0
  3  2  1  0
  4  5  1  1
  6  4  1  0
  6 10  1  0
  7  6  2  0
  9 10  1  0
  9  8  1  6
 11  9  1  0
 12 11  2  0
 13 14  1  0
 14 15  1  0
 15 16  1  6
 17 15  1  0
 17 18  1  1
 18 11  1  0
 19 17  1  0
 20 19  2  0
 21 19  1  0
M  END
$$$$
