TAI.pdb
     RDKit          3D

 21 20  0  0  1  0  0  0  0  0999 V2000
   15.0167  -14.0098  -16.6954 C   0  0  0  0  0  0  0  0  0  0  0  0
   16.1118  -12.9357  -16.6978 C   0  0  1  0  0  0  0  0  0  0  0  0
   16.8117  -12.9849  -15.4825 O   0  0  0  0  0  0  0  0  0  0  0  0
   17.0746  -13.2784  -17.8013 C   0  0  2  0  0  0  0  0  0  0  0  0
   17.6715  -14.5764  -17.4812 N   0  0  0  0  0  0  0  0  0  0  0  0
   18.1578  -12.2290  -17.8012 C   0  0  0  0  0  0  0  0  0  0  0  0
   19.3117  -12.4231  -17.3590 O   0  0  0  0  0  0  0  0  0  0  0  0
   18.3674   -8.7419  -19.1561 C   0  0  0  0  0  0  0  0  0  0  0  0
   18.8996   -9.9152  -18.3712 C   0  0  2  0  0  0  0  0  0  0  0  0
   17.8946  -10.9287  -18.3221 N   0  0  0  0  0  0  0  0  0  0  0  0
   19.2646   -9.4503  -16.9773 C   0  0  0  0  0  0  0  0  0  0  0  0
   18.4326   -9.4843  -16.0362 O   0  0  0  0  0  0  0  0  0  0  0  0
   23.4511  -11.1769  -14.4671 C   0  0  0  0  0  0  0  0  0  0  0  0
   22.1447  -10.5432  -14.8743 C   0  0  0  0  0  0  0  0  0  0  0  0
   22.2553   -9.0220  -14.9240 C   0  0  2  0  0  0  0  0  0  0  0  0
   22.5380   -8.5307  -13.5259 C   0  0  0  0  0  0  0  0  0  0  0  0
   20.9359   -8.4468  -15.3805 C   0  0  2  0  0  0  0  0  0  0  0  0
   20.5634   -8.9602  -16.6901 N   0  0  0  0  0  0  0  0  0  0  0  0
   20.9749   -6.9536  -15.3956 C   0  0  0  0  0  0  0  0  0  0  0  0
   21.2937   -6.3319  -16.4375 O   0  0  0  0  0  0  0  0  0  0  0  0
   20.6686   -6.1831  -14.2880 O   0  0  0  0  0  0  0  0  0  0  0  0
  2  1  1  1
  2  4  1  0
  3  2  1  0
  4  5  1  1
  6  4  1  0
  6 10  1  0
  7  6  2  0
  9 10  1  0
  9  8  1  6
 11  9  1  0
 12 11  2  0
 13 14  1  0
 14 15  1  0
 15 16  1  1
 17 15  1  0
 17 18  1  6
 18 11  1  0
 19 17  1  0
 20 19  2  0
 21 19  1  0
M  END
$$$$
