TAI.pdb
     RDKit          3D

 21 20  0  0  1  0  0  0  0  0999 V2000
   14.6871  -12.1360  -15.0712 C   0  0  0  0  0  0  0  0  0  0  0  0
   15.9155  -11.2329  -15.2399 C   0  0  1  0  0  0  0  0  0  0  0  0
   16.9314  -11.6661  -14.3743 O   0  0  0  0  0  0  0  0  0  0  0  0
   16.4063  -11.4014  -16.6516 C   0  0  2  0  0  0  0  0  0  0  0  0
   16.8774  -12.7801  -16.7952 N   0  0  0  0  0  0  0  0  0  0  0  0
   17.5724  -10.4641  -16.8420 C   0  0  0  0  0  0  0  0  0  0  0  0
   18.7659  -10.7982  -16.6724 O   0  0  0  0  0  0  0  0  0  0  0  0
   17.8802   -6.9297  -18.0421 C   0  0  0  0  0  0  0  0  0  0  0  0
   18.4202   -8.1846  -17.4022 C   0  0  2  0  0  0  0  0  0  0  0  0
   17.3475   -9.1124  -17.2340 N   0  0  0  0  0  0  0  0  0  0  0  0
   19.0397   -7.8292  -16.0672 C   0  0  0  0  0  0  0  0  0  0  0  0
   18.3529   -7.7899  -15.0156 O   0  0  0  0  0  0  0  0  0  0  0  0
   23.4141  -10.0834  -14.3380 C   0  0  0  0  0  0  0  0  0  0  0  0
   22.1191   -9.3229  -14.4738 C   0  0  0  0  0  0  0  0  0  0  0  0
   22.3580   -7.8159  -14.4960 C   0  0  2  0  0  0  0  0  0  0  0  0
   22.9042   -7.4121  -13.1488 C   0  0  0  0  0  0  0  0  0  0  0  0
   21.0404   -7.1113  -14.7137 C   0  0  2  0  0  0  0  0  0  0  0  0
   20.4211   -7.5287  -15.9627 N   0  0  0  0  0  0  0  0  0  0  0  0
   21.2109   -5.6276  -14.6845 C   0  0  0  0  0  0  0  0  0  0  0  0
   21.4519   -5.0318  -13.6071 O   0  0  0  0  0  0  0  0  0  0  0  0
   21.1162   -4.8383  -15.8170 O   0  0  0  0  0  0  0  0  0  0  0  0
  2  1  1  6
  2  4  1  0
  3  2  1  0
  4  5  1  1
  6  4  1  0
  6 10  1  0
  7  6  2  0
  9 10  1  0
  9  8  1  1
 11  9  1  0
 12 11  2  0
 13 14  1  0
 14 15  1  0
 15 16  1  1
 17 15  1  0
 17 18  1  6
 18 11  1  0
 19 17  1  0
 20 19  2  0
 21 19  1  0
M  END
$$$$
