TAI.pdb
     RDKit          3D

 21 20  0  0  1  0  0  0  0  0999 V2000
   26.0617  -10.6391  -19.2610 C   0  0  0  0  0  0  0  0  0  0  0  0
   25.2173  -11.7902  -19.8223 C   0  0  1  0  0  0  0  0  0  0  0  0
   26.0002  -12.5528  -20.7024 O   0  0  0  0  0  0  0  0  0  0  0  0
   24.8310  -12.6697  -18.6649 C   0  0  2  0  0  0  0  0  0  0  0  0
   24.2035  -13.8734  -19.2134 N   0  0  0  0  0  0  0  0  0  0  0  0
   23.8130  -11.9188  -17.8438 C   0  0  0  0  0  0  0  0  0  0  0  0
   22.7219  -11.5083  -18.2975 O   0  0  0  0  0  0  0  0  0  0  0  0
   23.6360  -10.9017  -14.2401 C   0  0  0  0  0  0  0  0  0  0  0  0
   23.1599  -10.8781  -15.6714 C   0  0  2  0  0  0  0  0  0  0  0  0
   24.0686  -11.6369  -16.4702 N   0  0  0  0  0  0  0  0  0  0  0  0
   23.0959   -9.4415  -16.1454 C   0  0  0  0  0  0  0  0  0  0  0  0
   23.9935   -8.9517  -16.8758 O   0  0  0  0  0  0  0  0  0  0  0  0
   21.2958   -5.8297  -19.8166 C   0  0  0  0  0  0  0  0  0  0  0  0
   21.4492   -5.8649  -18.3169 C   0  0  0  0  0  0  0  0  0  0  0  0
   21.6462   -7.2909  -17.8106 C   0  0  2  0  0  0  0  0  0  0  0  0
   20.3891   -8.0688  -18.1116 C   0  0  0  0  0  0  0  0  0  0  0  0
   21.8478   -7.2590  -16.3145 C   0  0  2  0  0  0  0  0  0  0  0  0
   22.0152   -8.6011  -15.7777 N   0  0  0  0  0  0  0  0  0  0  0  0
   20.7172   -6.5601  -15.6328 C   0  0  0  0  0  0  0  0  0  0  0  0
   19.7555   -7.2107  -15.1577 O   0  0  0  0  0  0  0  0  0  0  0  0
   20.6628   -5.1853  -15.4867 O   0  0  0  0  0  0  0  0  0  0  0  0
  2  1  1  1
  2  4  1  0
  3  2  1  0
  4  5  1  6
  6  4  1  0
  6 10  1  0
  7  6  2  0
  9 10  1  0
  9  8  1  1
 11  9  1  0
 12 11  2  0
 13 14  1  0
 14 15  1  0
 15 16  1  1
 17 15  1  0
 17 18  1  1
 18 11  1  0
 19 17  1  0
 20 19  2  0
 21 19  1  0
M  END
$$$$
