TAI.pdb
     RDKit          3D

 21 20  0  0  1  0  0  0  0  0999 V2000
   20.6928  -10.0091  -19.3124 C   0  0  0  0  0  0  0  0  0  0  0  0
   19.9418  -11.2305  -18.7672 C   0  0  1  0  0  0  0  0  0  0  0  0
   19.5638  -12.0572  -19.8362 O   0  0  0  0  0  0  0  0  0  0  0  0
   20.9031  -12.0001  -17.9035 C   0  0  2  0  0  0  0  0  0  0  0  0
   20.2401  -13.2417  -17.5005 N   0  0  0  0  0  0  0  0  0  0  0  0
   21.1744  -11.1695  -16.6743 C   0  0  0  0  0  0  0  0  0  0  0  0
   20.2757  -10.6564  -15.9715 O   0  0  0  0  0  0  0  0  0  0  0  0
   24.2913  -10.1686  -14.8519 C   0  0  0  0  0  0  0  0  0  0  0  0
   22.8234  -10.0439  -15.1769 C   0  0  2  0  0  0  0  0  0  0  0  0
   22.5151  -10.9281  -16.2551 N   0  0  0  0  0  0  0  0  0  0  0  0
   22.5228   -8.6087  -15.5541 C   0  0  0  0  0  0  0  0  0  0  0  0
   22.8205   -8.1525  -16.6865 O   0  0  0  0  0  0  0  0  0  0  0  0
   18.2663   -6.4279  -16.5960 C   0  0  0  0  0  0  0  0  0  0  0  0
   19.7478   -6.6318  -16.4023 C   0  0  0  0  0  0  0  0  0  0  0  0
   20.2322   -5.9963  -15.1022 C   0  0  2  0  0  0  0  0  0  0  0  0
   20.0781   -4.5009  -15.2303 C   0  0  0  0  0  0  0  0  0  0  0  0
   21.6956   -6.3165  -14.9127 C   0  0  2  0  0  0  0  0  0  0  0  0
   21.8927   -7.7314  -14.6360 N   0  0  0  0  0  0  0  0  0  0  0  0
   22.2938   -5.4828  -13.8271 C   0  0  0  0  0  0  0  0  0  0  0  0
   22.6696   -4.3079  -14.0554 O   0  0  0  0  0  0  0  0  0  0  0  0
   22.4656   -5.9442  -12.5341 O   0  0  0  0  0  0  0  0  0  0  0  0
  2  1  1  6
  2  4  1  0
  3  2  1  0
  4  5  1  1
  6  4  1  0
  6 10  1  0
  7  6  2  0
  9 10  1  0
  9  8  1  6
 11  9  1  0
 12 11  2  0
 13 14  1  0
 14 15  1  0
 15 16  1  6
 17 15  1  0
 17 18  1  1
 18 11  1  0
 19 17  1  0
 20 19  2  0
 21 19  1  0
M  END
$$$$
