AFP.pdb
     RDKit          3D

 24 25  0  0  1  0  0  0  0  0999 V2000
    7.8981  -15.5504   18.5641 C   0  0  0  0  0  0  0  0  0  0  0  0
    7.4880  -14.1967   19.1279 C   0  0  2  0  0  0  0  0  0  0  0  0
    8.0018  -13.1676   18.2327 N   0  0  0  0  0  0  0  0  0  0  0  0
    8.0941  -14.0842   20.4812 C   0  0  0  0  0  0  0  0  0  0  0  0
    9.2445  -13.6129   20.5513 O   0  0  0  0  0  0  0  0  0  0  0  0
    7.4373  -14.4776   21.6429 N   0  0  0  0  0  0  0  0  0  0  0  0
    7.9352  -14.1620   23.0170 C   0  0  1  0  0  0  0  0  0  0  0  0
    6.7519  -13.4348   23.6113 C   0  0  0  0  0  0  0  0  0  0  0  0
    6.8140  -13.0351   24.9928 C   0  0  0  0  0  0  0  0  0  0  0  0
    7.6343  -12.0230   25.4238 C   0  0  0  0  0  0  0  0  0  0  0  0
    7.6881  -11.6454   26.7673 C   0  0  0  0  0  0  0  0  0  0  0  0
    6.9097  -12.2887   27.6994 C   0  0  0  0  0  0  0  0  0  0  0  0
    6.0724  -13.3144   27.2894 C   0  0  0  0  0  0  0  0  0  0  0  0
    6.0301  -13.6766   25.9573 C   0  0  0  0  0  0  0  0  0  0  0  0
    8.1397  -15.4801   23.6394 C   0  0  0  0  0  0  0  0  0  0  0  0
    7.2197  -16.3750   23.5583 O   0  0  0  0  0  0  0  0  0  0  0  0
    9.3093  -15.8695   24.3448 N   0  0  0  0  0  0  0  0  0  0  0  0
   10.5629  -15.1994   24.2362 C   0  0  0  0  0  0  0  0  0  0  0  0
   11.2163  -15.4608   25.5744 C   0  0  0  0  0  0  0  0  0  0  0  0
   10.6516  -16.7812   26.0288 C   0  0  0  0  0  0  0  0  0  0  0  0
    9.4352  -17.0167   25.1607 C   0  0  1  0  0  0  0  0  0  0  0  0
    8.2583  -17.3189   26.0259 C   0  0  0  0  0  0  0  0  0  0  0  0
    8.0527  -18.5040   26.6913 O   0  0  0  0  0  0  0  0  0  0  0  0
    7.4008  -16.3755   26.1242 O   0  0  0  0  0  0  0  0  0  0  0  0
  2  1  1  6
  2  4  1  0
  2  3  1  0
  4  5  2  0
  6  7  1  0
  6  4  1  0
  7 15  1  0
  8  9  1  0
  7  8  1  1
  9 10  2  0
 10 11  1  0
 12 11  2  0
 13 12  1  0
 14 13  2  0
 14  9  1  0
 15 17  1  0
 15 16  2  0
 17 21  1  0
 18 17  1  0
 19 20  1  0
 19 18  1  0
 20 21  1  0
 21 22  1  1
 22 24  2  0
 22 23  1  0
M  END
$$$$
