AFP.pdb
     RDKit          3D

 24 25  0  0  1  0  0  0  0  0999 V2000
   11.2411  -18.3803   21.6395 C   0  0  0  0  0  0  0  0  0  0  0  0
   10.4769  -17.1719   21.1157 C   0  0  2  0  0  0  0  0  0  0  0  0
   11.2303  -16.6198   19.9967 N   0  0  0  0  0  0  0  0  0  0  0  0
   10.3812  -16.1960   22.2337 C   0  0  0  0  0  0  0  0  0  0  0  0
   11.3186  -15.3868   22.3634 O   0  0  0  0  0  0  0  0  0  0  0  0
    9.3078  -16.1566   23.1179 N   0  0  0  0  0  0  0  0  0  0  0  0
    9.1360  -15.0952   24.1570 C   0  0  1  0  0  0  0  0  0  0  0  0
    7.6622  -14.7857   24.0369 C   0  0  0  0  0  0  0  0  0  0  0  0
    7.0762  -13.8600   24.9705 C   0  0  0  0  0  0  0  0  0  0  0  0
    6.1199  -14.2440   25.8766 C   0  0  0  0  0  0  0  0  0  0  0  0
    5.5564  -13.3364   26.7762 C   0  0  0  0  0  0  0  0  0  0  0  0
    5.9534  -12.0207   26.7729 C   0  0  0  0  0  0  0  0  0  0  0  0
    6.9181  -11.6077   25.8674 C   0  0  0  0  0  0  0  0  0  0  0  0
    7.4661  -12.5168   24.9839 C   0  0  0  0  0  0  0  0  0  0  0  0
    9.4538  -15.7742   25.4237 C   0  0  0  0  0  0  0  0  0  0  0  0
    9.2291  -17.0344   25.5475 O   0  0  0  0  0  0  0  0  0  0  0  0
   10.0125  -15.1390   26.5646 N   0  0  0  0  0  0  0  0  0  0  0  0
   10.2700  -13.7394   26.6486 C   0  0  0  0  0  0  0  0  0  0  0  0
   10.1599  -13.4517   28.1288 C   0  0  0  0  0  0  0  0  0  0  0  0
   10.5578  -14.7386   28.8032 C   0  0  0  0  0  0  0  0  0  0  0  0
   10.4863  -15.7955   27.7231 C   0  0  1  0  0  0  0  0  0  0  0  0
    9.6514  -16.9364   28.1988 C   0  0  0  0  0  0  0  0  0  0  0  0
   10.0386  -17.8563   29.1440 O   0  0  0  0  0  0  0  0  0  0  0  0
    8.4971  -17.0270   27.6562 O   0  0  0  0  0  0  0  0  0  0  0  0
  2  1  1  1
  2  4  1  0
  2  3  1  0
  4  5  2  0
  6  7  1  0
  6  4  1  0
  7 15  1  0
  8  9  1  0
  7  8  1  1
  9 10  2  0
 10 11  1  0
 12 11  2  0
 13 12  1  0
 14 13  2  0
 14  9  1  0
 15 17  1  0
 15 16  2  0
 17 21  1  0
 18 17  1  0
 19 20  1  0
 19 18  1  0
 20 21  1  0
 21 22  1  1
 22 24  2  0
 22 23  1  0
M  END
$$$$
