AFP.pdb
     RDKit          3D

 24 25  0  0  1  0  0  0  0  0999 V2000
    6.3949  -20.4402   22.5239 C   0  0  0  0  0  0  0  0  0  0  0  0
    5.3847  -19.8566   23.5026 C   0  0  2  0  0  0  0  0  0  0  0  0
    4.0535  -20.2399   23.0495 N   0  0  0  0  0  0  0  0  0  0  0  0
    5.5563  -18.3797   23.4803 C   0  0  0  0  0  0  0  0  0  0  0  0
    4.9068  -17.7450   22.6284 O   0  0  0  0  0  0  0  0  0  0  0  0
    6.3962  -17.6991   24.3560 N   0  0  0  0  0  0  0  0  0  0  0  0
    6.6497  -16.2276   24.2768 C   0  0  1  0  0  0  0  0  0  0  0  0
    7.0152  -15.9030   25.7062 C   0  0  0  0  0  0  0  0  0  0  0  0
    7.2243  -14.5250   26.0661 C   0  0  0  0  0  0  0  0  0  0  0  0
    8.4796  -13.9965   26.2331 C   0  0  0  0  0  0  0  0  0  0  0  0
    8.6703  -12.6584   26.5848 C   0  0  0  0  0  0  0  0  0  0  0  0
    7.5895  -11.8310   26.7739 C   0  0  0  0  0  0  0  0  0  0  0  0
    6.3109  -12.3408   26.6109 C   0  0  0  0  0  0  0  0  0  0  0  0
    6.1382  -13.6660   26.2630 C   0  0  0  0  0  0  0  0  0  0  0  0
    7.8054  -16.1078   23.3730 C   0  0  0  0  0  0  0  0  0  0  0  0
    8.8011  -16.9121   23.4983 O   0  0  0  0  0  0  0  0  0  0  0  0
    7.9224  -15.1495   22.3312 N   0  0  0  0  0  0  0  0  0  0  0  0
    6.8512  -14.3171   21.8933 C   0  0  0  0  0  0  0  0  0  0  0  0
    7.5564  -13.0884   21.3653 C   0  0  0  0  0  0  0  0  0  0  0  0
    8.8966  -13.5860   20.8907 C   0  0  0  0  0  0  0  0  0  0  0  0
    9.0608  -14.9533   21.5169 C   0  0  1  0  0  0  0  0  0  0  0  0
   10.3726  -15.0218   22.2237 C   0  0  0  0  0  0  0  0  0  0  0  0
   10.5365  -14.9743   23.5877 O   0  0  0  0  0  0  0  0  0  0  0  0
   11.3941  -15.1301   21.4622 O   0  0  0  0  0  0  0  0  0  0  0  0
  2  1  1  6
  2  4  1  0
  2  3  1  0
  4  5  2  0
  6  7  1  0
  6  4  1  0
  7 15  1  0
  8  9  1  0
  7  8  1  1
  9 10  2  0
 10 11  1  0
 12 11  2  0
 13 12  1  0
 14 13  2  0
 14  9  1  0
 15 17  1  0
 15 16  2  0
 17 21  1  0
 18 17  1  0
 19 20  1  0
 19 18  1  0
 20 21  1  0
 21 22  1  1
 22 24  2  0
 22 23  1  0
M  END
$$$$
