AFP.pdb
     RDKit          3D

 24 25  0  0  1  0  0  0  0  0999 V2000
   11.7050  -18.5177   21.9444 C   0  0  0  0  0  0  0  0  0  0  0  0
   10.8809  -17.4056   21.3097 C   0  0  2  0  0  0  0  0  0  0  0  0
   11.6390  -16.8779   20.1823 N   0  0  0  0  0  0  0  0  0  0  0  0
   10.6725  -16.3656   22.3520 C   0  0  0  0  0  0  0  0  0  0  0  0
   11.5255  -15.4620   22.4317 O   0  0  0  0  0  0  0  0  0  0  0  0
    9.5851  -16.3670   23.2199 N   0  0  0  0  0  0  0  0  0  0  0  0
    9.3259  -15.2824   24.2161 C   0  0  1  0  0  0  0  0  0  0  0  0
    7.8426  -15.0551   24.0414 C   0  0  0  0  0  0  0  0  0  0  0  0
    7.1964  -14.0695   24.8678 C   0  0  0  0  0  0  0  0  0  0  0  0
    6.3089  -14.4139   25.8561 C   0  0  0  0  0  0  0  0  0  0  0  0
    5.6859  -13.4487   26.6503 C   0  0  0  0  0  0  0  0  0  0  0  0
    5.9523  -12.1146   26.4559 C   0  0  0  0  0  0  0  0  0  0  0  0
    6.8454  -11.7407   25.4640 C   0  0  0  0  0  0  0  0  0  0  0  0
    7.4536  -12.7067   24.6867 C   0  0  0  0  0  0  0  0  0  0  0  0
    9.6380  -15.9017   25.5145 C   0  0  0  0  0  0  0  0  0  0  0  0
    9.5029  -17.1716   25.6661 O   0  0  0  0  0  0  0  0  0  0  0  0
   10.0975  -15.1960   26.6582 N   0  0  0  0  0  0  0  0  0  0  0  0
   10.2721  -13.7818   26.7024 C   0  0  0  0  0  0  0  0  0  0  0  0
   10.0655  -13.4493   28.1627 C   0  0  0  0  0  0  0  0  0  0  0  0
   10.4963  -14.6868   28.9056 C   0  0  0  0  0  0  0  0  0  0  0  0
   10.5427  -15.7833   27.8643 C   0  0  1  0  0  0  0  0  0  0  0  0
    9.7474  -16.9527   28.3383 C   0  0  0  0  0  0  0  0  0  0  0  0
   10.1468  -17.8340   29.3147 O   0  0  0  0  0  0  0  0  0  0  0  0
    8.6165  -17.1090   27.7623 O   0  0  0  0  0  0  0  0  0  0  0  0
  2  1  1  1
  2  4  1  0
  2  3  1  0
  4  5  2  0
  6  7  1  0
  6  4  1  0
  7 15  1  0
  8  9  1  0
  7  8  1  1
  9 10  2  0
 10 11  1  0
 12 11  2  0
 13 12  1  0
 14 13  2  0
 14  9  1  0
 15 17  1  0
 15 16  2  0
 17 21  1  0
 18 17  1  0
 19 20  1  0
 19 18  1  0
 20 21  1  0
 21 22  1  1
 22 24  2  0
 22 23  1  0
M  END
$$$$
