AFP.pdb
     RDKit          3D

 24 25  0  0  1  0  0  0  0  0999 V2000
    6.6772  -20.7366   23.0034 C   0  0  0  0  0  0  0  0  0  0  0  0
    5.5626  -20.1267   23.8427 C   0  0  2  0  0  0  0  0  0  0  0  0
    4.2918  -20.5848   23.2952 N   0  0  0  0  0  0  0  0  0  0  0  0
    5.6929  -18.6492   23.7365 C   0  0  0  0  0  0  0  0  0  0  0  0
    5.0814  -18.0901   22.8070 O   0  0  0  0  0  0  0  0  0  0  0  0
    6.4553  -17.8885   24.6172 N   0  0  0  0  0  0  0  0  0  0  0  0
    6.5989  -16.4040   24.5109 C   0  0  1  0  0  0  0  0  0  0  0  0
    6.8898  -16.0217   25.9432 C   0  0  0  0  0  0  0  0  0  0  0  0
    7.0747  -14.6295   26.2588 C   0  0  0  0  0  0  0  0  0  0  0  0
    6.0167  -13.7702   26.4178 C   0  0  0  0  0  0  0  0  0  0  0  0
    6.2083  -12.4205   26.7216 C   0  0  0  0  0  0  0  0  0  0  0  0
    7.4785  -11.9174   26.8698 C   0  0  0  0  0  0  0  0  0  0  0  0
    8.5641  -12.7650   26.7144 C   0  0  0  0  0  0  0  0  0  0  0  0
    8.3588  -14.0973   26.4140 C   0  0  0  0  0  0  0  0  0  0  0  0
    7.7723  -16.2153   23.6424 C   0  0  0  0  0  0  0  0  0  0  0  0
    8.8099  -16.9588   23.7991 O   0  0  0  0  0  0  0  0  0  0  0  0
    7.8635  -15.2516   22.6030 N   0  0  0  0  0  0  0  0  0  0  0  0
    6.7790  -14.4240   22.1893 C   0  0  0  0  0  0  0  0  0  0  0  0
    7.4663  -13.1885   21.6538 C   0  0  0  0  0  0  0  0  0  0  0  0
    8.8004  -13.6754   21.1516 C   0  0  0  0  0  0  0  0  0  0  0  0
    8.9850  -15.0445   21.7682 C   0  0  1  0  0  0  0  0  0  0  0  0
   10.3104  -15.1080   22.4497 C   0  0  0  0  0  0  0  0  0  0  0  0
   10.5000  -15.0624   23.8104 O   0  0  0  0  0  0  0  0  0  0  0  0
   11.3176  -15.2095   21.6686 O   0  0  0  0  0  0  0  0  0  0  0  0
  2  1  1  6
  2  4  1  0
  2  3  1  0
  4  5  2  0
  6  7  1  0
  6  4  1  0
  7 15  1  0
  8  9  1  0
  7  8  1  1
  9 10  2  0
 10 11  1  0
 12 11  2  0
 13 12  1  0
 14 13  2  0
 14  9  1  0
 15 17  1  0
 15 16  2  0
 17 21  1  0
 18 17  1  0
 19 20  1  0
 19 18  1  0
 20 21  1  0
 21 22  1  1
 22 24  2  0
 22 23  1  0
M  END
$$$$
