AFP.pdb
     RDKit          3D

 24 25  0  0  1  0  0  0  0  0999 V2000
   11.3577  -18.5285   21.8550 C   0  0  0  0  0  0  0  0  0  0  0  0
   10.6743  -17.2964   21.2773 C   0  0  2  0  0  0  0  0  0  0  0  0
   11.5150  -16.7841   20.2025 N   0  0  0  0  0  0  0  0  0  0  0  0
   10.5493  -16.3073   22.3807 C   0  0  0  0  0  0  0  0  0  0  0  0
   11.5151  -15.5452   22.5729 O   0  0  0  0  0  0  0  0  0  0  0  0
    9.4192  -16.2062   23.1858 N   0  0  0  0  0  0  0  0  0  0  0  0
    9.2442  -15.1500   24.2297 C   0  0  1  0  0  0  0  0  0  0  0  0
    7.7698  -14.8432   24.1100 C   0  0  0  0  0  0  0  0  0  0  0  0
    7.1864  -13.9038   25.0314 C   0  0  0  0  0  0  0  0  0  0  0  0
    7.4599  -12.5603   24.9753 C   0  0  0  0  0  0  0  0  0  0  0  0
    6.8898  -11.6582   25.8763 C   0  0  0  0  0  0  0  0  0  0  0  0
    6.0306  -12.1034   26.8521 C   0  0  0  0  0  0  0  0  0  0  0  0
    5.7379  -13.4560   26.9298 C   0  0  0  0  0  0  0  0  0  0  0  0
    6.3094  -14.3359   26.0317 C   0  0  0  0  0  0  0  0  0  0  0  0
    9.5626  -15.8342   25.4935 C   0  0  0  0  0  0  0  0  0  0  0  0
    9.3545  -17.0982   25.6063 O   0  0  0  0  0  0  0  0  0  0  0  0
   10.1048  -15.2001   26.6430 N   0  0  0  0  0  0  0  0  0  0  0  0
   10.3688  -13.8018   26.7290 C   0  0  0  0  0  0  0  0  0  0  0  0
   10.2342  -13.5107   28.2066 C   0  0  0  0  0  0  0  0  0  0  0  0
   10.6126  -14.7985   28.8902 C   0  0  0  0  0  0  0  0  0  0  0  0
   10.5542  -15.8571   27.8109 C   0  0  1  0  0  0  0  0  0  0  0  0
    9.7044  -16.9922   28.2737 C   0  0  0  0  0  0  0  0  0  0  0  0
    8.4228  -17.2434   27.8449 O   0  0  0  0  0  0  0  0  0  0  0  0
   10.2504  -17.7620   29.1365 O   0  0  0  0  0  0  0  0  0  0  0  0
  2  1  1  1
  2  4  1  0
  2  3  1  0
  4  5  2  0
  6  7  1  0
  6  4  1  0
  7 15  1  0
  8  9  1  0
  7  8  1  1
  9 10  2  0
 10 11  1  0
 12 11  2  0
 13 12  1  0
 14 13  2  0
 14  9  1  0
 15 17  1  0
 15 16  2  0
 17 21  1  0
 18 17  1  0
 19 20  1  0
 19 18  1  0
 20 21  1  0
 21 22  1  1
 22 24  2  0
 22 23  1  0
M  END
$$$$
