AFP.pdb
     RDKit          3D

 24 25  0  0  1  0  0  0  0  0999 V2000
    7.1761  -21.0560   23.4587 C   0  0  0  0  0  0  0  0  0  0  0  0
    6.0896  -20.4933   24.3653 C   0  0  2  0  0  0  0  0  0  0  0  0
    4.8216  -21.0885   23.9626 N   0  0  0  0  0  0  0  0  0  0  0  0
    6.0777  -19.0190   24.1714 C   0  0  0  0  0  0  0  0  0  0  0  0
    5.3861  -18.5744   23.2362 O   0  0  0  0  0  0  0  0  0  0  0  0
    6.7944  -18.1408   24.9780 N   0  0  0  0  0  0  0  0  0  0  0  0
    6.7978  -16.6586   24.7810 C   0  0  1  0  0  0  0  0  0  0  0  0
    7.0566  -16.1642   26.1848 C   0  0  0  0  0  0  0  0  0  0  0  0
    7.0852  -14.7442   26.4190 C   0  0  0  0  0  0  0  0  0  0  0  0
    5.9388  -13.9943   26.4990 C   0  0  0  0  0  0  0  0  0  0  0  0
    5.9788  -12.6165   26.7240 C   0  0  0  0  0  0  0  0  0  0  0  0
    7.1843  -11.9735   26.8722 C   0  0  0  0  0  0  0  0  0  0  0  0
    8.3568  -12.7087   26.7958 C   0  0  0  0  0  0  0  0  0  0  0  0
    8.3013  -14.0705   26.5727 C   0  0  0  0  0  0  0  0  0  0  0  0
    7.9451  -16.4144   23.8918 C   0  0  0  0  0  0  0  0  0  0  0  0
    9.0194  -17.1079   24.0292 O   0  0  0  0  0  0  0  0  0  0  0  0
    7.9719  -15.4474   22.8519 N   0  0  0  0  0  0  0  0  0  0  0  0
    6.8977  -14.5535   22.5701 C   0  0  0  0  0  0  0  0  0  0  0  0
    7.5903  -13.3551   21.9618 C   0  0  0  0  0  0  0  0  0  0  0  0
    8.8256  -13.9144   21.3059 C   0  0  0  0  0  0  0  0  0  0  0  0
    8.9991  -15.2980   21.8925 C   0  0  1  0  0  0  0  0  0  0  0  0
   10.3886  -15.4459   22.4145 C   0  0  0  0  0  0  0  0  0  0  0  0
   11.5128  -15.5830   21.6355 O   0  0  0  0  0  0  0  0  0  0  0  0
   10.4926  -15.4418   23.6889 O   0  0  0  0  0  0  0  0  0  0  0  0
  2  1  1  6
  2  4  1  0
  2  3  1  0
  4  5  2  0
  6  7  1  0
  6  4  1  0
  7 15  1  0
  8  9  1  0
  7  8  1  1
  9 10  2  0
 10 11  1  0
 12 11  2  0
 13 12  1  0
 14 13  2  0
 14  9  1  0
 15 17  1  0
 15 16  2  0
 17 21  1  0
 18 17  1  0
 19 20  1  0
 19 18  1  0
 20 21  1  0
 21 22  1  1
 22 24  2  0
 22 23  1  0
M  END
$$$$
