AFP.pdb
     RDKit          3D

 24 25  0  0  1  0  0  0  0  0999 V2000
    6.5960  -20.7114   22.6738 C   0  0  0  0  0  0  0  0  0  0  0  0
    5.5928  -20.1188   23.6543 C   0  0  2  0  0  0  0  0  0  0  0  0
    4.2601  -20.5276   23.2289 N   0  0  0  0  0  0  0  0  0  0  0  0
    5.7460  -18.6407   23.5976 C   0  0  0  0  0  0  0  0  0  0  0  0
    5.1718  -18.0451   22.6671 O   0  0  0  0  0  0  0  0  0  0  0  0
    6.4901  -17.9180   24.5248 N   0  0  0  0  0  0  0  0  0  0  0  0
    6.6296  -16.4297   24.4876 C   0  0  1  0  0  0  0  0  0  0  0  0
    6.8325  -16.1052   25.9491 C   0  0  0  0  0  0  0  0  0  0  0  0
    6.9970  -14.7270   26.3306 C   0  0  0  0  0  0  0  0  0  0  0  0
    8.2306  -14.1820   26.5843 C   0  0  0  0  0  0  0  0  0  0  0  0
    8.3779  -12.8439   26.9562 C   0  0  0  0  0  0  0  0  0  0  0  0
    7.2749  -12.0332   27.0777 C   0  0  0  0  0  0  0  0  0  0  0  0
    6.0176  -12.5598   26.8266 C   0  0  0  0  0  0  0  0  0  0  0  0
    5.8878  -13.8849   26.4597 C   0  0  0  0  0  0  0  0  0  0  0  0
    7.8511  -16.2005   23.6989 C   0  0  0  0  0  0  0  0  0  0  0  0
    8.9058  -16.8969   23.9366 O   0  0  0  0  0  0  0  0  0  0  0  0
    7.9730  -15.2453   22.6548 N   0  0  0  0  0  0  0  0  0  0  0  0
    6.8936  -14.4437   22.1811 C   0  0  0  0  0  0  0  0  0  0  0  0
    7.5815  -13.1998   21.6657 C   0  0  0  0  0  0  0  0  0  0  0  0
    8.9473  -13.6649   21.2329 C   0  0  0  0  0  0  0  0  0  0  0  0
    9.1290  -15.0239   21.8722 C   0  0  1  0  0  0  0  0  0  0  0  0
   10.4212  -15.0541   22.6167 C   0  0  0  0  0  0  0  0  0  0  0  0
   10.5436  -15.0141   23.9852 O   0  0  0  0  0  0  0  0  0  0  0  0
   11.4676  -15.1199   21.8846 O   0  0  0  0  0  0  0  0  0  0  0  0
  2  1  1  6
  2  4  1  0
  2  3  1  0
  4  5  2  0
  6  7  1  0
  6  4  1  0
  7 15  1  0
  8  9  1  0
  7  8  1  1
  9 10  2  0
 10 11  1  0
 12 11  2  0
 13 12  1  0
 14 13  2  0
 14  9  1  0
 15 17  1  0
 15 16  2  0
 17 21  1  0
 18 17  1  0
 19 20  1  0
 19 18  1  0
 20 21  1  0
 21 22  1  1
 22 24  2  0
 22 23  1  0
M  END
$$$$
