AFP.pdb
     RDKit          3D

 24 25  0  0  1  0  0  0  0  0999 V2000
   10.6810  -16.4075   19.8187 C   0  0  0  0  0  0  0  0  0  0  0  0
   10.7286  -17.1703   21.1358 C   0  0  2  0  0  0  0  0  0  0  0  0
    9.6157  -18.1114   21.1455 N   0  0  0  0  0  0  0  0  0  0  0  0
   10.5958  -16.1687   22.2269 C   0  0  0  0  0  0  0  0  0  0  0  0
   11.4750  -15.2901   22.3018 O   0  0  0  0  0  0  0  0  0  0  0  0
    9.5499  -16.1787   23.1442 N   0  0  0  0  0  0  0  0  0  0  0  0
    9.3543  -15.1191   24.1810 C   0  0  1  0  0  0  0  0  0  0  0  0
    7.8688  -14.8632   24.0800 C   0  0  0  0  0  0  0  0  0  0  0  0
    7.2861  -13.8553   24.9266 C   0  0  0  0  0  0  0  0  0  0  0  0
    7.5809  -12.5227   24.7843 C   0  0  0  0  0  0  0  0  0  0  0  0
    7.0112  -11.5538   25.6133 C   0  0  0  0  0  0  0  0  0  0  0  0
    6.1309  -11.9197   26.6031 C   0  0  0  0  0  0  0  0  0  0  0  0
    5.8165  -13.2596   26.7671 C   0  0  0  0  0  0  0  0  0  0  0  0
    6.3878  -14.2063   25.9396 C   0  0  0  0  0  0  0  0  0  0  0  0
    9.7135  -15.7802   25.4461 C   0  0  0  0  0  0  0  0  0  0  0  0
    9.5524  -17.0499   25.5723 O   0  0  0  0  0  0  0  0  0  0  0  0
   10.2475  -15.1169   26.5829 N   0  0  0  0  0  0  0  0  0  0  0  0
   10.4821  -13.7122   26.6460 C   0  0  0  0  0  0  0  0  0  0  0  0
   10.3483  -13.4010   28.1194 C   0  0  0  0  0  0  0  0  0  0  0  0
   10.7572  -14.6698   28.8210 C   0  0  0  0  0  0  0  0  0  0  0  0
   10.7162  -15.7460   27.7586 C   0  0  1  0  0  0  0  0  0  0  0  0
    9.8930  -16.8915   28.2432 C   0  0  0  0  0  0  0  0  0  0  0  0
   10.3058  -17.8252   29.1637 O   0  0  0  0  0  0  0  0  0  0  0  0
    8.7228  -16.9723   27.7341 O   0  0  0  0  0  0  0  0  0  0  0  0
  2  1  1  6
  2  4  1  0
  2  3  1  0
  4  5  2  0
  6  7  1  0
  6  4  1  0
  7 15  1  0
  8  9  1  0
  7  8  1  1
  9 10  2  0
 10 11  1  0
 12 11  2  0
 13 12  1  0
 14 13  2  0
 14  9  1  0
 15 17  1  0
 15 16  2  0
 17 21  1  0
 18 17  1  0
 19 20  1  0
 19 18  1  0
 20 21  1  0
 21 22  1  1
 22 24  2  0
 22 23  1  0
M  END
$$$$
