AFP.pdb
     RDKit          3D

 24 25  0  0  1  0  0  0  0  0999 V2000
    6.8979  -20.7539   22.9819 C   0  0  0  0  0  0  0  0  0  0  0  0
    5.7585  -20.1591   23.7986 C   0  0  2  0  0  0  0  0  0  0  0  0
    4.5054  -20.6410   23.2311 N   0  0  0  0  0  0  0  0  0  0  0  0
    5.8659  -18.6801   23.6877 C   0  0  0  0  0  0  0  0  0  0  0  0
    5.1813  -18.1249   22.8082 O   0  0  0  0  0  0  0  0  0  0  0  0
    6.6843  -17.9139   24.5116 N   0  0  0  0  0  0  0  0  0  0  0  0
    6.7792  -16.4243   24.4219 C   0  0  1  0  0  0  0  0  0  0  0  0
    7.1012  -16.0520   25.8502 C   0  0  0  0  0  0  0  0  0  0  0  0
    7.1260  -14.6580   26.2080 C   0  0  0  0  0  0  0  0  0  0  0  0
    8.2996  -13.9808   26.4250 C   0  0  0  0  0  0  0  0  0  0  0  0
    8.3115  -12.6286   26.7742 C   0  0  0  0  0  0  0  0  0  0  0  0
    7.1312  -11.9378   26.9099 C   0  0  0  0  0  0  0  0  0  0  0  0
    5.9320  -12.5992   26.6959 C   0  0  0  0  0  0  0  0  0  0  0  0
    5.9364  -13.9365   26.3511 C   0  0  0  0  0  0  0  0  0  0  0  0
    7.9196  -16.1880   23.5217 C   0  0  0  0  0  0  0  0  0  0  0  0
    8.9672  -16.9287   23.6089 O   0  0  0  0  0  0  0  0  0  0  0  0
    7.9670  -15.1792   22.5230 N   0  0  0  0  0  0  0  0  0  0  0  0
    6.8668  -14.3344   22.1939 C   0  0  0  0  0  0  0  0  0  0  0  0
    7.5322  -13.0761   21.6843 C   0  0  0  0  0  0  0  0  0  0  0  0
    8.8424  -13.5399   21.1034 C   0  0  0  0  0  0  0  0  0  0  0  0
    9.0515  -14.9348   21.6502 C   0  0  1  0  0  0  0  0  0  0  0  0
   10.4051  -15.0279   22.2699 C   0  0  0  0  0  0  0  0  0  0  0  0
   11.5859  -15.1273   21.5731 O   0  0  0  0  0  0  0  0  0  0  0  0
   10.4186  -15.0131   23.5484 O   0  0  0  0  0  0  0  0  0  0  0  0
  2  1  1  6
  2  4  1  0
  2  3  1  0
  4  5  2  0
  6  7  1  0
  6  4  1  0
  7 15  1  0
  8  9  1  0
  7  8  1  1
  9 10  2  0
 10 11  1  0
 12 11  2  0
 13 12  1  0
 14 13  2  0
 14  9  1  0
 15 17  1  0
 15 16  2  0
 17 21  1  0
 18 17  1  0
 19 20  1  0
 19 18  1  0
 20 21  1  0
 21 22  1  1
 22 24  2  0
 22 23  1  0
M  END
$$$$
