AFP.pdb
     RDKit          3D

 24 25  0  0  1  0  0  0  0  0999 V2000
   11.0453  -18.5798   21.8701 C   0  0  0  0  0  0  0  0  0  0  0  0
   10.7010  -17.1946   21.3395 C   0  0  2  0  0  0  0  0  0  0  0  0
   11.7803  -16.7765   20.4538 N   0  0  0  0  0  0  0  0  0  0  0  0
   10.5888  -16.2909   22.5150 C   0  0  0  0  0  0  0  0  0  0  0  0
   11.6278  -15.7175   22.8923 O   0  0  0  0  0  0  0  0  0  0  0  0
    9.3935  -16.0691   23.1915 N   0  0  0  0  0  0  0  0  0  0  0  0
    9.2381  -15.0514   24.2760 C   0  0  1  0  0  0  0  0  0  0  0  0
    7.7655  -14.7273   24.1822 C   0  0  0  0  0  0  0  0  0  0  0  0
    7.2088  -13.7838   25.1159 C   0  0  0  0  0  0  0  0  0  0  0  0
    6.3399  -14.1641   26.1076 C   0  0  0  0  0  0  0  0  0  0  0  0
    5.8040  -13.2393   27.0066 C   0  0  0  0  0  0  0  0  0  0  0  0
    6.1402  -11.9099   26.9156 C   0  0  0  0  0  0  0  0  0  0  0  0
    7.0163  -11.5003   25.9227 C   0  0  0  0  0  0  0  0  0  0  0  0
    7.5380  -12.4265   25.0411 C   0  0  0  0  0  0  0  0  0  0  0  0
    9.5621  -15.7854   25.5100 C   0  0  0  0  0  0  0  0  0  0  0  0
    9.2592  -17.0312   25.6111 O   0  0  0  0  0  0  0  0  0  0  0  0
   10.2087  -15.2209   26.6416 N   0  0  0  0  0  0  0  0  0  0  0  0
   10.7348  -13.8965   26.6776 C   0  0  0  0  0  0  0  0  0  0  0  0
   10.6496  -13.5259   28.1409 C   0  0  0  0  0  0  0  0  0  0  0  0
   10.7705  -14.8337   28.8784 C   0  0  0  0  0  0  0  0  0  0  0  0
   10.5171  -15.9041   27.8398 C   0  0  1  0  0  0  0  0  0  0  0  0
    9.4630  -16.8366   28.3342 C   0  0  0  0  0  0  0  0  0  0  0  0
    9.6547  -17.8092   29.2865 O   0  0  0  0  0  0  0  0  0  0  0  0
    8.3107  -16.6843   27.8014 O   0  0  0  0  0  0  0  0  0  0  0  0
  2  1  1  1
  2  4  1  0
  2  3  1  0
  4  5  2  0
  6  7  1  0
  6  4  1  0
  7 15  1  0
  8  9  1  0
  7  8  1  1
  9 10  2  0
 10 11  1  0
 12 11  2  0
 13 12  1  0
 14 13  2  0
 14  9  1  0
 15 17  1  0
 15 16  2  0
 17 21  1  0
 18 17  1  0
 19 20  1  0
 19 18  1  0
 20 21  1  0
 21 22  1  1
 22 24  2  0
 22 23  1  0
M  END
$$$$
