AFP.pdb
     RDKit          3D

 24 25  0  0  1  0  0  0  0  0999 V2000
   11.0604  -18.5283   21.8110 C   0  0  0  0  0  0  0  0  0  0  0  0
   10.4089  -17.2773   21.2369 C   0  0  2  0  0  0  0  0  0  0  0  0
   11.2635  -16.7826   20.1648 N   0  0  0  0  0  0  0  0  0  0  0  0
   10.3074  -16.2893   22.3436 C   0  0  0  0  0  0  0  0  0  0  0  0
   11.2652  -15.5087   22.4981 O   0  0  0  0  0  0  0  0  0  0  0  0
    9.2073  -16.2086   23.1914 N   0  0  0  0  0  0  0  0  0  0  0  0
    9.0578  -15.1614   24.2482 C   0  0  1  0  0  0  0  0  0  0  0  0
    7.5727  -14.8880   24.1996 C   0  0  0  0  0  0  0  0  0  0  0  0
    7.0350  -13.8601   25.0519 C   0  0  0  0  0  0  0  0  0  0  0  0
    7.3160  -12.5308   24.8589 C   0  0  0  0  0  0  0  0  0  0  0  0
    6.7904  -11.5423   25.6938 C   0  0  0  0  0  0  0  0  0  0  0  0
    5.9692  -11.8847   26.7412 C   0  0  0  0  0  0  0  0  0  0  0  0
    5.6700  -13.2208   26.9572 C   0  0  0  0  0  0  0  0  0  0  0  0
    6.1972  -14.1870   26.1231 C   0  0  0  0  0  0  0  0  0  0  0  0
    9.4508  -15.8437   25.4918 C   0  0  0  0  0  0  0  0  0  0  0  0
    9.1721  -17.0888   25.6535 O   0  0  0  0  0  0  0  0  0  0  0  0
   10.1413  -15.2280   26.5695 N   0  0  0  0  0  0  0  0  0  0  0  0
   10.5194  -13.8537   26.5893 C   0  0  0  0  0  0  0  0  0  0  0  0
   10.5408  -13.5180   28.0634 C   0  0  0  0  0  0  0  0  0  0  0  0
   10.8781  -14.8154   28.7503 C   0  0  0  0  0  0  0  0  0  0  0  0
   10.6414  -15.8911   27.7132 C   0  0  1  0  0  0  0  0  0  0  0  0
    9.7511  -16.9435   28.2831 C   0  0  0  0  0  0  0  0  0  0  0  0
    8.4216  -17.1041   27.9729 O   0  0  0  0  0  0  0  0  0  0  0  0
   10.3100  -17.7313   29.1210 O   0  0  0  0  0  0  0  0  0  0  0  0
  2  1  1  1
  2  4  1  0
  2  3  1  0
  4  5  2  0
  6  7  1  0
  6  4  1  0
  7 15  1  0
  8  9  1  0
  7  8  1  1
  9 10  2  0
 10 11  1  0
 12 11  2  0
 13 12  1  0
 14 13  2  0
 14  9  1  0
 15 17  1  0
 15 16  2  0
 17 21  1  0
 18 17  1  0
 19 20  1  0
 19 18  1  0
 20 21  1  0
 21 22  1  1
 22 24  2  0
 22 23  1  0
M  END
$$$$
