AFP.pdb
     RDKit          3D

 24 25  0  0  1  0  0  0  0  0999 V2000
    6.5638  -20.7980   23.2632 C   0  0  0  0  0  0  0  0  0  0  0  0
    5.4321  -19.8257   23.5676 C   0  0  2  0  0  0  0  0  0  0  0  0
    4.4059  -20.0041   22.5480 N   0  0  0  0  0  0  0  0  0  0  0  0
    6.0071  -18.4552   23.5185 C   0  0  0  0  0  0  0  0  0  0  0  0
    6.2078  -17.9632   22.3924 O   0  0  0  0  0  0  0  0  0  0  0  0
    6.3209  -17.7218   24.6583 N   0  0  0  0  0  0  0  0  0  0  0  0
    6.9326  -16.3579   24.6168 C   0  0  1  0  0  0  0  0  0  0  0  0
    6.5111  -15.7932   25.9531 C   0  0  0  0  0  0  0  0  0  0  0  0
    6.8159  -14.4169   26.2444 C   0  0  0  0  0  0  0  0  0  0  0  0
    8.0298  -14.0301   26.7541 C   0  0  0  0  0  0  0  0  0  0  0  0
    8.3136  -12.6918   27.0353 C   0  0  0  0  0  0  0  0  0  0  0  0
    7.3695  -11.7202   26.8043 C   0  0  0  0  0  0  0  0  0  0  0  0
    6.1354  -12.0851   26.2895 C   0  0  0  0  0  0  0  0  0  0  0  0
    5.8695  -13.4126   26.0165 C   0  0  0  0  0  0  0  0  0  0  0  0
    8.3812  -16.6126   24.5597 C   0  0  0  0  0  0  0  0  0  0  0  0
    8.9404  -17.3302   25.4687 O   0  0  0  0  0  0  0  0  0  0  0  0
    9.2501  -16.1221   23.5490 N   0  0  0  0  0  0  0  0  0  0  0  0
    8.8093  -15.3862   22.4105 C   0  0  0  0  0  0  0  0  0  0  0  0
   10.0050  -14.5282   22.0641 C   0  0  0  0  0  0  0  0  0  0  0  0
   11.1976  -15.3201   22.5326 C   0  0  0  0  0  0  0  0  0  0  0  0
   10.6383  -16.3735   23.4633 C   0  0  1  0  0  0  0  0  0  0  0  0
   11.3768  -16.3346   24.7587 C   0  0  0  0  0  0  0  0  0  0  0  0
   10.8367  -15.9495   25.9627 O   0  0  0  0  0  0  0  0  0  0  0  0
   12.6027  -16.6926   24.6953 O   0  0  0  0  0  0  0  0  0  0  0  0
  2  1  1  6
  2  4  1  0
  2  3  1  0
  4  5  2  0
  6  7  1  0
  6  4  1  0
  7 15  1  0
  8  9  1  0
  7  8  1  1
  9 10  2  0
 10 11  1  0
 12 11  2  0
 13 12  1  0
 14 13  2  0
 14  9  1  0
 15 17  1  0
 15 16  2  0
 17 21  1  0
 18 17  1  0
 19 20  1  0
 19 18  1  0
 20 21  1  0
 21 22  1  1
 22 24  2  0
 22 23  1  0
M  END
$$$$
