AFP.pdb
     RDKit          3D

 24 25  0  0  1  0  0  0  0  0999 V2000
    6.8118  -20.6780   22.9453 C   0  0  0  0  0  0  0  0  0  0  0  0
    5.7402  -20.0643   23.8363 C   0  0  2  0  0  0  0  0  0  0  0  0
    4.4444  -20.5331   23.3614 N   0  0  0  0  0  0  0  0  0  0  0  0
    5.8579  -18.5874   23.7088 C   0  0  0  0  0  0  0  0  0  0  0  0
    5.1775  -18.0375   22.8227 O   0  0  0  0  0  0  0  0  0  0  0  0
    6.6811  -17.8176   24.5244 N   0  0  0  0  0  0  0  0  0  0  0  0
    6.7825  -16.3293   24.4215 C   0  0  1  0  0  0  0  0  0  0  0  0
    7.1282  -15.9476   25.8417 C   0  0  0  0  0  0  0  0  0  0  0  0
    7.1939  -14.5502   26.1810 C   0  0  0  0  0  0  0  0  0  0  0  0
    8.3878  -13.8898   26.3270 C   0  0  0  0  0  0  0  0  0  0  0  0
    8.4394  -12.5341   26.6589 C   0  0  0  0  0  0  0  0  0  0  0  0
    7.2790  -11.8229   26.8491 C   0  0  0  0  0  0  0  0  0  0  0  0
    6.0600  -12.4671   26.7073 C   0  0  0  0  0  0  0  0  0  0  0  0
    6.0250  -13.8080   26.3787 C   0  0  0  0  0  0  0  0  0  0  0  0
    7.9102  -16.1063   23.5022 C   0  0  0  0  0  0  0  0  0  0  0  0
    8.9731  -16.8224   23.6085 O   0  0  0  0  0  0  0  0  0  0  0  0
    7.9290  -15.1366   22.4645 N   0  0  0  0  0  0  0  0  0  0  0  0
    6.8046  -14.3390   22.1017 C   0  0  0  0  0  0  0  0  0  0  0  0
    7.4328  -13.0823   21.5432 C   0  0  0  0  0  0  0  0  0  0  0  0
    8.7573  -13.5290   20.9818 C   0  0  0  0  0  0  0  0  0  0  0  0
    9.0072  -14.8944   21.5833 C   0  0  1  0  0  0  0  0  0  0  0  0
   10.3620  -14.9223   22.2069 C   0  0  0  0  0  0  0  0  0  0  0  0
   10.6096  -14.8540   23.5573 O   0  0  0  0  0  0  0  0  0  0  0  0
   11.3362  -15.0149   21.3839 O   0  0  0  0  0  0  0  0  0  0  0  0
  2  1  1  6
  2  4  1  0
  2  3  1  0
  4  5  2  0
  6  7  1  0
  6  4  1  0
  7 15  1  0
  8  9  1  0
  7  8  1  1
  9 10  2  0
 10 11  1  0
 12 11  2  0
 13 12  1  0
 14 13  2  0
 14  9  1  0
 15 17  1  0
 15 16  2  0
 17 21  1  0
 18 17  1  0
 19 20  1  0
 19 18  1  0
 20 21  1  0
 21 22  1  1
 22 24  2  0
 22 23  1  0
M  END
$$$$
