LER.pdb
     RDKit          3D

 29 28  0  0  1  0  0  0  0  0999 V2000
   27.8116  -18.9853  -16.4945 C   0  0  0  0  0  0  0  0  0  0  0  0
   27.0453  -17.7801  -16.9756 C   0  0  2  0  0  0  0  0  0  0  0  0
   27.4985  -16.5963  -16.1100 C   0  0  0  0  0  0  0  0  0  0  0  0
   25.5443  -17.9476  -16.8609 C   0  0  0  0  0  0  0  0  0  0  0  0
   25.1273  -18.3722  -15.4863 C   0  0  2  0  0  0  0  0  0  0  0  0
   25.7308  -19.6214  -15.1145 N   0  0  0  0  0  0  0  0  0  0  0  0
   23.6419  -18.5011  -15.4497 C   0  0  0  0  0  0  0  0  0  0  0  0
   22.8910  -17.5626  -15.8401 O   0  0  0  0  0  0  0  0  0  0  0  0
   23.0224  -19.6707  -14.9796 N   0  0  0  0  0  0  0  0  0  0  0  0
   21.5561  -19.8782  -15.0548 C   0  0  1  0  0  0  0  0  0  0  0  0
   21.2739  -20.0726  -16.5041 C   0  0  0  0  0  0  0  0  0  0  0  0
   21.8669  -21.2642  -17.1579 C   0  0  0  0  0  0  0  0  0  0  0  0
   20.9092  -21.7529  -18.2171 C   0  0  0  0  0  0  0  0  0  0  0  0
   19.8262  -21.1509  -18.3833 O   0  0  0  0  0  0  0  0  0  0  0  0
   21.1682  -20.9932  -14.1742 C   0  0  0  0  0  0  0  0  0  0  0  0
   22.0304  -21.9147  -13.9773 O   0  0  0  0  0  0  0  0  0  0  0  0
   21.1792  -22.8400  -19.0131 O   0  0  0  0  0  0  0  0  0  0  0  0
   13.2748  -23.1389  -10.2532 N   0  0  0  0  0  0  0  0  0  0  0  0
   14.1844  -24.2188  -10.0408 C   0  0  0  0  0  0  0  0  0  0  0  0
   13.8583  -25.2721   -9.3900 N   0  0  0  0  0  0  0  0  0  0  0  0
   15.5148  -24.1369  -10.5681 N   0  0  0  0  0  0  0  0  0  0  0  0
   16.0502  -22.9661  -11.2288 C   0  0  0  0  0  0  0  0  0  0  0  0
   17.4952  -23.1410  -11.5445 C   0  0  0  0  0  0  0  0  0  0  0  0
   18.1306  -22.0937  -12.3520 C   0  0  0  0  0  0  0  0  0  0  0  0
   19.5434  -22.3233  -12.7668 C   0  0  2  0  0  0  0  0  0  0  0  0
   19.9316  -21.1223  -13.5338 N   0  0  0  0  0  0  0  0  0  0  0  0
   19.7089  -23.5048  -13.6420 C   0  0  0  0  0  0  0  0  0  0  0  0
   20.1852  -24.6916  -13.0984 O   0  0  0  0  0  0  0  0  0  0  0  0
   19.4439  -23.5144  -14.8710 O   0  0  0  0  0  0  0  0  0  0  0  0
  2  4  1  0
  2  3  1  1
  2  1  1  0
  5  6  1  6
  5  4  1  0
  7  5  1  0
  8  7  2  0
  9  7  1  0
 10 15  1  0
 10  9  1  0
 10 11  1  6
 12 11  1  0
 13 12  1  0
 14 13  2  0
 15 16  2  0
 17 13  1  0
 18 19  1  0
 19 21  1  0
 20 19  2  0
 21 22  1  0
 23 24  1  0
 23 22  1  0
 25 24  1  6
 25 27  1  0
 26 25  1  0
 26 15  1  0
 27 29  2  0
 27 28  1  0
M  END
$$$$
