LER.pdb
     RDKit          3D

 29 28  0  0  1  0  0  0  0  0999 V2000
   31.0933  -22.8833   -9.9402 C   0  0  0  0  0  0  0  0  0  0  0  0
   31.3805  -21.7325  -10.8699 C   0  0  2  0  0  0  0  0  0  0  0  0
   32.4770  -20.8908  -10.2024 C   0  0  0  0  0  0  0  0  0  0  0  0
   30.1661  -20.8666  -11.1340 C   0  0  0  0  0  0  0  0  0  0  0  0
   29.1281  -21.5822  -11.9429 C   0  0  2  0  0  0  0  0  0  0  0  0
   29.7246  -22.4961  -12.8767 N   0  0  0  0  0  0  0  0  0  0  0  0
   28.3093  -20.5756  -12.6782 C   0  0  0  0  0  0  0  0  0  0  0  0
   27.7877  -19.5908  -12.0822 O   0  0  0  0  0  0  0  0  0  0  0  0
   28.0874  -20.6849  -14.0608 N   0  0  0  0  0  0  0  0  0  0  0  0
   27.3170  -19.6738  -14.8241 C   0  0  1  0  0  0  0  0  0  0  0  0
   28.0341  -19.5517  -16.1237 C   0  0  0  0  0  0  0  0  0  0  0  0
   27.4366  -18.6616  -17.1484 C   0  0  0  0  0  0  0  0  0  0  0  0
   28.2964  -18.7167  -18.3875 C   0  0  0  0  0  0  0  0  0  0  0  0
   29.2798  -17.9504  -18.4809 O   0  0  0  0  0  0  0  0  0  0  0  0
   25.9063  -20.0880  -14.9105 C   0  0  0  0  0  0  0  0  0  0  0  0
   25.6684  -21.3208  -15.1449 O   0  0  0  0  0  0  0  0  0  0  0  0
   28.0425  -19.5803  -19.4258 O   0  0  0  0  0  0  0  0  0  0  0  0
   22.0013  -21.5280   -9.2094 N   0  0  0  0  0  0  0  0  0  0  0  0
   23.2846  -21.0447   -9.6076 C   0  0  0  0  0  0  0  0  0  0  0  0
   24.2007  -20.7546   -8.7615 N   0  0  0  0  0  0  0  0  0  0  0  0
   23.5742  -20.8722  -11.0008 N   0  0  0  0  0  0  0  0  0  0  0  0
   22.7000  -21.3114  -12.0670 C   0  0  0  0  0  0  0  0  0  0  0  0
   21.9993  -20.1578  -12.6969 C   0  0  0  0  0  0  0  0  0  0  0  0
   22.8233  -19.2198  -13.4674 C   0  0  0  0  0  0  0  0  0  0  0  0
   23.4105  -19.7240  -14.7409 C   0  0  2  0  0  0  0  0  0  0  0  0
   24.8057  -19.2395  -14.7534 N   0  0  0  0  0  0  0  0  0  0  0  0
   22.7279  -19.2003  -15.9447 C   0  0  0  0  0  0  0  0  0  0  0  0
   21.5484  -19.7982  -16.3711 O   0  0  0  0  0  0  0  0  0  0  0  0
   23.1465  -18.2305  -16.6267 O   0  0  0  0  0  0  0  0  0  0  0  0
  2  4  1  0
  2  3  1  1
  2  1  1  0
  5  6  1  6
  5  4  1  0
  7  5  1  0
  8  7  2  0
  9  7  1  0
 10 15  1  0
 10  9  1  0
 10 11  1  6
 12 11  1  0
 13 12  1  0
 14 13  2  0
 15 16  2  0
 17 13  1  0
 18 19  1  0
 19 21  1  0
 20 19  2  0
 21 22  1  0
 23 24  1  0
 23 22  1  0
 25 24  1  1
 25 27  1  0
 26 25  1  0
 26 15  1  0
 27 29  2  0
 27 28  1  0
M  END
$$$$
