LER.pdb
     RDKit          3D

 29 28  0  0  1  0  0  0  0  0999 V2000
   27.6709  -18.6878   -5.7317 C   0  0  0  0  0  0  0  0  0  0  0  0
   27.2488  -19.9835   -6.3751 C   0  0  2  0  0  0  0  0  0  0  0  0
   27.0025  -20.9812   -5.2349 C   0  0  0  0  0  0  0  0  0  0  0  0
   28.2908  -20.5421   -7.3220 C   0  0  0  0  0  0  0  0  0  0  0  0
   27.6896  -21.4495   -8.3510 C   0  0  2  0  0  0  0  0  0  0  0  0
   28.6831  -21.9452   -9.2622 N   0  0  0  0  0  0  0  0  0  0  0  0
   26.6449  -20.6992   -9.1062 C   0  0  0  0  0  0  0  0  0  0  0  0
   26.1556  -19.6235   -8.6584 O   0  0  0  0  0  0  0  0  0  0  0  0
   26.1661  -21.1607  -10.3433 N   0  0  0  0  0  0  0  0  0  0  0  0
   25.5657  -20.2537  -11.3510 C   0  0  1  0  0  0  0  0  0  0  0  0
   26.3785  -20.4619  -12.5815 C   0  0  0  0  0  0  0  0  0  0  0  0
   26.4898  -21.8483  -13.0958 C   0  0  0  0  0  0  0  0  0  0  0  0
   27.2990  -21.8208  -14.3695 C   0  0  0  0  0  0  0  0  0  0  0  0
   27.6312  -22.9013  -14.9034 O   0  0  0  0  0  0  0  0  0  0  0  0
   24.1270  -20.5411  -11.4808 C   0  0  0  0  0  0  0  0  0  0  0  0
   23.7268  -21.7058  -11.1423 O   0  0  0  0  0  0  0  0  0  0  0  0
   27.6894  -20.6492  -14.9722 O   0  0  0  0  0  0  0  0  0  0  0  0
   17.7124  -18.5532  -15.6586 N   0  0  0  0  0  0  0  0  0  0  0  0
   16.8900  -18.2011  -14.5458 C   0  0  0  0  0  0  0  0  0  0  0  0
   15.6117  -18.2565  -14.5932 N   0  0  0  0  0  0  0  0  0  0  0  0
   17.5012  -17.7675  -13.3238 N   0  0  0  0  0  0  0  0  0  0  0  0
   18.9241  -17.5590  -13.1632 C   0  0  0  0  0  0  0  0  0  0  0  0
   19.6010  -18.8034  -12.7033 C   0  0  0  0  0  0  0  0  0  0  0  0
   21.0546  -18.7387  -12.5151 C   0  0  0  0  0  0  0  0  0  0  0  0
   21.7429  -20.0016  -12.1252 C   0  0  2  0  0  0  0  0  0  0  0  0
   23.1630  -19.6391  -11.9427 N   0  0  0  0  0  0  0  0  0  0  0  0
   21.6634  -21.0528  -13.1635 C   0  0  0  0  0  0  0  0  0  0  0  0
   20.6390  -21.9898  -13.1047 O   0  0  0  0  0  0  0  0  0  0  0  0
   22.4741  -21.1636  -14.1182 O   0  0  0  0  0  0  0  0  0  0  0  0
  2  4  1  0
  2  3  1  1
  2  1  1  0
  5  6  1  6
  5  4  1  0
  7  5  1  0
  8  7  2  0
  9  7  1  0
 10 15  1  0
 10  9  1  0
 10 11  1  6
 12 11  1  0
 13 12  1  0
 14 13  2  0
 15 16  2  0
 17 13  1  0
 18 19  1  0
 19 21  1  0
 20 19  2  0
 21 22  1  0
 23 24  1  0
 23 22  1  0
 25 24  1  6
 25 27  1  0
 26 25  1  0
 26 15  1  0
 27 29  2  0
 27 28  1  0
M  END
$$$$
