LER.pdb
     RDKit          3D

 29 28  0  0  1  0  0  0  0  0999 V2000
   27.5147  -20.2384  -16.1940 C   0  0  0  0  0  0  0  0  0  0  0  0
   26.8263  -19.2494  -15.2890 C   0  0  2  0  0  0  0  0  0  0  0  0
   27.8524  -18.1518  -14.9753 C   0  0  0  0  0  0  0  0  0  0  0  0
   26.3357  -19.8699  -13.9972 C   0  0  0  0  0  0  0  0  0  0  0  0
   25.3326  -20.9559  -14.2381 C   0  0  2  0  0  0  0  0  0  0  0  0
   25.2510  -21.2991  -15.6305 N   0  0  0  0  0  0  0  0  0  0  0  0
   23.9982  -20.4977  -13.7545 C   0  0  0  0  0  0  0  0  0  0  0  0
   23.7668  -20.3324  -12.5232 O   0  0  0  0  0  0  0  0  0  0  0  0
   22.9491  -20.2330  -14.6499 N   0  0  0  0  0  0  0  0  0  0  0  0
   21.5895  -19.8580  -14.1921 C   0  0  1  0  0  0  0  0  0  0  0  0
   21.2343  -18.6582  -14.9997 C   0  0  0  0  0  0  0  0  0  0  0  0
   19.8786  -18.0883  -14.8097 C   0  0  0  0  0  0  0  0  0  0  0  0
   19.6622  -17.0158  -15.8494 C   0  0  0  0  0  0  0  0  0  0  0  0
   20.5672  -16.7809  -16.6793 O   0  0  0  0  0  0  0  0  0  0  0  0
   20.6845  -21.0115  -14.3316 C   0  0  0  0  0  0  0  0  0  0  0  0
   21.0550  -21.9602  -15.1024 O   0  0  0  0  0  0  0  0  0  0  0  0
   18.5036  -16.2807  -15.9233 O   0  0  0  0  0  0  0  0  0  0  0  0
   21.6767  -28.0795  -11.8059 N   0  0  0  0  0  0  0  0  0  0  0  0
   20.2777  -28.0274  -11.5246 C   0  0  0  0  0  0  0  0  0  0  0  0
   19.5827  -29.0803  -11.3062 N   0  0  0  0  0  0  0  0  0  0  0  0
   19.6117  -26.7588  -11.4817 N   0  0  0  0  0  0  0  0  0  0  0  0
   20.2103  -25.5180  -11.9243 C   0  0  0  0  0  0  0  0  0  0  0  0
   19.2407  -24.3911  -11.8330 C   0  0  0  0  0  0  0  0  0  0  0  0
   19.6803  -23.0921  -12.3544 C   0  0  0  0  0  0  0  0  0  0  0  0
   18.8338  -22.4649  -13.4083 C   0  0  2  0  0  0  0  0  0  0  0  0
   19.4525  -21.1526  -13.6849 N   0  0  0  0  0  0  0  0  0  0  0  0
   17.4377  -22.2361  -12.9745 C   0  0  0  0  0  0  0  0  0  0  0  0
   17.1536  -21.1654  -12.1358 O   0  0  0  0  0  0  0  0  0  0  0  0
   16.4660  -22.9567  -13.3173 O   0  0  0  0  0  0  0  0  0  0  0  0
  2  4  1  0
  2  3  1  1
  2  1  1  0
  5  6  1  6
  5  4  1  0
  7  5  1  0
  8  7  2  0
  9  7  1  0
 10 15  1  0
 10  9  1  0
 10 11  1  6
 12 11  1  0
 13 12  1  0
 14 13  2  0
 15 16  2  0
 17 13  1  0
 18 19  1  0
 19 21  1  0
 20 19  2  0
 21 22  1  0
 23 24  1  0
 23 22  1  0
 25 24  1  1
 25 27  1  0
 26 25  1  0
 26 15  1  0
 27 29  2  0
 27 28  1  0
M  END
$$$$
