LER.pdb
     RDKit          3D

 29 28  0  0  1  0  0  0  0  0999 V2000
   28.4405  -20.6841   -5.3781 C   0  0  0  0  0  0  0  0  0  0  0  0
   28.4382  -19.6346   -6.4594 C   0  0  2  0  0  0  0  0  0  0  0  0
   28.9960  -18.3513   -5.8282 C   0  0  0  0  0  0  0  0  0  0  0  0
   27.0575  -19.3653   -7.0212 C   0  0  0  0  0  0  0  0  0  0  0  0
   26.5301  -20.5284   -7.8040 C   0  0  2  0  0  0  0  0  0  0  0  0
   27.5260  -21.5509   -7.9648 N   0  0  0  0  0  0  0  0  0  0  0  0
   26.0831  -20.0473   -9.1431 C   0  0  0  0  0  0  0  0  0  0  0  0
   25.5060  -18.9316   -9.2815 O   0  0  0  0  0  0  0  0  0  0  0  0
   26.2871  -20.8166  -10.3003 N   0  0  0  0  0  0  0  0  0  0  0  0
   25.9122  -20.3342  -11.6513 C   0  0  1  0  0  0  0  0  0  0  0  0
   27.0178  -20.7914  -12.5382 C   0  0  0  0  0  0  0  0  0  0  0  0
   27.3013  -19.9779  -13.7452 C   0  0  0  0  0  0  0  0  0  0  0  0
   28.0060  -20.8516  -14.7542 C   0  0  0  0  0  0  0  0  0  0  0  0
   28.0116  -20.5101  -15.9568 O   0  0  0  0  0  0  0  0  0  0  0  0
   24.5694  -20.8294  -11.9988 C   0  0  0  0  0  0  0  0  0  0  0  0
   24.2108  -21.9521  -11.5064 O   0  0  0  0  0  0  0  0  0  0  0  0
   28.6470  -22.0157  -14.4045 O   0  0  0  0  0  0  0  0  0  0  0  0
   23.5880  -27.0132  -15.1618 N   0  0  0  0  0  0  0  0  0  0  0  0
   22.4784  -26.4713  -15.8787 C   0  0  0  0  0  0  0  0  0  0  0  0
   21.8439  -27.1397  -16.7676 N   0  0  0  0  0  0  0  0  0  0  0  0
   22.0462  -25.1321  -15.6060 N   0  0  0  0  0  0  0  0  0  0  0  0
   22.3112  -24.4357  -14.3655 C   0  0  0  0  0  0  0  0  0  0  0  0
   21.8900  -23.0095  -14.4494 C   0  0  0  0  0  0  0  0  0  0  0  0
   22.8973  -21.9979  -14.1112 C   0  0  0  0  0  0  0  0  0  0  0  0
   22.4302  -20.8080  -13.3454 C   0  0  2  0  0  0  0  0  0  0  0  0
   23.6540  -20.1671  -12.8230 N   0  0  0  0  0  0  0  0  0  0  0  0
   21.5645  -21.1572  -12.1973 C   0  0  0  0  0  0  0  0  0  0  0  0
   20.2384  -20.7423  -12.1952 O   0  0  0  0  0  0  0  0  0  0  0  0
   21.9497  -21.8178  -11.1992 O   0  0  0  0  0  0  0  0  0  0  0  0
  2  4  1  0
  2  3  1  1
  2  1  1  0
  5  6  1  6
  5  4  1  0
  7  5  1  0
  8  7  2  0
  9  7  1  0
 10 15  1  0
 10  9  1  0
 10 11  1  6
 12 11  1  0
 13 12  1  0
 14 13  2  0
 15 16  2  0
 17 13  1  0
 18 19  1  0
 19 21  1  0
 20 19  2  0
 21 22  1  0
 23 24  1  0
 23 22  1  0
 25 24  1  1
 25 27  1  0
 26 25  1  0
 26 15  1  0
 27 29  2  0
 27 28  1  0
M  END
$$$$
