LER.pdb
     RDKit          3D

 29 28  0  0  1  0  0  0  0  0999 V2000
   28.8223  -21.9819  -11.1544 C   0  0  0  0  0  0  0  0  0  0  0  0
   29.2568  -20.8375  -12.0332 C   0  0  2  0  0  0  0  0  0  0  0  0
   30.2470  -20.0019  -11.2100 C   0  0  0  0  0  0  0  0  0  0  0  0
   28.1038  -19.9629  -12.4806 C   0  0  0  0  0  0  0  0  0  0  0  0
   27.1447  -20.7013  -13.3629 C   0  0  2  0  0  0  0  0  0  0  0  0
   27.8329  -21.4861  -14.3496 N   0  0  0  0  0  0  0  0  0  0  0  0
   26.2517  -19.7159  -14.0380 C   0  0  0  0  0  0  0  0  0  0  0  0
   25.5749  -18.8800  -13.3744 O   0  0  0  0  0  0  0  0  0  0  0  0
   26.1296  -19.6804  -15.4367 N   0  0  0  0  0  0  0  0  0  0  0  0
   25.1443  -18.8132  -16.1264 C   0  0  1  0  0  0  0  0  0  0  0  0
   25.8391  -18.3573  -17.3623 C   0  0  0  0  0  0  0  0  0  0  0  0
   25.8983  -16.8963  -17.6089 C   0  0  0  0  0  0  0  0  0  0  0  0
   26.0849  -16.6699  -19.0894 C   0  0  0  0  0  0  0  0  0  0  0  0
   26.8305  -17.4390  -19.7338 O   0  0  0  0  0  0  0  0  0  0  0  0
   23.8912  -19.5580  -16.3370 C   0  0  0  0  0  0  0  0  0  0  0  0
   23.9599  -20.8333  -16.3494 O   0  0  0  0  0  0  0  0  0  0  0  0
   25.4650  -15.6461  -19.7646 O   0  0  0  0  0  0  0  0  0  0  0  0
   21.6719  -20.5076   -9.3721 N   0  0  0  0  0  0  0  0  0  0  0  0
   22.5168  -20.8635  -10.4669 C   0  0  0  0  0  0  0  0  0  0  0  0
   23.7092  -21.2989  -10.2994 N   0  0  0  0  0  0  0  0  0  0  0  0
   22.0282  -20.7346  -11.8083 N   0  0  0  0  0  0  0  0  0  0  0  0
   20.7758  -20.0968  -12.1529 C   0  0  0  0  0  0  0  0  0  0  0  0
   20.5548  -20.1077  -13.6258 C   0  0  0  0  0  0  0  0  0  0  0  0
   21.6463  -19.6018  -14.4655 C   0  0  0  0  0  0  0  0  0  0  0  0
   21.3960  -19.5364  -15.9331 C   0  0  2  0  0  0  0  0  0  0  0  0
   22.6311  -18.9801  -16.5216 N   0  0  0  0  0  0  0  0  0  0  0  0
   20.2701  -18.6462  -16.2929 C   0  0  0  0  0  0  0  0  0  0  0  0
   18.9672  -19.1094  -16.1564 O   0  0  0  0  0  0  0  0  0  0  0  0
   20.4088  -17.4730  -16.7234 O   0  0  0  0  0  0  0  0  0  0  0  0
  2  4  1  0
  2  3  1  1
  2  1  1  0
  5  6  1  6
  5  4  1  0
  7  5  1  0
  8  7  2  0
  9  7  1  0
 10 15  1  0
 10  9  1  0
 10 11  1  6
 12 11  1  0
 13 12  1  0
 14 13  2  0
 15 16  2  0
 17 13  1  0
 18 19  1  0
 19 21  1  0
 20 19  2  0
 21 22  1  0
 23 24  1  0
 23 22  1  0
 25 24  1  1
 25 27  1  0
 26 25  1  0
 26 15  1  0
 27 29  2  0
 27 28  1  0
M  END
$$$$
