LER.pdb
     RDKit          3D

 29 28  0  0  1  0  0  0  0  0999 V2000
   24.4195  -13.5301  -18.5760 C   0  0  0  0  0  0  0  0  0  0  0  0
   23.0840  -14.1599  -18.8771 C   0  0  2  0  0  0  0  0  0  0  0  0
   22.0276  -13.3249  -18.1402 C   0  0  0  0  0  0  0  0  0  0  0  0
   22.9945  -15.6034  -18.4268 C   0  0  0  0  0  0  0  0  0  0  0  0
   24.0737  -16.4501  -19.0286 C   0  0  2  0  0  0  0  0  0  0  0  0
   23.9549  -16.5186  -20.4583 N   0  0  0  0  0  0  0  0  0  0  0  0
   23.9902  -17.8226  -18.4511 C   0  0  0  0  0  0  0  0  0  0  0  0
   22.9264  -18.5013  -18.5208 O   0  0  0  0  0  0  0  0  0  0  0  0
   25.0911  -18.4119  -17.8080 N   0  0  0  0  0  0  0  0  0  0  0  0
   25.0428  -19.7839  -17.2476 C   0  0  1  0  0  0  0  0  0  0  0  0
   26.4425  -20.2833  -17.3449 C   0  0  0  0  0  0  0  0  0  0  0  0
   26.7290  -21.6188  -16.7675 C   0  0  0  0  0  0  0  0  0  0  0  0
   28.1717  -21.9606  -17.0498 C   0  0  0  0  0  0  0  0  0  0  0  0
   28.5331  -22.1476  -18.2318 O   0  0  0  0  0  0  0  0  0  0  0  0
   24.4726  -19.7444  -15.8902 C   0  0  0  0  0  0  0  0  0  0  0  0
   24.8281  -18.7810  -15.1306 O   0  0  0  0  0  0  0  0  0  0  0  0
   29.1125  -22.0759  -16.0548 O   0  0  0  0  0  0  0  0  0  0  0  0
   17.1055  -21.4750  -12.5728 N   0  0  0  0  0  0  0  0  0  0  0  0
   17.6657  -22.7231  -12.9818 C   0  0  0  0  0  0  0  0  0  0  0  0
   16.9404  -23.7332  -13.2866 N   0  0  0  0  0  0  0  0  0  0  0  0
   19.0898  -22.8676  -13.0591 N   0  0  0  0  0  0  0  0  0  0  0  0
   20.0230  -21.7796  -12.8616 C   0  0  0  0  0  0  0  0  0  0  0  0
   20.6696  -21.3867  -14.1445 C   0  0  0  0  0  0  0  0  0  0  0  0
   21.6206  -20.2706  -14.0951 C   0  0  0  0  0  0  0  0  0  0  0  0
   23.0653  -20.6177  -13.9805 C   0  0  2  0  0  0  0  0  0  0  0  0
   23.5702  -20.6762  -15.3672 N   0  0  0  0  0  0  0  0  0  0  0  0
   23.2997  -21.9340  -13.3467 C   0  0  0  0  0  0  0  0  0  0  0  0
   23.3935  -22.0147  -11.9627 O   0  0  0  0  0  0  0  0  0  0  0  0
   23.4232  -23.0111  -13.9835 O   0  0  0  0  0  0  0  0  0  0  0  0
  2  4  1  0
  2  3  1  1
  2  1  1  0
  5  6  1  6
  5  4  1  0
  7  5  1  0
  8  7  2  0
  9  7  1  0
 10 15  1  0
 10  9  1  0
 10 11  1  1
 12 11  1  0
 13 12  1  0
 14 13  2  0
 15 16  2  0
 17 13  1  0
 18 19  1  0
 19 21  1  0
 20 19  2  0
 21 22  1  0
 23 24  1  0
 23 22  1  0
 25 24  1  6
 25 27  1  0
 26 25  1  0
 26 15  1  0
 27 29  2  0
 27 28  1  0
M  END
$$$$
