LER.pdb
     RDKit          3D

 29 28  0  0  1  0  0  0  0  0999 V2000
   26.7768  -13.4630  -16.7118 C   0  0  0  0  0  0  0  0  0  0  0  0
   27.3128  -12.1604  -16.1764 C   0  0  2  0  0  0  0  0  0  0  0  0
   28.4570  -12.5166  -15.2171 C   0  0  0  0  0  0  0  0  0  0  0  0
   26.2680  -11.3473  -15.4403 C   0  0  0  0  0  0  0  0  0  0  0  0
   25.1221  -10.9664  -16.3266 C   0  0  2  0  0  0  0  0  0  0  0  0
   25.5772  -10.5068  -17.6090 N   0  0  0  0  0  0  0  0  0  0  0  0
   24.3311   -9.8922  -15.6596 C   0  0  0  0  0  0  0  0  0  0  0  0
   23.8601  -10.0483  -14.4973 O   0  0  0  0  0  0  0  0  0  0  0  0
   24.0802   -8.6670  -16.2988 N   0  0  0  0  0  0  0  0  0  0  0  0
   23.2301   -7.6142  -15.6926 C   0  0  1  0  0  0  0  0  0  0  0  0
   23.9132   -6.3342  -16.0286 C   0  0  0  0  0  0  0  0  0  0  0  0
   23.2115   -5.0764  -15.6756 C   0  0  0  0  0  0  0  0  0  0  0  0
   24.0679   -3.9135  -16.1138 C   0  0  0  0  0  0  0  0  0  0  0  0
   24.7686   -3.3197  -15.2656 O   0  0  0  0  0  0  0  0  0  0  0  0
   21.8487   -7.7485  -16.1857 C   0  0  0  0  0  0  0  0  0  0  0  0
   21.6850   -7.8975  -17.4436 O   0  0  0  0  0  0  0  0  0  0  0  0
   24.1108   -3.4761  -17.4157 O   0  0  0  0  0  0  0  0  0  0  0  0
   15.0647  -12.8322  -14.2637 N   0  0  0  0  0  0  0  0  0  0  0  0
   14.5930  -11.9038  -15.2406 C   0  0  0  0  0  0  0  0  0  0  0  0
   13.4676  -12.0460  -15.8344 N   0  0  0  0  0  0  0  0  0  0  0  0
   15.3959  -10.7661  -15.5807 N   0  0  0  0  0  0  0  0  0  0  0  0
   16.7465  -10.5602  -15.1041 C   0  0  0  0  0  0  0  0  0  0  0  0
   17.3357   -9.3187  -15.6785 C   0  0  0  0  0  0  0  0  0  0  0  0
   18.7554   -9.0690  -15.4058 C   0  0  0  0  0  0  0  0  0  0  0  0
   19.3337   -7.8027  -15.9379 C   0  0  2  0  0  0  0  0  0  0  0  0
   20.7016   -7.7288  -15.3859 N   0  0  0  0  0  0  0  0  0  0  0  0
   18.5937   -6.5970  -15.5041 C   0  0  0  0  0  0  0  0  0  0  0  0
   17.4803   -6.1864  -16.2269 O   0  0  0  0  0  0  0  0  0  0  0  0
   18.9058   -5.8997  -14.5054 O   0  0  0  0  0  0  0  0  0  0  0  0
  2  4  1  0
  2  3  1  1
  2  1  1  0
  5  6  1  6
  5  4  1  0
  7  5  1  0
  8  7  2  0
  9  7  1  0
 10 15  1  0
 10  9  1  0
 10 11  1  6
 12 11  1  0
 13 12  1  0
 14 13  2  0
 15 16  2  0
 17 13  1  0
 18 19  1  0
 19 21  1  0
 20 19  2  0
 21 22  1  0
 23 24  1  0
 23 22  1  0
 25 24  1  1
 25 27  1  0
 26 25  1  0
 26 15  1  0
 27 29  2  0
 27 28  1  0
M  END
$$$$
