LER.pdb
     RDKit          3D

 29 28  0  0  1  0  0  0  0  0999 V2000
   32.1033  -21.5842   -8.0803 C   0  0  0  0  0  0  0  0  0  0  0  0
   31.5743  -21.9743   -9.4364 C   0  0  2  0  0  0  0  0  0  0  0  0
   32.7400  -21.8228  -10.4235 C   0  0  0  0  0  0  0  0  0  0  0  0
   30.4115  -21.1153   -9.8885 C   0  0  0  0  0  0  0  0  0  0  0  0
   29.4980  -21.8485  -10.8223 C   0  0  2  0  0  0  0  0  0  0  0  0
   30.2176  -22.4105  -11.9310 N   0  0  0  0  0  0  0  0  0  0  0  0
   28.4596  -20.9031  -11.3245 C   0  0  0  0  0  0  0  0  0  0  0  0
   27.7451  -20.2288  -10.5295 O   0  0  0  0  0  0  0  0  0  0  0  0
   28.2371  -20.7271  -12.7001 N   0  0  0  0  0  0  0  0  0  0  0  0
   27.2809  -19.7245  -13.2283 C   0  0  1  0  0  0  0  0  0  0  0  0
   27.9829  -19.1028  -14.3852 C   0  0  0  0  0  0  0  0  0  0  0  0
   28.0116  -19.8693  -15.6544 C   0  0  0  0  0  0  0  0  0  0  0  0
   28.3339  -18.9164  -16.7796 C   0  0  0  0  0  0  0  0  0  0  0  0
   29.5281  -18.7399  -17.1047 O   0  0  0  0  0  0  0  0  0  0  0  0
   25.9980  -20.3787  -13.5373 C   0  0  0  0  0  0  0  0  0  0  0  0
   26.0423  -21.5445  -14.0573 O   0  0  0  0  0  0  0  0  0  0  0  0
   27.3630  -18.2291  -17.4674 O   0  0  0  0  0  0  0  0  0  0  0  0
   19.7697  -22.8593   -9.3337 N   0  0  0  0  0  0  0  0  0  0  0  0
   19.4525  -22.3743  -10.6387 C   0  0  0  0  0  0  0  0  0  0  0  0
   18.2459  -22.2265  -11.0408 N   0  0  0  0  0  0  0  0  0  0  0  0
   20.5111  -22.0363  -11.5442 N   0  0  0  0  0  0  0  0  0  0  0  0
   21.9158  -22.0984  -11.2023 C   0  0  0  0  0  0  0  0  0  0  0  0
   22.5536  -20.7564  -11.3051 C   0  0  0  0  0  0  0  0  0  0  0  0
   22.4909  -20.0889  -12.6101 C   0  0  0  0  0  0  0  0  0  0  0  0
   23.4764  -20.5235  -13.6400 C   0  0  2  0  0  0  0  0  0  0  0  0
   24.7344  -19.8264  -13.3041 N   0  0  0  0  0  0  0  0  0  0  0  0
   23.0883  -20.1409  -15.0157 C   0  0  0  0  0  0  0  0  0  0  0  0
   22.1889  -20.9370  -15.7142 O   0  0  0  0  0  0  0  0  0  0  0  0
   23.5229  -19.1238  -15.6137 O   0  0  0  0  0  0  0  0  0  0  0  0
  2  4  1  0
  2  3  1  6
  2  1  1  0
  5  6  1  6
  5  4  1  0
  7  5  1  0
  8  7  2  0
  9  7  1  0
 10 15  1  0
 10  9  1  0
 10 11  1  6
 12 11  1  0
 13 12  1  0
 14 13  2  0
 15 16  2  0
 17 13  1  0
 18 19  1  0
 19 21  1  0
 20 19  2  0
 21 22  1  0
 23 24  1  0
 23 22  1  0
 25 24  1  1
 25 27  1  0
 26 25  1  0
 26 15  1  0
 27 29  2  0
 27 28  1  0
M  END
$$$$
