LER.pdb
     RDKit          3D

 29 28  0  0  1  0  0  0  0  0999 V2000
   27.7128  -18.4160   -5.4119 C   0  0  0  0  0  0  0  0  0  0  0  0
   27.8561  -19.9044   -5.5989 C   0  0  2  0  0  0  0  0  0  0  0  0
   29.2912  -20.2632   -5.1892 C   0  0  0  0  0  0  0  0  0  0  0  0
   27.6095  -20.3490   -7.0258 C   0  0  0  0  0  0  0  0  0  0  0  0
   26.2235  -20.0187   -7.4882 C   0  0  2  0  0  0  0  0  0  0  0  0
   25.2296  -20.5590   -6.6032 N   0  0  0  0  0  0  0  0  0  0  0  0
   26.0273  -20.5694   -8.8602 C   0  0  0  0  0  0  0  0  0  0  0  0
   26.8635  -21.3651   -9.3748 O   0  0  0  0  0  0  0  0  0  0  0  0
   24.9055  -20.2240   -9.6316 N   0  0  0  0  0  0  0  0  0  0  0  0
   24.6041  -20.8730  -10.9303 C   0  0  1  0  0  0  0  0  0  0  0  0
   23.1214  -20.8062  -11.0531 C   0  0  0  0  0  0  0  0  0  0  0  0
   22.5274  -21.2222  -12.3466 C   0  0  0  0  0  0  0  0  0  0  0  0
   21.0250  -21.1348  -12.2312 C   0  0  0  0  0  0  0  0  0  0  0  0
   20.5164  -20.8047  -11.1379 O   0  0  0  0  0  0  0  0  0  0  0  0
   25.3635  -20.2091  -12.0035 C   0  0  0  0  0  0  0  0  0  0  0  0
   25.5059  -18.9421  -11.9264 O   0  0  0  0  0  0  0  0  0  0  0  0
   20.1857  -21.4047  -13.2852 O   0  0  0  0  0  0  0  0  0  0  0  0
   28.4004  -19.1257  -18.0662 N   0  0  0  0  0  0  0  0  0  0  0  0
   29.6864  -18.6025  -17.7328 C   0  0  0  0  0  0  0  0  0  0  0  0
   30.4609  -18.0779  -18.6071 N   0  0  0  0  0  0  0  0  0  0  0  0
   30.1425  -18.6588  -16.3750 N   0  0  0  0  0  0  0  0  0  0  0  0
   29.3319  -19.1239  -15.2703 C   0  0  0  0  0  0  0  0  0  0  0  0
   28.7053  -20.4391  -15.5800 C   0  0  0  0  0  0  0  0  0  0  0  0
   27.7797  -20.9859  -14.5817 C   0  0  0  0  0  0  0  0  0  0  0  0
   26.6205  -20.1328  -14.1953 C   0  0  2  0  0  0  0  0  0  0  0  0
   25.9440  -20.8557  -13.0993 N   0  0  0  0  0  0  0  0  0  0  0  0
   25.6471  -19.9407  -15.2931 C   0  0  0  0  0  0  0  0  0  0  0  0
   25.7459  -18.8133  -16.0992 O   0  0  0  0  0  0  0  0  0  0  0  0
   24.7146  -20.7419  -15.5567 O   0  0  0  0  0  0  0  0  0  0  0  0
  2  4  1  0
  2  3  1  6
  2  1  1  0
  5  6  1  1
  5  4  1  0
  7  5  1  0
  8  7  2  0
  9  7  1  0
 10 15  1  0
 10  9  1  0
 10 11  1  6
 12 11  1  0
 13 12  1  0
 14 13  2  0
 15 16  2  0
 17 13  1  0
 18 19  1  0
 19 21  1  0
 20 19  2  0
 21 22  1  0
 23 24  1  0
 23 22  1  0
 25 24  1  6
 25 27  1  0
 26 25  1  0
 26 15  1  0
 27 29  2  0
 27 28  1  0
M  END
$$$$
