LER.pdb
     RDKit          3D

 29 28  0  0  1  0  0  0  0  0999 V2000
   28.8848  -20.6185   -4.8821 C   0  0  0  0  0  0  0  0  0  0  0  0
   28.9696  -19.5420   -5.9332 C   0  0  2  0  0  0  0  0  0  0  0  0
   29.1761  -18.2155   -5.1888 C   0  0  0  0  0  0  0  0  0  0  0  0
   27.7255  -19.4533   -6.7927 C   0  0  0  0  0  0  0  0  0  0  0  0
   27.4610  -20.7269   -7.5356 C   0  0  2  0  0  0  0  0  0  0  0  0
   28.6828  -21.3846   -7.9065 N   0  0  0  0  0  0  0  0  0  0  0  0
   26.6657  -20.4171   -8.7587 C   0  0  0  0  0  0  0  0  0  0  0  0
   25.8481  -19.4537   -8.7844 O   0  0  0  0  0  0  0  0  0  0  0  0
   26.7960  -21.1848   -9.9276 N   0  0  0  0  0  0  0  0  0  0  0  0
   26.0571  -20.8669  -11.1732 C   0  0  1  0  0  0  0  0  0  0  0  0
   26.8937  -21.4350  -12.2665 C   0  0  0  0  0  0  0  0  0  0  0  0
   28.0976  -20.6684  -12.6691 C   0  0  0  0  0  0  0  0  0  0  0  0
   27.7643  -19.8734  -13.9079 C   0  0  0  0  0  0  0  0  0  0  0  0
   26.6685  -20.0655  -14.4782 O   0  0  0  0  0  0  0  0  0  0  0  0
   24.6842  -21.3922  -11.0820 C   0  0  0  0  0  0  0  0  0  0  0  0
   24.5205  -22.5108  -10.4876 O   0  0  0  0  0  0  0  0  0  0  0  0
   28.6209  -18.9400  -14.4400 O   0  0  0  0  0  0  0  0  0  0  0  0
   19.2076  -24.1813   -7.5121 N   0  0  0  0  0  0  0  0  0  0  0  0
   18.6492  -24.0929   -8.8233 C   0  0  0  0  0  0  0  0  0  0  0  0
   17.8688  -24.9900   -9.2981 N   0  0  0  0  0  0  0  0  0  0  0  0
   18.9635  -22.9658   -9.6513 N   0  0  0  0  0  0  0  0  0  0  0  0
   19.7285  -21.8227   -9.2016 C   0  0  0  0  0  0  0  0  0  0  0  0
   20.0292  -20.8995  -10.3310 C   0  0  0  0  0  0  0  0  0  0  0  0
   21.4372  -20.5468  -10.5444 C   0  0  0  0  0  0  0  0  0  0  0  0
   22.1969  -21.3642  -11.5321 C   0  0  2  0  0  0  0  0  0  0  0  0
   23.5443  -20.7624  -11.5920 N   0  0  0  0  0  0  0  0  0  0  0  0
   21.6126  -21.3271  -12.8911 C   0  0  0  0  0  0  0  0  0  0  0  0
   22.0816  -20.3935  -13.8071 O   0  0  0  0  0  0  0  0  0  0  0  0
   20.7009  -22.0967  -13.2877 O   0  0  0  0  0  0  0  0  0  0  0  0
  2  4  1  0
  2  3  1  1
  2  1  1  0
  5  6  1  6
  5  4  1  0
  7  5  1  0
  8  7  2  0
  9  7  1  0
 10 15  1  0
 10  9  1  0
 10 11  1  6
 12 11  1  0
 13 12  1  0
 14 13  2  0
 15 16  2  0
 17 13  1  0
 18 19  1  0
 19 21  1  0
 20 19  2  0
 21 22  1  0
 23 24  1  0
 23 22  1  0
 25 24  1  1
 25 27  1  0
 26 25  1  0
 26 15  1  0
 27 29  2  0
 27 28  1  0
M  END
$$$$
