LER.pdb
     RDKit          3D

 29 28  0  0  1  0  0  0  0  0999 V2000
   28.3645  -20.9585   -8.3044 C   0  0  0  0  0  0  0  0  0  0  0  0
   28.4744  -21.5906   -9.6679 C   0  0  2  0  0  0  0  0  0  0  0  0
   29.9626  -21.8902   -9.8954 C   0  0  0  0  0  0  0  0  0  0  0  0
   27.9610  -20.6975  -10.7784 C   0  0  0  0  0  0  0  0  0  0  0  0
   26.5273  -20.3136  -10.5765 C   0  0  2  0  0  0  0  0  0  0  0  0
   25.8979  -21.1315   -9.5775 N   0  0  0  0  0  0  0  0  0  0  0  0
   25.8016  -20.4549  -11.8718 C   0  0  0  0  0  0  0  0  0  0  0  0
   26.3770  -20.2333  -12.9749 O   0  0  0  0  0  0  0  0  0  0  0  0
   24.4515  -20.8396  -11.9136 N   0  0  0  0  0  0  0  0  0  0  0  0
   23.7205  -21.0358  -13.1886 C   0  0  1  0  0  0  0  0  0  0  0  0
   22.7241  -22.1030  -12.8948 C   0  0  0  0  0  0  0  0  0  0  0  0
   21.3839  -21.9707  -13.5156 C   0  0  0  0  0  0  0  0  0  0  0  0
   20.5731  -23.1945  -13.1646 C   0  0  0  0  0  0  0  0  0  0  0  0
   21.0112  -24.3241  -13.4728 O   0  0  0  0  0  0  0  0  0  0  0  0
   23.1631  -19.7503  -13.6426 C   0  0  0  0  0  0  0  0  0  0  0  0
   22.5098  -19.0586  -12.7905 O   0  0  0  0  0  0  0  0  0  0  0  0
   19.3643  -23.1193  -12.5156 O   0  0  0  0  0  0  0  0  0  0  0  0
   25.0765  -12.3200  -15.5608 N   0  0  0  0  0  0  0  0  0  0  0  0
   24.1560  -12.4367  -16.6462 C   0  0  0  0  0  0  0  0  0  0  0  0
   23.7209  -11.4183  -17.2888 N   0  0  0  0  0  0  0  0  0  0  0  0
   23.6919  -13.7334  -17.0435 N   0  0  0  0  0  0  0  0  0  0  0  0
   24.0417  -14.9599  -16.3599 C   0  0  0  0  0  0  0  0  0  0  0  0
   23.4460  -16.1431  -17.0407 C   0  0  0  0  0  0  0  0  0  0  0  0
   23.7110  -17.4568  -16.4435 C   0  0  0  0  0  0  0  0  0  0  0  0
   22.8517  -17.8637  -15.2960 C   0  0  2  0  0  0  0  0  0  0  0  0
   23.2946  -19.2248  -14.9320 N   0  0  0  0  0  0  0  0  0  0  0  0
   21.4130  -17.9209  -15.6371 C   0  0  0  0  0  0  0  0  0  0  0  0
   20.6234  -16.7940  -15.4433 O   0  0  0  0  0  0  0  0  0  0  0  0
   20.8383  -18.9386  -16.1006 O   0  0  0  0  0  0  0  0  0  0  0  0
  2  4  1  0
  2  3  1  6
  2  1  1  0
  5  6  1  1
  5  4  1  0
  7  5  1  0
  8  7  2  0
  9  7  1  0
 10 15  1  0
 10  9  1  0
 10 11  1  1
 12 11  1  0
 13 12  1  0
 14 13  2  0
 15 16  2  0
 17 13  1  0
 18 19  1  0
 19 21  1  0
 20 19  2  0
 21 22  1  0
 23 24  1  0
 23 22  1  0
 25 24  1  6
 25 27  1  0
 26 25  1  0
 26 15  1  0
 27 29  2  0
 27 28  1  0
M  END
$$$$
