LER.pdb
     RDKit          3D

 29 28  0  0  1  0  0  0  0  0999 V2000
   28.5905  -20.9852   -5.0886 C   0  0  0  0  0  0  0  0  0  0  0  0
   28.5775  -19.7727   -5.9833 C   0  0  2  0  0  0  0  0  0  0  0  0
   28.5919  -18.5454   -5.0614 C   0  0  0  0  0  0  0  0  0  0  0  0
   27.3625  -19.7152   -6.8860 C   0  0  0  0  0  0  0  0  0  0  0  0
   27.3084  -20.8739   -7.8338 C   0  0  2  0  0  0  0  0  0  0  0  0
   28.6236  -21.2883   -8.2357 N   0  0  0  0  0  0  0  0  0  0  0  0
   26.5169  -20.4797   -9.0349 C   0  0  0  0  0  0  0  0  0  0  0  0
   25.6755  -19.5379   -8.9873 O   0  0  0  0  0  0  0  0  0  0  0  0
   26.6773  -21.1408  -10.2636 N   0  0  0  0  0  0  0  0  0  0  0  0
   25.9389  -20.7380  -11.4848 C   0  0  1  0  0  0  0  0  0  0  0  0
   26.8504  -21.0830  -12.6108 C   0  0  0  0  0  0  0  0  0  0  0  0
   26.3432  -20.8644  -13.9870 C   0  0  0  0  0  0  0  0  0  0  0  0
   26.9380  -19.5822  -14.5162 C   0  0  0  0  0  0  0  0  0  0  0  0
   26.1825  -18.7226  -15.0195 O   0  0  0  0  0  0  0  0  0  0  0  0
   24.6213  -21.3958  -11.5062 C   0  0  0  0  0  0  0  0  0  0  0  0
   24.5789  -22.6376  -11.2103 O   0  0  0  0  0  0  0  0  0  0  0  0
   28.2855  -19.3171  -14.4681 O   0  0  0  0  0  0  0  0  0  0  0  0
   18.4629  -23.4546   -7.1451 N   0  0  0  0  0  0  0  0  0  0  0  0
   17.9790  -23.8111   -8.4403 C   0  0  0  0  0  0  0  0  0  0  0  0
   16.7889  -24.2426   -8.6327 N   0  0  0  0  0  0  0  0  0  0  0  0
   18.8435  -23.6877   -9.5770 N   0  0  0  0  0  0  0  0  0  0  0  0
   20.1183  -23.0035   -9.5506 C   0  0  0  0  0  0  0  0  0  0  0  0
   20.1022  -21.8033  -10.4325 C   0  0  0  0  0  0  0  0  0  0  0  0
   21.3853  -21.1298  -10.6618 C   0  0  0  0  0  0  0  0  0  0  0  0
   22.1266  -21.4916  -11.9029 C   0  0  2  0  0  0  0  0  0  0  0  0
   23.4119  -20.7685  -11.8220 N   0  0  0  0  0  0  0  0  0  0  0  0
   21.4340  -21.0675  -13.1397 C   0  0  0  0  0  0  0  0  0  0  0  0
   21.7163  -19.8201  -13.6830 O   0  0  0  0  0  0  0  0  0  0  0  0
   20.5884  -21.7697  -13.7503 O   0  0  0  0  0  0  0  0  0  0  0  0
  2  4  1  0
  2  3  1  1
  2  1  1  0
  5  6  1  6
  5  4  1  0
  7  5  1  0
  8  7  2  0
  9  7  1  0
 10 15  1  0
 10  9  1  0
 10 11  1  6
 12 11  1  0
 13 12  1  0
 14 13  2  0
 15 16  2  0
 17 13  1  0
 18 19  1  0
 19 21  1  0
 20 19  2  0
 21 22  1  0
 23 24  1  0
 23 22  1  0
 25 24  1  1
 25 27  1  0
 26 25  1  0
 26 15  1  0
 27 29  2  0
 27 28  1  0
M  END
$$$$
