EEE.pdb
     RDKit          3D

 28 27  0  0  1  0  0  0  0  0999 V2000
   12.9862   -9.4676   -9.4321 N   0  0  0  0  0  0  0  0  0  0  0  0
   14.4071   -9.4422   -9.4338 C   0  0  1  0  0  0  0  0  0  0  0  0
   15.1063  -10.5873  -10.0871 C   0  0  0  0  0  0  0  0  0  0  0  0
   14.2624  -11.7674  -10.3892 C   0  0  0  0  0  0  0  0  0  0  0  0
   14.9437  -12.8346  -11.1344 C   0  0  0  0  0  0  0  0  0  0  0  0
   16.1548  -12.6572  -11.4401 O   0  0  0  0  0  0  0  0  0  0  0  0
   14.9107   -8.1712  -10.0014 C   0  0  0  0  0  0  0  0  0  0  0  0
   14.5166   -7.7262  -11.1211 O   0  0  0  0  0  0  0  0  0  0  0  0
   14.3468  -14.0109  -11.5223 O   0  0  0  0  0  0  0  0  0  0  0  0
   15.8500   -7.4045   -9.3152 N   0  0  0  0  0  0  0  0  0  0  0  0
   16.3402   -6.1132   -9.8114 C   0  0  1  0  0  0  0  0  0  0  0  0
   16.0290   -5.0073   -8.8859 C   0  0  0  0  0  0  0  0  0  0  0  0
   16.6394   -3.7147   -9.3604 C   0  0  0  0  0  0  0  0  0  0  0  0
   16.2959   -2.6016   -8.4410 C   0  0  0  0  0  0  0  0  0  0  0  0
   15.5823   -2.7752   -7.4346 O   0  0  0  0  0  0  0  0  0  0  0  0
   17.7788   -6.3389  -10.0864 C   0  0  0  0  0  0  0  0  0  0  0  0
   18.6089   -6.7167   -9.2238 O   0  0  0  0  0  0  0  0  0  0  0  0
   16.7657   -1.2943   -8.6707 O   0  0  0  0  0  0  0  0  0  0  0  0
   18.3236   -6.1377  -11.3761 N   0  0  0  0  0  0  0  0  0  0  0  0
   19.7237   -6.3763  -11.6919 C   0  0  1  0  0  0  0  0  0  0  0  0
   19.9043   -7.3116  -12.8296 C   0  0  0  0  0  0  0  0  0  0  0  0
   21.3623   -7.4704  -13.1544 C   0  0  0  0  0  0  0  0  0  0  0  0
   21.5202   -8.5096  -14.2313 C   0  0  0  0  0  0  0  0  0  0  0  0
   20.7854   -9.5379  -14.2211 O   0  0  0  0  0  0  0  0  0  0  0  0
   20.3219   -5.0708  -12.0454 C   0  0  0  0  0  0  0  0  0  0  0  0
   19.7119   -4.0317  -12.3719 O   0  0  0  0  0  0  0  0  0  0  0  0
   22.4510   -8.3930  -15.2530 O   0  0  0  0  0  0  0  0  0  0  0  0
   21.7365   -4.9859  -12.0104 O   0  0  0  0  0  0  0  0  0  0  0  0
  2  1  1  6
  2  7  1  0
  2  3  1  0
  3  4  1  0
  4  5  1  0
  5  6  2  0
  7  8  2  0
  9  5  1  0
 10 11  1  0
 10  7  1  0
 12 13  1  0
 11 12  1  1
 13 14  1  0
 14 15  2  0
 14 18  1  0
 16 17  2  0
 16 11  1  0
 19 16  1  0
 20 19  1  0
 20 25  1  0
 20 21  1  6
 22 21  1  0
 23 22  1  0
 24 23  2  0
 25 28  1  0
 26 25  2  0
 27 23  1  0
M  END
$$$$
