EEE.pdb
     RDKit          3D

 28 27  0  0  1  0  0  0  0  0999 V2000
   17.5621  -11.4657  -14.9518 N   0  0  0  0  0  0  0  0  0  0  0  0
   17.1389  -10.1106  -14.8879 C   0  0  1  0  0  0  0  0  0  0  0  0
   15.6725   -9.8514  -14.9848 C   0  0  0  0  0  0  0  0  0  0  0  0
   14.9889  -10.4574  -16.1516 C   0  0  0  0  0  0  0  0  0  0  0  0
   14.2329  -11.6812  -15.8527 C   0  0  0  0  0  0  0  0  0  0  0  0
   13.9877  -11.9397  -14.6424 O   0  0  0  0  0  0  0  0  0  0  0  0
   17.6755   -9.4476  -13.6779 C   0  0  0  0  0  0  0  0  0  0  0  0
   17.7310  -10.0311  -12.5540 O   0  0  0  0  0  0  0  0  0  0  0  0
   13.7788  -12.5630  -16.8048 O   0  0  0  0  0  0  0  0  0  0  0  0
   18.1478   -8.1379  -13.7306 N   0  0  0  0  0  0  0  0  0  0  0  0
   18.7205   -7.4502  -12.5675 C   0  0  1  0  0  0  0  0  0  0  0  0
   19.9155   -6.6606  -12.9210 C   0  0  0  0  0  0  0  0  0  0  0  0
   20.4545   -5.9257  -11.7219 C   0  0  0  0  0  0  0  0  0  0  0  0
   21.7129   -5.2161  -12.0613 C   0  0  0  0  0  0  0  0  0  0  0  0
   22.8309   -5.7373  -11.8856 O   0  0  0  0  0  0  0  0  0  0  0  0
   17.5900   -6.6858  -11.9897 C   0  0  0  0  0  0  0  0  0  0  0  0
   16.8767   -5.8845  -12.6417 O   0  0  0  0  0  0  0  0  0  0  0  0
   21.6945   -3.9150  -12.5992 O   0  0  0  0  0  0  0  0  0  0  0  0
   17.2322   -6.8149  -10.6275 N   0  0  0  0  0  0  0  0  0  0  0  0
   16.2137   -5.9916   -9.9933 C   0  0  1  0  0  0  0  0  0  0  0  0
   15.3634   -6.7567   -9.0483 C   0  0  0  0  0  0  0  0  0  0  0  0
   14.2077   -7.3871   -9.7719 C   0  0  0  0  0  0  0  0  0  0  0  0
   13.3570   -8.1411   -8.7858 C   0  0  0  0  0  0  0  0  0  0  0  0
   12.3229   -8.7473   -9.1865 O   0  0  0  0  0  0  0  0  0  0  0  0
   16.9150   -4.9230   -9.2493 C   0  0  0  0  0  0  0  0  0  0  0  0
   16.3915   -3.9660   -8.6423 O   0  0  0  0  0  0  0  0  0  0  0  0
   13.6568   -8.2037   -7.4331 O   0  0  0  0  0  0  0  0  0  0  0  0
   18.3307   -4.9889   -9.2194 O   0  0  0  0  0  0  0  0  0  0  0  0
  2  1  1  1
  2  7  1  0
  2  3  1  0
  3  4  1  0
  4  5  1  0
  5  6  2  0
  7  8  2  0
  9  5  1  0
 10 11  1  0
 10  7  1  0
 12 13  1  0
 11 12  1  6
 13 14  1  0
 14 15  2  0
 14 18  1  0
 16 17  2  0
 16 11  1  0
 19 16  1  0
 20 19  1  0
 20 25  1  0
 20 21  1  1
 22 21  1  0
 23 22  1  0
 24 23  2  0
 25 28  1  0
 26 25  2  0
 27 23  1  0
M  END
$$$$
