EEE.pdb
     RDKit          3D

 28 27  0  0  1  0  0  0  0  0999 V2000
   17.6890  -13.1731  -14.1356 N   0  0  0  0  0  0  0  0  0  0  0  0
   18.2385  -12.7467  -15.3749 C   0  0  1  0  0  0  0  0  0  0  0  0
   17.9706  -13.6031  -16.5674 C   0  0  0  0  0  0  0  0  0  0  0  0
   18.0397  -15.0652  -16.3368 C   0  0  0  0  0  0  0  0  0  0  0  0
   17.6830  -15.8877  -17.5008 C   0  0  0  0  0  0  0  0  0  0  0  0
   18.6230  -16.3507  -18.2036 O   0  0  0  0  0  0  0  0  0  0  0  0
   17.8441  -11.3516  -15.6740 C   0  0  0  0  0  0  0  0  0  0  0  0
   18.2020  -10.7594  -16.7361 O   0  0  0  0  0  0  0  0  0  0  0  0
   16.3932  -16.1824  -17.8748 O   0  0  0  0  0  0  0  0  0  0  0  0
   17.0520  -10.6268  -14.7861 N   0  0  0  0  0  0  0  0  0  0  0  0
   16.5212   -9.2944  -15.0972 C   0  0  1  0  0  0  0  0  0  0  0  0
   15.0642   -9.2117  -14.8805 C   0  0  0  0  0  0  0  0  0  0  0  0
   14.3272  -10.1733  -15.7751 C   0  0  0  0  0  0  0  0  0  0  0  0
   12.8623  -10.0771  -15.5577 C   0  0  0  0  0  0  0  0  0  0  0  0
   12.2901   -8.9814  -15.4024 O   0  0  0  0  0  0  0  0  0  0  0  0
   17.3471   -8.3644  -14.2916 C   0  0  0  0  0  0  0  0  0  0  0  0
   17.6927   -8.5793  -13.1040 O   0  0  0  0  0  0  0  0  0  0  0  0
   12.0536  -11.2291  -15.5175 O   0  0  0  0  0  0  0  0  0  0  0  0
   17.8125   -7.1401  -14.8255 N   0  0  0  0  0  0  0  0  0  0  0  0
   18.6048   -6.1904  -14.0590 C   0  0  1  0  0  0  0  0  0  0  0  0
   20.0630   -6.3444  -14.2856 C   0  0  0  0  0  0  0  0  0  0  0  0
   20.8275   -5.2986  -13.5250 C   0  0  0  0  0  0  0  0  0  0  0  0
   22.2845   -5.3852  -13.8909 C   0  0  0  0  0  0  0  0  0  0  0  0
   22.9717   -4.3281  -13.9782 O   0  0  0  0  0  0  0  0  0  0  0  0
   18.1945   -4.8344  -14.4832 C   0  0  0  0  0  0  0  0  0  0  0  0
   17.8655   -4.4773  -15.6332 O   0  0  0  0  0  0  0  0  0  0  0  0
   22.9223   -6.5908  -14.1432 O   0  0  0  0  0  0  0  0  0  0  0  0
   18.1705   -3.8317  -13.4814 O   0  0  0  0  0  0  0  0  0  0  0  0
  2  1  1  1
  2  7  1  0
  2  3  1  0
  3  4  1  0
  4  5  1  0
  5  6  2  0
  7  8  2  0
  9  5  1  0
 10 11  1  0
 10  7  1  0
 12 13  1  0
 11 12  1  1
 13 14  1  0
 14 15  2  0
 14 18  1  0
 16 17  2  0
 16 11  1  0
 19 16  1  0
 20 19  1  0
 20 25  1  0
 20 21  1  6
 22 21  1  0
 23 22  1  0
 24 23  2  0
 25 28  1  0
 26 25  2  0
 27 23  1  0
M  END
$$$$
