EEE.pdb
     RDKit          3D

 28 27  0  0  1  0  0  0  0  0999 V2000
   16.7226  -10.2394  -16.1826 N   0  0  0  0  0  0  0  0  0  0  0  0
   17.7534  -10.6245  -15.2833 C   0  0  1  0  0  0  0  0  0  0  0  0
   17.7699  -12.0490  -14.8386 C   0  0  0  0  0  0  0  0  0  0  0  0
   16.8518  -12.9588  -15.5634 C   0  0  0  0  0  0  0  0  0  0  0  0
   17.0096  -14.3815  -15.2323 C   0  0  0  0  0  0  0  0  0  0  0  0
   17.3919  -15.1595  -16.1490 O   0  0  0  0  0  0  0  0  0  0  0  0
   19.0842  -10.2628  -15.8213 C   0  0  0  0  0  0  0  0  0  0  0  0
   20.1451  -10.3764  -15.1370 O   0  0  0  0  0  0  0  0  0  0  0  0
   16.7650  -14.9193  -13.9908 O   0  0  0  0  0  0  0  0  0  0  0  0
   19.2224   -9.7778  -17.1201 N   0  0  0  0  0  0  0  0  0  0  0  0
   20.5238   -9.4487  -17.7133 C   0  0  1  0  0  0  0  0  0  0  0  0
   20.5613   -9.7277  -19.1615 C   0  0  0  0  0  0  0  0  0  0  0  0
   21.0239  -11.1355  -19.4310 C   0  0  0  0  0  0  0  0  0  0  0  0
   20.9748  -11.4367  -20.8833 C   0  0  0  0  0  0  0  0  0  0  0  0
   20.6516  -12.5609  -21.3121 O   0  0  0  0  0  0  0  0  0  0  0  0
   20.7695   -8.0409  -17.3209 C   0  0  0  0  0  0  0  0  0  0  0  0
   19.8671   -7.2393  -16.9757 O   0  0  0  0  0  0  0  0  0  0  0  0
   21.2944  -10.4570  -21.8428 O   0  0  0  0  0  0  0  0  0  0  0  0
   22.0744   -7.4955  -17.3095 N   0  0  0  0  0  0  0  0  0  0  0  0
   22.3796   -6.1797  -16.7685 C   0  0  1  0  0  0  0  0  0  0  0  0
   21.9290   -6.0177  -15.3641 C   0  0  0  0  0  0  0  0  0  0  0  0
   22.2294   -4.6308  -14.8713 C   0  0  0  0  0  0  0  0  0  0  0  0
   21.7037   -4.4778  -13.4697 C   0  0  0  0  0  0  0  0  0  0  0  0
   22.5033   -4.5292  -12.4923 O   0  0  0  0  0  0  0  0  0  0  0  0
   23.8481   -6.0135  -16.8227 C   0  0  0  0  0  0  0  0  0  0  0  0
   24.6870   -6.8744  -17.1595 O   0  0  0  0  0  0  0  0  0  0  0  0
   20.3591   -4.2807  -13.1922 O   0  0  0  0  0  0  0  0  0  0  0  0
   24.3613   -4.7443  -16.4548 O   0  0  0  0  0  0  0  0  0  0  0  0
  2  1  1  6
  2  7  1  0
  2  3  1  0
  3  4  1  0
  4  5  1  0
  5  6  2  0
  7  8  2  0
  9  5  1  0
 10 11  1  0
 10  7  1  0
 12 13  1  0
 11 12  1  6
 13 14  1  0
 14 15  2  0
 14 18  1  0
 16 17  2  0
 16 11  1  0
 19 16  1  0
 20 19  1  0
 20 25  1  0
 20 21  1  1
 22 21  1  0
 23 22  1  0
 24 23  2  0
 25 28  1  0
 26 25  2  0
 27 23  1  0
M  END
$$$$
