EEE.pdb
     RDKit          3D

 28 27  0  0  1  0  0  0  0  0999 V2000
   17.7336  -12.1209  -15.5042 N   0  0  0  0  0  0  0  0  0  0  0  0
   18.3339  -11.1086  -16.3007 C   0  0  1  0  0  0  0  0  0  0  0  0
   17.4335  -10.0522  -16.8488 C   0  0  0  0  0  0  0  0  0  0  0  0
   16.2123   -9.7747  -16.0567 C   0  0  0  0  0  0  0  0  0  0  0  0
   15.3268   -8.7528  -16.6315 C   0  0  0  0  0  0  0  0  0  0  0  0
   15.1543   -7.6886  -15.9763 O   0  0  0  0  0  0  0  0  0  0  0  0
   19.4588  -10.4698  -15.5810 C   0  0  0  0  0  0  0  0  0  0  0  0
   19.4161  -10.2255  -14.3379 O   0  0  0  0  0  0  0  0  0  0  0  0
   14.6729   -8.8825  -17.8340 O   0  0  0  0  0  0  0  0  0  0  0  0
   20.6244  -10.1088  -16.2534 N   0  0  0  0  0  0  0  0  0  0  0  0
   21.7684   -9.4797  -15.5830 C   0  0  1  0  0  0  0  0  0  0  0  0
   23.0579   -9.9634  -16.1120 C   0  0  0  0  0  0  0  0  0  0  0  0
   24.2147   -9.3256  -15.3885 C   0  0  0  0  0  0  0  0  0  0  0  0
   25.5075   -9.8198  -15.9240 C   0  0  0  0  0  0  0  0  0  0  0  0
   26.0272   -9.3310  -16.9454 O   0  0  0  0  0  0  0  0  0  0  0  0
   21.5238   -8.0237  -15.7114 C   0  0  0  0  0  0  0  0  0  0  0  0
   21.0868   -7.4730  -16.7514 O   0  0  0  0  0  0  0  0  0  0  0  0
   26.2042  -10.8694  -15.2951 O   0  0  0  0  0  0  0  0  0  0  0  0
   21.7740   -7.1365  -14.6386 N   0  0  0  0  0  0  0  0  0  0  0  0
   21.4404   -5.7210  -14.6856 C   0  0  1  0  0  0  0  0  0  0  0  0
   19.9774   -5.4747  -14.6619 C   0  0  0  0  0  0  0  0  0  0  0  0
   19.4992   -5.0134  -16.0091 C   0  0  0  0  0  0  0  0  0  0  0  0
   18.2507   -5.7684  -16.3774 C   0  0  0  0  0  0  0  0  0  0  0  0
   17.1909   -5.5873  -15.7131 O   0  0  0  0  0  0  0  0  0  0  0  0
   22.0523   -5.0870  -13.4977 C   0  0  0  0  0  0  0  0  0  0  0  0
   22.6196   -5.6665  -12.5487 O   0  0  0  0  0  0  0  0  0  0  0  0
   18.2053   -6.6714  -17.4292 O   0  0  0  0  0  0  0  0  0  0  0  0
   21.9907   -3.6727  -13.4257 O   0  0  0  0  0  0  0  0  0  0  0  0
  2  1  1  1
  2  7  1  0
  2  3  1  0
  3  4  1  0
  4  5  1  0
  5  6  2  0
  7  8  2  0
  9  5  1  0
 10 11  1  0
 10  7  1  0
 12 13  1  0
 11 12  1  6
 13 14  1  0
 14 15  2  0
 14 18  1  0
 16 17  2  0
 16 11  1  0
 19 16  1  0
 20 19  1  0
 20 25  1  0
 20 21  1  1
 22 21  1  0
 23 22  1  0
 24 23  2  0
 25 28  1  0
 26 25  2  0
 27 23  1  0
M  END
$$$$
