EEE.pdb
     RDKit          3D

 28 27  0  0  1  0  0  0  0  0999 V2000
   31.7259  -35.3173   -1.4736 N   0  0  0  0  0  0  0  0  0  0  0  0
   30.7672  -35.6117   -0.4667 C   0  0  1  0  0  0  0  0  0  0  0  0
   31.2727  -36.2359    0.7910 C   0  0  0  0  0  0  0  0  0  0  0  0
   32.2890  -35.4533    1.5330 C   0  0  0  0  0  0  0  0  0  0  0  0
   32.7896  -36.0990    2.7542 C   0  0  0  0  0  0  0  0  0  0  0  0
   33.3972  -37.1978    2.6313 O   0  0  0  0  0  0  0  0  0  0  0  0
   29.9688  -34.4108   -0.1322 C   0  0  0  0  0  0  0  0  0  0  0  0
   30.3068  -33.2473   -0.5048 O   0  0  0  0  0  0  0  0  0  0  0  0
   32.6362  -35.5855    4.0203 O   0  0  0  0  0  0  0  0  0  0  0  0
   28.7977  -34.5166    0.6150 N   0  0  0  0  0  0  0  0  0  0  0  0
   27.8657  -33.3977    0.7981 C   0  0  1  0  0  0  0  0  0  0  0  0
   26.7157  -33.4754   -0.1226 C   0  0  0  0  0  0  0  0  0  0  0  0
   25.7547  -32.3398    0.1125 C   0  0  0  0  0  0  0  0  0  0  0  0
   24.5784  -32.4512   -0.7853 C   0  0  0  0  0  0  0  0  0  0  0  0
   24.6120  -33.1220   -1.8346 O   0  0  0  0  0  0  0  0  0  0  0  0
   27.5376  -33.4158    2.2432 C   0  0  0  0  0  0  0  0  0  0  0  0
   27.4379  -34.4628    2.9287 O   0  0  0  0  0  0  0  0  0  0  0  0
   23.3675  -31.7979   -0.4857 O   0  0  0  0  0  0  0  0  0  0  0  0
   27.3098  -32.2196    2.9628 N   0  0  0  0  0  0  0  0  0  0  0  0
   26.9388  -32.1985    4.3696 C   0  0  1  0  0  0  0  0  0  0  0  0
   27.0617  -30.8497    4.9756 C   0  0  0  0  0  0  0  0  0  0  0  0
   26.7279  -30.8977    6.4394 C   0  0  0  0  0  0  0  0  0  0  0  0
   26.9093  -29.5275    7.0346 C   0  0  0  0  0  0  0  0  0  0  0  0
   25.8961  -28.8590    7.3865 O   0  0  0  0  0  0  0  0  0  0  0  0
   25.5291  -32.6367    4.4575 C   0  0  0  0  0  0  0  0  0  0  0  0
   24.6699  -32.5804    3.5536 O   0  0  0  0  0  0  0  0  0  0  0  0
   28.1572  -28.9508    7.2183 O   0  0  0  0  0  0  0  0  0  0  0  0
   25.1048  -33.1786    5.6968 O   0  0  0  0  0  0  0  0  0  0  0  0
  2  1  1  6
  2  7  1  0
  2  3  1  0
  3  4  1  0
  4  5  1  0
  5  6  2  0
  7  8  2  0
  9  5  1  0
 10 11  1  0
 10  7  1  0
 12 13  1  0
 11 12  1  6
 13 14  1  0
 14 15  2  0
 14 18  1  0
 16 17  2  0
 16 11  1  0
 19 16  1  0
 20 19  1  0
 20 25  1  0
 20 21  1  6
 22 21  1  0
 23 22  1  0
 24 23  2  0
 25 28  1  0
 26 25  2  0
 27 23  1  0
M  END
$$$$
