EEE.pdb
     RDKit          3D

 28 27  0  0  1  0  0  0  0  0999 V2000
   24.5036  -19.3707  -15.5413 N   0  0  0  0  0  0  0  0  0  0  0  0
   24.1970  -20.4689  -14.6931 C   0  0  1  0  0  0  0  0  0  0  0  0
   25.3186  -21.0443  -13.8944 C   0  0  0  0  0  0  0  0  0  0  0  0
   26.4750  -21.5415  -14.6763 C   0  0  0  0  0  0  0  0  0  0  0  0
   26.1902  -22.7134  -15.5155 C   0  0  0  0  0  0  0  0  0  0  0  0
   26.9410  -22.9223  -16.5077 O   0  0  0  0  0  0  0  0  0  0  0  0
   23.0705  -20.1395  -13.7910 C   0  0  0  0  0  0  0  0  0  0  0  0
   23.1431  -19.2154  -12.9263 O   0  0  0  0  0  0  0  0  0  0  0  0
   25.1582  -23.5938  -15.2916 O   0  0  0  0  0  0  0  0  0  0  0  0
   21.8699  -20.8429  -13.8605 N   0  0  0  0  0  0  0  0  0  0  0  0
   20.7007  -20.5063  -13.0399 C   0  0  1  0  0  0  0  0  0  0  0  0
   19.7655  -19.6096  -13.7454 C   0  0  0  0  0  0  0  0  0  0  0  0
   18.6141  -19.2186  -12.8568 C   0  0  0  0  0  0  0  0  0  0  0  0
   17.6018  -18.4442  -13.6170 C   0  0  0  0  0  0  0  0  0  0  0  0
   17.9234  -17.5273  -14.3968 O   0  0  0  0  0  0  0  0  0  0  0  0
   20.1471  -21.8156  -12.6211 C   0  0  0  0  0  0  0  0  0  0  0  0
   20.0369  -22.8083  -13.3817 O   0  0  0  0  0  0  0  0  0  0  0  0
   16.2264  -18.7160  -13.4865 O   0  0  0  0  0  0  0  0  0  0  0  0
   19.6952  -22.0365  -11.2992 N   0  0  0  0  0  0  0  0  0  0  0  0
   19.1899  -23.3206  -10.8376 C   0  0  1  0  0  0  0  0  0  0  0  0
   19.1049  -23.4062   -9.3588 C   0  0  0  0  0  0  0  0  0  0  0  0
   18.8551  -24.8231   -8.9268 C   0  0  0  0  0  0  0  0  0  0  0  0
   19.0122  -24.9213   -7.4334 C   0  0  0  0  0  0  0  0  0  0  0  0
   19.2825  -23.8845   -6.7631 O   0  0  0  0  0  0  0  0  0  0  0  0
   17.8348  -23.4881  -11.4059 C   0  0  0  0  0  0  0  0  0  0  0  0
   16.9090  -22.6509  -11.3932 O   0  0  0  0  0  0  0  0  0  0  0  0
   18.8736  -26.1165   -6.7435 O   0  0  0  0  0  0  0  0  0  0  0  0
   17.5538  -24.7283  -12.0324 O   0  0  0  0  0  0  0  0  0  0  0  0
  2  1  1  1
  2  7  1  0
  2  3  1  0
  3  4  1  0
  4  5  1  0
  5  6  2  0
  7  8  2  0
  9  5  1  0
 10 11  1  0
 10  7  1  0
 12 13  1  0
 11 12  1  6
 13 14  1  0
 14 15  2  0
 14 18  1  0
 16 17  2  0
 16 11  1  0
 19 16  1  0
 20 19  1  0
 20 25  1  0
 20 21  1  1
 22 21  1  0
 23 22  1  0
 24 23  2  0
 25 28  1  0
 26 25  2  0
 27 23  1  0
M  END
$$$$
