EEE.pdb
     RDKit          3D

 28 27  0  0  1  0  0  0  0  0999 V2000
   21.5827  -10.9404  -16.7671 N   0  0  0  0  0  0  0  0  0  0  0  0
   20.3482  -10.6626  -17.4140 C   0  0  1  0  0  0  0  0  0  0  0  0
   19.1715  -11.4897  -17.0161 C   0  0  0  0  0  0  0  0  0  0  0  0
   19.2170  -12.0547  -15.6469 C   0  0  0  0  0  0  0  0  0  0  0  0
   17.9968  -12.7609  -15.2334 C   0  0  0  0  0  0  0  0  0  0  0  0
   16.9410  -12.0828  -15.1026 O   0  0  0  0  0  0  0  0  0  0  0  0
   20.0024   -9.2281  -17.2956 C   0  0  0  0  0  0  0  0  0  0  0  0
   18.9711   -8.7327  -17.8414 O   0  0  0  0  0  0  0  0  0  0  0  0
   17.9320  -14.1101  -14.9773 O   0  0  0  0  0  0  0  0  0  0  0  0
   20.8094   -8.3561  -16.5680 N   0  0  0  0  0  0  0  0  0  0  0  0
   20.4454   -6.9569  -16.3158 C   0  0  1  0  0  0  0  0  0  0  0  0
   20.4573   -6.6297  -14.8773 C   0  0  0  0  0  0  0  0  0  0  0  0
   21.8324   -6.2111  -14.4275 C   0  0  0  0  0  0  0  0  0  0  0  0
   21.8309   -5.8621  -12.9851 C   0  0  0  0  0  0  0  0  0  0  0  0
   20.8930   -6.1837  -12.2307 O   0  0  0  0  0  0  0  0  0  0  0  0
   21.3713   -6.1699  -17.1641 C   0  0  0  0  0  0  0  0  0  0  0  0
   22.5212   -6.5521  -17.4922 O   0  0  0  0  0  0  0  0  0  0  0  0
   22.8972   -5.1476  -12.4063 O   0  0  0  0  0  0  0  0  0  0  0  0
   21.0072   -4.9015  -17.6733 N   0  0  0  0  0  0  0  0  0  0  0  0
   21.8581   -4.1318  -18.5681 C   0  0  1  0  0  0  0  0  0  0  0  0
   21.1224   -3.5950  -19.7395 C   0  0  0  0  0  0  0  0  0  0  0  0
   22.0612   -2.8786  -20.6679 C   0  0  0  0  0  0  0  0  0  0  0  0
   21.3008   -2.4132  -21.8802 C   0  0  0  0  0  0  0  0  0  0  0  0
   21.9296   -1.9467  -22.8723 O   0  0  0  0  0  0  0  0  0  0  0  0
   22.4060   -3.0016  -17.7874 C   0  0  0  0  0  0  0  0  0  0  0  0
   21.9654   -2.5537  -16.7087 O   0  0  0  0  0  0  0  0  0  0  0  0
   19.9175   -2.4707  -21.9634 O   0  0  0  0  0  0  0  0  0  0  0  0
   23.5524   -2.3567  -18.3158 O   0  0  0  0  0  0  0  0  0  0  0  0
  2  1  1  1
  2  7  1  0
  2  3  1  0
  3  4  1  0
  4  5  1  0
  5  6  2  0
  7  8  2  0
  9  5  1  0
 10 11  1  0
 10  7  1  0
 12 13  1  0
 11 12  1  1
 13 14  1  0
 14 15  2  0
 14 18  1  0
 16 17  2  0
 16 11  1  0
 19 16  1  0
 20 19  1  0
 20 25  1  0
 20 21  1  6
 22 21  1  0
 23 22  1  0
 24 23  2  0
 25 28  1  0
 26 25  2  0
 27 23  1  0
M  END
$$$$
