EEE.pdb
     RDKit          3D

 28 27  0  0  1  0  0  0  0  0999 V2000
   22.9301  -12.3287  -17.6356 N   0  0  0  0  0  0  0  0  0  0  0  0
   22.7779  -11.1814  -18.4603 C   0  0  1  0  0  0  0  0  0  0  0  0
   22.3129  -11.4078  -19.8602 C   0  0  0  0  0  0  0  0  0  0  0  0
   21.8014  -12.7670  -20.1552 C   0  0  0  0  0  0  0  0  0  0  0  0
   21.3359  -12.9615  -21.5351 C   0  0  0  0  0  0  0  0  0  0  0  0
   20.0928  -13.0573  -21.7281 O   0  0  0  0  0  0  0  0  0  0  0  0
   21.9063  -10.1769  -17.8101 C   0  0  0  0  0  0  0  0  0  0  0  0
   21.6218   -9.0703  -18.3590 O   0  0  0  0  0  0  0  0  0  0  0  0
   22.1663  -13.0488  -22.6274 O   0  0  0  0  0  0  0  0  0  0  0  0
   21.3571  -10.4146  -16.5519 N   0  0  0  0  0  0  0  0  0  0  0  0
   20.4563   -9.4678  -15.8841 C   0  0  1  0  0  0  0  0  0  0  0  0
   19.5472  -10.1394  -14.9360 C   0  0  0  0  0  0  0  0  0  0  0  0
   18.3625  -10.7355  -15.6500 C   0  0  0  0  0  0  0  0  0  0  0  0
   17.4285  -11.3659  -14.6843 C   0  0  0  0  0  0  0  0  0  0  0  0
   17.1054  -12.5663  -14.7684 O   0  0  0  0  0  0  0  0  0  0  0  0
   21.3545   -8.4434  -15.3011 C   0  0  0  0  0  0  0  0  0  0  0  0
   22.4479   -8.7031  -14.7416 O   0  0  0  0  0  0  0  0  0  0  0  0
   16.8649  -10.6275  -13.6262 O   0  0  0  0  0  0  0  0  0  0  0  0
   21.0275   -7.0679  -15.3396 N   0  0  0  0  0  0  0  0  0  0  0  0
   21.9061   -6.0288  -14.8244 C   0  0  1  0  0  0  0  0  0  0  0  0
   22.2267   -4.9934  -15.8377 C   0  0  0  0  0  0  0  0  0  0  0  0
   23.1507   -3.9594  -15.2600 C   0  0  0  0  0  0  0  0  0  0  0  0
   23.3679   -2.8675  -16.2723 C   0  0  0  0  0  0  0  0  0  0  0  0
   23.0704   -1.6745  -15.9795 O   0  0  0  0  0  0  0  0  0  0  0  0
   21.2080   -5.3880  -13.6889 C   0  0  0  0  0  0  0  0  0  0  0  0
   19.9741   -5.2869  -13.5296 O   0  0  0  0  0  0  0  0  0  0  0  0
   23.8871   -3.1105  -17.5353 O   0  0  0  0  0  0  0  0  0  0  0  0
   22.0222   -4.8291  -12.6720 O   0  0  0  0  0  0  0  0  0  0  0  0
  2  1  1  1
  2  7  1  0
  2  3  1  0
  3  4  1  0
  4  5  1  0
  5  6  2  0
  7  8  2  0
  9  5  1  0
 10 11  1  0
 10  7  1  0
 12 13  1  0
 11 12  1  1
 13 14  1  0
 14 15  2  0
 14 18  1  0
 16 17  2  0
 16 11  1  0
 19 16  1  0
 20 19  1  0
 20 25  1  0
 20 21  1  6
 22 21  1  0
 23 22  1  0
 24 23  2  0
 25 28  1  0
 26 25  2  0
 27 23  1  0
M  END
$$$$
