EEE.pdb
     RDKit          3D

 28 27  0  0  1  0  0  0  0  0999 V2000
   26.9702  -19.5492  -14.1070 N   0  0  0  0  0  0  0  0  0  0  0  0
   26.7203  -18.8425  -15.3143 C   0  0  1  0  0  0  0  0  0  0  0  0
   27.5134  -19.2440  -16.5131 C   0  0  0  0  0  0  0  0  0  0  0  0
   27.6471  -20.7029  -16.7357 C   0  0  0  0  0  0  0  0  0  0  0  0
   28.4167  -21.0734  -17.9311 C   0  0  0  0  0  0  0  0  0  0  0  0
   28.9126  -20.1421  -18.6229 O   0  0  0  0  0  0  0  0  0  0  0  0
   25.2786  -18.8653  -15.6495 C   0  0  0  0  0  0  0  0  0  0  0  0
   24.8301  -18.4072  -16.7430 O   0  0  0  0  0  0  0  0  0  0  0  0
   28.6284  -22.3671  -18.3456 O   0  0  0  0  0  0  0  0  0  0  0  0
   24.3469  -19.4002  -14.7624 N   0  0  0  0  0  0  0  0  0  0  0  0
   22.9255  -19.5509  -15.0949 C   0  0  1  0  0  0  0  0  0  0  0  0
   22.2849  -20.6315  -14.3213 C   0  0  0  0  0  0  0  0  0  0  0  0
   20.8301  -20.7707  -14.6858 C   0  0  0  0  0  0  0  0  0  0  0  0
   20.1969  -21.8687  -13.9141 C   0  0  0  0  0  0  0  0  0  0  0  0
   19.1084  -21.7184  -13.3269 O   0  0  0  0  0  0  0  0  0  0  0  0
   22.3516  -18.1972  -14.9097 C   0  0  0  0  0  0  0  0  0  0  0  0
   22.5566  -17.4784  -13.9012 O   0  0  0  0  0  0  0  0  0  0  0  0
   20.8053  -23.1345  -13.8130 O   0  0  0  0  0  0  0  0  0  0  0  0
   21.5124  -17.6120  -15.8864 N   0  0  0  0  0  0  0  0  0  0  0  0
   20.9351  -16.2840  -15.7435 C   0  0  1  0  0  0  0  0  0  0  0  0
   21.6038  -15.2722  -16.5982 C   0  0  0  0  0  0  0  0  0  0  0  0
   21.5075  -15.6597  -18.0464 C   0  0  0  0  0  0  0  0  0  0  0  0
   22.1858  -14.6115  -18.8864 C   0  0  0  0  0  0  0  0  0  0  0  0
   22.6481  -13.5717  -18.3365 O   0  0  0  0  0  0  0  0  0  0  0  0
   19.5129  -16.3799  -16.1378 C   0  0  0  0  0  0  0  0  0  0  0  0
   18.9669  -17.3227  -16.7471 O   0  0  0  0  0  0  0  0  0  0  0  0
   22.3301  -14.7320  -20.2606 O   0  0  0  0  0  0  0  0  0  0  0  0
   18.6784  -15.2884  -15.7886 O   0  0  0  0  0  0  0  0  0  0  0  0
  2  1  1  1
  2  7  1  0
  2  3  1  0
  3  4  1  0
  4  5  1  0
  5  6  2  0
  7  8  2  0
  9  5  1  0
 10 11  1  0
 10  7  1  0
 12 13  1  0
 11 12  1  1
 13 14  1  0
 14 15  2  0
 14 18  1  0
 16 17  2  0
 16 11  1  0
 19 16  1  0
 20 19  1  0
 20 25  1  0
 20 21  1  6
 22 21  1  0
 23 22  1  0
 24 23  2  0
 25 28  1  0
 26 25  2  0
 27 23  1  0
M  END
$$$$
