EEE.pdb
     RDKit          3D

 28 27  0  0  1  0  0  0  0  0999 V2000
   13.6451   -9.8105   -9.7537 N   0  0  0  0  0  0  0  0  0  0  0  0
   15.0607   -9.7879   -9.8765 C   0  0  1  0  0  0  0  0  0  0  0  0
   15.6977  -10.9243  -10.6045 C   0  0  0  0  0  0  0  0  0  0  0  0
   15.1937  -11.1718  -11.9759 C   0  0  0  0  0  0  0  0  0  0  0  0
   15.7835  -12.3392  -12.6452 C   0  0  0  0  0  0  0  0  0  0  0  0
   15.1074  -13.4041  -12.6738 O   0  0  0  0  0  0  0  0  0  0  0  0
   15.5181   -8.5093  -10.4660 C   0  0  0  0  0  0  0  0  0  0  0  0
   14.9376   -7.9749  -11.4581 O   0  0  0  0  0  0  0  0  0  0  0  0
   17.0237  -12.3471  -13.2386 O   0  0  0  0  0  0  0  0  0  0  0  0
   16.6197   -7.8351   -9.9437 N   0  0  0  0  0  0  0  0  0  0  0  0
   17.0712   -6.5339  -10.4505 C   0  0  1  0  0  0  0  0  0  0  0  0
   16.7904   -5.4396   -9.5017 C   0  0  0  0  0  0  0  0  0  0  0  0
   17.2572   -4.1156  -10.0471 C   0  0  0  0  0  0  0  0  0  0  0  0
   16.9705   -3.0205   -9.0875 C   0  0  0  0  0  0  0  0  0  0  0  0
   16.5251   -1.9182   -9.4600 O   0  0  0  0  0  0  0  0  0  0  0  0
   18.4980   -6.7398  -10.7939 C   0  0  0  0  0  0  0  0  0  0  0  0
   19.3546   -7.1946   -9.9968 O   0  0  0  0  0  0  0  0  0  0  0  0
   17.1923   -3.1838   -7.7066 O   0  0  0  0  0  0  0  0  0  0  0  0
   18.9996   -6.4286  -12.0792 N   0  0  0  0  0  0  0  0  0  0  0  0
   20.4067   -6.5448  -12.4312 C   0  0  1  0  0  0  0  0  0  0  0  0
   20.6139   -7.0831  -13.7983 C   0  0  0  0  0  0  0  0  0  0  0  0
   20.2576   -8.5415  -13.8496 C   0  0  0  0  0  0  0  0  0  0  0  0
   20.5180   -9.0672  -15.2353 C   0  0  0  0  0  0  0  0  0  0  0  0
   20.3805  -10.3010  -15.4727 O   0  0  0  0  0  0  0  0  0  0  0  0
   20.9904   -5.1880  -12.3570 C   0  0  0  0  0  0  0  0  0  0  0  0
   20.3693   -4.1109  -12.2457 O   0  0  0  0  0  0  0  0  0  0  0  0
   20.9103   -8.2492  -16.2845 O   0  0  0  0  0  0  0  0  0  0  0  0
   22.4037   -5.0966  -12.4177 O   0  0  0  0  0  0  0  0  0  0  0  0
  2  1  1  6
  2  7  1  0
  2  3  1  0
  3  4  1  0
  4  5  1  0
  5  6  2  0
  7  8  2  0
  9  5  1  0
 10 11  1  0
 10  7  1  0
 12 13  1  0
 11 12  1  1
 13 14  1  0
 14 15  2  0
 14 18  1  0
 16 17  2  0
 16 11  1  0
 19 16  1  0
 20 19  1  0
 20 25  1  0
 20 21  1  6
 22 21  1  0
 23 22  1  0
 24 23  2  0
 25 28  1  0
 26 25  2  0
 27 23  1  0
M  END
$$$$
