KCY.pdb
     RDKit          3D

 28 28  0  0  1  0  0  0  0  0999 V2000
    7.2485  -15.5684   19.4273 N   0  0  0  0  0  0  0  0  0  0  0  0
    8.1666  -14.4521   19.4778 C   0  0  1  0  0  0  0  0  0  0  0  0
    7.4971  -13.2269   18.9298 C   0  0  0  0  0  0  0  0  0  0  0  0
    6.8695  -13.5633   17.6027 C   0  0  0  0  0  0  0  0  0  0  0  0
    7.9316  -13.8247   16.5783 C   0  0  0  0  0  0  0  0  0  0  0  0
    7.3342  -14.0817   15.2039 C   0  0  0  0  0  0  0  0  0  0  0  0
    8.4385  -14.1415   14.2638 N   0  0  0  0  0  0  0  0  0  0  0  0
    8.5116  -14.1570   20.9169 C   0  0  0  0  0  0  0  0  0  0  0  0
    9.2078  -13.1714   21.2464 O   0  0  0  0  0  0  0  0  0  0  0  0
    8.0328  -15.0232   21.9357 N   0  0  0  0  0  0  0  0  0  0  0  0
    8.4254  -14.7657   23.3083 C   0  0  1  0  0  0  0  0  0  0  0  0
    7.1930  -14.5052   24.1727 C   0  0  0  0  0  0  0  0  0  0  0  0
    7.6678  -14.2008   25.8903 S   0  0  0  0  0  0  0  0  0  0  0  0
    9.0192  -16.0460   23.8390 C   0  0  0  0  0  0  0  0  0  0  0  0
    8.3062  -16.9184   24.4041 O   0  0  0  0  0  0  0  0  0  0  0  0
   11.0236  -16.1101   31.1766 O   0  0  0  0  0  0  0  0  0  0  0  0
   11.0071  -15.7946   29.8057 C   0  0  0  0  0  0  0  0  0  0  0  0
   11.3805  -16.8007   28.9490 C   0  0  0  0  0  0  0  0  0  0  0  0
   11.3875  -16.5577   27.5713 C   0  0  0  0  0  0  0  0  0  0  0  0
   11.0221  -15.3244   27.1163 C   0  0  0  0  0  0  0  0  0  0  0  0
   11.0145  -15.0290   25.6731 C   0  0  0  0  0  0  0  0  0  0  0  0
   11.2323  -16.3190   24.9152 C   0  0  2  0  0  0  0  0  0  0  0  0
   10.3999  -16.3243   23.7266 N   0  0  0  0  0  0  0  0  0  0  0  0
   10.8638  -17.5229   25.7008 C   0  0  0  0  0  0  0  0  0  0  0  0
   11.7553  -18.3547   26.0088 O   0  0  0  0  0  0  0  0  0  0  0  0
   10.6517  -14.3327   27.9996 C   0  0  0  0  0  0  0  0  0  0  0  0
   10.6336  -14.5395   29.3712 C   0  0  0  0  0  0  0  0  0  0  0  0
    9.5737  -17.8027   26.1302 O   0  0  0  0  0  0  0  0  0  0  0  0
  2  1  1  1
  3  2  1  0
  4  5  1  0
  4  3  1  0
  5  6  1  0
  7  6  1  0
  8 10  1  0
  8  2  1  0
  9  8  2  0
 11 10  1  0
 11 12  1  1
 13 12  1  0
 14 11  1  0
 15 14  2  0
 16 17  1  0
 17 27  2  0
 17 18  1  0
 18 19  2  0
 19 20  1  0
 20 21  1  0
 22 21  1  1
 22 24  1  0
 22 23  1  0
 23 14  1  0
 24 28  1  0
 25 24  2  0
 26 20  2  0
 27 26  1  0
M  END
$$$$
