KCY.pdb
     RDKit          3D

 28 28  0  0  1  0  0  0  0  0999 V2000
    7.9368  -18.7544   19.9226 N   0  0  0  0  0  0  0  0  0  0  0  0
    9.2920  -18.4486   19.5209 C   0  0  1  0  0  0  0  0  0  0  0  0
    9.3372  -18.2242   18.0385 C   0  0  0  0  0  0  0  0  0  0  0  0
    9.0100  -19.5160   17.3370 C   0  0  0  0  0  0  0  0  0  0  0  0
    9.1397  -19.3477   15.8535 C   0  0  0  0  0  0  0  0  0  0  0  0
    8.8258  -20.6380   15.1130 C   0  0  0  0  0  0  0  0  0  0  0  0
    9.8225  -20.7827   14.0678 N   0  0  0  0  0  0  0  0  0  0  0  0
    9.7247  -17.1586   20.1733 C   0  0  0  0  0  0  0  0  0  0  0  0
   10.7465  -16.5369   19.8071 O   0  0  0  0  0  0  0  0  0  0  0  0
    8.9504  -16.6276   21.2392 N   0  0  0  0  0  0  0  0  0  0  0  0
    9.4907  -15.5218   22.0070 C   0  0  1  0  0  0  0  0  0  0  0  0
    8.3687  -14.5826   22.4463 C   0  0  0  0  0  0  0  0  0  0  0  0
    7.0895  -15.4896   23.3460 S   0  0  0  0  0  0  0  0  0  0  0  0
   10.0420  -16.1058   23.2832 C   0  0  0  0  0  0  0  0  0  0  0  0
    9.4722  -17.0658   23.8684 O   0  0  0  0  0  0  0  0  0  0  0  0
    8.7871  -12.1657   28.9983 O   0  0  0  0  0  0  0  0  0  0  0  0
    9.1739  -13.2670   28.2130 C   0  0  0  0  0  0  0  0  0  0  0  0
   10.3839  -13.8366   28.5246 C   0  0  0  0  0  0  0  0  0  0  0  0
   10.8323  -14.9361   27.7848 C   0  0  0  0  0  0  0  0  0  0  0  0
   10.0526  -15.4130   26.7718 C   0  0  0  0  0  0  0  0  0  0  0  0
   10.4882  -16.5698   25.9704 C   0  0  0  0  0  0  0  0  0  0  0  0
   11.6814  -16.1585   25.1379 C   0  0  2  0  0  0  0  0  0  0  0  0
   11.2205  -15.6033   23.8790 N   0  0  0  0  0  0  0  0  0  0  0  0
   12.5744  -17.2953   24.8025 C   0  0  0  0  0  0  0  0  0  0  0  0
   13.8120  -17.1853   24.9974 O   0  0  0  0  0  0  0  0  0  0  0  0
    8.8418  -14.8211   26.4809 C   0  0  0  0  0  0  0  0  0  0  0  0
    8.3672  -13.7299   27.1939 C   0  0  0  0  0  0  0  0  0  0  0  0
   12.1300  -18.5006   24.2763 O   0  0  0  0  0  0  0  0  0  0  0  0
  2  1  1  1
  3  2  1  0
  4  5  1  0
  4  3  1  0
  5  6  1  0
  7  6  1  0
  8 10  1  0
  8  2  1  0
  9  8  2  0
 11 10  1  0
 11 12  1  1
 13 12  1  0
 14 11  1  0
 15 14  2  0
 16 17  1  0
 17 27  2  0
 17 18  1  0
 18 19  2  0
 19 20  1  0
 20 21  1  0
 22 21  1  1
 22 24  1  0
 22 23  1  0
 23 14  1  0
 24 28  1  0
 25 24  2  0
 26 20  2  0
 27 26  1  0
M  END
$$$$
