KCY.pdb
     RDKit          3D

 28 28  0  0  1  0  0  0  0  0999 V2000
    7.9276  -16.0696   17.3170 N   0  0  0  0  0  0  0  0  0  0  0  0
    8.4536  -15.1091   18.2616 C   0  0  1  0  0  0  0  0  0  0  0  0
    7.7307  -13.8042   18.1052 C   0  0  0  0  0  0  0  0  0  0  0  0
    7.2867  -13.6583   16.6736 C   0  0  0  0  0  0  0  0  0  0  0  0
    8.4772  -13.5814   15.7667 C   0  0  0  0  0  0  0  0  0  0  0  0
    8.0758  -13.2316   14.3425 C   0  0  0  0  0  0  0  0  0  0  0  0
    9.2872  -13.2447   13.5430 N   0  0  0  0  0  0  0  0  0  0  0  0
    8.1850  -15.5939   19.6651 C   0  0  0  0  0  0  0  0  0  0  0  0
    7.1007  -15.3756   20.2493 O   0  0  0  0  0  0  0  0  0  0  0  0
    9.1929  -16.3230   20.3510 N   0  0  0  0  0  0  0  0  0  0  0  0
    8.8829  -16.8799   21.6541 C   0  0  1  0  0  0  0  0  0  0  0  0
    9.2113  -18.3716   21.6853 C   0  0  0  0  0  0  0  0  0  0  0  0
    9.0453  -19.0292   23.3611 S   0  0  0  0  0  0  0  0  0  0  0  0
    9.8331  -16.2436   22.6369 C   0  0  0  0  0  0  0  0  0  0  0  0
   11.0621  -16.5231   22.6405 O   0  0  0  0  0  0  0  0  0  0  0  0
   11.2778  -15.2394   31.0435 O   0  0  0  0  0  0  0  0  0  0  0  0
   10.6854  -15.1226   29.7729 C   0  0  0  0  0  0  0  0  0  0  0  0
   10.6560  -16.2652   29.0118 C   0  0  0  0  0  0  0  0  0  0  0  0
   10.0816  -16.2226   27.7369 C   0  0  0  0  0  0  0  0  0  0  0  0
    9.5652  -15.0436   27.2842 C   0  0  0  0  0  0  0  0  0  0  0  0
    8.9503  -14.9575   25.9483 C   0  0  0  0  0  0  0  0  0  0  0  0
   10.0022  -15.2792   24.9110 C   0  0  2  0  0  0  0  0  0  0  0  0
    9.3882  -15.3069   23.5966 N   0  0  0  0  0  0  0  0  0  0  0  0
   10.6329  -16.6067   25.1165 C   0  0  0  0  0  0  0  0  0  0  0  0
   11.8718  -16.6756   25.3212 O   0  0  0  0  0  0  0  0  0  0  0  0
    9.6084  -13.9116   28.0701 C   0  0  0  0  0  0  0  0  0  0  0  0
   10.1704  -13.9185   29.3384 C   0  0  0  0  0  0  0  0  0  0  0  0
    9.9355  -17.8069   25.0984 O   0  0  0  0  0  0  0  0  0  0  0  0
  2  1  1  6
  3  2  1  0
  4  5  1  0
  4  3  1  0
  5  6  1  0
  7  6  1  0
  8 10  1  0
  8  2  1  0
  9  8  2  0
 11 10  1  0
 11 12  1  6
 13 12  1  0
 14 11  1  0
 15 14  2  0
 16 17  1  0
 17 27  2  0
 17 18  1  0
 18 19  2  0
 19 20  1  0
 20 21  1  0
 22 21  1  1
 22 24  1  0
 22 23  1  0
 23 14  1  0
 24 28  1  0
 25 24  2  0
 26 20  2  0
 27 26  1  0
M  END
$$$$
