KCY.pdb
     RDKit          3D

 28 28  0  0  1  0  0  0  0  0999 V2000
    8.2060  -16.1558   17.8426 N   0  0  0  0  0  0  0  0  0  0  0  0
    8.9523  -14.9368   18.0633 C   0  0  1  0  0  0  0  0  0  0  0  0
    8.3955  -13.8445   17.1992 C   0  0  0  0  0  0  0  0  0  0  0  0
    7.8284  -14.4534   15.9439 C   0  0  0  0  0  0  0  0  0  0  0  0
    8.5461  -13.9228   14.7402 C   0  0  0  0  0  0  0  0  0  0  0  0
    7.8358  -14.3031   13.4507 C   0  0  0  0  0  0  0  0  0  0  0  0
    8.6108  -13.7461   12.3572 N   0  0  0  0  0  0  0  0  0  0  0  0
    8.7738  -14.4972   19.4957 C   0  0  0  0  0  0  0  0  0  0  0  0
    9.3371  -13.4792   19.9552 O   0  0  0  0  0  0  0  0  0  0  0  0
    7.9398  -15.2602   20.3558 N   0  0  0  0  0  0  0  0  0  0  0  0
    7.9137  -14.9330   21.7688 C   0  0  1  0  0  0  0  0  0  0  0  0
    6.6174  -15.4317   22.4051 C   0  0  0  0  0  0  0  0  0  0  0  0
    6.5783  -17.2386   22.4475 S   0  0  0  0  0  0  0  0  0  0  0  0
    9.0108  -15.7351   22.4220 C   0  0  0  0  0  0  0  0  0  0  0  0
    9.2432  -16.9279   22.0877 O   0  0  0  0  0  0  0  0  0  0  0  0
    6.0549  -11.3571   27.5460 O   0  0  0  0  0  0  0  0  0  0  0  0
    6.5614  -12.5234   26.9440 C   0  0  0  0  0  0  0  0  0  0  0  0
    7.8123  -12.4221   26.3868 C   0  0  0  0  0  0  0  0  0  0  0  0
    8.3788  -13.5432   25.7707 C   0  0  0  0  0  0  0  0  0  0  0  0
    7.6705  -14.7089   25.7408 C   0  0  0  0  0  0  0  0  0  0  0  0
    8.2323  -15.9122   25.1032 C   0  0  0  0  0  0  0  0  0  0  0  0
    9.6924  -15.6613   24.8012 C   0  0  2  0  0  0  0  0  0  0  0  0
    9.8260  -15.1856   23.4368 N   0  0  0  0  0  0  0  0  0  0  0  0
   10.5261  -16.8841   24.9112 C   0  0  0  0  0  0  0  0  0  0  0  0
   10.5558  -17.6983   23.9531 O   0  0  0  0  0  0  0  0  0  0  0  0
    6.4161  -14.7819   26.3084 C   0  0  0  0  0  0  0  0  0  0  0  0
    5.8248  -13.6900   26.9270 C   0  0  0  0  0  0  0  0  0  0  0  0
   11.2941  -17.2007   26.0235 O   0  0  0  0  0  0  0  0  0  0  0  0
  2  1  1  1
  3  2  1  0
  4  5  1  0
  4  3  1  0
  5  6  1  0
  7  6  1  0
  8 10  1  0
  8  2  1  0
  9  8  2  0
 11 10  1  0
 11 12  1  1
 13 12  1  0
 14 11  1  0
 15 14  2  0
 16 17  1  0
 17 27  2  0
 17 18  1  0
 18 19  2  0
 19 20  1  0
 20 21  1  0
 22 21  1  6
 22 24  1  0
 22 23  1  0
 23 14  1  0
 24 28  1  0
 25 24  2  0
 26 20  2  0
 27 26  1  0
M  END
$$$$
