KCY.pdb
     RDKit          3D

 28 28  0  0  1  0  0  0  0  0999 V2000
    7.5174  -12.9315   19.2056 N   0  0  0  0  0  0  0  0  0  0  0  0
    7.5162  -14.1067   20.0486 C   0  0  1  0  0  0  0  0  0  0  0  0
    8.2980  -15.2010   19.3846 C   0  0  0  0  0  0  0  0  0  0  0  0
    7.3849  -15.9664   18.4635 C   0  0  0  0  0  0  0  0  0  0  0  0
    8.1428  -17.0587   17.7719 C   0  0  0  0  0  0  0  0  0  0  0  0
    7.2420  -17.8756   16.8593 C   0  0  0  0  0  0  0  0  0  0  0  0
    6.8429  -17.0077   15.7665 N   0  0  0  0  0  0  0  0  0  0  0  0
    8.2201  -13.7892   21.3450 C   0  0  0  0  0  0  0  0  0  0  0  0
    9.3604  -13.2761   21.3756 O   0  0  0  0  0  0  0  0  0  0  0  0
    7.5715  -14.0801   22.5748 N   0  0  0  0  0  0  0  0  0  0  0  0
    8.3430  -14.0101   23.8012 C   0  0  1  0  0  0  0  0  0  0  0  0
    7.4158  -13.8284   25.0017 C   0  0  0  0  0  0  0  0  0  0  0  0
    5.8780  -13.0169   24.5065 S   0  0  0  0  0  0  0  0  0  0  0  0
    8.9801  -15.3632   23.9929 C   0  0  0  0  0  0  0  0  0  0  0  0
    8.8770  -16.2692   23.1228 O   0  0  0  0  0  0  0  0  0  0  0  0
   10.3738  -15.6729   31.2216 O   0  0  0  0  0  0  0  0  0  0  0  0
   10.8070  -15.6953   29.8833 C   0  0  0  0  0  0  0  0  0  0  0  0
   10.5287  -14.5756   29.1388 C   0  0  0  0  0  0  0  0  0  0  0  0
   10.9302  -14.5283   27.7994 C   0  0  0  0  0  0  0  0  0  0  0  0
   11.5890  -15.5990   27.2692 C   0  0  0  0  0  0  0  0  0  0  0  0
   12.0300  -15.5878   25.8637 C   0  0  0  0  0  0  0  0  0  0  0  0
   11.0091  -16.3302   25.0315 C   0  0  2  0  0  0  0  0  0  0  0  0
    9.7202  -15.6751   25.1554 N   0  0  0  0  0  0  0  0  0  0  0  0
   10.8177  -17.7362   25.4663 C   0  0  0  0  0  0  0  0  0  0  0  0
    9.7022  -18.0935   25.9242 O   0  0  0  0  0  0  0  0  0  0  0  0
   11.8551  -16.7105   28.0404 C   0  0  0  0  0  0  0  0  0  0  0  0
   11.4713  -16.7907   29.3710 C   0  0  0  0  0  0  0  0  0  0  0  0
   11.8065  -18.7084   25.4020 O   0  0  0  0  0  0  0  0  0  0  0  0
  2  1  1  6
  3  2  1  0
  4  5  1  0
  4  3  1  0
  5  6  1  0
  7  6  1  0
  8 10  1  0
  8  2  1  0
  9  8  2  0
 11 10  1  0
 11 12  1  1
 13 12  1  0
 14 11  1  0
 15 14  2  0
 16 17  1  0
 17 27  2  0
 17 18  1  0
 18 19  2  0
 19 20  1  0
 20 21  1  0
 22 21  1  1
 22 24  1  0
 22 23  1  0
 23 14  1  0
 24 28  1  0
 25 24  2  0
 26 20  2  0
 27 26  1  0
M  END
$$$$
