KCY.pdb
     RDKit          3D

 28 28  0  0  1  0  0  0  0  0999 V2000
    9.2512  -20.2233   19.0976 N   0  0  0  0  0  0  0  0  0  0  0  0
    9.8326  -18.8991   19.0955 C   0  0  1  0  0  0  0  0  0  0  0  0
    9.7033  -18.2967   17.7280 C   0  0  0  0  0  0  0  0  0  0  0  0
   10.2234  -19.2765   16.7095 C   0  0  0  0  0  0  0  0  0  0  0  0
   11.2855  -18.6357   15.8687 C   0  0  0  0  0  0  0  0  0  0  0  0
   11.7177  -19.5401   14.7254 C   0  0  0  0  0  0  0  0  0  0  0  0
   12.7135  -18.8128   13.9598 N   0  0  0  0  0  0  0  0  0  0  0  0
    9.0569  -18.0141   20.0400 C   0  0  0  0  0  0  0  0  0  0  0  0
    9.2697  -16.7845   20.1269 O   0  0  0  0  0  0  0  0  0  0  0  0
    8.0503  -18.5902   20.8600 N   0  0  0  0  0  0  0  0  0  0  0  0
    7.2785  -17.7208   21.7276 C   0  0  1  0  0  0  0  0  0  0  0  0
    5.9985  -18.4221   22.1789 C   0  0  0  0  0  0  0  0  0  0  0  0
    4.8443  -18.5991   20.7987 S   0  0  0  0  0  0  0  0  0  0  0  0
    8.0895  -17.5279   22.9841 C   0  0  0  0  0  0  0  0  0  0  0  0
    8.6935  -18.4887   23.5324 O   0  0  0  0  0  0  0  0  0  0  0  0
   11.4020  -14.3167   30.3166 O   0  0  0  0  0  0  0  0  0  0  0  0
   10.7439  -14.3835   29.0750 C   0  0  0  0  0  0  0  0  0  0  0  0
   11.3470  -15.1537   28.1114 C   0  0  0  0  0  0  0  0  0  0  0  0
   10.7481  -15.2657   26.8521 C   0  0  0  0  0  0  0  0  0  0  0  0
    9.5781  -14.6046   26.6160 C   0  0  0  0  0  0  0  0  0  0  0  0
    8.9148  -14.6982   25.3040 C   0  0  0  0  0  0  0  0  0  0  0  0
    8.8723  -16.1509   24.8871 C   0  0  2  0  0  0  0  0  0  0  0  0
    8.2082  -16.2627   23.6018 N   0  0  0  0  0  0  0  0  0  0  0  0
    8.1148  -17.0048   25.8356 C   0  0  0  0  0  0  0  0  0  0  0  0
    8.7413  -17.7798   26.6027 O   0  0  0  0  0  0  0  0  0  0  0  0
    8.9947  -13.8380   27.6024 C   0  0  0  0  0  0  0  0  0  0  0  0
    9.5614  -13.7053   28.8616 C   0  0  0  0  0  0  0  0  0  0  0  0
    6.7304  -17.0089   25.9385 O   0  0  0  0  0  0  0  0  0  0  0  0
  2  1  1  6
  3  2  1  0
  4  5  1  0
  4  3  1  0
  5  6  1  0
  7  6  1  0
  8 10  1  0
  8  2  1  0
  9  8  2  0
 11 10  1  0
 11 12  1  1
 13 12  1  0
 14 11  1  0
 15 14  2  0
 16 17  1  0
 17 27  2  0
 17 18  1  0
 18 19  2  0
 19 20  1  0
 20 21  1  0
 22 21  1  1
 22 24  1  0
 22 23  1  0
 23 14  1  0
 24 28  1  0
 25 24  2  0
 26 20  2  0
 27 26  1  0
M  END
$$$$
