KCY.pdb
     RDKit          3D

 28 28  0  0  1  0  0  0  0  0999 V2000
   11.1435  -19.1487   17.2206 N   0  0  0  0  0  0  0  0  0  0  0  0
   10.2842  -18.7292   18.3056 C   0  0  1  0  0  0  0  0  0  0  0  0
    9.2645  -19.7948   18.5785 C   0  0  0  0  0  0  0  0  0  0  0  0
    8.6198  -20.2007   17.2794 C   0  0  0  0  0  0  0  0  0  0  0  0
    7.6456  -21.3158   17.5101 C   0  0  0  0  0  0  0  0  0  0  0  0
    6.8262  -21.6116   16.2640 C   0  0  0  0  0  0  0  0  0  0  0  0
    5.8244  -22.5938   16.6361 N   0  0  0  0  0  0  0  0  0  0  0  0
   11.1072  -18.5777   19.5613 C   0  0  0  0  0  0  0  0  0  0  0  0
   12.0350  -19.3658   19.8488 O   0  0  0  0  0  0  0  0  0  0  0  0
   10.8240  -17.5066   20.4502 N   0  0  0  0  0  0  0  0  0  0  0  0
   11.6091  -17.3843   21.6638 C   0  0  1  0  0  0  0  0  0  0  0  0
   11.9786  -15.9228   21.9118 C   0  0  0  0  0  0  0  0  0  0  0  0
   12.7114  -15.7166   23.5515 S   0  0  0  0  0  0  0  0  0  0  0  0
   10.7041  -17.7647   22.8083 C   0  0  0  0  0  0  0  0  0  0  0  0
    9.5614  -17.2504   22.9436 O   0  0  0  0  0  0  0  0  0  0  0  0
    6.3639  -21.4623   29.1560 O   0  0  0  0  0  0  0  0  0  0  0  0
    7.0429  -21.0565   27.9927 C   0  0  0  0  0  0  0  0  0  0  0  0
    8.1263  -21.8174   27.6282 C   0  0  0  0  0  0  0  0  0  0  0  0
    8.8494  -21.4720   26.4814 C   0  0  0  0  0  0  0  0  0  0  0  0
    8.4565  -20.3858   25.7552 C   0  0  0  0  0  0  0  0  0  0  0  0
    9.1901  -19.9901   24.5405 C   0  0  0  0  0  0  0  0  0  0  0  0
   10.2386  -18.9693   24.9208 C   0  0  2  0  0  0  0  0  0  0  0  0
   11.0966  -18.7135   23.7789 N   0  0  0  0  0  0  0  0  0  0  0  0
   11.1198  -19.4261   26.0241 C   0  0  0  0  0  0  0  0  0  0  0  0
   12.2084  -19.9927   25.7492 O   0  0  0  0  0  0  0  0  0  0  0  0
    7.3644  -19.6397   26.1447 C   0  0  0  0  0  0  0  0  0  0  0  0
    6.6255  -19.9539   27.2758 C   0  0  0  0  0  0  0  0  0  0  0  0
   10.8205  -19.2685   27.3705 O   0  0  0  0  0  0  0  0  0  0  0  0
  2  1  1  6
  3  2  1  0
  4  5  1  0
  4  3  1  0
  5  6  1  0
  7  6  1  0
  8 10  1  0
  8  2  1  0
  9  8  2  0
 11 10  1  0
 11 12  1  1
 13 12  1  0
 14 11  1  0
 15 14  2  0
 16 17  1  0
 17 27  2  0
 17 18  1  0
 18 19  2  0
 19 20  1  0
 20 21  1  0
 22 21  1  6
 22 24  1  0
 22 23  1  0
 23 14  1  0
 24 28  1  0
 25 24  2  0
 26 20  2  0
 27 26  1  0
M  END
$$$$
