KCY.pdb
     RDKit          3D

 28 28  0  0  1  0  0  0  0  0999 V2000
    7.7106  -16.2750   19.4823 N   0  0  0  0  0  0  0  0  0  0  0  0
    8.9982  -15.6192   19.4228 C   0  0  1  0  0  0  0  0  0  0  0  0
    8.9622  -14.5366   18.3853 C   0  0  0  0  0  0  0  0  0  0  0  0
    8.0298  -14.9503   17.2773 C   0  0  0  0  0  0  0  0  0  0  0  0
    8.0788  -13.9536   16.1592 C   0  0  0  0  0  0  0  0  0  0  0  0
    7.0275  -14.2462   15.1004 C   0  0  0  0  0  0  0  0  0  0  0  0
    7.1149  -13.1891   14.1097 N   0  0  0  0  0  0  0  0  0  0  0  0
    9.2766  -14.9496   20.7461 C   0  0  0  0  0  0  0  0  0  0  0  0
   10.3112  -14.2758   20.9471 O   0  0  0  0  0  0  0  0  0  0  0  0
    8.3367  -15.0851   21.8024 N   0  0  0  0  0  0  0  0  0  0  0  0
    8.6644  -14.5263   23.1004 C   0  0  1  0  0  0  0  0  0  0  0  0
    7.3914  -14.2769   23.9074 C   0  0  0  0  0  0  0  0  0  0  0  0
    7.7825  -13.5282   25.5057 S   0  0  0  0  0  0  0  0  0  0  0  0
    9.4120  -15.5942   23.8582 C   0  0  0  0  0  0  0  0  0  0  0  0
    8.8949  -16.7192   24.0939 O   0  0  0  0  0  0  0  0  0  0  0  0
   10.3561  -14.0888   30.7887 O   0  0  0  0  0  0  0  0  0  0  0  0
   10.4095  -14.8597   29.6131 C   0  0  0  0  0  0  0  0  0  0  0  0
    9.4269  -14.6164   28.6853 C   0  0  0  0  0  0  0  0  0  0  0  0
    9.4180  -15.3465   27.4919 C   0  0  0  0  0  0  0  0  0  0  0  0
   10.3886  -16.2822   27.2828 C   0  0  0  0  0  0  0  0  0  0  0  0
   10.4153  -17.0707   26.0387 C   0  0  0  0  0  0  0  0  0  0  0  0
   11.3954  -16.4301   25.0822 C   0  0  2  0  0  0  0  0  0  0  0  0
   10.7240  -15.3812   24.3374 N   0  0  0  0  0  0  0  0  0  0  0  0
   11.9386  -17.3835   24.0830 C   0  0  0  0  0  0  0  0  0  0  0  0
   11.3693  -17.4983   22.9675 O   0  0  0  0  0  0  0  0  0  0  0  0
   11.3632  -16.5056   28.2322 C   0  0  0  0  0  0  0  0  0  0  0  0
   11.4017  -15.8000   29.4259 C   0  0  0  0  0  0  0  0  0  0  0  0
   13.0574  -18.1768   24.2976 O   0  0  0  0  0  0  0  0  0  0  0  0
  2  1  1  1
  3  2  1  0
  4  5  1  0
  4  3  1  0
  5  6  1  0
  7  6  1  0
  8 10  1  0
  8  2  1  0
  9  8  2  0
 11 10  1  0
 11 12  1  1
 13 12  1  0
 14 11  1  0
 15 14  2  0
 16 17  1  0
 17 27  2  0
 17 18  1  0
 18 19  2  0
 19 20  1  0
 20 21  1  0
 22 21  1  1
 22 24  1  0
 22 23  1  0
 23 14  1  0
 24 28  1  0
 25 24  2  0
 26 20  2  0
 27 26  1  0
M  END
$$$$
