KCY.pdb
     RDKit          3D

 28 28  0  0  1  0  0  0  0  0999 V2000
   11.3991  -17.5856   18.3983 N   0  0  0  0  0  0  0  0  0  0  0  0
   10.2619  -17.7875   19.2687 C   0  0  1  0  0  0  0  0  0  0  0  0
   10.3442  -19.1484   19.8940 C   0  0  0  0  0  0  0  0  0  0  0  0
   11.7570  -19.6568   19.7774 C   0  0  0  0  0  0  0  0  0  0  0  0
   11.8419  -21.0697   20.2697 C   0  0  0  0  0  0  0  0  0  0  0  0
   13.2473  -21.6311   20.1239 C   0  0  0  0  0  0  0  0  0  0  0  0
   13.7071  -21.9800   21.4556 N   0  0  0  0  0  0  0  0  0  0  0  0
   10.3131  -16.7837   20.3942 C   0  0  0  0  0  0  0  0  0  0  0  0
   11.3924  -16.4040   20.8996 O   0  0  0  0  0  0  0  0  0  0  0  0
    9.0988  -16.2485   20.9009 N   0  0  0  0  0  0  0  0  0  0  0  0
    9.1635  -15.2598   21.9604 C   0  0  1  0  0  0  0  0  0  0  0  0
    7.8380  -14.5077   22.0659 C   0  0  0  0  0  0  0  0  0  0  0  0
    6.4455  -15.6607   22.0686 S   0  0  0  0  0  0  0  0  0  0  0  0
    9.2937  -16.0186   23.2569 C   0  0  0  0  0  0  0  0  0  0  0  0
    8.8283  -17.1825   23.3887 O   0  0  0  0  0  0  0  0  0  0  0  0
    6.0842  -10.6940   27.1554 O   0  0  0  0  0  0  0  0  0  0  0  0
    6.5937  -11.9563   26.8004 C   0  0  0  0  0  0  0  0  0  0  0  0
    5.6746  -12.8788   26.3646 C   0  0  0  0  0  0  0  0  0  0  0  0
    6.1105  -14.1557   25.9947 C   0  0  0  0  0  0  0  0  0  0  0  0
    7.4403  -14.4493   26.0773 C   0  0  0  0  0  0  0  0  0  0  0  0
    7.9398  -15.7816   25.6956 C   0  0  0  0  0  0  0  0  0  0  0  0
    9.4513  -15.7538   25.7136 C   0  0  2  0  0  0  0  0  0  0  0  0
    9.9425  -15.4590   24.3805 N   0  0  0  0  0  0  0  0  0  0  0  0
   10.0507  -17.0514   26.1129 C   0  0  0  0  0  0  0  0  0  0  0  0
   10.8050  -17.0987   27.1182 O   0  0  0  0  0  0  0  0  0  0  0  0
    8.3411  -13.5033   26.5186 C   0  0  0  0  0  0  0  0  0  0  0  0
    7.9432  -12.2282   26.8932 C   0  0  0  0  0  0  0  0  0  0  0  0
    9.8327  -18.2455   25.4393 O   0  0  0  0  0  0  0  0  0  0  0  0
  2  1  1  6
  3  2  1  0
  4  5  1  0
  4  3  1  0
  5  6  1  0
  7  6  1  0
  8 10  1  0
  8  2  1  0
  9  8  2  0
 11 10  1  0
 11 12  1  1
 13 12  1  0
 14 11  1  0
 15 14  2  0
 16 17  1  0
 17 27  2  0
 17 18  1  0
 18 19  2  0
 19 20  1  0
 20 21  1  0
 22 21  1  6
 22 24  1  0
 22 23  1  0
 23 14  1  0
 24 28  1  0
 25 24  2  0
 26 20  2  0
 27 26  1  0
M  END
$$$$
