KCY.pdb
     RDKit          3D

 28 28  0  0  1  0  0  0  0  0999 V2000
   12.2692  -18.3213   15.6958 N   0  0  0  0  0  0  0  0  0  0  0  0
   11.8823  -17.6398   16.9113 C   0  0  1  0  0  0  0  0  0  0  0  0
   11.1369  -18.5883   17.8026 C   0  0  0  0  0  0  0  0  0  0  0  0
    9.8622  -19.0054   17.1177 C   0  0  0  0  0  0  0  0  0  0  0  0
    9.1003  -19.9653   17.9802 C   0  0  0  0  0  0  0  0  0  0  0  0
    7.8181  -20.4283   17.3070 C   0  0  0  0  0  0  0  0  0  0  0  0
    7.2066  -21.4097   18.1843 N   0  0  0  0  0  0  0  0  0  0  0  0
   13.1221  -17.2166   17.6600 C   0  0  0  0  0  0  0  0  0  0  0  0
   14.2268  -17.7787   17.4911 O   0  0  0  0  0  0  0  0  0  0  0  0
   13.0387  -16.1452   18.5889 N   0  0  0  0  0  0  0  0  0  0  0  0
   14.2222  -15.7903   19.3488 C   0  0  1  0  0  0  0  0  0  0  0  0
   14.7642  -14.4388   18.8864 C   0  0  0  0  0  0  0  0  0  0  0  0
   13.4155  -13.2649   18.6198 S   0  0  0  0  0  0  0  0  0  0  0  0
   13.7766  -15.5730   20.7728 C   0  0  0  0  0  0  0  0  0  0  0  0
   13.2712  -14.4802   21.1456 O   0  0  0  0  0  0  0  0  0  0  0  0
   11.4419  -16.4430   29.0237 O   0  0  0  0  0  0  0  0  0  0  0  0
   11.7746  -16.7006   27.6813 C   0  0  0  0  0  0  0  0  0  0  0  0
   12.9314  -17.4098   27.4702 C   0  0  0  0  0  0  0  0  0  0  0  0
   13.3241  -17.7024   26.1597 C   0  0  0  0  0  0  0  0  0  0  0  0
   12.5445  -17.2738   25.1253 C   0  0  0  0  0  0  0  0  0  0  0  0
   12.9223  -17.5629   23.7310 C   0  0  0  0  0  0  0  0  0  0  0  0
   13.5120  -16.3113   23.1213 C   0  0  2  0  0  0  0  0  0  0  0  0
   13.9059  -16.5838   21.7516 N   0  0  0  0  0  0  0  0  0  0  0  0
   14.7272  -15.8379   23.8296 C   0  0  0  0  0  0  0  0  0  0  0  0
   14.6042  -15.0806   24.8261 O   0  0  0  0  0  0  0  0  0  0  0  0
   11.3878  -16.5633   25.3667 C   0  0  0  0  0  0  0  0  0  0  0  0
   10.9692  -16.2560   26.6530 C   0  0  0  0  0  0  0  0  0  0  0  0
   16.0212  -16.1799   23.4613 O   0  0  0  0  0  0  0  0  0  0  0  0
  2  1  1  6
  3  2  1  0
  4  5  1  0
  4  3  1  0
  5  6  1  0
  7  6  1  0
  8 10  1  0
  8  2  1  0
  9  8  2  0
 11 10  1  0
 11 12  1  6
 13 12  1  0
 14 11  1  0
 15 14  2  0
 16 17  1  0
 17 27  2  0
 17 18  1  0
 18 19  2  0
 19 20  1  0
 20 21  1  0
 22 21  1  1
 22 24  1  0
 22 23  1  0
 23 14  1  0
 24 28  1  0
 25 24  2  0
 26 20  2  0
 27 26  1  0
M  END
$$$$
