KCY.pdb
     RDKit          3D

 28 28  0  0  1  0  0  0  0  0999 V2000
    7.5657  -17.3720   19.1036 N   0  0  0  0  0  0  0  0  0  0  0  0
    6.8999  -16.6970   20.1957 C   0  0  1  0  0  0  0  0  0  0  0  0
    6.0384  -17.6744   20.9388 C   0  0  0  0  0  0  0  0  0  0  0  0
    6.4411  -19.0737   20.5546 C   0  0  0  0  0  0  0  0  0  0  0  0
    5.4688  -20.0659   21.1167 C   0  0  0  0  0  0  0  0  0  0  0  0
    5.8724  -21.4946   20.7886 C   0  0  0  0  0  0  0  0  0  0  0  0
    4.9187  -22.3686   21.4468 N   0  0  0  0  0  0  0  0  0  0  0  0
    7.9336  -16.1923   21.1723 C   0  0  0  0  0  0  0  0  0  0  0  0
    9.0760  -16.6954   21.2523 O   0  0  0  0  0  0  0  0  0  0  0  0
    7.6047  -15.1103   22.0318 N   0  0  0  0  0  0  0  0  0  0  0  0
    8.6252  -14.5983   22.9265 C   0  0  1  0  0  0  0  0  0  0  0  0
    8.1787  -13.2706   23.5363 C   0  0  0  0  0  0  0  0  0  0  0  0
    6.5707  -13.4451   24.3438 S   0  0  0  0  0  0  0  0  0  0  0  0
    8.7101  -15.5589   24.0857 C   0  0  0  0  0  0  0  0  0  0  0  0
    7.8538  -16.4687   24.2514 O   0  0  0  0  0  0  0  0  0  0  0  0
   11.1766  -22.0155   28.8161 O   0  0  0  0  0  0  0  0  0  0  0  0
   10.9071  -20.9785   27.9045 C   0  0  0  0  0  0  0  0  0  0  0  0
   11.9809  -20.2099   27.5280 C   0  0  0  0  0  0  0  0  0  0  0  0
   11.7865  -19.1603   26.6237 C   0  0  0  0  0  0  0  0  0  0  0  0
   10.5318  -18.9291   26.1399 C   0  0  0  0  0  0  0  0  0  0  0  0
   10.2857  -17.8350   25.1848 C   0  0  0  0  0  0  0  0  0  0  0  0
    9.9623  -16.5792   25.9622 C   0  0  2  0  0  0  0  0  0  0  0  0
    9.7524  -15.4817   25.0365 N   0  0  0  0  0  0  0  0  0  0  0  0
   11.0557  -16.1647   26.8761 C   0  0  0  0  0  0  0  0  0  0  0  0
   10.8961  -16.2761   28.1186 O   0  0  0  0  0  0  0  0  0  0  0  0
    9.4718  -19.7170   26.5355 C   0  0  0  0  0  0  0  0  0  0  0  0
    9.6291  -20.7654   27.4301 C   0  0  0  0  0  0  0  0  0  0  0  0
   12.2714  -15.6504   26.4464 O   0  0  0  0  0  0  0  0  0  0  0  0
  2  1  1  6
  3  2  1  0
  4  5  1  0
  4  3  1  0
  5  6  1  0
  7  6  1  0
  8 10  1  0
  8  2  1  0
  9  8  2  0
 11 10  1  0
 11 12  1  1
 13 12  1  0
 14 11  1  0
 15 14  2  0
 16 17  1  0
 17 27  2  0
 17 18  1  0
 18 19  2  0
 19 20  1  0
 20 21  1  0
 22 21  1  6
 22 24  1  0
 22 23  1  0
 23 14  1  0
 24 28  1  0
 25 24  2  0
 26 20  2  0
 27 26  1  0
M  END
$$$$
