KCY.pdb
     RDKit          3D

 28 28  0  0  1  0  0  0  0  0999 V2000
    7.5510  -16.0122   19.1908 N   0  0  0  0  0  0  0  0  0  0  0  0
    8.5569  -14.9821   19.3268 C   0  0  1  0  0  0  0  0  0  0  0  0
    8.1062  -13.7433   18.6114 C   0  0  0  0  0  0  0  0  0  0  0  0
    7.5553  -14.1284   17.2637 C   0  0  0  0  0  0  0  0  0  0  0  0
    8.2355  -13.3451   16.1823 C   0  0  0  0  0  0  0  0  0  0  0  0
    7.7194  -13.7267   14.8039 C   0  0  0  0  0  0  0  0  0  0  0  0
    8.2796  -12.7760   13.8610 N   0  0  0  0  0  0  0  0  0  0  0  0
    8.7024  -14.6187   20.7842 C   0  0  0  0  0  0  0  0  0  0  0  0
    9.4715  -13.7113   21.1709 O   0  0  0  0  0  0  0  0  0  0  0  0
    7.9434  -15.3269   21.7538 N   0  0  0  0  0  0  0  0  0  0  0  0
    8.1360  -15.0080   23.1557 C   0  0  1  0  0  0  0  0  0  0  0  0
    6.8982  -15.3956   23.9629 C   0  0  0  0  0  0  0  0  0  0  0  0
    7.0922  -14.9268   25.6981 S   0  0  0  0  0  0  0  0  0  0  0  0
    9.2363  -15.9073   23.6599 C   0  0  0  0  0  0  0  0  0  0  0  0
    9.4414  -17.0439   23.1553 O   0  0  0  0  0  0  0  0  0  0  0  0
    9.5085  -15.1342   30.9935 O   0  0  0  0  0  0  0  0  0  0  0  0
   10.1733  -15.2976   29.7645 C   0  0  0  0  0  0  0  0  0  0  0  0
   10.1067  -14.2368   28.8952 C   0  0  0  0  0  0  0  0  0  0  0  0
   10.7451  -14.3294   27.6538 C   0  0  0  0  0  0  0  0  0  0  0  0
   11.4181  -15.4743   27.3409 C   0  0  0  0  0  0  0  0  0  0  0  0
   12.1049  -15.6107   26.0449 C   0  0  0  0  0  0  0  0  0  0  0  0
   11.2005  -16.3645   25.0963 C   0  0  2  0  0  0  0  0  0  0  0  0
   10.0855  -15.5160   24.7192 N   0  0  0  0  0  0  0  0  0  0  0  0
   10.6204  -17.5904   25.6988 C   0  0  0  0  0  0  0  0  0  0  0  0
    9.3931  -17.6219   25.9714 O   0  0  0  0  0  0  0  0  0  0  0  0
   11.4685  -16.5240   28.2334 C   0  0  0  0  0  0  0  0  0  0  0  0
   10.8469  -16.4658   29.4722 C   0  0  0  0  0  0  0  0  0  0  0  0
   11.3541  -18.7324   25.9899 O   0  0  0  0  0  0  0  0  0  0  0  0
  2  1  1  1
  3  2  1  0
  4  5  1  0
  4  3  1  0
  5  6  1  0
  7  6  1  0
  8 10  1  0
  8  2  1  0
  9  8  2  0
 11 10  1  0
 11 12  1  1
 13 12  1  0
 14 11  1  0
 15 14  2  0
 16 17  1  0
 17 27  2  0
 17 18  1  0
 18 19  2  0
 19 20  1  0
 20 21  1  0
 22 21  1  1
 22 24  1  0
 22 23  1  0
 23 14  1  0
 24 28  1  0
 25 24  2  0
 26 20  2  0
 27 26  1  0
M  END
$$$$
