KCY.pdb
     RDKit          3D

 28 28  0  0  1  0  0  0  0  0999 V2000
    7.2414  -16.5138   19.1637 N   0  0  0  0  0  0  0  0  0  0  0  0
    8.6863  -16.5679   19.1914 C   0  0  1  0  0  0  0  0  0  0  0  0
    9.2294  -16.1569   17.8550 C   0  0  0  0  0  0  0  0  0  0  0  0
    8.1810  -16.4047   16.8026 C   0  0  0  0  0  0  0  0  0  0  0  0
    8.7293  -16.0978   15.4421 C   0  0  0  0  0  0  0  0  0  0  0  0
    7.6978  -16.3446   14.3527 C   0  0  0  0  0  0  0  0  0  0  0  0
    8.3199  -15.9933   13.0893 N   0  0  0  0  0  0  0  0  0  0  0  0
    9.2017  -15.5707   20.1999 C   0  0  0  0  0  0  0  0  0  0  0  0
   10.1080  -14.7534   19.9254 O   0  0  0  0  0  0  0  0  0  0  0  0
    8.6434  -15.5545   21.5059 N   0  0  0  0  0  0  0  0  0  0  0  0
    9.2865  -14.7494   22.5269 C   0  0  1  0  0  0  0  0  0  0  0  0
    8.2400  -13.9936   23.3439 C   0  0  0  0  0  0  0  0  0  0  0  0
    7.0044  -15.1316   24.0121 S   0  0  0  0  0  0  0  0  0  0  0  0
    9.9303  -15.7082   23.4964 C   0  0  0  0  0  0  0  0  0  0  0  0
    9.4671  -16.8653   23.6844 O   0  0  0  0  0  0  0  0  0  0  0  0
    9.2352  -13.6817   30.1409 O   0  0  0  0  0  0  0  0  0  0  0  0
    9.6469  -14.5266   29.0942 C   0  0  0  0  0  0  0  0  0  0  0  0
    8.6609  -14.9561   28.2403 C   0  0  0  0  0  0  0  0  0  0  0  0
    8.9981  -15.7993   27.1761 C   0  0  0  0  0  0  0  0  0  0  0  0
   10.3008  -16.1721   27.0159 C   0  0  0  0  0  0  0  0  0  0  0  0
   10.6970  -17.0572   25.9070 C   0  0  0  0  0  0  0  0  0  0  0  0
   11.7341  -16.3454   25.0682 C   0  0  2  0  0  0  0  0  0  0  0  0
   11.0802  -15.3525   24.2363 N   0  0  0  0  0  0  0  0  0  0  0  0
   12.4647  -17.2564   24.1524 C   0  0  0  0  0  0  0  0  0  0  0  0
   13.6660  -17.5399   24.3937 O   0  0  0  0  0  0  0  0  0  0  0  0
   11.2702  -15.7256   27.8887 C   0  0  0  0  0  0  0  0  0  0  0  0
   10.9708  -14.8891   28.9541 C   0  0  0  0  0  0  0  0  0  0  0  0
   11.9026  -17.8319   23.0210 O   0  0  0  0  0  0  0  0  0  0  0  0
  2  1  1  6
  3  2  1  0
  4  5  1  0
  4  3  1  0
  5  6  1  0
  7  6  1  0
  8 10  1  0
  8  2  1  0
  9  8  2  0
 11 10  1  0
 11 12  1  1
 13 12  1  0
 14 11  1  0
 15 14  2  0
 16 17  1  0
 17 27  2  0
 17 18  1  0
 18 19  2  0
 19 20  1  0
 20 21  1  0
 22 21  1  6
 22 24  1  0
 22 23  1  0
 23 14  1  0
 24 28  1  0
 25 24  2  0
 26 20  2  0
 27 26  1  0
M  END
$$$$
