KCY.pdb
     RDKit          3D

 28 28  0  0  1  0  0  0  0  0999 V2000
    4.7883  -21.2407   23.7609 N   0  0  0  0  0  0  0  0  0  0  0  0
    5.7463  -20.4749   22.9946 C   0  0  1  0  0  0  0  0  0  0  0  0
    5.3525  -20.4831   21.5474 C   0  0  0  0  0  0  0  0  0  0  0  0
    6.3943  -21.2333   20.7601 C   0  0  0  0  0  0  0  0  0  0  0  0
    5.9773  -21.3474   19.3252 C   0  0  0  0  0  0  0  0  0  0  0  0
    7.0884  -21.9240   18.4622 C   0  0  0  0  0  0  0  0  0  0  0  0
    6.5837  -21.9856   17.1028 N   0  0  0  0  0  0  0  0  0  0  0  0
    5.7118  -19.0368   23.4506 C   0  0  0  0  0  0  0  0  0  0  0  0
    4.7893  -18.2570   23.1258 O   0  0  0  0  0  0  0  0  0  0  0  0
    6.7586  -18.5465   24.2761 N   0  0  0  0  0  0  0  0  0  0  0  0
    6.7353  -17.1514   24.6730 C   0  0  1  0  0  0  0  0  0  0  0  0
    6.6942  -17.0335   26.1956 C   0  0  0  0  0  0  0  0  0  0  0  0
    6.6687  -15.2987   26.7034 S   0  0  0  0  0  0  0  0  0  0  0  0
    8.0610  -16.5602   24.2647 C   0  0  0  0  0  0  0  0  0  0  0  0
    9.0986  -17.2698   24.1732 O   0  0  0  0  0  0  0  0  0  0  0  0
    7.7189  -14.3240   17.6351 O   0  0  0  0  0  0  0  0  0  0  0  0
    8.1667  -14.0897   18.9480 C   0  0  0  0  0  0  0  0  0  0  0  0
    7.2413  -13.5690   19.8187 C   0  0  0  0  0  0  0  0  0  0  0  0
    7.6172  -13.3105   21.1413 C   0  0  0  0  0  0  0  0  0  0  0  0
    8.8962  -13.5838   21.5299 C   0  0  0  0  0  0  0  0  0  0  0  0
    9.3309  -13.3276   22.9139 C   0  0  0  0  0  0  0  0  0  0  0  0
    9.5030  -14.6538   23.6192 C   0  0  2  0  0  0  0  0  0  0  0  0
    8.1986  -15.1858   23.9671 N   0  0  0  0  0  0  0  0  0  0  0  0
   10.2708  -14.5429   24.8843 C   0  0  0  0  0  0  0  0  0  0  0  0
   11.4779  -14.1920   24.8441 O   0  0  0  0  0  0  0  0  0  0  0  0
    9.8046  -14.1065   20.6340 C   0  0  0  0  0  0  0  0  0  0  0  0
    9.4656  -14.3747   19.3159 C   0  0  0  0  0  0  0  0  0  0  0  0
    9.7385  -14.8052   26.1393 O   0  0  0  0  0  0  0  0  0  0  0  0
  2  1  1  1
  3  2  1  0
  4  5  1  0
  4  3  1  0
  5  6  1  0
  7  6  1  0
  8 10  1  0
  8  2  1  0
  9  8  2  0
 11 10  1  0
 11 12  1  1
 13 12  1  0
 14 11  1  0
 15 14  2  0
 16 17  1  0
 17 27  2  0
 17 18  1  0
 18 19  2  0
 19 20  1  0
 20 21  1  0
 22 21  1  1
 22 24  1  0
 22 23  1  0
 23 14  1  0
 24 28  1  0
 25 24  2  0
 26 20  2  0
 27 26  1  0
M  END
$$$$
