KCY.pdb
     RDKit          3D

 28 28  0  0  1  0  0  0  0  0999 V2000
    5.2328  -17.9652   22.9203 N   0  0  0  0  0  0  0  0  0  0  0  0
    5.9406  -17.8520   21.6642 C   0  0  1  0  0  0  0  0  0  0  0  0
    4.9788  -18.0363   20.5281 C   0  0  0  0  0  0  0  0  0  0  0  0
    3.8569  -18.9353   20.9765 C   0  0  0  0  0  0  0  0  0  0  0  0
    2.8822  -19.1456   19.8578 C   0  0  0  0  0  0  0  0  0  0  0  0
    1.7475  -20.0705   20.2688 C   0  0  0  0  0  0  0  0  0  0  0  0
    0.8099  -20.1125   19.1616 N   0  0  0  0  0  0  0  0  0  0  0  0
    6.5081  -16.4596   21.5372 C   0  0  0  0  0  0  0  0  0  0  0  0
    7.0847  -16.0674   20.4987 O   0  0  0  0  0  0  0  0  0  0  0  0
    6.3868  -15.5597   22.6294 N   0  0  0  0  0  0  0  0  0  0  0  0
    7.4833  -14.6514   22.9069 C   0  0  1  0  0  0  0  0  0  0  0  0
    6.9565  -13.3560   23.5220 C   0  0  0  0  0  0  0  0  0  0  0  0
    6.2248  -13.6687   25.1453 S   0  0  0  0  0  0  0  0  0  0  0  0
    8.3177  -15.2929   23.9866 C   0  0  0  0  0  0  0  0  0  0  0  0
    7.8192  -16.1105   24.8062 O   0  0  0  0  0  0  0  0  0  0  0  0
   11.6654  -15.9555   31.4847 O   0  0  0  0  0  0  0  0  0  0  0  0
   11.0579  -15.7121   30.2393 C   0  0  0  0  0  0  0  0  0  0  0  0
   10.7048  -16.8217   29.5115 C   0  0  0  0  0  0  0  0  0  0  0  0
   10.0959  -16.6548   28.2631 C   0  0  0  0  0  0  0  0  0  0  0  0
    9.8692  -15.3907   27.8025 C   0  0  0  0  0  0  0  0  0  0  0  0
    9.2289  -15.1724   26.4939 C   0  0  0  0  0  0  0  0  0  0  0  0
   10.3082  -15.0615   25.4409 C   0  0  2  0  0  0  0  0  0  0  0  0
    9.6941  -15.0062   24.1274 N   0  0  0  0  0  0  0  0  0  0  0  0
   11.2321  -16.2229   25.4324 C   0  0  0  0  0  0  0  0  0  0  0  0
   12.4722  -16.0245   25.4990 O   0  0  0  0  0  0  0  0  0  0  0  0
   10.2342  -14.2945   28.5548 C   0  0  0  0  0  0  0  0  0  0  0  0
   10.8397  -14.4238   29.7962 C   0  0  0  0  0  0  0  0  0  0  0  0
   10.8146  -17.5445   25.3544 O   0  0  0  0  0  0  0  0  0  0  0  0
  2  1  1  1
  3  2  1  0
  4  5  1  0
  4  3  1  0
  5  6  1  0
  7  6  1  0
  8 10  1  0
  8  2  1  0
  9  8  2  0
 11 10  1  0
 11 12  1  1
 13 12  1  0
 14 11  1  0
 15 14  2  0
 16 17  1  0
 17 27  2  0
 17 18  1  0
 18 19  2  0
 19 20  1  0
 20 21  1  0
 22 21  1  1
 22 24  1  0
 22 23  1  0
 23 14  1  0
 24 28  1  0
 25 24  2  0
 26 20  2  0
 27 26  1  0
M  END
$$$$
