FQD.pdb
     RDKit          3D

 29 29  0  0  1  0  0  0  0  0999 V2000
    9.5283  -16.3195   19.2954 N   0  0  0  0  0  0  0  0  0  0  0  0
   10.3753  -15.2084   18.8488 C   0  0  1  0  0  0  0  0  0  0  0  0
   10.3199  -14.1515   19.9271 C   0  0  0  0  0  0  0  0  0  0  0  0
    8.9764  -13.5350   20.0346 C   0  0  0  0  0  0  0  0  0  0  0  0
    8.1558  -13.8624   21.1038 C   0  0  0  0  0  0  0  0  0  0  0  0
    6.9031  -13.2963   21.2172 C   0  0  0  0  0  0  0  0  0  0  0  0
    6.4514  -12.3959   20.2660 C   0  0  0  0  0  0  0  0  0  0  0  0
    7.2671  -12.0691   19.2011 C   0  0  0  0  0  0  0  0  0  0  0  0
    8.5233  -12.6470   19.1021 C   0  0  0  0  0  0  0  0  0  0  0  0
   11.7949  -15.6531   18.7318 C   0  0  0  0  0  0  0  0  0  0  0  0
   12.1156  -16.7335   19.3080 O   0  0  0  0  0  0  0  0  0  0  0  0
   16.5925  -15.1656   14.4571 N   0  0  0  0  0  0  0  0  0  0  0  0
   15.2456  -15.5502   14.2830 C   0  0  0  0  0  0  0  0  0  0  0  0
   14.9058  -16.0454   13.1872 O   0  0  0  0  0  0  0  0  0  0  0  0
   14.2526  -15.3789   15.3599 C   0  0  0  0  0  0  0  0  0  0  0  0
   14.7768  -14.8054   16.6240 C   0  0  0  0  0  0  0  0  0  0  0  0
   14.1319  -15.3199   17.8846 C   0  0  2  0  0  0  0  0  0  0  0  0
   12.7607  -14.9106   18.0086 N   0  0  0  0  0  0  0  0  0  0  0  0
   14.9367  -14.7922   19.0142 C   0  0  0  0  0  0  0  0  0  0  0  0
   14.5941  -13.7245   19.5534 O   0  0  0  0  0  0  0  0  0  0  0  0
   16.0720  -15.4854   19.4722 N   0  0  0  0  0  0  0  0  0  0  0  0
   16.8521  -14.9700   20.5980 C   0  0  1  0  0  0  0  0  0  0  0  0
   16.5626  -15.7570   21.8273 C   0  0  0  0  0  0  0  0  0  0  0  0
   17.3646  -15.3899   22.9868 C   0  0  0  0  0  0  0  0  0  0  0  0
   18.2082  -14.4308   22.8289 O   0  0  0  0  0  0  0  0  0  0  0  0
   18.2713  -14.9691   20.1904 C   0  0  0  0  0  0  0  0  0  0  0  0
   18.6152  -15.7392   19.2329 O   0  0  0  0  0  0  0  0  0  0  0  0
   17.3441  -15.9352   24.2409 O   0  0  0  0  0  0  0  0  0  0  0  0
   19.2763  -14.2140   20.7425 O   0  0  0  0  0  0  0  0  0  0  0  0
  2  1  1  1
  2  3  1  0
  3  4  1  0
  4  9  2  0
  5  6  2  0
  5  4  1  0
  6  7  1  0
  7  8  2  0
  9  8  1  0
 10 11  2  0
 10  2  1  0
 12 13  1  0
 13 14  2  0
 15 13  1  0
 15 16  1  0
 17 16  1  6
 17 18  1  0
 18 10  1  0
 19 17  1  0
 19 21  1  0
 20 19  2  0
 22 21  1  0
 22 26  1  0
 23 24  1  0
 22 23  1  1
 24 25  2  0
 26 29  1  0
 27 26  2  0
 28 24  1  0
M  END
$$$$
