FQD.pdb
     RDKit          3D

 29 29  0  0  1  0  0  0  0  0999 V2000
    6.7237  -16.9658   25.9424 N   0  0  0  0  0  0  0  0  0  0  0  0
    6.8478  -15.8049   25.0544 C   0  0  1  0  0  0  0  0  0  0  0  0
    7.9454  -14.9338   25.6194 C   0  0  0  0  0  0  0  0  0  0  0  0
    7.4124  -13.6965   26.2374 C   0  0  0  0  0  0  0  0  0  0  0  0
    6.3197  -13.0612   25.6664 C   0  0  0  0  0  0  0  0  0  0  0  0
    5.8125  -11.9092   26.2307 C   0  0  0  0  0  0  0  0  0  0  0  0
    6.3881  -11.3749   27.3721 C   0  0  0  0  0  0  0  0  0  0  0  0
    7.4759  -12.0063   27.9416 C   0  0  0  0  0  0  0  0  0  0  0  0
    7.9732  -13.1632   27.3620 C   0  0  0  0  0  0  0  0  0  0  0  0
    7.2774  -16.2374   23.6925 C   0  0  0  0  0  0  0  0  0  0  0  0
    7.2944  -17.4806   23.4550 O   0  0  0  0  0  0  0  0  0  0  0  0
    8.0369  -12.3455   18.5309 N   0  0  0  0  0  0  0  0  0  0  0  0
    8.4125  -13.6348   18.0961 C   0  0  0  0  0  0  0  0  0  0  0  0
    8.7787  -13.7788   16.9101 O   0  0  0  0  0  0  0  0  0  0  0  0
    8.3795  -14.7929   19.0085 C   0  0  0  0  0  0  0  0  0  0  0  0
    7.9952  -14.4893   20.4092 C   0  0  0  0  0  0  0  0  0  0  0  0
    7.8782  -15.6825   21.3215 C   0  0  2  0  0  0  0  0  0  0  0  0
    7.6545  -15.3096   22.6904 N   0  0  0  0  0  0  0  0  0  0  0  0
    9.1480  -16.4391   21.1890 C   0  0  0  0  0  0  0  0  0  0  0  0
    9.4154  -16.9854   20.1036 O   0  0  0  0  0  0  0  0  0  0  0  0
   10.0396  -16.5405   22.2724 N   0  0  0  0  0  0  0  0  0  0  0  0
   11.3008  -17.2689   22.1299 C   0  0  1  0  0  0  0  0  0  0  0  0
   12.1186  -16.6724   21.0391 C   0  0  0  0  0  0  0  0  0  0  0  0
   12.9511  -15.5490   21.4485 C   0  0  0  0  0  0  0  0  0  0  0  0
   13.0924  -15.3622   22.7140 O   0  0  0  0  0  0  0  0  0  0  0  0
   11.9575  -17.2809   23.4523 C   0  0  0  0  0  0  0  0  0  0  0  0
   11.4291  -16.5886   24.3848 O   0  0  0  0  0  0  0  0  0  0  0  0
   13.6129  -14.6500   20.6584 O   0  0  0  0  0  0  0  0  0  0  0  0
   13.0959  -17.9705   23.7896 O   0  0  0  0  0  0  0  0  0  0  0  0
  2  1  1  1
  2  3  1  0
  3  4  1  0
  4  9  2  0
  5  6  2  0
  5  4  1  0
  6  7  1  0
  7  8  2  0
  9  8  1  0
 10 11  2  0
 10  2  1  0
 12 13  1  0
 13 14  2  0
 15 13  1  0
 15 16  1  0
 17 16  1  6
 17 18  1  0
 18 10  1  0
 19 17  1  0
 19 21  1  0
 20 19  2  0
 22 21  1  0
 22 26  1  0
 23 24  1  0
 22 23  1  6
 24 25  2  0
 26 29  1  0
 27 26  2  0
 28 24  1  0
M  END
$$$$
