FQD.pdb
     RDKit          3D

 29 29  0  0  1  0  0  0  0  0999 V2000
    8.6292  -15.4113   25.4498 N   0  0  0  0  0  0  0  0  0  0  0  0
    7.4304  -16.1446   25.0296 C   0  0  1  0  0  0  0  0  0  0  0  0
    6.2381  -15.3598   25.5247 C   0  0  0  0  0  0  0  0  0  0  0  0
    6.6190  -14.0092   26.0019 C   0  0  0  0  0  0  0  0  0  0  0  0
    6.8436  -13.7984   27.3542 C   0  0  0  0  0  0  0  0  0  0  0  0
    7.1991  -12.5469   27.8128 C   0  0  0  0  0  0  0  0  0  0  0  0
    7.3354  -11.4886   26.9291 C   0  0  0  0  0  0  0  0  0  0  0  0
    7.1120  -11.6970   25.5827 C   0  0  0  0  0  0  0  0  0  0  0  0
    6.7555  -12.9608   25.1384 C   0  0  0  0  0  0  0  0  0  0  0  0
    7.3468  -16.1918   23.5405 C   0  0  0  0  0  0  0  0  0  0  0  0
    6.4248  -16.8939   23.0314 O   0  0  0  0  0  0  0  0  0  0  0  0
    8.1477  -11.7393   19.2295 N   0  0  0  0  0  0  0  0  0  0  0  0
    8.1276  -12.9321   18.4751 C   0  0  0  0  0  0  0  0  0  0  0  0
    8.0681  -12.8469   17.2298 O   0  0  0  0  0  0  0  0  0  0  0  0
    8.1764  -14.2541   19.1271 C   0  0  0  0  0  0  0  0  0  0  0  0
    8.2408  -14.2310   20.6093 C   0  0  0  0  0  0  0  0  0  0  0  0
    8.2411  -15.5809   21.2783 C   0  0  2  0  0  0  0  0  0  0  0  0
    8.2530  -15.4856   22.7114 N   0  0  0  0  0  0  0  0  0  0  0  0
    9.4514  -16.2900   20.7938 C   0  0  0  0  0  0  0  0  0  0  0  0
    9.5147  -16.6298   19.5985 O   0  0  0  0  0  0  0  0  0  0  0  0
   10.5143  -16.5765   21.6696 N   0  0  0  0  0  0  0  0  0  0  0  0
   11.8962  -16.5648   21.1882 C   0  0  1  0  0  0  0  0  0  0  0  0
   12.1701  -15.3069   20.4417 C   0  0  0  0  0  0  0  0  0  0  0  0
   13.5419  -15.1653   19.9722 C   0  0  0  0  0  0  0  0  0  0  0  0
   14.1806  -16.2514   19.7097 O   0  0  0  0  0  0  0  0  0  0  0  0
   12.7737  -16.7893   22.3543 C   0  0  0  0  0  0  0  0  0  0  0  0
   12.3929  -16.3295   23.4821 O   0  0  0  0  0  0  0  0  0  0  0  0
   14.2562  -14.0166   19.7703 O   0  0  0  0  0  0  0  0  0  0  0  0
   13.9763  -17.4519   22.3527 O   0  0  0  0  0  0  0  0  0  0  0  0
  2  1  1  6
  2  3  1  0
  3  4  1  0
  4  9  2  0
  5  6  2  0
  5  4  1  0
  6  7  1  0
  7  8  2  0
  9  8  1  0
 10 11  2  0
 10  2  1  0
 12 13  1  0
 13 14  2  0
 15 13  1  0
 15 16  1  0
 17 16  1  6
 17 18  1  0
 18 10  1  0
 19 17  1  0
 19 21  1  0
 20 19  2  0
 22 21  1  0
 22 26  1  0
 23 24  1  0
 22 23  1  1
 24 25  2  0
 26 29  1  0
 27 26  2  0
 28 24  1  0
M  END
$$$$
