FQD.pdb
     RDKit          3D

 29 29  0  0  1  0  0  0  0  0999 V2000
   10.4571  -16.9853   20.4557 N   0  0  0  0  0  0  0  0  0  0  0  0
    9.9033  -16.0098   21.4007 C   0  0  1  0  0  0  0  0  0  0  0  0
    8.4111  -15.9688   21.1675 C   0  0  0  0  0  0  0  0  0  0  0  0
    7.9362  -14.6047   20.8355 C   0  0  0  0  0  0  0  0  0  0  0  0
    8.2109  -13.5545   21.6987 C   0  0  0  0  0  0  0  0  0  0  0  0
    7.7756  -12.2794   21.4027 C   0  0  0  0  0  0  0  0  0  0  0  0
    7.0603  -12.0342   20.2418 C   0  0  0  0  0  0  0  0  0  0  0  0
    6.7860  -13.0788   19.3815 C   0  0  0  0  0  0  0  0  0  0  0  0
    7.2308  -14.3540   19.6939 C   0  0  0  0  0  0  0  0  0  0  0  0
   10.1235  -16.4650   22.8046 C   0  0  0  0  0  0  0  0  0  0  0  0
   10.8499  -17.4871   22.9778 O   0  0  0  0  0  0  0  0  0  0  0  0
    9.6919  -13.6153   29.7345 N   0  0  0  0  0  0  0  0  0  0  0  0
    9.5885  -13.5669   28.3276 C   0  0  0  0  0  0  0  0  0  0  0  0
    9.0251  -12.5806   27.8066 O   0  0  0  0  0  0  0  0  0  0  0  0
   10.1288  -14.6462   27.4802 C   0  0  0  0  0  0  0  0  0  0  0  0
    9.5069  -14.7747   26.1391 C   0  0  0  0  0  0  0  0  0  0  0  0
   10.1660  -15.7624   25.2119 C   0  0  2  0  0  0  0  0  0  0  0  0
    9.5522  -15.7936   23.9137 N   0  0  0  0  0  0  0  0  0  0  0  0
   10.0624  -17.0892   25.8685 C   0  0  0  0  0  0  0  0  0  0  0  0
    8.9555  -17.6555   25.9153 O   0  0  0  0  0  0  0  0  0  0  0  0
   11.1966  -17.7018   26.4319 N   0  0  0  0  0  0  0  0  0  0  0  0
   11.0957  -19.0247   27.0496 C   0  0  1  0  0  0  0  0  0  0  0  0
   12.2977  -19.8384   26.7216 C   0  0  0  0  0  0  0  0  0  0  0  0
   12.5973  -19.9337   25.2990 C   0  0  0  0  0  0  0  0  0  0  0  0
   11.6878  -20.4480   24.5475 O   0  0  0  0  0  0  0  0  0  0  0  0
   10.8673  -18.8229   28.4943 C   0  0  0  0  0  0  0  0  0  0  0  0
   10.9574  -17.6345   28.9502 O   0  0  0  0  0  0  0  0  0  0  0  0
   13.7326  -19.5459   24.6423 O   0  0  0  0  0  0  0  0  0  0  0  0
   10.5629  -19.7959   29.4141 O   0  0  0  0  0  0  0  0  0  0  0  0
  2  1  1  6
  2  3  1  0
  3  4  1  0
  4  9  2  0
  5  6  2  0
  5  4  1  0
  6  7  1  0
  7  8  2  0
  9  8  1  0
 10 11  2  0
 10  2  1  0
 12 13  1  0
 13 14  2  0
 15 13  1  0
 15 16  1  0
 17 16  1  1
 17 18  1  0
 18 10  1  0
 19 17  1  0
 19 21  1  0
 20 19  2  0
 22 21  1  0
 22 26  1  0
 23 24  1  0
 22 23  1  1
 24 25  2  0
 26 29  1  0
 27 26  2  0
 28 24  1  0
M  END
$$$$
