FQD.pdb
     RDKit          3D

 29 29  0  0  1  0  0  0  0  0999 V2000
    6.5547  -17.1248   25.9258 N   0  0  0  0  0  0  0  0  0  0  0  0
    6.8687  -15.9163   25.1561 C   0  0  1  0  0  0  0  0  0  0  0  0
    7.8938  -15.1419   25.9512 C   0  0  0  0  0  0  0  0  0  0  0  0
    7.3784  -13.8237   26.3908 C   0  0  0  0  0  0  0  0  0  0  0  0
    8.1746  -13.0041   27.1769 C   0  0  0  0  0  0  0  0  0  0  0  0
    7.7084  -11.7744   27.5932 C   0  0  0  0  0  0  0  0  0  0  0  0
    6.4417  -11.3452   27.2313 C   0  0  0  0  0  0  0  0  0  0  0  0
    5.6480  -12.1600   26.4488 C   0  0  0  0  0  0  0  0  0  0  0  0
    6.1317  -13.3928   26.0389 C   0  0  0  0  0  0  0  0  0  0  0  0
    7.4967  -16.2804   23.8524 C   0  0  0  0  0  0  0  0  0  0  0  0
    7.7698  -17.5012   23.6588 O   0  0  0  0  0  0  0  0  0  0  0  0
    8.1748  -12.2265   18.7896 N   0  0  0  0  0  0  0  0  0  0  0  0
    8.4710  -13.5163   18.2988 C   0  0  0  0  0  0  0  0  0  0  0  0
    8.8248  -13.6315   17.1059 O   0  0  0  0  0  0  0  0  0  0  0  0
    8.3707  -14.7081   19.1616 C   0  0  0  0  0  0  0  0  0  0  0  0
    8.0765  -14.4368   20.5904 C   0  0  0  0  0  0  0  0  0  0  0  0
    8.0121  -15.6511   21.4799 C   0  0  2  0  0  0  0  0  0  0  0  0
    7.7833  -15.3138   22.8572 N   0  0  0  0  0  0  0  0  0  0  0  0
    9.3093  -16.3550   21.3251 C   0  0  0  0  0  0  0  0  0  0  0  0
    9.5889  -16.8725   20.2287 O   0  0  0  0  0  0  0  0  0  0  0  0
   10.2133  -16.4390   22.3998 N   0  0  0  0  0  0  0  0  0  0  0  0
   11.6522  -16.5395   22.1530 C   0  0  1  0  0  0  0  0  0  0  0  0
   12.1124  -15.3950   21.3207 C   0  0  0  0  0  0  0  0  0  0  0  0
   13.5389  -15.3938   21.0247 C   0  0  0  0  0  0  0  0  0  0  0  0
   13.9676  -16.3109   20.2299 O   0  0  0  0  0  0  0  0  0  0  0  0
   12.3201  -16.6512   23.4652 C   0  0  0  0  0  0  0  0  0  0  0  0
   13.5914  -16.7603   23.4778 O   0  0  0  0  0  0  0  0  0  0  0  0
   14.5011  -14.5376   21.4847 O   0  0  0  0  0  0  0  0  0  0  0  0
   11.7067  -16.6500   24.6935 O   0  0  0  0  0  0  0  0  0  0  0  0
  2  1  1  1
  2  3  1  0
  3  4  1  0
  4  9  2  0
  5  6  2  0
  5  4  1  0
  6  7  1  0
  7  8  2  0
  9  8  1  0
 10 11  2  0
 10  2  1  0
 12 13  1  0
 13 14  2  0
 15 13  1  0
 15 16  1  0
 17 16  1  6
 17 18  1  0
 18 10  1  0
 19 17  1  0
 19 21  1  0
 20 19  2  0
 22 21  1  0
 22 26  1  0
 23 24  1  0
 22 23  1  1
 24 25  2  0
 26 29  1  0
 27 26  2  0
 28 24  1  0
M  END
$$$$
