FQD.pdb
     RDKit          3D

 29 29  0  0  1  0  0  0  0  0999 V2000
    6.6446  -16.2960   26.0139 N   0  0  0  0  0  0  0  0  0  0  0  0
    7.1822  -15.4501   24.9430 C   0  0  1  0  0  0  0  0  0  0  0  0
    8.0826  -14.4291   25.5984 C   0  0  0  0  0  0  0  0  0  0  0  0
    7.3230  -13.2651   26.1131 C   0  0  0  0  0  0  0  0  0  0  0  0
    6.7569  -12.3672   25.2203 C   0  0  0  0  0  0  0  0  0  0  0  0
    6.0469  -11.2795   25.6847 C   0  0  0  0  0  0  0  0  0  0  0  0
    5.8919  -11.0722   27.0458 C   0  0  0  0  0  0  0  0  0  0  0  0
    6.4550  -11.9651   27.9357 C   0  0  0  0  0  0  0  0  0  0  0  0
    7.1652  -13.0531   27.4524 C   0  0  0  0  0  0  0  0  0  0  0  0
    8.0259  -16.2602   24.0164 C   0  0  0  0  0  0  0  0  0  0  0  0
    8.3398  -17.4291   24.3870 O   0  0  0  0  0  0  0  0  0  0  0  0
    7.7444  -17.6813   18.5943 N   0  0  0  0  0  0  0  0  0  0  0  0
    9.1535  -17.6444   18.5188 C   0  0  0  0  0  0  0  0  0  0  0  0
    9.7202  -18.3355   17.6455 O   0  0  0  0  0  0  0  0  0  0  0  0
    9.9505  -16.8141   19.4410 C   0  0  0  0  0  0  0  0  0  0  0  0
    9.1696  -16.0414   20.4384 C   0  0  0  0  0  0  0  0  0  0  0  0
    9.2832  -16.5213   21.8620 C   0  0  2  0  0  0  0  0  0  0  0  0
    8.4679  -15.7599   22.7668 N   0  0  0  0  0  0  0  0  0  0  0  0
   10.7161  -16.4073   22.2311 C   0  0  0  0  0  0  0  0  0  0  0  0
   11.0786  -15.4689   22.9634 O   0  0  0  0  0  0  0  0  0  0  0  0
   11.6550  -17.3439   21.7618 N   0  0  0  0  0  0  0  0  0  0  0  0
   13.0023  -17.3930   22.3309 C   0  0  1  0  0  0  0  0  0  0  0  0
   13.0947  -18.4823   23.3405 C   0  0  0  0  0  0  0  0  0  0  0  0
   13.2722  -18.0257   24.7125 C   0  0  0  0  0  0  0  0  0  0  0  0
   13.0876  -18.8962   25.6424 O   0  0  0  0  0  0  0  0  0  0  0  0
   13.9534  -17.5152   21.2080 C   0  0  0  0  0  0  0  0  0  0  0  0
   13.4973  -17.9068   20.0825 O   0  0  0  0  0  0  0  0  0  0  0  0
   13.6128  -16.7771   25.1548 O   0  0  0  0  0  0  0  0  0  0  0  0
   15.2994  -17.2470   21.2485 O   0  0  0  0  0  0  0  0  0  0  0  0
  2  1  1  1
  2  3  1  0
  3  4  1  0
  4  9  2  0
  5  6  2  0
  5  4  1  0
  6  7  1  0
  7  8  2  0
  9  8  1  0
 10 11  2  0
 10  2  1  0
 12 13  1  0
 13 14  2  0
 15 13  1  0
 15 16  1  0
 17 16  1  6
 17 18  1  0
 18 10  1  0
 19 17  1  0
 19 21  1  0
 20 19  2  0
 22 21  1  0
 22 26  1  0
 23 24  1  0
 22 23  1  1
 24 25  2  0
 26 29  1  0
 27 26  2  0
 28 24  1  0
M  END
$$$$
