FQD.pdb
     RDKit          3D

 29 29  0  0  1  0  0  0  0  0999 V2000
    8.5503  -15.4523   23.8219 N   0  0  0  0  0  0  0  0  0  0  0  0
    7.7653  -15.5969   25.0525 C   0  0  1  0  0  0  0  0  0  0  0  0
    6.4274  -14.9416   24.8008 C   0  0  0  0  0  0  0  0  0  0  0  0
    6.4007  -13.5337   25.2632 C   0  0  0  0  0  0  0  0  0  0  0  0
    7.0581  -12.5584   24.5283 C   0  0  0  0  0  0  0  0  0  0  0  0
    7.0415  -11.2439   24.9462 C   0  0  0  0  0  0  0  0  0  0  0  0
    6.3690  -10.8840   26.1029 C   0  0  0  0  0  0  0  0  0  0  0  0
    5.7141  -11.8539   26.8355 C   0  0  0  0  0  0  0  0  0  0  0  0
    5.7406  -13.1701   26.4016 C   0  0  0  0  0  0  0  0  0  0  0  0
    7.5097  -17.0389   25.3380 C   0  0  0  0  0  0  0  0  0  0  0  0
    6.7062  -17.3127   26.2771 O   0  0  0  0  0  0  0  0  0  0  0  0
    5.0356  -21.3474   23.2543 N   0  0  0  0  0  0  0  0  0  0  0  0
    5.6287  -20.0913   23.0035 C   0  0  0  0  0  0  0  0  0  0  0  0
    4.9104  -19.0709   23.0704 O   0  0  0  0  0  0  0  0  0  0  0  0
    7.0603  -19.9706   22.6706 C   0  0  0  0  0  0  0  0  0  0  0  0
    8.0002  -20.3676   23.7479 C   0  0  0  0  0  0  0  0  0  0  0  0
    8.0224  -19.4637   24.9530 C   0  0  2  0  0  0  0  0  0  0  0  0
    8.1306  -18.0759   24.5989 N   0  0  0  0  0  0  0  0  0  0  0  0
    9.1861  -19.8840   25.7725 C   0  0  0  0  0  0  0  0  0  0  0  0
    9.2346  -21.0519   26.1988 O   0  0  0  0  0  0  0  0  0  0  0  0
   10.2219  -18.9784   26.0660 N   0  0  0  0  0  0  0  0  0  0  0  0
   11.3499  -19.3875   26.9038 C   0  0  1  0  0  0  0  0  0  0  0  0
   12.5930  -18.6968   26.4655 C   0  0  0  0  0  0  0  0  0  0  0  0
   12.9863  -18.9686   25.0893 C   0  0  0  0  0  0  0  0  0  0  0  0
   12.8811  -20.1861   24.6853 O   0  0  0  0  0  0  0  0  0  0  0  0
   10.9720  -19.1371   28.3090 C   0  0  0  0  0  0  0  0  0  0  0  0
    9.8773  -18.5198   28.5293 O   0  0  0  0  0  0  0  0  0  0  0  0
   13.4612  -18.0924   24.1528 O   0  0  0  0  0  0  0  0  0  0  0  0
   11.6868  -19.5050   29.4221 O   0  0  0  0  0  0  0  0  0  0  0  0
  2  1  1  6
  2  3  1  0
  3  4  1  0
  4  9  2  0
  5  6  2  0
  5  4  1  0
  6  7  1  0
  7  8  2  0
  9  8  1  0
 10 11  2  0
 10  2  1  0
 12 13  1  0
 13 14  2  0
 15 13  1  0
 15 16  1  0
 17 16  1  6
 17 18  1  0
 18 10  1  0
 19 17  1  0
 19 21  1  0
 20 19  2  0
 22 21  1  0
 22 26  1  0
 23 24  1  0
 22 23  1  6
 24 25  2  0
 26 29  1  0
 27 26  2  0
 28 24  1  0
M  END
$$$$
