FQD.pdb
     RDKit          3D

 29 29  0  0  1  0  0  0  0  0999 V2000
    5.3209  -16.4984   24.9941 N   0  0  0  0  0  0  0  0  0  0  0  0
    6.4203  -15.6200   24.5806 C   0  0  1  0  0  0  0  0  0  0  0  0
    7.1779  -15.2438   25.8325 C   0  0  0  0  0  0  0  0  0  0  0  0
    7.0415  -13.8035   26.1548 C   0  0  0  0  0  0  0  0  0  0  0  0
    6.1267  -13.4002   27.1161 C   0  0  0  0  0  0  0  0  0  0  0  0
    5.9890  -12.0633   27.4269 C   0  0  0  0  0  0  0  0  0  0  0  0
    6.7617  -11.1103   26.7831 C   0  0  0  0  0  0  0  0  0  0  0  0
    7.6727  -11.5104   25.8260 C   0  0  0  0  0  0  0  0  0  0  0  0
    7.7987  -12.8578   25.5257 C   0  0  0  0  0  0  0  0  0  0  0  0
    7.3655  -16.3559   23.6908 C   0  0  0  0  0  0  0  0  0  0  0  0
    7.4975  -17.5999   23.8839 O   0  0  0  0  0  0  0  0  0  0  0  0
    8.8773  -14.5149   17.8357 N   0  0  0  0  0  0  0  0  0  0  0  0
    7.9382  -14.1255   18.8149 C   0  0  0  0  0  0  0  0  0  0  0  0
    7.1202  -13.2251   18.5290 O   0  0  0  0  0  0  0  0  0  0  0  0
    7.9103  -14.7579   20.1469 C   0  0  0  0  0  0  0  0  0  0  0  0
    8.8959  -15.8474   20.3551 C   0  0  0  0  0  0  0  0  0  0  0  0
    8.9565  -16.4070   21.7527 C   0  0  2  0  0  0  0  0  0  0  0  0
    8.0951  -15.7070   22.6643 N   0  0  0  0  0  0  0  0  0  0  0  0
   10.3714  -16.2998   22.1874 C   0  0  0  0  0  0  0  0  0  0  0  0
   10.8172  -15.1884   22.5254 O   0  0  0  0  0  0  0  0  0  0  0  0
   11.2009  -17.4357   22.2183 N   0  0  0  0  0  0  0  0  0  0  0  0
   12.6285  -17.3042   22.5118 C   0  0  1  0  0  0  0  0  0  0  0  0
   13.1388  -15.9997   22.0095 C   0  0  0  0  0  0  0  0  0  0  0  0
   14.5787  -15.8199   22.1390 C   0  0  0  0  0  0  0  0  0  0  0  0
   15.2479  -16.8141   22.6083 O   0  0  0  0  0  0  0  0  0  0  0  0
   12.8037  -17.5136   23.9629 C   0  0  0  0  0  0  0  0  0  0  0  0
   12.7999  -16.4841   24.7168 O   0  0  0  0  0  0  0  0  0  0  0  0
   15.3289  -14.7200   21.8259 O   0  0  0  0  0  0  0  0  0  0  0  0
   12.9729  -18.7197   24.5967 O   0  0  0  0  0  0  0  0  0  0  0  0
  2  1  1  1
  2  3  1  0
  3  4  1  0
  4  9  2  0
  5  6  2  0
  5  4  1  0
  6  7  1  0
  7  8  2  0
  9  8  1  0
 10 11  2  0
 10  2  1  0
 12 13  1  0
 13 14  2  0
 15 13  1  0
 15 16  1  0
 17 16  1  6
 17 18  1  0
 18 10  1  0
 19 17  1  0
 19 21  1  0
 20 19  2  0
 22 21  1  0
 22 26  1  0
 23 24  1  0
 22 23  1  1
 24 25  2  0
 26 29  1  0
 27 26  2  0
 28 24  1  0
M  END
$$$$
