FQD.pdb
     RDKit          3D

 29 29  0  0  1  0  0  0  0  0999 V2000
    9.8740  -16.0409   18.1774 N   0  0  0  0  0  0  0  0  0  0  0  0
   10.7624  -14.9589   18.6148 C   0  0  1  0  0  0  0  0  0  0  0  0
   10.3096  -14.5490   19.9967 C   0  0  0  0  0  0  0  0  0  0  0  0
    8.9855  -13.8835   19.9748 C   0  0  0  0  0  0  0  0  0  0  0  0
    7.9055  -14.4854   20.6032 C   0  0  0  0  0  0  0  0  0  0  0  0
    6.6673  -13.8776   20.5914 C   0  0  0  0  0  0  0  0  0  0  0  0
    6.4890  -12.6612   19.9526 C   0  0  0  0  0  0  0  0  0  0  0  0
    7.5632  -12.0608   19.3265 C   0  0  0  0  0  0  0  0  0  0  0  0
    8.8008  -12.6849   19.3479 C   0  0  0  0  0  0  0  0  0  0  0  0
   12.1646  -15.4552   18.7332 C   0  0  0  0  0  0  0  0  0  0  0  0
   12.3361  -16.7083   18.7846 O   0  0  0  0  0  0  0  0  0  0  0  0
   17.1979  -15.7722   16.9860 N   0  0  0  0  0  0  0  0  0  0  0  0
   16.5166  -14.7134   16.3480 C   0  0  0  0  0  0  0  0  0  0  0  0
   16.5744  -14.6346   15.1023 O   0  0  0  0  0  0  0  0  0  0  0  0
   15.7502  -13.7176   17.1200 C   0  0  0  0  0  0  0  0  0  0  0  0
   15.6408  -13.9868   18.5751 C   0  0  0  0  0  0  0  0  0  0  0  0
   14.6252  -15.0287   18.9660 C   0  0  2  0  0  0  0  0  0  0  0  0
   13.2740  -14.5757   18.7866 N   0  0  0  0  0  0  0  0  0  0  0  0
   14.8810  -15.3511   20.3918 C   0  0  0  0  0  0  0  0  0  0  0  0
   14.0457  -15.0085   21.2480 O   0  0  0  0  0  0  0  0  0  0  0  0
   16.0499  -16.0337   20.7749 N   0  0  0  0  0  0  0  0  0  0  0  0
   16.2304  -16.4780   22.1575 C   0  0  1  0  0  0  0  0  0  0  0  0
   15.0913  -17.3405   22.5733 C   0  0  0  0  0  0  0  0  0  0  0  0
   15.2368  -17.9463   23.8902 C   0  0  0  0  0  0  0  0  0  0  0  0
   14.8094  -17.2632   24.8938 O   0  0  0  0  0  0  0  0  0  0  0  0
   17.5543  -17.1260   22.2455 C   0  0  0  0  0  0  0  0  0  0  0  0
   17.9571  -17.5014   23.3965 O   0  0  0  0  0  0  0  0  0  0  0  0
   15.7758  -19.1616   24.2112 O   0  0  0  0  0  0  0  0  0  0  0  0
   18.4116  -17.3712   21.2014 O   0  0  0  0  0  0  0  0  0  0  0  0
  2  1  1  1
  2  3  1  0
  3  4  1  0
  4  9  2  0
  5  6  2  0
  5  4  1  0
  6  7  1  0
  7  8  2  0
  9  8  1  0
 10 11  2  0
 10  2  1  0
 12 13  1  0
 13 14  2  0
 15 13  1  0
 15 16  1  0
 17 16  1  1
 17 18  1  0
 18 10  1  0
 19 17  1  0
 19 21  1  0
 20 19  2  0
 22 21  1  0
 22 26  1  0
 23 24  1  0
 22 23  1  6
 24 25  2  0
 26 29  1  0
 27 26  2  0
 28 24  1  0
M  END
$$$$
