FQD.pdb
     RDKit          3D

 29 29  0  0  1  0  0  0  0  0999 V2000
    6.2992  -16.4168   25.5994 N   0  0  0  0  0  0  0  0  0  0  0  0
    7.3457  -15.9734   24.6722 C   0  0  1  0  0  0  0  0  0  0  0  0
    8.2446  -15.0327   25.4402 C   0  0  0  0  0  0  0  0  0  0  0  0
    7.5475  -13.7809   25.8191 C   0  0  0  0  0  0  0  0  0  0  0  0
    7.5688  -13.3575   27.1397 C   0  0  0  0  0  0  0  0  0  0  0  0
    6.9249  -12.1942   27.5071 C   0  0  0  0  0  0  0  0  0  0  0  0
    6.2507  -11.4373   26.5626 C   0  0  0  0  0  0  0  0  0  0  0  0
    6.2285  -11.8576   25.2476 C   0  0  0  0  0  0  0  0  0  0  0  0
    6.8808  -13.0288   24.8952 C   0  0  0  0  0  0  0  0  0  0  0  0
    8.1789  -17.1325   24.2380 C   0  0  0  0  0  0  0  0  0  0  0  0
    8.1877  -18.1549   24.9843 O   0  0  0  0  0  0  0  0  0  0  0  0
    8.1741  -17.4973   18.7726 N   0  0  0  0  0  0  0  0  0  0  0  0
    9.2530  -16.6901   19.1930 C   0  0  0  0  0  0  0  0  0  0  0  0
    9.5012  -15.6478   18.5500 O   0  0  0  0  0  0  0  0  0  0  0  0
   10.0753  -17.0548   20.3617 C   0  0  0  0  0  0  0  0  0  0  0  0
    9.6873  -18.3132   21.0455 C   0  0  0  0  0  0  0  0  0  0  0  0
    9.6600  -18.2502   22.5505 C   0  0  2  0  0  0  0  0  0  0  0  0
    8.9369  -17.1104   23.0413 N   0  0  0  0  0  0  0  0  0  0  0  0
   11.0750  -18.1996   22.9949 C   0  0  0  0  0  0  0  0  0  0  0  0
   11.8455  -19.1189   22.6641 O   0  0  0  0  0  0  0  0  0  0  0  0
   11.5433  -17.1299   23.7795 N   0  0  0  0  0  0  0  0  0  0  0  0
   12.9253  -17.1117   24.2605 C   0  0  1  0  0  0  0  0  0  0  0  0
   13.6135  -15.8749   23.8011 C   0  0  0  0  0  0  0  0  0  0  0  0
   14.0390  -15.8980   22.4080 C   0  0  0  0  0  0  0  0  0  0  0  0
   14.4322  -17.0306   21.9399 O   0  0  0  0  0  0  0  0  0  0  0  0
   12.8865  -17.2835   25.7265 C   0  0  0  0  0  0  0  0  0  0  0  0
   13.9973  -17.2859   26.3544 O   0  0  0  0  0  0  0  0  0  0  0  0
   14.0796  -14.8629   21.5150 O   0  0  0  0  0  0  0  0  0  0  0  0
   11.7620  -17.4434   26.4979 O   0  0  0  0  0  0  0  0  0  0  0  0
  2  1  1  1
  2  3  1  0
  3  4  1  0
  4  9  2  0
  5  6  2  0
  5  4  1  0
  6  7  1  0
  7  8  2  0
  9  8  1  0
 10 11  2  0
 10  2  1  0
 12 13  1  0
 13 14  2  0
 15 13  1  0
 15 16  1  0
 17 16  1  6
 17 18  1  0
 18 10  1  0
 19 17  1  0
 19 21  1  0
 20 19  2  0
 22 21  1  0
 22 26  1  0
 23 24  1  0
 22 23  1  1
 24 25  2  0
 26 29  1  0
 27 26  2  0
 28 24  1  0
M  END
$$$$
