FQD.pdb
     RDKit          3D

 29 29  0  0  1  0  0  0  0  0999 V2000
    5.6669  -17.5354   25.0425 N   0  0  0  0  0  0  0  0  0  0  0  0
    6.5319  -16.3618   24.8822 C   0  0  1  0  0  0  0  0  0  0  0  0
    6.9880  -15.9588   26.2650 C   0  0  0  0  0  0  0  0  0  0  0  0
    7.1094  -14.4883   26.4053 C   0  0  0  0  0  0  0  0  0  0  0  0
    5.9718  -13.6976   26.3410 C   0  0  0  0  0  0  0  0  0  0  0  0
    6.0694  -12.3277   26.4704 C   0  0  0  0  0  0  0  0  0  0  0  0
    7.3028  -11.7276   26.6655 C   0  0  0  0  0  0  0  0  0  0  0  0
    8.4362  -12.5135   26.7297 C   0  0  0  0  0  0  0  0  0  0  0  0
    8.3206  -13.8886   26.5979 C   0  0  0  0  0  0  0  0  0  0  0  0
    7.7493  -16.7183   24.0966 C   0  0  0  0  0  0  0  0  0  0  0  0
    8.2511  -17.8644   24.2889 O   0  0  0  0  0  0  0  0  0  0  0  0
    8.5756  -13.9242   18.2687 N   0  0  0  0  0  0  0  0  0  0  0  0
    7.8327  -13.6760   19.4429 C   0  0  0  0  0  0  0  0  0  0  0  0
    7.1921  -12.6063   19.5260 O   0  0  0  0  0  0  0  0  0  0  0  0
    7.8030  -14.6470   20.5525 C   0  0  0  0  0  0  0  0  0  0  0  0
    9.1160  -15.2298   20.9240 C   0  0  0  0  0  0  0  0  0  0  0  0
    9.0788  -16.2639   22.0189 C   0  0  2  0  0  0  0  0  0  0  0  0
    8.3356  -15.8245   23.1668 N   0  0  0  0  0  0  0  0  0  0  0  0
   10.4901  -16.5382   22.3865 C   0  0  0  0  0  0  0  0  0  0  0  0
   11.2254  -17.1201   21.5686 O   0  0  0  0  0  0  0  0  0  0  0  0
   10.9941  -16.1481   23.6406 N   0  0  0  0  0  0  0  0  0  0  0  0
   12.2186  -16.7512   24.1685 C   0  0  1  0  0  0  0  0  0  0  0  0
   13.3642  -15.8156   24.0058 C   0  0  0  0  0  0  0  0  0  0  0  0
   13.9023  -15.7432   22.6539 C   0  0  0  0  0  0  0  0  0  0  0  0
   13.9975  -16.8517   22.0069 O   0  0  0  0  0  0  0  0  0  0  0  0
   11.9487  -17.1536   25.5634 C   0  0  0  0  0  0  0  0  0  0  0  0
   12.8849  -17.7357   26.2059 O   0  0  0  0  0  0  0  0  0  0  0  0
   14.3283  -14.6397   21.9673 O   0  0  0  0  0  0  0  0  0  0  0  0
   10.7767  -16.9639   26.2531 O   0  0  0  0  0  0  0  0  0  0  0  0
  2  1  1  1
  2  3  1  0
  3  4  1  0
  4  9  2  0
  5  6  2  0
  5  4  1  0
  6  7  1  0
  7  8  2  0
  9  8  1  0
 10 11  2  0
 10  2  1  0
 12 13  1  0
 13 14  2  0
 15 13  1  0
 15 16  1  0
 17 16  1  6
 17 18  1  0
 18 10  1  0
 19 17  1  0
 19 21  1  0
 20 19  2  0
 22 21  1  0
 22 26  1  0
 23 24  1  0
 22 23  1  1
 24 25  2  0
 26 29  1  0
 27 26  2  0
 28 24  1  0
M  END
$$$$
