FQD.pdb
     RDKit          3D

 29 29  0  0  1  0  0  0  0  0999 V2000
    5.6192  -17.1762   24.9307 N   0  0  0  0  0  0  0  0  0  0  0  0
    6.4269  -15.9765   24.6865 C   0  0  1  0  0  0  0  0  0  0  0  0
    7.0390  -15.5809   26.0100 C   0  0  0  0  0  0  0  0  0  0  0  0
    6.8918  -14.1313   26.2810 C   0  0  0  0  0  0  0  0  0  0  0  0
    6.3000  -13.7118   27.4632 C   0  0  0  0  0  0  0  0  0  0  0  0
    6.1566  -12.3659   27.7292 C   0  0  0  0  0  0  0  0  0  0  0  0
    6.6013  -11.4198   26.8199 C   0  0  0  0  0  0  0  0  0  0  0  0
    7.1906  -11.8359   25.6427 C   0  0  0  0  0  0  0  0  0  0  0  0
    7.3272  -13.1922   25.3909 C   0  0  0  0  0  0  0  0  0  0  0  0
    7.5473  -16.2871   23.7513 C   0  0  0  0  0  0  0  0  0  0  0  0
    8.1204  -17.4082   23.8818 O   0  0  0  0  0  0  0  0  0  0  0  0
    8.0313  -12.4124   18.2976 N   0  0  0  0  0  0  0  0  0  0  0  0
    7.9612  -13.7468   18.7526 C   0  0  0  0  0  0  0  0  0  0  0  0
    7.9402  -14.6637   17.9039 O   0  0  0  0  0  0  0  0  0  0  0  0
    7.9145  -14.0661   20.1916 C   0  0  0  0  0  0  0  0  0  0  0  0
    9.1741  -14.5991   20.7668 C   0  0  0  0  0  0  0  0  0  0  0  0
    9.0061  -15.6789   21.8039 C   0  0  2  0  0  0  0  0  0  0  0  0
    7.9680  -15.3777   22.7497 N   0  0  0  0  0  0  0  0  0  0  0  0
   10.3148  -15.8088   22.4914 C   0  0  0  0  0  0  0  0  0  0  0  0
   10.6373  -14.9601   23.3422 O   0  0  0  0  0  0  0  0  0  0  0  0
   11.1822  -16.8743   22.1887 N   0  0  0  0  0  0  0  0  0  0  0  0
   12.5534  -16.8830   22.6996 C   0  0  1  0  0  0  0  0  0  0  0  0
   13.2766  -15.6616   22.2527 C   0  0  0  0  0  0  0  0  0  0  0  0
   14.1969  -15.8722   21.1432 C   0  0  0  0  0  0  0  0  0  0  0  0
   14.4717  -17.0926   20.8406 O   0  0  0  0  0  0  0  0  0  0  0  0
   12.4793  -17.0502   24.1649 C   0  0  0  0  0  0  0  0  0  0  0  0
   11.4266  -16.6396   24.7575 O   0  0  0  0  0  0  0  0  0  0  0  0
   14.8203  -14.9344   20.3671 O   0  0  0  0  0  0  0  0  0  0  0  0
   13.4401  -17.6105   24.9699 O   0  0  0  0  0  0  0  0  0  0  0  0
  2  1  1  1
  2  3  1  0
  3  4  1  0
  4  9  2  0
  5  6  2  0
  5  4  1  0
  6  7  1  0
  7  8  2  0
  9  8  1  0
 10 11  2  0
 10  2  1  0
 12 13  1  0
 13 14  2  0
 15 13  1  0
 15 16  1  0
 17 16  1  6
 17 18  1  0
 18 10  1  0
 19 17  1  0
 19 21  1  0
 20 19  2  0
 22 21  1  0
 22 26  1  0
 23 24  1  0
 22 23  1  1
 24 25  2  0
 26 29  1  0
 27 26  2  0
 28 24  1  0
M  END
$$$$
