VMY.pdb
     RDKit          3D

 28 28  0  0  1  0  0  0  0  0999 V2000
    7.4135  -15.1000   18.2661 C   0  0  0  0  0  0  0  0  0  0  0  0
    8.4184  -16.2016   18.3048 C   0  0  2  0  0  0  0  0  0  0  0  0
    7.9971  -17.2849   17.3185 C   0  0  0  0  0  0  0  0  0  0  0  0
    8.5693  -16.8604   19.6485 C   0  0  2  0  0  0  0  0  0  0  0  0
    7.3740  -17.6155   19.9797 N   0  0  0  0  0  0  0  0  0  0  0  0
    8.8839  -15.9343   20.7373 C   0  0  0  0  0  0  0  0  0  0  0  0
    9.9739  -15.3073   20.7534 O   0  0  0  0  0  0  0  0  0  0  0  0
    6.4439  -11.4354   26.7489 C   0  0  0  0  0  0  0  0  0  0  0  0
    5.9887  -12.5708   25.4370 S   0  0  0  0  0  0  0  0  0  0  0  0
    7.4378  -13.2989   24.6662 C   0  0  0  0  0  0  0  0  0  0  0  0
    7.1272  -14.2099   23.5411 C   0  0  0  0  0  0  0  0  0  0  0  0
    8.3440  -14.8546   22.9460 C   0  0  2  0  0  0  0  0  0  0  0  0
    7.9934  -15.6823   21.8361 N   0  0  0  0  0  0  0  0  0  0  0  0
    9.0915  -15.5751   24.0024 C   0  0  0  0  0  0  0  0  0  0  0  0
    8.6748  -16.6383   24.5241 O   0  0  0  0  0  0  0  0  0  0  0  0
   11.7231  -17.2357   31.8215 O   0  0  0  0  0  0  0  0  0  0  0  0
   11.2987  -16.7192   30.6006 C   0  0  0  0  0  0  0  0  0  0  0  0
   11.2771  -15.3659   30.3528 C   0  0  0  0  0  0  0  0  0  0  0  0
   10.8500  -14.8869   29.1295 C   0  0  0  0  0  0  0  0  0  0  0  0
   10.4287  -15.7203   28.1061 C   0  0  0  0  0  0  0  0  0  0  0  0
    9.9772  -15.1711   26.8140 C   0  0  0  0  0  0  0  0  0  0  0  0
   10.9567  -15.4227   25.7058 C   0  0  2  0  0  0  0  0  0  0  0  0
   10.3198  -15.0475   24.4407 N   0  0  0  0  0  0  0  0  0  0  0  0
   11.4754  -16.7960   25.6421 C   0  0  0  0  0  0  0  0  0  0  0  0
   10.7250  -17.7072   25.2162 O   0  0  0  0  0  0  0  0  0  0  0  0
   10.4536  -17.0834   28.3642 C   0  0  0  0  0  0  0  0  0  0  0  0
   10.8797  -17.5627   29.5846 C   0  0  0  0  0  0  0  0  0  0  0  0
   12.7577  -17.1328   26.0306 O   0  0  0  0  0  0  0  0  0  0  0  0
  2  1  1  1
  2  3  1  0
  4  2  1  0
  4  5  1  1
  6  4  1  0
  6  7  2  0
  9  8  1  0
 10 11  1  0
 10  9  1  0
 12 11  1  1
 13 12  1  0
 13  6  1  0
 14 15  2  0
 14 12  1  0
 16 17  1  0
 17 18  2  0
 18 19  1  0
 20 21  1  0
 20 19  2  0
 22 21  1  1
 22 23  1  0
 22 24  1  0
 23 14  1  0
 24 25  2  0
 24 28  1  0
 26 20  1  0
 27 26  2  0
 27 17  1  0
M  END
$$$$
