VMY.pdb
     RDKit          3D

 28 28  0  0  1  0  0  0  0  0999 V2000
    7.4613  -13.4870   18.1341 C   0  0  0  0  0  0  0  0  0  0  0  0
    7.2281  -13.6597   19.5972 C   0  0  2  0  0  0  0  0  0  0  0  0
    8.2101  -12.7763   20.3582 C   0  0  0  0  0  0  0  0  0  0  0  0
    7.4181  -15.0656   20.0968 C   0  0  2  0  0  0  0  0  0  0  0  0
    6.5887  -15.9881   19.3419 N   0  0  0  0  0  0  0  0  0  0  0  0
    7.1620  -15.2320   21.5282 C   0  0  0  0  0  0  0  0  0  0  0  0
    6.1536  -14.7075   22.0662 O   0  0  0  0  0  0  0  0  0  0  0  0
    6.6963  -20.2603   24.9929 C   0  0  0  0  0  0  0  0  0  0  0  0
    6.7711  -19.0764   26.3384 S   0  0  0  0  0  0  0  0  0  0  0  0
    7.2587  -17.4496   25.7553 C   0  0  0  0  0  0  0  0  0  0  0  0
    7.3778  -17.3490   24.2828 C   0  0  0  0  0  0  0  0  0  0  0  0
    7.8649  -16.0088   23.8169 C   0  0  2  0  0  0  0  0  0  0  0  0
    8.0216  -15.9865   22.3974 N   0  0  0  0  0  0  0  0  0  0  0  0
    9.1004  -15.6469   24.5494 C   0  0  0  0  0  0  0  0  0  0  0  0
    9.1144  -15.4121   25.7826 O   0  0  0  0  0  0  0  0  0  0  0  0
   10.0074  -14.9489   30.6514 O   0  0  0  0  0  0  0  0  0  0  0  0
   10.4259  -15.3417   29.3833 C   0  0  0  0  0  0  0  0  0  0  0  0
   10.6961  -14.4266   28.3919 C   0  0  0  0  0  0  0  0  0  0  0  0
   11.1098  -14.8509   27.1440 C   0  0  0  0  0  0  0  0  0  0  0  0
   11.2727  -16.1893   26.8256 C   0  0  0  0  0  0  0  0  0  0  0  0
   11.7140  -16.6037   25.4808 C   0  0  0  0  0  0  0  0  0  0  0  0
   11.6252  -15.4930   24.4761 C   0  0  2  0  0  0  0  0  0  0  0  0
   10.3094  -15.5624   23.8351 N   0  0  0  0  0  0  0  0  0  0  0  0
   12.6963  -15.4853   23.4702 C   0  0  0  0  0  0  0  0  0  0  0  0
   12.4926  -16.0435   22.3649 O   0  0  0  0  0  0  0  0  0  0  0  0
   10.9983  -17.1054   27.8309 C   0  0  0  0  0  0  0  0  0  0  0  0
   10.5854  -16.6833   29.0767 C   0  0  0  0  0  0  0  0  0  0  0  0
   13.9235  -14.8885   23.6853 O   0  0  0  0  0  0  0  0  0  0  0  0
  2  1  1  6
  2  3  1  0
  4  2  1  0
  4  5  1  6
  6  4  1  0
  6  7  2  0
  9  8  1  0
 10 11  1  0
 10  9  1  0
 12 11  1  1
 13 12  1  0
 13  6  1  0
 14 15  2  0
 14 12  1  0
 16 17  1  0
 17 18  2  0
 18 19  1  0
 20 21  1  0
 20 19  2  0
 22 21  1  1
 22 23  1  0
 22 24  1  0
 23 14  1  0
 24 25  2  0
 24 28  1  0
 26 20  1  0
 27 26  2  0
 27 17  1  0
M  END
$$$$
