VMY.pdb
     RDKit          3D

 28 28  0  0  1  0  0  0  0  0999 V2000
    8.9833  -18.0748   19.8419 C   0  0  0  0  0  0  0  0  0  0  0  0
    7.6866  -17.3411   19.7693 C   0  0  2  0  0  0  0  0  0  0  0  0
    6.9250  -17.8117   18.5355 C   0  0  0  0  0  0  0  0  0  0  0  0
    7.8212  -15.8468   19.6634 C   0  0  2  0  0  0  0  0  0  0  0  0
    8.5771  -15.4890   18.4762 N   0  0  0  0  0  0  0  0  0  0  0  0
    8.4227  -15.2151   20.8387 C   0  0  0  0  0  0  0  0  0  0  0  0
    9.5526  -14.6677   20.7670 O   0  0  0  0  0  0  0  0  0  0  0  0
    7.0900  -11.7947   27.8370 C   0  0  0  0  0  0  0  0  0  0  0  0
    6.4249  -12.7725   26.4881 S   0  0  0  0  0  0  0  0  0  0  0  0
    7.7203  -13.3150   25.3693 C   0  0  0  0  0  0  0  0  0  0  0  0
    7.2219  -14.0403   24.1785 C   0  0  0  0  0  0  0  0  0  0  0  0
    8.3129  -14.4527   23.2350 C   0  0  2  0  0  0  0  0  0  0  0  0
    7.7821  -15.1763   22.1239 N   0  0  0  0  0  0  0  0  0  0  0  0
    9.3558  -15.1984   23.9768 C   0  0  0  0  0  0  0  0  0  0  0  0
    9.9357  -14.7308   24.9874 O   0  0  0  0  0  0  0  0  0  0  0  0
   13.4468  -14.9131   18.6935 O   0  0  0  0  0  0  0  0  0  0  0  0
   13.1055  -15.2788   19.9924 C   0  0  0  0  0  0  0  0  0  0  0  0
   12.6729  -16.5484   20.2995 C   0  0  0  0  0  0  0  0  0  0  0  0
   12.3423  -16.8780   21.5996 C   0  0  0  0  0  0  0  0  0  0  0  0
   12.4247  -15.9719   22.6444 C   0  0  0  0  0  0  0  0  0  0  0  0
   12.0606  -16.3606   24.0197 C   0  0  0  0  0  0  0  0  0  0  0  0
   10.8467  -17.2410   24.0688 C   0  0  2  0  0  0  0  0  0  0  0  0
    9.7128  -16.4843   23.5317 N   0  0  0  0  0  0  0  0  0  0  0  0
   10.5312  -17.7813   25.3983 C   0  0  0  0  0  0  0  0  0  0  0  0
    9.3839  -17.5940   25.8710 O   0  0  0  0  0  0  0  0  0  0  0  0
   12.8619  -14.6941   22.3263 C   0  0  0  0  0  0  0  0  0  0  0  0
   13.1922  -14.3640   21.0292 C   0  0  0  0  0  0  0  0  0  0  0  0
   11.4432  -18.4903   26.1561 O   0  0  0  0  0  0  0  0  0  0  0  0
  2  1  1  6
  2  3  1  0
  4  2  1  0
  4  5  1  6
  6  4  1  0
  6  7  2  0
  9  8  1  0
 10 11  1  0
 10  9  1  0
 12 11  1  1
 13 12  1  0
 13  6  1  0
 14 15  2  0
 14 12  1  0
 16 17  1  0
 17 18  2  0
 18 19  1  0
 20 21  1  0
 20 19  2  0
 22 21  1  1
 22 23  1  0
 22 24  1  0
 23 14  1  0
 24 25  2  0
 24 28  1  0
 26 20  1  0
 27 26  2  0
 27 17  1  0
M  END
$$$$
