VMY.pdb
     RDKit          3D

 28 28  0  0  1  0  0  0  0  0999 V2000
    6.2814  -15.9057   19.5298 C   0  0  0  0  0  0  0  0  0  0  0  0
    7.6973  -16.2771   19.2430 C   0  0  2  0  0  0  0  0  0  0  0  0
    7.7095  -17.5272   18.3706 C   0  0  0  0  0  0  0  0  0  0  0  0
    8.5213  -16.5811   20.4640 C   0  0  2  0  0  0  0  0  0  0  0  0
    7.9932  -17.7441   21.1551 N   0  0  0  0  0  0  0  0  0  0  0  0
    8.6382  -15.4629   21.4010 C   0  0  0  0  0  0  0  0  0  0  0  0
    9.2832  -14.4289   21.0909 O   0  0  0  0  0  0  0  0  0  0  0  0
    6.2754  -11.3123   27.5553 C   0  0  0  0  0  0  0  0  0  0  0  0
    6.4014  -12.9608   26.8594 S   0  0  0  0  0  0  0  0  0  0  0  0
    6.8577  -12.9078   25.1235 C   0  0  0  0  0  0  0  0  0  0  0  0
    6.9696  -14.2414   24.4899 C   0  0  0  0  0  0  0  0  0  0  0  0
    8.1930  -14.3916   23.6348 C   0  0  2  0  0  0  0  0  0  0  0  0
    8.0400  -15.4667   22.7072 N   0  0  0  0  0  0  0  0  0  0  0  0
    9.3891  -14.5268   24.4980 C   0  0  0  0  0  0  0  0  0  0  0  0
    9.5787  -13.8116   25.5122 O   0  0  0  0  0  0  0  0  0  0  0  0
   11.8437  -15.8970   31.5303 O   0  0  0  0  0  0  0  0  0  0  0  0
   11.4267  -16.1050   30.2187 C   0  0  0  0  0  0  0  0  0  0  0  0
   11.1151  -15.0587   29.3811 C   0  0  0  0  0  0  0  0  0  0  0  0
   10.7043  -15.3007   28.0846 C   0  0  0  0  0  0  0  0  0  0  0  0
   10.5848  -16.5793   27.5647 C   0  0  0  0  0  0  0  0  0  0  0  0
   10.1406  -16.7978   26.1755 C   0  0  0  0  0  0  0  0  0  0  0  0
   11.1106  -16.2565   25.1671 C   0  0  2  0  0  0  0  0  0  0  0  0
   10.3538  -15.4964   24.1690 N   0  0  0  0  0  0  0  0  0  0  0  0
   11.9566  -17.2693   24.5209 C   0  0  0  0  0  0  0  0  0  0  0  0
   11.5379  -17.8339   23.4813 O   0  0  0  0  0  0  0  0  0  0  0  0
   10.9009  -17.6286   28.4157 C   0  0  0  0  0  0  0  0  0  0  0  0
   11.3111  -17.3884   29.7098 C   0  0  0  0  0  0  0  0  0  0  0  0
   13.1985  -17.6306   25.0065 O   0  0  0  0  0  0  0  0  0  0  0  0
  2  1  1  1
  2  3  1  0
  4  2  1  0
  4  5  1  1
  6  4  1  0
  6  7  2  0
  9  8  1  0
 10 11  1  0
 10  9  1  0
 12 11  1  1
 13 12  1  0
 13  6  1  0
 14 15  2  0
 14 12  1  0
 16 17  1  0
 17 18  2  0
 18 19  1  0
 20 21  1  0
 20 19  2  0
 22 21  1  1
 22 23  1  0
 22 24  1  0
 23 14  1  0
 24 25  2  0
 24 28  1  0
 26 20  1  0
 27 26  2  0
 27 17  1  0
M  END
$$$$
