VMY.pdb
     RDKit          3D

 28 28  0  0  1  0  0  0  0  0999 V2000
    9.5495  -18.1645   21.1788 C   0  0  0  0  0  0  0  0  0  0  0  0
    8.3602  -17.3391   20.8194 C   0  0  2  0  0  0  0  0  0  0  0  0
    7.8774  -17.7515   19.4335 C   0  0  0  0  0  0  0  0  0  0  0  0
    8.6196  -15.8582   20.7756 C   0  0  2  0  0  0  0  0  0  0  0  0
    9.6562  -15.5539   19.8052 N   0  0  0  0  0  0  0  0  0  0  0  0
    8.9706  -15.2733   22.0705 C   0  0  0  0  0  0  0  0  0  0  0  0
   10.1696  -15.2139   22.4454 O   0  0  0  0  0  0  0  0  0  0  0  0
    6.0711  -10.7939   26.4876 C   0  0  0  0  0  0  0  0  0  0  0  0
    6.1095  -12.4399   27.1996 S   0  0  0  0  0  0  0  0  0  0  0  0
    7.3827  -13.4539   26.4414 C   0  0  0  0  0  0  0  0  0  0  0  0
    7.1420  -13.7521   25.0112 C   0  0  0  0  0  0  0  0  0  0  0  0
    8.2798  -14.4782   24.3565 C   0  0  2  0  0  0  0  0  0  0  0  0
    7.9964  -14.7395   22.9813 N   0  0  0  0  0  0  0  0  0  0  0  0
    8.6019  -15.6988   25.1315 C   0  0  0  0  0  0  0  0  0  0  0  0
    8.0720  -16.8122   24.8958 O   0  0  0  0  0  0  0  0  0  0  0  0
   15.4583  -16.0788   23.6947 O   0  0  0  0  0  0  0  0  0  0  0  0
   14.2646  -16.4951   24.2773 C   0  0  0  0  0  0  0  0  0  0  0  0
   14.1752  -16.7901   25.6182 C   0  0  0  0  0  0  0  0  0  0  0  0
   12.9745  -17.2006   26.1643 C   0  0  0  0  0  0  0  0  0  0  0  0
   11.8189  -17.3360   25.4123 C   0  0  0  0  0  0  0  0  0  0  0  0
   10.5556  -17.7794   26.0308 C   0  0  0  0  0  0  0  0  0  0  0  0
    9.9823  -16.7583   26.9687 C   0  0  2  0  0  0  0  0  0  0  0  0
    9.5404  -15.6083   26.1756 N   0  0  0  0  0  0  0  0  0  0  0  0
   10.8880  -16.3333   28.0450 C   0  0  0  0  0  0  0  0  0  0  0  0
   11.3978  -17.2072   28.7873 O   0  0  0  0  0  0  0  0  0  0  0  0
   11.9176  -17.0365   24.0611 C   0  0  0  0  0  0  0  0  0  0  0  0
   13.1153  -16.6267   23.5150 C   0  0  0  0  0  0  0  0  0  0  0  0
   11.2068  -15.0095   28.2786 O   0  0  0  0  0  0  0  0  0  0  0  0
  2  1  1  6
  2  3  1  0
  4  2  1  0
  4  5  1  6
  6  4  1  0
  6  7  2  0
  9  8  1  0
 10 11  1  0
 10  9  1  0
 12 11  1  1
 13 12  1  0
 13  6  1  0
 14 15  2  0
 14 12  1  0
 16 17  1  0
 17 18  2  0
 18 19  1  0
 20 21  1  0
 20 19  2  0
 22 21  1  6
 22 23  1  0
 22 24  1  0
 23 14  1  0
 24 25  2  0
 24 28  1  0
 26 20  1  0
 27 26  2  0
 27 17  1  0
M  END
$$$$
