VMY.pdb
     RDKit          3D

 28 28  0  0  1  0  0  0  0  0999 V2000
    8.4062  -18.7829   17.6956 C   0  0  0  0  0  0  0  0  0  0  0  0
    8.8885  -18.1895   18.9763 C   0  0  2  0  0  0  0  0  0  0  0  0
    8.1407  -18.8437   20.1325 C   0  0  0  0  0  0  0  0  0  0  0  0
    8.6755  -16.7052   19.0945 C   0  0  2  0  0  0  0  0  0  0  0  0
    9.3724  -16.0068   18.0290 N   0  0  0  0  0  0  0  0  0  0  0  0
    9.0677  -16.1453   20.3886 C   0  0  0  0  0  0  0  0  0  0  0  0
   10.2707  -16.1536   20.7548 O   0  0  0  0  0  0  0  0  0  0  0  0
    6.8593  -12.3124   26.9989 C   0  0  0  0  0  0  0  0  0  0  0  0
    6.3694  -12.9314   25.3881 S   0  0  0  0  0  0  0  0  0  0  0  0
    7.6854  -13.8834   24.6224 C   0  0  0  0  0  0  0  0  0  0  0  0
    7.3688  -14.3561   23.2554 C   0  0  0  0  0  0  0  0  0  0  0  0
    8.5074  -15.0794   22.5990 C   0  0  2  0  0  0  0  0  0  0  0  0
    8.1310  -15.5618   21.3084 N   0  0  0  0  0  0  0  0  0  0  0  0
    9.0061  -16.1435   23.5008 C   0  0  0  0  0  0  0  0  0  0  0  0
    8.4465  -17.2625   23.6050 O   0  0  0  0  0  0  0  0  0  0  0  0
   10.2167  -14.2112   30.9110 O   0  0  0  0  0  0  0  0  0  0  0  0
   10.6302  -14.6951   29.6731 C   0  0  0  0  0  0  0  0  0  0  0  0
   10.6432  -13.9002   28.5502 C   0  0  0  0  0  0  0  0  0  0  0  0
   11.0598  -14.4126   27.3368 C   0  0  0  0  0  0  0  0  0  0  0  0
   11.4782  -15.7243   27.1834 C   0  0  0  0  0  0  0  0  0  0  0  0
   11.9137  -16.2360   25.8706 C   0  0  0  0  0  0  0  0  0  0  0  0
   10.8031  -16.9018   25.1129 C   0  0  2  0  0  0  0  0  0  0  0  0
   10.1543  -15.8913   24.2734 N   0  0  0  0  0  0  0  0  0  0  0  0
    9.8161  -17.5966   25.9507 C   0  0  0  0  0  0  0  0  0  0  0  0
    8.7127  -17.0416   26.1726 O   0  0  0  0  0  0  0  0  0  0  0  0
   11.4621  -16.5191   28.3206 C   0  0  0  0  0  0  0  0  0  0  0  0
   11.0467  -16.0089   29.5321 C   0  0  0  0  0  0  0  0  0  0  0  0
   10.0469  -18.8395   26.5080 O   0  0  0  0  0  0  0  0  0  0  0  0
  2  1  1  6
  2  3  1  0
  4  2  1  0
  4  5  1  6
  6  4  1  0
  6  7  2  0
  9  8  1  0
 10 11  1  0
 10  9  1  0
 12 11  1  1
 13 12  1  0
 13  6  1  0
 14 15  2  0
 14 12  1  0
 16 17  1  0
 17 18  2  0
 18 19  1  0
 20 21  1  0
 20 19  2  0
 22 21  1  1
 22 23  1  0
 22 24  1  0
 23 14  1  0
 24 25  2  0
 24 28  1  0
 26 20  1  0
 27 26  2  0
 27 17  1  0
M  END
$$$$
