VMY.pdb
     RDKit          3D

 28 28  0  0  1  0  0  0  0  0999 V2000
    7.2431  -15.7807   17.3551 C   0  0  0  0  0  0  0  0  0  0  0  0
    8.0094  -15.5358   18.6112 C   0  0  2  0  0  0  0  0  0  0  0  0
    8.0023  -16.8108   19.4468 C   0  0  0  0  0  0  0  0  0  0  0  0
    7.4544  -14.4369   19.4754 C   0  0  2  0  0  0  0  0  0  0  0  0
    7.3432  -13.2033   18.7173 N   0  0  0  0  0  0  0  0  0  0  0  0
    8.2184  -14.1947   20.7000 C   0  0  0  0  0  0  0  0  0  0  0  0
    9.3065  -13.5652   20.6652 O   0  0  0  0  0  0  0  0  0  0  0  0
    7.0619  -12.2598   26.9484 C   0  0  0  0  0  0  0  0  0  0  0  0
    6.1080  -11.9246   25.4667 S   0  0  0  0  0  0  0  0  0  0  0  0
    6.8628  -12.6689   24.0174 C   0  0  0  0  0  0  0  0  0  0  0  0
    7.5664  -13.9423   24.2924 C   0  0  0  0  0  0  0  0  0  0  0  0
    8.5050  -14.3508   23.1958 C   0  0  2  0  0  0  0  0  0  0  0  0
    7.7909  -14.6468   21.9948 N   0  0  0  0  0  0  0  0  0  0  0  0
    9.3577  -15.4686   23.6623 C   0  0  0  0  0  0  0  0  0  0  0  0
    8.9526  -16.6557   23.7141 O   0  0  0  0  0  0  0  0  0  0  0  0
   10.4438  -16.5498   31.4008 O   0  0  0  0  0  0  0  0  0  0  0  0
   10.7977  -16.1654   30.1106 C   0  0  0  0  0  0  0  0  0  0  0  0
   10.4845  -14.9219   29.6118 C   0  0  0  0  0  0  0  0  0  0  0  0
   10.8510  -14.5727   28.3265 C   0  0  0  0  0  0  0  0  0  0  0  0
   11.5381  -15.4327   27.4853 C   0  0  0  0  0  0  0  0  0  0  0  0
   11.9102  -15.0245   26.1179 C   0  0  0  0  0  0  0  0  0  0  0  0
   11.3975  -15.9712   25.0730 C   0  0  2  0  0  0  0  0  0  0  0  0
   10.6768  -15.1901   24.0645 N   0  0  0  0  0  0  0  0  0  0  0  0
   10.5571  -17.0609   25.5882 C   0  0  0  0  0  0  0  0  0  0  0  0
   11.0667  -18.1973   25.7422 O   0  0  0  0  0  0  0  0  0  0  0  0
   11.8500  -16.6846   27.9961 C   0  0  0  0  0  0  0  0  0  0  0  0
   11.4849  -17.0342   29.2787 C   0  0  0  0  0  0  0  0  0  0  0  0
    9.2251  -16.8918   25.9135 O   0  0  0  0  0  0  0  0  0  0  0  0
  2  1  1  6
  2  3  1  0
  4  2  1  0
  4  5  1  6
  6  4  1  0
  6  7  2  0
  9  8  1  0
 10 11  1  0
 10  9  1  0
 12 11  1  1
 13 12  1  0
 13  6  1  0
 14 15  2  0
 14 12  1  0
 16 17  1  0
 17 18  2  0
 18 19  1  0
 20 21  1  0
 20 19  2  0
 22 21  1  1
 22 23  1  0
 22 24  1  0
 23 14  1  0
 24 25  2  0
 24 28  1  0
 26 20  1  0
 27 26  2  0
 27 17  1  0
M  END
$$$$
