VMY.pdb
     RDKit          3D

 28 28  0  0  1  0  0  0  0  0999 V2000
    7.2950  -12.0995   19.9708 C   0  0  0  0  0  0  0  0  0  0  0  0
    8.2965  -12.8874   19.1954 C   0  0  2  0  0  0  0  0  0  0  0  0
    7.7690  -13.0939   17.7801 C   0  0  0  0  0  0  0  0  0  0  0  0
    8.5912  -14.2494   19.7614 C   0  0  2  0  0  0  0  0  0  0  0  0
    7.4257  -15.1082   19.6483 N   0  0  0  0  0  0  0  0  0  0  0  0
    9.0578  -14.2332   21.1485 C   0  0  0  0  0  0  0  0  0  0  0  0
   10.1634  -13.7148   21.4490 O   0  0  0  0  0  0  0  0  0  0  0  0
    6.4778  -12.5062   27.2041 C   0  0  0  0  0  0  0  0  0  0  0  0
    5.7199  -13.3707   25.8271 S   0  0  0  0  0  0  0  0  0  0  0  0
    6.8773  -13.5893   24.4718 C   0  0  0  0  0  0  0  0  0  0  0  0
    7.6955  -14.8192   24.5718 C   0  0  0  0  0  0  0  0  0  0  0  0
    8.8110  -14.8732   23.5703 C   0  0  2  0  0  0  0  0  0  0  0  0
    8.3058  -14.7934   22.2368 N   0  0  0  0  0  0  0  0  0  0  0  0
    9.6391  -16.0771   23.8131 C   0  0  0  0  0  0  0  0  0  0  0  0
    9.2287  -17.2411   23.5830 O   0  0  0  0  0  0  0  0  0  0  0  0
   13.3372  -14.9861   18.7081 O   0  0  0  0  0  0  0  0  0  0  0  0
   13.3134  -15.3831   20.0420 C   0  0  0  0  0  0  0  0  0  0  0  0
   13.8742  -14.6168   21.0378 C   0  0  0  0  0  0  0  0  0  0  0  0
   13.8329  -15.0406   22.3519 C   0  0  0  0  0  0  0  0  0  0  0  0
   13.2392  -16.2324   22.7346 C   0  0  0  0  0  0  0  0  0  0  0  0
   13.2169  -16.6524   24.1481 C   0  0  0  0  0  0  0  0  0  0  0  0
   11.8421  -17.0273   24.6176 C   0  0  2  0  0  0  0  0  0  0  0  0
   10.9397  -15.9112   24.3230 N   0  0  0  0  0  0  0  0  0  0  0  0
   11.7574  -17.4072   26.0345 C   0  0  0  0  0  0  0  0  0  0  0  0
   12.4601  -18.3609   26.4484 O   0  0  0  0  0  0  0  0  0  0  0  0
   12.6759  -16.9990   21.7245 C   0  0  0  0  0  0  0  0  0  0  0  0
   12.7165  -16.5771   20.4126 C   0  0  0  0  0  0  0  0  0  0  0  0
   10.9364  -16.7596   26.9374 O   0  0  0  0  0  0  0  0  0  0  0  0
  2  1  1  1
  2  3  1  0
  4  2  1  0
  4  5  1  1
  6  4  1  0
  6  7  2  0
  9  8  1  0
 10 11  1  0
 10  9  1  0
 12 11  1  1
 13 12  1  0
 13  6  1  0
 14 15  2  0
 14 12  1  0
 16 17  1  0
 17 18  2  0
 18 19  1  0
 20 21  1  0
 20 19  2  0
 22 21  1  1
 22 23  1  0
 22 24  1  0
 23 14  1  0
 24 25  2  0
 24 28  1  0
 26 20  1  0
 27 26  2  0
 27 17  1  0
M  END
$$$$
