VMY.pdb
     RDKit          3D

 28 28  0  0  1  0  0  0  0  0999 V2000
    6.9227  -13.0056   19.4652 C   0  0  0  0  0  0  0  0  0  0  0  0
    8.2646  -13.6567   19.4780 C   0  0  2  0  0  0  0  0  0  0  0  0
    8.6465  -14.0219   18.0480 C   0  0  0  0  0  0  0  0  0  0  0  0
    8.3368  -14.9195   20.2919 C   0  0  2  0  0  0  0  0  0  0  0  0
    7.0688  -15.6257   20.2449 N   0  0  0  0  0  0  0  0  0  0  0  0
    8.7331  -14.7118   21.6854 C   0  0  0  0  0  0  0  0  0  0  0  0
    9.8987  -14.3378   21.9735 O   0  0  0  0  0  0  0  0  0  0  0  0
    6.6421  -11.0446   27.3614 C   0  0  0  0  0  0  0  0  0  0  0  0
    6.1844  -12.7700   27.1847 S   0  0  0  0  0  0  0  0  0  0  0  0
    7.4484  -13.6986   26.3105 C   0  0  0  0  0  0  0  0  0  0  0  0
    7.0986  -14.0172   24.9075 C   0  0  0  0  0  0  0  0  0  0  0  0
    8.2188  -14.6654   24.1489 C   0  0  2  0  0  0  0  0  0  0  0  0
    7.8423  -14.9148   22.7940 N   0  0  0  0  0  0  0  0  0  0  0  0
    8.6670  -15.8811   24.8668 C   0  0  0  0  0  0  0  0  0  0  0  0
    7.9432  -16.8987   24.9963 O   0  0  0  0  0  0  0  0  0  0  0  0
   12.3216  -18.2942   20.1681 O   0  0  0  0  0  0  0  0  0  0  0  0
   12.2167  -18.0505   21.5345 C   0  0  0  0  0  0  0  0  0  0  0  0
   11.6255  -18.9518   22.3896 C   0  0  0  0  0  0  0  0  0  0  0  0
   11.5380  -18.6783   23.7409 C   0  0  0  0  0  0  0  0  0  0  0  0
   12.0280  -17.5094   24.3002 C   0  0  0  0  0  0  0  0  0  0  0  0
   11.9139  -17.2519   25.7478 C   0  0  0  0  0  0  0  0  0  0  0  0
   10.4959  -17.0305   26.1849 C   0  0  2  0  0  0  0  0  0  0  0  0
    9.9571  -15.8978   25.4277 N   0  0  0  0  0  0  0  0  0  0  0  0
   10.3219  -16.8231   27.6292 C   0  0  0  0  0  0  0  0  0  0  0  0
    9.8209  -15.7446   28.0298 O   0  0  0  0  0  0  0  0  0  0  0  0
   12.6228  -16.6059   23.4311 C   0  0  0  0  0  0  0  0  0  0  0  0
   12.7108  -16.8778   22.0824 C   0  0  0  0  0  0  0  0  0  0  0  0
   10.6853  -17.7655   28.5718 O   0  0  0  0  0  0  0  0  0  0  0  0
  2  1  1  6
  2  3  1  0
  4  2  1  0
  4  5  1  1
  6  4  1  0
  6  7  2  0
  9  8  1  0
 10 11  1  0
 10  9  1  0
 12 11  1  1
 13 12  1  0
 13  6  1  0
 14 15  2  0
 14 12  1  0
 16 17  1  0
 17 18  2  0
 18 19  1  0
 20 21  1  0
 20 19  2  0
 22 21  1  1
 22 23  1  0
 22 24  1  0
 23 14  1  0
 24 25  2  0
 24 28  1  0
 26 20  1  0
 27 26  2  0
 27 17  1  0
M  END
$$$$
