VMY.pdb
     RDKit          3D

 28 28  0  0  1  0  0  0  0  0999 V2000
    5.8165  -16.7285   19.4623 C   0  0  0  0  0  0  0  0  0  0  0  0
    6.7425  -15.8272   20.2073 C   0  0  2  0  0  0  0  0  0  0  0  0
    7.6700  -15.1432   19.2094 C   0  0  0  0  0  0  0  0  0  0  0  0
    7.6138  -16.5247   21.2156 C   0  0  2  0  0  0  0  0  0  0  0  0
    6.8050  -17.3300   22.1134 N   0  0  0  0  0  0  0  0  0  0  0  0
    8.4661  -15.6251   21.9944 C   0  0  0  0  0  0  0  0  0  0  0  0
    9.4223  -15.0148   21.4515 O   0  0  0  0  0  0  0  0  0  0  0  0
    6.9365  -11.3245   26.8182 C   0  0  0  0  0  0  0  0  0  0  0  0
    5.9976  -12.6993   26.1503 S   0  0  0  0  0  0  0  0  0  0  0  0
    6.9245  -13.5753   24.8863 C   0  0  0  0  0  0  0  0  0  0  0  0
    8.3385  -13.8294   25.2447 C   0  0  0  0  0  0  0  0  0  0  0  0
    9.1145  -14.5080   24.1548 C   0  0  2  0  0  0  0  0  0  0  0  0
    8.2760  -15.3816   23.3974 N   0  0  0  0  0  0  0  0  0  0  0  0
   10.2968  -15.1861   24.7348 C   0  0  0  0  0  0  0  0  0  0  0  0
   11.2038  -14.5672   25.3434 O   0  0  0  0  0  0  0  0  0  0  0  0
   10.4941  -14.4385   30.8235 O   0  0  0  0  0  0  0  0  0  0  0  0
   10.6173  -15.3219   29.7550 C   0  0  0  0  0  0  0  0  0  0  0  0
   11.6803  -16.1890   29.6484 C   0  0  0  0  0  0  0  0  0  0  0  0
   11.7717  -17.0529   28.5744 C   0  0  0  0  0  0  0  0  0  0  0  0
   10.8221  -17.0957   27.5666 C   0  0  0  0  0  0  0  0  0  0  0  0
   10.9555  -18.0308   26.4340 C   0  0  0  0  0  0  0  0  0  0  0  0
   11.4904  -17.3687   25.1985 C   0  0  2  0  0  0  0  0  0  0  0  0
   10.4097  -16.5818   24.5988 N   0  0  0  0  0  0  0  0  0  0  0  0
   12.0768  -18.2869   24.2125 C   0  0  0  0  0  0  0  0  0  0  0  0
   11.5195  -18.4116   23.0951 O   0  0  0  0  0  0  0  0  0  0  0  0
    9.7534  -16.2182   27.6816 C   0  0  0  0  0  0  0  0  0  0  0  0
    9.6610  -15.3556   28.7531 C   0  0  0  0  0  0  0  0  0  0  0  0
   13.2197  -19.0228   24.4591 O   0  0  0  0  0  0  0  0  0  0  0  0
  2  1  1  6
  2  3  1  0
  4  2  1  0
  4  5  1  1
  6  4  1  0
  6  7  2  0
  9  8  1  0
 10 11  1  0
 10  9  1  0
 12 11  1  1
 13 12  1  0
 13  6  1  0
 14 15  2  0
 14 12  1  0
 16 17  1  0
 17 18  2  0
 18 19  1  0
 20 21  1  0
 20 19  2  0
 22 21  1  1
 22 23  1  0
 22 24  1  0
 23 14  1  0
 24 25  2  0
 24 28  1  0
 26 20  1  0
 27 26  2  0
 27 17  1  0
M  END
$$$$
