VMY.pdb
     RDKit          3D

 28 28  0  0  1  0  0  0  0  0999 V2000
    6.3360  -14.4563   20.4017 C   0  0  0  0  0  0  0  0  0  0  0  0
    7.4705  -15.3100   19.9445 C   0  0  2  0  0  0  0  0  0  0  0  0
    6.9489  -16.3122   18.9210 C   0  0  0  0  0  0  0  0  0  0  0  0
    8.1363  -16.0995   21.0379 C   0  0  2  0  0  0  0  0  0  0  0  0
    7.1932  -17.0240   21.6417 N   0  0  0  0  0  0  0  0  0  0  0  0
    8.7544  -15.2771   22.0789 C   0  0  0  0  0  0  0  0  0  0  0  0
    9.7218  -14.5198   21.8103 O   0  0  0  0  0  0  0  0  0  0  0  0
    6.6180  -11.2319   26.9694 C   0  0  0  0  0  0  0  0  0  0  0  0
    5.6794  -12.3667   25.9453 S   0  0  0  0  0  0  0  0  0  0  0  0
    6.7399  -13.2355   24.7856 C   0  0  0  0  0  0  0  0  0  0  0  0
    7.8530  -13.9735   25.4249 C   0  0  0  0  0  0  0  0  0  0  0  0
    8.8918  -14.4426   24.4496 C   0  0  2  0  0  0  0  0  0  0  0  0
    8.3115  -15.2763   23.4455 N   0  0  0  0  0  0  0  0  0  0  0  0
   10.0032  -15.0927   25.1818 C   0  0  0  0  0  0  0  0  0  0  0  0
   10.3674  -14.7278   26.3265 O   0  0  0  0  0  0  0  0  0  0  0  0
   11.1044  -14.4615   31.1464 O   0  0  0  0  0  0  0  0  0  0  0  0
   11.0453  -15.2531   30.0030 C   0  0  0  0  0  0  0  0  0  0  0  0
   11.1168  -16.6258   30.0656 C   0  0  0  0  0  0  0  0  0  0  0  0
   11.0550  -17.3815   28.9109 C   0  0  0  0  0  0  0  0  0  0  0  0
   10.9209  -16.8157   27.6535 C   0  0  0  0  0  0  0  0  0  0  0  0
   10.8608  -17.6559   26.4430 C   0  0  0  0  0  0  0  0  0  0  0  0
   11.5997  -17.0534   25.2845 C   0  0  2  0  0  0  0  0  0  0  0  0
   10.6802  -16.1637   24.5705 N   0  0  0  0  0  0  0  0  0  0  0  0
   12.2031  -18.0278   24.3650 C   0  0  0  0  0  0  0  0  0  0  0  0
   13.2349  -18.6433   24.7272 O   0  0  0  0  0  0  0  0  0  0  0  0
   10.8495  -15.4310   27.5992 C   0  0  0  0  0  0  0  0  0  0  0  0
   10.9110  -14.6757   28.7508 C   0  0  0  0  0  0  0  0  0  0  0  0
   11.6843  -18.3001   23.1138 O   0  0  0  0  0  0  0  0  0  0  0  0
  2  1  1  1
  2  3  1  0
  4  2  1  0
  4  5  1  1
  6  4  1  0
  6  7  2  0
  9  8  1  0
 10 11  1  0
 10  9  1  0
 12 11  1  1
 13 12  1  0
 13  6  1  0
 14 15  2  0
 14 12  1  0
 16 17  1  0
 17 18  2  0
 18 19  1  0
 20 21  1  0
 20 19  2  0
 22 21  1  1
 22 23  1  0
 22 24  1  0
 23 14  1  0
 24 25  2  0
 24 28  1  0
 26 20  1  0
 27 26  2  0
 27 17  1  0
M  END
$$$$
