VMY.pdb
     RDKit          3D

 28 28  0  0  1  0  0  0  0  0999 V2000
    7.6560  -18.8040   17.9652 C   0  0  0  0  0  0  0  0  0  0  0  0
    8.0334  -17.5495   18.6785 C   0  0  2  0  0  0  0  0  0  0  0  0
    9.2329  -16.9263   17.9737 C   0  0  0  0  0  0  0  0  0  0  0  0
    8.4181  -17.7438   20.1195 C   0  0  2  0  0  0  0  0  0  0  0  0
    7.3801  -18.4718   20.8274 N   0  0  0  0  0  0  0  0  0  0  0  0
    8.7203  -16.5011   20.8312 C   0  0  0  0  0  0  0  0  0  0  0  0
    9.6961  -15.7853   20.4893 O   0  0  0  0  0  0  0  0  0  0  0  0
    6.5644  -11.3169   26.4691 C   0  0  0  0  0  0  0  0  0  0  0  0
    6.1580  -12.8160   25.5718 S   0  0  0  0  0  0  0  0  0  0  0  0
    7.3982  -13.1947   24.3298 C   0  0  0  0  0  0  0  0  0  0  0  0
    7.1439  -14.4513   23.5891 C   0  0  0  0  0  0  0  0  0  0  0  0
    8.2431  -14.8099   22.6333 C   0  0  2  0  0  0  0  0  0  0  0  0
    7.9441  -16.0231   21.9415 N   0  0  0  0  0  0  0  0  0  0  0  0
    9.5360  -14.8491   23.3551 C   0  0  0  0  0  0  0  0  0  0  0  0
   10.3027  -13.8578   23.4290 O   0  0  0  0  0  0  0  0  0  0  0  0
   11.3673  -16.1726   31.6614 O   0  0  0  0  0  0  0  0  0  0  0  0
   10.9475  -16.0035   30.3452 C   0  0  0  0  0  0  0  0  0  0  0  0
   10.9394  -17.0450   29.4460 C   0  0  0  0  0  0  0  0  0  0  0  0
   10.5163  -16.8424   28.1467 C   0  0  0  0  0  0  0  0  0  0  0  0
   10.0862  -15.6093   27.6844 C   0  0  0  0  0  0  0  0  0  0  0  0
    9.6438  -15.4315   26.2888 C   0  0  0  0  0  0  0  0  0  0  0  0
   10.5578  -16.0989   25.3038 C   0  0  2  0  0  0  0  0  0  0  0  0
    9.9225  -16.0465   23.9845 N   0  0  0  0  0  0  0  0  0  0  0  0
   10.9334  -17.4772   25.6481 C   0  0  0  0  0  0  0  0  0  0  0  0
   12.0995  -17.7036   26.0526 O   0  0  0  0  0  0  0  0  0  0  0  0
   10.0973  -14.5645   28.5973 C   0  0  0  0  0  0  0  0  0  0  0  0
   10.5193  -14.7654   29.8943 C   0  0  0  0  0  0  0  0  0  0  0  0
   10.0578  -18.5410   25.5474 O   0  0  0  0  0  0  0  0  0  0  0  0
  2  1  1  6
  2  3  1  0
  4  2  1  0
  4  5  1  1
  6  4  1  0
  6  7  2  0
  9  8  1  0
 10 11  1  0
 10  9  1  0
 12 11  1  1
 13 12  1  0
 13  6  1  0
 14 15  2  0
 14 12  1  0
 16 17  1  0
 17 18  2  0
 18 19  1  0
 20 21  1  0
 20 19  2  0
 22 21  1  1
 22 23  1  0
 22 24  1  0
 23 14  1  0
 24 25  2  0
 24 28  1  0
 26 20  1  0
 27 26  2  0
 27 17  1  0
M  END
$$$$
