VMY.pdb
     RDKit          3D

 28 28  0  0  1  0  0  0  0  0999 V2000
    9.7862  -16.9254   18.7819 C   0  0  0  0  0  0  0  0  0  0  0  0
    9.6638  -16.0597   19.9904 C   0  0  2  0  0  0  0  0  0  0  0  0
   10.8898  -15.1576   20.0740 C   0  0  0  0  0  0  0  0  0  0  0  0
    9.5782  -16.8122   21.2899 C   0  0  2  0  0  0  0  0  0  0  0  0
    8.4914  -17.7744   21.2477 N   0  0  0  0  0  0  0  0  0  0  0  0
    9.4326  -15.9568   22.4686 C   0  0  0  0  0  0  0  0  0  0  0  0
   10.2479  -15.0257   22.6920 O   0  0  0  0  0  0  0  0  0  0  0  0
    6.9382  -11.4897   27.4733 C   0  0  0  0  0  0  0  0  0  0  0  0
    7.1989  -12.4202   25.9621 S   0  0  0  0  0  0  0  0  0  0  0  0
    6.7600  -14.1488   26.1713 C   0  0  0  0  0  0  0  0  0  0  0  0
    6.8905  -14.9562   24.9370 C   0  0  0  0  0  0  0  0  0  0  0  0
    8.3044  -15.3585   24.6376 C   0  0  2  0  0  0  0  0  0  0  0  0
    8.3759  -16.1157   23.4287 N   0  0  0  0  0  0  0  0  0  0  0  0
    8.8785  -16.0639   25.8067 C   0  0  0  0  0  0  0  0  0  0  0  0
    8.4480  -17.1722   26.2096 O   0  0  0  0  0  0  0  0  0  0  0  0
   13.0941  -18.1643   22.2137 O   0  0  0  0  0  0  0  0  0  0  0  0
   12.8304  -17.6817   23.4924 C   0  0  0  0  0  0  0  0  0  0  0  0
   12.8547  -16.3364   23.7801 C   0  0  0  0  0  0  0  0  0  0  0  0
   12.5879  -15.8913   25.0604 C   0  0  0  0  0  0  0  0  0  0  0  0
   12.2880  -16.7521   26.1037 C   0  0  0  0  0  0  0  0  0  0  0  0
   12.0111  -16.2391   27.4583 C   0  0  0  0  0  0  0  0  0  0  0  0
   10.5464  -16.0328   27.7095 C   0  0  2  0  0  0  0  0  0  0  0  0
    9.9509  -15.4684   26.4956 N   0  0  0  0  0  0  0  0  0  0  0  0
   10.2334  -15.2013   28.8799 C   0  0  0  0  0  0  0  0  0  0  0  0
   10.6115  -15.5848   30.0133 O   0  0  0  0  0  0  0  0  0  0  0  0
   12.2656  -18.1069   25.8051 C   0  0  0  0  0  0  0  0  0  0  0  0
   12.5315  -18.5523   24.5278 C   0  0  0  0  0  0  0  0  0  0  0  0
    9.5391  -14.0103   28.7904 O   0  0  0  0  0  0  0  0  0  0  0  0
  2  1  1  6
  2  3  1  0
  4  2  1  0
  4  5  1  6
  6  4  1  0
  6  7  2  0
  9  8  1  0
 10 11  1  0
 10  9  1  0
 12 11  1  1
 13 12  1  0
 13  6  1  0
 14 15  2  0
 14 12  1  0
 16 17  1  0
 17 18  2  0
 18 19  1  0
 20 21  1  0
 20 19  2  0
 22 21  1  6
 22 23  1  0
 22 24  1  0
 23 14  1  0
 24 25  2  0
 24 28  1  0
 26 20  1  0
 27 26  2  0
 27 17  1  0
M  END
$$$$
