VMY.pdb
     RDKit          3D

 28 28  0  0  1  0  0  0  0  0999 V2000
    6.7253  -19.2321   18.8865 C   0  0  0  0  0  0  0  0  0  0  0  0
    7.1931  -17.8971   19.3598 C   0  0  2  0  0  0  0  0  0  0  0  0
    8.0872  -17.2825   18.2889 C   0  0  0  0  0  0  0  0  0  0  0  0
    7.9897  -17.9322   20.6352 C   0  0  2  0  0  0  0  0  0  0  0  0
    7.2612  -18.6472   21.6681 N   0  0  0  0  0  0  0  0  0  0  0  0
    8.3813  -16.6127   21.1329 C   0  0  0  0  0  0  0  0  0  0  0  0
    9.1290  -15.8647   20.4525 O   0  0  0  0  0  0  0  0  0  0  0  0
    6.8096  -11.5381   27.0022 C   0  0  0  0  0  0  0  0  0  0  0  0
    6.1886  -12.6752   25.7616 S   0  0  0  0  0  0  0  0  0  0  0  0
    7.5067  -13.2695   24.6968 C   0  0  0  0  0  0  0  0  0  0  0  0
    7.0618  -14.2457   23.6764 C   0  0  0  0  0  0  0  0  0  0  0  0
    8.1761  -14.7397   22.8018 C   0  0  2  0  0  0  0  0  0  0  0  0
    7.9506  -16.0917   22.4005 N   0  0  0  0  0  0  0  0  0  0  0  0
    9.4730  -14.5399   23.4890 C   0  0  0  0  0  0  0  0  0  0  0  0
    9.7735  -13.4708   24.0745 O   0  0  0  0  0  0  0  0  0  0  0  0
   10.9664  -14.7697   30.9724 O   0  0  0  0  0  0  0  0  0  0  0  0
   10.7140  -15.1840   29.6678 C   0  0  0  0  0  0  0  0  0  0  0  0
   10.4425  -14.2868   28.6606 C   0  0  0  0  0  0  0  0  0  0  0  0
   10.1966  -14.7322   27.3763 C   0  0  0  0  0  0  0  0  0  0  0  0
   10.2084  -16.0750   27.0358 C   0  0  0  0  0  0  0  0  0  0  0  0
    9.9385  -16.5123   25.6534 C   0  0  0  0  0  0  0  0  0  0  0  0
   11.0307  -16.1235   24.7011 C   0  0  2  0  0  0  0  0  0  0  0  0
   10.4081  -15.5910   23.4864 N   0  0  0  0  0  0  0  0  0  0  0  0
   11.9754  -17.2006   24.3746 C   0  0  0  0  0  0  0  0  0  0  0  0
   11.7657  -17.9011   23.3548 O   0  0  0  0  0  0  0  0  0  0  0  0
   10.4830  -16.9731   28.0572 C   0  0  0  0  0  0  0  0  0  0  0  0
   10.7287  -16.5298   29.3392 C   0  0  0  0  0  0  0  0  0  0  0  0
   13.0901  -17.4792   25.1416 O   0  0  0  0  0  0  0  0  0  0  0  0
  2  1  1  6
  2  3  1  0
  4  2  1  0
  4  5  1  1
  6  4  1  0
  6  7  2  0
  9  8  1  0
 10 11  1  0
 10  9  1  0
 12 11  1  1
 13 12  1  0
 13  6  1  0
 14 15  2  0
 14 12  1  0
 16 17  1  0
 17 18  2  0
 18 19  1  0
 20 21  1  0
 20 19  2  0
 22 21  1  1
 22 23  1  0
 22 24  1  0
 23 14  1  0
 24 25  2  0
 24 28  1  0
 26 20  1  0
 27 26  2  0
 27 17  1  0
M  END
$$$$
