LKI.pdb
     RDKit          3D

 26 25  0  0  1  0  0  0  0  0999 V2000
    7.7314  -12.0707   18.6545 C   0  0  0  0  0  0  0  0  0  0  0  0
    7.9700  -13.5430   18.7851 C   0  0  1  0  0  0  0  0  0  0  0  0
    9.4098  -13.8746   19.0892 C   0  0  0  0  0  0  0  0  0  0  0  0
    7.0844  -14.0932   19.9120 C   0  0  0  0  0  0  0  0  0  0  0  0
    7.4109  -15.5715   20.0029 C   0  0  2  0  0  0  0  0  0  0  0  0
    6.4661  -16.3755   19.2742 N   0  0  0  0  0  0  0  0  0  0  0  0
    7.5513  -16.0207   21.4079 C   0  0  0  0  0  0  0  0  0  0  0  0
    6.5599  -15.8970   22.1691 O   0  0  0  0  0  0  0  0  0  0  0  0
    8.7719  -16.5733   21.8730 N   0  0  0  0  0  0  0  0  0  0  0  0
    8.9505  -17.0408   23.2314 C   0  0  1  0  0  0  0  0  0  0  0  0
   10.0683  -18.0613   23.3210 C   0  0  0  0  0  0  0  0  0  0  0  0
   10.2264  -18.6246   24.6891 C   0  0  0  0  0  0  0  0  0  0  0  0
   11.3078  -19.6716   24.6873 C   0  0  0  0  0  0  0  0  0  0  0  0
   11.5460  -20.3039   26.0164 C   0  0  0  0  0  0  0  0  0  0  0  0
   12.6589  -21.2531   25.8524 N   0  0  0  0  0  0  0  0  0  0  0  0
    9.2147  -15.9130   24.1658 C   0  0  0  0  0  0  0  0  0  0  0  0
   10.2415  -15.2092   23.9374 O   0  0  0  0  0  0  0  0  0  0  0  0
    6.4858  -11.3085   26.6299 C   0  0  0  0  0  0  0  0  0  0  0  0
    7.5422  -12.3084   26.8482 C   0  0  0  0  0  0  0  0  0  0  0  0
    7.5635  -13.5575   26.0750 C   0  0  2  0  0  0  0  0  0  0  0  0
    6.2442  -14.3253   26.1668 C   0  0  0  0  0  0  0  0  0  0  0  0
    8.7217  -14.4871   26.1909 C   0  0  2  0  0  0  0  0  0  0  0  0
    8.3882  -15.6106   25.2614 N   0  0  0  0  0  0  0  0  0  0  0  0
    9.0432  -15.0579   27.4800 C   0  0  0  0  0  0  0  0  0  0  0  0
    9.6062  -14.4298   28.3943 O   0  0  0  0  0  0  0  0  0  0  0  0
    8.7251  -16.3901   27.7705 O   0  0  0  0  0  0  0  0  0  0  0  0
  2  3  1  1
  2  1  1  0
  4  2  1  0
  5  6  1  1
  5  4  1  0
  7  9  1  0
  7  5  1  0
  8  7  2  0
 10  9  1  0
 10 11  1  6
 11 12  1  0
 12 13  1  0
 13 14  1  0
 15 14  1  0
 16 10  1  0
 17 16  2  0
 18 19  1  0
 20 19  1  0
 20 22  1  0
 20 21  1  1
 22 24  1  0
 22 23  1  6
 23 16  1  0
 24 26  1  0
 25 24  2  0
M  END
$$$$
