LKI.pdb
     RDKit          3D

 26 25  0  0  1  0  0  0  0  0999 V2000
    7.5940  -11.8009   18.8307 C   0  0  0  0  0  0  0  0  0  0  0  0
    8.0727  -13.2167   18.9203 C   0  0  1  0  0  0  0  0  0  0  0  0
    9.5690  -13.3160   19.0827 C   0  0  0  0  0  0  0  0  0  0  0  0
    7.3963  -13.8964   20.1192 C   0  0  0  0  0  0  0  0  0  0  0  0
    8.0096  -15.2810   20.2029 C   0  0  2  0  0  0  0  0  0  0  0  0
    7.3782  -16.2032   19.2968 N   0  0  0  0  0  0  0  0  0  0  0  0
    8.0253  -15.7950   21.5926 C   0  0  0  0  0  0  0  0  0  0  0  0
    6.9465  -15.7911   22.2357 O   0  0  0  0  0  0  0  0  0  0  0  0
    9.2267  -16.2757   22.1733 N   0  0  0  0  0  0  0  0  0  0  0  0
    9.2810  -16.8322   23.5086 C   0  0  1  0  0  0  0  0  0  0  0  0
   10.2979  -17.9532   23.5980 C   0  0  0  0  0  0  0  0  0  0  0  0
   10.0192  -19.0617   22.6453 C   0  0  0  0  0  0  0  0  0  0  0  0
   11.0203  -20.1681   22.8438 C   0  0  0  0  0  0  0  0  0  0  0  0
   10.7772  -21.3693   21.9947 C   0  0  0  0  0  0  0  0  0  0  0  0
   11.7690  -22.3846   22.3848 N   0  0  0  0  0  0  0  0  0  0  0  0
    9.5854  -15.7866   24.5230 C   0  0  0  0  0  0  0  0  0  0  0  0
   10.5346  -14.9922   24.2588 O   0  0  0  0  0  0  0  0  0  0  0  0
    5.7108  -12.9975   26.6544 C   0  0  0  0  0  0  0  0  0  0  0  0
    7.0391  -13.4667   26.2315 C   0  0  0  0  0  0  0  0  0  0  0  0
    7.9719  -14.0526   27.2038 C   0  0  2  0  0  0  0  0  0  0  0  0
    8.1822  -13.1578   28.4259 C   0  0  0  0  0  0  0  0  0  0  0  0
    9.2672  -14.6260   26.7431 C   0  0  2  0  0  0  0  0  0  0  0  0
    8.8766  -15.6539   25.7292 N   0  0  0  0  0  0  0  0  0  0  0  0
   10.1407  -15.2607   27.7051 C   0  0  0  0  0  0  0  0  0  0  0  0
   10.9367  -14.6403   28.4323 O   0  0  0  0  0  0  0  0  0  0  0  0
   10.1316  -16.6510   27.8694 O   0  0  0  0  0  0  0  0  0  0  0  0
  2  3  1  1
  2  1  1  0
  4  2  1  0
  5  6  1  6
  5  4  1  0
  7  9  1  0
  7  5  1  0
  8  7  2  0
 10  9  1  0
 10 11  1  6
 11 12  1  0
 12 13  1  0
 13 14  1  0
 15 14  1  0
 16 10  1  0
 17 16  2  0
 18 19  1  0
 20 19  1  0
 20 22  1  0
 20 21  1  1
 22 24  1  0
 22 23  1  6
 23 16  1  0
 24 26  1  0
 25 24  2  0
M  END
$$$$
