LKI.pdb
     RDKit          3D

 26 25  0  0  1  0  0  0  0  0999 V2000
    7.7281  -12.4646   18.6825 C   0  0  0  0  0  0  0  0  0  0  0  0
    8.0901  -13.8714   19.0453 C   0  0  1  0  0  0  0  0  0  0  0  0
    9.1781  -13.9420   20.0877 C   0  0  0  0  0  0  0  0  0  0  0  0
    6.8410  -14.5848   19.5814 C   0  0  0  0  0  0  0  0  0  0  0  0
    7.3295  -15.9178   20.1148 C   0  0  2  0  0  0  0  0  0  0  0  0
    6.9671  -17.0079   19.2484 N   0  0  0  0  0  0  0  0  0  0  0  0
    6.8873  -16.1501   21.5098 C   0  0  0  0  0  0  0  0  0  0  0  0
    5.6824  -15.9340   21.7909 O   0  0  0  0  0  0  0  0  0  0  0  0
    7.8028  -16.6031   22.4937 N   0  0  0  0  0  0  0  0  0  0  0  0
    7.4455  -16.7385   23.8901 C   0  0  1  0  0  0  0  0  0  0  0  0
    7.6405  -18.1622   24.3738 C   0  0  0  0  0  0  0  0  0  0  0  0
    6.5561  -19.0770   23.9253 C   0  0  0  0  0  0  0  0  0  0  0  0
    6.8721  -20.4871   24.3468 C   0  0  0  0  0  0  0  0  0  0  0  0
    5.8625  -21.4940   23.9111 C   0  0  0  0  0  0  0  0  0  0  0  0
    6.0191  -21.6649   22.4576 N   0  0  0  0  0  0  0  0  0  0  0  0
    8.2219  -15.7996   24.7449 C   0  0  0  0  0  0  0  0  0  0  0  0
    9.4822  -15.8332   24.6336 O   0  0  0  0  0  0  0  0  0  0  0  0
    6.0906  -11.2907   27.7844 C   0  0  0  0  0  0  0  0  0  0  0  0
    6.4023  -12.5036   27.0130 C   0  0  0  0  0  0  0  0  0  0  0  0
    7.7000  -12.6514   26.3401 C   0  0  2  0  0  0  0  0  0  0  0  0
    7.6712  -12.1489   24.8961 C   0  0  0  0  0  0  0  0  0  0  0  0
    8.4474  -13.9364   26.4345 C   0  0  2  0  0  0  0  0  0  0  0  0
    7.6222  -14.9028   25.6455 N   0  0  0  0  0  0  0  0  0  0  0  0
    8.6899  -14.5186   27.7358 C   0  0  0  0  0  0  0  0  0  0  0  0
    8.0643  -15.4956   28.1846 O   0  0  0  0  0  0  0  0  0  0  0  0
    9.6739  -13.9924   28.5814 O   0  0  0  0  0  0  0  0  0  0  0  0
  2  3  1  1
  2  1  1  0
  4  2  1  0
  5  6  1  6
  5  4  1  0
  7  9  1  0
  7  5  1  0
  8  7  2  0
 10  9  1  0
 10 11  1  1
 11 12  1  0
 12 13  1  0
 13 14  1  0
 15 14  1  0
 16 10  1  0
 17 16  2  0
 18 19  1  0
 20 19  1  0
 20 22  1  0
 20 21  1  6
 22 24  1  0
 22 23  1  6
 23 16  1  0
 24 26  1  0
 25 24  2  0
M  END
$$$$
