LKI.pdb
     RDKit          3D

 26 25  0  0  1  0  0  0  0  0999 V2000
    7.9678  -13.0600   17.8322 C   0  0  0  0  0  0  0  0  0  0  0  0
    8.4607  -13.3681   19.2120 C   0  0  1  0  0  0  0  0  0  0  0  0
    8.7554  -12.1260   20.0156 C   0  0  0  0  0  0  0  0  0  0  0  0
    7.3972  -14.1955   19.9478 C   0  0  0  0  0  0  0  0  0  0  0  0
    8.0207  -15.5608   20.1652 C   0  0  2  0  0  0  0  0  0  0  0  0
    7.4557  -16.5541   19.2909 N   0  0  0  0  0  0  0  0  0  0  0  0
    7.9592  -15.9762   21.5862 C   0  0  0  0  0  0  0  0  0  0  0  0
    6.8292  -16.0635   22.1274 O   0  0  0  0  0  0  0  0  0  0  0  0
    9.1453  -16.2650   22.3082 N   0  0  0  0  0  0  0  0  0  0  0  0
    9.1308  -16.7724   23.6640 C   0  0  1  0  0  0  0  0  0  0  0  0
   10.0624  -17.9586   23.8190 C   0  0  0  0  0  0  0  0  0  0  0  0
    9.5695  -19.1743   23.1167 C   0  0  0  0  0  0  0  0  0  0  0  0
   10.5257  -20.3151   23.3409 C   0  0  0  0  0  0  0  0  0  0  0  0
   10.1238  -21.5869   22.6745 C   0  0  0  0  0  0  0  0  0  0  0  0
   11.1592  -22.5858   22.9851 N   0  0  0  0  0  0  0  0  0  0  0  0
    9.4877  -15.7130   24.6464 C   0  0  0  0  0  0  0  0  0  0  0  0
   10.5050  -15.0076   24.3830 O   0  0  0  0  0  0  0  0  0  0  0  0
    5.9207  -12.4111   26.6026 C   0  0  0  0  0  0  0  0  0  0  0  0
    7.1710  -13.0884   26.2264 C   0  0  0  0  0  0  0  0  0  0  0  0
    7.9991  -13.7522   27.2423 C   0  0  2  0  0  0  0  0  0  0  0  0
    8.2766  -12.8548   28.4490 C   0  0  0  0  0  0  0  0  0  0  0  0
    9.2313  -14.4852   26.8382 C   0  0  2  0  0  0  0  0  0  0  0  0
    8.7560  -15.4750   25.8224 N   0  0  0  0  0  0  0  0  0  0  0  0
    9.9859  -15.2048   27.8401 C   0  0  0  0  0  0  0  0  0  0  0  0
   10.8818  -14.6910   28.5335 O   0  0  0  0  0  0  0  0  0  0  0  0
    9.7354  -16.5601   28.0860 O   0  0  0  0  0  0  0  0  0  0  0  0
  2  3  1  1
  2  1  1  0
  4  2  1  0
  5  6  1  6
  5  4  1  0
  7  9  1  0
  7  5  1  0
  8  7  2  0
 10  9  1  0
 10 11  1  6
 11 12  1  0
 12 13  1  0
 13 14  1  0
 15 14  1  0
 16 10  1  0
 17 16  2  0
 18 19  1  0
 20 19  1  0
 20 22  1  0
 20 21  1  1
 22 24  1  0
 22 23  1  6
 23 16  1  0
 24 26  1  0
 25 24  2  0
M  END
$$$$
