LKI.pdb
     RDKit          3D

 26 25  0  0  1  0  0  0  0  0999 V2000
    8.1444  -12.3661   23.9200 C   0  0  0  0  0  0  0  0  0  0  0  0
    7.1610  -13.2842   24.5770 C   0  0  1  0  0  0  0  0  0  0  0  0
    6.3060  -12.5832   25.6031 C   0  0  0  0  0  0  0  0  0  0  0  0
    6.2495  -13.8905   23.5008 C   0  0  0  0  0  0  0  0  0  0  0  0
    7.1760  -14.6085   22.5383 C   0  0  2  0  0  0  0  0  0  0  0  0
    6.4651  -15.1439   21.4078 N   0  0  0  0  0  0  0  0  0  0  0  0
    7.9877  -15.6431   23.2212 C   0  0  0  0  0  0  0  0  0  0  0  0
    7.4700  -16.2578   24.1863 O   0  0  0  0  0  0  0  0  0  0  0  0
    9.3098  -15.9258   22.7925 N   0  0  0  0  0  0  0  0  0  0  0  0
   10.1379  -16.9312   23.4244 C   0  0  1  0  0  0  0  0  0  0  0  0
   11.1797  -17.4708   22.4640 C   0  0  0  0  0  0  0  0  0  0  0  0
   11.9680  -18.5937   23.0400 C   0  0  0  0  0  0  0  0  0  0  0  0
   12.9464  -19.1065   22.0175 C   0  0  0  0  0  0  0  0  0  0  0  0
   13.7096  -20.3105   22.4547 C   0  0  0  0  0  0  0  0  0  0  0  0
   14.6209  -20.6694   21.3560 N   0  0  0  0  0  0  0  0  0  0  0  0
   10.7991  -16.4023   24.6482 C   0  0  0  0  0  0  0  0  0  0  0  0
   11.6528  -15.4822   24.4853 O   0  0  0  0  0  0  0  0  0  0  0  0
   10.3436  -13.2849   29.2667 C   0  0  0  0  0  0  0  0  0  0  0  0
   11.0100  -14.5222   28.8326 C   0  0  0  0  0  0  0  0  0  0  0  0
   10.5148  -15.2724   27.6705 C   0  0  2  0  0  0  0  0  0  0  0  0
    9.0422  -15.6608   27.8086 C   0  0  0  0  0  0  0  0  0  0  0  0
   11.3083  -16.4074   27.1217 C   0  0  2  0  0  0  0  0  0  0  0  0
   10.5172  -16.8747   25.9414 N   0  0  0  0  0  0  0  0  0  0  0  0
   11.5738  -17.5547   27.9609 C   0  0  0  0  0  0  0  0  0  0  0  0
   12.4716  -17.5904   28.8210 O   0  0  0  0  0  0  0  0  0  0  0  0
   10.8066  -18.7198   27.8411 O   0  0  0  0  0  0  0  0  0  0  0  0
  2  3  1  1
  2  1  1  0
  4  2  1  0
  5  6  1  6
  5  4  1  0
  7  9  1  0
  7  5  1  0
  8  7  2  0
 10  9  1  0
 10 11  1  6
 11 12  1  0
 12 13  1  0
 13 14  1  0
 15 14  1  0
 16 10  1  0
 17 16  2  0
 18 19  1  0
 20 19  1  0
 20 22  1  0
 20 21  1  1
 22 24  1  0
 22 23  1  6
 23 16  1  0
 24 26  1  0
 25 24  2  0
M  END
$$$$
