LKI.pdb
     RDKit          3D

 26 25  0  0  1  0  0  0  0  0999 V2000
    6.2075  -11.8390   26.6846 C   0  0  0  0  0  0  0  0  0  0  0  0
    6.2287  -12.7036   25.4624 C   0  0  1  0  0  0  0  0  0  0  0  0
    6.7669  -11.9848   24.2504 C   0  0  0  0  0  0  0  0  0  0  0  0
    7.1023  -13.9354   25.7385 C   0  0  0  0  0  0  0  0  0  0  0  0
    6.6391  -14.9931   24.7553 C   0  0  2  0  0  0  0  0  0  0  0  0
    5.3062  -15.4498   25.0469 N   0  0  0  0  0  0  0  0  0  0  0  0
    7.5999  -16.1170   24.6597 C   0  0  0  0  0  0  0  0  0  0  0  0
    7.6269  -16.9520   25.5975 O   0  0  0  0  0  0  0  0  0  0  0  0
    8.4610  -16.2403   23.5395 N   0  0  0  0  0  0  0  0  0  0  0  0
    9.6486  -17.0680   23.5542 C   0  0  1  0  0  0  0  0  0  0  0  0
   10.3452  -17.0571   22.2075 C   0  0  0  0  0  0  0  0  0  0  0  0
   11.6031  -17.8519   22.2027 C   0  0  0  0  0  0  0  0  0  0  0  0
   11.3712  -19.1687   21.5114 C   0  0  0  0  0  0  0  0  0  0  0  0
   12.5938  -20.0119   21.3807 C   0  0  0  0  0  0  0  0  0  0  0  0
   12.2071  -21.2261   20.6441 N   0  0  0  0  0  0  0  0  0  0  0  0
   10.5958  -16.6435   24.6208 C   0  0  0  0  0  0  0  0  0  0  0  0
   11.2030  -15.5472   24.4437 O   0  0  0  0  0  0  0  0  0  0  0  0
   10.8257  -13.7739   29.0722 C   0  0  0  0  0  0  0  0  0  0  0  0
   11.6044  -14.7985   28.3599 C   0  0  0  0  0  0  0  0  0  0  0  0
   10.9351  -15.7924   27.5097 C   0  0  2  0  0  0  0  0  0  0  0  0
    9.6691  -16.3573   28.1551 C   0  0  0  0  0  0  0  0  0  0  0  0
   11.7265  -16.8782   26.8665 C   0  0  2  0  0  0  0  0  0  0  0  0
   10.8330  -17.3952   25.7842 N   0  0  0  0  0  0  0  0  0  0  0  0
   12.1570  -18.0055   27.6634 C   0  0  0  0  0  0  0  0  0  0  0  0
   11.4728  -19.0289   27.8414 O   0  0  0  0  0  0  0  0  0  0  0  0
   13.4071  -17.9984   28.2938 O   0  0  0  0  0  0  0  0  0  0  0  0
  2  3  1  6
  2  1  1  0
  4  2  1  0
  5  6  1  1
  5  4  1  0
  7  9  1  0
  7  5  1  0
  8  7  2  0
 10  9  1  0
 10 11  1  6
 11 12  1  0
 12 13  1  0
 13 14  1  0
 15 14  1  0
 16 10  1  0
 17 16  2  0
 18 19  1  0
 20 19  1  0
 20 22  1  0
 20 21  1  1
 22 24  1  0
 22 23  1  6
 23 16  1  0
 24 26  1  0
 25 24  2  0
M  END
$$$$
