LKI.pdb
     RDKit          3D

 26 25  0  0  1  0  0  0  0  0999 V2000
    7.9142  -12.3877   18.8963 C   0  0  0  0  0  0  0  0  0  0  0  0
    7.9279  -13.8652   19.1382 C   0  0  1  0  0  0  0  0  0  0  0  0
    9.3171  -14.4034   19.3742 C   0  0  0  0  0  0  0  0  0  0  0  0
    7.0589  -14.1773   20.3647 C   0  0  0  0  0  0  0  0  0  0  0  0
    7.1472  -15.6793   20.5560 C   0  0  2  0  0  0  0  0  0  0  0  0
    6.2598  -16.3860   19.6710 N   0  0  0  0  0  0  0  0  0  0  0  0
    6.9424  -16.0688   21.9709 C   0  0  0  0  0  0  0  0  0  0  0  0
    5.8640  -15.7391   22.5238 O   0  0  0  0  0  0  0  0  0  0  0  0
    7.9389  -16.7925   22.6742 N   0  0  0  0  0  0  0  0  0  0  0  0
    7.8335  -17.0973   24.0855 C   0  0  1  0  0  0  0  0  0  0  0  0
    8.2568  -18.5242   24.3748 C   0  0  0  0  0  0  0  0  0  0  0  0
    8.1437  -18.8783   25.8155 C   0  0  0  0  0  0  0  0  0  0  0  0
    8.5659  -20.3081   26.0236 C   0  0  0  0  0  0  0  0  0  0  0  0
    8.3756  -20.8029   27.4171 C   0  0  0  0  0  0  0  0  0  0  0  0
    8.6454  -22.2498   27.4046 N   0  0  0  0  0  0  0  0  0  0  0  0
    8.6353  -16.1517   24.9088 C   0  0  0  0  0  0  0  0  0  0  0  0
    9.8171  -15.9162   24.5218 O   0  0  0  0  0  0  0  0  0  0  0  0
    5.9399  -12.0305   26.8373 C   0  0  0  0  0  0  0  0  0  0  0  0
    7.0048  -12.9229   26.3546 C   0  0  0  0  0  0  0  0  0  0  0  0
    7.9629  -13.5230   27.2930 C   0  0  2  0  0  0  0  0  0  0  0  0
    8.6340  -12.4820   28.1900 C   0  0  0  0  0  0  0  0  0  0  0  0
    8.9588  -14.5189   26.8078 C   0  0  2  0  0  0  0  0  0  0  0  0
    8.1408  -15.5288   26.0674 N   0  0  0  0  0  0  0  0  0  0  0  0
    9.7754  -15.2269   27.7685 C   0  0  0  0  0  0  0  0  0  0  0  0
    9.4365  -16.2926   28.3132 O   0  0  0  0  0  0  0  0  0  0  0  0
   11.0292  -14.7297   28.1440 O   0  0  0  0  0  0  0  0  0  0  0  0
  2  3  1  1
  2  1  1  0
  4  2  1  0
  5  6  1  6
  5  4  1  0
  7  9  1  0
  7  5  1  0
  8  7  2  0
 10  9  1  0
 10 11  1  6
 11 12  1  0
 12 13  1  0
 13 14  1  0
 15 14  1  0
 16 10  1  0
 17 16  2  0
 18 19  1  0
 20 19  1  0
 20 22  1  0
 20 21  1  6
 22 24  1  0
 22 23  1  1
 23 16  1  0
 24 26  1  0
 25 24  2  0
M  END
$$$$
