LKI.pdb
     RDKit          3D

 26 25  0  0  1  0  0  0  0  0999 V2000
    7.0014  -12.8650   17.3865 C   0  0  0  0  0  0  0  0  0  0  0  0
    7.9045  -13.7946   18.1361 C   0  0  1  0  0  0  0  0  0  0  0  0
    9.2149  -13.1520   18.5169 C   0  0  0  0  0  0  0  0  0  0  0  0
    7.1904  -14.2615   19.4124 C   0  0  0  0  0  0  0  0  0  0  0  0
    8.1962  -15.1236   20.1508 C   0  0  2  0  0  0  0  0  0  0  0  0
    8.4771  -16.3451   19.4443 N   0  0  0  0  0  0  0  0  0  0  0  0
    7.7834  -15.3775   21.5511 C   0  0  0  0  0  0  0  0  0  0  0  0
    7.2511  -14.4360   22.1896 O   0  0  0  0  0  0  0  0  0  0  0  0
    7.9864  -16.6485   22.1467 N   0  0  0  0  0  0  0  0  0  0  0  0
    7.6055  -16.9412   23.5124 C   0  0  1  0  0  0  0  0  0  0  0  0
    7.8297  -18.4031   23.8463 C   0  0  0  0  0  0  0  0  0  0  0  0
    7.6000  -18.7077   25.2845 C   0  0  0  0  0  0  0  0  0  0  0  0
    7.8061  -20.1779   25.5332 C   0  0  0  0  0  0  0  0  0  0  0  0
    7.8382  -20.5532   26.9758 C   0  0  0  0  0  0  0  0  0  0  0  0
    6.5116  -20.2451   27.5341 N   0  0  0  0  0  0  0  0  0  0  0  0
    8.3388  -16.0799   24.4794 C   0  0  0  0  0  0  0  0  0  0  0  0
    9.5855  -15.9530   24.3017 O   0  0  0  0  0  0  0  0  0  0  0  0
    5.6394  -12.1446   27.7882 C   0  0  0  0  0  0  0  0  0  0  0  0
    6.2321  -13.3317   27.1535 C   0  0  0  0  0  0  0  0  0  0  0  0
    7.4682  -13.2229   26.3670 C   0  0  2  0  0  0  0  0  0  0  0  0
    7.2211  -12.6751   24.9608 C   0  0  0  0  0  0  0  0  0  0  0  0
    8.4294  -14.3602   26.3265 C   0  0  2  0  0  0  0  0  0  0  0  0
    7.7140  -15.4212   25.5521 N   0  0  0  0  0  0  0  0  0  0  0  0
    8.8831  -14.9463   27.5682 C   0  0  0  0  0  0  0  0  0  0  0  0
    9.5571  -14.3352   28.4165 O   0  0  0  0  0  0  0  0  0  0  0  0
    8.5747  -16.2746   27.8854 O   0  0  0  0  0  0  0  0  0  0  0  0
  2  3  1  1
  2  1  1  0
  4  2  1  0
  5  6  1  6
  5  4  1  0
  7  9  1  0
  7  5  1  0
  8  7  2  0
 10  9  1  0
 10 11  1  1
 11 12  1  0
 12 13  1  0
 13 14  1  0
 15 14  1  0
 16 10  1  0
 17 16  2  0
 18 19  1  0
 20 19  1  0
 20 22  1  0
 20 21  1  6
 22 24  1  0
 22 23  1  6
 23 16  1  0
 24 26  1  0
 25 24  2  0
M  END
$$$$
