LKI.pdb
     RDKit          3D

 26 25  0  0  1  0  0  0  0  0999 V2000
    7.3539  -12.1433   18.7010 C   0  0  0  0  0  0  0  0  0  0  0  0
    7.7818  -13.5716   18.8379 C   0  0  1  0  0  0  0  0  0  0  0  0
    9.2325  -13.7097   19.2272 C   0  0  0  0  0  0  0  0  0  0  0  0
    6.9136  -14.2516   19.9059 C   0  0  0  0  0  0  0  0  0  0  0  0
    7.7861  -15.3332   20.5133 C   0  0  2  0  0  0  0  0  0  0  0  0
    7.7322  -16.5549   19.7552 N   0  0  0  0  0  0  0  0  0  0  0  0
    7.4731  -15.5565   21.9444 C   0  0  0  0  0  0  0  0  0  0  0  0
    7.0457  -14.5837   22.6140 O   0  0  0  0  0  0  0  0  0  0  0  0
    7.6531  -16.8337   22.5342 N   0  0  0  0  0  0  0  0  0  0  0  0
    7.2903  -17.1187   23.9064 C   0  0  1  0  0  0  0  0  0  0  0  0
    7.2857  -18.6106   24.1772 C   0  0  0  0  0  0  0  0  0  0  0  0
    6.1404  -19.3097   23.5340 C   0  0  0  0  0  0  0  0  0  0  0  0
    6.2615  -20.7940   23.7530 C   0  0  0  0  0  0  0  0  0  0  0  0
    5.1048  -21.5820   23.2391 C   0  0  0  0  0  0  0  0  0  0  0  0
    5.3821  -22.9985   23.5273 N   0  0  0  0  0  0  0  0  0  0  0  0
    8.1975  -16.4302   24.8644 C   0  0  0  0  0  0  0  0  0  0  0  0
    9.4371  -16.4766   24.6129 O   0  0  0  0  0  0  0  0  0  0  0  0
    6.6300  -11.7388   26.5317 C   0  0  0  0  0  0  0  0  0  0  0  0
    7.4058  -12.9433   26.1994 C   0  0  0  0  0  0  0  0  0  0  0  0
    7.9971  -13.7706   27.2599 C   0  0  2  0  0  0  0  0  0  0  0  0
    8.8293  -12.9505   28.2465 C   0  0  0  0  0  0  0  0  0  0  0  0
    8.6934  -15.0413   26.9143 C   0  0  2  0  0  0  0  0  0  0  0  0
    7.7397  -15.7499   26.0057 N   0  0  0  0  0  0  0  0  0  0  0  0
    9.0612  -15.9556   27.9725 C   0  0  0  0  0  0  0  0  0  0  0  0
    8.3221  -16.8651   28.3895 O   0  0  0  0  0  0  0  0  0  0  0  0
   10.3092  -15.8575   28.5993 O   0  0  0  0  0  0  0  0  0  0  0  0
  2  3  1  1
  2  1  1  0
  4  2  1  0
  5  6  1  6
  5  4  1  0
  7  9  1  0
  7  5  1  0
  8  7  2  0
 10  9  1  0
 10 11  1  6
 11 12  1  0
 12 13  1  0
 13 14  1  0
 15 14  1  0
 16 10  1  0
 17 16  2  0
 18 19  1  0
 20 19  1  0
 20 22  1  0
 20 21  1  6
 22 24  1  0
 22 23  1  6
 23 16  1  0
 24 26  1  0
 25 24  2  0
M  END
$$$$
