LKI.pdb
     RDKit          3D

 26 25  0  0  1  0  0  0  0  0999 V2000
    7.6201  -12.0342   18.6164 C   0  0  0  0  0  0  0  0  0  0  0  0
    8.0067  -13.4807   18.6007 C   0  0  1  0  0  0  0  0  0  0  0  0
    9.4554  -13.6999   18.9589 C   0  0  0  0  0  0  0  0  0  0  0  0
    7.1263  -14.2425   19.6013 C   0  0  0  0  0  0  0  0  0  0  0  0
    8.0334  -15.2787   20.2367 C   0  0  2  0  0  0  0  0  0  0  0  0
    8.1340  -16.4684   19.4339 N   0  0  0  0  0  0  0  0  0  0  0  0
    7.6318  -15.5843   21.6299 C   0  0  0  0  0  0  0  0  0  0  0  0
    7.1898  -14.6448   22.3365 O   0  0  0  0  0  0  0  0  0  0  0  0
    7.7458  -16.9012   22.1440 N   0  0  0  0  0  0  0  0  0  0  0  0
    7.2940  -17.2639   23.4707 C   0  0  1  0  0  0  0  0  0  0  0  0
    7.3226  -18.7665   23.6716 C   0  0  0  0  0  0  0  0  0  0  0  0
    6.8389  -19.1775   25.0173 C   0  0  0  0  0  0  0  0  0  0  0  0
    6.9746  -20.6684   25.1742 C   0  0  0  0  0  0  0  0  0  0  0  0
    5.6757  -21.4003   25.1879 C   0  0  0  0  0  0  0  0  0  0  0  0
    5.8569  -22.6213   24.3862 N   0  0  0  0  0  0  0  0  0  0  0  0
    8.1039  -16.5940   24.5244 C   0  0  0  0  0  0  0  0  0  0  0  0
    9.3411  -16.8594   24.5505 O   0  0  0  0  0  0  0  0  0  0  0  0
    6.1402  -11.8030   26.0180 C   0  0  0  0  0  0  0  0  0  0  0  0
    6.9993  -12.9505   25.6886 C   0  0  0  0  0  0  0  0  0  0  0  0
    7.6501  -13.7293   26.7508 C   0  0  2  0  0  0  0  0  0  0  0  0
    8.4191  -12.8477   27.7357 C   0  0  0  0  0  0  0  0  0  0  0  0
    8.4388  -14.9456   26.4080 C   0  0  2  0  0  0  0  0  0  0  0  0
    7.5591  -15.7026   25.4644 N   0  0  0  0  0  0  0  0  0  0  0  0
    8.8386  -15.8491   27.4639 C   0  0  0  0  0  0  0  0  0  0  0  0
    8.1075  -16.7450   27.9224 O   0  0  0  0  0  0  0  0  0  0  0  0
   10.1112  -15.7554   28.0401 O   0  0  0  0  0  0  0  0  0  0  0  0
  2  3  1  1
  2  1  1  0
  4  2  1  0
  5  6  1  6
  5  4  1  0
  7  9  1  0
  7  5  1  0
  8  7  2  0
 10  9  1  0
 10 11  1  1
 11 12  1  0
 12 13  1  0
 13 14  1  0
 15 14  1  0
 16 10  1  0
 17 16  2  0
 18 19  1  0
 20 19  1  0
 20 22  1  0
 20 21  1  6
 22 24  1  0
 22 23  1  6
 23 16  1  0
 24 26  1  0
 25 24  2  0
M  END
$$$$
