LKI.pdb
     RDKit          3D

 26 25  0  0  1  0  0  0  0  0999 V2000
    7.6243  -12.2235   19.2407 C   0  0  0  0  0  0  0  0  0  0  0  0
    7.9153  -13.6827   19.0735 C   0  0  1  0  0  0  0  0  0  0  0  0
    9.2374  -14.0855   19.6778 C   0  0  0  0  0  0  0  0  0  0  0  0
    6.7958  -14.4937   19.7413 C   0  0  0  0  0  0  0  0  0  0  0  0
    7.4732  -15.7156   20.3313 C   0  0  2  0  0  0  0  0  0  0  0  0
    7.1017  -16.9215   19.6398 N   0  0  0  0  0  0  0  0  0  0  0  0
    7.2445  -15.8229   21.7913 C   0  0  0  0  0  0  0  0  0  0  0  0
    6.7888  -14.8190   22.3929 O   0  0  0  0  0  0  0  0  0  0  0  0
    7.5338  -17.0268   22.4831 N   0  0  0  0  0  0  0  0  0  0  0  0
    7.2497  -17.2065   23.8912 C   0  0  1  0  0  0  0  0  0  0  0  0
    7.3477  -18.6656   24.2918 C   0  0  0  0  0  0  0  0  0  0  0  0
    7.1138  -18.8813   25.7453 C   0  0  0  0  0  0  0  0  0  0  0  0
    7.2329  -20.3465   26.0687 C   0  0  0  0  0  0  0  0  0  0  0  0
    6.8928  -20.6888   27.4794 C   0  0  0  0  0  0  0  0  0  0  0  0
    6.8670  -22.1572   27.5758 N   0  0  0  0  0  0  0  0  0  0  0  0
    8.1547  -16.3839   24.7392 C   0  0  0  0  0  0  0  0  0  0  0  0
    9.3918  -16.4401   24.4778 O   0  0  0  0  0  0  0  0  0  0  0  0
    6.2852  -11.5838   26.0629 C   0  0  0  0  0  0  0  0  0  0  0  0
    7.1799  -12.7123   25.7639 C   0  0  0  0  0  0  0  0  0  0  0  0
    7.8222  -13.4675   26.8481 C   0  0  2  0  0  0  0  0  0  0  0  0
    8.5586  -12.5619   27.8360 C   0  0  0  0  0  0  0  0  0  0  0  0
    8.6357  -14.6757   26.5358 C   0  0  2  0  0  0  0  0  0  0  0  0
    7.6973  -15.5703   25.7899 N   0  0  0  0  0  0  0  0  0  0  0  0
    9.2101  -15.4402   27.6205 C   0  0  0  0  0  0  0  0  0  0  0  0
   10.3478  -15.2402   28.0819 O   0  0  0  0  0  0  0  0  0  0  0  0
    8.4884  -16.4773   28.2237 O   0  0  0  0  0  0  0  0  0  0  0  0
  2  3  1  1
  2  1  1  0
  4  2  1  0
  5  6  1  6
  5  4  1  0
  7  9  1  0
  7  5  1  0
  8  7  2  0
 10  9  1  0
 10 11  1  1
 11 12  1  0
 12 13  1  0
 13 14  1  0
 15 14  1  0
 16 10  1  0
 17 16  2  0
 18 19  1  0
 20 19  1  0
 20 22  1  0
 20 21  1  6
 22 24  1  0
 22 23  1  1
 23 16  1  0
 24 26  1  0
 25 24  2  0
M  END
$$$$
