LKI.pdb
     RDKit          3D

 26 25  0  0  1  0  0  0  0  0999 V2000
    7.3260  -12.3627   18.0078 C   0  0  0  0  0  0  0  0  0  0  0  0
    8.0680  -13.4793   18.6745 C   0  0  1  0  0  0  0  0  0  0  0  0
    9.2598  -12.9968   19.4632 C   0  0  0  0  0  0  0  0  0  0  0  0
    7.1113  -14.2178   19.6212 C   0  0  0  0  0  0  0  0  0  0  0  0
    7.9908  -15.1108   20.4751 C   0  0  2  0  0  0  0  0  0  0  0  0
    8.3214  -16.3393   19.8031 N   0  0  0  0  0  0  0  0  0  0  0  0
    7.3987  -15.3540   21.8115 C   0  0  0  0  0  0  0  0  0  0  0  0
    7.0188  -14.3600   22.4786 O   0  0  0  0  0  0  0  0  0  0  0  0
    7.2677  -16.6728   22.3164 N   0  0  0  0  0  0  0  0  0  0  0  0
    6.8098  -16.9529   23.6609 C   0  0  1  0  0  0  0  0  0  0  0  0
    6.5016  -18.4263   23.8429 C   0  0  0  0  0  0  0  0  0  0  0  0
    5.5632  -18.9503   22.8139 C   0  0  0  0  0  0  0  0  0  0  0  0
    5.4004  -20.4372   22.9828 C   0  0  0  0  0  0  0  0  0  0  0  0
    4.4337  -21.0562   22.0313 C   0  0  0  0  0  0  0  0  0  0  0  0
    4.4761  -22.5105   22.2542 N   0  0  0  0  0  0  0  0  0  0  0  0
    7.8024  -16.5110   24.6779 C   0  0  0  0  0  0  0  0  0  0  0  0
    9.0094  -16.8351   24.4781 O   0  0  0  0  0  0  0  0  0  0  0  0
    6.4581  -11.8515   26.7867 C   0  0  0  0  0  0  0  0  0  0  0  0
    7.2758  -12.9667   26.2857 C   0  0  0  0  0  0  0  0  0  0  0  0
    7.8944  -13.9202   27.2166 C   0  0  2  0  0  0  0  0  0  0  0  0
    8.8224  -13.2381   28.2225 C   0  0  0  0  0  0  0  0  0  0  0  0
    8.5100  -15.1746   26.7004 C   0  0  2  0  0  0  0  0  0  0  0  0
    7.4568  -15.7679   25.8196 N   0  0  0  0  0  0  0  0  0  0  0  0
    8.9306  -16.1927   27.6374 C   0  0  0  0  0  0  0  0  0  0  0  0
    8.1812  -17.0852   28.0723 O   0  0  0  0  0  0  0  0  0  0  0  0
   10.2460  -16.2233   28.1158 O   0  0  0  0  0  0  0  0  0  0  0  0
  2  3  1  1
  2  1  1  0
  4  2  1  0
  5  6  1  6
  5  4  1  0
  7  9  1  0
  7  5  1  0
  8  7  2  0
 10  9  1  0
 10 11  1  6
 11 12  1  0
 12 13  1  0
 13 14  1  0
 15 14  1  0
 16 10  1  0
 17 16  2  0
 18 19  1  0
 20 19  1  0
 20 22  1  0
 20 21  1  6
 22 24  1  0
 22 23  1  6
 23 16  1  0
 24 26  1  0
 25 24  2  0
M  END
$$$$
