LKI.pdb
     RDKit          3D

 26 25  0  0  1  0  0  0  0  0999 V2000
    7.9767  -11.9211   19.0950 C   0  0  0  0  0  0  0  0  0  0  0  0
    8.3429  -13.3503   18.8395 C   0  0  1  0  0  0  0  0  0  0  0  0
    9.6064  -13.7637   19.5521 C   0  0  0  0  0  0  0  0  0  0  0  0
    7.1910  -14.2510   19.3070 C   0  0  0  0  0  0  0  0  0  0  0  0
    7.8081  -15.6174   19.5352 C   0  0  2  0  0  0  0  0  0  0  0  0
    7.3376  -16.5851   18.5799 N   0  0  0  0  0  0  0  0  0  0  0  0
    7.6213  -16.0818   20.9299 C   0  0  0  0  0  0  0  0  0  0  0  0
    6.4496  -16.1539   21.3762 O   0  0  0  0  0  0  0  0  0  0  0  0
    8.7372  -16.4330   21.7318 N   0  0  0  0  0  0  0  0  0  0  0  0
    8.6040  -16.8912   23.0985 C   0  0  1  0  0  0  0  0  0  0  0  0
    9.4330  -18.1364   23.3460 C   0  0  0  0  0  0  0  0  0  0  0  0
    9.3791  -18.5929   24.7612 C   0  0  0  0  0  0  0  0  0  0  0  0
   10.2875  -19.7784   24.9491 C   0  0  0  0  0  0  0  0  0  0  0  0
    9.9894  -20.5876   26.1654 C   0  0  0  0  0  0  0  0  0  0  0  0
   10.9963  -21.6593   26.2313 N   0  0  0  0  0  0  0  0  0  0  0  0
    8.9804  -15.8278   24.0692 C   0  0  0  0  0  0  0  0  0  0  0  0
   10.1741  -15.4093   24.0252 O   0  0  0  0  0  0  0  0  0  0  0  0
    6.7272  -10.8714   26.6333 C   0  0  0  0  0  0  0  0  0  0  0  0
    7.6948  -11.9742   26.7368 C   0  0  0  0  0  0  0  0  0  0  0  0
    7.5173  -13.2036   25.9521 C   0  0  2  0  0  0  0  0  0  0  0  0
    6.1079  -13.7825   26.0819 C   0  0  0  0  0  0  0  0  0  0  0  0
    8.5383  -14.2861   26.0198 C   0  0  2  0  0  0  0  0  0  0  0  0
    8.0832  -15.2873   25.0061 N   0  0  0  0  0  0  0  0  0  0  0  0
    8.7471  -14.9830   27.2696 C   0  0  0  0  0  0  0  0  0  0  0  0
    9.4036  -14.5197   28.2192 O   0  0  0  0  0  0  0  0  0  0  0  0
    8.2017  -16.2556   27.4773 O   0  0  0  0  0  0  0  0  0  0  0  0
  2  3  1  1
  2  1  1  0
  4  2  1  0
  5  6  1  6
  5  4  1  0
  7  9  1  0
  7  5  1  0
  8  7  2  0
 10  9  1  0
 10 11  1  6
 11 12  1  0
 12 13  1  0
 13 14  1  0
 15 14  1  0
 16 10  1  0
 17 16  2  0
 18 19  1  0
 20 19  1  0
 20 22  1  0
 20 21  1  1
 22 24  1  0
 22 23  1  6
 23 16  1  0
 24 26  1  0
 25 24  2  0
M  END
$$$$
