VVS.pdb
     RDKit          3D

 21 20  0  0  1  0  0  0  0  0999 V2000
    7.0915  -19.1271   18.7228 C   0  0  0  0  0  0  0  0  0  0  0  0
    7.9831  -18.9587   17.4943 C   0  0  2  0  0  0  0  0  0  0  0  0
    9.3524  -19.3950   17.9079 C   0  0  0  0  0  0  0  0  0  0  0  0
    8.0162  -17.4770   17.0901 C   0  0  2  0  0  0  0  0  0  0  0  0
    8.8883  -17.4487   15.8970 N   0  0  0  0  0  0  0  0  0  0  0  0
    8.6179  -16.6279   18.1229 C   0  0  0  0  0  0  0  0  0  0  0  0
    9.8730  -16.6738   18.2872 O   0  0  0  0  0  0  0  0  0  0  0  0
    7.3892  -12.8029   19.3547 C   0  0  0  0  0  0  0  0  0  0  0  0
    7.6446  -13.8247   20.4000 C   0  0  2  0  0  0  0  0  0  0  0  0
    8.1566  -13.0828   21.6427 C   0  0  0  0  0  0  0  0  0  0  0  0
    8.5835  -14.9409   20.0204 C   0  0  2  0  0  0  0  0  0  0  0  0
    7.9316  -15.7462   18.9692 N   0  0  0  0  0  0  0  0  0  0  0  0
    9.0371  -15.7807   21.1232 C   0  0  0  0  0  0  0  0  0  0  0  0
    8.2340  -16.5889   21.7255 O   0  0  0  0  0  0  0  0  0  0  0  0
   12.7464  -17.4798   23.7442 O   0  0  0  0  0  0  0  0  0  0  0  0
   12.3101  -16.6955   22.6725 C   0  0  0  0  0  0  0  0  0  0  0  0
   10.7754  -16.7066   22.6918 C   0  0  2  0  0  0  0  0  0  0  0  0
   10.3550  -15.8077   21.6384 N   0  0  0  0  0  0  0  0  0  0  0  0
   10.3494  -16.1563   23.9835 C   0  0  0  0  0  0  0  0  0  0  0  0
   10.1420  -14.9267   24.1000 O   0  0  0  0  0  0  0  0  0  0  0  0
   10.1709  -16.9813   25.0876 O   0  0  0  0  0  0  0  0  0  0  0  0
  2  1  1  1
  2  3  1  0
  2  4  1  0
  4  6  1  0
  4  5  1  6
  6 12  1  0
  6  7  2  0
  9  8  1  6
  9 11  1  0
 10  9  1  0
 11 13  1  0
 11 12  1  6
 13 14  2  0
 15 16  1  0
 17 16  1  1
 17 19  1  0
 18 13  1  0
 18 17  1  0
 19 21  1  0
 20 19  2  0
M  END
$$$$
