VVS.pdb
     RDKit          3D

 21 20  0  0  1  0  0  0  0  0999 V2000
    7.4823  -19.0397   25.1676 C   0  0  0  0  0  0  0  0  0  0  0  0
    6.0736  -18.9828   24.5806 C   0  0  2  0  0  0  0  0  0  0  0  0
    5.9925  -20.0904   23.5789 C   0  0  0  0  0  0  0  0  0  0  0  0
    5.8724  -17.6344   23.8728 C   0  0  2  0  0  0  0  0  0  0  0  0
    5.9923  -17.9605   22.4361 N   0  0  0  0  0  0  0  0  0  0  0  0
    6.9145  -16.6613   24.2146 C   0  0  0  0  0  0  0  0  0  0  0  0
    7.9918  -16.6704   23.5485 O   0  0  0  0  0  0  0  0  0  0  0  0
    6.5361  -13.4423   27.2061 C   0  0  0  0  0  0  0  0  0  0  0  0
    7.3359  -13.4490   25.9563 C   0  0  2  0  0  0  0  0  0  0  0  0
    6.4317  -12.9128   24.8374 C   0  0  0  0  0  0  0  0  0  0  0  0
    7.9422  -14.7719   25.5644 C   0  0  2  0  0  0  0  0  0  0  0  0
    6.8412  -15.6953   25.2276 N   0  0  0  0  0  0  0  0  0  0  0  0
    8.8448  -15.3630   26.5458 C   0  0  0  0  0  0  0  0  0  0  0  0
    8.3960  -16.0111   27.5653 O   0  0  0  0  0  0  0  0  0  0  0  0
   12.8012  -14.8574   26.2275 O   0  0  0  0  0  0  0  0  0  0  0  0
   12.4821  -16.1232   26.7273 C   0  0  0  0  0  0  0  0  0  0  0  0
   11.1159  -16.0118   27.4181 C   0  0  2  0  0  0  0  0  0  0  0  0
   10.2578  -15.2992   26.4959 N   0  0  0  0  0  0  0  0  0  0  0  0
   11.2995  -15.1952   28.6231 C   0  0  0  0  0  0  0  0  0  0  0  0
   10.7302  -14.0836   28.7163 O   0  0  0  0  0  0  0  0  0  0  0  0
   12.0995  -15.6368   29.6702 O   0  0  0  0  0  0  0  0  0  0  0  0
  2  1  1  6
  2  3  1  0
  2  4  1  0
  4  6  1  0
  4  5  1  6
  6 12  1  0
  6  7  2  0
  9  8  1  1
  9 11  1  0
 10  9  1  0
 11 13  1  0
 11 12  1  1
 13 14  2  0
 15 16  1  0
 17 16  1  6
 17 19  1  0
 18 13  1  0
 18 17  1  0
 19 21  1  0
 20 19  2  0
M  END
$$$$
