VVS.pdb
     RDKit          3D

 21 20  0  0  1  0  0  0  0  0999 V2000
    8.1853  -17.0092   21.4936 C   0  0  0  0  0  0  0  0  0  0  0  0
    6.8405  -16.2874   21.4391 C   0  0  2  0  0  0  0  0  0  0  0  0
    6.2534  -16.5966   20.0989 C   0  0  0  0  0  0  0  0  0  0  0  0
    7.0712  -14.7736   21.5620 C   0  0  2  0  0  0  0  0  0  0  0  0
    7.9950  -14.4590   20.4518 N   0  0  0  0  0  0  0  0  0  0  0  0
    7.7223  -14.4068   22.8235 C   0  0  0  0  0  0  0  0  0  0  0  0
    8.9878  -14.4212   22.8768 O   0  0  0  0  0  0  0  0  0  0  0  0
    6.3411  -11.6524   25.5408 C   0  0  0  0  0  0  0  0  0  0  0  0
    6.8493  -12.9136   26.1347 C   0  0  2  0  0  0  0  0  0  0  0  0
    7.5261  -12.5480   27.4633 C   0  0  0  0  0  0  0  0  0  0  0  0
    7.7772  -13.7270   25.2694 C   0  0  2  0  0  0  0  0  0  0  0  0
    7.0739  -14.0305   24.0078 N   0  0  0  0  0  0  0  0  0  0  0  0
    8.3053  -14.9398   25.8839 C   0  0  0  0  0  0  0  0  0  0  0  0
    7.5315  -15.9160   26.2146 O   0  0  0  0  0  0  0  0  0  0  0  0
   12.0764  -17.7867   26.7634 O   0  0  0  0  0  0  0  0  0  0  0  0
   11.5303  -16.6668   26.1297 C   0  0  0  0  0  0  0  0  0  0  0  0
   10.1515  -16.4138   26.7547 C   0  0  2  0  0  0  0  0  0  0  0  0
    9.6695  -15.1783   26.1752 N   0  0  0  0  0  0  0  0  0  0  0  0
   10.3526  -16.2160   28.1945 C   0  0  0  0  0  0  0  0  0  0  0  0
   10.3611  -15.0574   28.6700 O   0  0  0  0  0  0  0  0  0  0  0  0
   10.5353  -17.2992   29.0458 O   0  0  0  0  0  0  0  0  0  0  0  0
  2  1  1  6
  2  3  1  0
  2  4  1  0
  4  6  1  0
  4  5  1  6
  6 12  1  0
  6  7  2  0
  9  8  1  6
  9 11  1  0
 10  9  1  0
 11 13  1  0
 11 12  1  6
 13 14  2  0
 15 16  1  0
 17 16  1  6
 17 19  1  0
 18 13  1  0
 18 17  1  0
 19 21  1  0
 20 19  2  0
M  END
$$$$
