VVS.pdb
     RDKit          3D

 21 20  0  0  1  0  0  0  0  0999 V2000
    8.0067  -19.0513   24.1692 C   0  0  0  0  0  0  0  0  0  0  0  0
    6.5323  -18.6554   24.2127 C   0  0  2  0  0  0  0  0  0  0  0  0
    5.7937  -19.7073   23.4481 C   0  0  0  0  0  0  0  0  0  0  0  0
    6.3510  -17.2954   23.5217 C   0  0  2  0  0  0  0  0  0  0  0  0
    6.8464  -17.5210   22.1475 N   0  0  0  0  0  0  0  0  0  0  0  0
    7.1623  -16.2412   24.1385 C   0  0  0  0  0  0  0  0  0  0  0  0
    8.3302  -16.0383   23.6921 O   0  0  0  0  0  0  0  0  0  0  0  0
    6.0572  -12.5279   25.5318 C   0  0  0  0  0  0  0  0  0  0  0  0
    6.8246  -13.3698   26.4826 C   0  0  2  0  0  0  0  0  0  0  0  0
    7.6846  -12.4239   27.3327 C   0  0  0  0  0  0  0  0  0  0  0  0
    7.6714  -14.4564   25.8715 C   0  0  2  0  0  0  0  0  0  0  0  0
    6.7699  -15.4113   25.1978 N   0  0  0  0  0  0  0  0  0  0  0  0
    8.5726  -15.1410   26.7915 C   0  0  0  0  0  0  0  0  0  0  0  0
    8.1243  -15.9259   27.7102 O   0  0  0  0  0  0  0  0  0  0  0  0
   12.1170  -16.2321   25.7953 O   0  0  0  0  0  0  0  0  0  0  0  0
   12.2400  -15.7318   27.0947 C   0  0  0  0  0  0  0  0  0  0  0  0
   10.8379  -15.7299   27.7194 C   0  0  2  0  0  0  0  0  0  0  0  0
    9.9835  -15.0307   26.7836 N   0  0  0  0  0  0  0  0  0  0  0  0
   10.9134  -14.9555   28.9632 C   0  0  0  0  0  0  0  0  0  0  0  0
   10.3586  -13.8350   29.0352 O   0  0  0  0  0  0  0  0  0  0  0  0
   11.5945  -15.4469   30.0705 O   0  0  0  0  0  0  0  0  0  0  0  0
  2  1  1  6
  2  3  1  0
  2  4  1  0
  4  6  1  0
  4  5  1  6
  6 12  1  0
  6  7  2  0
  9  8  1  6
  9 11  1  0
 10  9  1  0
 11 13  1  0
 11 12  1  1
 13 14  2  0
 15 16  1  0
 17 16  1  6
 17 19  1  0
 18 13  1  0
 18 17  1  0
 19 21  1  0
 20 19  2  0
M  END
$$$$
