VVS.pdb
     RDKit          3D

 21 20  0  0  1  0  0  0  0  0999 V2000
    9.5556  -19.4150   17.5881 C   0  0  0  0  0  0  0  0  0  0  0  0
    8.1283  -19.2214   18.0960 C   0  0  2  0  0  0  0  0  0  0  0  0
    7.2573  -20.0785   17.2338 C   0  0  0  0  0  0  0  0  0  0  0  0
    7.7255  -17.7484   17.9298 C   0  0  2  0  0  0  0  0  0  0  0  0
    7.9896  -17.4616   16.5040 N   0  0  0  0  0  0  0  0  0  0  0  0
    8.5484  -16.8475   18.7429 C   0  0  0  0  0  0  0  0  0  0  0  0
    9.7908  -16.7835   18.5043 O   0  0  0  0  0  0  0  0  0  0  0  0
    6.9779  -14.3513   21.9398 C   0  0  0  0  0  0  0  0  0  0  0  0
    8.1415  -13.9984   21.0892 C   0  0  2  0  0  0  0  0  0  0  0  0
    7.6087  -13.1611   19.9179 C   0  0  0  0  0  0  0  0  0  0  0  0
    8.9695  -15.1530   20.5866 C   0  0  2  0  0  0  0  0  0  0  0  0
    8.0920  -16.0267   19.7834 N   0  0  0  0  0  0  0  0  0  0  0  0
    9.6739  -15.9129   21.6130 C   0  0  0  0  0  0  0  0  0  0  0  0
    9.1171  -16.9102   22.2101 O   0  0  0  0  0  0  0  0  0  0  0  0
   13.6363  -16.1782   21.6092 O   0  0  0  0  0  0  0  0  0  0  0  0
   13.1757  -16.0630   22.9240 C   0  0  0  0  0  0  0  0  0  0  0  0
   11.7176  -16.5422   22.9421 C   0  0  2  0  0  0  0  0  0  0  0  0
   10.9942  -15.6576   22.0539 N   0  0  0  0  0  0  0  0  0  0  0  0
   11.2134  -16.3599   24.3078 C   0  0  0  0  0  0  0  0  0  0  0  0
   11.6777  -17.0529   25.2420 O   0  0  0  0  0  0  0  0  0  0  0  0
   10.2229  -15.4254   24.5848 O   0  0  0  0  0  0  0  0  0  0  0  0
  2  1  1  6
  2  3  1  0
  2  4  1  0
  4  6  1  0
  4  5  1  6
  6 12  1  0
  6  7  2  0
  9  8  1  6
  9 11  1  0
 10  9  1  0
 11 13  1  0
 11 12  1  1
 13 14  2  0
 15 16  1  0
 17 16  1  1
 17 19  1  0
 18 13  1  0
 18 17  1  0
 19 21  1  0
 20 19  2  0
M  END
$$$$
