VVS.pdb
     RDKit          3D

 21 20  0  0  1  0  0  0  0  0999 V2000
    6.8057  -16.8308   19.9085 C   0  0  0  0  0  0  0  0  0  0  0  0
    7.5225  -16.5239   21.2217 C   0  0  2  0  0  0  0  0  0  0  0  0
    6.8456  -17.3475   22.2705 C   0  0  0  0  0  0  0  0  0  0  0  0
    7.3581  -15.0331   21.5537 C   0  0  2  0  0  0  0  0  0  0  0  0
    8.1140  -14.3415   20.4883 N   0  0  0  0  0  0  0  0  0  0  0  0
    7.9517  -14.6784   22.8467 C   0  0  0  0  0  0  0  0  0  0  0  0
    9.2115  -14.7291   22.9675 O   0  0  0  0  0  0  0  0  0  0  0  0
    6.7338  -11.7896   25.4806 C   0  0  0  0  0  0  0  0  0  0  0  0
    7.0004  -13.1148   26.0926 C   0  0  2  0  0  0  0  0  0  0  0  0
    7.5846  -12.8592   27.4891 C   0  0  0  0  0  0  0  0  0  0  0  0
    7.8888  -14.0424   25.3042 C   0  0  2  0  0  0  0  0  0  0  0  0
    7.2525  -14.2772   23.9933 N   0  0  0  0  0  0  0  0  0  0  0  0
    8.2218  -15.3009   25.9619 C   0  0  0  0  0  0  0  0  0  0  0  0
    7.3103  -16.1575   26.2722 O   0  0  0  0  0  0  0  0  0  0  0  0
   11.8540  -16.7711   25.8622 O   0  0  0  0  0  0  0  0  0  0  0  0
   10.8524  -17.6898   26.1891 C   0  0  0  0  0  0  0  0  0  0  0  0
    9.8037  -16.9451   27.0268 C   0  0  2  0  0  0  0  0  0  0  0  0
    9.5277  -15.7128   26.3196 N   0  0  0  0  0  0  0  0  0  0  0  0
   10.4220  -16.6232   28.3178 C   0  0  0  0  0  0  0  0  0  0  0  0
   10.5746  -15.4270   28.6556 O   0  0  0  0  0  0  0  0  0  0  0  0
   10.8442  -17.6295   29.1782 O   0  0  0  0  0  0  0  0  0  0  0  0
  2  1  1  6
  2  3  1  0
  2  4  1  0
  4  6  1  0
  4  5  1  6
  6 12  1  0
  6  7  2  0
  9  8  1  6
  9 11  1  0
 10  9  1  0
 11 13  1  0
 11 12  1  6
 13 14  2  0
 15 16  1  0
 17 16  1  6
 17 19  1  0
 18 13  1  0
 18 17  1  0
 19 21  1  0
 20 19  2  0
M  END
$$$$
