VVS.pdb
     RDKit          3D

 21 20  0  0  1  0  0  0  0  0999 V2000
    5.6226  -20.5662   24.2901 C   0  0  0  0  0  0  0  0  0  0  0  0
    6.6536  -19.4456   24.4078 C   0  0  2  0  0  0  0  0  0  0  0  0
    7.2757  -19.5894   25.7602 C   0  0  0  0  0  0  0  0  0  0  0  0
    5.9413  -18.0880   24.3117 C   0  0  2  0  0  0  0  0  0  0  0  0
    5.4436  -18.0402   22.9207 N   0  0  0  0  0  0  0  0  0  0  0  0
    6.8559  -16.9600   24.5146 C   0  0  0  0  0  0  0  0  0  0  0  0
    7.7956  -16.7869   23.6831 O   0  0  0  0  0  0  0  0  0  0  0  0
    6.0125  -13.1742   25.7689 C   0  0  0  0  0  0  0  0  0  0  0  0
    7.1321  -13.8273   26.4912 C   0  0  2  0  0  0  0  0  0  0  0  0
    8.1486  -12.7302   26.8376 C   0  0  0  0  0  0  0  0  0  0  0  0
    7.8045  -14.9711   25.7764 C   0  0  2  0  0  0  0  0  0  0  0  0
    6.7968  -16.0275   25.5593 N   0  0  0  0  0  0  0  0  0  0  0  0
    8.9955  -15.5042   26.4281 C   0  0  0  0  0  0  0  0  0  0  0  0
    8.9351  -16.0490   27.5945 O   0  0  0  0  0  0  0  0  0  0  0  0
   12.5988  -15.0088   24.7874 O   0  0  0  0  0  0  0  0  0  0  0  0
   12.5158  -16.2453   25.4341 C   0  0  0  0  0  0  0  0  0  0  0  0
   11.4342  -16.1243   26.5164 C   0  0  2  0  0  0  0  0  0  0  0  0
   10.3003  -15.4886   25.8802 N   0  0  0  0  0  0  0  0  0  0  0  0
   11.9550  -15.2328   27.5588 C   0  0  0  0  0  0  0  0  0  0  0  0
   11.3837  -14.1426   27.7900 O   0  0  0  0  0  0  0  0  0  0  0  0
   13.0790  -15.5793   28.2990 O   0  0  0  0  0  0  0  0  0  0  0  0
  2  1  1  1
  2  3  1  0
  2  4  1  0
  4  6  1  0
  4  5  1  6
  6 12  1  0
  6  7  2  0
  9  8  1  6
  9 11  1  0
 10  9  1  0
 11 13  1  0
 11 12  1  1
 13 14  2  0
 15 16  1  0
 17 16  1  6
 17 19  1  0
 18 13  1  0
 18 17  1  0
 19 21  1  0
 20 19  2  0
M  END
$$$$
