VVS.pdb
     RDKit          3D

 21 20  0  0  1  0  0  0  0  0999 V2000
    8.3801  -17.0278   21.5982 C   0  0  0  0  0  0  0  0  0  0  0  0
    7.0549  -16.2722   21.5241 C   0  0  2  0  0  0  0  0  0  0  0  0
    6.4906  -16.5489   20.1670 C   0  0  0  0  0  0  0  0  0  0  0  0
    7.3199  -14.7664   21.6730 C   0  0  2  0  0  0  0  0  0  0  0  0
    8.3102  -14.4689   20.6167 N   0  0  0  0  0  0  0  0  0  0  0  0
    7.9122  -14.4275   22.9708 C   0  0  0  0  0  0  0  0  0  0  0  0
    9.1668  -14.5337   23.1086 O   0  0  0  0  0  0  0  0  0  0  0  0
    6.5887  -11.5545   25.6177 C   0  0  0  0  0  0  0  0  0  0  0  0
    6.9323  -12.8651   26.2227 C   0  0  2  0  0  0  0  0  0  0  0  0
    7.5295  -12.5814   27.6083 C   0  0  0  0  0  0  0  0  0  0  0  0
    7.8506  -13.7471   25.4164 C   0  0  2  0  0  0  0  0  0  0  0  0
    7.2171  -13.9853   24.1047 N   0  0  0  0  0  0  0  0  0  0  0  0
    8.2329  -15.0023   26.0532 C   0  0  0  0  0  0  0  0  0  0  0  0
    7.3548  -15.8954   26.3568 O   0  0  0  0  0  0  0  0  0  0  0  0
   11.9489  -16.2411   25.9204 O   0  0  0  0  0  0  0  0  0  0  0  0
   11.0061  -17.2471   26.1503 C   0  0  0  0  0  0  0  0  0  0  0  0
    9.8889  -16.6399   27.0100 C   0  0  2  0  0  0  0  0  0  0  0  0
    9.5552  -15.3724   26.3963 N   0  0  0  0  0  0  0  0  0  0  0  0
   10.4488  -16.3891   28.3428 C   0  0  0  0  0  0  0  0  0  0  0  0
   10.5941  -15.2128   28.7473 O   0  0  0  0  0  0  0  0  0  0  0  0
   10.8232  -17.4413   29.1699 O   0  0  0  0  0  0  0  0  0  0  0  0
  2  1  1  6
  2  3  1  0
  2  4  1  0
  4  6  1  0
  4  5  1  6
  6 12  1  0
  6  7  2  0
  9  8  1  6
  9 11  1  0
 10  9  1  0
 11 13  1  0
 11 12  1  6
 13 14  2  0
 15 16  1  0
 17 16  1  6
 17 19  1  0
 18 13  1  0
 18 17  1  0
 19 21  1  0
 20 19  2  0
M  END
$$$$
