VVS.pdb
     RDKit          3D

 21 20  0  0  1  0  0  0  0  0999 V2000
    8.5604  -17.1847   21.6044 C   0  0  0  0  0  0  0  0  0  0  0  0
    7.1744  -16.5562   21.4768 C   0  0  2  0  0  0  0  0  0  0  0  0
    6.6853  -16.8960   20.1050 C   0  0  0  0  0  0  0  0  0  0  0  0
    7.2935  -15.0311   21.6167 C   0  0  2  0  0  0  0  0  0  0  0  0
    8.1959  -14.6379   20.5140 N   0  0  0  0  0  0  0  0  0  0  0  0
    7.9115  -14.6314   22.8848 C   0  0  0  0  0  0  0  0  0  0  0  0
    9.1753  -14.6371   22.9694 O   0  0  0  0  0  0  0  0  0  0  0  0
    6.4080  -11.8250   25.5125 C   0  0  0  0  0  0  0  0  0  0  0  0
    6.9318  -13.0660   26.1350 C   0  0  2  0  0  0  0  0  0  0  0  0
    7.5611  -12.6683   27.4776 C   0  0  0  0  0  0  0  0  0  0  0  0
    7.9045  -13.8641   25.3054 C   0  0  2  0  0  0  0  0  0  0  0  0
    7.2322  -14.2317   24.0439 N   0  0  0  0  0  0  0  0  0  0  0  0
    8.4732  -15.0363   25.9611 C   0  0  0  0  0  0  0  0  0  0  0  0
    7.7631  -16.0869   26.1913 O   0  0  0  0  0  0  0  0  0  0  0  0
   12.3569  -17.6322   26.9807 O   0  0  0  0  0  0  0  0  0  0  0  0
   11.7653  -16.5211   26.3731 C   0  0  0  0  0  0  0  0  0  0  0  0
   10.3574  -16.3706   26.9655 C   0  0  2  0  0  0  0  0  0  0  0  0
    9.8132  -15.1541   26.4010 N   0  0  0  0  0  0  0  0  0  0  0  0
   10.5081  -16.1955   28.4144 C   0  0  0  0  0  0  0  0  0  0  0  0
   10.3988  -15.0548   28.9197 O   0  0  0  0  0  0  0  0  0  0  0  0
   10.7718  -17.2806   29.2416 O   0  0  0  0  0  0  0  0  0  0  0  0
  2  1  1  6
  2  3  1  0
  2  4  1  0
  4  6  1  0
  4  5  1  6
  6 12  1  0
  6  7  2  0
  9  8  1  6
  9 11  1  0
 10  9  1  0
 11 13  1  0
 11 12  1  6
 13 14  2  0
 15 16  1  0
 17 16  1  6
 17 19  1  0
 18 13  1  0
 18 17  1  0
 19 21  1  0
 20 19  2  0
M  END
$$$$
