VVS.pdb
     RDKit          3D

 21 20  0  0  1  0  0  0  0  0999 V2000
    8.5949  -17.1704   22.0275 C   0  0  0  0  0  0  0  0  0  0  0  0
    7.1964  -16.5843   21.8454 C   0  0  2  0  0  0  0  0  0  0  0  0
    6.7259  -17.0343   20.4990 C   0  0  0  0  0  0  0  0  0  0  0  0
    7.2808  -15.0507   21.8740 C   0  0  2  0  0  0  0  0  0  0  0  0
    8.2198  -14.7214   20.7810 N   0  0  0  0  0  0  0  0  0  0  0  0
    7.8389  -14.5437   23.1316 C   0  0  0  0  0  0  0  0  0  0  0  0
    9.0971  -14.5419   23.2770 O   0  0  0  0  0  0  0  0  0  0  0  0
    6.2109  -11.5582   25.4782 C   0  0  0  0  0  0  0  0  0  0  0  0
    6.7087  -12.7476   26.2124 C   0  0  2  0  0  0  0  0  0  0  0  0
    7.2800  -12.2493   27.5474 C   0  0  0  0  0  0  0  0  0  0  0  0
    7.7166  -13.6010   25.4862 C   0  0  2  0  0  0  0  0  0  0  0  0
    7.1064  -14.0463   24.2182 N   0  0  0  0  0  0  0  0  0  0  0  0
    8.2432  -14.7307   26.2435 C   0  0  0  0  0  0  0  0  0  0  0  0
    7.5211  -15.7698   26.4877 O   0  0  0  0  0  0  0  0  0  0  0  0
   12.1169  -15.4455   26.5255 O   0  0  0  0  0  0  0  0  0  0  0  0
   11.2304  -16.5079   26.7243 C   0  0  0  0  0  0  0  0  0  0  0  0
   10.0330  -15.9633   27.5151 C   0  0  2  0  0  0  0  0  0  0  0  0
    9.5522  -14.8164   26.7748 N   0  0  0  0  0  0  0  0  0  0  0  0
   10.5366  -15.5110   28.8168 C   0  0  0  0  0  0  0  0  0  0  0  0
   11.0855  -16.3277   29.5915 O   0  0  0  0  0  0  0  0  0  0  0  0
   10.4145  -14.1830   29.2078 O   0  0  0  0  0  0  0  0  0  0  0  0
  2  1  1  6
  2  3  1  0
  2  4  1  0
  4  6  1  0
  4  5  1  6
  6 12  1  0
  6  7  2  0
  9  8  1  6
  9 11  1  0
 10  9  1  0
 11 13  1  0
 11 12  1  6
 13 14  2  0
 15 16  1  0
 17 16  1  6
 17 19  1  0
 18 13  1  0
 18 17  1  0
 19 21  1  0
 20 19  2  0
M  END
$$$$
