VVS.pdb
     RDKit          3D

 21 20  0  0  1  0  0  0  0  0999 V2000
    7.5729  -19.0807   24.6058 C   0  0  0  0  0  0  0  0  0  0  0  0
    6.2042  -18.5567   24.1764 C   0  0  2  0  0  0  0  0  0  0  0  0
    5.6234  -19.5956   23.2710 C   0  0  0  0  0  0  0  0  0  0  0  0
    6.3838  -17.2424   23.4016 C   0  0  2  0  0  0  0  0  0  0  0  0
    7.0799  -17.6474   22.1622 N   0  0  0  0  0  0  0  0  0  0  0  0
    7.2317  -16.2826   24.1156 C   0  0  0  0  0  0  0  0  0  0  0  0
    8.4603  -16.2205   23.8141 O   0  0  0  0  0  0  0  0  0  0  0  0
    6.2275  -12.5025   25.3934 C   0  0  0  0  0  0  0  0  0  0  0  0
    6.9052  -13.3568   26.3997 C   0  0  2  0  0  0  0  0  0  0  0  0
    7.7716  -12.4334   27.2678 C   0  0  0  0  0  0  0  0  0  0  0  0
    7.7232  -14.4999   25.8558 C   0  0  2  0  0  0  0  0  0  0  0  0
    6.8136  -15.4021   25.1229 N   0  0  0  0  0  0  0  0  0  0  0  0
    8.5109  -15.2316   26.8413 C   0  0  0  0  0  0  0  0  0  0  0  0
    7.9476  -15.8951   27.7918 O   0  0  0  0  0  0  0  0  0  0  0  0
   12.4909  -15.3383   26.5347 O   0  0  0  0  0  0  0  0  0  0  0  0
   11.9730  -16.4840   27.1456 C   0  0  0  0  0  0  0  0  0  0  0  0
   10.6621  -16.0822   27.8355 C   0  0  2  0  0  0  0  0  0  0  0  0
    9.9243  -15.2982   26.8681 N   0  0  0  0  0  0  0  0  0  0  0  0
   11.0109  -15.2253   28.9742 C   0  0  0  0  0  0  0  0  0  0  0  0
   10.6764  -14.0184   28.9723 O   0  0  0  0  0  0  0  0  0  0  0  0
   11.7107  -15.7329   30.0623 O   0  0  0  0  0  0  0  0  0  0  0  0
  2  1  1  6
  2  3  1  0
  2  4  1  0
  4  6  1  0
  4  5  1  6
  6 12  1  0
  6  7  2  0
  9  8  1  6
  9 11  1  0
 10  9  1  0
 11 13  1  0
 11 12  1  1
 13 14  2  0
 15 16  1  0
 17 16  1  6
 17 19  1  0
 18 13  1  0
 18 17  1  0
 19 21  1  0
 20 19  2  0
M  END
$$$$
