VVS.pdb
     RDKit          3D

 21 20  0  0  1  0  0  0  0  0999 V2000
    6.5702  -11.1090   27.3816 C   0  0  0  0  0  0  0  0  0  0  0  0
    7.1766  -12.3304   26.6939 C   0  0  2  0  0  0  0  0  0  0  0  0
    8.4377  -11.8604   26.0416 C   0  0  0  0  0  0  0  0  0  0  0  0
    6.2043  -12.8444   25.6214 C   0  0  2  0  0  0  0  0  0  0  0  0
    5.0898  -13.4292   26.3965 N   0  0  0  0  0  0  0  0  0  0  0  0
    6.7932  -13.8993   24.7906 C   0  0  0  0  0  0  0  0  0  0  0  0
    6.9166  -15.0592   25.2844 O   0  0  0  0  0  0  0  0  0  0  0  0
    8.2060  -15.4106   20.2067 C   0  0  0  0  0  0  0  0  0  0  0  0
    7.7020  -14.4312   21.2010 C   0  0  2  0  0  0  0  0  0  0  0  0
    8.5124  -13.1405   21.0160 C   0  0  0  0  0  0  0  0  0  0  0  0
    7.7277  -14.8755   22.6408 C   0  0  2  0  0  0  0  0  0  0  0  0
    7.2449  -13.7551   23.4716 N   0  0  0  0  0  0  0  0  0  0  0  0
    9.0122  -15.3726   23.1207 C   0  0  0  0  0  0  0  0  0  0  0  0
    9.9677  -14.5674   23.4365 O   0  0  0  0  0  0  0  0  0  0  0  0
    9.5915  -18.6544   25.2989 O   0  0  0  0  0  0  0  0  0  0  0  0
   10.4490  -18.6467   24.1950 C   0  0  0  0  0  0  0  0  0  0  0  0
   10.6362  -17.1835   23.7709 C   0  0  2  0  0  0  0  0  0  0  0  0
    9.3460  -16.7374   23.2904 N   0  0  0  0  0  0  0  0  0  0  0  0
   11.5891  -17.1691   22.6553 C   0  0  0  0  0  0  0  0  0  0  0  0
   11.1813  -17.3437   21.4841 O   0  0  0  0  0  0  0  0  0  0  0  0
   12.9456  -16.9638   22.8770 O   0  0  0  0  0  0  0  0  0  0  0  0
  2  1  1  6
  2  3  1  0
  2  4  1  0
  4  6  1  0
  4  5  1  1
  6 12  1  0
  6  7  2  0
  9  8  1  6
  9 11  1  0
 10  9  1  0
 11 13  1  0
 11 12  1  1
 13 14  2  0
 15 16  1  0
 17 16  1  6
 17 19  1  0
 18 13  1  0
 18 17  1  0
 19 21  1  0
 20 19  2  0
M  END
$$$$
