VVS.pdb
     RDKit          3D

 21 20  0  0  1  0  0  0  0  0999 V2000
    7.8990  -19.8284   16.2885 C   0  0  0  0  0  0  0  0  0  0  0  0
    8.6242  -18.9536   17.3090 C   0  0  2  0  0  0  0  0  0  0  0  0
    8.3005  -19.5229   18.6536 C   0  0  0  0  0  0  0  0  0  0  0  0
    8.0893  -17.5165   17.2173 C   0  0  2  0  0  0  0  0  0  0  0  0
    8.5408  -17.0483   15.8900 N   0  0  0  0  0  0  0  0  0  0  0  0
    8.6670  -16.6375   18.2388 C   0  0  0  0  0  0  0  0  0  0  0  0
    9.9187  -16.4437   18.2315 O   0  0  0  0  0  0  0  0  0  0  0  0
    7.2541  -13.0490   19.4823 C   0  0  0  0  0  0  0  0  0  0  0  0
    7.5972  -13.9894   20.5776 C   0  0  2  0  0  0  0  0  0  0  0  0
    8.0982  -13.1457   21.7583 C   0  0  0  0  0  0  0  0  0  0  0  0
    8.5893  -15.0712   20.2360 C   0  0  2  0  0  0  0  0  0  0  0  0
    7.9603  -15.9703   19.2488 N   0  0  0  0  0  0  0  0  0  0  0  0
    9.1157  -15.8203   21.3713 C   0  0  0  0  0  0  0  0  0  0  0  0
    8.3846  -16.6633   22.0161 O   0  0  0  0  0  0  0  0  0  0  0  0
   12.9584  -16.8544   21.9383 O   0  0  0  0  0  0  0  0  0  0  0  0
   12.4212  -16.2497   23.0783 C   0  0  0  0  0  0  0  0  0  0  0  0
   10.9005  -16.4527   23.0309 C   0  0  2  0  0  0  0  0  0  0  0  0
   10.4338  -15.7159   21.8759 N   0  0  0  0  0  0  0  0  0  0  0  0
   10.3390  -15.8429   24.2415 C   0  0  0  0  0  0  0  0  0  0  0  0
    9.6991  -14.7694   24.1602 O   0  0  0  0  0  0  0  0  0  0  0  0
   10.5061  -16.4397   25.4854 O   0  0  0  0  0  0  0  0  0  0  0  0
  2  1  1  6
  2  3  1  0
  2  4  1  0
  4  6  1  0
  4  5  1  6
  6 12  1  0
  6  7  2  0
  9  8  1  6
  9 11  1  0
 10  9  1  0
 11 13  1  0
 11 12  1  6
 13 14  2  0
 15 16  1  0
 17 16  1  1
 17 19  1  0
 18 13  1  0
 18 17  1  0
 19 21  1  0
 20 19  2  0
M  END
$$$$
