VVS.pdb
     RDKit          3D

 21 20  0  0  1  0  0  0  0  0999 V2000
   13.9932  -16.5669   19.5681 C   0  0  0  0  0  0  0  0  0  0  0  0
   13.1883  -16.4010   18.2809 C   0  0  2  0  0  0  0  0  0  0  0  0
   14.1180  -16.7389   17.1593 C   0  0  0  0  0  0  0  0  0  0  0  0
   12.7354  -14.9389   18.1499 C   0  0  2  0  0  0  0  0  0  0  0  0
   13.9873  -14.1622   18.2688 N   0  0  0  0  0  0  0  0  0  0  0  0
   11.8345  -14.5325   19.2330 C   0  0  0  0  0  0  0  0  0  0  0  0
   12.3406  -14.1711   20.3365 O   0  0  0  0  0  0  0  0  0  0  0  0
    8.2462  -12.5200   18.9891 C   0  0  0  0  0  0  0  0  0  0  0  0
    8.2321  -13.7523   19.8156 C   0  0  2  0  0  0  0  0  0  0  0  0
    7.2540  -13.5095   20.9737 C   0  0  0  0  0  0  0  0  0  0  0  0
    9.5683  -14.2177   20.3346 C   0  0  2  0  0  0  0  0  0  0  0  0
   10.4345  -14.4996   19.1732 N   0  0  0  0  0  0  0  0  0  0  0  0
    9.5248  -15.3537   21.2482 C   0  0  0  0  0  0  0  0  0  0  0  0
    9.3130  -16.5509   20.8207 O   0  0  0  0  0  0  0  0  0  0  0  0
    9.4245  -14.8286   25.2375 O   0  0  0  0  0  0  0  0  0  0  0  0
   10.1596  -15.9647   24.8868 C   0  0  0  0  0  0  0  0  0  0  0  0
    9.6491  -16.4361   23.5182 C   0  0  2  0  0  0  0  0  0  0  0  0
    9.7039  -15.2793   22.6502 N   0  0  0  0  0  0  0  0  0  0  0  0
    8.2478  -16.8366   23.6873 C   0  0  0  0  0  0  0  0  0  0  0  0
    7.3307  -16.0786   23.2965 O   0  0  0  0  0  0  0  0  0  0  0  0
    7.9182  -18.0508   24.2776 O   0  0  0  0  0  0  0  0  0  0  0  0
  2  1  1  1
  2  3  1  0
  2  4  1  0
  4  6  1  0
  4  5  1  1
  6 12  1  0
  6  7  2  0
  9  8  1  1
  9 11  1  0
 10  9  1  0
 11 13  1  0
 11 12  1  6
 13 14  2  0
 15 16  1  0
 17 16  1  1
 17 19  1  0
 18 13  1  0
 18 17  1  0
 19 21  1  0
 20 19  2  0
M  END
$$$$
