VVS.pdb
     RDKit          3D

 21 20  0  0  1  0  0  0  0  0999 V2000
    8.8068  -17.1936   21.6788 C   0  0  0  0  0  0  0  0  0  0  0  0
    7.3754  -16.6613   21.6790 C   0  0  2  0  0  0  0  0  0  0  0  0
    6.7897  -17.0348   20.3546 C   0  0  0  0  0  0  0  0  0  0  0  0
    7.4024  -15.1315   21.8158 C   0  0  2  0  0  0  0  0  0  0  0  0
    8.2551  -14.6848   20.6942 N   0  0  0  0  0  0  0  0  0  0  0  0
    8.0210  -14.6922   23.0705 C   0  0  0  0  0  0  0  0  0  0  0  0
    9.2852  -14.6735   23.1469 O   0  0  0  0  0  0  0  0  0  0  0  0
    6.5573  -11.8109   25.6227 C   0  0  0  0  0  0  0  0  0  0  0  0
    7.0509  -13.0468   26.2791 C   0  0  2  0  0  0  0  0  0  0  0  0
    7.6764  -12.6297   27.6176 C   0  0  0  0  0  0  0  0  0  0  0  0
    8.0148  -13.8834   25.4775 C   0  0  2  0  0  0  0  0  0  0  0  0
    7.3418  -14.2782   24.2246 N   0  0  0  0  0  0  0  0  0  0  0  0
    8.5636  -15.0438   26.1699 C   0  0  0  0  0  0  0  0  0  0  0  0
    7.8131  -16.0285   26.5277 O   0  0  0  0  0  0  0  0  0  0  0  0
   12.5083  -15.6066   26.4328 O   0  0  0  0  0  0  0  0  0  0  0  0
   11.7370  -16.7670   26.5447 C   0  0  0  0  0  0  0  0  0  0  0  0
   10.4191  -16.3767   27.2281 C   0  0  2  0  0  0  0  0  0  0  0  0
    9.9252  -15.2189   26.5139 N   0  0  0  0  0  0  0  0  0  0  0  0
   10.7390  -15.9843   28.6051 C   0  0  0  0  0  0  0  0  0  0  0  0
   11.2290  -16.8234   29.3952 O   0  0  0  0  0  0  0  0  0  0  0  0
   10.5061  -14.6888   29.0511 O   0  0  0  0  0  0  0  0  0  0  0  0
  2  1  1  6
  2  3  1  0
  2  4  1  0
  4  6  1  0
  4  5  1  6
  6 12  1  0
  6  7  2  0
  9  8  1  6
  9 11  1  0
 10  9  1  0
 11 13  1  0
 11 12  1  6
 13 14  2  0
 15 16  1  0
 17 16  1  6
 17 19  1  0
 18 13  1  0
 18 17  1  0
 19 21  1  0
 20 19  2  0
M  END
$$$$
