SAW.pdb
     RDKit          3D

 26 27  0  0  1  0  0  0  0  0999 V2000
    7.1435  -18.6297   23.0694 O   0  0  0  0  0  0  0  0  0  0  0  0
    7.3490  -19.4630   21.9580 C   0  0  0  0  0  0  0  0  0  0  0  0
    7.1153  -18.6315   20.6900 C   0  0  2  0  0  0  0  0  0  0  0  0
    7.4728  -19.4289   19.5837 N   0  0  0  0  0  0  0  0  0  0  0  0
    7.9625  -17.3999   20.7382 C   0  0  0  0  0  0  0  0  0  0  0  0
    9.1707  -17.4701   20.4487 O   0  0  0  0  0  0  0  0  0  0  0  0
    7.2315  -13.7173   20.8524 C   0  0  0  0  0  0  0  0  0  0  0  0
    8.1460  -14.9197   21.1249 C   0  0  2  0  0  0  0  0  0  0  0  0
    7.3857  -16.1523   21.1145 N   0  0  0  0  0  0  0  0  0  0  0  0
    8.6781  -14.7251   22.4942 C   0  0  0  0  0  0  0  0  0  0  0  0
    8.6456  -13.6055   23.0715 O   0  0  0  0  0  0  0  0  0  0  0  0
    9.2401  -15.7945   23.1951 N   0  0  0  0  0  0  0  0  0  0  0  0
    9.9636  -15.6719   24.4438 C   0  0  1  0  0  0  0  0  0  0  0  0
    9.2036  -16.1980   25.6145 C   0  0  0  0  0  0  0  0  0  0  0  0
    7.9354  -15.4362   25.7355 C   0  0  0  0  0  0  0  0  0  0  0  0
    6.6321  -15.8755   25.5366 C   0  0  0  0  0  0  0  0  0  0  0  0
    5.7844  -14.8564   25.7476 N   0  0  0  0  0  0  0  0  0  0  0  0
    6.4795  -13.7661   26.0769 C   0  0  0  0  0  0  0  0  0  0  0  0
    6.0752  -12.4795   26.3858 C   0  0  0  0  0  0  0  0  0  0  0  0
    6.9850  -11.4945   26.7011 C   0  0  0  0  0  0  0  0  0  0  0  0
    8.3370  -11.8200   26.7036 C   0  0  0  0  0  0  0  0  0  0  0  0
    8.7257  -13.1062   26.3938 C   0  0  0  0  0  0  0  0  0  0  0  0
    7.8183  -14.0958   26.0776 C   0  0  0  0  0  0  0  0  0  0  0  0
   11.2588  -16.3509   24.3064 C   0  0  0  0  0  0  0  0  0  0  0  0
   12.1945  -16.2250   25.3221 O   0  0  0  0  0  0  0  0  0  0  0  0
   11.5637  -17.0508   23.2969 O   0  0  0  0  0  0  0  0  0  0  0  0
  2  3  1  0
  2  1  1  0
  3  4  1  6
  5  6  2  0
  5  3  1  0
  8  7  1  1
  8  9  1  0
  8 10  1  0
  9  5  1  0
 10 11  2  0
 12 10  1  0
 12 13  1  0
 13 14  1  1
 15 16  2  0
 15 14  1  0
 17 16  1  0
 18 23  2  0
 18 17  1  0
 19 18  1  0
 20 19  2  0
 20 21  1  0
 21 22  2  0
 22 23  1  0
 23 15  1  0
 24 25  1  0
 24 13  1  0
 26 24  2  0
M  END
$$$$
