SAW.pdb
     RDKit          3D

 26 27  0  0  1  0  0  0  0  0999 V2000
    7.4138  -18.9985   23.3019 O   0  0  0  0  0  0  0  0  0  0  0  0
    6.0244  -18.9092   23.1187 C   0  0  0  0  0  0  0  0  0  0  0  0
    5.7639  -18.3965   21.6963 C   0  0  2  0  0  0  0  0  0  0  0  0
    5.6168  -19.5198   20.8571 N   0  0  0  0  0  0  0  0  0  0  0  0
    6.9205  -17.5609   21.2479 C   0  0  0  0  0  0  0  0  0  0  0  0
    7.8753  -18.0955   20.6552 O   0  0  0  0  0  0  0  0  0  0  0  0
    7.3757  -13.8455   20.8133 C   0  0  0  0  0  0  0  0  0  0  0  0
    7.9240  -15.2742   20.9333 C   0  0  2  0  0  0  0  0  0  0  0  0
    6.9264  -16.1582   21.4997 N   0  0  0  0  0  0  0  0  0  0  0  0
    9.0569  -15.1975   21.8854 C   0  0  0  0  0  0  0  0  0  0  0  0
   10.1448  -14.6364   21.5865 O   0  0  0  0  0  0  0  0  0  0  0  0
    8.9493  -15.7544   23.1617 N   0  0  0  0  0  0  0  0  0  0  0  0
   10.0212  -15.7974   24.1348 C   0  0  1  0  0  0  0  0  0  0  0  0
    9.8918  -14.7556   25.1944 C   0  0  0  0  0  0  0  0  0  0  0  0
    8.4691  -14.6799   25.6112 C   0  0  0  0  0  0  0  0  0  0  0  0
    7.5127  -15.6878   25.6345 C   0  0  0  0  0  0  0  0  0  0  0  0
    6.3499  -15.1845   26.0774 N   0  0  0  0  0  0  0  0  0  0  0  0
    6.5052  -13.8866   26.3455 C   0  0  0  0  0  0  0  0  0  0  0  0
    5.6188  -12.9356   26.8186 C   0  0  0  0  0  0  0  0  0  0  0  0
    6.0052  -11.6295   27.0242 C   0  0  0  0  0  0  0  0  0  0  0  0
    7.3211  -11.2778   26.7439 C   0  0  0  0  0  0  0  0  0  0  0  0
    8.1938  -12.2360   26.2730 C   0  0  0  0  0  0  0  0  0  0  0  0
    7.8114  -13.5449   26.0656 C   0  0  0  0  0  0  0  0  0  0  0  0
   10.0717  -17.1433   24.7207 C   0  0  0  0  0  0  0  0  0  0  0  0
    9.0904  -18.0620   24.3797 O   0  0  0  0  0  0  0  0  0  0  0  0
   10.9756  -17.5073   25.5285 O   0  0  0  0  0  0  0  0  0  0  0  0
  2  3  1  0
  2  1  1  0
  3  4  1  6
  5  6  2  0
  5  3  1  0
  8  7  1  1
  8  9  1  0
  8 10  1  0
  9  5  1  0
 10 11  2  0
 12 10  1  0
 12 13  1  0
 13 14  1  1
 15 16  2  0
 15 14  1  0
 17 16  1  0
 18 23  2  0
 18 17  1  0
 19 18  1  0
 20 19  2  0
 20 21  1  0
 21 22  2  0
 22 23  1  0
 23 15  1  0
 24 25  1  0
 24 13  1  0
 26 24  2  0
M  END
$$$$
