SAW.pdb
     RDKit          3D

 26 27  0  0  1  0  0  0  0  0999 V2000
    7.4803  -13.3699   22.0072 O   0  0  0  0  0  0  0  0  0  0  0  0
    7.8259  -13.6683   20.6793 C   0  0  0  0  0  0  0  0  0  0  0  0
    7.3907  -15.1102   20.3867 C   0  0  2  0  0  0  0  0  0  0  0  0
    5.9813  -15.1339   20.3577 N   0  0  0  0  0  0  0  0  0  0  0  0
    7.9034  -16.0138   21.4625 C   0  0  0  0  0  0  0  0  0  0  0  0
    7.1372  -16.3946   22.3661 O   0  0  0  0  0  0  0  0  0  0  0  0
   11.1969  -17.8387   22.0151 C   0  0  0  0  0  0  0  0  0  0  0  0
    9.7961  -17.3644   22.4262 C   0  0  2  0  0  0  0  0  0  0  0  0
    9.2647  -16.4355   21.4504 N   0  0  0  0  0  0  0  0  0  0  0  0
    9.9718  -16.6322   23.7025 C   0  0  0  0  0  0  0  0  0  0  0  0
   10.3424  -15.4284   23.7373 O   0  0  0  0  0  0  0  0  0  0  0  0
    9.7279  -17.2661   24.9229 N   0  0  0  0  0  0  0  0  0  0  0  0
    9.9467  -16.6644   26.2220 C   0  0  1  0  0  0  0  0  0  0  0  0
    8.7329  -16.6855   27.0887 C   0  0  0  0  0  0  0  0  0  0  0  0
    7.6970  -15.8196   26.4720 C   0  0  0  0  0  0  0  0  0  0  0  0
    6.5622  -16.1897   25.7604 C   0  0  0  0  0  0  0  0  0  0  0  0
    5.9011  -15.0864   25.3765 N   0  0  0  0  0  0  0  0  0  0  0  0
    6.5567  -14.0073   25.8079 C   0  0  0  0  0  0  0  0  0  0  0  0
    6.2889  -12.6567   25.6729 C   0  0  0  0  0  0  0  0  0  0  0  0
    7.1213  -11.6998   26.2104 C   0  0  0  0  0  0  0  0  0  0  0  0
    8.2524  -12.1206   26.9013 C   0  0  0  0  0  0  0  0  0  0  0  0
    8.5070  -13.4699   27.0282 C   0  0  0  0  0  0  0  0  0  0  0  0
    7.6764  -14.4316   26.4917 C   0  0  0  0  0  0  0  0  0  0  0  0
   11.0728  -17.3463   26.8733 C   0  0  0  0  0  0  0  0  0  0  0  0
   11.6801  -18.4107   26.2242 O   0  0  0  0  0  0  0  0  0  0  0  0
   11.5187  -17.0059   28.0079 O   0  0  0  0  0  0  0  0  0  0  0  0
  2  3  1  0
  2  1  1  0
  3  4  1  1
  5  6  2  0
  5  3  1  0
  8  7  1  6
  8  9  1  0
  8 10  1  0
  9  5  1  0
 10 11  2  0
 12 10  1  0
 12 13  1  0
 13 14  1  1
 15 16  2  0
 15 14  1  0
 17 16  1  0
 18 23  2  0
 18 17  1  0
 19 18  1  0
 20 19  2  0
 20 21  1  0
 21 22  2  0
 22 23  1  0
 23 15  1  0
 24 25  1  0
 24 13  1  0
 26 24  2  0
M  END
$$$$
