SAW.pdb
     RDKit          3D

 26 27  0  0  1  0  0  0  0  0999 V2000
    8.0868  -19.3023   23.4117 O   0  0  0  0  0  0  0  0  0  0  0  0
    6.7008  -19.3112   23.1864 C   0  0  0  0  0  0  0  0  0  0  0  0
    6.4561  -18.9670   21.7114 C   0  0  2  0  0  0  0  0  0  0  0  0
    6.8217  -20.0915   20.9436 N   0  0  0  0  0  0  0  0  0  0  0  0
    7.2891  -17.7847   21.3305 C   0  0  0  0  0  0  0  0  0  0  0  0
    8.3619  -17.9551   20.7233 O   0  0  0  0  0  0  0  0  0  0  0  0
    6.6944  -14.0457   21.3121 C   0  0  0  0  0  0  0  0  0  0  0  0
    7.5965  -15.2872   21.2777 C   0  0  2  0  0  0  0  0  0  0  0  0
    6.8535  -16.4691   21.6629 N   0  0  0  0  0  0  0  0  0  0  0  0
    8.6459  -15.0570   22.2984 C   0  0  0  0  0  0  0  0  0  0  0  0
    9.4991  -14.1367   22.1845 O   0  0  0  0  0  0  0  0  0  0  0  0
    8.7205  -15.8669   23.4337 N   0  0  0  0  0  0  0  0  0  0  0  0
    9.7257  -15.7435   24.4691 C   0  0  1  0  0  0  0  0  0  0  0  0
    9.1878  -15.9864   25.8390 C   0  0  0  0  0  0  0  0  0  0  0  0
    7.9283  -15.2166   25.9952 C   0  0  0  0  0  0  0  0  0  0  0  0
    6.6163  -15.6557   25.8644 C   0  0  0  0  0  0  0  0  0  0  0  0
    5.7815  -14.6281   26.0856 N   0  0  0  0  0  0  0  0  0  0  0  0
    6.4934  -13.5325   26.3562 C   0  0  0  0  0  0  0  0  0  0  0  0
    6.1066  -12.2368   26.6490 C   0  0  0  0  0  0  0  0  0  0  0  0
    7.0321  -11.2477   26.8990 C   0  0  0  0  0  0  0  0  0  0  0  0
    8.3820  -11.5784   26.8513 C   0  0  0  0  0  0  0  0  0  0  0  0
    8.7531  -12.8737   26.5583 C   0  0  0  0  0  0  0  0  0  0  0  0
    7.8300  -13.8674   26.3073 C   0  0  0  0  0  0  0  0  0  0  0  0
   10.8305  -16.6624   24.1649 C   0  0  0  0  0  0  0  0  0  0  0  0
   11.9781  -16.6140   24.9419 O   0  0  0  0  0  0  0  0  0  0  0  0
   10.7844  -17.5030   23.2197 O   0  0  0  0  0  0  0  0  0  0  0  0
  2  3  1  0
  2  1  1  0
  3  4  1  6
  5  6  2  0
  5  3  1  0
  8  7  1  1
  8  9  1  0
  8 10  1  0
  9  5  1  0
 10 11  2  0
 12 10  1  0
 12 13  1  0
 13 14  1  1
 15 16  2  0
 15 14  1  0
 17 16  1  0
 18 23  2  0
 18 17  1  0
 19 18  1  0
 20 19  2  0
 20 21  1  0
 21 22  2  0
 22 23  1  0
 23 15  1  0
 24 25  1  0
 24 13  1  0
 26 24  2  0
M  END
$$$$
