SAW.pdb
     RDKit          3D

 26 27  0  0  1  0  0  0  0  0999 V2000
    6.4529  -20.6692   23.1224 O   0  0  0  0  0  0  0  0  0  0  0  0
    7.2978  -19.5768   22.8681 C   0  0  0  0  0  0  0  0  0  0  0  0
    6.7190  -18.7932   21.6828 C   0  0  2  0  0  0  0  0  0  0  0  0
    6.6249  -19.6787   20.5897 N   0  0  0  0  0  0  0  0  0  0  0  0
    7.6255  -17.6512   21.3498 C   0  0  0  0  0  0  0  0  0  0  0  0
    8.6560  -17.8552   20.6827 O   0  0  0  0  0  0  0  0  0  0  0  0
    7.2972  -13.8949   21.5419 C   0  0  0  0  0  0  0  0  0  0  0  0
    8.1228  -15.1864   21.4602 C   0  0  2  0  0  0  0  0  0  0  0  0
    7.3078  -16.3355   21.7960 N   0  0  0  0  0  0  0  0  0  0  0  0
    9.1792  -15.0609   22.4917 C   0  0  0  0  0  0  0  0  0  0  0  0
   10.1374  -14.2513   22.3726 O   0  0  0  0  0  0  0  0  0  0  0  0
    9.1425  -15.8496   23.6437 N   0  0  0  0  0  0  0  0  0  0  0  0
   10.1955  -15.9076   24.6364 C   0  0  1  0  0  0  0  0  0  0  0  0
    9.7942  -15.3258   25.9500 C   0  0  0  0  0  0  0  0  0  0  0  0
    8.3246  -15.1172   25.9450 C   0  0  0  0  0  0  0  0  0  0  0  0
    7.3122  -16.0504   25.7568 C   0  0  0  0  0  0  0  0  0  0  0  0
    6.1225  -15.4328   25.8251 N   0  0  0  0  0  0  0  0  0  0  0  0
    6.3138  -14.1316   26.0504 C   0  0  0  0  0  0  0  0  0  0  0  0
    5.4205  -13.0857   26.1994 C   0  0  0  0  0  0  0  0  0  0  0  0
    5.8510  -11.7976   26.4293 C   0  0  0  0  0  0  0  0  0  0  0  0
    7.2193  -11.5627   26.5103 C   0  0  0  0  0  0  0  0  0  0  0  0
    8.0982  -12.6146   26.3599 C   0  0  0  0  0  0  0  0  0  0  0  0
    7.6718  -13.9059   26.1296 C   0  0  0  0  0  0  0  0  0  0  0  0
   10.6251  -17.3041   24.7865 C   0  0  0  0  0  0  0  0  0  0  0  0
   11.7655  -17.5807   25.5255 O   0  0  0  0  0  0  0  0  0  0  0  0
    9.9989  -18.2747   24.2690 O   0  0  0  0  0  0  0  0  0  0  0  0
  2  3  1  0
  2  1  1  0
  3  4  1  6
  5  6  2  0
  5  3  1  0
  8  7  1  1
  8  9  1  0
  8 10  1  0
  9  5  1  0
 10 11  2  0
 12 10  1  0
 12 13  1  0
 13 14  1  1
 15 16  2  0
 15 14  1  0
 17 16  1  0
 18 23  2  0
 18 17  1  0
 19 18  1  0
 20 19  2  0
 20 21  1  0
 21 22  2  0
 22 23  1  0
 23 15  1  0
 24 25  1  0
 24 13  1  0
 26 24  2  0
M  END
$$$$
