SAW.pdb
     RDKit          3D

 26 27  0  0  1  0  0  0  0  0999 V2000
    5.7575  -19.2358   19.3847 O   0  0  0  0  0  0  0  0  0  0  0  0
    6.9251  -19.9510   19.6964 C   0  0  0  0  0  0  0  0  0  0  0  0
    7.5392  -19.3328   20.9592 C   0  0  2  0  0  0  0  0  0  0  0  0
    6.5351  -19.2945   21.9482 N   0  0  0  0  0  0  0  0  0  0  0  0
    8.0207  -17.9501   20.6539 C   0  0  0  0  0  0  0  0  0  0  0  0
    8.9602  -17.7860   19.8546 O   0  0  0  0  0  0  0  0  0  0  0  0
    6.6420  -14.5033   21.0710 C   0  0  0  0  0  0  0  0  0  0  0  0
    7.8355  -15.4675   21.0247 C   0  0  2  0  0  0  0  0  0  0  0  0
    7.4040  -16.8267   21.2774 N   0  0  0  0  0  0  0  0  0  0  0  0
    8.7312  -15.0612   22.1331 C   0  0  0  0  0  0  0  0  0  0  0  0
    9.2992  -13.9366   22.1558 O   0  0  0  0  0  0  0  0  0  0  0  0
    8.9754  -15.9273   23.2012 N   0  0  0  0  0  0  0  0  0  0  0  0
    9.8552  -15.6353   24.3140 C   0  0  1  0  0  0  0  0  0  0  0  0
    9.2617  -15.9855   25.6369 C   0  0  0  0  0  0  0  0  0  0  0  0
    7.9148  -15.3684   25.7285 C   0  0  0  0  0  0  0  0  0  0  0  0
    6.6718  -15.9530   25.5181 C   0  0  0  0  0  0  0  0  0  0  0  0
    5.7127  -15.0321   25.7017 N   0  0  0  0  0  0  0  0  0  0  0  0
    6.2768  -13.8667   26.0242 C   0  0  0  0  0  0  0  0  0  0  0  0
    5.7270  -12.6292   26.3079 C   0  0  0  0  0  0  0  0  0  0  0  0
    6.5164  -11.5447   26.6210 C   0  0  0  0  0  0  0  0  0  0  0  0
    7.8961  -11.7172   26.6474 C   0  0  0  0  0  0  0  0  0  0  0  0
    8.4303  -12.9561   26.3626 C   0  0  0  0  0  0  0  0  0  0  0  0
    7.6439  -14.0449   26.0486 C   0  0  0  0  0  0  0  0  0  0  0  0
   11.1287  -16.3365   24.1042 C   0  0  0  0  0  0  0  0  0  0  0  0
   12.2037  -16.0382   24.9279 O   0  0  0  0  0  0  0  0  0  0  0  0
   11.2927  -17.2069   23.2000 O   0  0  0  0  0  0  0  0  0  0  0  0
  2  3  1  0
  2  1  1  0
  3  4  1  1
  5  6  2  0
  5  3  1  0
  8  7  1  1
  8  9  1  0
  8 10  1  0
  9  5  1  0
 10 11  2  0
 12 10  1  0
 12 13  1  0
 13 14  1  1
 15 16  2  0
 15 14  1  0
 17 16  1  0
 18 23  2  0
 18 17  1  0
 19 18  1  0
 20 19  2  0
 20 21  1  0
 21 22  2  0
 22 23  1  0
 23 15  1  0
 24 25  1  0
 24 13  1  0
 26 24  2  0
M  END
$$$$
