SAW.pdb
     RDKit          3D

 26 27  0  0  1  0  0  0  0  0999 V2000
    9.1388  -12.3614   20.0334 O   0  0  0  0  0  0  0  0  0  0  0  0
    9.1439  -13.3467   19.0329 C   0  0  0  0  0  0  0  0  0  0  0  0
    7.8153  -14.1102   19.1101 C   0  0  2  0  0  0  0  0  0  0  0  0
    6.7761  -13.1581   19.1409 N   0  0  0  0  0  0  0  0  0  0  0  0
    7.7916  -14.9455   20.3505 C   0  0  0  0  0  0  0  0  0  0  0  0
    7.1281  -14.5711   21.3344 O   0  0  0  0  0  0  0  0  0  0  0  0
    9.2498  -18.3434   21.2709 C   0  0  0  0  0  0  0  0  0  0  0  0
    8.5074  -17.0320   21.5627 C   0  0  2  0  0  0  0  0  0  0  0  0
    8.5272  -16.1651   20.4026 N   0  0  0  0  0  0  0  0  0  0  0  0
    9.2700  -16.3634   22.6431 C   0  0  0  0  0  0  0  0  0  0  0  0
   10.1291  -15.4733   22.4031 O   0  0  0  0  0  0  0  0  0  0  0  0
    9.0550  -16.7067   23.9797 N   0  0  0  0  0  0  0  0  0  0  0  0
    9.8069  -16.1756   25.0979 C   0  0  1  0  0  0  0  0  0  0  0  0
    9.0219  -16.1373   26.3656 C   0  0  0  0  0  0  0  0  0  0  0  0
    7.7722  -15.3735   26.1245 C   0  0  0  0  0  0  0  0  0  0  0  0
    6.5332  -15.8398   25.7018 C   0  0  0  0  0  0  0  0  0  0  0  0
    5.6800  -14.8078   25.6090 N   0  0  0  0  0  0  0  0  0  0  0  0
    6.3097  -13.6830   25.9538 C   0  0  0  0  0  0  0  0  0  0  0  0
    5.8738  -12.3717   26.0208 C   0  0  0  0  0  0  0  0  0  0  0  0
    6.7142  -11.3521   26.4100 C   0  0  0  0  0  0  0  0  0  0  0  0
    8.0279  -11.6678   26.7395 C   0  0  0  0  0  0  0  0  0  0  0  0
    8.4486  -12.9790   26.6683 C   0  0  0  0  0  0  0  0  0  0  0  0
    7.6108  -14.0033   26.2791 C   0  0  0  0  0  0  0  0  0  0  0  0
   11.0332  -16.9678   25.2596 C   0  0  0  0  0  0  0  0  0  0  0  0
   12.0119  -16.5200   26.1341 O   0  0  0  0  0  0  0  0  0  0  0  0
   11.2405  -18.0482   24.6338 O   0  0  0  0  0  0  0  0  0  0  0  0
  2  3  1  0
  2  1  1  0
  3  4  1  1
  5  6  2  0
  5  3  1  0
  8  7  1  6
  8  9  1  0
  8 10  1  0
  9  5  1  0
 10 11  2  0
 12 10  1  0
 12 13  1  0
 13 14  1  1
 15 16  2  0
 15 14  1  0
 17 16  1  0
 18 23  2  0
 18 17  1  0
 19 18  1  0
 20 19  2  0
 20 21  1  0
 21 22  2  0
 22 23  1  0
 23 15  1  0
 24 25  1  0
 24 13  1  0
 26 24  2  0
M  END
$$$$
