SAW.pdb
     RDKit          3D

 26 27  0  0  1  0  0  0  0  0999 V2000
   10.4757  -13.2220   19.3940 O   0  0  0  0  0  0  0  0  0  0  0  0
    9.2344  -12.7395   18.9489 C   0  0  0  0  0  0  0  0  0  0  0  0
    8.3608  -13.9447   18.5770 C   0  0  2  0  0  0  0  0  0  0  0  0
    7.1478  -13.4493   18.0564 N   0  0  0  0  0  0  0  0  0  0  0  0
    8.1037  -14.7697   19.7977 C   0  0  0  0  0  0  0  0  0  0  0  0
    7.3279  -14.3490   20.6751 O   0  0  0  0  0  0  0  0  0  0  0  0
    8.9510  -18.3129   20.8352 C   0  0  0  0  0  0  0  0  0  0  0  0
    8.5557  -16.8586   21.1270 C   0  0  2  0  0  0  0  0  0  0  0  0
    8.7462  -16.0323   19.9529 N   0  0  0  0  0  0  0  0  0  0  0  0
    9.4911  -16.3841   22.1738 C   0  0  0  0  0  0  0  0  0  0  0  0
   10.5910  -15.8386   21.8903 O   0  0  0  0  0  0  0  0  0  0  0  0
    9.1750  -16.5306   23.5263 N   0  0  0  0  0  0  0  0  0  0  0  0
   10.0348  -16.1310   24.6212 C   0  0  1  0  0  0  0  0  0  0  0  0
    9.7559  -14.7497   25.1102 C   0  0  0  0  0  0  0  0  0  0  0  0
    8.3455  -14.6867   25.5686 C   0  0  0  0  0  0  0  0  0  0  0  0
    7.4081  -15.7095   25.6481 C   0  0  0  0  0  0  0  0  0  0  0  0
    6.2506  -15.2139   26.1132 N   0  0  0  0  0  0  0  0  0  0  0  0
    6.3911  -13.9068   26.3418 C   0  0  0  0  0  0  0  0  0  0  0  0
    5.5029  -12.9583   26.8166 C   0  0  0  0  0  0  0  0  0  0  0  0
    5.8723  -11.6409   26.9754 C   0  0  0  0  0  0  0  0  0  0  0  0
    7.1728  -11.2749   26.6454 C   0  0  0  0  0  0  0  0  0  0  0  0
    8.0474  -12.2307   26.1733 C   0  0  0  0  0  0  0  0  0  0  0  0
    7.6820  -13.5509   26.0127 C   0  0  0  0  0  0  0  0  0  0  0  0
    9.9026  -17.1123   25.7061 C   0  0  0  0  0  0  0  0  0  0  0  0
   10.8162  -17.0881   26.7491 O   0  0  0  0  0  0  0  0  0  0  0  0
    8.9870  -17.9858   25.7344 O   0  0  0  0  0  0  0  0  0  0  0  0
  2  3  1  0
  2  1  1  0
  3  4  1  1
  5  6  2  0
  5  3  1  0
  8  7  1  6
  8  9  1  0
  8 10  1  0
  9  5  1  0
 10 11  2  0
 12 10  1  0
 12 13  1  0
 13 14  1  1
 15 16  2  0
 15 14  1  0
 17 16  1  0
 18 23  2  0
 18 17  1  0
 19 18  1  0
 20 19  2  0
 20 21  1  0
 21 22  2  0
 22 23  1  0
 23 15  1  0
 24 25  1  0
 24 13  1  0
 26 24  2  0
M  END
$$$$
