SAW.pdb
     RDKit          3D

 26 27  0  0  1  0  0  0  0  0999 V2000
    6.0809  -18.7757   19.0066 O   0  0  0  0  0  0  0  0  0  0  0  0
    7.3275  -19.3975   19.1833 C   0  0  0  0  0  0  0  0  0  0  0  0
    7.8792  -18.9774   20.5519 C   0  0  2  0  0  0  0  0  0  0  0  0
    6.8313  -19.0902   21.4884 N   0  0  0  0  0  0  0  0  0  0  0  0
    8.3633  -17.5641   20.4818 C   0  0  0  0  0  0  0  0  0  0  0  0
    9.4035  -17.2983   19.8526 O   0  0  0  0  0  0  0  0  0  0  0  0
    6.8521  -14.2037   21.2289 C   0  0  0  0  0  0  0  0  0  0  0  0
    8.0590  -15.1435   21.1012 C   0  0  2  0  0  0  0  0  0  0  0  0
    7.6341  -16.5277   21.1340 N   0  0  0  0  0  0  0  0  0  0  0  0
    8.8967  -14.8965   22.2983 C   0  0  0  0  0  0  0  0  0  0  0  0
    9.4760  -13.7946   22.4933 O   0  0  0  0  0  0  0  0  0  0  0  0
    9.0709  -15.8942   23.2600 N   0  0  0  0  0  0  0  0  0  0  0  0
    9.8755  -15.7540   24.4561 C   0  0  1  0  0  0  0  0  0  0  0  0
    9.1610  -16.1779   25.6949 C   0  0  0  0  0  0  0  0  0  0  0  0
    7.8837  -15.4270   25.7840 C   0  0  0  0  0  0  0  0  0  0  0  0
    6.5856  -15.8909   25.6085 C   0  0  0  0  0  0  0  0  0  0  0  0
    5.7258  -14.8737   25.7747 N   0  0  0  0  0  0  0  0  0  0  0  0
    6.4079  -13.7610   26.0523 C   0  0  0  0  0  0  0  0  0  0  0  0
    5.9883  -12.4667   26.3031 C   0  0  0  0  0  0  0  0  0  0  0  0
    6.8864  -11.4573   26.5709 C   0  0  0  0  0  0  0  0  0  0  0  0
    8.2424  -11.7657   26.5851 C   0  0  0  0  0  0  0  0  0  0  0  0
    8.6463  -13.0599   26.3335 C   0  0  0  0  0  0  0  0  0  0  0  0
    7.7507  -14.0739   26.0648 C   0  0  0  0  0  0  0  0  0  0  0  0
   11.1202  -16.5133   24.2782 C   0  0  0  0  0  0  0  0  0  0  0  0
   12.1282  -16.3817   25.2213 O   0  0  0  0  0  0  0  0  0  0  0  0
   11.3179  -17.2880   23.2970 O   0  0  0  0  0  0  0  0  0  0  0  0
  2  3  1  0
  2  1  1  0
  3  4  1  1
  5  6  2  0
  5  3  1  0
  8  7  1  1
  8  9  1  0
  8 10  1  0
  9  5  1  0
 10 11  2  0
 12 10  1  0
 12 13  1  0
 13 14  1  1
 15 16  2  0
 15 14  1  0
 17 16  1  0
 18 23  2  0
 18 17  1  0
 19 18  1  0
 20 19  2  0
 20 21  1  0
 21 22  2  0
 22 23  1  0
 23 15  1  0
 24 25  1  0
 24 13  1  0
 26 24  2  0
M  END
$$$$
