SAW.pdb
     RDKit          3D

 26 27  0  0  1  0  0  0  0  0999 V2000
    9.3565  -13.6209   20.8215 O   0  0  0  0  0  0  0  0  0  0  0  0
    7.9648  -13.6671   20.6408 C   0  0  0  0  0  0  0  0  0  0  0  0
    7.5773  -15.1108   20.2951 C   0  0  2  0  0  0  0  0  0  0  0  0
    6.2025  -15.1216   19.9827 N   0  0  0  0  0  0  0  0  0  0  0  0
    7.8500  -15.9951   21.4701 C   0  0  0  0  0  0  0  0  0  0  0  0
    7.0135  -16.0781   22.3877 O   0  0  0  0  0  0  0  0  0  0  0  0
   10.5482  -18.5433   22.2857 C   0  0  0  0  0  0  0  0  0  0  0  0
    9.3698  -17.6254   22.6394 C   0  0  2  0  0  0  0  0  0  0  0  0
    9.0640  -16.7387   21.5359 N   0  0  0  0  0  0  0  0  0  0  0  0
    9.8278  -16.7941   23.7774 C   0  0  0  0  0  0  0  0  0  0  0  0
   10.4628  -15.7191   23.6073 O   0  0  0  0  0  0  0  0  0  0  0  0
    9.5646  -17.1849   25.0922 N   0  0  0  0  0  0  0  0  0  0  0  0
    9.9977  -16.4608   26.2693 C   0  0  1  0  0  0  0  0  0  0  0  0
    8.9121  -16.2765   27.2755 C   0  0  0  0  0  0  0  0  0  0  0  0
    7.7992  -15.5292   26.6380 C   0  0  0  0  0  0  0  0  0  0  0  0
    6.6756  -16.0253   25.9880 C   0  0  0  0  0  0  0  0  0  0  0  0
    5.9254  -14.9996   25.5557 N   0  0  0  0  0  0  0  0  0  0  0  0
    6.5119  -13.8505   25.8961 C   0  0  0  0  0  0  0  0  0  0  0  0
    6.1424  -12.5343   25.6837 C   0  0  0  0  0  0  0  0  0  0  0  0
    6.9169  -11.4871   26.1320 C   0  0  0  0  0  0  0  0  0  0  0  0
    8.0942  -11.7798   26.8121 C   0  0  0  0  0  0  0  0  0  0  0  0
    8.4501  -13.0962   27.0167 C   0  0  0  0  0  0  0  0  0  0  0  0
    7.6777  -14.1479   26.5696 C   0  0  0  0  0  0  0  0  0  0  0  0
   11.1483  -17.1604   26.8559 C   0  0  0  0  0  0  0  0  0  0  0  0
   11.8587  -16.5470   27.8767 O   0  0  0  0  0  0  0  0  0  0  0  0
   11.5251  -18.3057   26.4707 O   0  0  0  0  0  0  0  0  0  0  0  0
  2  3  1  0
  2  1  1  0
  3  4  1  1
  5  6  2  0
  5  3  1  0
  8  7  1  6
  8  9  1  0
  8 10  1  0
  9  5  1  0
 10 11  2  0
 12 10  1  0
 12 13  1  0
 13 14  1  1
 15 16  2  0
 15 14  1  0
 17 16  1  0
 18 23  2  0
 18 17  1  0
 19 18  1  0
 20 19  2  0
 20 21  1  0
 21 22  2  0
 22 23  1  0
 23 15  1  0
 24 25  1  0
 24 13  1  0
 26 24  2  0
M  END
$$$$
