SAW.pdb
     RDKit          3D

 26 27  0  0  1  0  0  0  0  0999 V2000
    7.0731  -19.2388   21.1701 O   0  0  0  0  0  0  0  0  0  0  0  0
    6.6743  -17.9585   21.5868 C   0  0  0  0  0  0  0  0  0  0  0  0
    7.4004  -16.9263   20.7142 C   0  0  2  0  0  0  0  0  0  0  0  0
    7.1504  -17.2544   19.3660 N   0  0  0  0  0  0  0  0  0  0  0  0
    8.8679  -16.9778   20.9978 C   0  0  0  0  0  0  0  0  0  0  0  0
    9.6667  -17.2243   20.0759 O   0  0  0  0  0  0  0  0  0  0  0  0
   11.2353  -15.2160   21.9776 C   0  0  0  0  0  0  0  0  0  0  0  0
   10.7497  -16.5286   22.6079 C   0  0  2  0  0  0  0  0  0  0  0  0
    9.3470  -16.7451   22.3198 N   0  0  0  0  0  0  0  0  0  0  0  0
   10.8915  -16.3545   24.0727 C   0  0  0  0  0  0  0  0  0  0  0  0
   11.9987  -16.0835   24.6098 O   0  0  0  0  0  0  0  0  0  0  0  0
    9.7840  -16.4883   24.9131 N   0  0  0  0  0  0  0  0  0  0  0  0
    9.8482  -16.5356   26.3592 C   0  0  1  0  0  0  0  0  0  0  0  0
    8.5036  -16.5432   27.0048 C   0  0  0  0  0  0  0  0  0  0  0  0
    7.6291  -15.5829   26.2861 C   0  0  0  0  0  0  0  0  0  0  0  0
    6.6271  -15.8418   25.3587 C   0  0  0  0  0  0  0  0  0  0  0  0
    6.0885  -14.6812   24.9533 N   0  0  0  0  0  0  0  0  0  0  0  0
    6.6970  -13.6711   25.5776 C   0  0  0  0  0  0  0  0  0  0  0  0
    6.5099  -12.3022   25.5052 C   0  0  0  0  0  0  0  0  0  0  0  0
    7.2684  -11.4306   26.2550 C   0  0  0  0  0  0  0  0  0  0  0  0
    8.2402  -11.9577   27.0987 C   0  0  0  0  0  0  0  0  0  0  0  0
    8.4158  -13.3240   27.1608 C   0  0  0  0  0  0  0  0  0  0  0  0
    7.6587  -14.2006   26.4120 C   0  0  0  0  0  0  0  0  0  0  0  0
   10.6321  -17.7120   26.7578 C   0  0  0  0  0  0  0  0  0  0  0  0
   11.0479  -17.8275   28.0757 O   0  0  0  0  0  0  0  0  0  0  0  0
   10.9486  -18.6327   25.9489 O   0  0  0  0  0  0  0  0  0  0  0  0
  2  3  1  0
  2  1  1  0
  3  4  1  6
  5  6  2  0
  5  3  1  0
  8  7  1  6
  8  9  1  0
  8 10  1  0
  9  5  1  0
 10 11  2  0
 12 10  1  0
 12 13  1  0
 13 14  1  1
 15 16  2  0
 15 14  1  0
 17 16  1  0
 18 23  2  0
 18 17  1  0
 19 18  1  0
 20 19  2  0
 20 21  1  0
 21 22  2  0
 22 23  1  0
 23 15  1  0
 24 25  1  0
 24 13  1  0
 26 24  2  0
M  END
$$$$
