SAW.pdb
     RDKit          3D

 26 27  0  0  1  0  0  0  0  0999 V2000
    8.2094  -19.0867   22.7393 O   0  0  0  0  0  0  0  0  0  0  0  0
    6.9801  -19.4418   22.1608 C   0  0  0  0  0  0  0  0  0  0  0  0
    6.9498  -18.8885   20.7301 C   0  0  2  0  0  0  0  0  0  0  0  0
    7.5264  -19.8580   19.8843 N   0  0  0  0  0  0  0  0  0  0  0  0
    7.7330  -17.6157   20.6711 C   0  0  0  0  0  0  0  0  0  0  0  0
    8.8902  -17.6236   20.2135 O   0  0  0  0  0  0  0  0  0  0  0  0
    6.7854  -13.9753   21.0625 C   0  0  0  0  0  0  0  0  0  0  0  0
    7.8064  -15.1179   20.9720 C   0  0  2  0  0  0  0  0  0  0  0  0
    7.1538  -16.4001   21.1379 N   0  0  0  0  0  0  0  0  0  0  0  0
    8.7329  -14.9281   22.1128 C   0  0  0  0  0  0  0  0  0  0  0  0
    9.5162  -13.9435   22.1814 O   0  0  0  0  0  0  0  0  0  0  0  0
    8.7650  -15.8503   23.1612 N   0  0  0  0  0  0  0  0  0  0  0  0
    9.6105  -15.7379   24.3317 C   0  0  1  0  0  0  0  0  0  0  0  0
    8.9406  -16.1950   25.5836 C   0  0  0  0  0  0  0  0  0  0  0  0
    7.7035  -15.3974   25.7757 C   0  0  0  0  0  0  0  0  0  0  0  0
    6.3790  -15.8009   25.6576 C   0  0  0  0  0  0  0  0  0  0  0  0
    5.5740  -14.7576   25.9129 N   0  0  0  0  0  0  0  0  0  0  0  0
    6.3175  -13.6858   26.1937 C   0  0  0  0  0  0  0  0  0  0  0  0
    5.9683  -12.3871   26.5187 C   0  0  0  0  0  0  0  0  0  0  0  0
    6.9223  -11.4267   26.7732 C   0  0  0  0  0  0  0  0  0  0  0  0
    8.2625  -11.7899   26.6969 C   0  0  0  0  0  0  0  0  0  0  0  0
    8.5961  -13.0878   26.3720 C   0  0  0  0  0  0  0  0  0  0  0  0
    7.6444  -14.0529   26.1163 C   0  0  0  0  0  0  0  0  0  0  0  0
   10.8498  -16.4886   24.0914 C   0  0  0  0  0  0  0  0  0  0  0  0
   11.8591  -16.4412   25.0413 O   0  0  0  0  0  0  0  0  0  0  0  0
   11.0418  -17.1823   23.0503 O   0  0  0  0  0  0  0  0  0  0  0  0
  2  3  1  0
  2  1  1  0
  3  4  1  6
  5  6  2  0
  5  3  1  0
  8  7  1  1
  8  9  1  0
  8 10  1  0
  9  5  1  0
 10 11  2  0
 12 10  1  0
 12 13  1  0
 13 14  1  1
 15 16  2  0
 15 14  1  0
 17 16  1  0
 18 23  2  0
 18 17  1  0
 19 18  1  0
 20 19  2  0
 20 21  1  0
 21 22  2  0
 22 23  1  0
 23 15  1  0
 24 25  1  0
 24 13  1  0
 26 24  2  0
M  END
$$$$
