SAW.pdb
     RDKit          3D

 26 27  0  0  1  0  0  0  0  0999 V2000
   10.3633  -13.4032   19.2962 O   0  0  0  0  0  0  0  0  0  0  0  0
    9.2152  -12.6565   18.9861 C   0  0  0  0  0  0  0  0  0  0  0  0
    8.0371  -13.6298   18.8493 C   0  0  2  0  0  0  0  0  0  0  0  0
    6.9135  -12.8856   18.4351 N   0  0  0  0  0  0  0  0  0  0  0  0
    7.7716  -14.2799   20.1697 C   0  0  0  0  0  0  0  0  0  0  0  0
    7.3863  -13.5902   21.1311 O   0  0  0  0  0  0  0  0  0  0  0  0
    7.4250  -17.8668   21.3090 C   0  0  0  0  0  0  0  0  0  0  0  0
    7.6696  -16.3730   21.5639 C   0  0  2  0  0  0  0  0  0  0  0  0
    7.9601  -15.6842   20.3235 N   0  0  0  0  0  0  0  0  0  0  0  0
    8.8773  -16.2978   22.4194 C   0  0  0  0  0  0  0  0  0  0  0  0
   10.0371  -16.2177   21.9335 O   0  0  0  0  0  0  0  0  0  0  0  0
    8.7623  -16.3143   23.8112 N   0  0  0  0  0  0  0  0  0  0  0  0
    9.8814  -16.3028   24.7305 C   0  0  1  0  0  0  0  0  0  0  0  0
    9.7571  -15.2612   25.7909 C   0  0  0  0  0  0  0  0  0  0  0  0
    8.3197  -14.9346   25.9660 C   0  0  0  0  0  0  0  0  0  0  0  0
    7.2354  -15.7981   26.0656 C   0  0  0  0  0  0  0  0  0  0  0  0
    6.1103  -15.0807   26.2116 N   0  0  0  0  0  0  0  0  0  0  0  0
    6.4132  -13.7812   26.2117 C   0  0  0  0  0  0  0  0  0  0  0  0
    5.6190  -12.6546   26.3306 C   0  0  0  0  0  0  0  0  0  0  0  0
    6.1576  -11.3872   26.3028 C   0  0  0  0  0  0  0  0  0  0  0  0
    7.5339  -11.2572   26.1509 C   0  0  0  0  0  0  0  0  0  0  0  0
    8.3132  -12.3887   26.0336 C   0  0  0  0  0  0  0  0  0  0  0  0
    7.7784  -13.6598   26.0609 C   0  0  0  0  0  0  0  0  0  0  0  0
   10.0216  -17.6413   25.3187 C   0  0  0  0  0  0  0  0  0  0  0  0
   11.1917  -17.9608   25.9909 O   0  0  0  0  0  0  0  0  0  0  0  0
    9.1179  -18.5241   25.2404 O   0  0  0  0  0  0  0  0  0  0  0  0
  2  3  1  0
  2  1  1  0
  3  4  1  1
  5  6  2  0
  5  3  1  0
  8  7  1  6
  8  9  1  0
  8 10  1  0
  9  5  1  0
 10 11  2  0
 12 10  1  0
 12 13  1  0
 13 14  1  1
 15 16  2  0
 15 14  1  0
 17 16  1  0
 18 23  2  0
 18 17  1  0
 19 18  1  0
 20 19  2  0
 20 21  1  0
 21 22  2  0
 22 23  1  0
 23 15  1  0
 24 25  1  0
 24 13  1  0
 26 24  2  0
M  END
$$$$
