SAW.pdb
     RDKit          3D

 26 27  0  0  1  0  0  0  0  0999 V2000
    8.7396  -18.9165   17.9487 O   0  0  0  0  0  0  0  0  0  0  0  0
    7.6920  -19.0741   18.8704 C   0  0  0  0  0  0  0  0  0  0  0  0
    8.2497  -18.8084   20.2748 C   0  0  2  0  0  0  0  0  0  0  0  0
    7.2295  -19.1015   21.2026 N   0  0  0  0  0  0  0  0  0  0  0  0
    8.6568  -17.3736   20.3863 C   0  0  0  0  0  0  0  0  0  0  0  0
    9.7213  -16.9917   19.8671 O   0  0  0  0  0  0  0  0  0  0  0  0
    6.8781  -14.2046   21.3710 C   0  0  0  0  0  0  0  0  0  0  0  0
    8.1515  -15.0418   21.1878 C   0  0  2  0  0  0  0  0  0  0  0  0
    7.8268  -16.4494   21.0849 N   0  0  0  0  0  0  0  0  0  0  0  0
    8.9481  -14.8478   22.4222 C   0  0  0  0  0  0  0  0  0  0  0  0
    9.4813  -13.7422   22.7071 O   0  0  0  0  0  0  0  0  0  0  0  0
    9.1337  -15.9020   23.3192 N   0  0  0  0  0  0  0  0  0  0  0  0
    9.8900  -15.8121   24.5511 C   0  0  1  0  0  0  0  0  0  0  0  0
    9.1280  -16.2880   25.7418 C   0  0  0  0  0  0  0  0  0  0  0  0
    7.8790  -15.4935   25.8517 C   0  0  0  0  0  0  0  0  0  0  0  0
    6.5656  -15.9021   25.6536 C   0  0  0  0  0  0  0  0  0  0  0  0
    5.7431  -14.8601   25.8521 N   0  0  0  0  0  0  0  0  0  0  0  0
    6.4644  -13.7842   26.1725 C   0  0  0  0  0  0  0  0  0  0  0  0
    6.0917  -12.4850   26.4675 C   0  0  0  0  0  0  0  0  0  0  0  0
    7.0251  -11.5199   26.7755 C   0  0  0  0  0  0  0  0  0  0  0  0
    8.3685  -11.8790   26.7850 C   0  0  0  0  0  0  0  0  0  0  0  0
    8.7256  -13.1776   26.4890 C   0  0  0  0  0  0  0  0  0  0  0  0
    7.7946  -14.1473   26.1801 C   0  0  0  0  0  0  0  0  0  0  0  0
   11.1423  -16.5627   24.3909 C   0  0  0  0  0  0  0  0  0  0  0  0
   11.3469  -17.2878   23.2266 O   0  0  0  0  0  0  0  0  0  0  0  0
   12.0508  -16.5793   25.2721 O   0  0  0  0  0  0  0  0  0  0  0  0
  2  3  1  0
  2  1  1  0
  3  4  1  1
  5  6  2  0
  5  3  1  0
  8  7  1  1
  8  9  1  0
  8 10  1  0
  9  5  1  0
 10 11  2  0
 12 10  1  0
 12 13  1  0
 13 14  1  1
 15 16  2  0
 15 14  1  0
 17 16  1  0
 18 23  2  0
 18 17  1  0
 19 18  1  0
 20 19  2  0
 20 21  1  0
 21 22  2  0
 22 23  1  0
 23 15  1  0
 24 25  1  0
 24 13  1  0
 26 24  2  0
M  END
$$$$
