SAW.pdb
     RDKit          3D

 26 27  0  0  1  0  0  0  0  0999 V2000
    8.3378  -19.6863   22.3485 O   0  0  0  0  0  0  0  0  0  0  0  0
    7.0130  -19.2237   22.2973 C   0  0  0  0  0  0  0  0  0  0  0  0
    6.7960  -18.5511   20.9355 C   0  0  2  0  0  0  0  0  0  0  0  0
    7.1947  -19.4651   19.9388 N   0  0  0  0  0  0  0  0  0  0  0  0
    7.6200  -17.3054   20.8577 C   0  0  0  0  0  0  0  0  0  0  0  0
    8.6701  -17.3005   20.1900 O   0  0  0  0  0  0  0  0  0  0  0  0
    7.0239  -13.6902   21.7389 C   0  0  0  0  0  0  0  0  0  0  0  0
    7.9472  -14.8899   21.4847 C   0  0  2  0  0  0  0  0  0  0  0  0
    7.2018  -16.1301   21.5467 N   0  0  0  0  0  0  0  0  0  0  0  0
    8.9276  -14.8925   22.5959 C   0  0  0  0  0  0  0  0  0  0  0  0
    9.7888  -13.9825   22.7300 O   0  0  0  0  0  0  0  0  0  0  0  0
    8.9250  -15.9205   23.5413 N   0  0  0  0  0  0  0  0  0  0  0  0
    9.8559  -16.0265   24.6458 C   0  0  1  0  0  0  0  0  0  0  0  0
    9.1812  -16.1845   25.9667 C   0  0  0  0  0  0  0  0  0  0  0  0
    7.9054  -15.4264   25.9392 C   0  0  0  0  0  0  0  0  0  0  0  0
    6.6243  -15.8857   25.6582 C   0  0  0  0  0  0  0  0  0  0  0  0
    5.7593  -14.8627   25.7405 N   0  0  0  0  0  0  0  0  0  0  0  0
    6.4217  -13.7505   26.0642 C   0  0  0  0  0  0  0  0  0  0  0  0
    5.9897  -12.4517   26.2656 C   0  0  0  0  0  0  0  0  0  0  0  0
    6.8675  -11.4439   26.5990 C   0  0  0  0  0  0  0  0  0  0  0  0
    8.2156  -11.7589   26.7318 C   0  0  0  0  0  0  0  0  0  0  0  0
    8.6320  -13.0575   26.5282 C   0  0  0  0  0  0  0  0  0  0  0  0
    7.7567  -14.0699   26.1942 C   0  0  0  0  0  0  0  0  0  0  0  0
   10.7725  -17.1439   24.3837 C   0  0  0  0  0  0  0  0  0  0  0  0
   11.8345  -17.3589   25.2491 O   0  0  0  0  0  0  0  0  0  0  0  0
   10.6379  -17.9259   23.3977 O   0  0  0  0  0  0  0  0  0  0  0  0
  2  3  1  0
  2  1  1  0
  3  4  1  6
  5  6  2  0
  5  3  1  0
  8  7  1  1
  8  9  1  0
  8 10  1  0
  9  5  1  0
 10 11  2  0
 12 10  1  0
 12 13  1  0
 13 14  1  1
 15 16  2  0
 15 14  1  0
 17 16  1  0
 18 23  2  0
 18 17  1  0
 19 18  1  0
 20 19  2  0
 20 21  1  0
 21 22  2  0
 22 23  1  0
 23 15  1  0
 24 25  1  0
 24 13  1  0
 26 24  2  0
M  END
$$$$
