SAW.pdb
     RDKit          3D

 26 27  0  0  1  0  0  0  0  0999 V2000
   10.4182  -13.6196   18.4371 O   0  0  0  0  0  0  0  0  0  0  0  0
    9.6594  -14.4593   17.6059 C   0  0  0  0  0  0  0  0  0  0  0  0
    8.1765  -14.2363   17.9302 C   0  0  2  0  0  0  0  0  0  0  0  0
    7.9155  -12.8560   17.8111 N   0  0  0  0  0  0  0  0  0  0  0  0
    7.8959  -14.6997   19.3242 C   0  0  0  0  0  0  0  0  0  0  0  0
    7.9128  -13.8817   20.2619 O   0  0  0  0  0  0  0  0  0  0  0  0
    7.1164  -18.0966   20.8724 C   0  0  0  0  0  0  0  0  0  0  0  0
    7.3730  -16.5837   20.9093 C   0  0  2  0  0  0  0  0  0  0  0  0
    7.6106  -16.0733   19.5749 N   0  0  0  0  0  0  0  0  0  0  0  0
    8.6162  -16.4000   21.6945 C   0  0  0  0  0  0  0  0  0  0  0  0
    9.7479  -16.3203   21.1461 O   0  0  0  0  0  0  0  0  0  0  0  0
    8.5681  -16.3088   23.0873 N   0  0  0  0  0  0  0  0  0  0  0  0
    9.7101  -16.0345   23.9349 C   0  0  1  0  0  0  0  0  0  0  0  0
    9.6350  -14.7044   24.6057 C   0  0  0  0  0  0  0  0  0  0  0  0
    8.2929  -14.5622   25.2238 C   0  0  0  0  0  0  0  0  0  0  0  0
    7.3584  -15.5485   25.5152 C   0  0  0  0  0  0  0  0  0  0  0  0
    6.2742  -14.9817   26.0673 N   0  0  0  0  0  0  0  0  0  0  0  0
    6.4600  -13.6630   26.1498 C   0  0  0  0  0  0  0  0  0  0  0  0
    5.6505  -12.6514   26.6350 C   0  0  0  0  0  0  0  0  0  0  0  0
    6.0551  -11.3348   26.6196 C   0  0  0  0  0  0  0  0  0  0  0  0
    7.3098  -11.0350   26.1002 C   0  0  0  0  0  0  0  0  0  0  0  0
    8.1061  -12.0532   25.6200 C   0  0  0  0  0  0  0  0  0  0  0  0
    7.7052  -13.3730   25.6334 C   0  0  0  0  0  0  0  0  0  0  0  0
    9.8362  -17.1166   24.9201 C   0  0  0  0  0  0  0  0  0  0  0  0
   11.0286  -17.2583   25.6138 O   0  0  0  0  0  0  0  0  0  0  0  0
    8.9006  -17.9324   25.1679 O   0  0  0  0  0  0  0  0  0  0  0  0
  2  3  1  0
  2  1  1  0
  3  4  1  1
  5  6  2  0
  5  3  1  0
  8  7  1  6
  8  9  1  0
  8 10  1  0
  9  5  1  0
 10 11  2  0
 12 10  1  0
 12 13  1  0
 13 14  1  1
 15 16  2  0
 15 14  1  0
 17 16  1  0
 18 23  2  0
 18 17  1  0
 19 18  1  0
 20 19  2  0
 20 21  1  0
 21 22  2  0
 22 23  1  0
 23 15  1  0
 24 25  1  0
 24 13  1  0
 26 24  2  0
M  END
$$$$
