YDD.pdb
     RDKit          3D

 29 29  0  0  1  0  0  0  0  0999 V2000
    5.4081  -10.6332   28.0970 O   0  0  0  0  0  0  0  0  0  0  0  0
    6.1310  -11.6586   27.4573 C   0  0  0  0  0  0  0  0  0  0  0  0
    7.2262  -12.2411   28.0652 C   0  0  0  0  0  0  0  0  0  0  0  0
    7.9022  -13.2430   27.3973 C   0  0  0  0  0  0  0  0  0  0  0  0
    7.5318  -13.6870   26.1506 C   0  0  0  0  0  0  0  0  0  0  0  0
    8.2896  -14.7676   25.4815 C   0  0  0  0  0  0  0  0  0  0  0  0
    7.4319  -15.5548   24.5240 C   0  0  2  0  0  0  0  0  0  0  0  0
    6.4604  -16.3698   25.2190 N   0  0  0  0  0  0  0  0  0  0  0  0
    8.2649  -16.3906   23.5927 C   0  0  0  0  0  0  0  0  0  0  0  0
    8.3189  -17.6319   23.7708 O   0  0  0  0  0  0  0  0  0  0  0  0
    6.4408  -13.1010   25.5543 C   0  0  0  0  0  0  0  0  0  0  0  0
    5.7371  -12.0879   26.2012 C   0  0  0  0  0  0  0  0  0  0  0  0
    8.9884  -15.8123   22.5212 N   0  0  0  0  0  0  0  0  0  0  0  0
    9.9243  -16.4707   21.6558 C   0  0  1  0  0  0  0  0  0  0  0  0
   10.2234  -15.7191   20.3621 C   0  0  0  0  0  0  0  0  0  0  0  0
   11.0571  -16.5146   19.4392 C   0  0  0  0  0  0  0  0  0  0  0  0
   12.2880  -16.4498   19.3638 O   0  0  0  0  0  0  0  0  0  0  0  0
   11.0818  -17.0632   22.2986 C   0  0  0  0  0  0  0  0  0  0  0  0
   11.5171  -18.2028   21.9059 O   0  0  0  0  0  0  0  0  0  0  0  0
   10.4464  -17.4331   18.5552 O   0  0  0  0  0  0  0  0  0  0  0  0
   11.8154  -16.4898   23.3633 N   0  0  0  0  0  0  0  0  0  0  0  0
   12.8674  -17.2651   24.0828 C   0  0  1  0  0  0  0  0  0  0  0  0
   14.0607  -16.3439   24.0573 C   0  0  0  0  0  0  0  0  0  0  0  0
   14.7820  -16.2621   22.7992 C   0  0  0  0  0  0  0  0  0  0  0  0
   14.9949  -17.2650   22.0823 O   0  0  0  0  0  0  0  0  0  0  0  0
   12.4065  -17.5007   25.4582 C   0  0  0  0  0  0  0  0  0  0  0  0
   13.1282  -18.2725   26.3585 O   0  0  0  0  0  0  0  0  0  0  0  0
   15.2904  -15.0496   22.3009 O   0  0  0  0  0  0  0  0  0  0  0  0
   11.3395  -17.0062   25.8584 O   0  0  0  0  0  0  0  0  0  0  0  0
  2  1  1  0
  3  2  2  0
  4  3  1  0
  5 11  1  0
  5  4  2  0
  6  5  1  0
  7  9  1  0
  7  6  1  0
  7  8  1  1
  9 10  2  0
 11 12  2  0
 12  2  1  0
 13 14  1  0
 13  9  1  0
 14 15  1  6
 16 15  1  0
 17 16  2  0
 18 19  2  0
 18 14  1  0
 20 16  1  0
 21 18  1  0
 22 21  1  0
 22 26  1  0
 22 23  1  1
 24 23  1  0
 24 28  1  0
 25 24  2  0
 26 27  1  0
 29 26  2  0
M  END
$$$$
