YDD.pdb
     RDKit          3D

 29 29  0  0  1  0  0  0  0  0999 V2000
    5.6973  -10.6212   27.1304 O   0  0  0  0  0  0  0  0  0  0  0  0
    6.3467  -11.7555   26.6063 C   0  0  0  0  0  0  0  0  0  0  0  0
    6.7091  -12.8079   27.4246 C   0  0  0  0  0  0  0  0  0  0  0  0
    7.3437  -13.8981   26.8631 C   0  0  0  0  0  0  0  0  0  0  0  0
    7.6315  -13.9820   25.5219 C   0  0  0  0  0  0  0  0  0  0  0  0
    8.3099  -15.1765   24.9718 C   0  0  0  0  0  0  0  0  0  0  0  0
    8.2664  -15.2118   23.4654 C   0  0  2  0  0  0  0  0  0  0  0  0
    6.9149  -15.3517   22.9705 N   0  0  0  0  0  0  0  0  0  0  0  0
    9.1550  -16.2899   22.9105 C   0  0  0  0  0  0  0  0  0  0  0  0
    8.8899  -17.4899   23.1658 O   0  0  0  0  0  0  0  0  0  0  0  0
    7.2669  -12.9298   24.7163 C   0  0  0  0  0  0  0  0  0  0  0  0
    6.6251  -11.8153   25.2513 C   0  0  0  0  0  0  0  0  0  0  0  0
   10.2813  -15.9848   22.1081 N   0  0  0  0  0  0  0  0  0  0  0  0
   11.2942  -16.8961   21.6585 C   0  0  1  0  0  0  0  0  0  0  0  0
   12.0982  -16.4032   20.4590 C   0  0  0  0  0  0  0  0  0  0  0  0
   13.0202  -17.4368   19.9476 C   0  0  0  0  0  0  0  0  0  0  0  0
   14.2505  -17.3351   19.9181 O   0  0  0  0  0  0  0  0  0  0  0  0
   12.0775  -17.5426   22.6939 C   0  0  0  0  0  0  0  0  0  0  0  0
   12.4557  -18.7580   22.5438 O   0  0  0  0  0  0  0  0  0  0  0  0
   12.5033  -18.6516   19.4425 O   0  0  0  0  0  0  0  0  0  0  0  0
   12.4874  -16.9463   23.9092 N   0  0  0  0  0  0  0  0  0  0  0  0
   13.2271  -17.7275   24.9427 C   0  0  1  0  0  0  0  0  0  0  0  0
   14.4001  -16.8416   25.2784 C   0  0  0  0  0  0  0  0  0  0  0  0
   15.4036  -16.6840   24.2401 C   0  0  0  0  0  0  0  0  0  0  0  0
   15.3031  -17.2354   23.1217 O   0  0  0  0  0  0  0  0  0  0  0  0
   12.3452  -17.9055   26.1045 C   0  0  0  0  0  0  0  0  0  0  0  0
   12.7142  -18.6692   27.2035 O   0  0  0  0  0  0  0  0  0  0  0  0
   16.5570  -15.9006   24.4214 O   0  0  0  0  0  0  0  0  0  0  0  0
   11.2259  -17.3673   26.1342 O   0  0  0  0  0  0  0  0  0  0  0  0
  2  1  1  0
  3  2  2  0
  4  3  1  0
  5 11  1  0
  5  4  2  0
  6  5  1  0
  7  9  1  0
  7  6  1  0
  7  8  1  1
  9 10  2  0
 11 12  2  0
 12  2  1  0
 13 14  1  0
 13  9  1  0
 14 15  1  6
 16 15  1  0
 17 16  2  0
 18 19  2  0
 18 14  1  0
 20 16  1  0
 21 18  1  0
 22 21  1  0
 22 26  1  0
 22 23  1  1
 24 23  1  0
 24 28  1  0
 25 24  2  0
 26 27  1  0
 29 26  2  0
M  END
$$$$
