YDD.pdb
     RDKit          3D

 29 29  0  0  1  0  0  0  0  0999 V2000
    6.6462  -12.9313   16.6064 O   0  0  0  0  0  0  0  0  0  0  0  0
    7.2719  -13.4898   17.7376 C   0  0  0  0  0  0  0  0  0  0  0  0
    7.9285  -14.7027   17.6596 C   0  0  0  0  0  0  0  0  0  0  0  0
    8.5266  -15.2088   18.7966 C   0  0  0  0  0  0  0  0  0  0  0  0
    8.4968  -14.5566   20.0059 C   0  0  0  0  0  0  0  0  0  0  0  0
    9.1585  -15.1427   21.1927 C   0  0  0  0  0  0  0  0  0  0  0  0
    8.5513  -16.4647   21.5874 C   0  0  2  0  0  0  0  0  0  0  0  0
    7.1694  -16.3225   21.9885 N   0  0  0  0  0  0  0  0  0  0  0  0
    9.3542  -17.1445   22.6612 C   0  0  0  0  0  0  0  0  0  0  0  0
    9.3195  -16.6878   23.8298 O   0  0  0  0  0  0  0  0  0  0  0  0
    7.8410  -13.3506   20.0731 C   0  0  0  0  0  0  0  0  0  0  0  0
    7.2274  -12.8124   18.9444 C   0  0  0  0  0  0  0  0  0  0  0  0
   10.1466  -18.2858   22.3867 N   0  0  0  0  0  0  0  0  0  0  0  0
   11.1725  -18.8458   23.2188 C   0  0  1  0  0  0  0  0  0  0  0  0
   10.9864  -20.3260   23.5390 C   0  0  0  0  0  0  0  0  0  0  0  0
   11.9626  -20.8037   24.5383 C   0  0  0  0  0  0  0  0  0  0  0  0
   13.0643  -21.2941   24.2726 O   0  0  0  0  0  0  0  0  0  0  0  0
   12.5338  -18.4560   22.9049 C   0  0  0  0  0  0  0  0  0  0  0  0
   13.0472  -18.7805   21.7763 O   0  0  0  0  0  0  0  0  0  0  0  0
   11.6587  -20.7145   25.9159 O   0  0  0  0  0  0  0  0  0  0  0  0
   13.3958  -17.7214   23.7522 N   0  0  0  0  0  0  0  0  0  0  0  0
   14.8383  -17.5403   23.4180 C   0  0  1  0  0  0  0  0  0  0  0  0
   14.9229  -16.0930   23.0037 C   0  0  0  0  0  0  0  0  0  0  0  0
   15.5655  -15.8265   21.7287 C   0  0  0  0  0  0  0  0  0  0  0  0
   16.0076  -16.7399   20.9971 O   0  0  0  0  0  0  0  0  0  0  0  0
   15.6278  -17.7934   24.6312 C   0  0  0  0  0  0  0  0  0  0  0  0
   15.6966  -16.8790   25.6735 O   0  0  0  0  0  0  0  0  0  0  0  0
   15.7346  -14.5230   21.2294 O   0  0  0  0  0  0  0  0  0  0  0  0
   16.2660  -18.8516   24.7582 O   0  0  0  0  0  0  0  0  0  0  0  0
  2  1  1  0
  3  2  2  0
  4  3  1  0
  5 11  1  0
  5  4  2  0
  6  5  1  0
  7  9  1  0
  7  6  1  0
  7  8  1  1
  9 10  2  0
 11 12  2  0
 12  2  1  0
 13 14  1  0
 13  9  1  0
 14 15  1  6
 16 15  1  0
 17 16  2  0
 18 19  2  0
 18 14  1  0
 20 16  1  0
 21 18  1  0
 22 21  1  0
 22 26  1  0
 22 23  1  1
 24 23  1  0
 24 28  1  0
 25 24  2  0
 26 27  1  0
 29 26  2  0
M  END
$$$$
