YDD.pdb
     RDKit          3D

 29 29  0  0  1  0  0  0  0  0999 V2000
    5.8529  -10.9309   27.5214 O   0  0  0  0  0  0  0  0  0  0  0  0
    6.2356  -11.8818   26.5558 C   0  0  0  0  0  0  0  0  0  0  0  0
    7.1481  -11.5637   25.5685 C   0  0  0  0  0  0  0  0  0  0  0  0
    7.4913  -12.5307   24.6445 C   0  0  0  0  0  0  0  0  0  0  0  0
    6.9631  -13.7993   24.6642 C   0  0  0  0  0  0  0  0  0  0  0  0
    7.3695  -14.7988   23.6516 C   0  0  0  0  0  0  0  0  0  0  0  0
    8.2941  -15.8434   24.2228 C   0  0  2  0  0  0  0  0  0  0  0  0
    9.3306  -15.2535   25.0406 N   0  0  0  0  0  0  0  0  0  0  0  0
    8.8878  -16.7069   23.1450 C   0  0  0  0  0  0  0  0  0  0  0  0
    8.1332  -17.4596   22.4821 O   0  0  0  0  0  0  0  0  0  0  0  0
    6.0561  -14.1058   25.6505 C   0  0  0  0  0  0  0  0  0  0  0  0
    5.6887  -13.1531   26.5979 C   0  0  0  0  0  0  0  0  0  0  0  0
   10.2749  -16.6911   22.8598 N   0  0  0  0  0  0  0  0  0  0  0  0
   11.0375  -17.7248   22.2208 C   0  0  1  0  0  0  0  0  0  0  0  0
   12.3438  -17.2481   21.5929 C   0  0  0  0  0  0  0  0  0  0  0  0
   12.1288  -16.6265   20.2711 C   0  0  0  0  0  0  0  0  0  0  0  0
   11.2787  -16.9855   19.4505 O   0  0  0  0  0  0  0  0  0  0  0  0
   11.1270  -18.9856   22.9322 C   0  0  0  0  0  0  0  0  0  0  0  0
   11.5020  -20.0432   22.3130 O   0  0  0  0  0  0  0  0  0  0  0  0
   12.9321  -15.5352   19.8688 O   0  0  0  0  0  0  0  0  0  0  0  0
   10.8300  -19.1812   24.3012 N   0  0  0  0  0  0  0  0  0  0  0  0
   11.7927  -19.8682   25.2105 C   0  0  1  0  0  0  0  0  0  0  0  0
   13.0377  -19.0243   25.1048 C   0  0  0  0  0  0  0  0  0  0  0  0
   14.1549  -19.4199   25.9445 C   0  0  0  0  0  0  0  0  0  0  0  0
   15.0533  -20.1929   25.5441 O   0  0  0  0  0  0  0  0  0  0  0  0
   11.2426  -19.8366   26.5728 C   0  0  0  0  0  0  0  0  0  0  0  0
   10.0488  -19.1953   26.8741 O   0  0  0  0  0  0  0  0  0  0  0  0
   14.3029  -18.9609   27.2652 O   0  0  0  0  0  0  0  0  0  0  0  0
   11.8426  -20.3931   27.5075 O   0  0  0  0  0  0  0  0  0  0  0  0
  2  1  1  0
  3  2  2  0
  4  3  1  0
  5 11  1  0
  5  4  2  0
  6  5  1  0
  7  9  1  0
  7  6  1  0
  7  8  1  6
  9 10  2  0
 11 12  2  0
 12  2  1  0
 13 14  1  0
 13  9  1  0
 14 15  1  1
 16 15  1  0
 17 16  2  0
 18 19  2  0
 18 14  1  0
 20 16  1  0
 21 18  1  0
 22 21  1  0
 22 26  1  0
 22 23  1  1
 24 23  1  0
 24 28  1  0
 25 24  2  0
 26 27  1  0
 29 26  2  0
M  END
$$$$
