YDD.pdb
     RDKit          3D

 29 29  0  0  1  0  0  0  0  0999 V2000
    8.8316  -12.0303   18.8266 O   0  0  0  0  0  0  0  0  0  0  0  0
    8.2081  -12.9608   19.6801 C   0  0  0  0  0  0  0  0  0  0  0  0
    8.3479  -12.8714   21.0516 C   0  0  0  0  0  0  0  0  0  0  0  0
    7.7169  -13.8079   21.8462 C   0  0  0  0  0  0  0  0  0  0  0  0
    6.9537  -14.8280   21.3307 C   0  0  0  0  0  0  0  0  0  0  0  0
    6.2955  -15.8025   22.2290 C   0  0  0  0  0  0  0  0  0  0  0  0
    7.2461  -16.3594   23.2579 C   0  0  2  0  0  0  0  0  0  0  0  0
    8.3374  -15.4501   23.5285 N   0  0  0  0  0  0  0  0  0  0  0  0
    7.7628  -17.7136   22.8591 C   0  0  0  0  0  0  0  0  0  0  0  0
    7.0658  -18.4339   22.1036 O   0  0  0  0  0  0  0  0  0  0  0  0
    6.8208  -14.9082   19.9651 C   0  0  0  0  0  0  0  0  0  0  0  0
    7.4444  -13.9793   19.1354 C   0  0  0  0  0  0  0  0  0  0  0  0
    9.0146  -18.1949   23.3141 N   0  0  0  0  0  0  0  0  0  0  0  0
   10.2706  -17.5023   23.2805 C   0  0  1  0  0  0  0  0  0  0  0  0
   10.3928  -16.4721   22.1617 C   0  0  0  0  0  0  0  0  0  0  0  0
   11.6518  -16.6223   21.4053 C   0  0  0  0  0  0  0  0  0  0  0  0
   12.6584  -15.9243   21.5616 O   0  0  0  0  0  0  0  0  0  0  0  0
   10.8004  -17.0769   24.5620 C   0  0  0  0  0  0  0  0  0  0  0  0
   12.0201  -16.6942   24.6538 O   0  0  0  0  0  0  0  0  0  0  0  0
   11.7620  -17.6264   20.4166 O   0  0  0  0  0  0  0  0  0  0  0  0
   10.0799  -17.0381   25.7786 N   0  0  0  0  0  0  0  0  0  0  0  0
   10.6576  -16.4039   26.9991 C   0  0  1  0  0  0  0  0  0  0  0  0
    9.6272  -15.3704   27.3779 C   0  0  0  0  0  0  0  0  0  0  0  0
    9.8874  -14.6200   28.5940 C   0  0  0  0  0  0  0  0  0  0  0  0
   10.8905  -14.8321   29.3107 O   0  0  0  0  0  0  0  0  0  0  0  0
   10.7839  -17.4351   28.0384 C   0  0  0  0  0  0  0  0  0  0  0  0
   11.4461  -17.2015   29.2360 O   0  0  0  0  0  0  0  0  0  0  0  0
    9.0290  -13.6035   29.0489 O   0  0  0  0  0  0  0  0  0  0  0  0
   10.2925  -18.5634   27.8694 O   0  0  0  0  0  0  0  0  0  0  0  0
  2  1  1  0
  3  2  2  0
  4  3  1  0
  5 11  1  0
  5  4  2  0
  6  5  1  0
  7  9  1  0
  7  6  1  0
  7  8  1  6
  9 10  2  0
 11 12  2  0
 12  2  1  0
 13 14  1  0
 13  9  1  0
 14 15  1  6
 16 15  1  0
 17 16  2  0
 18 19  2  0
 18 14  1  0
 20 16  1  0
 21 18  1  0
 22 21  1  0
 22 26  1  0
 22 23  1  1
 24 23  1  0
 24 28  1  0
 25 24  2  0
 26 27  1  0
 29 26  2  0
M  END
$$$$
