YDD.pdb
     RDKit          3D

 29 29  0  0  1  0  0  0  0  0999 V2000
    5.8137  -12.3218   17.9710 O   0  0  0  0  0  0  0  0  0  0  0  0
    6.8740  -12.8741   18.7152 C   0  0  0  0  0  0  0  0  0  0  0  0
    6.9255  -12.7355   20.0887 C   0  0  0  0  0  0  0  0  0  0  0  0
    7.9858  -13.2951   20.7737 C   0  0  0  0  0  0  0  0  0  0  0  0
    8.9951  -13.9857   20.1468 C   0  0  0  0  0  0  0  0  0  0  0  0
   10.1064  -14.5693   20.9305 C   0  0  0  0  0  0  0  0  0  0  0  0
    9.9949  -16.0682   21.0459 C   0  0  2  0  0  0  0  0  0  0  0  0
    8.8278  -16.4631   21.8027 N   0  0  0  0  0  0  0  0  0  0  0  0
   11.2417  -16.6732   21.6284 C   0  0  0  0  0  0  0  0  0  0  0  0
   11.3974  -16.6683   22.8738 O   0  0  0  0  0  0  0  0  0  0  0  0
    8.9347  -14.1180   18.7801 C   0  0  0  0  0  0  0  0  0  0  0  0
    7.8786  -13.5655   18.0594 C   0  0  0  0  0  0  0  0  0  0  0  0
   12.2426  -17.2477   20.8074 N   0  0  0  0  0  0  0  0  0  0  0  0
   13.4843  -17.8254   21.2349 C   0  0  1  0  0  0  0  0  0  0  0  0
   13.9196  -19.0487   20.4336 C   0  0  0  0  0  0  0  0  0  0  0  0
   12.9332  -20.1442   20.5150 C   0  0  0  0  0  0  0  0  0  0  0  0
   12.3882  -20.5295   21.5539 O   0  0  0  0  0  0  0  0  0  0  0  0
   14.5488  -16.8919   21.5497 C   0  0  0  0  0  0  0  0  0  0  0  0
   14.2639  -15.7263   22.0000 O   0  0  0  0  0  0  0  0  0  0  0  0
   12.5519  -20.8349   19.3421 O   0  0  0  0  0  0  0  0  0  0  0  0
   15.9332  -17.1430   21.4052 N   0  0  0  0  0  0  0  0  0  0  0  0
   16.9456  -16.0909   21.7110 C   0  0  1  0  0  0  0  0  0  0  0  0
   16.3928  -14.8644   21.0302 C   0  0  0  0  0  0  0  0  0  0  0  0
   16.7803  -14.6697   19.6439 C   0  0  0  0  0  0  0  0  0  0  0  0
   17.9448  -14.8795   19.2379 O   0  0  0  0  0  0  0  0  0  0  0  0
   16.9985  -15.9120   23.1686 C   0  0  0  0  0  0  0  0  0  0  0  0
   17.9546  -15.1139   23.7820 O   0  0  0  0  0  0  0  0  0  0  0  0
   15.8727  -14.2319   18.6634 O   0  0  0  0  0  0  0  0  0  0  0  0
   16.1740  -16.4807   23.9034 O   0  0  0  0  0  0  0  0  0  0  0  0
  2  1  1  0
  3  2  2  0
  4  3  1  0
  5 11  1  0
  5  4  2  0
  6  5  1  0
  7  9  1  0
  7  6  1  0
  7  8  1  1
  9 10  2  0
 11 12  2  0
 12  2  1  0
 13 14  1  0
 13  9  1  0
 14 15  1  6
 16 15  1  0
 17 16  2  0
 18 19  2  0
 18 14  1  0
 20 16  1  0
 21 18  1  0
 22 21  1  0
 22 26  1  0
 22 23  1  6
 24 23  1  0
 24 28  1  0
 25 24  2  0
 26 27  1  0
 29 26  2  0
M  END
$$$$
