YDD.pdb
     RDKit          3D

 29 29  0  0  1  0  0  0  0  0999 V2000
    5.2800  -10.4393   27.4441 O   0  0  0  0  0  0  0  0  0  0  0  0
    6.0705  -11.5036   26.9694 C   0  0  0  0  0  0  0  0  0  0  0  0
    5.6570  -12.2729   25.8990 C   0  0  0  0  0  0  0  0  0  0  0  0
    6.4675  -13.3055   25.4706 C   0  0  0  0  0  0  0  0  0  0  0  0
    7.6708  -13.6022   26.0644 C   0  0  0  0  0  0  0  0  0  0  0  0
    8.5024  -14.7182   25.5617 C   0  0  0  0  0  0  0  0  0  0  0  0
    7.7561  -15.5867   24.5814 C   0  0  2  0  0  0  0  0  0  0  0  0
    6.6790  -16.3116   25.2181 N   0  0  0  0  0  0  0  0  0  0  0  0
    8.6803  -16.5257   23.8578 C   0  0  0  0  0  0  0  0  0  0  0  0
    8.4462  -17.7584   23.8917 O   0  0  0  0  0  0  0  0  0  0  0  0
    8.0731  -12.8310   27.1286 C   0  0  0  0  0  0  0  0  0  0  0  0
    7.2790  -11.7819   27.5854 C   0  0  0  0  0  0  0  0  0  0  0  0
    9.8063  -16.0540   23.1398 N   0  0  0  0  0  0  0  0  0  0  0  0
   10.7470  -16.8399   22.3943 C   0  0  1  0  0  0  0  0  0  0  0  0
   11.0971  -16.2707   21.0226 C   0  0  0  0  0  0  0  0  0  0  0  0
   12.0066  -17.1576   20.2704 C   0  0  0  0  0  0  0  0  0  0  0  0
   11.7059  -18.2725   19.8329 O   0  0  0  0  0  0  0  0  0  0  0  0
   11.8728  -17.3678   23.1412 C   0  0  0  0  0  0  0  0  0  0  0  0
   12.6251  -18.2624   22.6155 O   0  0  0  0  0  0  0  0  0  0  0  0
   13.3322  -16.7437   20.0062 O   0  0  0  0  0  0  0  0  0  0  0  0
   12.2459  -16.9821   24.4499 N   0  0  0  0  0  0  0  0  0  0  0  0
   13.0779  -17.8724   25.3104 C   0  0  1  0  0  0  0  0  0  0  0  0
   12.2663  -19.1405   25.3904 C   0  0  0  0  0  0  0  0  0  0  0  0
   12.0279  -19.6674   26.7228 C   0  0  0  0  0  0  0  0  0  0  0  0
   12.9599  -19.9646   27.5026 O   0  0  0  0  0  0  0  0  0  0  0  0
   14.3601  -18.1033   24.6306 C   0  0  0  0  0  0  0  0  0  0  0  0
   15.4387  -18.7010   25.2684 O   0  0  0  0  0  0  0  0  0  0  0  0
   10.7328  -19.8795   27.2274 O   0  0  0  0  0  0  0  0  0  0  0  0
   14.5152  -17.7634   23.4458 O   0  0  0  0  0  0  0  0  0  0  0  0
  2  1  1  0
  3  2  2  0
  4  3  1  0
  5 11  1  0
  5  4  2  0
  6  5  1  0
  7  9  1  0
  7  6  1  0
  7  8  1  1
  9 10  2  0
 11 12  2  0
 12  2  1  0
 13 14  1  0
 13  9  1  0
 14 15  1  6
 16 15  1  0
 17 16  2  0
 18 19  2  0
 18 14  1  0
 20 16  1  0
 21 18  1  0
 22 21  1  0
 22 26  1  0
 22 23  1  6
 24 23  1  0
 24 28  1  0
 25 24  2  0
 26 27  1  0
 29 26  2  0
M  END
$$$$
