YDD.pdb
     RDKit          3D

 29 29  0  0  1  0  0  0  0  0999 V2000
    7.6802  -12.1126   27.9504 O   0  0  0  0  0  0  0  0  0  0  0  0
    7.4876  -12.8017   26.7375 C   0  0  0  0  0  0  0  0  0  0  0  0
    6.2335  -13.2442   26.3635 C   0  0  0  0  0  0  0  0  0  0  0  0
    6.0959  -13.9152   25.1645 C   0  0  0  0  0  0  0  0  0  0  0  0
    7.1553  -14.1627   24.3248 C   0  0  0  0  0  0  0  0  0  0  0  0
    6.9506  -14.8831   23.0485 C   0  0  0  0  0  0  0  0  0  0  0  0
    6.9818  -16.3793   23.2288 C   0  0  2  0  0  0  0  0  0  0  0  0
    6.0997  -16.8107   24.2904 N   0  0  0  0  0  0  0  0  0  0  0  0
    8.3805  -16.8809   23.4567 C   0  0  0  0  0  0  0  0  0  0  0  0
    8.5841  -17.7312   24.3571 O   0  0  0  0  0  0  0  0  0  0  0  0
    8.3988  -13.7184   24.7059 C   0  0  0  0  0  0  0  0  0  0  0  0
    8.5716  -13.0383   25.9091 C   0  0  0  0  0  0  0  0  0  0  0  0
    9.4715  -16.4183   22.6811 N   0  0  0  0  0  0  0  0  0  0  0  0
   10.8377  -16.8470   22.7696 C   0  0  1  0  0  0  0  0  0  0  0  0
   11.7981  -16.0837   21.8624 C   0  0  0  0  0  0  0  0  0  0  0  0
   11.5313  -16.3393   20.4330 C   0  0  0  0  0  0  0  0  0  0  0  0
   11.6581  -15.5068   19.5299 O   0  0  0  0  0  0  0  0  0  0  0  0
   11.3396  -17.1112   24.1046 C   0  0  0  0  0  0  0  0  0  0  0  0
   11.1542  -16.2530   25.0382 O   0  0  0  0  0  0  0  0  0  0  0  0
   11.0955  -17.6181   20.0173 O   0  0  0  0  0  0  0  0  0  0  0  0
   12.0454  -18.2700   24.5042 N   0  0  0  0  0  0  0  0  0  0  0  0
   12.3887  -18.5105   25.9359 C   0  0  1  0  0  0  0  0  0  0  0  0
   11.1137  -19.0722   26.5123 C   0  0  0  0  0  0  0  0  0  0  0  0
   10.7217  -18.5676   27.8167 C   0  0  0  0  0  0  0  0  0  0  0  0
   11.4534  -17.8072   28.4887 O   0  0  0  0  0  0  0  0  0  0  0  0
   13.4766  -19.4970   25.9895 C   0  0  0  0  0  0  0  0  0  0  0  0
   14.2337  -19.7022   27.1348 O   0  0  0  0  0  0  0  0  0  0  0  0
    9.4926  -18.8994   28.4134 O   0  0  0  0  0  0  0  0  0  0  0  0
   13.7522  -20.1856   24.9929 O   0  0  0  0  0  0  0  0  0  0  0  0
  2  1  1  0
  3  2  2  0
  4  3  1  0
  5 11  1  0
  5  4  2  0
  6  5  1  0
  7  9  1  0
  7  6  1  0
  7  8  1  1
  9 10  2  0
 11 12  2  0
 12  2  1  0
 13 14  1  0
 13  9  1  0
 14 15  1  1
 16 15  1  0
 17 16  2  0
 18 19  2  0
 18 14  1  0
 20 16  1  0
 21 18  1  0
 22 21  1  0
 22 26  1  0
 22 23  1  1
 24 23  1  0
 24 28  1  0
 25 24  2  0
 26 27  1  0
 29 26  2  0
M  END
$$$$
