YDD.pdb
     RDKit          3D

 29 29  0  0  1  0  0  0  0  0999 V2000
    8.7262  -12.7488   17.4574 O   0  0  0  0  0  0  0  0  0  0  0  0
    8.1496  -13.3266   18.6049 C   0  0  0  0  0  0  0  0  0  0  0  0
    7.5077  -14.5481   18.5388 C   0  0  0  0  0  0  0  0  0  0  0  0
    6.9583  -15.0732   19.6917 C   0  0  0  0  0  0  0  0  0  0  0  0
    7.0223  -14.4316   20.9054 C   0  0  0  0  0  0  0  0  0  0  0  0
    6.4198  -15.0421   22.1112 C   0  0  0  0  0  0  0  0  0  0  0  0
    7.4269  -15.2299   23.2170 C   0  0  2  0  0  0  0  0  0  0  0  0
    8.1732  -14.0185   23.4751 N   0  0  0  0  0  0  0  0  0  0  0  0
    8.3527  -16.3800   22.9337 C   0  0  0  0  0  0  0  0  0  0  0  0
    7.8713  -17.5313   22.7989 O   0  0  0  0  0  0  0  0  0  0  0  0
    7.6630  -13.2169   20.9605 C   0  0  0  0  0  0  0  0  0  0  0  0
    8.2279  -12.6597   19.8158 C   0  0  0  0  0  0  0  0  0  0  0  0
    9.7519  -16.1959   22.8150 N   0  0  0  0  0  0  0  0  0  0  0  0
   10.7410  -17.2108   22.5912 C   0  0  1  0  0  0  0  0  0  0  0  0
   11.6175  -16.9772   21.3644 C   0  0  0  0  0  0  0  0  0  0  0  0
   12.4394  -18.1594   21.0374 C   0  0  0  0  0  0  0  0  0  0  0  0
   12.0900  -19.3319   21.2045 O   0  0  0  0  0  0  0  0  0  0  0  0
   11.4488  -17.6835   23.7656 C   0  0  0  0  0  0  0  0  0  0  0  0
   12.2275  -16.8910   24.4043 O   0  0  0  0  0  0  0  0  0  0  0  0
   13.7312  -17.9873   20.4899 O   0  0  0  0  0  0  0  0  0  0  0  0
   11.3672  -18.9881   24.3061 N   0  0  0  0  0  0  0  0  0  0  0  0
   12.0847  -19.3502   25.5629 C   0  0  1  0  0  0  0  0  0  0  0  0
   11.0978  -20.2291   26.2889 C   0  0  0  0  0  0  0  0  0  0  0  0
   11.1647  -20.2075   27.7397 C   0  0  0  0  0  0  0  0  0  0  0  0
   12.0224  -19.5420   28.3612 O   0  0  0  0  0  0  0  0  0  0  0  0
   13.2976  -20.0973   25.2022 C   0  0  0  0  0  0  0  0  0  0  0  0
   13.5223  -20.5666   23.9152 O   0  0  0  0  0  0  0  0  0  0  0  0
   10.2694  -20.9335   28.5449 O   0  0  0  0  0  0  0  0  0  0  0  0
   14.1694  -20.3329   26.0553 O   0  0  0  0  0  0  0  0  0  0  0  0
  2  1  1  0
  3  2  2  0
  4  3  1  0
  5 11  1  0
  5  4  2  0
  6  5  1  0
  7  9  1  0
  7  6  1  0
  7  8  1  6
  9 10  2  0
 11 12  2  0
 12  2  1  0
 13 14  1  0
 13  9  1  0
 14 15  1  6
 16 15  1  0
 17 16  2  0
 18 19  2  0
 18 14  1  0
 20 16  1  0
 21 18  1  0
 22 21  1  0
 22 26  1  0
 22 23  1  1
 24 23  1  0
 24 28  1  0
 25 24  2  0
 26 27  1  0
 29 26  2  0
M  END
$$$$
