YDD.pdb
     RDKit          3D

 29 29  0  0  1  0  0  0  0  0999 V2000
    5.3529  -10.6432   27.4756 O   0  0  0  0  0  0  0  0  0  0  0  0
    6.1706  -11.6375   26.9050 C   0  0  0  0  0  0  0  0  0  0  0  0
    7.3283  -12.0525   27.5343 C   0  0  0  0  0  0  0  0  0  0  0  0
    8.0965  -13.0307   26.9346 C   0  0  0  0  0  0  0  0  0  0  0  0
    7.7587  -13.6110   25.7355 C   0  0  0  0  0  0  0  0  0  0  0  0
    8.6165  -14.6589   25.1391 C   0  0  0  0  0  0  0  0  0  0  0  0
    7.8099  -15.7973   24.5684 C   0  0  2  0  0  0  0  0  0  0  0  0
    6.8172  -16.2746   25.5053 N   0  0  0  0  0  0  0  0  0  0  0  0
    8.6917  -16.9219   24.1021 C   0  0  0  0  0  0  0  0  0  0  0  0
    9.3851  -17.5424   24.9444 O   0  0  0  0  0  0  0  0  0  0  0  0
    6.6050  -13.1911   25.1174 C   0  0  0  0  0  0  0  0  0  0  0  0
    5.8077  -12.2064   25.6958 C   0  0  0  0  0  0  0  0  0  0  0  0
    8.7583  -17.2976   22.7382 N   0  0  0  0  0  0  0  0  0  0  0  0
    9.8847  -17.1650   21.8595 C   0  0  1  0  0  0  0  0  0  0  0  0
    9.7609  -16.0348   20.8419 C   0  0  0  0  0  0  0  0  0  0  0  0
   10.0476  -16.4925   19.4678 C   0  0  0  0  0  0  0  0  0  0  0  0
   11.1698  -16.7721   19.0351 O   0  0  0  0  0  0  0  0  0  0  0  0
   11.1927  -17.2927   22.4732 C   0  0  0  0  0  0  0  0  0  0  0  0
   12.2343  -17.4173   21.7370 O   0  0  0  0  0  0  0  0  0  0  0  0
    8.9905  -16.6368   18.5405 O   0  0  0  0  0  0  0  0  0  0  0  0
   11.4529  -17.2947   23.8635 N   0  0  0  0  0  0  0  0  0  0  0  0
   12.8284  -17.5271   24.3921 C   0  0  1  0  0  0  0  0  0  0  0  0
   13.5388  -16.2290   24.1027 C   0  0  0  0  0  0  0  0  0  0  0  0
   14.3801  -16.2074   22.9188 C   0  0  0  0  0  0  0  0  0  0  0  0
   14.9791  -17.2242   22.5038 O   0  0  0  0  0  0  0  0  0  0  0  0
   12.7315  -17.7696   25.8382 C   0  0  0  0  0  0  0  0  0  0  0  0
   11.5190  -17.7412   26.5137 O   0  0  0  0  0  0  0  0  0  0  0  0
   14.5787  -15.0417   22.1582 O   0  0  0  0  0  0  0  0  0  0  0  0
   13.7507  -18.0108   26.5062 O   0  0  0  0  0  0  0  0  0  0  0  0
  2  1  1  0
  3  2  2  0
  4  3  1  0
  5 11  1  0
  5  4  2  0
  6  5  1  0
  7  9  1  0
  7  6  1  0
  7  8  1  1
  9 10  2  0
 11 12  2  0
 12  2  1  0
 13 14  1  0
 13  9  1  0
 14 15  1  1
 16 15  1  0
 17 16  2  0
 18 19  2  0
 18 14  1  0
 20 16  1  0
 21 18  1  0
 22 21  1  0
 22 26  1  0
 22 23  1  1
 24 23  1  0
 24 28  1  0
 25 24  2  0
 26 27  1  0
 29 26  2  0
M  END
$$$$
