YDD.pdb
     RDKit          3D

 29 29  0  0  1  0  0  0  0  0999 V2000
    8.2501  -10.8290   19.3337 O   0  0  0  0  0  0  0  0  0  0  0  0
    8.2141  -12.2360   19.3793 C   0  0  0  0  0  0  0  0  0  0  0  0
    9.0078  -12.9942   18.5406 C   0  0  0  0  0  0  0  0  0  0  0  0
    8.9367  -14.3707   18.6234 C   0  0  0  0  0  0  0  0  0  0  0  0
    8.1083  -15.0210   19.5063 C   0  0  0  0  0  0  0  0  0  0  0  0
    8.0748  -16.4996   19.5562 C   0  0  0  0  0  0  0  0  0  0  0  0
    8.9829  -17.0531   20.6245 C   0  0  2  0  0  0  0  0  0  0  0  0
    8.6046  -16.5930   21.9421 N   0  0  0  0  0  0  0  0  0  0  0  0
   10.4259  -16.7410   20.3413 C   0  0  0  0  0  0  0  0  0  0  0  0
   10.9841  -17.2801   19.3547 O   0  0  0  0  0  0  0  0  0  0  0  0
    7.3226  -14.2576   20.3364 C   0  0  0  0  0  0  0  0  0  0  0  0
    7.3707  -12.8668   20.2781 C   0  0  0  0  0  0  0  0  0  0  0  0
   11.1690  -15.8549   21.1588 N   0  0  0  0  0  0  0  0  0  0  0  0
   12.5942  -15.6919   21.1836 C   0  0  1  0  0  0  0  0  0  0  0  0
   13.0897  -14.3824   20.5773 C   0  0  0  0  0  0  0  0  0  0  0  0
   13.3183  -14.4967   19.1231 C   0  0  0  0  0  0  0  0  0  0  0  0
   13.2585  -13.5590   18.3219 O   0  0  0  0  0  0  0  0  0  0  0  0
   13.2616  -16.0879   22.4090 C   0  0  0  0  0  0  0  0  0  0  0  0
   12.5694  -16.4485   23.4256 O   0  0  0  0  0  0  0  0  0  0  0  0
   13.6320  -15.7537   18.5578 O   0  0  0  0  0  0  0  0  0  0  0  0
   14.6612  -16.1194   22.6108 N   0  0  0  0  0  0  0  0  0  0  0  0
   15.2450  -16.5635   23.9097 C   0  0  1  0  0  0  0  0  0  0  0  0
   14.8467  -18.0152   23.9948 C   0  0  0  0  0  0  0  0  0  0  0  0
   15.3595  -18.7562   25.1340 C   0  0  0  0  0  0  0  0  0  0  0  0
   15.8744  -19.8905   25.0188 O   0  0  0  0  0  0  0  0  0  0  0  0
   16.7051  -16.4161   23.8331 C   0  0  0  0  0  0  0  0  0  0  0  0
   17.3415  -15.9330   22.6979 O   0  0  0  0  0  0  0  0  0  0  0  0
   15.3122  -18.2489   26.4444 O   0  0  0  0  0  0  0  0  0  0  0  0
   17.4211  -16.7256   24.7999 O   0  0  0  0  0  0  0  0  0  0  0  0
  2  1  1  0
  3  2  2  0
  4  3  1  0
  5 11  1  0
  5  4  2  0
  6  5  1  0
  7  9  1  0
  7  6  1  0
  7  8  1  1
  9 10  2  0
 11 12  2  0
 12  2  1  0
 13 14  1  0
 13  9  1  0
 14 15  1  1
 16 15  1  0
 17 16  2  0
 18 19  2  0
 18 14  1  0
 20 16  1  0
 21 18  1  0
 22 21  1  0
 22 26  1  0
 22 23  1  6
 24 23  1  0
 24 28  1  0
 25 24  2  0
 26 27  1  0
 29 26  2  0
M  END
$$$$
