YDD.pdb
     RDKit          3D

 29 29  0  0  1  0  0  0  0  0999 V2000
    5.2268  -10.1467   26.6630 O   0  0  0  0  0  0  0  0  0  0  0  0
    5.9922  -11.2718   26.3003 C   0  0  0  0  0  0  0  0  0  0  0  0
    7.1864  -11.1293   25.6206 C   0  0  0  0  0  0  0  0  0  0  0  0
    7.9005  -12.2631   25.2873 C   0  0  0  0  0  0  0  0  0  0  0  0
    7.4738  -13.5307   25.6031 C   0  0  0  0  0  0  0  0  0  0  0  0
    8.2812  -14.7118   25.2253 C   0  0  0  0  0  0  0  0  0  0  0  0
    7.7298  -15.4122   24.0096 C   0  0  2  0  0  0  0  0  0  0  0  0
    6.4462  -16.0218   24.2772 N   0  0  0  0  0  0  0  0  0  0  0  0
    8.7002  -16.4228   23.4648 C   0  0  0  0  0  0  0  0  0  0  0  0
    8.5539  -17.6325   23.7657 O   0  0  0  0  0  0  0  0  0  0  0  0
    6.2844  -13.6618   26.2794 C   0  0  0  0  0  0  0  0  0  0  0  0
    5.5399  -12.5381   26.6305 C   0  0  0  0  0  0  0  0  0  0  0  0
    9.7730  -16.0435   22.6214 N   0  0  0  0  0  0  0  0  0  0  0  0
   10.9916  -16.7662   22.3956 C   0  0  1  0  0  0  0  0  0  0  0  0
   11.8597  -16.2036   21.2740 C   0  0  0  0  0  0  0  0  0  0  0  0
   13.0144  -17.0744   20.9772 C   0  0  0  0  0  0  0  0  0  0  0  0
   12.9370  -18.2441   20.5892 O   0  0  0  0  0  0  0  0  0  0  0  0
   11.7185  -17.1797   23.5807 C   0  0  0  0  0  0  0  0  0  0  0  0
   12.1900  -16.2970   24.3814 O   0  0  0  0  0  0  0  0  0  0  0  0
   14.3282  -16.5769   21.1342 O   0  0  0  0  0  0  0  0  0  0  0  0
   11.9747  -18.5168   23.9645 N   0  0  0  0  0  0  0  0  0  0  0  0
   12.6724  -18.8333   25.2445 C   0  0  1  0  0  0  0  0  0  0  0  0
   11.7386  -19.8043   25.9216 C   0  0  0  0  0  0  0  0  0  0  0  0
   12.1384  -20.2671   27.2392 C   0  0  0  0  0  0  0  0  0  0  0  0
   13.2219  -19.9318   27.7669 O   0  0  0  0  0  0  0  0  0  0  0  0
   13.9584  -19.4678   24.9235 C   0  0  0  0  0  0  0  0  0  0  0  0
   14.0602  -20.5206   24.0244 O   0  0  0  0  0  0  0  0  0  0  0  0
   11.3345  -21.1239   28.0115 O   0  0  0  0  0  0  0  0  0  0  0  0
   15.0073  -19.0714   25.4583 O   0  0  0  0  0  0  0  0  0  0  0  0
  2  1  1  0
  3  2  2  0
  4  3  1  0
  5 11  1  0
  5  4  2  0
  6  5  1  0
  7  9  1  0
  7  6  1  0
  7  8  1  1
  9 10  2  0
 11 12  2  0
 12  2  1  0
 13 14  1  0
 13  9  1  0
 14 15  1  6
 16 15  1  0
 17 16  2  0
 18 19  2  0
 18 14  1  0
 20 16  1  0
 21 18  1  0
 22 21  1  0
 22 26  1  0
 22 23  1  1
 24 23  1  0
 24 28  1  0
 25 24  2  0
 26 27  1  0
 29 26  2  0
M  END
$$$$
