YDD.pdb
     RDKit          3D

 29 29  0  0  1  0  0  0  0  0999 V2000
    5.3111  -10.8789   27.5010 O   0  0  0  0  0  0  0  0  0  0  0  0
    6.0807  -11.8865   26.8881 C   0  0  0  0  0  0  0  0  0  0  0  0
    6.1176  -13.1664   27.4067 C   0  0  0  0  0  0  0  0  0  0  0  0
    6.8871  -14.1195   26.7695 C   0  0  0  0  0  0  0  0  0  0  0  0
    7.6201  -13.8495   25.6388 C   0  0  0  0  0  0  0  0  0  0  0  0
    8.4248  -14.9104   24.9932 C   0  0  0  0  0  0  0  0  0  0  0  0
    7.5949  -15.7787   24.0824 C   0  0  2  0  0  0  0  0  0  0  0  0
    6.6354  -16.5689   24.8213 N   0  0  0  0  0  0  0  0  0  0  0  0
    8.4562  -16.6540   23.2153 C   0  0  0  0  0  0  0  0  0  0  0  0
    8.6202  -17.8566   23.5351 O   0  0  0  0  0  0  0  0  0  0  0  0
    7.5767  -12.5731   25.1307 C   0  0  0  0  0  0  0  0  0  0  0  0
    6.8102  -11.5885   25.7496 C   0  0  0  0  0  0  0  0  0  0  0  0
    9.0853  -16.1555   22.0485 N   0  0  0  0  0  0  0  0  0  0  0  0
    9.9194  -16.8855   21.1376 C   0  0  1  0  0  0  0  0  0  0  0  0
    9.8137  -16.4323   19.6845 C   0  0  0  0  0  0  0  0  0  0  0  0
    8.8586  -17.2547   18.9156 C   0  0  0  0  0  0  0  0  0  0  0  0
    8.8586  -18.4890   18.8775 O   0  0  0  0  0  0  0  0  0  0  0  0
   11.2675  -17.1683   21.5919 C   0  0  0  0  0  0  0  0  0  0  0  0
   12.1956  -17.3935   20.7372 O   0  0  0  0  0  0  0  0  0  0  0  0
    7.8497  -16.6279   18.1492 O   0  0  0  0  0  0  0  0  0  0  0  0
   11.6863  -17.2247   22.9417 N   0  0  0  0  0  0  0  0  0  0  0  0
   13.1278  -17.3670   23.2984 C   0  0  1  0  0  0  0  0  0  0  0  0
   13.7423  -16.0870   22.7912 C   0  0  0  0  0  0  0  0  0  0  0  0
   15.1650  -16.1282   22.5016 C   0  0  0  0  0  0  0  0  0  0  0  0
   15.8530  -17.1598   22.6674 O   0  0  0  0  0  0  0  0  0  0  0  0
   13.2332  -17.4648   24.7608 C   0  0  0  0  0  0  0  0  0  0  0  0
   12.1311  -17.3243   25.5932 O   0  0  0  0  0  0  0  0  0  0  0  0
   15.8663  -15.0110   22.0148 O   0  0  0  0  0  0  0  0  0  0  0  0
   14.3314  -17.6796   25.3004 O   0  0  0  0  0  0  0  0  0  0  0  0
  2  1  1  0
  3  2  2  0
  4  3  1  0
  5 11  1  0
  5  4  2  0
  6  5  1  0
  7  9  1  0
  7  6  1  0
  7  8  1  1
  9 10  2  0
 11 12  2  0
 12  2  1  0
 13 14  1  0
 13  9  1  0
 14 15  1  6
 16 15  1  0
 17 16  2  0
 18 19  2  0
 18 14  1  0
 20 16  1  0
 21 18  1  0
 22 21  1  0
 22 26  1  0
 22 23  1  1
 24 23  1  0
 24 28  1  0
 25 24  2  0
 26 27  1  0
 29 26  2  0
M  END
$$$$
