YDD.pdb
     RDKit          3D

 29 29  0  0  1  0  0  0  0  0999 V2000
    7.6687  -11.7883   27.4615 O   0  0  0  0  0  0  0  0  0  0  0  0
    7.2537  -12.5546   26.3553 C   0  0  0  0  0  0  0  0  0  0  0  0
    7.8571  -12.4054   25.1215 C   0  0  0  0  0  0  0  0  0  0  0  0
    7.4146  -13.1799   24.0675 C   0  0  0  0  0  0  0  0  0  0  0  0
    6.3972  -14.0953   24.1927 C   0  0  0  0  0  0  0  0  0  0  0  0
    5.9651  -14.9030   23.0305 C   0  0  0  0  0  0  0  0  0  0  0  0
    6.8053  -16.1422   22.8555 C   0  0  2  0  0  0  0  0  0  0  0  0
    6.9537  -16.8699   24.0963 N   0  0  0  0  0  0  0  0  0  0  0  0
    8.1470  -15.8221   22.2579 C   0  0  0  0  0  0  0  0  0  0  0  0
    8.1985  -15.3193   21.1090 O   0  0  0  0  0  0  0  0  0  0  0  0
    5.8034  -14.2362   25.4243 C   0  0  0  0  0  0  0  0  0  0  0  0
    6.2263  -13.4702   26.5080 C   0  0  0  0  0  0  0  0  0  0  0  0
    9.3518  -16.0731   22.9588 N   0  0  0  0  0  0  0  0  0  0  0  0
   10.5178  -16.7440   22.4601 C   0  0  1  0  0  0  0  0  0  0  0  0
   11.2007  -16.0377   21.2927 C   0  0  0  0  0  0  0  0  0  0  0  0
   12.3388  -16.8154   20.7638 C   0  0  0  0  0  0  0  0  0  0  0  0
   13.5082  -16.7062   21.1451 O   0  0  0  0  0  0  0  0  0  0  0  0
   11.4205  -17.2843   23.4586 C   0  0  0  0  0  0  0  0  0  0  0  0
   11.9838  -16.5003   24.3016 O   0  0  0  0  0  0  0  0  0  0  0  0
   12.1241  -17.7689   19.7426 O   0  0  0  0  0  0  0  0  0  0  0  0
   11.7614  -18.6489   23.6077 N   0  0  0  0  0  0  0  0  0  0  0  0
   11.9630  -19.2523   24.9570 C   0  0  1  0  0  0  0  0  0  0  0  0
   12.4458  -18.0926   25.7909 C   0  0  0  0  0  0  0  0  0  0  0  0
   13.0242  -18.4259   27.0808 C   0  0  0  0  0  0  0  0  0  0  0  0
   12.3229  -18.7254   28.0725 O   0  0  0  0  0  0  0  0  0  0  0  0
   10.6665  -19.7498   25.4377 C   0  0  0  0  0  0  0  0  0  0  0  0
   10.5591  -20.8685   26.2526 O   0  0  0  0  0  0  0  0  0  0  0  0
   14.4125  -18.4347   27.3031 O   0  0  0  0  0  0  0  0  0  0  0  0
    9.6133  -19.1717   25.1215 O   0  0  0  0  0  0  0  0  0  0  0  0
  2  1  1  0
  3  2  2  0
  4  3  1  0
  5 11  1  0
  5  4  2  0
  6  5  1  0
  7  9  1  0
  7  6  1  0
  7  8  1  1
  9 10  2  0
 11 12  2  0
 12  2  1  0
 13 14  1  0
 13  9  1  0
 14 15  1  1
 16 15  1  0
 17 16  2  0
 18 19  2  0
 18 14  1  0
 20 16  1  0
 21 18  1  0
 22 21  1  0
 22 26  1  0
 22 23  1  1
 24 23  1  0
 24 28  1  0
 25 24  2  0
 26 27  1  0
 29 26  2  0
M  END
$$$$
