YDD.pdb
     RDKit          3D

 29 29  0  0  1  0  0  0  0  0999 V2000
    6.1781  -10.7125   27.2979 O   0  0  0  0  0  0  0  0  0  0  0  0
    6.5445  -11.7691   26.4421 C   0  0  0  0  0  0  0  0  0  0  0  0
    6.6914  -11.5645   25.0838 C   0  0  0  0  0  0  0  0  0  0  0  0
    7.0522  -12.6324   24.2862 C   0  0  0  0  0  0  0  0  0  0  0  0
    7.2720  -13.8935   24.7862 C   0  0  0  0  0  0  0  0  0  0  0  0
    7.6613  -15.0018   23.8863 C   0  0  0  0  0  0  0  0  0  0  0  0
    8.8898  -15.7259   24.3748 C   0  0  2  0  0  0  0  0  0  0  0  0
    9.9900  -14.8177   24.6110 N   0  0  0  0  0  0  0  0  0  0  0  0
    9.2952  -16.8261   23.4340 C   0  0  0  0  0  0  0  0  0  0  0  0
    8.4702  -17.7330   23.1649 O   0  0  0  0  0  0  0  0  0  0  0  0
    7.1232  -14.0867   26.1388 C   0  0  0  0  0  0  0  0  0  0  0  0
    6.7603  -13.0304   26.9711 C   0  0  0  0  0  0  0  0  0  0  0  0
   10.5826  -16.8636   22.8450 N   0  0  0  0  0  0  0  0  0  0  0  0
   11.2329  -18.0015   22.2614 C   0  0  1  0  0  0  0  0  0  0  0  0
   11.8044  -17.7553   20.8683 C   0  0  0  0  0  0  0  0  0  0  0  0
   10.9975  -16.7851   20.1018 C   0  0  0  0  0  0  0  0  0  0  0  0
    9.7641  -16.7810   20.0430 O   0  0  0  0  0  0  0  0  0  0  0  0
   12.0881  -18.7715   23.1443 C   0  0  0  0  0  0  0  0  0  0  0  0
   12.4720  -19.9445   22.7990 O   0  0  0  0  0  0  0  0  0  0  0  0
   11.6397  -15.7654   19.3630 O   0  0  0  0  0  0  0  0  0  0  0  0
   12.5658  -18.3452   24.4056 N   0  0  0  0  0  0  0  0  0  0  0  0
   13.4912  -19.1955   25.2093 C   0  0  1  0  0  0  0  0  0  0  0  0
   14.6333  -18.2647   25.5293 C   0  0  0  0  0  0  0  0  0  0  0  0
   15.4030  -17.7796   24.3970 C   0  0  0  0  0  0  0  0  0  0  0  0
   15.3372  -18.3095   23.2656 O   0  0  0  0  0  0  0  0  0  0  0  0
   12.7886  -19.6148   26.4299 C   0  0  0  0  0  0  0  0  0  0  0  0
   13.3668  -20.4671   27.3608 O   0  0  0  0  0  0  0  0  0  0  0  0
   16.2750  -16.6811   24.4953 O   0  0  0  0  0  0  0  0  0  0  0  0
   11.6378  -19.2102   26.6650 O   0  0  0  0  0  0  0  0  0  0  0  0
  2  1  1  0
  3  2  2  0
  4  3  1  0
  5 11  1  0
  5  4  2  0
  6  5  1  0
  7  9  1  0
  7  6  1  0
  7  8  1  6
  9 10  2  0
 11 12  2  0
 12  2  1  0
 13 14  1  0
 13  9  1  0
 14 15  1  6
 16 15  1  0
 17 16  2  0
 18 19  2  0
 18 14  1  0
 20 16  1  0
 21 18  1  0
 22 21  1  0
 22 26  1  0
 22 23  1  1
 24 23  1  0
 24 28  1  0
 25 24  2  0
 26 27  1  0
 29 26  2  0
M  END
$$$$
