YDD.pdb
     RDKit          3D

 29 29  0  0  1  0  0  0  0  0999 V2000
    5.2242  -10.4607   27.5220 O   0  0  0  0  0  0  0  0  0  0  0  0
    6.0055  -11.4023   26.8249 C   0  0  0  0  0  0  0  0  0  0  0  0
    7.1227  -11.9688   27.4075 C   0  0  0  0  0  0  0  0  0  0  0  0
    7.8562  -12.8874   26.6832 C   0  0  0  0  0  0  0  0  0  0  0  0
    7.5224  -13.2637   25.4042 C   0  0  0  0  0  0  0  0  0  0  0  0
    8.3418  -14.2566   24.6745 C   0  0  0  0  0  0  0  0  0  0  0  0
    7.5611  -15.5017   24.3390 C   0  0  2  0  0  0  0  0  0  0  0  0
    7.0450  -16.1477   25.5253 N   0  0  0  0  0  0  0  0  0  0  0  0
    8.3753  -16.4614   23.5170 C   0  0  0  0  0  0  0  0  0  0  0  0
    8.8942  -17.4570   24.0782 O   0  0  0  0  0  0  0  0  0  0  0  0
    6.4092  -12.6943   24.8335 C   0  0  0  0  0  0  0  0  0  0  0  0
    5.6475  -11.7645   25.5373 C   0  0  0  0  0  0  0  0  0  0  0  0
    8.5701  -16.2699   22.1273 N   0  0  0  0  0  0  0  0  0  0  0  0
    9.4510  -17.0081   21.2685 C   0  0  1  0  0  0  0  0  0  0  0  0
    9.1422  -16.8710   19.7806 C   0  0  0  0  0  0  0  0  0  0  0  0
    7.7795  -17.3348   19.4524 C   0  0  0  0  0  0  0  0  0  0  0  0
    7.0343  -16.8080   18.6206 O   0  0  0  0  0  0  0  0  0  0  0  0
   10.8609  -16.9606   21.6059 C   0  0  0  0  0  0  0  0  0  0  0  0
   11.4610  -15.8309   21.6853 O   0  0  0  0  0  0  0  0  0  0  0  0
    7.2429  -18.4628   20.1140 O   0  0  0  0  0  0  0  0  0  0  0  0
   11.6826  -18.0815   21.8687 N   0  0  0  0  0  0  0  0  0  0  0  0
   13.1170  -17.9172   22.2439 C   0  0  1  0  0  0  0  0  0  0  0  0
   13.4359  -19.1955   22.9771 C   0  0  0  0  0  0  0  0  0  0  0  0
   13.0193  -19.2597   24.3671 C   0  0  0  0  0  0  0  0  0  0  0  0
   12.4062  -20.2431   24.8382 O   0  0  0  0  0  0  0  0  0  0  0  0
   13.9058  -17.8009   21.0095 C   0  0  0  0  0  0  0  0  0  0  0  0
   15.2597  -17.4942   21.0226 O   0  0  0  0  0  0  0  0  0  0  0  0
   13.2769  -18.2205   25.2784 O   0  0  0  0  0  0  0  0  0  0  0  0
   13.3719  -17.9773   19.9017 O   0  0  0  0  0  0  0  0  0  0  0  0
  2  1  1  0
  3  2  2  0
  4  3  1  0
  5 11  1  0
  5  4  2  0
  6  5  1  0
  7  9  1  0
  7  6  1  0
  7  8  1  1
  9 10  2  0
 11 12  2  0
 12  2  1  0
 13 14  1  0
 13  9  1  0
 14 15  1  6
 16 15  1  0
 17 16  2  0
 18 19  2  0
 18 14  1  0
 20 16  1  0
 21 18  1  0
 22 21  1  0
 22 26  1  0
 22 23  1  6
 24 23  1  0
 24 28  1  0
 25 24  2  0
 26 27  1  0
 29 26  2  0
M  END
$$$$
