YDD.pdb
     RDKit          3D

 29 29  0  0  1  0  0  0  0  0999 V2000
    6.0490  -11.7682   18.5847 O   0  0  0  0  0  0  0  0  0  0  0  0
    7.1756  -12.4745   19.0484 C   0  0  0  0  0  0  0  0  0  0  0  0
    8.3680  -12.4460   18.3515 C   0  0  0  0  0  0  0  0  0  0  0  0
    9.4443  -13.1551   18.8470 C   0  0  0  0  0  0  0  0  0  0  0  0
    9.3806  -13.8901   20.0065 C   0  0  0  0  0  0  0  0  0  0  0  0
   10.5665  -14.6282   20.4950 C   0  0  0  0  0  0  0  0  0  0  0  0
   10.7548  -15.9404   19.7772 C   0  0  2  0  0  0  0  0  0  0  0  0
    9.6392  -16.8349   19.9922 N   0  0  0  0  0  0  0  0  0  0  0  0
   12.0514  -16.5990   20.1579 C   0  0  0  0  0  0  0  0  0  0  0  0
   12.0520  -17.4633   21.0681 O   0  0  0  0  0  0  0  0  0  0  0  0
    8.1897  -13.9120   20.6925 C   0  0  0  0  0  0  0  0  0  0  0  0
    7.0851  -13.2075   20.2196 C   0  0  0  0  0  0  0  0  0  0  0  0
   13.2695  -16.2687   19.5154 N   0  0  0  0  0  0  0  0  0  0  0  0
   14.5654  -16.8233   19.7826 C   0  0  1  0  0  0  0  0  0  0  0  0
   15.4864  -16.8876   18.5679 C   0  0  0  0  0  0  0  0  0  0  0  0
   14.9685  -17.7983   17.5275 C   0  0  0  0  0  0  0  0  0  0  0  0
   14.3483  -18.8432   17.7471 O   0  0  0  0  0  0  0  0  0  0  0  0
   15.2048  -16.3911   21.0107 C   0  0  0  0  0  0  0  0  0  0  0  0
   15.1830  -15.1528   21.3407 O   0  0  0  0  0  0  0  0  0  0  0  0
   15.1735  -17.4943   16.1623 O   0  0  0  0  0  0  0  0  0  0  0  0
   15.8820  -17.2305   21.9258 N   0  0  0  0  0  0  0  0  0  0  0  0
   16.4407  -16.6930   23.2002 C   0  0  1  0  0  0  0  0  0  0  0  0
   16.6382  -17.9267   24.0441 C   0  0  0  0  0  0  0  0  0  0  0  0
   15.4351  -18.5325   24.5875 C   0  0  0  0  0  0  0  0  0  0  0  0
   15.2653  -19.7715   24.6215 O   0  0  0  0  0  0  0  0  0  0  0  0
   17.7236  -16.0412   22.9022 C   0  0  0  0  0  0  0  0  0  0  0  0
   18.4413  -15.3451   23.8653 O   0  0  0  0  0  0  0  0  0  0  0  0
   14.3788  -17.7675   25.1126 O   0  0  0  0  0  0  0  0  0  0  0  0
   18.2082  -16.0971   21.7597 O   0  0  0  0  0  0  0  0  0  0  0  0
  2  1  1  0
  3  2  2  0
  4  3  1  0
  5 11  1  0
  5  4  2  0
  6  5  1  0
  7  9  1  0
  7  6  1  0
  7  8  1  1
  9 10  2  0
 11 12  2  0
 12  2  1  0
 13 14  1  0
 13  9  1  0
 14 15  1  6
 16 15  1  0
 17 16  2  0
 18 19  2  0
 18 14  1  0
 20 16  1  0
 21 18  1  0
 22 21  1  0
 22 26  1  0
 22 23  1  1
 24 23  1  0
 24 28  1  0
 25 24  2  0
 26 27  1  0
 29 26  2  0
M  END
$$$$
