HCK.pdb
     RDKit          3D

 26 26  0  0  1  0  0  0  0  0999 V2000
   23.4921  -13.8879  -17.2907 N   0  0  0  0  0  0  0  0  0  0  0  0
   23.2036  -12.5865  -17.8331 C   0  0  1  0  0  0  0  0  0  0  0  0
   21.7610  -12.4605  -18.2184 C   0  0  0  0  0  0  0  0  0  0  0  0
   21.3230  -13.4465  -19.2328 C   0  0  0  0  0  0  0  0  0  0  0  0
   20.2427  -14.2718  -19.0522 C   0  0  0  0  0  0  0  0  0  0  0  0
   20.0930  -15.0531  -20.1368 N   0  0  0  0  0  0  0  0  0  0  0  0
   21.0788  -14.7178  -20.9959 C   0  0  0  0  0  0  0  0  0  0  0  0
   21.8174  -13.7496  -20.4460 N   0  0  0  0  0  0  0  0  0  0  0  0
   23.5758  -11.5073  -16.8691 C   0  0  0  0  0  0  0  0  0  0  0  0
   23.1741  -11.6278  -15.6813 O   0  0  0  0  0  0  0  0  0  0  0  0
   24.3469  -10.3907  -17.2521 N   0  0  0  0  0  0  0  0  0  0  0  0
   24.7304   -9.4102  -16.2898 C   0  0  1  0  0  0  0  0  0  0  0  0
   26.2312   -9.3013  -16.2576 C   0  0  0  0  0  0  0  0  0  0  0  0
   27.0168  -10.8314  -15.6972 S   0  0  0  0  0  0  0  0  0  0  0  0
   24.0453   -8.1068  -16.4869 C   0  0  0  0  0  0  0  0  0  0  0  0
   23.8519   -7.6843  -17.6808 O   0  0  0  0  0  0  0  0  0  0  0  0
   23.5733   -7.2601  -15.4604 N   0  0  0  0  0  0  0  0  0  0  0  0
   22.7604   -6.1118  -15.6731 C   0  0  1  0  0  0  0  0  0  0  0  0
   21.4427   -6.2953  -16.3175 C   0  0  0  0  0  0  0  0  0  0  0  0
   20.7163   -5.0427  -16.7104 C   0  0  0  0  0  0  0  0  0  0  0  0
   19.4020   -5.4249  -17.3565 C   0  0  0  0  0  0  0  0  0  0  0  0
   18.6559   -4.2725  -17.9469 C   0  0  0  0  0  0  0  0  0  0  0  0
   17.3941   -4.6533  -18.5470 N   0  0  0  0  0  0  0  0  0  0  0  0
   22.4759   -5.4183  -14.3453 C   0  0  0  0  0  0  0  0  0  0  0  0
   22.6341   -6.0368  -13.2740 O   0  0  0  0  0  0  0  0  0  0  0  0
   22.0432   -4.1068  -14.3337 O   0  0  0  0  0  0  0  0  0  0  0  0
  2  1  1  1
  2  9  1  0
  3  2  1  0
  3  4  1  0
  4  5  2  0
  4  8  1  0
  5  6  1  0
  6  7  1  0
  8  7  2  0
  9 10  2  0
 11  9  1  0
 11 12  1  0
 12 15  1  0
 12 13  1  6
 14 13  1  0
 15 16  2  0
 17 15  1  0
 17 18  1  0
 18 24  1  0
 18 19  1  1
 20 19  1  0
 21 22  1  0
 21 20  1  0
 22 23  1  0
 24 25  2  0
 24 26  1  0
M  END
$$$$
