HCK.pdb
     RDKit          3D

 26 26  0  0  1  0  0  0  0  0999 V2000
   18.3880  -10.7296  -16.1392 N   0  0  0  0  0  0  0  0  0  0  0  0
   18.2179   -9.3353  -15.8260 C   0  0  1  0  0  0  0  0  0  0  0  0
   16.8584   -8.8459  -16.2234 C   0  0  0  0  0  0  0  0  0  0  0  0
   16.6652   -8.7358  -17.6875 C   0  0  0  0  0  0  0  0  0  0  0  0
   15.5799   -9.2649  -18.3380 C   0  0  0  0  0  0  0  0  0  0  0  0
   15.6813   -9.0087  -19.6545 N   0  0  0  0  0  0  0  0  0  0  0  0
   16.8292   -8.3200  -19.8287 C   0  0  0  0  0  0  0  0  0  0  0  0
   17.4185   -8.1588  -18.6404 N   0  0  0  0  0  0  0  0  0  0  0  0
   18.4541   -9.0775  -14.3733 C   0  0  0  0  0  0  0  0  0  0  0  0
   17.9738   -9.9039  -13.5528 O   0  0  0  0  0  0  0  0  0  0  0  0
   19.1845   -7.9611  -13.9173 N   0  0  0  0  0  0  0  0  0  0  0  0
   19.3731   -7.7394  -12.5209 C   0  0  1  0  0  0  0  0  0  0  0  0
   20.6698   -7.0073  -12.3014 C   0  0  0  0  0  0  0  0  0  0  0  0
   20.8782   -6.4845  -10.5822 S   0  0  0  0  0  0  0  0  0  0  0  0
   18.2059   -7.0847  -11.8760 C   0  0  0  0  0  0  0  0  0  0  0  0
   17.6689   -6.0732  -12.4503 O   0  0  0  0  0  0  0  0  0  0  0  0
   17.6117   -7.4753  -10.6562 N   0  0  0  0  0  0  0  0  0  0  0  0
   16.5513   -6.7752  -10.0159 C   0  0  1  0  0  0  0  0  0  0  0  0
   15.4618   -7.5628   -9.4011 C   0  0  0  0  0  0  0  0  0  0  0  0
   14.3670   -6.7778   -8.7406 C   0  0  0  0  0  0  0  0  0  0  0  0
   13.3746   -7.7448   -8.1314 C   0  0  0  0  0  0  0  0  0  0  0  0
   12.2322   -7.0838   -7.4306 C   0  0  0  0  0  0  0  0  0  0  0  0
   11.2431   -8.0197   -6.9377 N   0  0  0  0  0  0  0  0  0  0  0  0
   17.1034   -5.8954   -8.8996 C   0  0  0  0  0  0  0  0  0  0  0  0
   18.1298   -6.2439   -8.2829 O   0  0  0  0  0  0  0  0  0  0  0  0
   16.4640   -4.7152   -8.5747 O   0  0  0  0  0  0  0  0  0  0  0  0
  2  1  1  1
  2  9  1  0
  3  2  1  0
  3  4  1  0
  4  5  2  0
  4  8  1  0
  5  6  1  0
  6  7  1  0
  8  7  2  0
  9 10  2  0
 11  9  1  0
 11 12  1  0
 12 15  1  0
 12 13  1  6
 14 13  1  0
 15 16  2  0
 17 15  1  0
 17 18  1  0
 18 24  1  0
 18 19  1  1
 20 19  1  0
 21 22  1  0
 21 20  1  0
 22 23  1  0
 24 25  2  0
 24 26  1  0
M  END
$$$$
