HCK.pdb
     RDKit          3D

 26 26  0  0  1  0  0  0  0  0999 V2000
   33.2779  -29.8721  -22.2403 N   0  0  0  0  0  0  0  0  0  0  0  0
   32.6400  -29.4697  -21.0146 C   0  0  1  0  0  0  0  0  0  0  0  0
   31.6783  -28.3431  -21.2412 C   0  0  0  0  0  0  0  0  0  0  0  0
   32.3268  -27.0713  -21.6351 C   0  0  0  0  0  0  0  0  0  0  0  0
   32.8215  -26.1735  -20.7241 C   0  0  0  0  0  0  0  0  0  0  0  0
   33.3465  -25.1208  -21.3763 N   0  0  0  0  0  0  0  0  0  0  0  0
   33.1805  -25.3588  -22.6947 C   0  0  0  0  0  0  0  0  0  0  0  0
   32.5650  -26.5352  -22.8451 N   0  0  0  0  0  0  0  0  0  0  0  0
   31.9413  -30.6216  -20.3684 C   0  0  0  0  0  0  0  0  0  0  0  0
   31.3717  -31.4520  -21.1251 O   0  0  0  0  0  0  0  0  0  0  0  0
   31.9103  -30.7925  -18.9692 N   0  0  0  0  0  0  0  0  0  0  0  0
   31.2817  -31.9356  -18.3924 C   0  0  1  0  0  0  0  0  0  0  0  0
   32.3350  -32.8728  -17.8653 C   0  0  0  0  0  0  0  0  0  0  0  0
   31.6327  -34.1794  -16.8300 S   0  0  0  0  0  0  0  0  0  0  0  0
   30.2465  -31.5816  -17.3874 C   0  0  0  0  0  0  0  0  0  0  0  0
   30.4887  -30.6369  -16.5567 O   0  0  0  0  0  0  0  0  0  0  0  0
   28.9853  -32.2010  -17.2499 N   0  0  0  0  0  0  0  0  0  0  0  0
   27.9904  -31.8040  -16.3133 C   0  0  1  0  0  0  0  0  0  0  0  0
   26.6031  -32.2687  -16.5249 C   0  0  0  0  0  0  0  0  0  0  0  0
   25.5665  -31.7064  -15.5973 C   0  0  0  0  0  0  0  0  0  0  0  0
   24.5680  -32.7949  -15.2667 C   0  0  0  0  0  0  0  0  0  0  0  0
   23.4130  -32.3308  -14.4397 C   0  0  0  0  0  0  0  0  0  0  0  0
   22.4491  -33.3757  -14.1634 N   0  0  0  0  0  0  0  0  0  0  0  0
   28.3721  -32.2728  -14.9134 C   0  0  0  0  0  0  0  0  0  0  0  0
   28.8322  -33.4197  -14.7453 O   0  0  0  0  0  0  0  0  0  0  0  0
   28.2064  -31.4251  -13.8358 O   0  0  0  0  0  0  0  0  0  0  0  0
  2  1  1  6
  2  9  1  0
  3  2  1  0
  3  4  1  0
  4  5  2  0
  4  8  1  0
  5  6  1  0
  6  7  1  0
  8  7  2  0
  9 10  2  0
 11  9  1  0
 11 12  1  0
 12 15  1  0
 12 13  1  1
 14 13  1  0
 15 16  2  0
 17 15  1  0
 17 18  1  0
 18 24  1  0
 18 19  1  6
 20 19  1  0
 21 22  1  0
 21 20  1  0
 22 23  1  0
 24 25  2  0
 24 26  1  0
M  END
$$$$
