HCK.pdb
     RDKit          3D

 26 26  0  0  1  0  0  0  0  0999 V2000
   17.5560  -13.6358    5.0134 N   0  0  0  0  0  0  0  0  0  0  0  0
   17.2451  -14.8868    5.6532 C   0  0  1  0  0  0  0  0  0  0  0  0
   16.4797  -15.7949    4.7394 C   0  0  0  0  0  0  0  0  0  0  0  0
   15.1032  -15.3320    4.4493 C   0  0  0  0  0  0  0  0  0  0  0  0
   14.5522  -14.2201    5.0332 C   0  0  0  0  0  0  0  0  0  0  0  0
   13.2976  -14.0535    4.5778 N   0  0  0  0  0  0  0  0  0  0  0  0
   13.0627  -15.0603    3.7097 C   0  0  0  0  0  0  0  0  0  0  0  0
   14.1538  -15.8281    3.6364 N   0  0  0  0  0  0  0  0  0  0  0  0
   18.4849  -15.5670    6.1357 C   0  0  0  0  0  0  0  0  0  0  0  0
   19.5629  -15.2943    5.5438 O   0  0  0  0  0  0  0  0  0  0  0  0
   18.4717  -16.4796    7.2104 N   0  0  0  0  0  0  0  0  0  0  0  0
   19.6885  -17.0387    7.7016 C   0  0  1  0  0  0  0  0  0  0  0  0
   20.6387  -15.9287    8.0632 C   0  0  0  0  0  0  0  0  0  0  0  0
   20.1735  -15.1044    9.6049 S   0  0  0  0  0  0  0  0  0  0  0  0
   19.4746  -18.0171    8.7989 C   0  0  0  0  0  0  0  0  0  0  0  0
   18.5909  -17.7624    9.6908 O   0  0  0  0  0  0  0  0  0  0  0  0
   20.1690  -19.2352    8.9641 N   0  0  0  0  0  0  0  0  0  0  0  0
   19.9492  -20.1496   10.0319 C   0  0  1  0  0  0  0  0  0  0  0  0
   19.2916  -21.4381    9.7274 C   0  0  0  0  0  0  0  0  0  0  0  0
   17.8597  -21.3638    9.2858 C   0  0  0  0  0  0  0  0  0  0  0  0
   17.7155  -22.1087    7.9760 C   0  0  0  0  0  0  0  0  0  0  0  0
   16.3324  -22.0835    7.4104 C   0  0  0  0  0  0  0  0  0  0  0  0
   16.2103  -22.8072    6.1619 N   0  0  0  0  0  0  0  0  0  0  0  0
   21.2747  -20.5105   10.6936 C   0  0  0  0  0  0  0  0  0  0  0  0
   21.2840  -21.2033   11.7306 O   0  0  0  0  0  0  0  0  0  0  0  0
   22.4610  -20.0681   10.1422 O   0  0  0  0  0  0  0  0  0  0  0  0
  2  1  1  6
  2  9  1  0
  3  2  1  0
  3  4  1  0
  4  5  2  0
  4  8  1  0
  5  6  1  0
  6  7  1  0
  8  7  2  0
  9 10  2  0
 11  9  1  0
 11 12  1  0
 12 15  1  0
 12 13  1  1
 14 13  1  0
 15 16  2  0
 17 15  1  0
 17 18  1  0
 18 24  1  0
 18 19  1  6
 20 19  1  0
 21 22  1  0
 21 20  1  0
 22 23  1  0
 24 25  2  0
 24 26  1  0
M  END
$$$$
