HCK.pdb
     RDKit          3D

 26 26  0  0  1  0  0  0  0  0999 V2000
   22.4251  -12.3201  -17.7332 N   0  0  0  0  0  0  0  0  0  0  0  0
   23.0118  -11.0317  -17.4749 C   0  0  1  0  0  0  0  0  0  0  0  0
   23.6759  -10.4763  -18.6981 C   0  0  0  0  0  0  0  0  0  0  0  0
   24.7693  -11.3252  -19.2243 C   0  0  0  0  0  0  0  0  0  0  0  0
   25.8046  -11.7748  -18.4452 C   0  0  0  0  0  0  0  0  0  0  0  0
   26.6377  -12.5168  -19.1966 N   0  0  0  0  0  0  0  0  0  0  0  0
   26.1249  -12.5317  -20.4453 C   0  0  0  0  0  0  0  0  0  0  0  0
   24.9994  -11.8117  -20.4566 N   0  0  0  0  0  0  0  0  0  0  0  0
   21.9912  -10.0692  -16.9606 C   0  0  0  0  0  0  0  0  0  0  0  0
   20.8809  -10.0301  -17.5544 O   0  0  0  0  0  0  0  0  0  0  0  0
   22.2393   -9.2302  -15.8549 N   0  0  0  0  0  0  0  0  0  0  0  0
   21.2491   -8.3046  -15.4107 C   0  0  1  0  0  0  0  0  0  0  0  0
   21.2487   -8.2564  -13.9063 C   0  0  0  0  0  0  0  0  0  0  0  0
   20.7711   -9.8385  -13.1707 S   0  0  0  0  0  0  0  0  0  0  0  0
   21.3789   -6.9684  -16.0468 C   0  0  0  0  0  0  0  0  0  0  0  0
   22.5507   -6.4976  -16.2628 O   0  0  0  0  0  0  0  0  0  0  0  0
   20.3091   -6.1390  -16.4479 N   0  0  0  0  0  0  0  0  0  0  0  0
   20.4638   -4.8708  -17.0745 C   0  0  1  0  0  0  0  0  0  0  0  0
   19.3708   -4.3782  -17.9393 C   0  0  0  0  0  0  0  0  0  0  0  0
   19.6091   -3.0660  -18.6267 C   0  0  0  0  0  0  0  0  0  0  0  0
   18.4025   -2.7375  -19.4794 C   0  0  0  0  0  0  0  0  0  0  0  0
   18.1577   -3.7092  -20.5881 C   0  0  0  0  0  0  0  0  0  0  0  0
   17.0011   -3.3793  -21.3948 N   0  0  0  0  0  0  0  0  0  0  0  0
   20.6745   -3.7885  -16.0213 C   0  0  0  0  0  0  0  0  0  0  0  0
   20.9695   -2.6285  -16.3717 O   0  0  0  0  0  0  0  0  0  0  0  0
   20.5384   -4.0969  -14.6820 O   0  0  0  0  0  0  0  0  0  0  0  0
  2  1  1  6
  2  9  1  0
  3  2  1  0
  3  4  1  0
  4  5  2  0
  4  8  1  0
  5  6  1  0
  6  7  1  0
  8  7  2  0
  9 10  2  0
 11  9  1  0
 11 12  1  0
 12 15  1  0
 12 13  1  1
 14 13  1  0
 15 16  2  0
 17 15  1  0
 17 18  1  0
 18 24  1  0
 18 19  1  1
 20 19  1  0
 21 22  1  0
 21 20  1  0
 22 23  1  0
 24 25  2  0
 24 26  1  0
M  END
$$$$
