HCK.pdb
     RDKit          3D

 26 26  0  0  1  0  0  0  0  0999 V2000
   23.9923  -14.7428  -18.4675 N   0  0  0  0  0  0  0  0  0  0  0  0
   23.6867  -13.3838  -18.8292 C   0  0  1  0  0  0  0  0  0  0  0  0
   22.3291  -13.2746  -19.4542 C   0  0  0  0  0  0  0  0  0  0  0  0
   22.1830  -14.0473  -20.7090 C   0  0  0  0  0  0  0  0  0  0  0  0
   22.3787  -13.4975  -21.9501 C   0  0  0  0  0  0  0  0  0  0  0  0
   22.1742  -14.4369  -22.8907 N   0  0  0  0  0  0  0  0  0  0  0  0
   21.8504  -15.5743  -22.2395 C   0  0  0  0  0  0  0  0  0  0  0  0
   21.8565  -15.3338  -20.9252 N   0  0  0  0  0  0  0  0  0  0  0  0
   23.7835  -12.4773  -17.6454 C   0  0  0  0  0  0  0  0  0  0  0  0
   23.4546  -12.9503  -16.5252 O   0  0  0  0  0  0  0  0  0  0  0  0
   24.2248  -11.1426  -17.7550 N   0  0  0  0  0  0  0  0  0  0  0  0
   24.2548  -10.2928  -16.6098 C   0  0  1  0  0  0  0  0  0  0  0  0
   25.6616   -9.8078  -16.3837 C   0  0  0  0  0  0  0  0  0  0  0  0
   25.7469   -8.5228  -15.1133 S   0  0  0  0  0  0  0  0  0  0  0  0
   23.2533   -9.1976  -16.6753 C   0  0  0  0  0  0  0  0  0  0  0  0
   23.1761   -8.4933  -17.7428 O   0  0  0  0  0  0  0  0  0  0  0  0
   22.3518   -8.8424  -15.6484 N   0  0  0  0  0  0  0  0  0  0  0  0
   21.4621   -7.7334  -15.7052 C   0  0  1  0  0  0  0  0  0  0  0  0
   20.0103   -7.9936  -15.6065 C   0  0  0  0  0  0  0  0  0  0  0  0
   19.1089   -6.8136  -15.8211 C   0  0  0  0  0  0  0  0  0  0  0  0
   17.6709   -7.2800  -15.7454 C   0  0  0  0  0  0  0  0  0  0  0  0
   16.6670   -6.2006  -15.9912 C   0  0  0  0  0  0  0  0  0  0  0  0
   15.3002   -6.6293  -15.7776 N   0  0  0  0  0  0  0  0  0  0  0  0
   21.7805   -6.7486  -14.5854 C   0  0  0  0  0  0  0  0  0  0  0  0
   22.5058   -7.1014  -13.6343 O   0  0  0  0  0  0  0  0  0  0  0  0
   21.2638   -5.4686  -14.6283 O   0  0  0  0  0  0  0  0  0  0  0  0
  2  1  1  1
  2  9  1  0
  3  2  1  0
  3  4  1  0
  4  5  2  0
  4  8  1  0
  5  6  1  0
  6  7  1  0
  8  7  2  0
  9 10  2  0
 11  9  1  0
 11 12  1  0
 12 15  1  0
 12 13  1  6
 14 13  1  0
 15 16  2  0
 17 15  1  0
 17 18  1  0
 18 24  1  0
 18 19  1  1
 20 19  1  0
 21 22  1  0
 21 20  1  0
 22 23  1  0
 24 25  2  0
 24 26  1  0
M  END
$$$$
