HCK.pdb
     RDKit          3D

 26 26  0  0  1  0  0  0  0  0999 V2000
   29.0175  -22.0426  -16.9334 N   0  0  0  0  0  0  0  0  0  0  0  0
   28.7206  -23.2552  -17.6492 C   0  0  1  0  0  0  0  0  0  0  0  0
   29.9539  -23.8470  -18.2608 C   0  0  0  0  0  0  0  0  0  0  0  0
   30.6489  -22.9415  -19.2042 C   0  0  0  0  0  0  0  0  0  0  0  0
   30.1733  -22.6667  -20.4609 C   0  0  0  0  0  0  0  0  0  0  0  0
   31.0142  -21.8188  -21.0798 N   0  0  0  0  0  0  0  0  0  0  0  0
   32.0160  -21.5629  -20.2118 C   0  0  0  0  0  0  0  0  0  0  0  0
   31.7912  -22.2423  -19.0834 N   0  0  0  0  0  0  0  0  0  0  0  0
   28.0553  -24.2553  -16.7605 C   0  0  0  0  0  0  0  0  0  0  0  0
   28.1657  -24.0890  -15.5168 O   0  0  0  0  0  0  0  0  0  0  0  0
   27.3262  -25.3481  -17.2726 N   0  0  0  0  0  0  0  0  0  0  0  0
   26.2195  -25.8838  -16.5496 C   0  0  1  0  0  0  0  0  0  0  0  0
   25.2439  -24.7806  -16.2389 C   0  0  0  0  0  0  0  0  0  0  0  0
   23.7992  -25.3802  -15.3301 S   0  0  0  0  0  0  0  0  0  0  0  0
   25.5982  -27.0523  -17.2245 C   0  0  0  0  0  0  0  0  0  0  0  0
   25.1885  -26.9234  -18.4315 O   0  0  0  0  0  0  0  0  0  0  0  0
   25.4060  -28.3286  -16.6522 N   0  0  0  0  0  0  0  0  0  0  0  0
   25.1242  -29.5100  -17.3937 C   0  0  1  0  0  0  0  0  0  0  0  0
   25.7204  -30.7833  -16.9369 C   0  0  0  0  0  0  0  0  0  0  0  0
   27.2099  -30.9035  -17.0699 C   0  0  0  0  0  0  0  0  0  0  0  0
   27.6387  -32.2527  -16.5342 C   0  0  0  0  0  0  0  0  0  0  0  0
   29.1072  -32.5102  -16.6377 C   0  0  0  0  0  0  0  0  0  0  0  0
   29.5205  -33.7396  -15.9934 N   0  0  0  0  0  0  0  0  0  0  0  0
   23.6196  -29.7533  -17.4393 C   0  0  0  0  0  0  0  0  0  0  0  0
   22.8626  -29.1125  -16.6832 O   0  0  0  0  0  0  0  0  0  0  0  0
   23.1001  -30.6835  -18.3180 O   0  0  0  0  0  0  0  0  0  0  0  0
  2  1  1  1
  2  9  1  0
  3  2  1  0
  3  4  1  0
  4  5  2  0
  4  8  1  0
  5  6  1  0
  6  7  1  0
  8  7  2  0
  9 10  2  0
 11  9  1  0
 11 12  1  0
 12 15  1  0
 12 13  1  6
 14 13  1  0
 15 16  2  0
 17 15  1  0
 17 18  1  0
 18 24  1  0
 18 19  1  1
 20 19  1  0
 21 22  1  0
 21 20  1  0
 22 23  1  0
 24 25  2  0
 24 26  1  0
M  END
$$$$
