HCK.pdb
     RDKit          3D

 26 26  0  0  1  0  0  0  0  0999 V2000
   17.8146  -13.2569    3.4309 N   0  0  0  0  0  0  0  0  0  0  0  0
   17.6548  -12.6578    4.7296 C   0  0  1  0  0  0  0  0  0  0  0  0
   16.3546  -13.0543    5.3603 C   0  0  0  0  0  0  0  0  0  0  0  0
   15.1613  -12.5720    4.6277 C   0  0  0  0  0  0  0  0  0  0  0  0
   15.2413  -11.7624    3.5236 C   0  0  0  0  0  0  0  0  0  0  0  0
   14.0010  -11.4909    3.0797 N   0  0  0  0  0  0  0  0  0  0  0  0
   13.1448  -12.1296    3.9051 C   0  0  0  0  0  0  0  0  0  0  0  0
   13.8491  -12.7790    4.8364 N   0  0  0  0  0  0  0  0  0  0  0  0
   18.7935  -13.0127    5.6296 C   0  0  0  0  0  0  0  0  0  0  0  0
   19.4508  -14.0504    5.3505 O   0  0  0  0  0  0  0  0  0  0  0  0
   19.1371  -12.2301    6.7510 N   0  0  0  0  0  0  0  0  0  0  0  0
   20.3266  -12.5040    7.4890 C   0  0  1  0  0  0  0  0  0  0  0  0
   21.1222  -11.2357    7.6440 C   0  0  0  0  0  0  0  0  0  0  0  0
   22.1801  -10.9120    6.2128 S   0  0  0  0  0  0  0  0  0  0  0  0
   20.0627  -13.1993    8.7750 C   0  0  0  0  0  0  0  0  0  0  0  0
   19.0889  -12.7999    9.5054 O   0  0  0  0  0  0  0  0  0  0  0  0
   20.8000  -14.2876    9.2901 N   0  0  0  0  0  0  0  0  0  0  0  0
   20.4774  -14.9846   10.4879 C   0  0  1  0  0  0  0  0  0  0  0  0
   19.5072  -16.0974   10.4118 C   0  0  0  0  0  0  0  0  0  0  0  0
   18.0571  -15.7130   10.3928 C   0  0  0  0  0  0  0  0  0  0  0  0
   17.4069  -16.3279    9.1721 C   0  0  0  0  0  0  0  0  0  0  0  0
   15.9658  -15.9695    9.0042 C   0  0  0  0  0  0  0  0  0  0  0  0
   15.3473  -16.6024    7.8578 N   0  0  0  0  0  0  0  0  0  0  0  0
   21.7390  -15.5802   11.1034 C   0  0  0  0  0  0  0  0  0  0  0  0
   22.7794  -15.6731   10.4220 O   0  0  0  0  0  0  0  0  0  0  0  0
   21.7249  -16.0153   12.4140 O   0  0  0  0  0  0  0  0  0  0  0  0
  2  1  1  6
  2  9  1  0
  3  2  1  0
  3  4  1  0
  4  5  2  0
  4  8  1  0
  5  6  1  0
  6  7  1  0
  8  7  2  0
  9 10  2  0
 11  9  1  0
 11 12  1  0
 12 15  1  0
 12 13  1  1
 14 13  1  0
 15 16  2  0
 17 15  1  0
 17 18  1  0
 18 24  1  0
 18 19  1  6
 20 19  1  0
 21 22  1  0
 21 20  1  0
 22 23  1  0
 24 25  2  0
 24 26  1  0
M  END
$$$$
