HCK.pdb
     RDKit          3D

 26 26  0  0  1  0  0  0  0  0999 V2000
   17.9581  -10.6647  -15.0404 N   0  0  0  0  0  0  0  0  0  0  0  0
   17.6757   -9.2956  -14.6986 C   0  0  1  0  0  0  0  0  0  0  0  0
   16.2236   -8.9732  -14.8804 C   0  0  0  0  0  0  0  0  0  0  0  0
   15.7315   -9.1821  -16.2614 C   0  0  0  0  0  0  0  0  0  0  0  0
   15.6015   -8.1618  -17.1686 C   0  0  0  0  0  0  0  0  0  0  0  0
   15.1333   -8.6548  -18.3292 N   0  0  0  0  0  0  0  0  0  0  0  0
   14.9698   -9.9827  -18.1491 C   0  0  0  0  0  0  0  0  0  0  0  0
   15.3313  -10.2950  -16.9012 N   0  0  0  0  0  0  0  0  0  0  0  0
   18.0995   -8.9925  -13.2982 C   0  0  0  0  0  0  0  0  0  0  0  0
   18.7149   -9.8950  -12.6710 O   0  0  0  0  0  0  0  0  0  0  0  0
   17.8331   -7.7513  -12.6844 N   0  0  0  0  0  0  0  0  0  0  0  0
   18.7391   -7.2071  -11.7266 C   0  0  1  0  0  0  0  0  0  0  0  0
   20.1470   -7.3273  -12.2452 C   0  0  0  0  0  0  0  0  0  0  0  0
   21.3633   -6.6584  -11.0852 S   0  0  0  0  0  0  0  0  0  0  0  0
   18.3778   -5.8289  -11.3060 C   0  0  0  0  0  0  0  0  0  0  0  0
   18.1433   -4.9489  -12.2070 O   0  0  0  0  0  0  0  0  0  0  0  0
   18.2652   -5.3766   -9.9732 N   0  0  0  0  0  0  0  0  0  0  0  0
   17.2344   -4.5186   -9.4979 C   0  0  1  0  0  0  0  0  0  0  0  0
   15.9754   -5.1313   -9.0236 C   0  0  0  0  0  0  0  0  0  0  0  0
   14.8986   -4.1816   -8.5881 C   0  0  0  0  0  0  0  0  0  0  0  0
   13.7061   -4.9835   -8.1125 C   0  0  0  0  0  0  0  0  0  0  0  0
   12.5533   -4.1485   -7.6575 C   0  0  0  0  0  0  0  0  0  0  0  0
   11.4603   -4.9276   -7.1137 N   0  0  0  0  0  0  0  0  0  0  0  0
   17.7475   -3.6788   -8.3332 C   0  0  0  0  0  0  0  0  0  0  0  0
   18.8109   -3.9916   -7.7617 O   0  0  0  0  0  0  0  0  0  0  0  0
   17.0320   -2.5742   -7.9146 O   0  0  0  0  0  0  0  0  0  0  0  0
  2  1  1  1
  2  9  1  0
  3  2  1  0
  3  4  1  0
  4  5  2  0
  4  8  1  0
  5  6  1  0
  6  7  1  0
  8  7  2  0
  9 10  2  0
 11  9  1  0
 11 12  1  0
 12 15  1  0
 12 13  1  6
 14 13  1  0
 15 16  2  0
 17 15  1  0
 17 18  1  0
 18 24  1  0
 18 19  1  1
 20 19  1  0
 21 22  1  0
 21 20  1  0
 22 23  1  0
 24 25  2  0
 24 26  1  0
M  END
$$$$
