HCK.pdb
     RDKit          3D

 26 26  0  0  1  0  0  0  0  0999 V2000
   23.6636  -11.1037  -16.3025 N   0  0  0  0  0  0  0  0  0  0  0  0
   23.8023   -9.9047  -15.5189 C   0  0  1  0  0  0  0  0  0  0  0  0
   24.7821   -8.9549  -16.1384 C   0  0  0  0  0  0  0  0  0  0  0  0
   26.1572   -9.4948  -16.2412 C   0  0  0  0  0  0  0  0  0  0  0  0
   26.5233  -10.7072  -15.7149 C   0  0  0  0  0  0  0  0  0  0  0  0
   27.8272  -10.9249  -15.9629 N   0  0  0  0  0  0  0  0  0  0  0  0
   28.2777   -9.8497  -16.6437 C   0  0  0  0  0  0  0  0  0  0  0  0
   27.2675   -8.9908  -16.8081 N   0  0  0  0  0  0  0  0  0  0  0  0
   22.4823   -9.2313  -15.3277 C   0  0  0  0  0  0  0  0  0  0  0  0
   21.6364   -9.3411  -16.2546 O   0  0  0  0  0  0  0  0  0  0  0  0
   22.1740   -8.4987  -14.1631 N   0  0  0  0  0  0  0  0  0  0  0  0
   20.8768   -7.9330  -13.9847 C   0  0  1  0  0  0  0  0  0  0  0  0
   20.5185   -7.9547  -12.5230 C   0  0  0  0  0  0  0  0  0  0  0  0
   20.3539   -9.6387  -11.8833 S   0  0  0  0  0  0  0  0  0  0  0  0
   20.7393   -6.5921  -14.6092 C   0  0  0  0  0  0  0  0  0  0  0  0
   21.7712   -6.0476  -15.1382 O   0  0  0  0  0  0  0  0  0  0  0  0
   19.5507   -5.8334  -14.6790 N   0  0  0  0  0  0  0  0  0  0  0  0
   19.3759   -4.6832  -15.4983 C   0  0  1  0  0  0  0  0  0  0  0  0
   19.5968   -4.8190  -16.9536 C   0  0  0  0  0  0  0  0  0  0  0  0
   19.4035   -3.5769  -17.7726 C   0  0  0  0  0  0  0  0  0  0  0  0
   19.7170   -3.8943  -19.2190 C   0  0  0  0  0  0  0  0  0  0  0  0
   19.5418   -2.7369  -20.1481 C   0  0  0  0  0  0  0  0  0  0  0  0
   19.5979   -3.1105  -21.5462 N   0  0  0  0  0  0  0  0  0  0  0  0
   17.9584   -4.1423  -15.3461 C   0  0  0  0  0  0  0  0  0  0  0  0
   17.0055   -4.9308  -15.1860 O   0  0  0  0  0  0  0  0  0  0  0  0
   17.7345   -2.7801  -15.3868 O   0  0  0  0  0  0  0  0  0  0  0  0
  2  1  1  6
  2  9  1  0
  3  2  1  0
  3  4  1  0
  4  5  2  0
  4  8  1  0
  5  6  1  0
  6  7  1  0
  8  7  2  0
  9 10  2  0
 11  9  1  0
 11 12  1  0
 12 15  1  0
 12 13  1  1
 14 13  1  0
 15 16  2  0
 17 15  1  0
 17 18  1  0
 18 24  1  0
 18 19  1  6
 20 19  1  0
 21 22  1  0
 21 20  1  0
 22 23  1  0
 24 25  2  0
 24 26  1  0
M  END
$$$$
