HYS.pdb
     RDKit          3D

 29 30  0  0  1  0  0  0  0  0999 V2000
   25.1010  -18.5234  -17.5706 N   0  0  0  0  0  0  0  0  0  0  0  0
   25.8572  -18.9068  -16.4231 C   0  0  1  0  0  0  0  0  0  0  0  0
   26.5744  -17.6808  -15.8679 C   0  0  0  0  0  0  0  0  0  0  0  0
   27.5866  -17.2470  -16.8663 C   0  0  0  0  0  0  0  0  0  0  0  0
   27.7905  -17.7624  -18.1190 C   0  0  0  0  0  0  0  0  0  0  0  0
   28.8149  -17.0803  -18.7054 N   0  0  0  0  0  0  0  0  0  0  0  0
   29.2402  -16.1636  -17.8438 C   0  0  0  0  0  0  0  0  0  0  0  0
   28.5050  -16.2522  -16.7234 N   0  0  0  0  0  0  0  0  0  0  0  0
   25.0391  -19.5577  -15.3696 C   0  0  0  0  0  0  0  0  0  0  0  0
   23.9858  -18.9832  -15.0066 O   0  0  0  0  0  0  0  0  0  0  0  0
   19.8885  -22.2419  -17.8004 O   0  0  0  0  0  0  0  0  0  0  0  0
   20.9757  -22.3698  -16.9328 C   0  0  0  0  0  0  0  0  0  0  0  0
   22.2746  -22.4686  -17.3866 C   0  0  0  0  0  0  0  0  0  0  0  0
   23.3300  -22.5940  -16.5101 C   0  0  0  0  0  0  0  0  0  0  0  0
   23.1326  -22.6265  -15.1346 C   0  0  0  0  0  0  0  0  0  0  0  0
   24.2969  -22.7615  -14.2201 C   0  0  0  0  0  0  0  0  0  0  0  0
   24.7281  -21.4103  -13.7859 C   0  0  2  0  0  0  0  0  0  0  0  0
   25.5016  -20.7909  -14.8391 N   0  0  0  0  0  0  0  0  0  0  0  0
   25.4756  -21.3409  -12.5361 C   0  0  0  0  0  0  0  0  0  0  0  0
   26.7026  -21.5937  -12.5373 O   0  0  0  0  0  0  0  0  0  0  0  0
   21.8282  -22.5264  -14.7026 C   0  0  0  0  0  0  0  0  0  0  0  0
   20.7690  -22.4006  -15.5800 C   0  0  0  0  0  0  0  0  0  0  0  0
   26.4635  -18.8873   -9.9349 O   0  0  0  0  0  0  0  0  0  0  0  0
   26.8884  -20.1950  -10.0988 C   0  0  0  0  0  0  0  0  0  0  0  0
   25.6716  -21.0938  -10.0606 C   0  0  2  0  0  0  0  0  0  0  0  0
   24.9070  -20.9992  -11.2781 N   0  0  0  0  0  0  0  0  0  0  0  0
   24.8065  -20.7128   -8.9279 C   0  0  0  0  0  0  0  0  0  0  0  0
   25.2711  -20.6991   -7.7655 O   0  0  0  0  0  0  0  0  0  0  0  0
   23.4747  -20.3705   -9.1651 O   0  0  0  0  0  0  0  0  0  0  0  0
  2  1  1  6
  2  9  1  0
  3  2  1  0
  3  4  1  0
  4  5  2  0
  4  8  1  0
  5  6  1  0
  6  7  1  0
  8  7  2  0
  9 18  1  0
  9 10  2  0
 11 12  1  0
 12 22  2  0
 13 12  1  0
 13 14  2  0
 14 15  1  0
 15 21  2  0
 15 16  1  0
 17 16  1  6
 18 17  1  0
 19 17  1  0
 19 20  2  0
 22 21  1  0
 23 24  1  0
 25 24  1  6
 25 26  1  0
 26 19  1  0
 27 25  1  0
 28 27  2  0
 29 27  1  0
M  END
$$$$
