HYS.pdb
     RDKit          3D

 29 30  0  0  1  0  0  0  0  0999 V2000
   28.9678  -24.2367  -17.1364 N   0  0  0  0  0  0  0  0  0  0  0  0
   28.5258  -22.8999  -16.9054 C   0  0  1  0  0  0  0  0  0  0  0  0
   28.0914  -22.2838  -18.2311 C   0  0  0  0  0  0  0  0  0  0  0  0
   29.3007  -22.1115  -19.0780 C   0  0  0  0  0  0  0  0  0  0  0  0
   29.7062  -22.9065  -20.1173 C   0  0  0  0  0  0  0  0  0  0  0  0
   30.8649  -22.3976  -20.6241 N   0  0  0  0  0  0  0  0  0  0  0  0
   31.1760  -21.3144  -19.9217 C   0  0  0  0  0  0  0  0  0  0  0  0
   30.2367  -21.1277  -18.9800 N   0  0  0  0  0  0  0  0  0  0  0  0
   27.4369  -22.8052  -15.9013 C   0  0  0  0  0  0  0  0  0  0  0  0
   26.7010  -23.8067  -15.7382 O   0  0  0  0  0  0  0  0  0  0  0  0
   22.8442  -20.4929   -8.9339 O   0  0  0  0  0  0  0  0  0  0  0  0
   23.8147  -20.5463   -9.9371 C   0  0  0  0  0  0  0  0  0  0  0  0
   23.6636  -19.8986  -11.1455 C   0  0  0  0  0  0  0  0  0  0  0  0
   24.6358  -19.9669  -12.1192 C   0  0  0  0  0  0  0  0  0  0  0  0
   25.8077  -20.6892  -11.9267 C   0  0  0  0  0  0  0  0  0  0  0  0
   26.8348  -20.7384  -13.0005 C   0  0  0  0  0  0  0  0  0  0  0  0
   26.3005  -21.5190  -14.1431 C   0  0  2  0  0  0  0  0  0  0  0  0
   27.2976  -21.5851  -15.1884 N   0  0  0  0  0  0  0  0  0  0  0  0
   25.0401  -21.0548  -14.7099 C   0  0  0  0  0  0  0  0  0  0  0  0
   25.0018  -19.9548  -15.3084 O   0  0  0  0  0  0  0  0  0  0  0  0
   25.9385  -21.3283  -10.7133 C   0  0  0  0  0  0  0  0  0  0  0  0
   24.9648  -21.2609   -9.7362 C   0  0  0  0  0  0  0  0  0  0  0  0
   21.8527  -23.4837  -15.4053 O   0  0  0  0  0  0  0  0  0  0  0  0
   21.9643  -22.3127  -16.1358 C   0  0  0  0  0  0  0  0  0  0  0  0
   22.6141  -21.2680  -15.2547 C   0  0  2  0  0  0  0  0  0  0  0  0
   23.8138  -21.7714  -14.6359 N   0  0  0  0  0  0  0  0  0  0  0  0
   21.6734  -20.8547  -14.1960 C   0  0  0  0  0  0  0  0  0  0  0  0
   21.9590  -21.0576  -12.9940 O   0  0  0  0  0  0  0  0  0  0  0  0
   20.4710  -20.2399  -14.5468 O   0  0  0  0  0  0  0  0  0  0  0  0
  2  1  1  6
  2  9  1  0
  3  2  1  0
  3  4  1  0
  4  5  2  0
  4  8  1  0
  5  6  1  0
  6  7  1  0
  8  7  2  0
  9 18  1  0
  9 10  2  0
 11 12  1  0
 12 22  2  0
 13 12  1  0
 13 14  2  0
 14 15  1  0
 15 21  2  0
 15 16  1  0
 17 16  1  1
 18 17  1  0
 19 17  1  0
 19 20  2  0
 22 21  1  0
 23 24  1  0
 25 24  1  1
 25 26  1  0
 26 19  1  0
 27 25  1  0
 28 27  2  0
 29 27  1  0
M  END
$$$$
