HYS.pdb
     RDKit          3D

 29 30  0  0  1  0  0  0  0  0999 V2000
   23.1903  -11.2205  -21.5809 N   0  0  0  0  0  0  0  0  0  0  0  0
   23.4994   -9.9778  -20.9518 C   0  0  1  0  0  0  0  0  0  0  0  0
   23.5259   -8.8785  -22.0086 C   0  0  0  0  0  0  0  0  0  0  0  0
   24.6176   -9.1880  -22.9687 C   0  0  0  0  0  0  0  0  0  0  0  0
   25.9567   -9.2889  -22.6984 C   0  0  0  0  0  0  0  0  0  0  0  0
   26.6103   -9.5866  -23.8572 N   0  0  0  0  0  0  0  0  0  0  0  0
   25.7055   -9.6698  -24.8257 C   0  0  0  0  0  0  0  0  0  0  0  0
   24.4919   -9.4305  -24.3025 N   0  0  0  0  0  0  0  0  0  0  0  0
   22.5658   -9.6262  -19.8528 C   0  0  0  0  0  0  0  0  0  0  0  0
   21.3550   -9.9172  -19.9963 O   0  0  0  0  0  0  0  0  0  0  0  0
   19.0983   -8.3975  -12.0918 O   0  0  0  0  0  0  0  0  0  0  0  0
   19.9367   -8.6982  -13.1677 C   0  0  0  0  0  0  0  0  0  0  0  0
   19.5037   -9.4170  -14.2625 C   0  0  0  0  0  0  0  0  0  0  0  0
   20.3506   -9.7007  -15.3115 C   0  0  0  0  0  0  0  0  0  0  0  0
   21.6742   -9.2763  -15.3122 C   0  0  0  0  0  0  0  0  0  0  0  0
   22.5576   -9.6005  -16.4631 C   0  0  0  0  0  0  0  0  0  0  0  0
   22.2144   -8.7113  -17.5997 C   0  0  2  0  0  0  0  0  0  0  0  0
   23.1037   -8.9819  -18.7075 N   0  0  0  0  0  0  0  0  0  0  0  0
   22.2132   -7.2800  -17.3229 C   0  0  0  0  0  0  0  0  0  0  0  0
   23.3026   -6.6656  -17.2504 O   0  0  0  0  0  0  0  0  0  0  0  0
   22.0862   -8.5601  -14.2097 C   0  0  0  0  0  0  0  0  0  0  0  0
   21.2384   -8.2749  -13.1574 C   0  0  0  0  0  0  0  0  0  0  0  0
   20.3983   -4.3767  -18.9379 O   0  0  0  0  0  0  0  0  0  0  0  0
   20.0813   -4.3051  -17.5919 C   0  0  0  0  0  0  0  0  0  0  0  0
   21.1171   -5.0948  -16.8214 C   0  0  2  0  0  0  0  0  0  0  0  0
   21.0398   -6.5016  -17.1226 N   0  0  0  0  0  0  0  0  0  0  0  0
   20.9086   -4.9090  -15.3728 C   0  0  0  0  0  0  0  0  0  0  0  0
   20.0824   -5.6266  -14.7646 O   0  0  0  0  0  0  0  0  0  0  0  0
   21.6371   -3.9319  -14.6934 O   0  0  0  0  0  0  0  0  0  0  0  0
  2  1  1  6
  2  9  1  0
  3  2  1  0
  3  4  1  0
  4  5  2  0
  4  8  1  0
  5  6  1  0
  6  7  1  0
  8  7  2  0
  9 18  1  0
  9 10  2  0
 11 12  1  0
 12 22  2  0
 13 12  1  0
 13 14  2  0
 14 15  1  0
 15 21  2  0
 15 16  1  0
 17 16  1  1
 18 17  1  0
 19 17  1  0
 19 20  2  0
 22 21  1  0
 23 24  1  0
 25 24  1  6
 25 26  1  0
 26 19  1  0
 27 25  1  0
 28 27  2  0
 29 27  1  0
M  END
$$$$
