HYS.pdb
     RDKit          3D

 29 30  0  0  1  0  0  0  0  0999 V2000
   21.0608  -10.9886  -19.2707 N   0  0  0  0  0  0  0  0  0  0  0  0
   21.8398   -9.8806  -18.8223 C   0  0  1  0  0  0  0  0  0  0  0  0
   22.1838   -8.9983  -20.0178 C   0  0  0  0  0  0  0  0  0  0  0  0
   23.0123   -9.7979  -20.9579 C   0  0  0  0  0  0  0  0  0  0  0  0
   22.6246  -10.3300  -22.1591 C   0  0  0  0  0  0  0  0  0  0  0  0
   23.6867  -10.9896  -22.7025 N   0  0  0  0  0  0  0  0  0  0  0  0
   24.7106  -10.8736  -21.8648 C   0  0  0  0  0  0  0  0  0  0  0  0
   24.3171  -10.1533  -20.8017 N   0  0  0  0  0  0  0  0  0  0  0  0
   21.1761   -9.0866  -17.7583 C   0  0  0  0  0  0  0  0  0  0  0  0
   19.9683   -8.7900  -17.9151 O   0  0  0  0  0  0  0  0  0  0  0  0
   16.8186  -12.5237  -15.2628 O   0  0  0  0  0  0  0  0  0  0  0  0
   17.8920  -11.6553  -15.0512 C   0  0  0  0  0  0  0  0  0  0  0  0
   19.1874  -11.9867  -15.3901 C   0  0  0  0  0  0  0  0  0  0  0  0
   20.2292  -11.1122  -15.1711 C   0  0  0  0  0  0  0  0  0  0  0  0
   20.0209   -9.8618  -14.6009 C   0  0  0  0  0  0  0  0  0  0  0  0
   21.1702   -8.9447  -14.3813 C   0  0  0  0  0  0  0  0  0  0  0  0
   21.2854   -8.0295  -15.5430 C   0  0  2  0  0  0  0  0  0  0  0  0
   21.9518   -8.7129  -16.6293 N   0  0  0  0  0  0  0  0  0  0  0  0
   21.9488   -6.7547  -15.2981 C   0  0  0  0  0  0  0  0  0  0  0  0
   23.1886   -6.6654  -15.4540 O   0  0  0  0  0  0  0  0  0  0  0  0
   18.7202   -9.5508  -14.2700 C   0  0  0  0  0  0  0  0  0  0  0  0
   17.6747  -10.4263  -14.4889 C   0  0  0  0  0  0  0  0  0  0  0  0
   22.9594   -2.7436  -16.4246 O   0  0  0  0  0  0  0  0  0  0  0  0
   22.3869   -4.0042  -16.3991 C   0  0  0  0  0  0  0  0  0  0  0  0
   21.9153   -4.2787  -14.9876 C   0  0  2  0  0  0  0  0  0  0  0  0
   21.2818   -5.5686  -14.8842 N   0  0  0  0  0  0  0  0  0  0  0  0
   20.9492   -3.2429  -14.5751 C   0  0  0  0  0  0  0  0  0  0  0  0
   21.3612   -2.1440  -14.1393 O   0  0  0  0  0  0  0  0  0  0  0  0
   19.5814   -3.4999  -14.6756 O   0  0  0  0  0  0  0  0  0  0  0  0
  2  1  1  6
  2  9  1  0
  3  2  1  0
  3  4  1  0
  4  5  2  0
  4  8  1  0
  5  6  1  0
  6  7  1  0
  8  7  2  0
  9 18  1  0
  9 10  2  0
 11 12  1  0
 12 22  2  0
 13 12  1  0
 13 14  2  0
 14 15  1  0
 15 21  2  0
 15 16  1  0
 17 16  1  1
 18 17  1  0
 19 17  1  0
 19 20  2  0
 22 21  1  0
 23 24  1  0
 25 24  1  6
 25 26  1  0
 26 19  1  0
 27 25  1  0
 28 27  2  0
 29 27  1  0
M  END
$$$$
