HYS.pdb
     RDKit          3D

 29 30  0  0  1  0  0  0  0  0999 V2000
   43.7557  -11.8074  -10.1233 N   0  0  0  0  0  0  0  0  0  0  0  0
   43.0680  -11.5399   -8.9021 C   0  0  1  0  0  0  0  0  0  0  0  0
   44.0775  -11.0897   -7.8514 C   0  0  0  0  0  0  0  0  0  0  0  0
   44.9743  -12.2367   -7.5520 C   0  0  0  0  0  0  0  0  0  0  0  0
   44.9195  -13.4953   -8.0898 C   0  0  0  0  0  0  0  0  0  0  0  0
   45.9221  -14.2418   -7.5456 N   0  0  0  0  0  0  0  0  0  0  0  0
   46.5858  -13.4720   -6.6911 C   0  0  0  0  0  0  0  0  0  0  0  0
   46.0229  -12.2526   -6.6838 N   0  0  0  0  0  0  0  0  0  0  0  0
   41.9799  -10.5408   -9.0459 C   0  0  0  0  0  0  0  0  0  0  0  0
   42.0443   -9.7379  -10.0063 O   0  0  0  0  0  0  0  0  0  0  0  0
   35.3791   -5.6924   -6.0088 O   0  0  0  0  0  0  0  0  0  0  0  0
   36.1751   -6.7664   -6.4138 C   0  0  0  0  0  0  0  0  0  0  0  0
   36.4280   -7.0379   -7.7424 C   0  0  0  0  0  0  0  0  0  0  0  0
   37.2167   -8.1038   -8.1162 C   0  0  0  0  0  0  0  0  0  0  0  0
   37.7901   -8.9494   -7.1738 C   0  0  0  0  0  0  0  0  0  0  0  0
   38.6368  -10.0888   -7.6157 C   0  0  0  0  0  0  0  0  0  0  0  0
   39.8949   -9.5581   -8.1951 C   0  0  2  0  0  0  0  0  0  0  0  0
   40.9340  -10.5578   -8.0858 N   0  0  0  0  0  0  0  0  0  0  0  0
   40.3797   -8.2987   -7.6434 C   0  0  0  0  0  0  0  0  0  0  0  0
   41.0424   -8.3063   -6.5803 O   0  0  0  0  0  0  0  0  0  0  0  0
   37.5251   -8.6606   -5.8530 C   0  0  0  0  0  0  0  0  0  0  0  0
   36.7346   -7.5925   -5.4766 C   0  0  0  0  0  0  0  0  0  0  0  0
   42.4055   -4.1985   -7.8919 O   0  0  0  0  0  0  0  0  0  0  0  0
   41.8972   -5.3345   -8.4989 C   0  0  0  0  0  0  0  0  0  0  0  0
   40.7297   -5.8279   -7.6722 C   0  0  2  0  0  0  0  0  0  0  0  0
   40.1542   -7.0240   -8.2326 N   0  0  0  0  0  0  0  0  0  0  0  0
   39.6876   -4.7856   -7.6103 C   0  0  0  0  0  0  0  0  0  0  0  0
   39.7320   -3.9117   -6.7150 O   0  0  0  0  0  0  0  0  0  0  0  0
   38.6596   -4.7848   -8.5538 O   0  0  0  0  0  0  0  0  0  0  0  0
  2  1  1  6
  2  9  1  0
  3  2  1  0
  3  4  1  0
  4  5  2  0
  4  8  1  0
  5  6  1  0
  6  7  1  0
  8  7  2  0
  9 18  1  0
  9 10  2  0
 11 12  1  0
 12 22  2  0
 13 12  1  0
 13 14  2  0
 14 15  1  0
 15 21  2  0
 15 16  1  0
 17 16  1  1
 18 17  1  0
 19 17  1  0
 19 20  2  0
 22 21  1  0
 23 24  1  0
 25 24  1  6
 25 26  1  0
 26 19  1  0
 27 25  1  0
 28 27  2  0
 29 27  1  0
M  END
$$$$
