HYS.pdb
     RDKit          3D

 29 30  0  0  1  0  0  0  0  0999 V2000
   22.9827  -11.1456  -18.6668 N   0  0  0  0  0  0  0  0  0  0  0  0
   23.9026  -10.0549  -18.6613 C   0  0  1  0  0  0  0  0  0  0  0  0
   24.4793   -9.8837  -20.0628 C   0  0  0  0  0  0  0  0  0  0  0  0
   25.2755  -11.0967  -20.3852 C   0  0  0  0  0  0  0  0  0  0  0  0
   25.7098  -12.0602  -19.5137 C   0  0  0  0  0  0  0  0  0  0  0  0
   26.4053  -12.9979  -20.2177 N   0  0  0  0  0  0  0  0  0  0  0  0
   26.4063  -12.6316  -21.4942 C   0  0  0  0  0  0  0  0  0  0  0  0
   25.7249  -11.4802  -21.6118 N   0  0  0  0  0  0  0  0  0  0  0  0
   23.3055   -8.7837  -18.1811 C   0  0  0  0  0  0  0  0  0  0  0  0
   22.0891   -8.5844  -18.4087 O   0  0  0  0  0  0  0  0  0  0  0  0
   18.7492   -9.5591  -14.0356 O   0  0  0  0  0  0  0  0  0  0  0  0
   19.9035   -8.8593  -14.3946 C   0  0  0  0  0  0  0  0  0  0  0  0
   19.8804   -7.5228  -14.7352 C   0  0  0  0  0  0  0  0  0  0  0  0
   21.0332   -6.8548  -15.0858 C   0  0  0  0  0  0  0  0  0  0  0  0
   22.2658   -7.4966  -15.1114 C   0  0  0  0  0  0  0  0  0  0  0  0
   23.4884   -6.7420  -15.4936 C   0  0  0  0  0  0  0  0  0  0  0  0
   23.5612   -6.6596  -16.9729 C   0  0  2  0  0  0  0  0  0  0  0  0
   24.1507   -7.8731  -17.4936 N   0  0  0  0  0  0  0  0  0  0  0  0
   24.2671   -5.5083  -17.5221 C   0  0  0  0  0  0  0  0  0  0  0  0
   25.5153   -5.4501  -17.4311 O   0  0  0  0  0  0  0  0  0  0  0  0
   22.2667   -8.8308  -14.7679 C   0  0  0  0  0  0  0  0  0  0  0  0
   21.1119   -9.5018  -14.4162 C   0  0  0  0  0  0  0  0  0  0  0  0
   23.9971   -4.0834  -20.9664 O   0  0  0  0  0  0  0  0  0  0  0  0
   23.8650   -2.9822  -20.1375 C   0  0  0  0  0  0  0  0  0  0  0  0
   24.4030   -3.3529  -18.7725 C   0  0  2  0  0  0  0  0  0  0  0  0
   23.6341   -4.4132  -18.1722 N   0  0  0  0  0  0  0  0  0  0  0  0
   24.3601   -2.1760  -17.8840 C   0  0  0  0  0  0  0  0  0  0  0  0
   23.6407   -2.1939  -16.8595 O   0  0  0  0  0  0  0  0  0  0  0  0
   25.1246   -1.0512  -18.1960 O   0  0  0  0  0  0  0  0  0  0  0  0
  2  1  1  6
  2  9  1  0
  3  2  1  0
  3  4  1  0
  4  5  2  0
  4  8  1  0
  5  6  1  0
  6  7  1  0
  8  7  2  0
  9 18  1  0
  9 10  2  0
 11 12  1  0
 12 22  2  0
 13 12  1  0
 13 14  2  0
 14 15  1  0
 15 21  2  0
 15 16  1  0
 17 16  1  1
 18 17  1  0
 19 17  1  0
 19 20  2  0
 22 21  1  0
 23 24  1  0
 25 24  1  6
 25 26  1  0
 26 19  1  0
 27 25  1  0
 28 27  2  0
 29 27  1  0
M  END
$$$$
