HYS.pdb
     RDKit          3D

 29 30  0  0  1  0  0  0  0  0999 V2000
   20.8298  -13.1738  -17.0180 N   0  0  0  0  0  0  0  0  0  0  0  0
   20.1938  -11.9141  -16.8072 C   0  0  1  0  0  0  0  0  0  0  0  0
   19.3103  -12.0045  -15.5674 C   0  0  0  0  0  0  0  0  0  0  0  0
   18.2354  -12.9948  -15.8382 C   0  0  0  0  0  0  0  0  0  0  0  0
   18.0357  -13.7085  -16.9903 C   0  0  0  0  0  0  0  0  0  0  0  0
   16.9410  -14.5035  -16.8218 N   0  0  0  0  0  0  0  0  0  0  0  0
   16.4688  -14.2932  -15.5986 C   0  0  0  0  0  0  0  0  0  0  0  0
   17.2433  -13.3805  -14.9894 N   0  0  0  0  0  0  0  0  0  0  0  0
   21.1495  -10.7847  -16.6890 C   0  0  0  0  0  0  0  0  0  0  0  0
   22.3004  -11.0330  -16.2590 O   0  0  0  0  0  0  0  0  0  0  0  0
   25.6953   -3.6813  -18.2762 O   0  0  0  0  0  0  0  0  0  0  0  0
   24.7875   -4.7422  -18.3146 C   0  0  0  0  0  0  0  0  0  0  0  0
   25.1900   -6.0604  -18.2583 C   0  0  0  0  0  0  0  0  0  0  0  0
   24.2746   -7.0892  -18.2980 C   0  0  0  0  0  0  0  0  0  0  0  0
   22.9098   -6.8444  -18.3961 C   0  0  0  0  0  0  0  0  0  0  0  0
   21.9522   -7.9809  -18.4348 C   0  0  0  0  0  0  0  0  0  0  0  0
   21.6527   -8.4063  -17.0457 C   0  0  2  0  0  0  0  0  0  0  0  0
   20.6992   -9.4933  -17.0706 N   0  0  0  0  0  0  0  0  0  0  0  0
   21.1744   -7.3682  -16.1408 C   0  0  0  0  0  0  0  0  0  0  0  0
   20.0033   -6.9391  -16.2594 O   0  0  0  0  0  0  0  0  0  0  0  0
   22.5294   -5.5215  -18.4509 C   0  0  0  0  0  0  0  0  0  0  0  0
   23.4458   -4.4889  -18.4112 C   0  0  0  0  0  0  0  0  0  0  0  0
   20.5329   -5.3532  -12.0879 O   0  0  0  0  0  0  0  0  0  0  0  0
   21.1288   -6.3461  -12.8470 C   0  0  0  0  0  0  0  0  0  0  0  0
   21.4026   -5.7848  -14.2254 C   0  0  2  0  0  0  0  0  0  0  0  0
   21.9534   -6.7857  -15.1031 N   0  0  0  0  0  0  0  0  0  0  0  0
   22.3581   -4.6651  -14.1263 C   0  0  0  0  0  0  0  0  0  0  0  0
   23.5842   -4.8776  -14.2627 O   0  0  0  0  0  0  0  0  0  0  0  0
   21.8832   -3.3762  -13.8805 O   0  0  0  0  0  0  0  0  0  0  0  0
  2  1  1  1
  2  9  1  0
  3  2  1  0
  3  4  1  0
  4  5  2  0
  4  8  1  0
  5  6  1  0
  6  7  1  0
  8  7  2  0
  9 18  1  0
  9 10  2  0
 11 12  1  0
 12 22  2  0
 13 12  1  0
 13 14  2  0
 14 15  1  0
 15 21  2  0
 15 16  1  0
 17 16  1  6
 18 17  1  0
 19 17  1  0
 19 20  2  0
 22 21  1  0
 23 24  1  0
 25 24  1  1
 25 26  1  0
 26 19  1  0
 27 25  1  0
 28 27  2  0
 29 27  1  0
M  END
$$$$
