HYS.pdb
     RDKit          3D

 29 30  0  0  1  0  0  0  0  0999 V2000
   36.7791  -33.8321  -10.4776 N   0  0  0  0  0  0  0  0  0  0  0  0
   35.4281  -34.2844  -10.4004 C   0  0  1  0  0  0  0  0  0  0  0  0
   35.2800  -35.5529  -11.2340 C   0  0  0  0  0  0  0  0  0  0  0  0
   35.5669  -35.2094  -12.6515 C   0  0  0  0  0  0  0  0  0  0  0  0
   34.7908  -34.4626  -13.4978 C   0  0  0  0  0  0  0  0  0  0  0  0
   35.4174  -34.3883  -14.7063 N   0  0  0  0  0  0  0  0  0  0  0  0
   36.5540  -35.0695  -14.6187 C   0  0  0  0  0  0  0  0  0  0  0  0
   36.6589  -35.5736  -13.3783 N   0  0  0  0  0  0  0  0  0  0  0  0
   34.9625  -34.5133   -9.0098 C   0  0  0  0  0  0  0  0  0  0  0  0
   35.7732  -35.0130   -8.1948 O   0  0  0  0  0  0  0  0  0  0  0  0
   29.8687  -33.9448   -1.9177 O   0  0  0  0  0  0  0  0  0  0  0  0
   30.4827  -33.7280   -3.1534 C   0  0  0  0  0  0  0  0  0  0  0  0
   29.7655  -33.6382   -4.3283 C   0  0  0  0  0  0  0  0  0  0  0  0
   30.3949  -33.4239   -5.5349 C   0  0  0  0  0  0  0  0  0  0  0  0
   31.7757  -33.2894   -5.6206 C   0  0  0  0  0  0  0  0  0  0  0  0
   32.4189  -33.0576   -6.9408 C   0  0  0  0  0  0  0  0  0  0  0  0
   33.2052  -34.2594   -7.3115 C   0  0  2  0  0  0  0  0  0  0  0  0
   33.6271  -34.1516   -8.6905 N   0  0  0  0  0  0  0  0  0  0  0  0
   32.5524  -35.5470   -7.1079 C   0  0  0  0  0  0  0  0  0  0  0  0
   31.7568  -35.9782   -7.9743 O   0  0  0  0  0  0  0  0  0  0  0  0
   32.4727  -33.3823   -4.4360 C   0  0  0  0  0  0  0  0  0  0  0  0
   31.8433  -33.5970   -3.2255 C   0  0  0  0  0  0  0  0  0  0  0  0
   33.2311  -37.8735   -3.8098 O   0  0  0  0  0  0  0  0  0  0  0  0
   32.8436  -38.5860   -4.9321 C   0  0  0  0  0  0  0  0  0  0  0  0
   32.0847  -37.6487   -5.8461 C   0  0  2  0  0  0  0  0  0  0  0  0
   32.7519  -36.3778   -5.9709 N   0  0  0  0  0  0  0  0  0  0  0  0
   30.7289  -37.4206   -5.3109 C   0  0  0  0  0  0  0  0  0  0  0  0
   30.3131  -36.2517   -5.1435 O   0  0  0  0  0  0  0  0  0  0  0  0
   29.9216  -38.5141   -4.9957 O   0  0  0  0  0  0  0  0  0  0  0  0
  2  1  1  1
  2  9  1  0
  3  2  1  0
  3  4  1  0
  4  5  2  0
  4  8  1  0
  5  6  1  0
  6  7  1  0
  8  7  2  0
  9 18  1  0
  9 10  2  0
 11 12  1  0
 12 22  2  0
 13 12  1  0
 13 14  2  0
 14 15  1  0
 15 21  2  0
 15 16  1  0
 17 16  1  6
 18 17  1  0
 19 17  1  0
 19 20  2  0
 22 21  1  0
 23 24  1  0
 25 24  1  1
 25 26  1  0
 26 19  1  0
 27 25  1  0
 28 27  2  0
 29 27  1  0
M  END
$$$$
