HYS.pdb
     RDKit          3D

 29 30  0  0  1  0  0  0  0  0999 V2000
   21.3677  -10.6656  -19.0945 N   0  0  0  0  0  0  0  0  0  0  0  0
   21.5256   -9.2924  -18.7412 C   0  0  1  0  0  0  0  0  0  0  0  0
   20.9147   -8.4239  -19.8359 C   0  0  0  0  0  0  0  0  0  0  0  0
   21.7174   -8.6088  -21.0732 C   0  0  0  0  0  0  0  0  0  0  0  0
   21.6265   -9.6354  -21.9756 C   0  0  0  0  0  0  0  0  0  0  0  0
   22.5408   -9.4236  -22.9645 N   0  0  0  0  0  0  0  0  0  0  0  0
   23.1858   -8.2961  -22.6887 C   0  0  0  0  0  0  0  0  0  0  0  0
   22.6976   -7.7900  -21.5444 N   0  0  0  0  0  0  0  0  0  0  0  0
   20.9443   -8.9544  -17.4180 C   0  0  0  0  0  0  0  0  0  0  0  0
   20.0182   -9.6780  -16.9823 O   0  0  0  0  0  0  0  0  0  0  0  0
   19.6234   -6.3280   -9.3450 O   0  0  0  0  0  0  0  0  0  0  0  0
   20.1884   -6.6540  -10.5801 C   0  0  0  0  0  0  0  0  0  0  0  0
   20.1648   -7.9367  -11.0870 C   0  0  0  0  0  0  0  0  0  0  0  0
   20.7294   -8.2327  -12.3083 C   0  0  0  0  0  0  0  0  0  0  0  0
   21.3454   -7.2548  -13.0805 C   0  0  0  0  0  0  0  0  0  0  0  0
   21.9424   -7.6123  -14.3942 C   0  0  0  0  0  0  0  0  0  0  0  0
   20.9027   -7.4904  -15.4452 C   0  0  2  0  0  0  0  0  0  0  0  0
   21.4743   -7.8317  -16.7290 N   0  0  0  0  0  0  0  0  0  0  0  0
   20.2332   -6.1992  -15.5453 C   0  0  0  0  0  0  0  0  0  0  0  0
   20.7736   -5.2736  -16.1940 O   0  0  0  0  0  0  0  0  0  0  0  0
   21.3579   -5.9809  -12.5559 C   0  0  0  0  0  0  0  0  0  0  0  0
   20.7924   -5.6825  -11.3318 C   0  0  0  0  0  0  0  0  0  0  0  0
   18.7231   -2.2782  -15.0014 O   0  0  0  0  0  0  0  0  0  0  0  0
   19.3899   -3.4896  -14.9286 C   0  0  0  0  0  0  0  0  0  0  0  0
   18.3729   -4.5977  -15.0955 C   0  0  2  0  0  0  0  0  0  0  0  0
   18.9785   -5.8966  -14.9478 N   0  0  0  0  0  0  0  0  0  0  0  0
   17.7581   -4.5119  -16.4339 C   0  0  0  0  0  0  0  0  0  0  0  0
   18.3074   -5.0719  -17.4096 O   0  0  0  0  0  0  0  0  0  0  0  0
   16.5665   -3.8048  -16.5986 O   0  0  0  0  0  0  0  0  0  0  0  0
  2  1  1  6
  2  9  1  0
  3  2  1  0
  3  4  1  0
  4  5  2  0
  4  8  1  0
  5  6  1  0
  6  7  1  0
  8  7  2  0
  9 18  1  0
  9 10  2  0
 11 12  1  0
 12 22  2  0
 13 12  1  0
 13 14  2  0
 14 15  1  0
 15 21  2  0
 15 16  1  0
 17 16  1  1
 18 17  1  0
 19 17  1  0
 19 20  2  0
 22 21  1  0
 23 24  1  0
 25 24  1  6
 25 26  1  0
 26 19  1  0
 27 25  1  0
 28 27  2  0
 29 27  1  0
M  END
$$$$
