HYS.pdb
     RDKit          3D

 29 30  0  0  1  0  0  0  0  0999 V2000
   18.6777  -11.2599  -17.3289 N   0  0  0  0  0  0  0  0  0  0  0  0
   19.5683  -10.1483  -17.2458 C   0  0  1  0  0  0  0  0  0  0  0  0
   19.5288   -9.3800  -18.5626 C   0  0  0  0  0  0  0  0  0  0  0  0
   19.9115  -10.3143  -19.6534 C   0  0  0  0  0  0  0  0  0  0  0  0
   19.0876  -10.8735  -20.5942 C   0  0  0  0  0  0  0  0  0  0  0  0
   19.8382  -11.6695  -21.4075 N   0  0  0  0  0  0  0  0  0  0  0  0
   21.0966  -11.6103  -20.9875 C   0  0  0  0  0  0  0  0  0  0  0  0
   21.1572  -10.7921  -19.9242 N   0  0  0  0  0  0  0  0  0  0  0  0
   19.2786   -9.2462  -16.1033 C   0  0  0  0  0  0  0  0  0  0  0  0
   18.0963   -9.1821  -15.6919 O   0  0  0  0  0  0  0  0  0  0  0  0
   19.4424   -4.8451   -8.7761 O   0  0  0  0  0  0  0  0  0  0  0  0
   19.8210   -5.6025   -9.8869 C   0  0  0  0  0  0  0  0  0  0  0  0
   20.7500   -5.1553  -10.8033 C   0  0  0  0  0  0  0  0  0  0  0  0
   21.1066   -5.9217  -11.8912 C   0  0  0  0  0  0  0  0  0  0  0  0
   20.5476   -7.1750  -12.1120 C   0  0  0  0  0  0  0  0  0  0  0  0
   20.9587   -7.9734  -13.2967 C   0  0  0  0  0  0  0  0  0  0  0  0
   20.0814   -7.6248  -14.4410 C   0  0  2  0  0  0  0  0  0  0  0  0
   20.3599   -8.5121  -15.5483 N   0  0  0  0  0  0  0  0  0  0  0  0
   20.1421   -6.2439  -14.9046 C   0  0  0  0  0  0  0  0  0  0  0  0
   21.1086   -5.8729  -15.6102 O   0  0  0  0  0  0  0  0  0  0  0  0
   19.6223   -7.6025  -11.1851 C   0  0  0  0  0  0  0  0  0  0  0  0
   19.2637   -6.8354  -10.0940 C   0  0  0  0  0  0  0  0  0  0  0  0
   18.2041   -2.4049  -16.6397 O   0  0  0  0  0  0  0  0  0  0  0  0
   18.1457   -3.7225  -16.2182 C   0  0  0  0  0  0  0  0  0  0  0  0
   19.2348   -3.9366  -15.1895 C   0  0  2  0  0  0  0  0  0  0  0  0
   19.1634   -5.2545  -14.6116 N   0  0  0  0  0  0  0  0  0  0  0  0
   19.1036   -2.9392  -14.1105 C   0  0  0  0  0  0  0  0  0  0  0  0
   18.4212   -3.2050  -13.0951 O   0  0  0  0  0  0  0  0  0  0  0  0
   19.7438   -1.7054  -14.2336 O   0  0  0  0  0  0  0  0  0  0  0  0
  2  1  1  6
  2  9  1  0
  3  2  1  0
  3  4  1  0
  4  5  2  0
  4  8  1  0
  5  6  1  0
  6  7  1  0
  8  7  2  0
  9 18  1  0
  9 10  2  0
 11 12  1  0
 12 22  2  0
 13 12  1  0
 13 14  2  0
 14 15  1  0
 15 21  2  0
 15 16  1  0
 17 16  1  1
 18 17  1  0
 19 17  1  0
 19 20  2  0
 22 21  1  0
 23 24  1  0
 25 24  1  6
 25 26  1  0
 26 19  1  0
 27 25  1  0
 28 27  2  0
 29 27  1  0
M  END
$$$$
