HYS.pdb
     RDKit          3D

 29 30  0  0  1  0  0  0  0  0999 V2000
   26.5245  -19.3346  -17.3293 N   0  0  0  0  0  0  0  0  0  0  0  0
   26.2791  -20.7303  -17.1631 C   0  0  1  0  0  0  0  0  0  0  0  0
   27.6099  -21.4749  -17.1825 C   0  0  0  0  0  0  0  0  0  0  0  0
   28.0621  -21.5746  -18.5949 C   0  0  0  0  0  0  0  0  0  0  0  0
   28.4684  -20.5517  -19.4103 C   0  0  0  0  0  0  0  0  0  0  0  0
   28.7990  -21.0732  -20.6257 N   0  0  0  0  0  0  0  0  0  0  0  0
   28.6050  -22.3859  -20.5726 C   0  0  0  0  0  0  0  0  0  0  0  0
   28.1581  -22.7054  -19.3470 N   0  0  0  0  0  0  0  0  0  0  0  0
   25.5166  -21.0511  -15.9308 C   0  0  0  0  0  0  0  0  0  0  0  0
   25.3850  -22.2584  -15.6203 O   0  0  0  0  0  0  0  0  0  0  0  0
   29.9537  -21.5282  -11.4268 O   0  0  0  0  0  0  0  0  0  0  0  0
   28.6942  -21.0298  -11.7680 C   0  0  0  0  0  0  0  0  0  0  0  0
   27.5305  -21.5248  -11.2170 C   0  0  0  0  0  0  0  0  0  0  0  0
   26.3000  -21.0159  -11.5703 C   0  0  0  0  0  0  0  0  0  0  0  0
   26.1779  -19.9848  -12.4943 C   0  0  0  0  0  0  0  0  0  0  0  0
   24.8327  -19.4608  -12.8493 C   0  0  0  0  0  0  0  0  0  0  0  0
   24.2756  -20.2742  -13.9576 C   0  0  2  0  0  0  0  0  0  0  0  0
   24.9839  -19.9693  -15.1810 N   0  0  0  0  0  0  0  0  0  0  0  0
   22.8414  -20.1539  -14.1899 C   0  0  0  0  0  0  0  0  0  0  0  0
   22.3841  -19.0986  -14.6865 O   0  0  0  0  0  0  0  0  0  0  0  0
   27.3520  -19.5050  -13.0323 C   0  0  0  0  0  0  0  0  0  0  0  0
   28.5864  -20.0141  -12.6792 C   0  0  0  0  0  0  0  0  0  0  0  0
   20.4169  -22.4995  -15.8674 O   0  0  0  0  0  0  0  0  0  0  0  0
   19.8134  -22.1953  -14.6589 C   0  0  0  0  0  0  0  0  0  0  0  0
   20.4810  -20.9588  -14.0971 C   0  0  2  0  0  0  0  0  0  0  0  0
   21.8912  -21.1686  -13.8892 N   0  0  0  0  0  0  0  0  0  0  0  0
   19.8608  -20.6006  -12.8074 C   0  0  0  0  0  0  0  0  0  0  0  0
   20.4840  -20.7979  -11.7396 O   0  0  0  0  0  0  0  0  0  0  0  0
   18.5816  -20.0435  -12.7912 O   0  0  0  0  0  0  0  0  0  0  0  0
  2  1  1  1
  2  9  1  0
  3  2  1  0
  3  4  1  0
  4  5  2  0
  4  8  1  0
  5  6  1  0
  6  7  1  0
  8  7  2  0
  9 18  1  0
  9 10  2  0
 11 12  1  0
 12 22  2  0
 13 12  1  0
 13 14  2  0
 14 15  1  0
 15 21  2  0
 15 16  1  0
 17 16  1  1
 18 17  1  0
 19 17  1  0
 19 20  2  0
 22 21  1  0
 23 24  1  0
 25 24  1  1
 25 26  1  0
 26 19  1  0
 27 25  1  0
 28 27  2  0
 29 27  1  0
M  END
$$$$
