HYS.pdb
     RDKit          3D

 29 30  0  0  1  0  0  0  0  0999 V2000
   20.7410  -12.9354  -17.9553 N   0  0  0  0  0  0  0  0  0  0  0  0
   20.3412  -11.7860  -17.2105 C   0  0  1  0  0  0  0  0  0  0  0  0
   19.7237  -12.2382  -15.8914 C   0  0  0  0  0  0  0  0  0  0  0  0
   18.5231  -13.0579  -16.2013 C   0  0  0  0  0  0  0  0  0  0  0  0
   17.3212  -12.6178  -16.6895 C   0  0  0  0  0  0  0  0  0  0  0  0
   16.4932  -13.6915  -16.8314 N   0  0  0  0  0  0  0  0  0  0  0  0
   17.1582  -14.7733  -16.4429 C   0  0  0  0  0  0  0  0  0  0  0  0
   18.3911  -14.4053  -16.0578 N   0  0  0  0  0  0  0  0  0  0  0  0
   21.4477  -10.8264  -16.9699 C   0  0  0  0  0  0  0  0  0  0  0  0
   22.6230  -11.2550  -17.0487 O   0  0  0  0  0  0  0  0  0  0  0  0
   26.6606   -4.4100  -18.5671 O   0  0  0  0  0  0  0  0  0  0  0  0
   25.7020   -5.4202  -18.4592 C   0  0  0  0  0  0  0  0  0  0  0  0
   26.0231   -6.7039  -18.0695 C   0  0  0  0  0  0  0  0  0  0  0  0
   25.0589   -7.6829  -17.9708 C   0  0  0  0  0  0  0  0  0  0  0  0
   23.7246   -7.4205  -18.2588 C   0  0  0  0  0  0  0  0  0  0  0  0
   22.7122   -8.5026  -18.1394 C   0  0  0  0  0  0  0  0  0  0  0  0
   22.1379   -8.4767  -16.7720 C   0  0  2  0  0  0  0  0  0  0  0  0
   21.1046   -9.4827  -16.6652 N   0  0  0  0  0  0  0  0  0  0  0  0
   21.6107   -7.1960  -16.3166 C   0  0  0  0  0  0  0  0  0  0  0  0
   20.6791   -6.6518  -16.9533 O   0  0  0  0  0  0  0  0  0  0  0  0
   23.4255   -6.1326  -18.6459 C   0  0  0  0  0  0  0  0  0  0  0  0
   24.3910   -5.1500  -18.7454 C   0  0  0  0  0  0  0  0  0  0  0  0
   21.6426   -6.0112  -12.5239 O   0  0  0  0  0  0  0  0  0  0  0  0
   20.7557   -5.4356  -13.4180 C   0  0  0  0  0  0  0  0  0  0  0  0
   21.4668   -5.2646  -14.7428 C   0  0  2  0  0  0  0  0  0  0  0  0
   22.0830   -6.4937  -15.1736 N   0  0  0  0  0  0  0  0  0  0  0  0
   22.5114   -4.2304  -14.6173 C   0  0  0  0  0  0  0  0  0  0  0  0
   23.7172   -4.5438  -14.7401 O   0  0  0  0  0  0  0  0  0  0  0  0
   22.1429   -2.9090  -14.3621 O   0  0  0  0  0  0  0  0  0  0  0  0
  2  1  1  1
  2  9  1  0
  3  2  1  0
  3  4  1  0
  4  5  2  0
  4  8  1  0
  5  6  1  0
  6  7  1  0
  8  7  2  0
  9 18  1  0
  9 10  2  0
 11 12  1  0
 12 22  2  0
 13 12  1  0
 13 14  2  0
 14 15  1  0
 15 21  2  0
 15 16  1  0
 17 16  1  6
 18 17  1  0
 19 17  1  0
 19 20  2  0
 22 21  1  0
 23 24  1  0
 25 24  1  1
 25 26  1  0
 26 19  1  0
 27 25  1  0
 28 27  2  0
 29 27  1  0
M  END
$$$$
