PSI.pdb
     RDKit          3D

 22 22  0  0  1  0  0  0  0  0999 V2000
    8.5075  -15.1650   18.6957 N   0  0  0  0  0  0  0  0  0  0  0  0
    8.7652  -14.5090   17.4226 C   0  0  0  0  0  0  0  0  0  0  0  0
    7.9581  -13.2474   17.4304 C   0  0  0  0  0  0  0  0  0  0  0  0
    7.4764  -13.1157   18.8719 C   0  0  0  0  0  0  0  0  0  0  0  0
    8.4427  -14.0309   19.5947 C   0  0  1  0  0  0  0  0  0  0  0  0
    7.8892  -14.4001   20.9181 C   0  0  0  0  0  0  0  0  0  0  0  0
    7.7956  -13.4948   21.7775 O   0  0  0  0  0  0  0  0  0  0  0  0
    7.5990  -18.2863   22.5867 O   0  0  0  0  0  0  0  0  0  0  0  0
    6.4688  -17.5100   22.5363 C   0  0  0  0  0  0  0  0  0  0  0  0
    6.8492  -16.0462   22.5230 C   0  0  2  0  0  0  0  0  0  0  0  0
    7.4707  -15.7231   21.2332 N   0  0  0  0  0  0  0  0  0  0  0  0
    7.7319  -15.6442   23.6220 C   0  0  0  0  0  0  0  0  0  0  0  0
    8.9617  -15.5016   23.3907 O   0  0  0  0  0  0  0  0  0  0  0  0
    5.9378  -11.8444   26.8751 C   0  0  0  0  0  0  0  0  0  0  0  0
    6.8400  -12.6451   25.9604 C   0  0  0  0  0  0  0  0  0  0  0  0
    7.4773  -13.7315   26.7618 C   0  0  2  0  0  0  0  0  0  0  0  0
    8.4692  -13.1336   27.7228 C   0  0  0  0  0  0  0  0  0  0  0  0
    8.1863  -14.7618   25.9255 C   0  0  2  0  0  0  0  0  0  0  0  0
    7.3256  -15.3925   24.9581 N   0  0  0  0  0  0  0  0  0  0  0  0
    8.7230  -15.8001   26.8308 C   0  0  0  0  0  0  0  0  0  0  0  0
    8.0819  -16.8386   27.1393 O   0  0  0  0  0  0  0  0  0  0  0  0
    9.9855  -15.6314   27.3680 O   0  0  0  0  0  0  0  0  0  0  0  0
  2  1  1  0
  3  2  1  0
  4  3  1  0
  4  5  1  0
  5  1  1  0
  5  6  1  1
  6 11  1  0
  7  6  2  0
  8  9  1  0
 10  9  1  6
 10 11  1  0
 10 12  1  0
 12 13  2  0
 12 19  1  0
 15 14  1  0
 16 17  1  1
 16 15  1  0
 18 16  1  0
 18 19  1  6
 20 18  1  0
 20 22  1  0
 21 20  2  0
M  END
$$$$
