PSI.pdb
     RDKit          3D

 22 22  0  0  1  0  0  0  0  0999 V2000
    7.7498  -15.1060   18.6050 N   0  0  0  0  0  0  0  0  0  0  0  0
    8.0680  -14.1616   17.5447 C   0  0  0  0  0  0  0  0  0  0  0  0
    8.0513  -12.8030   18.1747 C   0  0  0  0  0  0  0  0  0  0  0  0
    7.9866  -13.0820   19.6731 C   0  0  0  0  0  0  0  0  0  0  0  0
    8.4522  -14.5221   19.7294 C   0  0  1  0  0  0  0  0  0  0  0  0
    8.0455  -15.1307   21.0171 C   0  0  0  0  0  0  0  0  0  0  0  0
    6.8695  -14.9385   21.4005 O   0  0  0  0  0  0  0  0  0  0  0  0
   10.3080  -18.0043   23.0770 O   0  0  0  0  0  0  0  0  0  0  0  0
    8.9439  -17.9088   23.1895 C   0  0  0  0  0  0  0  0  0  0  0  0
    8.5203  -16.4590   23.1093 C   0  0  2  0  0  0  0  0  0  0  0  0
    8.9323  -15.9093   21.8122 N   0  0  0  0  0  0  0  0  0  0  0  0
    9.0338  -15.6214   24.1971 C   0  0  0  0  0  0  0  0  0  0  0  0
   10.1084  -14.9891   24.0199 O   0  0  0  0  0  0  0  0  0  0  0  0
    6.2533  -11.9722   26.6754 C   0  0  0  0  0  0  0  0  0  0  0  0
    7.3866  -12.7388   26.0276 C   0  0  0  0  0  0  0  0  0  0  0  0
    8.0048  -13.6245   27.0582 C   0  0  2  0  0  0  0  0  0  0  0  0
    8.7120  -12.7837   28.0867 C   0  0  0  0  0  0  0  0  0  0  0  0
    8.9884  -14.6128   26.4931 C   0  0  2  0  0  0  0  0  0  0  0  0
    8.4217  -15.4478   25.4655 N   0  0  0  0  0  0  0  0  0  0  0  0
    9.4612  -15.4748   27.5973 C   0  0  0  0  0  0  0  0  0  0  0  0
    8.9510  -16.5955   27.8588 O   0  0  0  0  0  0  0  0  0  0  0  0
   10.5110  -15.0385   28.3838 O   0  0  0  0  0  0  0  0  0  0  0  0
  2  1  1  0
  3  2  1  0
  4  3  1  0
  4  5  1  0
  5  1  1  0
  5  6  1  1
  6 11  1  0
  7  6  2  0
  8  9  1  0
 10  9  1  1
 10 11  1  0
 10 12  1  0
 12 13  2  0
 12 19  1  0
 15 14  1  0
 16 17  1  1
 16 15  1  0
 18 16  1  0
 18 19  1  6
 20 18  1  0
 20 22  1  0
 21 20  2  0
M  END
$$$$
