PSI.pdb
     RDKit          3D

 22 22  0  0  1  0  0  0  0  0999 V2000
    8.5610  -15.0379   18.8693 N   0  0  0  0  0  0  0  0  0  0  0  0
    8.6573  -14.3148   17.6102 C   0  0  0  0  0  0  0  0  0  0  0  0
    7.7324  -13.1429   17.7283 C   0  0  0  0  0  0  0  0  0  0  0  0
    7.3484  -13.1116   19.2043 C   0  0  0  0  0  0  0  0  0  0  0  0
    8.4514  -13.9486   19.8179 C   0  0  1  0  0  0  0  0  0  0  0  0
    8.0369  -14.4184   21.1601 C   0  0  0  0  0  0  0  0  0  0  0  0
    7.9162  -13.5578   22.0611 O   0  0  0  0  0  0  0  0  0  0  0  0
    8.1902  -18.3433   22.9243 O   0  0  0  0  0  0  0  0  0  0  0  0
    6.9936  -17.7061   22.7127 C   0  0  0  0  0  0  0  0  0  0  0  0
    7.1977  -16.2075   22.7291 C   0  0  2  0  0  0  0  0  0  0  0  0
    7.7780  -15.7877   21.4480 N   0  0  0  0  0  0  0  0  0  0  0  0
    8.0253  -15.7254   23.8388 C   0  0  0  0  0  0  0  0  0  0  0  0
    9.2713  -15.6446   23.6752 O   0  0  0  0  0  0  0  0  0  0  0  0
    6.0033  -11.7193   26.4544 C   0  0  0  0  0  0  0  0  0  0  0  0
    7.1034  -12.4939   25.7607 C   0  0  0  0  0  0  0  0  0  0  0  0
    7.6657  -13.4814   26.7290 C   0  0  2  0  0  0  0  0  0  0  0  0
    8.6377  -12.7902   27.6468 C   0  0  0  0  0  0  0  0  0  0  0  0
    8.3706  -14.6368   26.0719 C   0  0  2  0  0  0  0  0  0  0  0  0
    7.5469  -15.3295   25.1148 N   0  0  0  0  0  0  0  0  0  0  0  0
    8.7750  -15.5901   27.1271 C   0  0  0  0  0  0  0  0  0  0  0  0
    9.7147  -15.3623   27.9331 O   0  0  0  0  0  0  0  0  0  0  0  0
    8.0961  -16.7888   27.2415 O   0  0  0  0  0  0  0  0  0  0  0  0
  2  1  1  0
  3  2  1  0
  4  3  1  0
  4  5  1  0
  5  1  1  0
  5  6  1  1
  6 11  1  0
  7  6  2  0
  8  9  1  0
 10  9  1  6
 10 11  1  0
 10 12  1  0
 12 13  2  0
 12 19  1  0
 15 14  1  0
 16 17  1  1
 16 15  1  0
 18 16  1  0
 18 19  1  6
 20 18  1  0
 20 22  1  0
 21 20  2  0
M  END
$$$$
