PSI.pdb
     RDKit          3D

 22 22  0  0  1  0  0  0  0  0999 V2000
    7.5001  -14.7676   18.8622 N   0  0  0  0  0  0  0  0  0  0  0  0
    7.8591  -13.7647   17.8709 C   0  0  0  0  0  0  0  0  0  0  0  0
    8.1473  -12.5075   18.6321 C   0  0  0  0  0  0  0  0  0  0  0  0
    8.1998  -12.9522   20.0904 C   0  0  0  0  0  0  0  0  0  0  0  0
    8.4120  -14.4443   19.9404 C   0  0  1  0  0  0  0  0  0  0  0  0
    8.0496  -15.1317   21.2014 C   0  0  0  0  0  0  0  0  0  0  0  0
    6.8416  -15.1363   21.5297 O   0  0  0  0  0  0  0  0  0  0  0  0
   10.3562  -17.9821   23.1010 O   0  0  0  0  0  0  0  0  0  0  0  0
    9.0071  -17.8386   23.3053 C   0  0  0  0  0  0  0  0  0  0  0  0
    8.6410  -16.3711   23.3183 C   0  0  2  0  0  0  0  0  0  0  0  0
    9.0123  -15.7720   22.0309 N   0  0  0  0  0  0  0  0  0  0  0  0
    9.2410  -15.6114   24.4188 C   0  0  0  0  0  0  0  0  0  0  0  0
   10.3347  -15.0191   24.2212 O   0  0  0  0  0  0  0  0  0  0  0  0
    6.4507  -12.1828   27.0740 C   0  0  0  0  0  0  0  0  0  0  0  0
    7.6671  -12.7834   26.4022 C   0  0  0  0  0  0  0  0  0  0  0  0
    8.3414  -13.6922   27.3759 C   0  0  2  0  0  0  0  0  0  0  0  0
    9.0892  -12.8745   28.3942 C   0  0  0  0  0  0  0  0  0  0  0  0
    9.3057  -14.6537   26.7361 C   0  0  2  0  0  0  0  0  0  0  0  0
    8.6951  -15.4734   25.7214 N   0  0  0  0  0  0  0  0  0  0  0  0
    9.8486  -15.5334   27.7930 C   0  0  0  0  0  0  0  0  0  0  0  0
    9.3917  -16.6820   28.0306 O   0  0  0  0  0  0  0  0  0  0  0  0
   10.9062  -15.0824   28.5606 O   0  0  0  0  0  0  0  0  0  0  0  0
  2  1  1  0
  3  2  1  0
  4  3  1  0
  4  5  1  0
  5  1  1  0
  5  6  1  1
  6 11  1  0
  7  6  2  0
  8  9  1  0
 10  9  1  6
 10 11  1  0
 10 12  1  0
 12 13  2  0
 12 19  1  0
 15 14  1  0
 16 17  1  1
 16 15  1  0
 18 16  1  0
 18 19  1  6
 20 18  1  0
 20 22  1  0
 21 20  2  0
M  END
$$$$
