PSI.pdb
     RDKit          3D

 22 22  0  0  1  0  0  0  0  0999 V2000
    8.7521  -15.1623   18.6317 N   0  0  0  0  0  0  0  0  0  0  0  0
    8.9737  -14.5468   17.3318 C   0  0  0  0  0  0  0  0  0  0  0  0
    8.0777  -13.3480   17.2777 C   0  0  0  0  0  0  0  0  0  0  0  0
    7.5744  -13.1873   18.7088 C   0  0  0  0  0  0  0  0  0  0  0  0
    8.5974  -13.9969   19.4781 C   0  0  1  0  0  0  0  0  0  0  0  0
    8.0597  -14.3458   20.8134 C   0  0  0  0  0  0  0  0  0  0  0  0
    7.8479  -13.4068   21.6138 O   0  0  0  0  0  0  0  0  0  0  0  0
    8.2834  -18.0704   22.7704 O   0  0  0  0  0  0  0  0  0  0  0  0
    7.0428  -17.4996   22.6380 C   0  0  0  0  0  0  0  0  0  0  0  0
    7.1776  -15.9991   22.5033 C   0  0  2  0  0  0  0  0  0  0  0  0
    7.7834  -15.6860   21.2036 N   0  0  0  0  0  0  0  0  0  0  0  0
    7.9421  -15.3647   23.5810 C   0  0  0  0  0  0  0  0  0  0  0  0
    9.1898  -15.2506   23.4532 O   0  0  0  0  0  0  0  0  0  0  0  0
    5.6983  -11.7707   27.3843 C   0  0  0  0  0  0  0  0  0  0  0  0
    6.1939  -13.0949   26.8435 C   0  0  0  0  0  0  0  0  0  0  0  0
    7.5475  -12.8836   26.2502 C   0  0  2  0  0  0  0  0  0  0  0  0
    7.4479  -11.9225   25.0964 C   0  0  0  0  0  0  0  0  0  0  0  0
    8.1962  -14.1498   25.7605 C   0  0  2  0  0  0  0  0  0  0  0  0
    7.3994  -14.8520   24.7878 N   0  0  0  0  0  0  0  0  0  0  0  0
    8.4136  -15.0357   26.9240 C   0  0  0  0  0  0  0  0  0  0  0  0
    7.8268  -16.1406   27.0634 O   0  0  0  0  0  0  0  0  0  0  0  0
    9.2998  -14.6410   27.9088 O   0  0  0  0  0  0  0  0  0  0  0  0
  2  1  1  0
  3  2  1  0
  4  3  1  0
  4  5  1  0
  5  1  1  0
  5  6  1  1
  6 11  1  0
  7  6  2  0
  8  9  1  0
 10  9  1  1
 10 11  1  0
 10 12  1  0
 12 13  2  0
 12 19  1  0
 15 14  1  0
 16 17  1  6
 16 15  1  0
 18 16  1  0
 18 19  1  6
 20 18  1  0
 20 22  1  0
 21 20  2  0
M  END
$$$$
