PSI.pdb
     RDKit          3D

 22 22  0  0  1  0  0  0  0  0999 V2000
    8.3278  -15.3364   18.9698 N   0  0  0  0  0  0  0  0  0  0  0  0
    8.4945  -14.6648   17.6897 C   0  0  0  0  0  0  0  0  0  0  0  0
    7.6934  -13.4021   17.7715 C   0  0  0  0  0  0  0  0  0  0  0  0
    7.3174  -13.2878   19.2455 C   0  0  0  0  0  0  0  0  0  0  0  0
    8.3311  -14.2136   19.8852 C   0  0  1  0  0  0  0  0  0  0  0  0
    7.8737  -14.5985   21.2404 C   0  0  0  0  0  0  0  0  0  0  0  0
    7.8211  -13.6987   22.1091 O   0  0  0  0  0  0  0  0  0  0  0  0
    7.6949  -18.4792   23.0042 O   0  0  0  0  0  0  0  0  0  0  0  0
    6.5511  -17.7283   22.9020 C   0  0  0  0  0  0  0  0  0  0  0  0
    6.9011  -16.2571   22.8745 C   0  0  2  0  0  0  0  0  0  0  0  0
    7.5011  -15.9303   21.5754 N   0  0  0  0  0  0  0  0  0  0  0  0
    7.7878  -15.8294   23.9604 C   0  0  0  0  0  0  0  0  0  0  0  0
    9.0314  -15.8260   23.7619 O   0  0  0  0  0  0  0  0  0  0  0  0
    6.3020  -11.5496   26.6374 C   0  0  0  0  0  0  0  0  0  0  0  0
    7.1358  -12.5556   25.8729 C   0  0  0  0  0  0  0  0  0  0  0  0
    7.6666  -13.5596   26.8419 C   0  0  2  0  0  0  0  0  0  0  0  0
    8.7190  -12.9189   27.7060 C   0  0  0  0  0  0  0  0  0  0  0  0
    8.2642  -14.7744   26.1855 C   0  0  2  0  0  0  0  0  0  0  0  0
    7.3709  -15.4067   25.2493 N   0  0  0  0  0  0  0  0  0  0  0  0
    8.6081  -15.7476   27.2440 C   0  0  0  0  0  0  0  0  0  0  0  0
    7.8362  -16.6768   27.5980 O   0  0  0  0  0  0  0  0  0  0  0  0
    9.8310  -15.6402   27.8796 O   0  0  0  0  0  0  0  0  0  0  0  0
  2  1  1  0
  3  2  1  0
  4  3  1  0
  4  5  1  0
  5  1  1  0
  5  6  1  1
  6 11  1  0
  7  6  2  0
  8  9  1  0
 10  9  1  6
 10 11  1  0
 10 12  1  0
 12 13  2  0
 12 19  1  0
 15 14  1  0
 16 17  1  6
 16 15  1  0
 18 16  1  0
 18 19  1  6
 20 18  1  0
 20 22  1  0
 21 20  2  0
M  END
$$$$
