PSI.pdb
     RDKit          3D

 22 22  0  0  1  0  0  0  0  0999 V2000
    8.6978  -15.0565   18.7322 N   0  0  0  0  0  0  0  0  0  0  0  0
    8.9317  -14.3748   17.4680 C   0  0  0  0  0  0  0  0  0  0  0  0
    8.0560  -13.1598   17.4789 C   0  0  0  0  0  0  0  0  0  0  0  0
    7.5531  -13.0692   18.9163 C   0  0  0  0  0  0  0  0  0  0  0  0
    8.5612  -13.9366   19.6409 C   0  0  1  0  0  0  0  0  0  0  0  0
    8.0156  -14.3488   20.9548 C   0  0  0  0  0  0  0  0  0  0  0  0
    7.8179  -13.4515   21.8049 O   0  0  0  0  0  0  0  0  0  0  0  0
    8.0728  -18.2179   22.8192 O   0  0  0  0  0  0  0  0  0  0  0  0
    6.8858  -17.5734   22.5781 C   0  0  0  0  0  0  0  0  0  0  0  0
    7.1073  -16.0774   22.5529 C   0  0  2  0  0  0  0  0  0  0  0  0
    7.7168  -15.7036   21.2711 N   0  0  0  0  0  0  0  0  0  0  0  0
    7.9193  -15.5709   23.6632 C   0  0  0  0  0  0  0  0  0  0  0  0
    9.1524  -15.3923   23.4803 O   0  0  0  0  0  0  0  0  0  0  0  0
    5.6732  -11.7994   26.7048 C   0  0  0  0  0  0  0  0  0  0  0  0
    6.6203  -12.5857   25.8236 C   0  0  0  0  0  0  0  0  0  0  0  0
    7.4116  -13.5088   26.6900 C   0  0  2  0  0  0  0  0  0  0  0  0
    8.3467  -12.7092   27.5566 C   0  0  0  0  0  0  0  0  0  0  0  0
    8.2211  -14.5152   25.9183 C   0  0  2  0  0  0  0  0  0  0  0  0
    7.4389  -15.2529   24.9601 N   0  0  0  0  0  0  0  0  0  0  0  0
    8.8117  -15.4679   26.8822 C   0  0  0  0  0  0  0  0  0  0  0  0
    9.7458  -15.1584   27.6673 O   0  0  0  0  0  0  0  0  0  0  0  0
    8.3224  -16.7599   26.9309 O   0  0  0  0  0  0  0  0  0  0  0  0
  2  1  1  0
  3  2  1  0
  4  3  1  0
  4  5  1  0
  5  1  1  0
  5  6  1  1
  6 11  1  0
  7  6  2  0
  8  9  1  0
 10  9  1  1
 10 11  1  0
 10 12  1  0
 12 13  2  0
 12 19  1  0
 15 14  1  0
 16 17  1  6
 16 15  1  0
 18 16  1  0
 18 19  1  6
 20 18  1  0
 20 22  1  0
 21 20  2  0
M  END
$$$$
