PSI.pdb
     RDKit          3D

 22 22  0  0  1  0  0  0  0  0999 V2000
   10.4035  -16.5960   19.4971 N   0  0  0  0  0  0  0  0  0  0  0  0
   11.2454  -17.3917   18.6165 C   0  0  0  0  0  0  0  0  0  0  0  0
   12.2012  -18.1283   19.5035 C   0  0  0  0  0  0  0  0  0  0  0  0
   11.6553  -17.9101   20.9112 C   0  0  0  0  0  0  0  0  0  0  0  0
   10.2280  -17.4973   20.6176 C   0  0  1  0  0  0  0  0  0  0  0  0
    9.6509  -16.8130   21.7977 C   0  0  0  0  0  0  0  0  0  0  0  0
    9.8711  -15.5867   21.9188 O   0  0  0  0  0  0  0  0  0  0  0  0
    7.2000  -18.7577   24.6266 O   0  0  0  0  0  0  0  0  0  0  0  0
    7.0152  -17.4292   24.3381 C   0  0  0  0  0  0  0  0  0  0  0  0
    8.3336  -16.7978   23.9498 C   0  0  2  0  0  0  0  0  0  0  0  0
    8.8718  -17.4935   22.7748 N   0  0  0  0  0  0  0  0  0  0  0  0
    9.3308  -16.7786   25.0240 C   0  0  0  0  0  0  0  0  0  0  0  0
   10.4006  -17.4249   24.8697 O   0  0  0  0  0  0  0  0  0  0  0  0
    9.1786  -12.9405   29.0298 C   0  0  0  0  0  0  0  0  0  0  0  0
    9.8254  -13.7479   27.9246 C   0  0  0  0  0  0  0  0  0  0  0  0
    9.9736  -15.1566   28.3964 C   0  0  2  0  0  0  0  0  0  0  0  0
   11.1221  -15.2456   29.3649 C   0  0  0  0  0  0  0  0  0  0  0  0
   10.2100  -16.1434   27.2855 C   0  0  2  0  0  0  0  0  0  0  0  0
    9.2057  -16.0837   26.2549 N   0  0  0  0  0  0  0  0  0  0  0  0
   10.2108  -17.5019   27.8686 C   0  0  0  0  0  0  0  0  0  0  0  0
   11.2643  -18.1025   28.2062 O   0  0  0  0  0  0  0  0  0  0  0  0
    9.0042  -18.1502   28.0555 O   0  0  0  0  0  0  0  0  0  0  0  0
  2  1  1  0
  3  2  1  0
  4  3  1  0
  4  5  1  0
  5  1  1  0
  5  6  1  1
  6 11  1  0
  7  6  2  0
  8  9  1  0
 10  9  1  1
 10 11  1  0
 10 12  1  0
 12 13  2  0
 12 19  1  0
 15 14  1  0
 16 17  1  1
 16 15  1  0
 18 16  1  0
 18 19  1  6
 20 18  1  0
 20 22  1  0
 21 20  2  0
M  END
$$$$
