PSI.pdb
     RDKit          3D

 22 22  0  0  1  0  0  0  0  0999 V2000
    7.6543  -14.9139   18.3979 N   0  0  0  0  0  0  0  0  0  0  0  0
    7.9388  -13.8247   17.4759 C   0  0  0  0  0  0  0  0  0  0  0  0
    7.9656  -12.5744   18.2999 C   0  0  0  0  0  0  0  0  0  0  0  0
    7.9612  -13.0719   19.7420 C   0  0  0  0  0  0  0  0  0  0  0  0
    8.4110  -14.5072   19.5644 C   0  0  1  0  0  0  0  0  0  0  0  0
    8.0520  -15.2975   20.7646 C   0  0  0  0  0  0  0  0  0  0  0  0
    7.0772  -16.0774   20.6718 O   0  0  0  0  0  0  0  0  0  0  0  0
    9.8744  -17.8149   22.8688 O   0  0  0  0  0  0  0  0  0  0  0  0
    8.5483  -17.4647   22.8338 C   0  0  0  0  0  0  0  0  0  0  0  0
    8.3939  -15.9969   23.1648 C   0  0  2  0  0  0  0  0  0  0  0  0
    8.7664  -15.1981   21.9911 N   0  0  0  0  0  0  0  0  0  0  0  0
    9.1610  -15.5603   24.3350 C   0  0  0  0  0  0  0  0  0  0  0  0
   10.3821  -15.2876   24.1922 O   0  0  0  0  0  0  0  0  0  0  0  0
    6.5465  -11.9540   26.9806 C   0  0  0  0  0  0  0  0  0  0  0  0
    7.5970  -12.7634   26.2506 C   0  0  0  0  0  0  0  0  0  0  0  0
    8.3471  -13.5747   27.2545 C   0  0  2  0  0  0  0  0  0  0  0  0
    9.1460  -12.6617   28.1451 C   0  0  0  0  0  0  0  0  0  0  0  0
    9.2834  -14.5797   26.6403 C   0  0  2  0  0  0  0  0  0  0  0  0
    8.6484  -15.4102   25.6498 N   0  0  0  0  0  0  0  0  0  0  0  0
    9.8044  -15.4442   27.7206 C   0  0  0  0  0  0  0  0  0  0  0  0
   10.6402  -15.0466   28.5738 O   0  0  0  0  0  0  0  0  0  0  0  0
    9.3591  -16.7501   27.8055 O   0  0  0  0  0  0  0  0  0  0  0  0
  2  1  1  0
  3  2  1  0
  4  3  1  0
  4  5  1  0
  5  1  1  0
  5  6  1  1
  6 11  1  0
  7  6  2  0
  8  9  1  0
 10  9  1  6
 10 11  1  0
 10 12  1  0
 12 13  2  0
 12 19  1  0
 15 14  1  0
 16 17  1  1
 16 15  1  0
 18 16  1  0
 18 19  1  6
 20 18  1  0
 20 22  1  0
 21 20  2  0
M  END
$$$$
