PSI.pdb
     RDKit          3D

 22 22  0  0  1  0  0  0  0  0999 V2000
    8.5878  -15.1879   18.7349 N   0  0  0  0  0  0  0  0  0  0  0  0
    8.8920  -14.5267   17.4749 C   0  0  0  0  0  0  0  0  0  0  0  0
    8.1333  -13.2355   17.4855 C   0  0  0  0  0  0  0  0  0  0  0  0
    7.6323  -13.1032   18.9203 C   0  0  0  0  0  0  0  0  0  0  0  0
    8.5507  -14.0633   19.6473 C   0  0  1  0  0  0  0  0  0  0  0  0
    7.9610  -14.4274   20.9563 C   0  0  0  0  0  0  0  0  0  0  0  0
    7.8409  -13.5180   21.8082 O   0  0  0  0  0  0  0  0  0  0  0  0
    7.6645  -18.2970   22.7118 O   0  0  0  0  0  0  0  0  0  0  0  0
    6.5305  -17.5393   22.5623 C   0  0  0  0  0  0  0  0  0  0  0  0
    6.8907  -16.0704   22.5444 C   0  0  2  0  0  0  0  0  0  0  0  0
    7.5370  -15.7499   21.2662 N   0  0  0  0  0  0  0  0  0  0  0  0
    7.7423  -15.6464   23.6595 C   0  0  0  0  0  0  0  0  0  0  0  0
    8.9767  -15.4994   23.4578 O   0  0  0  0  0  0  0  0  0  0  0  0
    5.7486  -11.9142   26.9028 C   0  0  0  0  0  0  0  0  0  0  0  0
    6.6807  -12.6781   25.9867 C   0  0  0  0  0  0  0  0  0  0  0  0
    7.3822  -13.7206   26.7928 C   0  0  2  0  0  0  0  0  0  0  0  0
    8.3554  -13.0612   27.7325 C   0  0  0  0  0  0  0  0  0  0  0  0
    8.1311  -14.7251   25.9597 C   0  0  2  0  0  0  0  0  0  0  0  0
    7.3002  -15.3775   24.9808 N   0  0  0  0  0  0  0  0  0  0  0  0
    8.6898  -15.7505   26.8664 C   0  0  0  0  0  0  0  0  0  0  0  0
    8.0927  -16.8253   27.1366 O   0  0  0  0  0  0  0  0  0  0  0  0
    9.9236  -15.5276   27.4488 O   0  0  0  0  0  0  0  0  0  0  0  0
  2  1  1  0
  3  2  1  0
  4  3  1  0
  4  5  1  0
  5  1  1  0
  5  6  1  1
  6 11  1  0
  7  6  2  0
  8  9  1  0
 10  9  1  1
 10 11  1  0
 10 12  1  0
 12 13  2  0
 12 19  1  0
 15 14  1  0
 16 17  1  1
 16 15  1  0
 18 16  1  0
 18 19  1  6
 20 18  1  0
 20 22  1  0
 21 20  2  0
M  END
$$$$
