PSI.pdb
     RDKit          3D

 22 22  0  0  1  0  0  0  0  0999 V2000
    8.6652  -15.2525   18.7257 N   0  0  0  0  0  0  0  0  0  0  0  0
    8.9350  -14.6232   17.4417 C   0  0  0  0  0  0  0  0  0  0  0  0
    8.0530  -13.4148   17.3738 C   0  0  0  0  0  0  0  0  0  0  0  0
    7.5049  -13.2668   18.7898 C   0  0  0  0  0  0  0  0  0  0  0  0
    8.4944  -14.0962   19.5815 C   0  0  1  0  0  0  0  0  0  0  0  0
    7.9100  -14.4562   20.8941 C   0  0  0  0  0  0  0  0  0  0  0  0
    7.6345  -13.5211   21.6792 O   0  0  0  0  0  0  0  0  0  0  0  0
    6.5982  -17.9730   23.9945 O   0  0  0  0  0  0  0  0  0  0  0  0
    7.0094  -17.6391   22.7289 C   0  0  0  0  0  0  0  0  0  0  0  0
    7.1135  -16.1356   22.6006 C   0  0  2  0  0  0  0  0  0  0  0  0
    7.6588  -15.8028   21.2792 N   0  0  0  0  0  0  0  0  0  0  0  0
    7.9121  -15.4963   23.6504 C   0  0  0  0  0  0  0  0  0  0  0  0
    9.1658  -15.4785   23.5322 O   0  0  0  0  0  0  0  0  0  0  0  0
    5.8830  -11.7787   27.5308 C   0  0  0  0  0  0  0  0  0  0  0  0
    6.2944  -13.0973   26.9113 C   0  0  0  0  0  0  0  0  0  0  0  0
    7.6407  -12.9249   26.2894 C   0  0  2  0  0  0  0  0  0  0  0  0
    7.5463  -11.9531   25.1442 C   0  0  0  0  0  0  0  0  0  0  0  0
    8.2377  -14.2075   25.7774 C   0  0  2  0  0  0  0  0  0  0  0  0
    7.3971  -14.8779   24.8192 N   0  0  0  0  0  0  0  0  0  0  0  0
    8.4536  -15.1075   26.9302 C   0  0  0  0  0  0  0  0  0  0  0  0
    9.2630  -14.8495   27.8592 O   0  0  0  0  0  0  0  0  0  0  0  0
    7.7386  -16.2886   26.9998 O   0  0  0  0  0  0  0  0  0  0  0  0
  2  1  1  0
  3  2  1  0
  4  3  1  0
  4  5  1  0
  5  1  1  0
  5  6  1  1
  6 11  1  0
  7  6  2  0
  8  9  1  0
 10  9  1  1
 10 11  1  0
 10 12  1  0
 12 13  2  0
 12 19  1  0
 15 14  1  0
 16 17  1  6
 16 15  1  0
 18 16  1  0
 18 19  1  6
 20 18  1  0
 20 22  1  0
 21 20  2  0
M  END
$$$$
