PSI.pdb
     RDKit          3D

 22 22  0  0  1  0  0  0  0  0999 V2000
    7.0709  -15.0993   19.5760 N   0  0  0  0  0  0  0  0  0  0  0  0
    7.5369  -14.2743   18.4716 C   0  0  0  0  0  0  0  0  0  0  0  0
    7.8477  -12.9303   19.0546 C   0  0  0  0  0  0  0  0  0  0  0  0
    7.7952  -13.1513   20.5631 C   0  0  0  0  0  0  0  0  0  0  0  0
    7.9368  -14.6567   20.6497 C   0  0  1  0  0  0  0  0  0  0  0  0
    7.4689  -15.1292   21.9733 C   0  0  0  0  0  0  0  0  0  0  0  0
    6.4250  -14.6143   22.4340 O   0  0  0  0  0  0  0  0  0  0  0  0
    8.1811  -18.7633   23.6797 O   0  0  0  0  0  0  0  0  0  0  0  0
    7.2152  -17.8861   24.1042 C   0  0  0  0  0  0  0  0  0  0  0  0
    7.7581  -16.4744   24.0884 C   0  0  2  0  0  0  0  0  0  0  0  0
    8.1556  -16.1280   22.7187 N   0  0  0  0  0  0  0  0  0  0  0  0
    8.8762  -16.2497   25.0092 C   0  0  0  0  0  0  0  0  0  0  0  0
   10.0274  -16.0682   24.5320 O   0  0  0  0  0  0  0  0  0  0  0  0
    8.9682  -12.6624   28.8382 C   0  0  0  0  0  0  0  0  0  0  0  0
    9.3682  -13.5922   27.7125 C   0  0  0  0  0  0  0  0  0  0  0  0
    9.7079  -14.9222   28.2995 C   0  0  2  0  0  0  0  0  0  0  0  0
   10.9512  -14.8002   29.1386 C   0  0  0  0  0  0  0  0  0  0  0  0
    9.9316  -15.9968   27.2704 C   0  0  2  0  0  0  0  0  0  0  0  0
    8.7863  -16.2152   26.4250 N   0  0  0  0  0  0  0  0  0  0  0  0
   10.2445  -17.2557   27.9795 C   0  0  0  0  0  0  0  0  0  0  0  0
   11.3639  -17.4849   28.5079 O   0  0  0  0  0  0  0  0  0  0  0  0
    9.2697  -18.2315   28.0716 O   0  0  0  0  0  0  0  0  0  0  0  0
  2  1  1  0
  3  2  1  0
  4  3  1  0
  4  5  1  0
  5  1  1  0
  5  6  1  1
  6 11  1  0
  7  6  2  0
  8  9  1  0
 10  9  1  6
 10 11  1  0
 10 12  1  0
 12 13  2  0
 12 19  1  0
 15 14  1  0
 16 17  1  6
 16 15  1  0
 18 16  1  0
 18 19  1  1
 20 18  1  0
 20 22  1  0
 21 20  2  0
M  END
$$$$
