CQK.pdb
     RDKit          3D

 25 24  0  0  1  0  0  0  0  0999 V2000
    6.4456  -20.1035   21.9694 N   0  0  0  0  0  0  0  0  0  0  0  0
    6.2628  -18.6950   21.7176 C   0  0  1  0  0  0  0  0  0  0  0  0
    5.4110  -18.1082   22.8110 C   0  0  0  0  0  0  0  0  0  0  0  0
    6.2480  -18.3499   24.3899 S   0  0  0  0  0  0  0  0  0  0  0  0
    7.5576  -17.9616   21.5772 C   0  0  0  0  0  0  0  0  0  0  0  0
    8.5251  -18.2721   22.3105 O   0  0  0  0  0  0  0  0  0  0  0  0
    7.8241  -12.5548   18.0082 N   0  0  0  0  0  0  0  0  0  0  0  0
    8.3208  -13.0921   19.2158 C   0  0  0  0  0  0  0  0  0  0  0  0
    9.5095  -13.4866   19.2552 O   0  0  0  0  0  0  0  0  0  0  0  0
    7.5006  -13.2129   20.4449 C   0  0  0  0  0  0  0  0  0  0  0  0
    6.9210  -14.6078   20.5705 C   0  0  0  0  0  0  0  0  0  0  0  0
    8.0253  -15.5494   20.8839 C   0  0  2  0  0  0  0  0  0  0  0  0
    7.7306  -16.9183   20.6355 N   0  0  0  0  0  0  0  0  0  0  0  0
    8.7218  -15.2829   22.1859 C   0  0  0  0  0  0  0  0  0  0  0  0
    9.9314  -14.9454   22.2564 O   0  0  0  0  0  0  0  0  0  0  0  0
    8.0129  -15.4064   23.4247 N   0  0  0  0  0  0  0  0  0  0  0  0
    8.4223  -14.6193   24.5953 C   0  0  1  0  0  0  0  0  0  0  0  0
    7.2362  -13.8147   25.0801 C   0  0  0  0  0  0  0  0  0  0  0  0
    7.5545  -13.0360   26.3343 C   0  0  0  0  0  0  0  0  0  0  0  0
    6.3676  -12.1315   26.5945 C   0  0  0  0  0  0  0  0  0  0  0  0
    6.5664  -11.2645   27.8129 C   0  0  0  0  0  0  0  0  0  0  0  0
    5.3265  -10.5374   28.0251 N   0  0  0  0  0  0  0  0  0  0  0  0
    8.9509  -15.5081   25.6589 C   0  0  0  0  0  0  0  0  0  0  0  0
    9.5639  -15.0059   26.7929 O   0  0  0  0  0  0  0  0  0  0  0  0
    8.8489  -16.7534   25.5456 O   0  0  0  0  0  0  0  0  0  0  0  0
  2  1  1  1
  2  5  1  0
  3  2  1  0
  4  3  1  0
  5  6  2  0
  7  8  1  0
  8  9  2  0
  8 10  1  0
 10 11  1  0
 12 11  1  1
 13  5  1  0
 13 12  1  0
 14 12  1  0
 14 15  2  0
 16 14  1  0
 17 16  1  0
 17 23  1  0
 17 18  1  1
 19 18  1  0
 20 19  1  0
 21 20  1  0
 21 22  1  0
 23 24  1  0
 25 23  2  0
M  END
$$$$
