CQK.pdb
     RDKit          3D

 25 24  0  0  1  0  0  0  0  0999 V2000
   12.9918  -17.9970   16.1706 N   0  0  0  0  0  0  0  0  0  0  0  0
   11.8078  -18.1391   16.9824 C   0  0  1  0  0  0  0  0  0  0  0  0
   11.7110  -19.5623   17.4628 C   0  0  0  0  0  0  0  0  0  0  0  0
   11.5512  -20.6471   16.0312 S   0  0  0  0  0  0  0  0  0  0  0  0
   11.7701  -17.1717   18.1211 C   0  0  0  0  0  0  0  0  0  0  0  0
   12.8316  -16.8839   18.7215 O   0  0  0  0  0  0  0  0  0  0  0  0
    6.7449  -13.4745   20.0252 N   0  0  0  0  0  0  0  0  0  0  0  0
    7.7755  -13.3375   20.9806 C   0  0  0  0  0  0  0  0  0  0  0  0
    7.6265  -12.5134   21.9127 O   0  0  0  0  0  0  0  0  0  0  0  0
    9.0310  -14.1247   20.9344 C   0  0  0  0  0  0  0  0  0  0  0  0
    9.0602  -15.0204   19.7120 C   0  0  0  0  0  0  0  0  0  0  0  0
   10.3459  -15.7631   19.7039 C   0  0  2  0  0  0  0  0  0  0  0  0
   10.5651  -16.5634   18.5491 N   0  0  0  0  0  0  0  0  0  0  0  0
   10.6904  -16.4281   21.0040 C   0  0  0  0  0  0  0  0  0  0  0  0
   10.1530  -17.4991   21.3864 O   0  0  0  0  0  0  0  0  0  0  0  0
   11.6698  -15.8505   21.8755 N   0  0  0  0  0  0  0  0  0  0  0  0
   12.0871  -16.5564   23.0940 C   0  0  1  0  0  0  0  0  0  0  0  0
   13.4397  -16.0307   23.5224 C   0  0  0  0  0  0  0  0  0  0  0  0
   14.5549  -16.9891   23.1781 C   0  0  0  0  0  0  0  0  0  0  0  0
   15.8421  -16.3388   23.6415 C   0  0  0  0  0  0  0  0  0  0  0  0
   17.0317  -17.2538   23.4882 C   0  0  0  0  0  0  0  0  0  0  0  0
   18.2092  -16.4871   23.8581 N   0  0  0  0  0  0  0  0  0  0  0  0
   11.0726  -16.3896   24.1633 C   0  0  0  0  0  0  0  0  0  0  0  0
   11.0576  -17.1949   25.2882 O   0  0  0  0  0  0  0  0  0  0  0  0
   10.1948  -15.4988   24.0635 O   0  0  0  0  0  0  0  0  0  0  0  0
  2  1  1  1
  2  5  1  0
  3  2  1  0
  4  3  1  0
  5  6  2  0
  7  8  1  0
  8  9  2  0
  8 10  1  0
 10 11  1  0
 12 11  1  1
 13  5  1  0
 13 12  1  0
 14 12  1  0
 14 15  2  0
 16 14  1  0
 17 16  1  0
 17 23  1  0
 17 18  1  1
 19 18  1  0
 20 19  1  0
 21 20  1  0
 21 22  1  0
 23 24  1  0
 25 23  2  0
M  END
$$$$
