CQK.pdb
     RDKit          3D

 25 24  0  0  1  0  0  0  0  0999 V2000
    8.4143  -13.9978   17.1695 N   0  0  0  0  0  0  0  0  0  0  0  0
    9.2092  -14.0694   18.3711 C   0  0  1  0  0  0  0  0  0  0  0  0
    9.1931  -12.7262   19.0502 C   0  0  0  0  0  0  0  0  0  0  0  0
    7.6559  -12.5655   19.9793 S   0  0  0  0  0  0  0  0  0  0  0  0
    8.7618  -15.1565   19.2944 C   0  0  0  0  0  0  0  0  0  0  0  0
    7.9913  -16.0486   18.8694 O   0  0  0  0  0  0  0  0  0  0  0  0
   10.0004  -20.2739   21.4604 N   0  0  0  0  0  0  0  0  0  0  0  0
   10.9954  -19.2835   21.3099 C   0  0  0  0  0  0  0  0  0  0  0  0
   12.1991  -19.6310   21.3338 O   0  0  0  0  0  0  0  0  0  0  0  0
   10.6840  -17.8460   21.1241 C   0  0  0  0  0  0  0  0  0  0  0  0
    9.1861  -17.6146   21.1289 C   0  0  0  0  0  0  0  0  0  0  0  0
    8.9254  -16.2322   21.6039 C   0  0  2  0  0  0  0  0  0  0  0  0
    9.1824  -15.2137   20.6453 N   0  0  0  0  0  0  0  0  0  0  0  0
    9.4368  -15.9398   22.9839 C   0  0  0  0  0  0  0  0  0  0  0  0
   10.6443  -15.6826   23.2240 O   0  0  0  0  0  0  0  0  0  0  0  0
    8.5426  -15.9431   24.1031 N   0  0  0  0  0  0  0  0  0  0  0  0
    9.0121  -15.5199   25.4289 C   0  0  1  0  0  0  0  0  0  0  0  0
    7.8643  -14.8648   26.1657 C   0  0  0  0  0  0  0  0  0  0  0  0
    7.5957  -13.4651   25.6661 C   0  0  0  0  0  0  0  0  0  0  0  0
    6.4588  -12.9178   26.5041 C   0  0  0  0  0  0  0  0  0  0  0  0
    6.2044  -11.4552   26.2360 C   0  0  0  0  0  0  0  0  0  0  0  0
    5.1687  -11.0266   27.1605 N   0  0  0  0  0  0  0  0  0  0  0  0
    9.5541  -16.6778   26.1813 C   0  0  0  0  0  0  0  0  0  0  0  0
    9.4682  -17.9701   25.6949 O   0  0  0  0  0  0  0  0  0  0  0  0
   10.1099  -16.5011   27.2922 O   0  0  0  0  0  0  0  0  0  0  0  0
  2  1  1  6
  2  5  1  0
  3  2  1  0
  4  3  1  0
  5  6  2  0
  7  8  1  0
  8  9  2  0
  8 10  1  0
 10 11  1  0
 12 11  1  6
 13  5  1  0
 13 12  1  0
 14 12  1  0
 14 15  2  0
 16 14  1  0
 17 16  1  0
 17 23  1  0
 17 18  1  1
 19 18  1  0
 20 19  1  0
 21 20  1  0
 21 22  1  0
 23 24  1  0
 25 23  2  0
M  END
$$$$
