CQK.pdb
     RDKit          3D

 25 24  0  0  1  0  0  0  0  0999 V2000
    5.2603  -13.7618   26.9073 N   0  0  0  0  0  0  0  0  0  0  0  0
    6.1192  -13.0777   25.9718 C   0  0  1  0  0  0  0  0  0  0  0  0
    7.1200  -12.2542   26.7372 C   0  0  0  0  0  0  0  0  0  0  0  0
    6.3300  -10.7185   27.2563 S   0  0  0  0  0  0  0  0  0  0  0  0
    6.7918  -14.0113   25.0177 C   0  0  0  0  0  0  0  0  0  0  0  0
    6.9834  -15.2034   25.3527 O   0  0  0  0  0  0  0  0  0  0  0  0
    7.9672  -13.0072   18.7067 N   0  0  0  0  0  0  0  0  0  0  0  0
    8.5196  -14.2580   19.0589 C   0  0  0  0  0  0  0  0  0  0  0  0
    8.9747  -14.9922   18.1511 O   0  0  0  0  0  0  0  0  0  0  0  0
    8.5876  -14.7473   20.4568 C   0  0  0  0  0  0  0  0  0  0  0  0
    7.9749  -13.7406   21.4099 C   0  0  0  0  0  0  0  0  0  0  0  0
    7.9663  -14.3287   22.7733 C   0  0  2  0  0  0  0  0  0  0  0  0
    7.2242  -13.5912   23.7363 N   0  0  0  0  0  0  0  0  0  0  0  0
    9.3021  -14.8184   23.2499 C   0  0  0  0  0  0  0  0  0  0  0  0
   10.2097  -14.0450   23.6499 O   0  0  0  0  0  0  0  0  0  0  0  0
    9.5954  -16.2206   23.2664 N   0  0  0  0  0  0  0  0  0  0  0  0
   10.8859  -16.7026   23.7756 C   0  0  1  0  0  0  0  0  0  0  0  0
   10.6831  -18.0627   24.4069 C   0  0  0  0  0  0  0  0  0  0  0  0
   10.0003  -17.9673   25.7506 C   0  0  0  0  0  0  0  0  0  0  0  0
    9.7290  -19.3884   26.1994 C   0  0  0  0  0  0  0  0  0  0  0  0
    9.1724  -19.4485   27.6003 C   0  0  0  0  0  0  0  0  0  0  0  0
    8.9880  -20.8526   27.9254 N   0  0  0  0  0  0  0  0  0  0  0  0
   11.8889  -16.7514   22.6837 C   0  0  0  0  0  0  0  0  0  0  0  0
   11.5264  -16.6412   21.3532 O   0  0  0  0  0  0  0  0  0  0  0  0
   13.1056  -16.8962   22.9538 O   0  0  0  0  0  0  0  0  0  0  0  0
  2  1  1  1
  2  5  1  0
  3  2  1  0
  4  3  1  0
  5  6  2  0
  7  8  1  0
  8  9  2  0
  8 10  1  0
 10 11  1  0
 12 11  1  6
 13  5  1  0
 13 12  1  0
 14 12  1  0
 14 15  2  0
 16 14  1  0
 17 16  1  0
 17 23  1  0
 17 18  1  6
 19 18  1  0
 20 19  1  0
 21 20  1  0
 21 22  1  0
 23 24  1  0
 25 23  2  0
M  END
$$$$
