CQK.pdb
     RDKit          3D

 25 24  0  0  1  0  0  0  0  0999 V2000
    8.4146  -21.0543   19.0819 N   0  0  0  0  0  0  0  0  0  0  0  0
    7.9497  -20.0275   19.9821 C   0  0  1  0  0  0  0  0  0  0  0  0
    7.8691  -20.5956   21.3736 C   0  0  0  0  0  0  0  0  0  0  0  0
    6.5541  -21.8287   21.4204 S   0  0  0  0  0  0  0  0  0  0  0  0
    8.7972  -18.7970   19.9399 C   0  0  0  0  0  0  0  0  0  0  0  0
   10.0368  -18.9063   19.7938 O   0  0  0  0  0  0  0  0  0  0  0  0
    6.7027  -12.7080   19.1110 N   0  0  0  0  0  0  0  0  0  0  0  0
    8.1081  -12.6666   19.2406 C   0  0  0  0  0  0  0  0  0  0  0  0
    8.6984  -11.5780   19.0488 O   0  0  0  0  0  0  0  0  0  0  0  0
    8.9230  -13.8535   19.5941 C   0  0  0  0  0  0  0  0  0  0  0  0
    8.0445  -15.0755   19.7742 C   0  0  0  0  0  0  0  0  0  0  0  0
    8.9176  -16.2485   20.0316 C   0  0  2  0  0  0  0  0  0  0  0  0
    8.2424  -17.4997   20.0606 N   0  0  0  0  0  0  0  0  0  0  0  0
    9.9211  -16.0504   21.1294 C   0  0  0  0  0  0  0  0  0  0  0  0
   10.7771  -15.1291   21.1137 O   0  0  0  0  0  0  0  0  0  0  0  0
    9.9370  -16.9270   22.2625 N   0  0  0  0  0  0  0  0  0  0  0  0
   10.9462  -16.7589   23.3163 C   0  0  1  0  0  0  0  0  0  0  0  0
   10.6169  -17.6939   24.4594 C   0  0  0  0  0  0  0  0  0  0  0  0
   11.6766  -17.6684   25.5352 C   0  0  0  0  0  0  0  0  0  0  0  0
   11.2890  -18.7253   26.5488 C   0  0  0  0  0  0  0  0  0  0  0  0
   12.2894  -18.8327   27.6728 C   0  0  0  0  0  0  0  0  0  0  0  0
   11.7839  -19.8319   28.5987 N   0  0  0  0  0  0  0  0  0  0  0  0
   12.3052  -17.0116   22.7781 C   0  0  0  0  0  0  0  0  0  0  0  0
   13.4082  -16.3000   23.2152 O   0  0  0  0  0  0  0  0  0  0  0  0
   12.4803  -17.8915   21.9010 O   0  0  0  0  0  0  0  0  0  0  0  0
  2  1  1  6
  2  5  1  0
  3  2  1  0
  4  3  1  0
  5  6  2  0
  7  8  1  0
  8  9  2  0
  8 10  1  0
 10 11  1  0
 12 11  1  1
 13  5  1  0
 13 12  1  0
 14 12  1  0
 14 15  2  0
 16 14  1  0
 17 16  1  0
 17 23  1  0
 17 18  1  1
 19 18  1  0
 20 19  1  0
 21 20  1  0
 21 22  1  0
 23 24  1  0
 25 23  2  0
M  END
$$$$
