CQK.pdb
     RDKit          3D

 25 24  0  0  1  0  0  0  0  0999 V2000
    4.5292  -19.6601   20.3388 N   0  0  0  0  0  0  0  0  0  0  0  0
    4.3435  -18.2297   20.3527 C   0  0  1  0  0  0  0  0  0  0  0  0
    3.2034  -17.8925   21.2758 C   0  0  0  0  0  0  0  0  0  0  0  0
    3.5685  -18.5548   22.9128 S   0  0  0  0  0  0  0  0  0  0  0  0
    5.5880  -17.4903   20.7249 C   0  0  0  0  0  0  0  0  0  0  0  0
    6.5649  -18.1219   21.1905 O   0  0  0  0  0  0  0  0  0  0  0  0
    8.4732  -13.4578   18.1327 N   0  0  0  0  0  0  0  0  0  0  0  0
    8.9401  -13.4238   19.4648 C   0  0  0  0  0  0  0  0  0  0  0  0
   10.1622  -13.5990   19.6789 O   0  0  0  0  0  0  0  0  0  0  0  0
    8.0508  -13.1899   20.6278 C   0  0  0  0  0  0  0  0  0  0  0  0
    6.7065  -13.8586   20.4207 C   0  0  0  0  0  0  0  0  0  0  0  0
    6.7866  -15.2466   20.9419 C   0  0  2  0  0  0  0  0  0  0  0  0
    5.7025  -16.0876   20.5680 N   0  0  0  0  0  0  0  0  0  0  0  0
    7.1938  -15.3496   22.3824 C   0  0  0  0  0  0  0  0  0  0  0  0
    6.5187  -14.8521   23.3198 O   0  0  0  0  0  0  0  0  0  0  0  0
    8.3965  -16.0371   22.7473 N   0  0  0  0  0  0  0  0  0  0  0  0
    8.7435  -16.2248   24.1621 C   0  0  1  0  0  0  0  0  0  0  0  0
    8.5874  -17.6887   24.5117 C   0  0  0  0  0  0  0  0  0  0  0  0
    8.3476  -17.8960   25.9883 C   0  0  0  0  0  0  0  0  0  0  0  0
    8.3231  -19.3933   26.2162 C   0  0  0  0  0  0  0  0  0  0  0  0
    8.0794  -19.7470   27.6623 C   0  0  0  0  0  0  0  0  0  0  0  0
    7.9514  -21.1927   27.7314 N   0  0  0  0  0  0  0  0  0  0  0  0
   10.1218  -15.7442   24.4264 C   0  0  0  0  0  0  0  0  0  0  0  0
   10.5692  -15.4766   25.7079 O   0  0  0  0  0  0  0  0  0  0  0  0
   10.9198  -15.5691   23.4741 O   0  0  0  0  0  0  0  0  0  0  0  0
  2  1  1  1
  2  5  1  0
  3  2  1  0
  4  3  1  0
  5  6  2  0
  7  8  1  0
  8  9  2  0
  8 10  1  0
 10 11  1  0
 12 11  1  1
 13  5  1  0
 13 12  1  0
 14 12  1  0
 14 15  2  0
 16 14  1  0
 17 16  1  0
 17 23  1  0
 17 18  1  6
 19 18  1  0
 20 19  1  0
 21 20  1  0
 21 22  1  0
 23 24  1  0
 25 23  2  0
M  END
$$$$
