CQK.pdb
     RDKit          3D

 25 24  0  0  1  0  0  0  0  0999 V2000
    7.1859  -14.5787   17.5188 N   0  0  0  0  0  0  0  0  0  0  0  0
    8.0921  -14.1310   18.5480 C   0  0  1  0  0  0  0  0  0  0  0  0
    7.5096  -12.9162   19.2192 C   0  0  0  0  0  0  0  0  0  0  0  0
    8.5882  -12.4345   20.5818 S   0  0  0  0  0  0  0  0  0  0  0  0
    8.4150  -15.2032   19.5381 C   0  0  0  0  0  0  0  0  0  0  0  0
    7.4858  -15.8678   20.0528 O   0  0  0  0  0  0  0  0  0  0  0  0
   11.9267  -20.0674   19.0968 N   0  0  0  0  0  0  0  0  0  0  0  0
   11.6400  -19.9887   20.4772 C   0  0  0  0  0  0  0  0  0  0  0  0
   11.8525  -20.9940   21.1944 O   0  0  0  0  0  0  0  0  0  0  0  0
   11.0973  -18.7691   21.1222 C   0  0  0  0  0  0  0  0  0  0  0  0
   10.8075  -17.6977   20.0899 C   0  0  0  0  0  0  0  0  0  0  0  0
   10.2083  -16.5284   20.7815 C   0  0  2  0  0  0  0  0  0  0  0  0
    9.7472  -15.4967   19.9181 N   0  0  0  0  0  0  0  0  0  0  0  0
   10.9771  -16.0497   21.9778 C   0  0  0  0  0  0  0  0  0  0  0  0
   12.0719  -15.4376   21.8854 O   0  0  0  0  0  0  0  0  0  0  0  0
   10.4755  -16.2794   23.2999 N   0  0  0  0  0  0  0  0  0  0  0  0
   11.2496  -15.8499   24.4719 C   0  0  1  0  0  0  0  0  0  0  0  0
   10.2985  -15.6195   25.6260 C   0  0  0  0  0  0  0  0  0  0  0  0
   11.0168  -15.1402   26.8650 C   0  0  0  0  0  0  0  0  0  0  0  0
    9.9647  -14.9924   27.9446 C   0  0  0  0  0  0  0  0  0  0  0  0
   10.5349  -14.4354   29.2254 C   0  0  0  0  0  0  0  0  0  0  0  0
    9.4402  -14.3493   30.1769 N   0  0  0  0  0  0  0  0  0  0  0  0
   12.2832  -16.8591   24.8092 C   0  0  0  0  0  0  0  0  0  0  0  0
   13.5560  -16.4953   25.2112 O   0  0  0  0  0  0  0  0  0  0  0  0
   12.0152  -18.0825   24.7341 O   0  0  0  0  0  0  0  0  0  0  0  0
  2  1  1  6
  2  5  1  0
  3  2  1  0
  4  3  1  0
  5  6  2  0
  7  8  1  0
  8  9  2  0
  8 10  1  0
 10 11  1  0
 12 11  1  6
 13  5  1  0
 13 12  1  0
 14 12  1  0
 14 15  2  0
 16 14  1  0
 17 16  1  0
 17 23  1  0
 17 18  1  1
 19 18  1  0
 20 19  1  0
 21 20  1  0
 21 22  1  0
 23 24  1  0
 25 23  2  0
M  END
$$$$
