CQK.pdb
     RDKit          3D

 25 24  0  0  1  0  0  0  0  0999 V2000
    9.2444  -13.3234   18.2265 N   0  0  0  0  0  0  0  0  0  0  0  0
    8.1449  -13.6479   19.1021 C   0  0  1  0  0  0  0  0  0  0  0  0
    6.8608  -13.5880   18.3191 C   0  0  0  0  0  0  0  0  0  0  0  0
    6.6243  -11.9027   17.7228 S   0  0  0  0  0  0  0  0  0  0  0  0
    8.3156  -14.9712   19.7759 C   0  0  0  0  0  0  0  0  0  0  0  0
    7.9199  -16.0118   19.2010 O   0  0  0  0  0  0  0  0  0  0  0  0
   13.5740  -14.1924   19.0982 N   0  0  0  0  0  0  0  0  0  0  0  0
   13.7301  -15.1809   20.0943 C   0  0  0  0  0  0  0  0  0  0  0  0
   14.8805  -15.6142   20.3372 O   0  0  0  0  0  0  0  0  0  0  0  0
   12.5942  -15.7335   20.8703 C   0  0  0  0  0  0  0  0  0  0  0  0
   11.3006  -15.0340   20.5034 C   0  0  0  0  0  0  0  0  0  0  0  0
   10.2183  -15.5608   21.3727 C   0  0  2  0  0  0  0  0  0  0  0  0
    8.9147  -15.0907   21.0534 N   0  0  0  0  0  0  0  0  0  0  0  0
   10.5424  -15.5677   22.8377 C   0  0  0  0  0  0  0  0  0  0  0  0
   11.5667  -16.1262   23.3076 O   0  0  0  0  0  0  0  0  0  0  0  0
    9.6732  -14.9201   23.7745 N   0  0  0  0  0  0  0  0  0  0  0  0
    9.8162  -15.1704   25.2147 C   0  0  1  0  0  0  0  0  0  0  0  0
    8.5149  -14.8184   25.9017 C   0  0  0  0  0  0  0  0  0  0  0  0
    8.0045  -13.4591   25.4860 C   0  0  0  0  0  0  0  0  0  0  0  0
    6.7180  -13.2278   26.2514 C   0  0  0  0  0  0  0  0  0  0  0  0
    6.1091  -11.8807   25.9512 C   0  0  0  0  0  0  0  0  0  0  0  0
    4.8878  -11.7817   26.7321 N   0  0  0  0  0  0  0  0  0  0  0  0
   10.1989  -16.5825   25.4603 C   0  0  0  0  0  0  0  0  0  0  0  0
   10.0435  -17.5602   24.4939 O   0  0  0  0  0  0  0  0  0  0  0  0
   10.6788  -16.9199   26.5693 O   0  0  0  0  0  0  0  0  0  0  0  0
  2  1  1  6
  2  5  1  0
  3  2  1  0
  4  3  1  0
  5  6  2  0
  7  8  1  0
  8  9  2  0
  8 10  1  0
 10 11  1  0
 12 11  1  6
 13  5  1  0
 13 12  1  0
 14 12  1  0
 14 15  2  0
 16 14  1  0
 17 16  1  0
 17 23  1  0
 17 18  1  1
 19 18  1  0
 20 19  1  0
 21 20  1  0
 21 22  1  0
 23 24  1  0
 25 23  2  0
M  END
$$$$
