CQK.pdb
     RDKit          3D

 25 24  0  0  1  0  0  0  0  0999 V2000
    5.0270  -18.6503   19.7826 N   0  0  0  0  0  0  0  0  0  0  0  0
    4.9745  -17.4560   20.5899 C   0  0  1  0  0  0  0  0  0  0  0  0
    4.3225  -17.7828   21.9066 C   0  0  0  0  0  0  0  0  0  0  0  0
    2.5962  -18.2098   21.6077 S   0  0  0  0  0  0  0  0  0  0  0  0
    6.3186  -16.8313   20.7831 C   0  0  0  0  0  0  0  0  0  0  0  0
    7.3214  -17.5641   20.9489 O   0  0  0  0  0  0  0  0  0  0  0  0
    9.8648  -13.4472   18.9564 N   0  0  0  0  0  0  0  0  0  0  0  0
    8.5743  -13.3991   18.3854 C   0  0  0  0  0  0  0  0  0  0  0  0
    8.4602  -13.5275   17.1441 O   0  0  0  0  0  0  0  0  0  0  0  0
    7.3423  -13.2033   19.1864 C   0  0  0  0  0  0  0  0  0  0  0  0
    7.6486  -13.2671   20.6695 C   0  0  0  0  0  0  0  0  0  0  0  0
    7.6811  -14.6931   21.0820 C   0  0  2  0  0  0  0  0  0  0  0  0
    6.4997  -15.4269   20.7854 N   0  0  0  0  0  0  0  0  0  0  0  0
    8.2427  -14.9335   22.4525 C   0  0  0  0  0  0  0  0  0  0  0  0
    7.6531  -14.5753   23.5042 O   0  0  0  0  0  0  0  0  0  0  0  0
    9.5019  -15.5977   22.6126 N   0  0  0  0  0  0  0  0  0  0  0  0
   10.0521  -15.8309   23.9543 C   0  0  1  0  0  0  0  0  0  0  0  0
    9.3845  -17.0516   24.5490 C   0  0  0  0  0  0  0  0  0  0  0  0
    9.9359  -17.3906   25.9134 C   0  0  0  0  0  0  0  0  0  0  0  0
    9.1917  -18.6221   26.3867 C   0  0  0  0  0  0  0  0  0  0  0  0
    9.6611  -19.0872   27.7428 C   0  0  0  0  0  0  0  0  0  0  0  0
    8.9004  -20.2810   28.0705 N   0  0  0  0  0  0  0  0  0  0  0  0
   11.5255  -15.9911   23.8901 C   0  0  0  0  0  0  0  0  0  0  0  0
   12.2119  -15.9621   22.6892 O   0  0  0  0  0  0  0  0  0  0  0  0
   12.1861  -16.1586   24.9435 O   0  0  0  0  0  0  0  0  0  0  0  0
  2  1  1  6
  2  5  1  0
  3  2  1  0
  4  3  1  0
  5  6  2  0
  7  8  1  0
  8  9  2  0
  8 10  1  0
 10 11  1  0
 12 11  1  1
 13  5  1  0
 13 12  1  0
 14 12  1  0
 14 15  2  0
 16 14  1  0
 17 16  1  0
 17 23  1  0
 17 18  1  6
 19 18  1  0
 20 19  1  0
 21 20  1  0
 21 22  1  0
 23 24  1  0
 25 23  2  0
M  END
$$$$
