CQK.pdb
     RDKit          3D

 25 24  0  0  1  0  0  0  0  0999 V2000
   10.9723  -20.1425   18.9251 N   0  0  0  0  0  0  0  0  0  0  0  0
   11.6582  -19.0782   18.2339 C   0  0  1  0  0  0  0  0  0  0  0  0
   11.1825  -19.0344   16.8065 C   0  0  0  0  0  0  0  0  0  0  0  0
   12.3100  -18.0003   15.8519 S   0  0  0  0  0  0  0  0  0  0  0  0
   11.4949  -17.7540   18.9077 C   0  0  0  0  0  0  0  0  0  0  0  0
   12.5082  -17.0620   19.1618 O   0  0  0  0  0  0  0  0  0  0  0  0
    7.5940  -11.7462   20.0520 N   0  0  0  0  0  0  0  0  0  0  0  0
    7.5918  -13.1425   19.8420 C   0  0  0  0  0  0  0  0  0  0  0  0
    6.6609  -13.6492   19.1735 O   0  0  0  0  0  0  0  0  0  0  0  0
    8.6421  -14.0423   20.3761 C   0  0  0  0  0  0  0  0  0  0  0  0
    8.8256  -15.2487   19.4772 C   0  0  0  0  0  0  0  0  0  0  0  0
    9.9233  -16.0830   20.0282 C   0  0  2  0  0  0  0  0  0  0  0  0
   10.2229  -17.2496   19.2722 N   0  0  0  0  0  0  0  0  0  0  0  0
    9.8612  -16.2948   21.5123 C   0  0  0  0  0  0  0  0  0  0  0  0
    8.8235  -16.6907   22.1025 O   0  0  0  0  0  0  0  0  0  0  0  0
   11.0129  -16.0474   22.3277 N   0  0  0  0  0  0  0  0  0  0  0  0
   11.1930  -16.7675   23.5951 C   0  0  1  0  0  0  0  0  0  0  0  0
   11.1582  -18.2549   23.3193 C   0  0  0  0  0  0  0  0  0  0  0  0
   11.3143  -19.0689   24.5817 C   0  0  0  0  0  0  0  0  0  0  0  0
   11.2217  -20.5242   24.1719 C   0  0  0  0  0  0  0  0  0  0  0  0
   11.2758  -21.4559   25.3571 C   0  0  0  0  0  0  0  0  0  0  0  0
   11.3488  -22.8088   24.8323 N   0  0  0  0  0  0  0  0  0  0  0  0
   12.4629  -16.3623   24.2461 C   0  0  0  0  0  0  0  0  0  0  0  0
   13.4928  -15.7727   23.5349 O   0  0  0  0  0  0  0  0  0  0  0  0
   12.6271  -16.5511   25.4755 O   0  0  0  0  0  0  0  0  0  0  0  0
  2  1  1  1
  2  5  1  0
  3  2  1  0
  4  3  1  0
  5  6  2  0
  7  8  1  0
  8  9  2  0
  8 10  1  0
 10 11  1  0
 12 11  1  6
 13  5  1  0
 13 12  1  0
 14 12  1  0
 14 15  2  0
 16 14  1  0
 17 16  1  0
 17 23  1  0
 17 18  1  6
 19 18  1  0
 20 19  1  0
 21 20  1  0
 21 22  1  0
 23 24  1  0
 25 23  2  0
M  END
$$$$
