CQK.pdb
     RDKit          3D

 25 24  0  0  1  0  0  0  0  0999 V2000
    9.9629  -21.3274   21.0984 N   0  0  0  0  0  0  0  0  0  0  0  0
   10.6840  -20.3639   21.8937 C   0  0  1  0  0  0  0  0  0  0  0  0
    9.7477  -19.2518   22.2842 C   0  0  0  0  0  0  0  0  0  0  0  0
    8.4405  -19.9333   23.3227 S   0  0  0  0  0  0  0  0  0  0  0  0
   11.3369  -20.9771   23.0903 C   0  0  0  0  0  0  0  0  0  0  0  0
   10.8456  -22.0114   23.5990 O   0  0  0  0  0  0  0  0  0  0  0  0
   17.4161  -20.4755   24.6958 N   0  0  0  0  0  0  0  0  0  0  0  0
   16.7116  -21.2286   23.7313 C   0  0  0  0  0  0  0  0  0  0  0  0
   17.3587  -21.7960   22.8204 O   0  0  0  0  0  0  0  0  0  0  0  0
   15.2370  -21.3815   23.7438 C   0  0  0  0  0  0  0  0  0  0  0  0
   14.6240  -20.5962   24.8861 C   0  0  0  0  0  0  0  0  0  0  0  0
   13.1559  -20.8181   24.8747 C   0  0  2  0  0  0  0  0  0  0  0  0
   12.5025  -20.4244   23.6745 N   0  0  0  0  0  0  0  0  0  0  0  0
   12.4533  -20.4093   26.1358 C   0  0  0  0  0  0  0  0  0  0  0  0
   12.0010  -19.2503   26.3202 O   0  0  0  0  0  0  0  0  0  0  0  0
   12.2688  -21.3511   27.1996 N   0  0  0  0  0  0  0  0  0  0  0  0
   11.6524  -20.9300   28.4645 C   0  0  1  0  0  0  0  0  0  0  0  0
   11.3646  -22.1590   29.2988 C   0  0  0  0  0  0  0  0  0  0  0  0
   10.2594  -23.0002   28.7057 C   0  0  0  0  0  0  0  0  0  0  0  0
   10.0504  -24.1668   29.6491 C   0  0  0  0  0  0  0  0  0  0  0  0
    9.0919  -25.1888   29.0900 C   0  0  0  0  0  0  0  0  0  0  0  0
    9.1407  -26.3443   29.9696 N   0  0  0  0  0  0  0  0  0  0  0  0
   12.5365  -19.9783   29.1808 C   0  0  0  0  0  0  0  0  0  0  0  0
   12.0286  -18.9503   29.9549 O   0  0  0  0  0  0  0  0  0  0  0  0
   13.7830  -20.0920   29.0950 O   0  0  0  0  0  0  0  0  0  0  0  0
  2  1  1  1
  2  5  1  0
  3  2  1  0
  4  3  1  0
  5  6  2  0
  7  8  1  0
  8  9  2  0
  8 10  1  0
 10 11  1  0
 12 11  1  1
 13  5  1  0
 13 12  1  0
 14 12  1  0
 14 15  2  0
 16 14  1  0
 17 16  1  0
 17 23  1  0
 17 18  1  1
 19 18  1  0
 20 19  1  0
 21 20  1  0
 21 22  1  0
 23 24  1  0
 25 23  2  0
M  END
$$$$
