CQK.pdb
     RDKit          3D

 25 24  0  0  1  0  0  0  0  0999 V2000
    8.9546  -14.6769   18.6467 N   0  0  0  0  0  0  0  0  0  0  0  0
    8.3986  -13.7691   19.6201 C   0  0  1  0  0  0  0  0  0  0  0  0
    7.1152  -13.1974   19.0800 C   0  0  0  0  0  0  0  0  0  0  0  0
    7.3017  -12.9299   17.3064 S   0  0  0  0  0  0  0  0  0  0  0  0
    8.1950  -14.4094   20.9553 C   0  0  0  0  0  0  0  0  0  0  0  0
    7.7112  -13.7363   21.8950 O   0  0  0  0  0  0  0  0  0  0  0  0
    6.0821  -17.9744   24.9611 N   0  0  0  0  0  0  0  0  0  0  0  0
    6.2530  -18.6179   23.7159 C   0  0  0  0  0  0  0  0  0  0  0  0
    6.0145  -19.8453   23.6349 O   0  0  0  0  0  0  0  0  0  0  0  0
    6.7030  -17.9087   22.4942 C   0  0  0  0  0  0  0  0  0  0  0  0
    8.2164  -17.8562   22.4288 C   0  0  0  0  0  0  0  0  0  0  0  0
    8.6387  -16.4329   22.4474 C   0  0  2  0  0  0  0  0  0  0  0  0
    8.5332  -15.7630   21.1975 N   0  0  0  0  0  0  0  0  0  0  0  0
    9.9123  -16.1697   23.1958 C   0  0  0  0  0  0  0  0  0  0  0  0
   11.0502  -16.3434   22.6889 O   0  0  0  0  0  0  0  0  0  0  0  0
    9.8732  -15.6985   24.5481 N   0  0  0  0  0  0  0  0  0  0  0  0
   11.1201  -15.4329   25.2775 C   0  0  1  0  0  0  0  0  0  0  0  0
   10.7791  -14.8191   26.6177 C   0  0  0  0  0  0  0  0  0  0  0  0
   10.9234  -15.8103   27.7480 C   0  0  0  0  0  0  0  0  0  0  0  0
   10.6032  -15.0601   29.0243 C   0  0  0  0  0  0  0  0  0  0  0  0
   10.7408  -15.9308   30.2485 C   0  0  0  0  0  0  0  0  0  0  0  0
   10.3772  -15.1150   31.3945 N   0  0  0  0  0  0  0  0  0  0  0  0
   11.9062  -16.6814   25.4328 C   0  0  0  0  0  0  0  0  0  0  0  0
   11.3007  -17.9242   25.4860 O   0  0  0  0  0  0  0  0  0  0  0  0
   13.1568  -16.6300   25.5202 O   0  0  0  0  0  0  0  0  0  0  0  0
  2  1  1  6
  2  5  1  0
  3  2  1  0
  4  3  1  0
  5  6  2  0
  7  8  1  0
  8  9  2  0
  8 10  1  0
 10 11  1  0
 12 11  1  6
 13  5  1  0
 13 12  1  0
 14 12  1  0
 14 15  2  0
 16 14  1  0
 17 16  1  0
 17 23  1  0
 17 18  1  1
 19 18  1  0
 20 19  1  0
 21 20  1  0
 21 22  1  0
 23 24  1  0
 25 23  2  0
M  END
$$$$
