DKY.pdb
     RDKit          3D

 30 30  0  0  1  0  0  0  0  0999 V2000
   20.9382  -12.1973  -20.5071 N   0  0  0  0  0  0  0  0  0  0  0  0
   21.9460  -11.8878  -19.5133 C   0  0  1  0  0  0  0  0  0  0  0  0
   23.3374  -11.9259  -20.0976 C   0  0  0  0  0  0  0  0  0  0  0  0
   23.7546  -13.3247  -20.3095 C   0  0  0  0  0  0  0  0  0  0  0  0
   22.9909  -14.2455  -19.9510 O   0  0  0  0  0  0  0  0  0  0  0  0
   21.6225  -10.5819  -18.9073 C   0  0  0  0  0  0  0  0  0  0  0  0
   22.5161   -9.6995  -18.6870 O   0  0  0  0  0  0  0  0  0  0  0  0
   24.9722  -13.6610  -20.8963 O   0  0  0  0  0  0  0  0  0  0  0  0
   20.3089  -10.2380  -18.5386 N   0  0  0  0  0  0  0  0  0  0  0  0
   19.9330   -8.9415  -17.9455 C   0  0  1  0  0  0  0  0  0  0  0  0
   18.4920   -8.7710  -18.3466 C   0  0  0  0  0  0  0  0  0  0  0  0
   18.2296   -8.1742  -19.6669 C   0  0  0  0  0  0  0  0  0  0  0  0
   16.8272   -7.9108  -20.0607 C   0  0  0  0  0  0  0  0  0  0  0  0
   16.6940   -7.3156  -21.4252 C   0  0  0  0  0  0  0  0  0  0  0  0
   15.3339   -7.0397  -21.7494 N   0  0  0  0  0  0  0  0  0  0  0  0
   20.1200   -9.1332  -16.4787 C   0  0  0  0  0  0  0  0  0  0  0  0
   19.7092  -10.1804  -15.8649 O   0  0  0  0  0  0  0  0  0  0  0  0
   22.9258   -2.3371  -15.1383 O   0  0  0  0  0  0  0  0  0  0  0  0
   22.7669   -3.6795  -14.8213 C   0  0  0  0  0  0  0  0  0  0  0  0
   22.2108   -4.0653  -13.6190 C   0  0  0  0  0  0  0  0  0  0  0  0
   22.0524   -5.4135  -13.3032 C   0  0  0  0  0  0  0  0  0  0  0  0
   22.4382   -6.4169  -14.1644 C   0  0  0  0  0  0  0  0  0  0  0  0
   22.2881   -7.8505  -13.8557 C   0  0  0  0  0  0  0  0  0  0  0  0
   20.9697   -8.4490  -14.2021 C   0  0  2  0  0  0  0  0  0  0  0  0
   20.7625   -8.1874  -15.6381 N   0  0  0  0  0  0  0  0  0  0  0  0
   19.9017   -7.7754  -13.4379 C   0  0  0  0  0  0  0  0  0  0  0  0
   19.1171   -6.9590  -14.0180 O   0  0  0  0  0  0  0  0  0  0  0  0
   22.9982   -6.0170  -15.3753 C   0  0  0  0  0  0  0  0  0  0  0  0
   23.1534   -4.6831  -15.6848 C   0  0  0  0  0  0  0  0  0  0  0  0
   19.7067   -7.9939  -12.0905 O   0  0  0  0  0  0  0  0  0  0  0  0
  2  3  1  0
  2  1  1  6
  3  4  1  0
  4  5  2  0
  4  8  1  0
  6  2  1  0
  6  7  2  0
  9  6  1  0
 10 16  1  0
 10  9  1  0
 10 11  1  1
 12 11  1  0
 13 12  1  0
 14 13  1  0
 15 14  1  0
 16 25  1  0
 17 16  2  0
 18 19  1  0
 19 29  2  0
 20 19  1  0
 20 21  2  0
 21 22  1  0
 22 28  2  0
 22 23  1  0
 24 23  1  1
 24 25  1  0
 24 26  1  0
 26 27  2  0
 26 30  1  0
 29 28  1  0
M  END
$$$$
