DKY.pdb
     RDKit          3D

 30 30  0  0  1  0  0  0  0  0999 V2000
   18.1628  -11.5382  -17.1088 N   0  0  0  0  0  0  0  0  0  0  0  0
   18.6018  -11.2609  -15.7563 C   0  0  1  0  0  0  0  0  0  0  0  0
   18.8100  -12.5294  -14.9650 C   0  0  0  0  0  0  0  0  0  0  0  0
   17.5107  -13.1767  -14.7033 C   0  0  0  0  0  0  0  0  0  0  0  0
   16.4782  -12.6888  -15.2090 O   0  0  0  0  0  0  0  0  0  0  0  0
   19.8177  -10.4272  -15.8189 C   0  0  0  0  0  0  0  0  0  0  0  0
   20.4480  -10.0721  -14.7690 O   0  0  0  0  0  0  0  0  0  0  0  0
   17.3888  -14.3157  -13.9112 O   0  0  0  0  0  0  0  0  0  0  0  0
   20.3491   -9.9776  -17.0417 N   0  0  0  0  0  0  0  0  0  0  0  0
   21.5593   -9.1431  -17.1562 C   0  0  1  0  0  0  0  0  0  0  0  0
   22.0115   -9.3648  -18.5750 C   0  0  0  0  0  0  0  0  0  0  0  0
   23.1345   -8.5433  -19.0570 C   0  0  0  0  0  0  0  0  0  0  0  0
   23.5804   -8.7033  -20.4594 C   0  0  0  0  0  0  0  0  0  0  0  0
   24.7148   -7.8034  -20.8296 C   0  0  0  0  0  0  0  0  0  0  0  0
   25.9249   -8.1870  -20.1820 N   0  0  0  0  0  0  0  0  0  0  0  0
   21.0817   -7.7545  -16.8978 C   0  0  0  0  0  0  0  0  0  0  0  0
   19.9555   -7.3234  -17.3316 O   0  0  0  0  0  0  0  0  0  0  0  0
   20.0921    0.2711  -13.1488 O   0  0  0  0  0  0  0  0  0  0  0  0
   20.3993   -1.0379  -13.4950 C   0  0  0  0  0  0  0  0  0  0  0  0
   19.4157   -2.0020  -13.5750 C   0  0  0  0  0  0  0  0  0  0  0  0
   19.7267   -3.3153  -13.9227 C   0  0  0  0  0  0  0  0  0  0  0  0
   21.0160   -3.7128  -14.2006 C   0  0  0  0  0  0  0  0  0  0  0  0
   21.3758   -5.0949  -14.5656 C   0  0  0  0  0  0  0  0  0  0  0  0
   21.3541   -5.4025  -16.0221 C   0  0  2  0  0  0  0  0  0  0  0  0
   21.8191   -6.7950  -16.1566 N   0  0  0  0  0  0  0  0  0  0  0  0
   22.2974   -4.5164  -16.7316 C   0  0  0  0  0  0  0  0  0  0  0  0
   23.5445   -4.7673  -16.7182 O   0  0  0  0  0  0  0  0  0  0  0  0
   22.0015   -2.7321  -14.1172 C   0  0  0  0  0  0  0  0  0  0  0  0
   21.6907   -1.4343  -13.7733 C   0  0  0  0  0  0  0  0  0  0  0  0
   21.8821   -3.4007  -17.4275 O   0  0  0  0  0  0  0  0  0  0  0  0
  2  3  1  0
  2  1  1  6
  3  4  1  0
  4  5  2  0
  4  8  1  0
  6  2  1  0
  6  7  2  0
  9  6  1  0
 10 16  1  0
 10  9  1  0
 10 11  1  6
 12 11  1  0
 13 12  1  0
 14 13  1  0
 15 14  1  0
 16 25  1  0
 17 16  2  0
 18 19  1  0
 19 29  2  0
 20 19  1  0
 20 21  2  0
 21 22  1  0
 22 28  2  0
 22 23  1  0
 24 23  1  1
 24 25  1  0
 24 26  1  0
 26 27  2  0
 26 30  1  0
 29 28  1  0
M  END
$$$$
