DKY.pdb
     RDKit          3D

 30 30  0  0  1  0  0  0  0  0999 V2000
   25.3199  -16.6406  -17.3998 N   0  0  0  0  0  0  0  0  0  0  0  0
   23.9913  -16.5045  -16.8384 C   0  0  1  0  0  0  0  0  0  0  0  0
   23.1322  -15.5700  -17.6555 C   0  0  0  0  0  0  0  0  0  0  0  0
   23.6519  -14.1933  -17.5545 C   0  0  0  0  0  0  0  0  0  0  0  0
   24.8715  -13.9916  -17.7324 O   0  0  0  0  0  0  0  0  0  0  0  0
   23.3974  -17.8487  -16.7063 C   0  0  0  0  0  0  0  0  0  0  0  0
   22.1395  -18.0422  -16.7848 O   0  0  0  0  0  0  0  0  0  0  0  0
   22.8327  -13.1041  -17.2674 O   0  0  0  0  0  0  0  0  0  0  0  0
   24.1869  -18.9924  -16.4859 N   0  0  0  0  0  0  0  0  0  0  0  0
   23.6368  -20.3426  -16.2657 C   0  0  1  0  0  0  0  0  0  0  0  0
   24.8323  -21.2439  -16.4232 C   0  0  0  0  0  0  0  0  0  0  0  0
   24.6120  -22.6882  -16.2393 C   0  0  0  0  0  0  0  0  0  0  0  0
   25.7639  -23.6062  -16.3861 C   0  0  0  0  0  0  0  0  0  0  0  0
   25.4093  -25.0436  -16.1810 C   0  0  0  0  0  0  0  0  0  0  0  0
   26.5638  -25.8790  -16.1978 N   0  0  0  0  0  0  0  0  0  0  0  0
   23.1027  -20.3062  -14.8741 C   0  0  0  0  0  0  0  0  0  0  0  0
   23.7909  -19.8693  -13.8853 O   0  0  0  0  0  0  0  0  0  0  0  0
   17.5643  -15.6877  -14.4814 O   0  0  0  0  0  0  0  0  0  0  0  0
   18.5139  -16.5905  -14.0223 C   0  0  0  0  0  0  0  0  0  0  0  0
   18.2296  -17.4566  -12.9865 C   0  0  0  0  0  0  0  0  0  0  0  0
   19.1847  -18.3619  -12.5275 C   0  0  0  0  0  0  0  0  0  0  0  0
   20.4453  -18.4372  -13.0775 C   0  0  0  0  0  0  0  0  0  0  0  0
   21.4773  -19.3801  -12.6097 C   0  0  0  0  0  0  0  0  0  0  0  0
   21.3523  -20.7744  -13.1162 C   0  0  2  0  0  0  0  0  0  0  0  0
   21.8002  -20.7449  -14.5205 N   0  0  0  0  0  0  0  0  0  0  0  0
   19.9373  -21.1924  -13.0780 C   0  0  0  0  0  0  0  0  0  0  0  0
   19.2816  -21.3315  -14.1593 O   0  0  0  0  0  0  0  0  0  0  0  0
   20.7223  -17.5589  -14.1224 C   0  0  0  0  0  0  0  0  0  0  0  0
   19.7757  -16.6649  -14.5741 C   0  0  0  0  0  0  0  0  0  0  0  0
   19.2738  -21.4473  -11.8965 O   0  0  0  0  0  0  0  0  0  0  0  0
  2  3  1  0
  2  1  1  6
  3  4  1  0
  4  5  2  0
  4  8  1  0
  6  2  1  0
  6  7  2  0
  9  6  1  0
 10 16  1  0
 10  9  1  0
 10 11  1  1
 12 11  1  0
 13 12  1  0
 14 13  1  0
 15 14  1  0
 16 25  1  0
 17 16  2  0
 18 19  1  0
 19 29  2  0
 20 19  1  0
 20 21  2  0
 21 22  1  0
 22 28  2  0
 22 23  1  0
 24 23  1  6
 24 25  1  0
 24 26  1  0
 26 27  2  0
 26 30  1  0
 29 28  1  0
M  END
$$$$
