DKY.pdb
     RDKit          3D

 30 30  0  0  1  0  0  0  0  0999 V2000
   18.7876  -12.2165  -16.4831 N   0  0  0  0  0  0  0  0  0  0  0  0
   18.2195  -10.9424  -16.8741 C   0  0  1  0  0  0  0  0  0  0  0  0
   17.3546  -10.3578  -15.7836 C   0  0  0  0  0  0  0  0  0  0  0  0
   16.2225  -11.2607  -15.5028 C   0  0  0  0  0  0  0  0  0  0  0  0
   15.4682  -11.5959  -16.4401 O   0  0  0  0  0  0  0  0  0  0  0  0
   19.3179  -10.0400  -17.2696 C   0  0  0  0  0  0  0  0  0  0  0  0
   20.4555  -10.0680  -16.6944 O   0  0  0  0  0  0  0  0  0  0  0  0
   15.9600  -11.7566  -14.2281 O   0  0  0  0  0  0  0  0  0  0  0  0
   19.1705   -9.0978  -18.3041 N   0  0  0  0  0  0  0  0  0  0  0  0
   20.2595   -8.2294  -18.7882 C   0  0  1  0  0  0  0  0  0  0  0  0
   19.8212   -7.8499  -20.1775 C   0  0  0  0  0  0  0  0  0  0  0  0
   20.7135   -6.9636  -20.9435 C   0  0  0  0  0  0  0  0  0  0  0  0
   20.3254   -6.5838  -22.3205 C   0  0  0  0  0  0  0  0  0  0  0  0
   21.2702   -5.6183  -22.9602 C   0  0  0  0  0  0  0  0  0  0  0  0
   20.7803   -5.1547  -24.2156 N   0  0  0  0  0  0  0  0  0  0  0  0
   20.2723   -7.0809  -17.8375 C   0  0  0  0  0  0  0  0  0  0  0  0
   19.1970   -6.5678  -17.3654 O   0  0  0  0  0  0  0  0  0  0  0  0
   19.1707   -8.7576  -11.4898 O   0  0  0  0  0  0  0  0  0  0  0  0
   19.9013   -8.0134  -12.4064 C   0  0  0  0  0  0  0  0  0  0  0  0
   21.0244   -8.5367  -13.0132 C   0  0  0  0  0  0  0  0  0  0  0  0
   21.7561   -7.7875  -13.9331 C   0  0  0  0  0  0  0  0  0  0  0  0
   21.3998   -6.5026  -14.2786 C   0  0  0  0  0  0  0  0  0  0  0  0
   22.1567   -5.6847  -15.2434 C   0  0  0  0  0  0  0  0  0  0  0  0
   21.4166   -5.2909  -16.4737 C   0  0  2  0  0  0  0  0  0  0  0  0
   21.4600   -6.4586  -17.3726 N   0  0  0  0  0  0  0  0  0  0  0  0
   22.1056   -4.1618  -17.1286 C   0  0  0  0  0  0  0  0  0  0  0  0
   22.6288   -4.3115  -18.2785 O   0  0  0  0  0  0  0  0  0  0  0  0
   20.2646   -5.9837  -13.6605 C   0  0  0  0  0  0  0  0  0  0  0  0
   19.5431   -6.7270  -12.7516 C   0  0  0  0  0  0  0  0  0  0  0  0
   22.2121   -2.9195  -16.5399 O   0  0  0  0  0  0  0  0  0  0  0  0
  2  3  1  0
  2  1  1  1
  3  4  1  0
  4  5  2  0
  4  8  1  0
  6  2  1  0
  6  7  2  0
  9  6  1  0
 10 16  1  0
 10  9  1  0
 10 11  1  6
 12 11  1  0
 13 12  1  0
 14 13  1  0
 15 14  1  0
 16 25  1  0
 17 16  2  0
 18 19  1  0
 19 29  2  0
 20 19  1  0
 20 21  2  0
 21 22  1  0
 22 28  2  0
 22 23  1  0
 24 23  1  1
 24 25  1  0
 24 26  1  0
 26 27  2  0
 26 30  1  0
 29 28  1  0
M  END
$$$$
