DKY.pdb
     RDKit          3D

 30 30  0  0  1  0  0  0  0  0999 V2000
   14.2939  -13.1591  -12.7859 N   0  0  0  0  0  0  0  0  0  0  0  0
   13.8182  -11.8994  -12.2514 C   0  0  1  0  0  0  0  0  0  0  0  0
   13.4958  -12.0025  -10.7803 C   0  0  0  0  0  0  0  0  0  0  0  0
   12.3334  -12.8884  -10.5820 C   0  0  0  0  0  0  0  0  0  0  0  0
   12.1149  -13.7959  -11.4118 O   0  0  0  0  0  0  0  0  0  0  0  0
   14.8232  -10.8580  -12.5387 C   0  0  0  0  0  0  0  0  0  0  0  0
   16.0576  -11.1355  -12.6962 O   0  0  0  0  0  0  0  0  0  0  0  0
   11.4655  -12.7527   -9.5012 O   0  0  0  0  0  0  0  0  0  0  0  0
   14.4745   -9.4997  -12.6547 N   0  0  0  0  0  0  0  0  0  0  0  0
   15.4246   -8.4346  -13.0248 C   0  0  1  0  0  0  0  0  0  0  0  0
   14.5554   -7.3940  -13.6792 C   0  0  0  0  0  0  0  0  0  0  0  0
   15.1924   -6.1146  -14.0337 C   0  0  0  0  0  0  0  0  0  0  0  0
   14.3621   -5.0546  -14.6483 C   0  0  0  0  0  0  0  0  0  0  0  0
   15.1159   -3.7943  -14.9264 C   0  0  0  0  0  0  0  0  0  0  0  0
   14.2795   -2.7967  -15.5062 N   0  0  0  0  0  0  0  0  0  0  0  0
   16.0083   -7.9871  -11.7279 C   0  0  0  0  0  0  0  0  0  0  0  0
   15.3010   -7.8451  -10.6687 O   0  0  0  0  0  0  0  0  0  0  0  0
   22.5481   -5.6262  -14.4817 O   0  0  0  0  0  0  0  0  0  0  0  0
   21.7667   -6.1114  -13.4417 C   0  0  0  0  0  0  0  0  0  0  0  0
   21.3909   -5.2959  -12.3941 C   0  0  0  0  0  0  0  0  0  0  0  0
   20.6065   -5.7855  -11.3513 C   0  0  0  0  0  0  0  0  0  0  0  0
   20.1721   -7.0921  -11.3136 C   0  0  0  0  0  0  0  0  0  0  0  0
   19.3466   -7.6393  -10.2218 C   0  0  0  0  0  0  0  0  0  0  0  0
   17.9105   -7.2473  -10.2421 C   0  0  2  0  0  0  0  0  0  0  0  0
   17.3826   -7.6823  -11.5481 N   0  0  0  0  0  0  0  0  0  0  0  0
   17.7945   -5.7789  -10.1485 C   0  0  0  0  0  0  0  0  0  0  0  0
   17.4900   -5.0941  -11.1765 O   0  0  0  0  0  0  0  0  0  0  0  0
   20.5567   -7.9070  -12.3757 C   0  0  0  0  0  0  0  0  0  0  0  0
   21.3323   -7.4199  -13.4055 C   0  0  0  0  0  0  0  0  0  0  0  0
   18.0047   -5.0948   -8.9699 O   0  0  0  0  0  0  0  0  0  0  0  0
  2  3  1  0
  2  1  1  1
  3  4  1  0
  4  5  2  0
  4  8  1  0
  6  2  1  0
  6  7  2  0
  9  6  1  0
 10 16  1  0
 10  9  1  0
 10 11  1  1
 12 11  1  0
 13 12  1  0
 14 13  1  0
 15 14  1  0
 16 25  1  0
 17 16  2  0
 18 19  1  0
 19 29  2  0
 20 19  1  0
 20 21  2  0
 21 22  1  0
 22 28  2  0
 22 23  1  0
 24 23  1  6
 24 25  1  0
 24 26  1  0
 26 27  2  0
 26 30  1  0
 29 28  1  0
M  END
$$$$
