DKY.pdb
     RDKit          3D

 30 30  0  0  1  0  0  0  0  0999 V2000
   21.7558  -32.1902  -17.4184 N   0  0  0  0  0  0  0  0  0  0  0  0
   21.3759  -32.4174  -16.0390 C   0  0  1  0  0  0  0  0  0  0  0  0
   19.8995  -32.7028  -15.9054 C   0  0  0  0  0  0  0  0  0  0  0  0
   19.1298  -31.4568  -16.0796 C   0  0  0  0  0  0  0  0  0  0  0  0
   17.9283  -31.4344  -15.7394 O   0  0  0  0  0  0  0  0  0  0  0  0
   22.2135  -33.5031  -15.4940 C   0  0  0  0  0  0  0  0  0  0  0  0
   21.7074  -34.5690  -15.0107 O   0  0  0  0  0  0  0  0  0  0  0  0
   19.6921  -30.2985  -16.6107 O   0  0  0  0  0  0  0  0  0  0  0  0
   23.6181  -33.4220  -15.4774 N   0  0  0  0  0  0  0  0  0  0  0  0
   24.4993  -34.5010  -14.9944 C   0  0  1  0  0  0  0  0  0  0  0  0
   25.5522  -34.6068  -16.0653 C   0  0  0  0  0  0  0  0  0  0  0  0
   25.2193  -35.4061  -17.2564 C   0  0  0  0  0  0  0  0  0  0  0  0
   24.8101  -34.7017  -18.4922 C   0  0  0  0  0  0  0  0  0  0  0  0
   24.5604  -35.6193  -19.6454 C   0  0  0  0  0  0  0  0  0  0  0  0
   24.2626  -34.8982  -20.8379 N   0  0  0  0  0  0  0  0  0  0  0  0
   25.0271  -33.9986  -13.6936 C   0  0  0  0  0  0  0  0  0  0  0  0
   25.0412  -32.7529  -13.3930 O   0  0  0  0  0  0  0  0  0  0  0  0
   25.2111  -32.4599   -5.2191 O   0  0  0  0  0  0  0  0  0  0  0  0
   25.1087  -32.7550   -6.5719 C   0  0  0  0  0  0  0  0  0  0  0  0
   24.7316  -34.0115   -6.9993 C   0  0  0  0  0  0  0  0  0  0  0  0
   24.6295  -34.3050   -8.3579 C   0  0  0  0  0  0  0  0  0  0  0  0
   24.8968  -33.3676   -9.3311 C   0  0  0  0  0  0  0  0  0  0  0  0
   24.8028  -33.6504  -10.7747 C   0  0  0  0  0  0  0  0  0  0  0  0
   25.9958  -34.3018  -11.3821 C   0  0  2  0  0  0  0  0  0  0  0  0
   25.5544  -34.8416  -12.6811 N   0  0  0  0  0  0  0  0  0  0  0  0
   26.4394  -35.4214  -10.5289 C   0  0  0  0  0  0  0  0  0  0  0  0
   25.9907  -36.5950  -10.7285 O   0  0  0  0  0  0  0  0  0  0  0  0
   25.2766  -32.1024   -8.8894 C   0  0  0  0  0  0  0  0  0  0  0  0
   25.3764  -31.8151   -7.5453 C   0  0  0  0  0  0  0  0  0  0  0  0
   27.3410  -35.2535   -9.4992 O   0  0  0  0  0  0  0  0  0  0  0  0
  2  3  1  0
  2  1  1  6
  3  4  1  0
  4  5  2  0
  4  8  1  0
  6  2  1  0
  6  7  2  0
  9  6  1  0
 10 16  1  0
 10  9  1  0
 10 11  1  6
 12 11  1  0
 13 12  1  0
 14 13  1  0
 15 14  1  0
 16 25  1  0
 17 16  2  0
 18 19  1  0
 19 29  2  0
 20 19  1  0
 20 21  2  0
 21 22  1  0
 22 28  2  0
 22 23  1  0
 24 23  1  1
 24 25  1  0
 24 26  1  0
 26 27  2  0
 26 30  1  0
 29 28  1  0
M  END
$$$$
