DKY.pdb
     RDKit          3D

 30 30  0  0  1  0  0  0  0  0999 V2000
   18.0597  -13.3904  -16.8251 N   0  0  0  0  0  0  0  0  0  0  0  0
   17.1930  -12.3972  -16.2242 C   0  0  1  0  0  0  0  0  0  0  0  0
   16.8539  -12.7429  -14.7944 C   0  0  0  0  0  0  0  0  0  0  0  0
   15.8767  -13.8472  -14.7633 C   0  0  0  0  0  0  0  0  0  0  0  0
   15.1113  -14.0065  -15.7372 O   0  0  0  0  0  0  0  0  0  0  0  0
   17.8363  -11.0752  -16.3493 C   0  0  0  0  0  0  0  0  0  0  0  0
   19.1009  -10.9299  -16.2775 O   0  0  0  0  0  0  0  0  0  0  0  0
   15.7731  -14.7238  -13.6858 O   0  0  0  0  0  0  0  0  0  0  0  0
   17.0890   -9.9009  -16.5548 N   0  0  0  0  0  0  0  0  0  0  0  0
   17.6882   -8.5736  -16.7860 C   0  0  1  0  0  0  0  0  0  0  0  0
   16.5648   -7.7771  -17.3943 C   0  0  0  0  0  0  0  0  0  0  0  0
   16.8474   -6.3732  -17.7373 C   0  0  0  0  0  0  0  0  0  0  0  0
   18.0631   -6.0654  -18.5236 C   0  0  0  0  0  0  0  0  0  0  0  0
   18.2690   -4.6030  -18.7532 C   0  0  0  0  0  0  0  0  0  0  0  0
   19.4524   -4.3490  -19.5056 N   0  0  0  0  0  0  0  0  0  0  0  0
   18.0818   -8.0995  -15.4283 C   0  0  0  0  0  0  0  0  0  0  0  0
   17.3159   -8.2241  -14.4083 O   0  0  0  0  0  0  0  0  0  0  0  0
   25.0181   -5.8148  -17.2342 O   0  0  0  0  0  0  0  0  0  0  0  0
   24.0445   -6.1972  -16.3212 C   0  0  0  0  0  0  0  0  0  0  0  0
   23.6084   -5.3295  -15.3412 C   0  0  0  0  0  0  0  0  0  0  0  0
   22.6309   -5.7159  -14.4259 C   0  0  0  0  0  0  0  0  0  0  0  0
   22.0577   -6.9681  -14.4526 C   0  0  0  0  0  0  0  0  0  0  0  0
   21.0264   -7.4066  -13.4950 C   0  0  0  0  0  0  0  0  0  0  0  0
   19.6376   -6.9633  -13.7969 C   0  0  2  0  0  0  0  0  0  0  0  0
   19.3243   -7.4761  -15.1431 N   0  0  0  0  0  0  0  0  0  0  0  0
   19.5816   -5.4887  -13.8258 C   0  0  0  0  0  0  0  0  0  0  0  0
   19.7627   -4.8203  -12.7586 O   0  0  0  0  0  0  0  0  0  0  0  0
   22.5047   -7.8364  -15.4457 C   0  0  0  0  0  0  0  0  0  0  0  0
   23.4712   -7.4514  -16.3494 C   0  0  0  0  0  0  0  0  0  0  0  0
   19.3369   -4.7811  -14.9837 O   0  0  0  0  0  0  0  0  0  0  0  0
  2  3  1  0
  2  1  1  1
  3  4  1  0
  4  5  2  0
  4  8  1  0
  6  2  1  0
  6  7  2  0
  9  6  1  0
 10 16  1  0
 10  9  1  0
 10 11  1  1
 12 11  1  0
 13 12  1  0
 14 13  1  0
 15 14  1  0
 16 25  1  0
 17 16  2  0
 18 19  1  0
 19 29  2  0
 20 19  1  0
 20 21  2  0
 21 22  1  0
 22 28  2  0
 22 23  1  0
 24 23  1  6
 24 25  1  0
 24 26  1  0
 26 27  2  0
 26 30  1  0
 29 28  1  0
M  END
$$$$
