DKY.pdb
     RDKit          3D

 30 30  0  0  1  0  0  0  0  0999 V2000
   19.2268  -12.5690  -17.0227 N   0  0  0  0  0  0  0  0  0  0  0  0
   20.2905  -11.7695  -17.5957 C   0  0  1  0  0  0  0  0  0  0  0  0
   20.4073  -11.9799  -19.0859 C   0  0  0  0  0  0  0  0  0  0  0  0
   20.6318  -13.4087  -19.3750 C   0  0  0  0  0  0  0  0  0  0  0  0
   21.6528  -13.9656  -18.9199 O   0  0  0  0  0  0  0  0  0  0  0  0
   20.0591  -10.3562  -17.2403 C   0  0  0  0  0  0  0  0  0  0  0  0
   20.8855   -9.4369  -17.5532 O   0  0  0  0  0  0  0  0  0  0  0  0
   19.7463  -14.1651  -20.1389 O   0  0  0  0  0  0  0  0  0  0  0  0
   18.9129   -9.9444  -16.5357 N   0  0  0  0  0  0  0  0  0  0  0  0
   18.6321   -8.5448  -16.1665 C   0  0  1  0  0  0  0  0  0  0  0  0
   17.1856   -8.5700  -15.7498 C   0  0  0  0  0  0  0  0  0  0  0  0
   16.6227   -7.3230  -15.2055 C   0  0  0  0  0  0  0  0  0  0  0  0
   15.2331   -7.3346  -14.6958 C   0  0  0  0  0  0  0  0  0  0  0  0
   14.8306   -6.0556  -14.0356 C   0  0  0  0  0  0  0  0  0  0  0  0
   13.4518   -6.0596  -13.6750 N   0  0  0  0  0  0  0  0  0  0  0  0
   19.5671   -8.2604  -15.0406 C   0  0  0  0  0  0  0  0  0  0  0  0
   19.9093   -9.1549  -14.1890 O   0  0  0  0  0  0  0  0  0  0  0  0
   25.1594   -5.8184  -18.7588 O   0  0  0  0  0  0  0  0  0  0  0  0
   24.4733   -6.2650  -17.6374 C   0  0  0  0  0  0  0  0  0  0  0  0
   23.9399   -7.5365  -17.5896 C   0  0  0  0  0  0  0  0  0  0  0  0
   23.2516   -7.9824  -16.4627 C   0  0  0  0  0  0  0  0  0  0  0  0
   23.0707   -7.1862  -15.3533 C   0  0  0  0  0  0  0  0  0  0  0  0
   22.3429   -7.6282  -14.1500 C   0  0  0  0  0  0  0  0  0  0  0  0
   21.1739   -6.7922  -13.7614 C   0  0  2  0  0  0  0  0  0  0  0  0
   20.1579   -6.9906  -14.8111 N   0  0  0  0  0  0  0  0  0  0  0  0
   21.5647   -5.3691  -13.7421 C   0  0  0  0  0  0  0  0  0  0  0  0
   21.1061   -4.5675  -14.6171 O   0  0  0  0  0  0  0  0  0  0  0  0
   23.6129   -5.9046  -15.4116 C   0  0  0  0  0  0  0  0  0  0  0  0
   24.2932   -5.4667  -16.5272 C   0  0  0  0  0  0  0  0  0  0  0  0
   22.4246   -4.8518  -12.7964 O   0  0  0  0  0  0  0  0  0  0  0  0
  2  3  1  0
  2  1  1  6
  3  4  1  0
  4  5  2  0
  4  8  1  0
  6  2  1  0
  6  7  2  0
  9  6  1  0
 10 16  1  0
 10  9  1  0
 10 11  1  1
 12 11  1  0
 13 12  1  0
 14 13  1  0
 15 14  1  0
 16 25  1  0
 17 16  2  0
 18 19  1  0
 19 29  2  0
 20 19  1  0
 20 21  2  0
 21 22  1  0
 22 28  2  0
 22 23  1  0
 24 23  1  6
 24 25  1  0
 24 26  1  0
 26 27  2  0
 26 30  1  0
 29 28  1  0
M  END
$$$$
