DKY.pdb
     RDKit          3D

 30 30  0  0  1  0  0  0  0  0999 V2000
   28.4672  -20.5695  -16.6137 N   0  0  0  0  0  0  0  0  0  0  0  0
   27.1794  -20.8635  -17.2088 C   0  0  1  0  0  0  0  0  0  0  0  0
   27.3036  -21.8322  -18.3599 C   0  0  0  0  0  0  0  0  0  0  0  0
   28.0137  -21.1900  -19.4819 C   0  0  0  0  0  0  0  0  0  0  0  0
   28.3638  -19.9961  -19.3733 O   0  0  0  0  0  0  0  0  0  0  0  0
   26.2747  -21.3542  -16.1515 C   0  0  0  0  0  0  0  0  0  0  0  0
   25.1777  -21.9453  -16.4219 O   0  0  0  0  0  0  0  0  0  0  0  0
   28.3108  -21.8653  -20.6632 O   0  0  0  0  0  0  0  0  0  0  0  0
   26.5726  -21.1968  -14.7854 N   0  0  0  0  0  0  0  0  0  0  0  0
   25.6288  -21.5073  -13.6959 C   0  0  1  0  0  0  0  0  0  0  0  0
   26.3714  -21.0939  -12.4533 C   0  0  0  0  0  0  0  0  0  0  0  0
   25.6264  -21.1302  -11.1836 C   0  0  0  0  0  0  0  0  0  0  0  0
   26.2800  -20.6089   -9.9621 C   0  0  0  0  0  0  0  0  0  0  0  0
   25.3956  -20.6333   -8.7573 C   0  0  0  0  0  0  0  0  0  0  0  0
   26.0348  -20.0552   -7.6224 N   0  0  0  0  0  0  0  0  0  0  0  0
   24.4360  -20.6596  -13.9817 C   0  0  0  0  0  0  0  0  0  0  0  0
   24.5342  -19.4720  -14.4532 O   0  0  0  0  0  0  0  0  0  0  0  0
   17.5947  -17.2179  -17.8397 O   0  0  0  0  0  0  0  0  0  0  0  0
   18.6619  -17.9184  -17.2938 C   0  0  0  0  0  0  0  0  0  0  0  0
   18.6315  -19.2939  -17.1906 C   0  0  0  0  0  0  0  0  0  0  0  0
   19.7041  -19.9947  -16.6421 C   0  0  0  0  0  0  0  0  0  0  0  0
   20.8350  -19.3578  -16.1807 C   0  0  0  0  0  0  0  0  0  0  0  0
   21.9821  -20.0715  -15.5912 C   0  0  0  0  0  0  0  0  0  0  0  0
   21.9524  -20.2259  -14.1108 C   0  0  2  0  0  0  0  0  0  0  0  0
   23.0996  -21.0837  -13.7624 N   0  0  0  0  0  0  0  0  0  0  0  0
   20.7084  -20.9100  -13.7070 C   0  0  0  0  0  0  0  0  0  0  0  0
   19.7146  -20.2357  -13.2870 O   0  0  0  0  0  0  0  0  0  0  0  0
   20.8558  -17.9694  -16.2895 C   0  0  0  0  0  0  0  0  0  0  0  0
   19.7937  -17.2793  -16.8325 C   0  0  0  0  0  0  0  0  0  0  0  0
   20.5663  -22.2802  -13.7652 O   0  0  0  0  0  0  0  0  0  0  0  0
  2  3  1  0
  2  1  1  1
  3  4  1  0
  4  5  2  0
  4  8  1  0
  6  2  1  0
  6  7  2  0
  9  6  1  0
 10 16  1  0
 10  9  1  0
 10 11  1  1
 12 11  1  0
 13 12  1  0
 14 13  1  0
 15 14  1  0
 16 25  1  0
 17 16  2  0
 18 19  1  0
 19 29  2  0
 20 19  1  0
 20 21  2  0
 21 22  1  0
 22 28  2  0
 22 23  1  0
 24 23  1  6
 24 25  1  0
 24 26  1  0
 26 27  2  0
 26 30  1  0
 29 28  1  0
M  END
$$$$
