DKY.pdb
     RDKit          3D

 30 30  0  0  1  0  0  0  0  0999 V2000
   25.3468  -18.5774  -20.7544 N   0  0  0  0  0  0  0  0  0  0  0  0
   24.7655  -18.1215  -19.5081 C   0  0  1  0  0  0  0  0  0  0  0  0
   23.7811  -16.9984  -19.7282 C   0  0  0  0  0  0  0  0  0  0  0  0
   24.4741  -15.6993  -19.6405 C   0  0  0  0  0  0  0  0  0  0  0  0
   25.7096  -15.6828  -19.4586 O   0  0  0  0  0  0  0  0  0  0  0  0
   24.1594  -19.2786  -18.8217 C   0  0  0  0  0  0  0  0  0  0  0  0
   23.5546  -20.2019  -19.4600 O   0  0  0  0  0  0  0  0  0  0  0  0
   23.8023  -14.4844  -19.7530 O   0  0  0  0  0  0  0  0  0  0  0  0
   24.2152  -19.4269  -17.4236 N   0  0  0  0  0  0  0  0  0  0  0  0
   23.6589  -20.5821  -16.6955 C   0  0  1  0  0  0  0  0  0  0  0  0
   24.6873  -20.8614  -15.6321 C   0  0  0  0  0  0  0  0  0  0  0  0
   25.1547  -22.2516  -15.4999 C   0  0  0  0  0  0  0  0  0  0  0  0
   26.1185  -22.7740  -16.4945 C   0  0  0  0  0  0  0  0  0  0  0  0
   26.4764  -24.2091  -16.2797 C   0  0  0  0  0  0  0  0  0  0  0  0
   27.3717  -24.6848  -17.2813 N   0  0  0  0  0  0  0  0  0  0  0  0
   22.3618  -20.0902  -16.1491 C   0  0  0  0  0  0  0  0  0  0  0  0
   22.2774  -19.0389  -15.4211 O   0  0  0  0  0  0  0  0  0  0  0  0
   20.2552  -15.4435  -20.2353 O   0  0  0  0  0  0  0  0  0  0  0  0
   19.9369  -16.5409  -19.4465 C   0  0  0  0  0  0  0  0  0  0  0  0
   19.1518  -16.4035  -18.3203 C   0  0  0  0  0  0  0  0  0  0  0  0
   18.8336  -17.5067  -17.5302 C   0  0  0  0  0  0  0  0  0  0  0  0
   19.2814  -18.7744  -17.8295 C   0  0  0  0  0  0  0  0  0  0  0  0
   18.9660  -19.9585  -17.0101 C   0  0  0  0  0  0  0  0  0  0  0  0
   19.8580  -20.1881  -15.8405 C   0  0  2  0  0  0  0  0  0  0  0  0
   21.1171  -20.7309  -16.3823 N   0  0  0  0  0  0  0  0  0  0  0  0
   19.2543  -21.1936  -14.9445 C   0  0  0  0  0  0  0  0  0  0  0  0
   19.8146  -22.3242  -14.7815 O   0  0  0  0  0  0  0  0  0  0  0  0
   20.0731  -18.9025  -18.9683 C   0  0  0  0  0  0  0  0  0  0  0  0
   20.3858  -17.8098  -19.7476 C   0  0  0  0  0  0  0  0  0  0  0  0
   18.0822  -20.9613  -14.2564 O   0  0  0  0  0  0  0  0  0  0  0  0
  2  3  1  0
  2  1  1  6
  3  4  1  0
  4  5  2  0
  4  8  1  0
  6  2  1  0
  6  7  2  0
  9  6  1  0
 10 16  1  0
 10  9  1  0
 10 11  1  1
 12 11  1  0
 13 12  1  0
 14 13  1  0
 15 14  1  0
 16 25  1  0
 17 16  2  0
 18 19  1  0
 19 29  2  0
 20 19  1  0
 20 21  2  0
 21 22  1  0
 22 28  2  0
 22 23  1  0
 24 23  1  6
 24 25  1  0
 24 26  1  0
 26 27  2  0
 26 30  1  0
 29 28  1  0
M  END
$$$$
