DKY.pdb
     RDKit          3D

 30 30  0  0  1  0  0  0  0  0999 V2000
   17.2468  -12.8913    2.8470 N   0  0  0  0  0  0  0  0  0  0  0  0
   16.7167  -13.4977    4.0512 C   0  0  1  0  0  0  0  0  0  0  0  0
   15.7893  -14.6466    3.7369 C   0  0  0  0  0  0  0  0  0  0  0  0
   14.3950  -14.1678    3.6901 C   0  0  0  0  0  0  0  0  0  0  0  0
   14.1567  -12.9701    3.9520 O   0  0  0  0  0  0  0  0  0  0  0  0
   17.8464  -13.9013    4.9102 C   0  0  0  0  0  0  0  0  0  0  0  0
   18.8266  -14.5823    4.4615 O   0  0  0  0  0  0  0  0  0  0  0  0
   13.3285  -15.0020    3.3639 O   0  0  0  0  0  0  0  0  0  0  0  0
   17.9045  -13.5569    6.2732 N   0  0  0  0  0  0  0  0  0  0  0  0
   19.0108  -13.9356    7.1716 C   0  0  1  0  0  0  0  0  0  0  0  0
   18.8439  -13.0134    8.3498 C   0  0  0  0  0  0  0  0  0  0  0  0
   19.5513  -11.7230    8.2968 C   0  0  0  0  0  0  0  0  0  0  0  0
   21.0015  -11.7202    8.0004 C   0  0  0  0  0  0  0  0  0  0  0  0
   21.6135  -10.3570    8.0354 C   0  0  0  0  0  0  0  0  0  0  0  0
   22.9850  -10.3848    7.6493 N   0  0  0  0  0  0  0  0  0  0  0  0
   18.7528  -15.3669    7.4996 C   0  0  0  0  0  0  0  0  0  0  0  0
   17.6697  -15.9642    7.1641 O   0  0  0  0  0  0  0  0  0  0  0  0
   19.4069  -23.6272    5.6353 O   0  0  0  0  0  0  0  0  0  0  0  0
   19.5101  -22.2700    5.9090 C   0  0  0  0  0  0  0  0  0  0  0  0
   18.4337  -21.4250    5.7328 C   0  0  0  0  0  0  0  0  0  0  0  0
   18.5400  -20.0629    6.0084 C   0  0  0  0  0  0  0  0  0  0  0  0
   19.7104  -19.4979    6.4647 C   0  0  0  0  0  0  0  0  0  0  0  0
   19.8542  -18.0607    6.7592 C   0  0  0  0  0  0  0  0  0  0  0  0
   19.5718  -17.6604    8.1650 C   0  0  2  0  0  0  0  0  0  0  0  0
   19.6704  -16.1899    8.2029 N   0  0  0  0  0  0  0  0  0  0  0  0
   20.5992  -18.2282    9.0597 C   0  0  0  0  0  0  0  0  0  0  0  0
   21.7145  -17.6353    9.2110 O   0  0  0  0  0  0  0  0  0  0  0  0
   20.7909  -20.3592    6.6393 C   0  0  0  0  0  0  0  0  0  0  0  0
   20.6827  -21.7057    6.3662 C   0  0  0  0  0  0  0  0  0  0  0  0
   20.4038  -19.4004    9.7590 O   0  0  0  0  0  0  0  0  0  0  0  0
  2  3  1  0
  2  1  1  6
  3  4  1  0
  4  5  2  0
  4  8  1  0
  6  2  1  0
  6  7  2  0
  9  6  1  0
 10 16  1  0
 10  9  1  0
 10 11  1  1
 12 11  1  0
 13 12  1  0
 14 13  1  0
 15 14  1  0
 16 25  1  0
 17 16  2  0
 18 19  1  0
 19 29  2  0
 20 19  1  0
 20 21  2  0
 21 22  1  0
 22 28  2  0
 22 23  1  0
 24 23  1  6
 24 25  1  0
 24 26  1  0
 26 27  2  0
 26 30  1  0
 29 28  1  0
M  END
$$$$
