DKY.pdb
     RDKit          3D

 30 30  0  0  1  0  0  0  0  0999 V2000
   22.8336  -16.4085  -17.1939 N   0  0  0  0  0  0  0  0  0  0  0  0
   24.1456  -16.5628  -16.5992 C   0  0  1  0  0  0  0  0  0  0  0  0
   24.3404  -15.6329  -15.4261 C   0  0  0  0  0  0  0  0  0  0  0  0
   24.8337  -14.3256  -15.8985 C   0  0  0  0  0  0  0  0  0  0  0  0
   24.4624  -13.9052  -17.0143 O   0  0  0  0  0  0  0  0  0  0  0  0
   24.3320  -17.9803  -16.2344 C   0  0  0  0  0  0  0  0  0  0  0  0
   23.4340  -18.6428  -15.6175 O   0  0  0  0  0  0  0  0  0  0  0  0
   25.7013  -13.5375  -15.1461 O   0  0  0  0  0  0  0  0  0  0  0  0
   25.5120  -18.6799  -16.5472 N   0  0  0  0  0  0  0  0  0  0  0  0
   25.8107  -20.0439  -16.0733 C   0  0  1  0  0  0  0  0  0  0  0  0
   27.0246  -20.4399  -16.8708 C   0  0  0  0  0  0  0  0  0  0  0  0
   27.6829  -21.7056  -16.5062 C   0  0  0  0  0  0  0  0  0  0  0  0
   27.2661  -22.9469  -17.1964 C   0  0  0  0  0  0  0  0  0  0  0  0
   28.0275  -24.1561  -16.7580 C   0  0  0  0  0  0  0  0  0  0  0  0
   27.4696  -25.3532  -17.2934 N   0  0  0  0  0  0  0  0  0  0  0  0
   26.0867  -19.8816  -14.6171 C   0  0  0  0  0  0  0  0  0  0  0  0
   26.7014  -18.8615  -14.1439 O   0  0  0  0  0  0  0  0  0  0  0  0
   19.6412  -20.4340  -11.2601 O   0  0  0  0  0  0  0  0  0  0  0  0
   21.0051  -20.2031  -11.3792 C   0  0  0  0  0  0  0  0  0  0  0  0
   21.5683  -19.8815  -12.5969 C   0  0  0  0  0  0  0  0  0  0  0  0
   22.9378  -19.6502  -12.7137 C   0  0  0  0  0  0  0  0  0  0  0  0
   23.7881  -19.7301  -11.6330 C   0  0  0  0  0  0  0  0  0  0  0  0
   25.2404  -19.4962  -11.7270 C   0  0  0  0  0  0  0  0  0  0  0  0
   26.0479  -20.6490  -12.2123 C   0  0  2  0  0  0  0  0  0  0  0  0
   25.6987  -20.8280  -13.6334 N   0  0  0  0  0  0  0  0  0  0  0  0
   25.6681  -21.8686  -11.4729 C   0  0  0  0  0  0  0  0  0  0  0  0
   25.9059  -21.9615  -10.2266 O   0  0  0  0  0  0  0  0  0  0  0  0
   23.2097  -20.0553  -10.4084 C   0  0  0  0  0  0  0  0  0  0  0  0
   21.8552  -20.2832  -10.2961 C   0  0  0  0  0  0  0  0  0  0  0  0
   25.0510  -22.9403  -12.0827 O   0  0  0  0  0  0  0  0  0  0  0  0
  2  3  1  0
  2  1  1  1
  3  4  1  0
  4  5  2  0
  4  8  1  0
  6  2  1  0
  6  7  2  0
  9  6  1  0
 10 16  1  0
 10  9  1  0
 10 11  1  6
 12 11  1  0
 13 12  1  0
 14 13  1  0
 15 14  1  0
 16 25  1  0
 17 16  2  0
 18 19  1  0
 19 29  2  0
 20 19  1  0
 20 21  2  0
 21 22  1  0
 22 28  2  0
 22 23  1  0
 24 23  1  1
 24 25  1  0
 24 26  1  0
 26 27  2  0
 26 30  1  0
 29 28  1  0
M  END
$$$$
