SQN.pdb
     RDKit          3D

 24 23  0  0  1  0  0  0  0  0999 V2000
   18.4252  -11.3644  -14.3057 O   0  0  0  0  0  0  0  0  0  0  0  0
   19.3055  -10.6519  -15.0825 C   0  0  0  0  0  0  0  0  0  0  0  0
   18.8127  -10.4831  -16.5071 C   0  0  2  0  0  0  0  0  0  0  0  0
   18.7253  -11.7657  -17.1266 N   0  0  0  0  0  0  0  0  0  0  0  0
   19.6550   -9.5483  -17.2811 C   0  0  0  0  0  0  0  0  0  0  0  0
   19.9452   -9.7427  -18.4909 O   0  0  0  0  0  0  0  0  0  0  0  0
   18.5067   -5.5825  -20.3793 N   0  0  0  0  0  0  0  0  0  0  0  0
   19.8695   -5.1677  -20.2268 C   0  0  0  0  0  0  0  0  0  0  0  0
   20.2867   -4.2981  -21.0139 O   0  0  0  0  0  0  0  0  0  0  0  0
   20.7586   -5.7237  -19.1988 C   0  0  0  0  0  0  0  0  0  0  0  0
   20.0208   -6.7613  -18.3926 C   0  0  0  0  0  0  0  0  0  0  0  0
   20.8961   -7.3394  -17.3127 C   0  0  2  0  0  0  0  0  0  0  0  0
   20.1587   -8.3887  -16.6430 N   0  0  0  0  0  0  0  0  0  0  0  0
   21.2421   -6.2336  -16.3836 C   0  0  0  0  0  0  0  0  0  0  0  0
   20.2916   -5.5704  -15.9075 O   0  0  0  0  0  0  0  0  0  0  0  0
   22.4309   -1.9206  -17.3602 N   0  0  0  0  0  0  0  0  0  0  0  0
   22.9066   -2.8222  -16.3667 C   0  0  0  0  0  0  0  0  0  0  0  0
   24.1833   -2.9065  -16.2707 O   0  0  0  0  0  0  0  0  0  0  0  0
   22.0619   -3.6312  -15.4741 C   0  0  0  0  0  0  0  0  0  0  0  0
   22.7935   -4.8545  -15.0118 C   0  0  2  0  0  0  0  0  0  0  0  0
   22.5733   -5.9110  -16.0258 N   0  0  0  0  0  0  0  0  0  0  0  0
   22.1768   -5.3231  -13.7258 C   0  0  0  0  0  0  0  0  0  0  0  0
   20.9753   -5.7634  -13.7177 O   0  0  0  0  0  0  0  0  0  0  0  0
   22.8142   -5.3200  -12.5125 O   0  0  0  0  0  0  0  0  0  0  0  0
  2  1  1  0
  2  3  1  0
  3  4  1  6
  5  3  1  0
  5  6  2  0
  7  8  1  0
  8 10  1  0
  9  8  2  0
 10 11  1  0
 12 11  1  6
 12 13  1  0
 13  5  1  0
 14 12  1  0
 15 14  2  0
 16 17  1  0
 17 19  1  0
 18 17  2  0
 20 19  1  6
 20 21  1  0
 20 22  1  0
 21 14  1  0
 22 24  1  0
 23 22  2  0
M  END
$$$$
