SQN.pdb
     RDKit          3D

 24 23  0  0  1  0  0  0  0  0999 V2000
   25.6685  -20.7236   -7.9558 O   0  0  0  0  0  0  0  0  0  0  0  0
   25.1822  -20.6262   -9.2364 C   0  0  0  0  0  0  0  0  0  0  0  0
   26.1599  -21.1577  -10.2673 C   0  0  2  0  0  0  0  0  0  0  0  0
   27.4637  -20.6546   -9.9780 N   0  0  0  0  0  0  0  0  0  0  0  0
   25.7379  -20.8460  -11.6483 C   0  0  0  0  0  0  0  0  0  0  0  0
   25.8652  -19.6989  -12.1518 O   0  0  0  0  0  0  0  0  0  0  0  0
   26.5716  -24.5481  -16.3601 N   0  0  0  0  0  0  0  0  0  0  0  0
   25.6806  -23.5772  -16.9221 C   0  0  0  0  0  0  0  0  0  0  0  0
   25.5403  -23.5886  -18.1590 O   0  0  0  0  0  0  0  0  0  0  0  0
   24.9515  -22.6004  -16.1032 C   0  0  0  0  0  0  0  0  0  0  0  0
   25.3264  -22.7685  -14.6533 C   0  0  0  0  0  0  0  0  0  0  0  0
   24.7031  -21.6969  -13.7991 C   0  0  2  0  0  0  0  0  0  0  0  0
   25.1669  -21.8721  -12.4398 N   0  0  0  0  0  0  0  0  0  0  0  0
   23.2294  -21.8515  -13.8998 C   0  0  0  0  0  0  0  0  0  0  0  0
   22.6341  -22.3081  -12.8963 O   0  0  0  0  0  0  0  0  0  0  0  0
   18.4934  -20.0779  -14.3213 N   0  0  0  0  0  0  0  0  0  0  0  0
   19.6391  -19.6007  -13.6245 C   0  0  0  0  0  0  0  0  0  0  0  0
   19.4022  -18.7242  -12.7177 O   0  0  0  0  0  0  0  0  0  0  0  0
   21.0250  -20.0323  -13.8647 C   0  0  0  0  0  0  0  0  0  0  0  0
   21.0746  -21.1135  -14.9012 C   0  0  2  0  0  0  0  0  0  0  0  0
   22.4926  -21.5096  -15.0594 N   0  0  0  0  0  0  0  0  0  0  0  0
   20.6134  -20.5420  -16.2105 C   0  0  0  0  0  0  0  0  0  0  0  0
   21.3704  -19.7387  -16.8580 O   0  0  0  0  0  0  0  0  0  0  0  0
   19.4048  -20.8172  -16.7951 O   0  0  0  0  0  0  0  0  0  0  0  0
  2  1  1  0
  2  3  1  0
  3  4  1  1
  5  3  1  0
  5  6  2  0
  7  8  1  0
  8 10  1  0
  9  8  2  0
 10 11  1  0
 12 11  1  6
 12 13  1  0
 13  5  1  0
 14 12  1  0
 15 14  2  0
 16 17  1  0
 17 19  1  0
 18 17  2  0
 20 19  1  1
 20 21  1  0
 20 22  1  0
 21 14  1  0
 22 24  1  0
 23 22  2  0
M  END
$$$$
