SQN.pdb
     RDKit          3D

 24 23  0  0  1  0  0  0  0  0999 V2000
   24.1377  -11.5367  -20.0805 O   0  0  0  0  0  0  0  0  0  0  0  0
   23.2646  -10.5895  -19.6047 C   0  0  0  0  0  0  0  0  0  0  0  0
   21.9480  -11.1927  -19.1534 C   0  0  2  0  0  0  0  0  0  0  0  0
   21.2514  -11.6993  -20.2913 N   0  0  0  0  0  0  0  0  0  0  0  0
   21.1303  -10.2331  -18.3832 C   0  0  0  0  0  0  0  0  0  0  0  0
   20.1969   -9.5683  -18.9052 O   0  0  0  0  0  0  0  0  0  0  0  0
   17.6914  -10.4241  -15.1189 N   0  0  0  0  0  0  0  0  0  0  0  0
   18.0943   -9.4399  -14.1592 C   0  0  0  0  0  0  0  0  0  0  0  0
   17.1918   -8.8898  -13.5013 O   0  0  0  0  0  0  0  0  0  0  0  0
   19.4994   -9.0749  -13.9379 C   0  0  0  0  0  0  0  0  0  0  0  0
   20.3869   -9.8879  -14.8447 C   0  0  0  0  0  0  0  0  0  0  0  0
   20.6626   -9.1624  -16.1348 C   0  0  2  0  0  0  0  0  0  0  0  0
   21.4029  -10.0494  -17.0058 N   0  0  0  0  0  0  0  0  0  0  0  0
   21.4439   -7.9446  -15.8000 C   0  0  0  0  0  0  0  0  0  0  0  0
   22.6654   -8.0972  -15.5662 O   0  0  0  0  0  0  0  0  0  0  0  0
   22.3810   -2.0581  -16.4735 N   0  0  0  0  0  0  0  0  0  0  0  0
   21.9275   -3.0868  -15.6006 C   0  0  0  0  0  0  0  0  0  0  0  0
   22.2119   -2.9172  -14.3609 O   0  0  0  0  0  0  0  0  0  0  0  0
   21.1794   -4.2856  -16.0107 C   0  0  0  0  0  0  0  0  0  0  0  0
   21.7436   -5.5136  -15.3631 C   0  0  2  0  0  0  0  0  0  0  0  0
   20.8724   -6.6509  -15.7376 N   0  0  0  0  0  0  0  0  0  0  0  0
   21.6611   -5.3491  -13.8732 C   0  0  0  0  0  0  0  0  0  0  0  0
   20.6010   -5.7033  -13.2500 O   0  0  0  0  0  0  0  0  0  0  0  0
   22.6619   -4.8324  -13.0924 O   0  0  0  0  0  0  0  0  0  0  0  0
  2  1  1  0
  2  3  1  0
  3  4  1  6
  5  3  1  0
  5  6  2  0
  7  8  1  0
  8 10  1  0
  9  8  2  0
 10 11  1  0
 12 11  1  1
 12 13  1  0
 13  5  1  0
 14 12  1  0
 15 14  2  0
 16 17  1  0
 17 19  1  0
 18 17  2  0
 20 19  1  6
 20 21  1  0
 20 22  1  0
 21 14  1  0
 22 24  1  0
 23 22  2  0
M  END
$$$$
