SQN.pdb
     RDKit          3D

 24 23  0  0  1  0  0  0  0  0999 V2000
   25.2700  -16.9162  -17.3498 O   0  0  0  0  0  0  0  0  0  0  0  0
   26.4056  -16.9134  -16.5775 C   0  0  0  0  0  0  0  0  0  0  0  0
   27.0349  -18.2895  -16.4712 C   0  0  2  0  0  0  0  0  0  0  0  0
   27.5052  -18.6891  -17.7579 N   0  0  0  0  0  0  0  0  0  0  0  0
   26.1104  -19.2814  -15.8848 C   0  0  0  0  0  0  0  0  0  0  0  0
   25.4935  -20.1273  -16.5843 O   0  0  0  0  0  0  0  0  0  0  0  0
   25.8670  -20.3122   -9.6395 N   0  0  0  0  0  0  0  0  0  0  0  0
   24.7610  -21.0671  -10.1486 C   0  0  0  0  0  0  0  0  0  0  0  0
   24.1422  -21.7799   -9.3369 O   0  0  0  0  0  0  0  0  0  0  0  0
   24.3510  -21.0232  -11.5580 C   0  0  0  0  0  0  0  0  0  0  0  0
   25.2713  -20.1125  -12.3292 C   0  0  0  0  0  0  0  0  0  0  0  0
   24.9405  -20.1166  -13.7980 C   0  0  2  0  0  0  0  0  0  0  0  0
   25.9057  -19.2847  -14.4835 N   0  0  0  0  0  0  0  0  0  0  0  0
   23.5602  -19.5880  -13.9427 C   0  0  0  0  0  0  0  0  0  0  0  0
   23.3937  -18.3638  -13.7346 O   0  0  0  0  0  0  0  0  0  0  0  0
   18.5217  -19.4421  -17.1340 N   0  0  0  0  0  0  0  0  0  0  0  0
   19.1818  -19.6093  -15.8841 C   0  0  0  0  0  0  0  0  0  0  0  0
   18.5309  -19.1891  -14.8612 O   0  0  0  0  0  0  0  0  0  0  0  0
   20.5104  -20.2124  -15.6948 C   0  0  0  0  0  0  0  0  0  0  0  0
   21.1212  -19.7620  -14.4028 C   0  0  2  0  0  0  0  0  0  0  0  0
   22.4546  -20.3975  -14.2987 N   0  0  0  0  0  0  0  0  0  0  0  0
   20.2814  -20.2793  -13.2710 C   0  0  0  0  0  0  0  0  0  0  0  0
   19.4206  -19.5138  -12.7136 O   0  0  0  0  0  0  0  0  0  0  0  0
   20.3600  -21.5499  -12.7635 O   0  0  0  0  0  0  0  0  0  0  0  0
  2  1  1  0
  2  3  1  0
  3  4  1  6
  5  3  1  0
  5  6  2  0
  7  8  1  0
  8 10  1  0
  9  8  2  0
 10 11  1  0
 12 11  1  1
 12 13  1  0
 13  5  1  0
 14 12  1  0
 15 14  2  0
 16 17  1  0
 17 19  1  0
 18 17  2  0
 20 19  1  6
 20 21  1  0
 20 22  1  0
 21 14  1  0
 22 24  1  0
 23 22  2  0
M  END
$$$$
