SQN.pdb
     RDKit          3D

 24 23  0  0  1  0  0  0  0  0999 V2000
   22.1875  -14.4263  -20.0340 O   0  0  0  0  0  0  0  0  0  0  0  0
   21.6887  -13.1584  -19.8618 C   0  0  0  0  0  0  0  0  0  0  0  0
   22.2245  -12.4925  -18.6086 C   0  0  2  0  0  0  0  0  0  0  0  0
   22.2647  -13.4500  -17.5511 N   0  0  0  0  0  0  0  0  0  0  0  0
   21.4480  -11.2907  -18.2406 C   0  0  0  0  0  0  0  0  0  0  0  0
   21.3117  -10.3094  -19.0179 O   0  0  0  0  0  0  0  0  0  0  0  0
   17.3103  -12.7494  -14.8893 N   0  0  0  0  0  0  0  0  0  0  0  0
   16.7803  -11.6203  -15.5940 C   0  0  0  0  0  0  0  0  0  0  0  0
   15.5628  -11.6370  -15.8534 O   0  0  0  0  0  0  0  0  0  0  0  0
   17.6092  -10.4799  -16.0049 C   0  0  0  0  0  0  0  0  0  0  0  0
   19.0198  -10.6693  -15.5094 C   0  0  0  0  0  0  0  0  0  0  0  0
   20.0228  -10.1319  -16.4952 C   0  0  2  0  0  0  0  0  0  0  0  0
   20.8326  -11.2344  -16.9665 N   0  0  0  0  0  0  0  0  0  0  0  0
   20.8404   -9.1152  -15.7856 C   0  0  0  0  0  0  0  0  0  0  0  0
   21.7546   -9.5377  -15.0402 O   0  0  0  0  0  0  0  0  0  0  0  0
   22.9416   -4.7054  -13.8917 N   0  0  0  0  0  0  0  0  0  0  0  0
   22.6703   -4.6773  -15.2887 C   0  0  0  0  0  0  0  0  0  0  0  0
   23.1340   -3.6583  -15.9157 O   0  0  0  0  0  0  0  0  0  0  0  0
   21.9233   -5.7030  -16.0336 C   0  0  0  0  0  0  0  0  0  0  0  0
   21.4724   -6.8024  -15.1206 C   0  0  2  0  0  0  0  0  0  0  0  0
   20.6291   -7.7217  -15.9184 N   0  0  0  0  0  0  0  0  0  0  0  0
   20.6074   -6.2079  -14.0473 C   0  0  0  0  0  0  0  0  0  0  0  0
   19.3408   -6.1369  -14.2152 O   0  0  0  0  0  0  0  0  0  0  0  0
   21.0752   -5.7158  -12.8568 O   0  0  0  0  0  0  0  0  0  0  0  0
  2  1  1  0
  2  3  1  0
  3  4  1  1
  5  3  1  0
  5  6  2  0
  7  8  1  0
  8 10  1  0
  9  8  2  0
 10 11  1  0
 12 11  1  1
 12 13  1  0
 13  5  1  0
 14 12  1  0
 15 14  2  0
 16 17  1  0
 17 19  1  0
 18 17  2  0
 20 19  1  6
 20 21  1  0
 20 22  1  0
 21 14  1  0
 22 24  1  0
 23 22  2  0
M  END
$$$$
