SQN.pdb
     RDKit          3D

 24 23  0  0  1  0  0  0  0  0999 V2000
   20.2663  -20.8114  -17.1837 O   0  0  0  0  0  0  0  0  0  0  0  0
   20.5585  -19.5898  -16.6287 C   0  0  0  0  0  0  0  0  0  0  0  0
   21.9689  -19.5303  -16.0735 C   0  0  2  0  0  0  0  0  0  0  0  0
   22.1375  -20.5723  -15.1130 N   0  0  0  0  0  0  0  0  0  0  0  0
   22.2922  -18.2016  -15.5143 C   0  0  0  0  0  0  0  0  0  0  0  0
   22.0106  -17.8795  -14.3301 O   0  0  0  0  0  0  0  0  0  0  0  0
   26.3375  -14.2589  -14.8705 N   0  0  0  0  0  0  0  0  0  0  0  0
   26.5841  -15.6380  -15.1699 C   0  0  0  0  0  0  0  0  0  0  0  0
   27.5485  -16.1769  -14.5959 O   0  0  0  0  0  0  0  0  0  0  0  0
   25.7552  -16.4080  -16.1060 C   0  0  0  0  0  0  0  0  0  0  0  0
   24.6132  -15.5560  -16.5965 C   0  0  0  0  0  0  0  0  0  0  0  0
   23.3238  -15.9214  -15.9104 C   0  0  2  0  0  0  0  0  0  0  0  0
   22.9424  -17.2501  -16.3373 N   0  0  0  0  0  0  0  0  0  0  0  0
   22.3111  -14.9079  -16.3016 C   0  0  0  0  0  0  0  0  0  0  0  0
   21.6931  -15.1039  -17.3738 O   0  0  0  0  0  0  0  0  0  0  0  0
   18.0270  -11.6482  -15.7124 N   0  0  0  0  0  0  0  0  0  0  0  0
   19.2726  -11.2883  -15.1250 C   0  0  0  0  0  0  0  0  0  0  0  0
   19.4342  -10.0335  -14.9109 O   0  0  0  0  0  0  0  0  0  0  0  0
   20.3456  -12.2259  -14.7583 C   0  0  0  0  0  0  0  0  0  0  0  0
   20.9465  -12.8526  -15.9796 C   0  0  2  0  0  0  0  0  0  0  0  0
   22.0265  -13.7583  -15.5259 N   0  0  0  0  0  0  0  0  0  0  0  0
   21.5776  -11.7726  -16.8098 C   0  0  0  0  0  0  0  0  0  0  0  0
   20.8402  -10.9135  -17.4063 O   0  0  0  0  0  0  0  0  0  0  0  0
   22.9276  -11.6214  -16.9909 O   0  0  0  0  0  0  0  0  0  0  0  0
  2  1  1  0
  2  3  1  0
  3  4  1  1
  5  3  1  0
  5  6  2  0
  7  8  1  0
  8 10  1  0
  9  8  2  0
 10 11  1  0
 12 11  1  6
 12 13  1  0
 13  5  1  0
 14 12  1  0
 15 14  2  0
 16 17  1  0
 17 19  1  0
 18 17  2  0
 20 19  1  1
 20 21  1  0
 20 22  1  0
 21 14  1  0
 22 24  1  0
 23 22  2  0
M  END
$$$$
