SQN.pdb
     RDKit          3D

 24 23  0  0  1  0  0  0  0  0999 V2000
   14.8986  -10.5641  -15.7552 O   0  0  0  0  0  0  0  0  0  0  0  0
   15.2903  -10.3472  -14.4570 C   0  0  0  0  0  0  0  0  0  0  0  0
   16.7991  -10.2911  -14.3108 C   0  0  2  0  0  0  0  0  0  0  0  0
   17.3429  -11.5833  -14.5774 N   0  0  0  0  0  0  0  0  0  0  0  0
   17.2122   -9.7763  -12.9891 C   0  0  0  0  0  0  0  0  0  0  0  0
   17.2502  -10.5034  -11.9618 O   0  0  0  0  0  0  0  0  0  0  0  0
   21.2681   -5.1273  -12.2921 N   0  0  0  0  0  0  0  0  0  0  0  0
   21.4556   -6.5319  -12.5028 C   0  0  0  0  0  0  0  0  0  0  0  0
   22.5991   -6.9077  -12.8205 O   0  0  0  0  0  0  0  0  0  0  0  0
   20.3688   -7.5087  -12.3580 C   0  0  0  0  0  0  0  0  0  0  0  0
   19.0986   -6.8036  -11.9577 C   0  0  0  0  0  0  0  0  0  0  0  0
   18.0053   -7.7870  -11.6347 C   0  0  2  0  0  0  0  0  0  0  0  0
   17.5792   -8.4140  -12.8670 N   0  0  0  0  0  0  0  0  0  0  0  0
   16.9007   -7.0273  -10.9955 C   0  0  0  0  0  0  0  0  0  0  0  0
   16.0989   -6.4380  -11.7569 O   0  0  0  0  0  0  0  0  0  0  0  0
   13.5480   -4.7696   -7.6609 N   0  0  0  0  0  0  0  0  0  0  0  0
   14.3161   -5.7765   -7.0113 C   0  0  0  0  0  0  0  0  0  0  0  0
   13.9868   -6.0161   -5.7944 O   0  0  0  0  0  0  0  0  0  0  0  0
   15.4197   -6.5344   -7.6216 C   0  0  0  0  0  0  0  0  0  0  0  0
   15.5736   -6.1794   -9.0693 C   0  0  2  0  0  0  0  0  0  0  0  0
   16.7260   -6.9479   -9.5929 N   0  0  0  0  0  0  0  0  0  0  0  0
   15.9160   -4.7212   -9.1702 C   0  0  0  0  0  0  0  0  0  0  0  0
   14.9917   -3.8410   -9.0774 O   0  0  0  0  0  0  0  0  0  0  0  0
   17.1821   -4.2322   -9.3603 O   0  0  0  0  0  0  0  0  0  0  0  0
  2  1  1  0
  2  3  1  0
  3  4  1  1
  5  3  1  0
  5  6  2  0
  7  8  1  0
  8 10  1  0
  9  8  2  0
 10 11  1  0
 12 11  1  6
 12 13  1  0
 13  5  1  0
 14 12  1  0
 15 14  2  0
 16 17  1  0
 17 19  1  0
 18 17  2  0
 20 19  1  1
 20 21  1  0
 20 22  1  0
 21 14  1  0
 22 24  1  0
 23 22  2  0
M  END
$$$$
