SQN.pdb
     RDKit          3D

 24 23  0  0  1  0  0  0  0  0999 V2000
   13.2034  -14.1992  -11.6387 O   0  0  0  0  0  0  0  0  0  0  0  0
   13.2975  -12.8896  -12.0410 C   0  0  0  0  0  0  0  0  0  0  0  0
   12.6746  -11.9326  -11.0425 C   0  0  2  0  0  0  0  0  0  0  0  0
   11.2618  -12.1331  -11.0215 N   0  0  0  0  0  0  0  0  0  0  0  0
   13.0321  -10.5263  -11.3206 C   0  0  0  0  0  0  0  0  0  0  0  0
   12.2619   -9.7412  -11.9336 O   0  0  0  0  0  0  0  0  0  0  0  0
   15.5703   -6.5313   -7.5795 N   0  0  0  0  0  0  0  0  0  0  0  0
   14.2168   -6.8488   -7.9252 C   0  0  0  0  0  0  0  0  0  0  0  0
   13.3286   -6.4633   -7.1426 O   0  0  0  0  0  0  0  0  0  0  0  0
   13.8611   -7.5929   -9.1402 C   0  0  0  0  0  0  0  0  0  0  0  0
   15.1129   -8.0454   -9.8466 C   0  0  0  0  0  0  0  0  0  0  0  0
   14.7911   -8.7097  -11.1588 C   0  0  2  0  0  0  0  0  0  0  0  0
   14.2878  -10.0381  -10.8843 N   0  0  0  0  0  0  0  0  0  0  0  0
   16.0452   -8.7517  -11.9533 C   0  0  0  0  0  0  0  0  0  0  0  0
   17.1184   -8.8751  -11.3186 O   0  0  0  0  0  0  0  0  0  0  0  0
   15.4069   -3.8231  -13.7264 N   0  0  0  0  0  0  0  0  0  0  0  0
   15.4977   -5.1134  -14.3204 C   0  0  0  0  0  0  0  0  0  0  0  0
   15.7570   -5.1200  -15.5771 O   0  0  0  0  0  0  0  0  0  0  0  0
   15.3231   -6.3921  -13.6140 C   0  0  0  0  0  0  0  0  0  0  0  0
   16.4097   -7.3566  -13.9810 C   0  0  2  0  0  0  0  0  0  0  0  0
   16.0702   -8.6601  -13.3658 N   0  0  0  0  0  0  0  0  0  0  0  0
   17.6954   -6.8849  -13.3662 C   0  0  0  0  0  0  0  0  0  0  0  0
   18.2466   -5.8092  -13.7866 O   0  0  0  0  0  0  0  0  0  0  0  0
   18.3555   -7.5317  -12.3542 O   0  0  0  0  0  0  0  0  0  0  0  0
  2  1  1  0
  2  3  1  0
  3  4  1  6
  5  3  1  0
  5  6  2  0
  7  8  1  0
  8 10  1  0
  9  8  2  0
 10 11  1  0
 12 11  1  1
 12 13  1  0
 13  5  1  0
 14 12  1  0
 15 14  2  0
 16 17  1  0
 17 19  1  0
 18 17  2  0
 20 19  1  1
 20 21  1  0
 20 22  1  0
 21 14  1  0
 22 24  1  0
 23 22  2  0
M  END
$$$$
