SQN.pdb
     RDKit          3D

 24 23  0  0  1  0  0  0  0  0999 V2000
   14.2594   -5.2804   -7.3895 O   0  0  0  0  0  0  0  0  0  0  0  0
   15.2288   -6.1898   -7.7348 C   0  0  0  0  0  0  0  0  0  0  0  0
   14.6542   -7.4123   -8.4250 C   0  0  2  0  0  0  0  0  0  0  0  0
   13.9888   -8.2251   -7.4590 N   0  0  0  0  0  0  0  0  0  0  0  0
   15.6826   -8.1657   -9.1715 C   0  0  0  0  0  0  0  0  0  0  0  0
   16.5123   -8.9230   -8.6026 O   0  0  0  0  0  0  0  0  0  0  0  0
   14.8687  -10.8995  -14.5278 N   0  0  0  0  0  0  0  0  0  0  0  0
   16.2985  -10.8263  -14.4786 C   0  0  0  0  0  0  0  0  0  0  0  0
   16.9271  -11.4733  -15.3365 O   0  0  0  0  0  0  0  0  0  0  0  0
   17.0190  -10.0328  -13.4747 C   0  0  0  0  0  0  0  0  0  0  0  0
   16.0360   -9.3874  -12.5325 C   0  0  0  0  0  0  0  0  0  0  0  0
   16.7418   -8.6587  -11.4200 C   0  0  2  0  0  0  0  0  0  0  0  0
   15.7428   -8.0341  -10.5802 N   0  0  0  0  0  0  0  0  0  0  0  0
   17.6374   -7.6535  -12.0471 C   0  0  0  0  0  0  0  0  0  0  0  0
   17.0965   -6.6352  -12.5374 O   0  0  0  0  0  0  0  0  0  0  0  0
   22.4858   -4.8417  -12.7742 N   0  0  0  0  0  0  0  0  0  0  0  0
   22.1394   -6.1179  -13.3007 C   0  0  0  0  0  0  0  0  0  0  0  0
   22.6371   -6.3881  -14.4521 O   0  0  0  0  0  0  0  0  0  0  0  0
   21.2824   -7.1115  -12.6350 C   0  0  0  0  0  0  0  0  0  0  0  0
   19.8414   -6.7068  -12.7078 C   0  0  2  0  0  0  0  0  0  0  0  0
   19.0440   -7.8012  -12.1084 N   0  0  0  0  0  0  0  0  0  0  0  0
   19.4482   -6.5963  -14.1524 C   0  0  0  0  0  0  0  0  0  0  0  0
   19.2391   -7.6555  -14.8394 O   0  0  0  0  0  0  0  0  0  0  0  0
   19.2873   -5.4131  -14.8250 O   0  0  0  0  0  0  0  0  0  0  0  0
  2  1  1  0
  2  3  1  0
  3  4  1  1
  5  3  1  0
  5  6  2  0
  7  8  1  0
  8 10  1  0
  9  8  2  0
 10 11  1  0
 12 11  1  6
 12 13  1  0
 13  5  1  0
 14 12  1  0
 15 14  2  0
 16 17  1  0
 17 19  1  0
 18 17  2  0
 20 19  1  6
 20 21  1  0
 20 22  1  0
 21 14  1  0
 22 24  1  0
 23 22  2  0
M  END
$$$$
