SQN.pdb
     RDKit          3D

 24 23  0  0  1  0  0  0  0  0999 V2000
   15.2468  -13.2811  -10.9664 O   0  0  0  0  0  0  0  0  0  0  0  0
   15.3232  -11.9514  -11.3010 C   0  0  0  0  0  0  0  0  0  0  0  0
   14.6719  -11.0565  -10.2637 C   0  0  2  0  0  0  0  0  0  0  0  0
   13.2969  -11.4159  -10.1334 N   0  0  0  0  0  0  0  0  0  0  0  0
   14.8443   -9.6231  -10.5770 C   0  0  0  0  0  0  0  0  0  0  0  0
   14.1374   -9.0280  -11.4324 O   0  0  0  0  0  0  0  0  0  0  0  0
   15.2081   -5.2975   -6.6089 N   0  0  0  0  0  0  0  0  0  0  0  0
   14.1762   -5.5624   -7.5667 C   0  0  0  0  0  0  0  0  0  0  0  0
   13.0347   -5.1451   -7.2971 O   0  0  0  0  0  0  0  0  0  0  0  0
   14.4222   -6.2897   -8.8185 C   0  0  0  0  0  0  0  0  0  0  0  0
   15.8664   -6.7146   -8.8867 C   0  0  0  0  0  0  0  0  0  0  0  0
   16.1486   -7.4944  -10.1433 C   0  0  2  0  0  0  0  0  0  0  0  0
   15.8416   -8.8860   -9.8932 N   0  0  0  0  0  0  0  0  0  0  0  0
   17.5837   -7.3000  -10.4724 C   0  0  0  0  0  0  0  0  0  0  0  0
   18.4073   -8.0469   -9.8947 O   0  0  0  0  0  0  0  0  0  0  0  0
   22.1263   -6.6176  -12.7369 N   0  0  0  0  0  0  0  0  0  0  0  0
   21.1427   -7.6135  -12.9953 C   0  0  0  0  0  0  0  0  0  0  0  0
   21.5468   -8.6143  -13.6893 O   0  0  0  0  0  0  0  0  0  0  0  0
   19.7463   -7.5736  -12.5337 C   0  0  0  0  0  0  0  0  0  0  0  0
   19.4776   -6.3216  -11.7555 C   0  0  2  0  0  0  0  0  0  0  0  0
   18.0421   -6.3263  -11.3921 N   0  0  0  0  0  0  0  0  0  0  0  0
   19.7158   -5.1411  -12.6518 C   0  0  0  0  0  0  0  0  0  0  0  0
   18.7716   -4.7057  -13.3978 O   0  0  0  0  0  0  0  0  0  0  0  0
   20.9032   -4.4630  -12.7437 O   0  0  0  0  0  0  0  0  0  0  0  0
  2  1  1  0
  2  3  1  0
  3  4  1  6
  5  3  1  0
  5  6  2  0
  7  8  1  0
  8 10  1  0
  9  8  2  0
 10 11  1  0
 12 11  1  1
 12 13  1  0
 13  5  1  0
 14 12  1  0
 15 14  2  0
 16 17  1  0
 17 19  1  0
 18 17  2  0
 20 19  1  6
 20 21  1  0
 20 22  1  0
 21 14  1  0
 22 24  1  0
 23 22  2  0
M  END
$$$$
