SQN.pdb
     RDKit          3D

 24 23  0  0  1  0  0  0  0  0999 V2000
   13.4133  -14.1239  -11.7619 O   0  0  0  0  0  0  0  0  0  0  0  0
   14.4404  -13.2389  -11.5434 C   0  0  0  0  0  0  0  0  0  0  0  0
   13.9422  -11.8333  -11.2657 C   0  0  2  0  0  0  0  0  0  0  0  0
   13.1490  -11.3924  -12.3671 N   0  0  0  0  0  0  0  0  0  0  0  0
   15.0472  -10.8991  -10.9676 C   0  0  0  0  0  0  0  0  0  0  0  0
   15.8577  -11.0898  -10.0230 O   0  0  0  0  0  0  0  0  0  0  0  0
   18.5362   -8.1953  -15.1069 N   0  0  0  0  0  0  0  0  0  0  0  0
   18.7237   -9.3781  -14.3207 C   0  0  0  0  0  0  0  0  0  0  0  0
   19.5797  -10.1903  -14.7176 O   0  0  0  0  0  0  0  0  0  0  0  0
   17.9573   -9.6486  -13.0976 C   0  0  0  0  0  0  0  0  0  0  0  0
   16.9625   -8.5412  -12.8631 C   0  0  0  0  0  0  0  0  0  0  0  0
   16.2227   -8.7357  -11.5664 C   0  0  2  0  0  0  0  0  0  0  0  0
   15.2047   -9.7433  -11.7706 N   0  0  0  0  0  0  0  0  0  0  0  0
   15.6307   -7.4258  -11.1933 C   0  0  0  0  0  0  0  0  0  0  0  0
   14.5223   -7.1359  -11.7006 O   0  0  0  0  0  0  0  0  0  0  0  0
   14.4943   -2.8017   -9.0266 N   0  0  0  0  0  0  0  0  0  0  0  0
   14.8585   -3.8462   -8.1307 C   0  0  0  0  0  0  0  0  0  0  0  0
   14.6667   -3.5924   -6.8876 O   0  0  0  0  0  0  0  0  0  0  0  0
   15.4169   -5.1500   -8.5221 C   0  0  0  0  0  0  0  0  0  0  0  0
   15.5734   -5.2380  -10.0098 C   0  0  2  0  0  0  0  0  0  0  0  0
   16.2579   -6.5168  -10.3075 N   0  0  0  0  0  0  0  0  0  0  0  0
   16.4730   -4.1246  -10.4626 C   0  0  0  0  0  0  0  0  0  0  0  0
   17.7309   -4.3284  -10.5796 O   0  0  0  0  0  0  0  0  0  0  0  0
   16.0468   -2.8598  -10.7737 O   0  0  0  0  0  0  0  0  0  0  0  0
  2  1  1  0
  2  3  1  0
  3  4  1  6
  5  3  1  0
  5  6  2  0
  7  8  1  0
  8 10  1  0
  9  8  2  0
 10 11  1  0
 12 11  1  6
 12 13  1  0
 13  5  1  0
 14 12  1  0
 15 14  2  0
 16 17  1  0
 17 19  1  0
 18 17  2  0
 20 19  1  1
 20 21  1  0
 20 22  1  0
 21 14  1  0
 22 24  1  0
 23 22  2  0
M  END
$$$$
