SQN.pdb
     RDKit          3D

 24 23  0  0  1  0  0  0  0  0999 V2000
   28.8604  -10.3339  -16.8711 O   0  0  0  0  0  0  0  0  0  0  0  0
   27.5960   -9.7994  -16.9099 C   0  0  0  0  0  0  0  0  0  0  0  0
   26.6189  -10.6817  -17.6634 C   0  0  2  0  0  0  0  0  0  0  0  0
   27.1387  -10.9491  -18.9653 N   0  0  0  0  0  0  0  0  0  0  0  0
   25.2642  -10.0948  -17.7158 C   0  0  0  0  0  0  0  0  0  0  0  0
   24.9883   -9.0924  -18.4262 O   0  0  0  0  0  0  0  0  0  0  0  0
   20.2316  -13.2234  -15.5044 N   0  0  0  0  0  0  0  0  0  0  0  0
   19.7149  -11.9145  -15.7730 C   0  0  0  0  0  0  0  0  0  0  0  0
   18.4916  -11.7465  -15.6141 O   0  0  0  0  0  0  0  0  0  0  0  0
   20.5637  -10.8012  -16.2164 C   0  0  0  0  0  0  0  0  0  0  0  0
   21.9907  -11.2676  -16.3467 C   0  0  0  0  0  0  0  0  0  0  0  0
   22.8825  -10.1657  -16.8538 C   0  0  2  0  0  0  0  0  0  0  0  0
   24.2333  -10.6770  -16.9388 N   0  0  0  0  0  0  0  0  0  0  0  0
   22.7826   -9.0375  -15.8932 C   0  0  0  0  0  0  0  0  0  0  0  0
   23.8060   -8.7673  -15.2226 O   0  0  0  0  0  0  0  0  0  0  0  0
   22.1483   -4.6850  -13.3776 N   0  0  0  0  0  0  0  0  0  0  0  0
   22.6495   -4.8524  -14.6993 C   0  0  0  0  0  0  0  0  0  0  0  0
   23.2151   -3.8175  -15.2050 O   0  0  0  0  0  0  0  0  0  0  0  0
   22.5675   -6.0887  -15.4927 C   0  0  0  0  0  0  0  0  0  0  0  0
   21.6607   -7.0846  -14.8358 C   0  0  2  0  0  0  0  0  0  0  0  0
   21.6028   -8.2760  -15.7133 N   0  0  0  0  0  0  0  0  0  0  0  0
   20.2789   -6.5016  -14.7689 C   0  0  0  0  0  0  0  0  0  0  0  0
   19.5283   -6.5191  -15.8052 O   0  0  0  0  0  0  0  0  0  0  0  0
   19.7305   -5.9302  -13.6504 O   0  0  0  0  0  0  0  0  0  0  0  0
  2  1  1  0
  2  3  1  0
  3  4  1  6
  5  3  1  0
  5  6  2  0
  7  8  1  0
  8 10  1  0
  9  8  2  0
 10 11  1  0
 12 11  1  1
 12 13  1  0
 13  5  1  0
 14 12  1  0
 15 14  2  0
 16 17  1  0
 17 19  1  0
 18 17  2  0
 20 19  1  6
 20 21  1  0
 20 22  1  0
 21 14  1  0
 22 24  1  0
 23 22  2  0
M  END
$$$$
