SQN.pdb
     RDKit          3D

 24 23  0  0  1  0  0  0  0  0999 V2000
   15.4568  -14.8677  -15.5383 O   0  0  0  0  0  0  0  0  0  0  0  0
   15.7751  -14.0976  -14.4467 C   0  0  0  0  0  0  0  0  0  0  0  0
   15.6427  -12.6131  -14.7289 C   0  0  2  0  0  0  0  0  0  0  0  0
   16.2307  -12.3240  -15.9967 N   0  0  0  0  0  0  0  0  0  0  0  0
   16.2185  -11.7868  -13.6480 C   0  0  0  0  0  0  0  0  0  0  0  0
   15.8122  -11.8512  -12.4579 O   0  0  0  0  0  0  0  0  0  0  0  0
   21.1433   -7.9238  -14.8441 N   0  0  0  0  0  0  0  0  0  0  0  0
   20.8348   -7.6709  -13.4682 C   0  0  0  0  0  0  0  0  0  0  0  0
   21.5047   -6.7946  -12.8910 O   0  0  0  0  0  0  0  0  0  0  0  0
   19.7822   -8.3949  -12.7442 C   0  0  0  0  0  0  0  0  0  0  0  0
   19.0401   -9.3004  -13.6931 C   0  0  0  0  0  0  0  0  0  0  0  0
   17.9445  -10.0536  -12.9866 C   0  0  2  0  0  0  0  0  0  0  0  0
   17.2664  -10.8857  -13.9567 N   0  0  0  0  0  0  0  0  0  0  0  0
   17.0283   -9.0478  -12.3911 C   0  0  0  0  0  0  0  0  0  0  0  0
   16.2587   -8.4436  -13.1737 O   0  0  0  0  0  0  0  0  0  0  0  0
   14.3703   -5.8475   -9.2058 N   0  0  0  0  0  0  0  0  0  0  0  0
   14.9294   -6.9478   -8.4967 C   0  0  0  0  0  0  0  0  0  0  0  0
   14.6572   -6.9860   -7.2433 O   0  0  0  0  0  0  0  0  0  0  0  0
   15.7653   -8.0061   -9.0851 C   0  0  0  0  0  0  0  0  0  0  0  0
   16.0500   -7.7200  -10.5282 C   0  0  2  0  0  0  0  0  0  0  0  0
   16.9944   -8.7555  -11.0063 N   0  0  0  0  0  0  0  0  0  0  0  0
   16.7442   -6.3924  -10.6245 C   0  0  0  0  0  0  0  0  0  0  0  0
   18.0028   -6.3134  -10.4069 O   0  0  0  0  0  0  0  0  0  0  0  0
   16.1224   -5.2119  -10.9376 O   0  0  0  0  0  0  0  0  0  0  0  0
  2  1  1  0
  2  3  1  0
  3  4  1  6
  5  3  1  0
  5  6  2  0
  7  8  1  0
  8 10  1  0
  9  8  2  0
 10 11  1  0
 12 11  1  6
 12 13  1  0
 13  5  1  0
 14 12  1  0
 15 14  2  0
 16 17  1  0
 17 19  1  0
 18 17  2  0
 20 19  1  1
 20 21  1  0
 20 22  1  0
 21 14  1  0
 22 24  1  0
 23 22  2  0
M  END
$$$$
