FID.pdb
     RDKit          3D

 28 28  0  0  1  0  0  0  0  0999 V2000
   28.4396  -20.0261  -15.4208 N   0  0  0  0  0  0  0  0  0  0  0  0
   27.6724  -19.2384  -14.4846 C   0  0  1  0  0  0  0  0  0  0  0  0
   26.7512  -18.2918  -15.2468 C   0  0  0  0  0  0  0  0  0  0  0  0
   27.4598  -17.0985  -15.7448 C   0  0  0  0  0  0  0  0  0  0  0  0
   27.8625  -17.0997  -17.0620 C   0  0  0  0  0  0  0  0  0  0  0  0
   28.5318  -16.0029  -17.5783 C   0  0  0  0  0  0  0  0  0  0  0  0
   28.7844  -14.9208  -16.7556 C   0  0  0  0  0  0  0  0  0  0  0  0
   28.3801  -14.9251  -15.4416 C   0  0  0  0  0  0  0  0  0  0  0  0
   27.7192  -16.0089  -14.9327 C   0  0  0  0  0  0  0  0  0  0  0  0
   26.7872  -20.1482  -13.7157 C   0  0  0  0  0  0  0  0  0  0  0  0
   26.4559  -21.2332  -14.2585 O   0  0  0  0  0  0  0  0  0  0  0  0
   27.0448  -20.4718   -8.3778 C   0  0  0  0  0  0  0  0  0  0  0  0
   26.7944  -20.8754   -9.7907 C   0  0  0  0  0  0  0  0  0  0  0  0
   25.3985  -20.5036  -10.2750 C   0  0  2  0  0  0  0  0  0  0  0  0
   24.4153  -21.3444   -9.5363 C   0  0  0  0  0  0  0  0  0  0  0  0
   25.3568  -20.7781  -11.7681 C   0  0  2  0  0  0  0  0  0  0  0  0
   26.3108  -19.8521  -12.4251 N   0  0  0  0  0  0  0  0  0  0  0  0
   24.0298  -20.6152  -12.3780 C   0  0  0  0  0  0  0  0  0  0  0  0
   23.5637  -19.4579  -12.5304 O   0  0  0  0  0  0  0  0  0  0  0  0
   23.2708  -21.7176  -12.7983 N   0  0  0  0  0  0  0  0  0  0  0  0
   21.9872  -21.4865  -13.4679 C   0  0  1  0  0  0  0  0  0  0  0  0
   21.7893  -22.5686  -14.5013 C   0  0  0  0  0  0  0  0  0  0  0  0
   20.4706  -22.5322  -15.1622 C   0  0  0  0  0  0  0  0  0  0  0  0
   19.5359  -23.2549  -14.7931 O   0  0  0  0  0  0  0  0  0  0  0  0
   20.8970  -21.5038  -12.4765 C   0  0  0  0  0  0  0  0  0  0  0  0
   19.7428  -20.7920  -12.6651 O   0  0  0  0  0  0  0  0  0  0  0  0
   20.2621  -21.6664  -16.2291 O   0  0  0  0  0  0  0  0  0  0  0  0
   21.0237  -22.1822  -11.4372 O   0  0  0  0  0  0  0  0  0  0  0  0
  2  1  1  6
  3  2  1  0
  4  3  1  0
  5  4  2  0
  6  5  1  0
  7  6  2  0
  7  8  1  0
  8  9  2  0
  9  4  1  0
 10 11  2  0
 10  2  1  0
 12 13  1  0
 13 14  1  0
 14 16  1  0
 14 15  1  1
 16 18  1  0
 16 17  1  6
 17 10  1  0
 18 20  1  0
 19 18  2  0
 20 21  1  0
 21 22  1  6
 21 25  1  0
 22 23  1  0
 23 27  1  0
 23 24  2  0
 25 28  2  0
 25 26  1  0
M  END
$$$$
