FID.pdb
     RDKit          3D

 28 28  0  0  1  0  0  0  0  0999 V2000
   28.3403  -20.5277   -9.0881 N   0  0  0  0  0  0  0  0  0  0  0  0
   26.9622  -20.6903   -8.6884 C   0  0  1  0  0  0  0  0  0  0  0  0
   26.6393  -19.7191   -7.5578 C   0  0  0  0  0  0  0  0  0  0  0  0
   27.5543  -19.8681   -6.4112 C   0  0  0  0  0  0  0  0  0  0  0  0
   28.5957  -18.9726   -6.3063 C   0  0  0  0  0  0  0  0  0  0  0  0
   29.4832  -19.0697   -5.2477 C   0  0  0  0  0  0  0  0  0  0  0  0
   29.3050  -20.0705   -4.3105 C   0  0  0  0  0  0  0  0  0  0  0  0
   28.2637  -20.9614   -4.4202 C   0  0  0  0  0  0  0  0  0  0  0  0
   27.3879  -20.8647   -5.4662 C   0  0  0  0  0  0  0  0  0  0  0  0
   26.0914  -20.3051   -9.8268 C   0  0  0  0  0  0  0  0  0  0  0  0
   26.1598  -19.1177  -10.2353 O   0  0  0  0  0  0  0  0  0  0  0  0
   25.8831  -21.2537  -15.0739 C   0  0  0  0  0  0  0  0  0  0  0  0
   24.8425  -21.7804  -14.1458 C   0  0  0  0  0  0  0  0  0  0  0  0
   25.3697  -22.0148  -12.7356 C   0  0  2  0  0  0  0  0  0  0  0  0
   24.9421  -23.3750  -12.3040 C   0  0  0  0  0  0  0  0  0  0  0  0
   24.7715  -20.9350  -11.8510 C   0  0  2  0  0  0  0  0  0  0  0  0
   25.2066  -21.1990  -10.4580 N   0  0  0  0  0  0  0  0  0  0  0  0
   23.3044  -20.8613  -11.8916 C   0  0  0  0  0  0  0  0  0  0  0  0
   22.6323  -21.6173  -11.1457 O   0  0  0  0  0  0  0  0  0  0  0  0
   22.6340  -19.9662  -12.7387 N   0  0  0  0  0  0  0  0  0  0  0  0
   21.1681  -19.9494  -12.7422 C   0  0  1  0  0  0  0  0  0  0  0  0
   20.7097  -18.6555  -13.3699 C   0  0  0  0  0  0  0  0  0  0  0  0
   19.2477  -18.4596  -13.3399 C   0  0  0  0  0  0  0  0  0  0  0  0
   18.4866  -19.3025  -12.8474 O   0  0  0  0  0  0  0  0  0  0  0  0
   20.6576  -21.1072  -13.4976 C   0  0  0  0  0  0  0  0  0  0  0  0
   19.7372  -21.9666  -12.9602 O   0  0  0  0  0  0  0  0  0  0  0  0
   18.7001  -17.3005  -13.8765 O   0  0  0  0  0  0  0  0  0  0  0  0
   21.0713  -21.3145  -14.6561 O   0  0  0  0  0  0  0  0  0  0  0  0
  2  1  1  6
  3  2  1  0
  4  3  1  0
  5  4  2  0
  6  5  1  0
  7  6  2  0
  7  8  1  0
  8  9  2  0
  9  4  1  0
 10 11  2  0
 10  2  1  0
 12 13  1  0
 13 14  1  0
 14 16  1  0
 14 15  1  1
 16 18  1  0
 16 17  1  1
 17 10  1  0
 18 20  1  0
 19 18  2  0
 20 21  1  0
 21 22  1  6
 21 25  1  0
 22 23  1  0
 23 27  1  0
 23 24  2  0
 25 28  2  0
 25 26  1  0
M  END
$$$$
