FID.pdb
     RDKit          3D

 28 28  0  0  1  0  0  0  0  0999 V2000
   28.3735  -33.3955    1.1529 N   0  0  0  0  0  0  0  0  0  0  0  0
   27.3690  -32.4794    1.6401 C   0  0  1  0  0  0  0  0  0  0  0  0
   26.0138  -32.8405    1.0414 C   0  0  0  0  0  0  0  0  0  0  0  0
   25.8824  -32.3975   -0.3588 C   0  0  0  0  0  0  0  0  0  0  0  0
   26.1236  -33.3267   -1.3466 C   0  0  0  0  0  0  0  0  0  0  0  0
   26.0136  -32.9608   -2.6776 C   0  0  0  0  0  0  0  0  0  0  0  0
   25.6615  -31.6610   -2.9908 C   0  0  0  0  0  0  0  0  0  0  0  0
   25.4220  -30.7378   -2.0007 C   0  0  0  0  0  0  0  0  0  0  0  0
   25.5309  -31.1002   -0.6865 C   0  0  0  0  0  0  0  0  0  0  0  0
   27.2355  -32.6610    3.1070 C   0  0  0  0  0  0  0  0  0  0  0  0
   27.5573  -33.7784    3.5862 O   0  0  0  0  0  0  0  0  0  0  0  0
   27.6379  -28.3359    6.3576 C   0  0  0  0  0  0  0  0  0  0  0  0
   27.7562  -29.7316    5.8479 C   0  0  0  0  0  0  0  0  0  0  0  0
   26.5158  -30.5716    6.1263 C   0  0  2  0  0  0  0  0  0  0  0  0
   26.3929  -30.7370    7.6017 C   0  0  0  0  0  0  0  0  0  0  0  0
   26.7158  -31.9063    5.4300 C   0  0  2  0  0  0  0  0  0  0  0  0
   26.7715  -31.6511    3.9702 N   0  0  0  0  0  0  0  0  0  0  0  0
   25.6668  -32.8977    5.7061 C   0  0  0  0  0  0  0  0  0  0  0  0
   24.5239  -32.7348    5.2090 O   0  0  0  0  0  0  0  0  0  0  0  0
   25.9085  -34.0238    6.5072 N   0  0  0  0  0  0  0  0  0  0  0  0
   24.8030  -34.9406    6.8013 C   0  0  1  0  0  0  0  0  0  0  0  0
   25.1561  -36.3015    6.2521 C   0  0  0  0  0  0  0  0  0  0  0  0
   24.2336  -37.3743    6.6703 C   0  0  0  0  0  0  0  0  0  0  0  0
   23.2192  -37.1384    7.3393 O   0  0  0  0  0  0  0  0  0  0  0  0
   24.5818  -35.0050    8.2568 C   0  0  0  0  0  0  0  0  0  0  0  0
   25.4605  -34.4415    9.1428 O   0  0  0  0  0  0  0  0  0  0  0  0
   24.5020  -38.6891    6.3084 O   0  0  0  0  0  0  0  0  0  0  0  0
   23.5704  -35.5867    8.6985 O   0  0  0  0  0  0  0  0  0  0  0  0
  2  1  1  6
  3  2  1  0
  4  3  1  0
  5  4  2  0
  6  5  1  0
  7  6  2  0
  7  8  1  0
  8  9  2  0
  9  4  1  0
 10 11  2  0
 10  2  1  0
 12 13  1  0
 13 14  1  0
 14 16  1  0
 14 15  1  1
 16 18  1  0
 16 17  1  6
 17 10  1  0
 18 20  1  0
 19 18  2  0
 20 21  1  0
 21 22  1  1
 21 25  1  0
 22 23  1  0
 23 27  1  0
 23 24  2  0
 25 28  2  0
 25 26  1  0
M  END
$$$$
