FID.pdb
     RDKit          3D

 28 28  0  0  1  0  0  0  0  0999 V2000
   24.7604  -10.9062  -19.0271 N   0  0  0  0  0  0  0  0  0  0  0  0
   23.9396  -10.6702  -17.8627 C   0  0  1  0  0  0  0  0  0  0  0  0
   24.7128   -9.8272  -16.8541 C   0  0  0  0  0  0  0  0  0  0  0  0
   25.9318  -10.5037  -16.3741 C   0  0  0  0  0  0  0  0  0  0  0  0
   27.1434  -10.0335  -16.8307 C   0  0  0  0  0  0  0  0  0  0  0  0
   28.3178  -10.6345  -16.4098 C   0  0  0  0  0  0  0  0  0  0  0  0
   28.2506  -11.7019  -15.5337 C   0  0  0  0  0  0  0  0  0  0  0  0
   27.0385  -12.1670  -15.0813 C   0  0  0  0  0  0  0  0  0  0  0  0
   25.8792  -11.5727  -15.4976 C   0  0  0  0  0  0  0  0  0  0  0  0
   22.7660   -9.8575  -18.2687 C   0  0  0  0  0  0  0  0  0  0  0  0
   22.9238   -9.0378  -19.2094 O   0  0  0  0  0  0  0  0  0  0  0  0
   18.8501  -12.3221  -17.7470 C   0  0  0  0  0  0  0  0  0  0  0  0
   18.9010  -11.0734  -18.5593 C   0  0  0  0  0  0  0  0  0  0  0  0
   19.0843   -9.8212  -17.7108 C   0  0  2  0  0  0  0  0  0  0  0  0
   17.9046   -8.9386  -17.9311 C   0  0  0  0  0  0  0  0  0  0  0  0
   20.3711   -9.1571  -18.1684 C   0  0  2  0  0  0  0  0  0  0  0  0
   21.5043   -9.9643  -17.6548 N   0  0  0  0  0  0  0  0  0  0  0  0
   20.5284   -7.7664  -17.7207 C   0  0  0  0  0  0  0  0  0  0  0  0
   19.9595   -6.8480  -18.3632 O   0  0  0  0  0  0  0  0  0  0  0  0
   21.2942   -7.4368  -16.5923 N   0  0  0  0  0  0  0  0  0  0  0  0
   21.3350   -6.0428  -16.1402 C   0  0  1  0  0  0  0  0  0  0  0  0
   19.9414   -5.6370  -15.7262 C   0  0  0  0  0  0  0  0  0  0  0  0
   19.8562   -4.2768  -15.1612 C   0  0  0  0  0  0  0  0  0  0  0  0
   20.5100   -3.3347  -15.6272 O   0  0  0  0  0  0  0  0  0  0  0  0
   22.2750   -5.9112  -15.0130 C   0  0  0  0  0  0  0  0  0  0  0  0
   22.9542   -6.9901  -14.5139 O   0  0  0  0  0  0  0  0  0  0  0  0
   19.0219   -4.0361  -14.0760 O   0  0  0  0  0  0  0  0  0  0  0  0
   22.4602   -4.7908  -14.4962 O   0  0  0  0  0  0  0  0  0  0  0  0
  2  1  1  6
  3  2  1  0
  4  3  1  0
  5  4  2  0
  6  5  1  0
  7  6  2  0
  7  8  1  0
  8  9  2  0
  9  4  1  0
 10 11  2  0
 10  2  1  0
 12 13  1  0
 13 14  1  0
 14 16  1  0
 14 15  1  6
 16 18  1  0
 16 17  1  1
 17 10  1  0
 18 20  1  0
 19 18  2  0
 20 21  1  0
 21 22  1  1
 21 25  1  0
 22 23  1  0
 23 27  1  0
 23 24  2  0
 25 28  2  0
 25 26  1  0
M  END
$$$$
