FID.pdb
     RDKit          3D

 28 28  0  0  1  0  0  0  0  0999 V2000
   24.9130  -21.1685  -14.0256 N   0  0  0  0  0  0  0  0  0  0  0  0
   24.2276  -20.3452  -13.0572 C   0  0  1  0  0  0  0  0  0  0  0  0
   22.7292  -20.3625  -13.3403 C   0  0  0  0  0  0  0  0  0  0  0  0
   22.3911  -19.7056  -14.6163 C   0  0  0  0  0  0  0  0  0  0  0  0
   22.3692  -18.3285  -14.6381 C   0  0  0  0  0  0  0  0  0  0  0  0
   22.0574  -17.6634  -15.8120 C   0  0  0  0  0  0  0  0  0  0  0  0
   21.7721  -18.4000  -16.9468 C   0  0  0  0  0  0  0  0  0  0  0  0
   21.7954  -19.7743  -16.9192 C   0  0  0  0  0  0  0  0  0  0  0  0
   22.1035  -20.4302  -15.7593 C   0  0  0  0  0  0  0  0  0  0  0  0
   24.4024  -20.9509  -11.7137 C   0  0  0  0  0  0  0  0  0  0  0  0
   24.3151  -22.2023  -11.6243 O   0  0  0  0  0  0  0  0  0  0  0  0
   27.2343  -20.2966   -6.3491 C   0  0  0  0  0  0  0  0  0  0  0  0
   26.1568  -20.8956   -7.1869 C   0  0  0  0  0  0  0  0  0  0  0  0
   25.9357  -20.1447   -8.4941 C   0  0  2  0  0  0  0  0  0  0  0  0
   25.5122  -18.7557   -8.1616 C   0  0  0  0  0  0  0  0  0  0  0  0
   24.8553  -20.8894   -9.2587 C   0  0  2  0  0  0  0  0  0  0  0  0
   24.6579  -20.1954  -10.5543 N   0  0  0  0  0  0  0  0  0  0  0  0
   23.5667  -20.9767   -8.5577 C   0  0  0  0  0  0  0  0  0  0  0  0
   22.7472  -20.0295   -8.6621 O   0  0  0  0  0  0  0  0  0  0  0  0
   23.2254  -22.0917   -7.7776 N   0  0  0  0  0  0  0  0  0  0  0  0
   21.9011  -22.1455   -7.1510 C   0  0  1  0  0  0  0  0  0  0  0  0
   21.2205  -23.4198   -7.5883 C   0  0  0  0  0  0  0  0  0  0  0  0
   19.9198  -23.6595   -6.9344 C   0  0  0  0  0  0  0  0  0  0  0  0
   19.8227  -24.3408   -5.9055 O   0  0  0  0  0  0  0  0  0  0  0  0
   22.0409  -22.1036   -5.6845 C   0  0  0  0  0  0  0  0  0  0  0  0
   21.0025  -21.7303   -4.8741 O   0  0  0  0  0  0  0  0  0  0  0  0
   18.7662  -23.1096   -7.4806 O   0  0  0  0  0  0  0  0  0  0  0  0
   23.1307  -22.4147   -5.1630 O   0  0  0  0  0  0  0  0  0  0  0  0
  2  1  1  6
  3  2  1  0
  4  3  1  0
  5  4  2  0
  6  5  1  0
  7  6  2  0
  7  8  1  0
  8  9  2  0
  9  4  1  0
 10 11  2  0
 10  2  1  0
 12 13  1  0
 13 14  1  0
 14 16  1  0
 14 15  1  1
 16 18  1  0
 16 17  1  6
 17 10  1  0
 18 20  1  0
 19 18  2  0
 20 21  1  0
 21 22  1  1
 21 25  1  0
 22 23  1  0
 23 27  1  0
 23 24  2  0
 25 28  2  0
 25 26  1  0
M  END
$$$$
