FID.pdb
     RDKit          3D

 28 28  0  0  1  0  0  0  0  0999 V2000
   18.7143   -9.5037  -14.0902 N   0  0  0  0  0  0  0  0  0  0  0  0
   19.0245   -8.6843  -12.9422 C   0  0  1  0  0  0  0  0  0  0  0  0
   20.2367   -7.8114  -13.2493 C   0  0  0  0  0  0  0  0  0  0  0  0
   21.4374   -8.6078  -13.5624 C   0  0  0  0  0  0  0  0  0  0  0  0
   21.9260   -9.4382  -12.5781 C   0  0  0  0  0  0  0  0  0  0  0  0
   23.0515  -10.2071  -12.8221 C   0  0  0  0  0  0  0  0  0  0  0  0
   23.6668  -10.1255  -14.0576 C   0  0  0  0  0  0  0  0  0  0  0  0
   23.1747   -9.2948  -15.0363 C   0  0  0  0  0  0  0  0  0  0  0  0
   22.0631   -8.5358  -14.7942 C   0  0  0  0  0  0  0  0  0  0  0  0
   17.8928   -7.7537  -12.7062 C   0  0  0  0  0  0  0  0  0  0  0  0
   17.1442   -7.4894  -13.6816 O   0  0  0  0  0  0  0  0  0  0  0  0
   14.8655   -7.9957   -8.3176 C   0  0  0  0  0  0  0  0  0  0  0  0
   15.3205   -7.7291   -9.7117 C   0  0  0  0  0  0  0  0  0  0  0  0
   15.9769   -6.3633   -9.8701 C   0  0  2  0  0  0  0  0  0  0  0  0
   14.9563   -5.3230   -9.5614 C   0  0  0  0  0  0  0  0  0  0  0  0
   16.4578   -6.2638  -11.3072 C   0  0  2  0  0  0  0  0  0  0  0  0
   17.6268   -7.1642  -11.4564 N   0  0  0  0  0  0  0  0  0  0  0  0
   16.8375   -4.9078  -11.7273 C   0  0  0  0  0  0  0  0  0  0  0  0
   17.9899   -4.4836  -11.4590 O   0  0  0  0  0  0  0  0  0  0  0  0
   15.9487   -4.0752  -12.4236 N   0  0  0  0  0  0  0  0  0  0  0  0
   16.4198   -2.7733  -12.9057 C   0  0  1  0  0  0  0  0  0  0  0  0
   17.4951   -3.0102  -13.9381 C   0  0  0  0  0  0  0  0  0  0  0  0
   17.9021   -1.7951  -14.6693 C   0  0  0  0  0  0  0  0  0  0  0  0
   18.4748   -0.8546  -14.1038 O   0  0  0  0  0  0  0  0  0  0  0  0
   15.2945   -2.0190  -13.4857 C   0  0  0  0  0  0  0  0  0  0  0  0
   15.2825   -0.6501  -13.5079 O   0  0  0  0  0  0  0  0  0  0  0  0
   17.6398   -1.6938  -16.0303 O   0  0  0  0  0  0  0  0  0  0  0  0
   14.3256   -2.6381  -13.9698 O   0  0  0  0  0  0  0  0  0  0  0  0
  2  1  1  6
  3  2  1  0
  4  3  1  0
  5  4  2  0
  6  5  1  0
  7  6  2  0
  7  8  1  0
  8  9  2  0
  9  4  1  0
 10 11  2  0
 10  2  1  0
 12 13  1  0
 13 14  1  0
 14 16  1  0
 14 15  1  6
 16 18  1  0
 16 17  1  1
 17 10  1  0
 18 20  1  0
 19 18  2  0
 20 21  1  0
 21 22  1  6
 21 25  1  0
 22 23  1  0
 23 27  1  0
 23 24  2  0
 25 28  2  0
 25 26  1  0
M  END
$$$$
