FID.pdb
     RDKit          3D

 28 28  0  0  1  0  0  0  0  0999 V2000
   26.9430  -18.3084   -7.8695 N   0  0  0  0  0  0  0  0  0  0  0  0
   27.1654  -19.6913   -8.2207 C   0  0  1  0  0  0  0  0  0  0  0  0
   26.9228  -20.5743   -7.0012 C   0  0  0  0  0  0  0  0  0  0  0  0
   27.8683  -20.2911   -5.9058 C   0  0  0  0  0  0  0  0  0  0  0  0
   29.1734  -20.7007   -6.0686 C   0  0  0  0  0  0  0  0  0  0  0  0
   30.1006  -20.4587   -5.0689 C   0  0  0  0  0  0  0  0  0  0  0  0
   29.6951  -19.8063   -3.9193 C   0  0  0  0  0  0  0  0  0  0  0  0
   28.3912  -19.3998   -3.7623 C   0  0  0  0  0  0  0  0  0  0  0  0
   27.4763  -19.6393   -4.7502 C   0  0  0  0  0  0  0  0  0  0  0  0
   26.1532  -20.0913   -9.2297 C   0  0  0  0  0  0  0  0  0  0  0  0
   24.9965  -19.6113   -9.1149 O   0  0  0  0  0  0  0  0  0  0  0  0
   29.5652  -20.2263  -13.0746 C   0  0  0  0  0  0  0  0  0  0  0  0
   28.3325  -19.9633  -12.2790 C   0  0  0  0  0  0  0  0  0  0  0  0
   27.2064  -20.9415  -12.5895 C   0  0  2  0  0  0  0  0  0  0  0  0
   26.8391  -20.7809  -14.0243 C   0  0  0  0  0  0  0  0  0  0  0  0
   26.0465  -20.5911  -11.6741 C   0  0  2  0  0  0  0  0  0  0  0  0
   26.4296  -20.9711  -10.2927 N   0  0  0  0  0  0  0  0  0  0  0  0
   24.7795  -21.2499  -12.0210 C   0  0  0  0  0  0  0  0  0  0  0  0
   24.7048  -22.5032  -11.9626 O   0  0  0  0  0  0  0  0  0  0  0  0
   23.6495  -20.5162  -12.4122 N   0  0  0  0  0  0  0  0  0  0  0  0
   22.4191  -21.2330  -12.7607 C   0  0  1  0  0  0  0  0  0  0  0  0
   21.2847  -20.2381  -12.7987 C   0  0  0  0  0  0  0  0  0  0  0  0
   19.9777  -20.8320  -13.1389 C   0  0  0  0  0  0  0  0  0  0  0  0
   18.9546  -20.1426  -13.2406 O   0  0  0  0  0  0  0  0  0  0  0  0
   22.5797  -21.8937  -14.0682 C   0  0  0  0  0  0  0  0  0  0  0  0
   22.1124  -23.1603  -14.2955 O   0  0  0  0  0  0  0  0  0  0  0  0
   19.8819  -22.2018  -13.3530 O   0  0  0  0  0  0  0  0  0  0  0  0
   23.1556  -21.2884  -14.9947 O   0  0  0  0  0  0  0  0  0  0  0  0
  2  1  1  1
  3  2  1  0
  4  3  1  0
  5  4  2  0
  6  5  1  0
  7  6  2  0
  7  8  1  0
  8  9  2  0
  9  4  1  0
 10 11  2  0
 10  2  1  0
 12 13  1  0
 13 14  1  0
 14 16  1  0
 14 15  1  6
 16 18  1  0
 16 17  1  1
 17 10  1  0
 18 20  1  0
 19 18  2  0
 20 21  1  0
 21 22  1  6
 21 25  1  0
 22 23  1  0
 23 27  1  0
 23 24  2  0
 25 28  2  0
 25 26  1  0
M  END
$$$$
