FID.pdb
     RDKit          3D

 28 28  0  0  1  0  0  0  0  0999 V2000
   28.4932  -20.5005   -8.2882 N   0  0  0  0  0  0  0  0  0  0  0  0
   27.0846  -20.7521   -8.0932 C   0  0  1  0  0  0  0  0  0  0  0  0
   26.5660  -19.8945   -6.9438 C   0  0  0  0  0  0  0  0  0  0  0  0
   27.5075  -19.8463   -5.8100 C   0  0  0  0  0  0  0  0  0  0  0  0
   27.3285  -20.7586   -4.7937 C   0  0  0  0  0  0  0  0  0  0  0  0
   28.1858  -20.7548   -3.7062 C   0  0  0  0  0  0  0  0  0  0  0  0
   29.2116  -19.8289   -3.6619 C   0  0  0  0  0  0  0  0  0  0  0  0
   29.3855  -18.9206   -4.6792 C   0  0  0  0  0  0  0  0  0  0  0  0
   28.5382  -18.9252   -5.7527 C   0  0  0  0  0  0  0  0  0  0  0  0
   26.3528  -20.3069   -9.3052 C   0  0  0  0  0  0  0  0  0  0  0  0
   26.1914  -19.0700   -9.4654 O   0  0  0  0  0  0  0  0  0  0  0  0
   28.9556  -20.6153  -13.0313 C   0  0  0  0  0  0  0  0  0  0  0  0
   27.7761  -20.2883  -12.1806 C   0  0  0  0  0  0  0  0  0  0  0  0
   26.5209  -21.0489  -12.5899 C   0  0  2  0  0  0  0  0  0  0  0  0
   26.1612  -20.6331  -13.9745 C   0  0  0  0  0  0  0  0  0  0  0  0
   25.4329  -20.6807  -11.5965 C   0  0  2  0  0  0  0  0  0  0  0  0
   25.8405  -21.1969  -10.2673 N   0  0  0  0  0  0  0  0  0  0  0  0
   24.1026  -21.2080  -11.9308 C   0  0  0  0  0  0  0  0  0  0  0  0
   23.6322  -22.1572  -11.2543 O   0  0  0  0  0  0  0  0  0  0  0  0
   23.3417  -20.6772  -12.9832 N   0  0  0  0  0  0  0  0  0  0  0  0
   21.9847  -21.1839  -13.2087 C   0  0  1  0  0  0  0  0  0  0  0  0
   21.1389  -20.8251  -12.0111 C   0  0  0  0  0  0  0  0  0  0  0  0
   19.7579  -21.3402  -12.0767 C   0  0  0  0  0  0  0  0  0  0  0  0
   19.3714  -22.0535  -13.0116 O   0  0  0  0  0  0  0  0  0  0  0  0
   21.4288  -20.5915  -14.4382 C   0  0  0  0  0  0  0  0  0  0  0  0
   20.6633  -21.3233  -15.3060 O   0  0  0  0  0  0  0  0  0  0  0  0
   18.8586  -21.0215  -11.0662 O   0  0  0  0  0  0  0  0  0  0  0  0
   21.6586  -19.3936  -14.7003 O   0  0  0  0  0  0  0  0  0  0  0  0
  2  1  1  6
  3  2  1  0
  4  3  1  0
  5  4  2  0
  6  5  1  0
  7  6  2  0
  7  8  1  0
  8  9  2  0
  9  4  1  0
 10 11  2  0
 10  2  1  0
 12 13  1  0
 13 14  1  0
 14 16  1  0
 14 15  1  6
 16 18  1  0
 16 17  1  1
 17 10  1  0
 18 20  1  0
 19 18  2  0
 20 21  1  0
 21 22  1  1
 21 25  1  0
 22 23  1  0
 23 27  1  0
 23 24  2  0
 25 28  2  0
 25 26  1  0
M  END
$$$$
