FID.pdb
     RDKit          3D

 28 28  0  0  1  0  0  0  0  0999 V2000
   20.4052  -19.7124  -10.8716 N   0  0  0  0  0  0  0  0  0  0  0  0
   21.2115  -20.8935  -10.6709 C   0  0  1  0  0  0  0  0  0  0  0  0
   20.6752  -22.0316  -11.5328 C   0  0  0  0  0  0  0  0  0  0  0  0
   19.3987  -22.5671  -11.0250 C   0  0  0  0  0  0  0  0  0  0  0  0
   18.2725  -22.3644  -11.7917 C   0  0  0  0  0  0  0  0  0  0  0  0
   17.0490  -22.8476  -11.3589 C   0  0  0  0  0  0  0  0  0  0  0  0
   16.9818  -23.5287  -10.1576 C   0  0  0  0  0  0  0  0  0  0  0  0
   18.1092  -23.7281   -9.3966 C   0  0  0  0  0  0  0  0  0  0  0  0
   19.3170  -23.2504   -9.8249 C   0  0  0  0  0  0  0  0  0  0  0  0
   22.5854  -20.6163  -11.1588 C   0  0  0  0  0  0  0  0  0  0  0  0
   22.7199  -19.7401  -12.0509 O   0  0  0  0  0  0  0  0  0  0  0  0
   26.6276  -20.6429   -7.6373 C   0  0  0  0  0  0  0  0  0  0  0  0
   25.7207  -20.3786   -8.7903 C   0  0  0  0  0  0  0  0  0  0  0  0
   26.0589  -21.2191  -10.0154 C   0  0  2  0  0  0  0  0  0  0  0  0
   27.4608  -20.9100  -10.4135 C   0  0  0  0  0  0  0  0  0  0  0  0
   25.0723  -20.8363  -11.1047 C   0  0  2  0  0  0  0  0  0  0  0  0
   23.7257  -21.2824  -10.6724 N   0  0  0  0  0  0  0  0  0  0  0  0
   25.3706  -21.4129  -12.4230 C   0  0  0  0  0  0  0  0  0  0  0  0
   25.4745  -22.6603  -12.5367 O   0  0  0  0  0  0  0  0  0  0  0  0
   25.5388  -20.6076  -13.5595 N   0  0  0  0  0  0  0  0  0  0  0  0
   25.8309  -21.2436  -14.8476 C   0  0  1  0  0  0  0  0  0  0  0  0
   25.4390  -20.2881  -15.9484 C   0  0  0  0  0  0  0  0  0  0  0  0
   25.6412  -20.8246  -17.3079 C   0  0  0  0  0  0  0  0  0  0  0  0
   25.8406  -22.0293  -17.5108 O   0  0  0  0  0  0  0  0  0  0  0  0
   27.2649  -21.5738  -14.9273 C   0  0  0  0  0  0  0  0  0  0  0  0
   27.6955  -22.8389  -15.2249 O   0  0  0  0  0  0  0  0  0  0  0  0
   25.6086  -19.9621  -18.3972 O   0  0  0  0  0  0  0  0  0  0  0  0
   28.1122  -20.6822  -14.7187 O   0  0  0  0  0  0  0  0  0  0  0  0
  2  1  1  6
  3  2  1  0
  4  3  1  0
  5  4  2  0
  6  5  1  0
  7  6  2  0
  7  8  1  0
  8  9  2  0
  9  4  1  0
 10 11  2  0
 10  2  1  0
 12 13  1  0
 13 14  1  0
 14 16  1  0
 14 15  1  6
 16 18  1  0
 16 17  1  1
 17 10  1  0
 18 20  1  0
 19 18  2  0
 20 21  1  0
 21 22  1  6
 21 25  1  0
 22 23  1  0
 23 27  1  0
 23 24  2  0
 25 28  2  0
 25 26  1  0
M  END
$$$$
