FID.pdb
     RDKit          3D

 28 28  0  0  1  0  0  0  0  0999 V2000
   18.6011  -11.2427  -18.8269 N   0  0  0  0  0  0  0  0  0  0  0  0
   19.6297  -10.2343  -18.9294 C   0  0  1  0  0  0  0  0  0  0  0  0
   19.0540   -8.9806  -19.5795 C   0  0  0  0  0  0  0  0  0  0  0  0
   18.8515   -9.1432  -21.0310 C   0  0  0  0  0  0  0  0  0  0  0  0
   17.5877   -9.4780  -21.4646 C   0  0  0  0  0  0  0  0  0  0  0  0
   17.3454   -9.6424  -22.8181 C   0  0  0  0  0  0  0  0  0  0  0  0
   18.3841   -9.4659  -23.7135 C   0  0  0  0  0  0  0  0  0  0  0  0
   19.6434   -9.1318  -23.2749 C   0  0  0  0  0  0  0  0  0  0  0  0
   19.8817   -8.9697  -21.9380 C   0  0  0  0  0  0  0  0  0  0  0  0
   20.0418   -9.8387  -17.5596 C   0  0  0  0  0  0  0  0  0  0  0  0
   19.1466   -9.7758  -16.6785 O   0  0  0  0  0  0  0  0  0  0  0  0
   23.8522  -12.1485  -15.0710 C   0  0  0  0  0  0  0  0  0  0  0  0
   22.6491  -11.3135  -15.3487 C   0  0  0  0  0  0  0  0  0  0  0  0
   22.9616   -9.8232  -15.4036 C   0  0  2  0  0  0  0  0  0  0  0  0
   23.4032   -9.3948  -14.0469 C   0  0  0  0  0  0  0  0  0  0  0  0
   21.6855   -9.1155  -15.8244 C   0  0  2  0  0  0  0  0  0  0  0  0
   21.3712   -9.5360  -17.2114 N   0  0  0  0  0  0  0  0  0  0  0  0
   21.7594   -7.6488  -15.7708 C   0  0  0  0  0  0  0  0  0  0  0  0
   22.5770   -7.0492  -16.5136 O   0  0  0  0  0  0  0  0  0  0  0  0
   20.9385   -6.8996  -14.9147 N   0  0  0  0  0  0  0  0  0  0  0  0
   21.0533   -5.4381  -14.9145 C   0  0  1  0  0  0  0  0  0  0  0  0
   19.6645   -4.8528  -14.8320 C   0  0  0  0  0  0  0  0  0  0  0  0
   19.6404   -3.3849  -14.6863 C   0  0  0  0  0  0  0  0  0  0  0  0
   18.8021   -2.8134  -13.9770 O   0  0  0  0  0  0  0  0  0  0  0  0
   21.8737   -5.0021  -13.7705 C   0  0  0  0  0  0  0  0  0  0  0  0
   22.5743   -3.8261  -13.7953 O   0  0  0  0  0  0  0  0  0  0  0  0
   20.5802   -2.6135  -15.3595 O   0  0  0  0  0  0  0  0  0  0  0  0
   21.9353   -5.7190  -12.7513 O   0  0  0  0  0  0  0  0  0  0  0  0
  2  1  1  1
  3  2  1  0
  4  3  1  0
  5  4  2  0
  6  5  1  0
  7  6  2  0
  7  8  1  0
  8  9  2  0
  9  4  1  0
 10 11  2  0
 10  2  1  0
 12 13  1  0
 13 14  1  0
 14 16  1  0
 14 15  1  1
 16 18  1  0
 16 17  1  6
 17 10  1  0
 18 20  1  0
 19 18  2  0
 20 21  1  0
 21 22  1  1
 21 25  1  0
 22 23  1  0
 23 27  1  0
 23 24  2  0
 25 28  2  0
 25 26  1  0
M  END
$$$$
