FID.pdb
     RDKit          3D

 28 28  0  0  1  0  0  0  0  0999 V2000
   26.6128  -13.4373  -17.4663 N   0  0  0  0  0  0  0  0  0  0  0  0
   25.1726  -13.4528  -17.5711 C   0  0  1  0  0  0  0  0  0  0  0  0
   24.5653  -13.8199  -16.2213 C   0  0  0  0  0  0  0  0  0  0  0  0
   24.8431  -15.2175  -15.8420 C   0  0  0  0  0  0  0  0  0  0  0  0
   25.7963  -15.4372  -14.8722 C   0  0  0  0  0  0  0  0  0  0  0  0
   26.0941  -16.7316  -14.4804 C   0  0  0  0  0  0  0  0  0  0  0  0
   25.4242  -17.7850  -15.0747 C   0  0  0  0  0  0  0  0  0  0  0  0
   24.4739  -17.5597  -16.0422 C   0  0  0  0  0  0  0  0  0  0  0  0
   24.1805  -16.2809  -16.4284 C   0  0  0  0  0  0  0  0  0  0  0  0
   24.7060  -12.0770  -17.8749 C   0  0  0  0  0  0  0  0  0  0  0  0
   25.3525  -11.1205  -17.3762 O   0  0  0  0  0  0  0  0  0  0  0  0
   23.3761  -10.7345  -22.7332 C   0  0  0  0  0  0  0  0  0  0  0  0
   23.8010  -10.6656  -21.3062 C   0  0  0  0  0  0  0  0  0  0  0  0
   22.6554  -10.3214  -20.3625 C   0  0  2  0  0  0  0  0  0  0  0  0
   22.1813   -8.9488  -20.6948 C   0  0  0  0  0  0  0  0  0  0  0  0
   23.2052  -10.3947  -18.9487 C   0  0  2  0  0  0  0  0  0  0  0  0
   23.5884  -11.8028  -18.6848 N   0  0  0  0  0  0  0  0  0  0  0  0
   22.2675   -9.9477  -17.9093 C   0  0  0  0  0  0  0  0  0  0  0  0
   21.4501  -10.7714  -17.4265 O   0  0  0  0  0  0  0  0  0  0  0  0
   22.2631   -8.6260  -17.4387 N   0  0  0  0  0  0  0  0  0  0  0  0
   21.2736   -8.2305  -16.4319 C   0  0  1  0  0  0  0  0  0  0  0  0
   21.7392   -8.7316  -15.0864 C   0  0  0  0  0  0  0  0  0  0  0  0
   20.8880   -8.3031  -13.9600 C   0  0  0  0  0  0  0  0  0  0  0  0
   19.7548   -8.7694  -13.7845 O   0  0  0  0  0  0  0  0  0  0  0  0
   21.1296   -6.7639  -16.4230 C   0  0  0  0  0  0  0  0  0  0  0  0
   20.1005   -6.1469  -15.7636 O   0  0  0  0  0  0  0  0  0  0  0  0
   21.3622   -7.3505  -13.0660 O   0  0  0  0  0  0  0  0  0  0  0  0
   21.9632   -6.0619  -17.0302 O   0  0  0  0  0  0  0  0  0  0  0  0
  2  1  1  1
  3  2  1  0
  4  3  1  0
  5  4  2  0
  6  5  1  0
  7  6  2  0
  7  8  1  0
  8  9  2  0
  9  4  1  0
 10 11  2  0
 10  2  1  0
 12 13  1  0
 13 14  1  0
 14 16  1  0
 14 15  1  6
 16 18  1  0
 16 17  1  1
 17 10  1  0
 18 20  1  0
 19 18  2  0
 20 21  1  0
 21 22  1  1
 21 25  1  0
 22 23  1  0
 23 27  1  0
 23 24  2  0
 25 28  2  0
 25 26  1  0
M  END
$$$$
