FID.pdb
     RDKit          3D

 28 28  0  0  1  0  0  0  0  0999 V2000
   28.9520  -18.9971  -13.0302 N   0  0  0  0  0  0  0  0  0  0  0  0
   28.1049  -20.1149  -13.3740 C   0  0  1  0  0  0  0  0  0  0  0  0
   27.8329  -20.9526  -12.1290 C   0  0  0  0  0  0  0  0  0  0  0  0
   29.0694  -21.4935  -11.5350 C   0  0  0  0  0  0  0  0  0  0  0  0
   29.8877  -22.2497  -12.3449 C   0  0  0  0  0  0  0  0  0  0  0  0
   31.0606  -22.7807  -11.8349 C   0  0  0  0  0  0  0  0  0  0  0  0
   31.3892  -22.5395  -10.5137 C   0  0  0  0  0  0  0  0  0  0  0  0
   30.5685  -21.7840   -9.7100 C   0  0  0  0  0  0  0  0  0  0  0  0
   29.4104  -21.2602  -10.2147 C   0  0  0  0  0  0  0  0  0  0  0  0
   26.7886  -19.5917  -13.8169 C   0  0  0  0  0  0  0  0  0  0  0  0
   26.2805  -18.6551  -13.1488 O   0  0  0  0  0  0  0  0  0  0  0  0
   26.8180  -17.9430  -18.5162 C   0  0  0  0  0  0  0  0  0  0  0  0
   26.3979  -18.1658  -17.1035 C   0  0  0  0  0  0  0  0  0  0  0  0
   25.2205  -19.1249  -16.9794 C   0  0  2  0  0  0  0  0  0  0  0  0
   24.0497  -18.5081  -17.6635 C   0  0  0  0  0  0  0  0  0  0  0  0
   24.9602  -19.3213  -15.4961 C   0  0  2  0  0  0  0  0  0  0  0  0
   26.0965  -20.0918  -14.9355 N   0  0  0  0  0  0  0  0  0  0  0  0
   23.7052  -20.0210  -15.1881 C   0  0  0  0  0  0  0  0  0  0  0  0
   23.5996  -21.2416  -15.4687 O   0  0  0  0  0  0  0  0  0  0  0  0
   22.6226  -19.3631  -14.5852 N   0  0  0  0  0  0  0  0  0  0  0  0
   21.3727  -20.0977  -14.3678 C   0  0  1  0  0  0  0  0  0  0  0  0
   20.6764  -19.5050  -13.1670 C   0  0  0  0  0  0  0  0  0  0  0  0
   19.3653  -20.1144  -12.8730 C   0  0  0  0  0  0  0  0  0  0  0  0
   18.9443  -21.0925  -13.5042 O   0  0  0  0  0  0  0  0  0  0  0  0
   20.5216  -20.0005  -15.5670 C   0  0  0  0  0  0  0  0  0  0  0  0
   20.1305  -18.7905  -16.0744 O   0  0  0  0  0  0  0  0  0  0  0  0
   18.5736  -19.5833  -11.8617 O   0  0  0  0  0  0  0  0  0  0  0  0
   20.1448  -21.0437  -16.1381 O   0  0  0  0  0  0  0  0  0  0  0  0
  2  1  1  1
  3  2  1  0
  4  3  1  0
  5  4  2  0
  6  5  1  0
  7  6  2  0
  7  8  1  0
  8  9  2  0
  9  4  1  0
 10 11  2  0
 10  2  1  0
 12 13  1  0
 13 14  1  0
 14 16  1  0
 14 15  1  6
 16 18  1  0
 16 17  1  6
 17 10  1  0
 18 20  1  0
 19 18  2  0
 20 21  1  0
 21 22  1  1
 21 25  1  0
 22 23  1  0
 23 27  1  0
 23 24  2  0
 25 28  2  0
 25 26  1  0
M  END
$$$$
