AKK.pdb
     RDKit          3D

 24 23  0  0  1  0  0  0  0  0999 V2000
   25.3605  -20.3191   -9.3387 C   0  0  0  0  0  0  0  0  0  0  0  0
   24.8801  -21.1084  -10.5147 C   0  0  2  0  0  0  0  0  0  0  0  0
   25.5638  -22.3859  -10.6138 N   0  0  0  0  0  0  0  0  0  0  0  0
   24.9455  -20.3547  -11.7937 C   0  0  0  0  0  0  0  0  0  0  0  0
   24.3747  -19.2371  -11.8783 O   0  0  0  0  0  0  0  0  0  0  0  0
   25.6254  -20.8325  -12.9402 N   0  0  0  0  0  0  0  0  0  0  0  0
   25.7023  -20.0216  -14.1854 C   0  0  1  0  0  0  0  0  0  0  0  0
   26.9065  -20.4826  -14.9134 C   0  0  0  0  0  0  0  0  0  0  0  0
   27.2152  -19.9189  -16.2306 C   0  0  0  0  0  0  0  0  0  0  0  0
   28.4375  -20.4630  -16.9044 C   0  0  0  0  0  0  0  0  0  0  0  0
   28.5303  -19.7435  -18.2539 C   0  0  0  0  0  0  0  0  0  0  0  0
   29.6657  -20.1672  -19.0141 N   0  0  0  0  0  0  0  0  0  0  0  0
   24.4535  -20.3050  -14.9363 C   0  0  0  0  0  0  0  0  0  0  0  0
   23.9337  -21.4796  -14.8992 O   0  0  0  0  0  0  0  0  0  0  0  0
   23.7511  -19.3599  -15.7206 N   0  0  0  0  0  0  0  0  0  0  0  0
   22.4175  -19.6732  -16.2880 C   0  0  1  0  0  0  0  0  0  0  0  0
   21.7658  -18.3387  -16.5617 C   0  0  0  0  0  0  0  0  0  0  0  0
   20.4130  -18.5324  -17.1925 C   0  0  0  0  0  0  0  0  0  0  0  0
   19.7916  -17.1577  -17.4541 C   0  0  0  0  0  0  0  0  0  0  0  0
   18.4266  -17.2947  -18.0677 C   0  0  0  0  0  0  0  0  0  0  0  0
   17.8143  -15.9704  -18.1711 N   0  0  0  0  0  0  0  0  0  0  0  0
   22.5758  -20.4888  -17.4858 C   0  0  0  0  0  0  0  0  0  0  0  0
   21.6399  -21.4094  -17.8799 O   0  0  0  0  0  0  0  0  0  0  0  0
   23.6160  -20.3645  -18.2140 O   0  0  0  0  0  0  0  0  0  0  0  0
  2  1  1  1
  2  3  1  0
  4  2  1  0
  4  5  2  0
  6  4  1  0
  7  6  1  0
  8  9  1  0
  7  8  1  6
  9 10  1  0
 11 12  1  0
 11 10  1  0
 13 15  1  0
 13  7  1  0
 14 13  2  0
 16 15  1  0
 16 22  1  0
 16 17  1  6
 18 17  1  0
 19 18  1  0
 20 19  1  0
 21 20  1  0
 22 24  2  0
 22 23  1  0
M  END
$$$$
