AKK.pdb
     RDKit          3D

 24 23  0  0  1  0  0  0  0  0999 V2000
   24.9302  -19.4727  -15.7345 C   0  0  0  0  0  0  0  0  0  0  0  0
   23.4370  -19.4897  -15.8168 C   0  0  2  0  0  0  0  0  0  0  0  0
   22.8971  -18.1506  -15.9738 N   0  0  0  0  0  0  0  0  0  0  0  0
   22.7948  -20.2068  -14.6848 C   0  0  0  0  0  0  0  0  0  0  0  0
   23.1010  -21.4067  -14.4644 O   0  0  0  0  0  0  0  0  0  0  0  0
   21.8425  -19.6048  -13.8271 N   0  0  0  0  0  0  0  0  0  0  0  0
   21.2743  -20.3424  -12.6664 C   0  0  1  0  0  0  0  0  0  0  0  0
   21.1148  -19.3525  -11.5767 C   0  0  0  0  0  0  0  0  0  0  0  0
   20.4880  -19.7596  -10.3160 C   0  0  0  0  0  0  0  0  0  0  0  0
   21.2576  -20.7459   -9.4919 C   0  0  0  0  0  0  0  0  0  0  0  0
   20.3892  -21.0372   -8.2637 C   0  0  0  0  0  0  0  0  0  0  0  0
   21.0522  -21.8878   -7.3239 N   0  0  0  0  0  0  0  0  0  0  0  0
   19.9701  -20.8837  -13.1240 C   0  0  0  0  0  0  0  0  0  0  0  0
   19.2002  -20.1673  -13.8625 O   0  0  0  0  0  0  0  0  0  0  0  0
   19.4762  -22.1721  -12.8107 N   0  0  0  0  0  0  0  0  0  0  0  0
   18.1643  -22.6363  -13.3225 C   0  0  1  0  0  0  0  0  0  0  0  0
   18.1455  -24.1304  -13.1040 C   0  0  0  0  0  0  0  0  0  0  0  0
   16.7906  -24.6948  -13.4375 C   0  0  0  0  0  0  0  0  0  0  0  0
   16.7935  -26.1943  -13.1281 C   0  0  0  0  0  0  0  0  0  0  0  0
   15.4470  -26.8014  -13.4065 C   0  0  0  0  0  0  0  0  0  0  0  0
   15.5050  -28.2373  -13.1340 N   0  0  0  0  0  0  0  0  0  0  0  0
   17.0926  -21.9419  -12.6194 C   0  0  0  0  0  0  0  0  0  0  0  0
   15.8961  -21.6378  -13.2148 O   0  0  0  0  0  0  0  0  0  0  0  0
   17.2461  -21.5895  -11.4029 O   0  0  0  0  0  0  0  0  0  0  0  0
  2  1  1  1
  2  3  1  0
  4  2  1  0
  4  5  2  0
  6  4  1  0
  7  6  1  0
  8  9  1  0
  7  8  1  1
  9 10  1  0
 11 12  1  0
 11 10  1  0
 13 15  1  0
 13  7  1  0
 14 13  2  0
 16 15  1  0
 16 22  1  0
 16 17  1  1
 18 17  1  0
 19 18  1  0
 20 19  1  0
 21 20  1  0
 22 24  2  0
 22 23  1  0
M  END
$$$$
