AKK.pdb
     RDKit          3D

 24 23  0  0  1  0  0  0  0  0999 V2000
   26.0812  -21.4343  -16.8567 C   0  0  0  0  0  0  0  0  0  0  0  0
   25.5576  -20.3708  -15.9449 C   0  0  2  0  0  0  0  0  0  0  0  0
   25.8753  -20.6556  -14.5566 N   0  0  0  0  0  0  0  0  0  0  0  0
   24.1075  -20.1024  -16.1278 C   0  0  0  0  0  0  0  0  0  0  0  0
   23.6713  -19.8410  -17.2782 O   0  0  0  0  0  0  0  0  0  0  0  0
   23.1752  -20.1252  -15.0623 N   0  0  0  0  0  0  0  0  0  0  0  0
   21.7321  -19.8463  -15.2937 C   0  0  1  0  0  0  0  0  0  0  0  0
   20.9880  -20.5905  -14.2520 C   0  0  0  0  0  0  0  0  0  0  0  0
   20.4632  -21.9255  -14.5527 C   0  0  0  0  0  0  0  0  0  0  0  0
   19.6273  -22.5560  -13.4813 C   0  0  0  0  0  0  0  0  0  0  0  0
   19.2084  -23.9258  -14.0251 C   0  0  0  0  0  0  0  0  0  0  0  0
   18.4236  -24.6630  -13.0831 N   0  0  0  0  0  0  0  0  0  0  0  0
   21.5711  -18.3774  -15.1527 C   0  0  0  0  0  0  0  0  0  0  0  0
   21.9598  -17.7883  -14.0788 O   0  0  0  0  0  0  0  0  0  0  0  0
   21.0074  -17.5292  -16.1348 N   0  0  0  0  0  0  0  0  0  0  0  0
   20.9194  -16.0641  -15.9243 C   0  0  1  0  0  0  0  0  0  0  0  0
   21.4064  -15.4364  -17.2085 C   0  0  0  0  0  0  0  0  0  0  0  0
   21.2704  -13.9387  -17.1478 C   0  0  0  0  0  0  0  0  0  0  0  0
   21.6227  -13.3574  -18.5197 C   0  0  0  0  0  0  0  0  0  0  0  0
   21.4976  -11.8597  -18.5152 C   0  0  0  0  0  0  0  0  0  0  0  0
   21.8057  -11.3507  -19.8515 N   0  0  0  0  0  0  0  0  0  0  0  0
   19.5470  -15.6999  -15.5942 C   0  0  0  0  0  0  0  0  0  0  0  0
   19.2363  -14.5850  -14.8600 O   0  0  0  0  0  0  0  0  0  0  0  0
   18.5770  -16.4288  -15.9885 O   0  0  0  0  0  0  0  0  0  0  0  0
  2  1  1  6
  2  3  1  0
  4  2  1  0
  4  5  2  0
  6  4  1  0
  7  6  1  0
  8  9  1  0
  7  8  1  1
  9 10  1  0
 11 12  1  0
 11 10  1  0
 13 15  1  0
 13  7  1  0
 14 13  2  0
 16 15  1  0
 16 22  1  0
 16 17  1  6
 18 17  1  0
 19 18  1  0
 20 19  1  0
 21 20  1  0
 22 24  2  0
 22 23  1  0
M  END
$$$$
