AKK.pdb
     RDKit          3D

 24 23  0  0  1  0  0  0  0  0999 V2000
   17.1652  -14.4903  -17.7610 C   0  0  0  0  0  0  0  0  0  0  0  0
   17.3201  -13.8688  -16.4096 C   0  0  2  0  0  0  0  0  0  0  0  0
   16.3817  -14.4310  -15.4542 N   0  0  0  0  0  0  0  0  0  0  0  0
   17.2490  -12.3847  -16.4344 C   0  0  0  0  0  0  0  0  0  0  0  0
   17.5759  -11.7712  -17.4827 O   0  0  0  0  0  0  0  0  0  0  0  0
   16.8270  -11.6110  -15.3262 N   0  0  0  0  0  0  0  0  0  0  0  0
   16.7696  -10.1259  -15.3990 C   0  0  1  0  0  0  0  0  0  0  0  0
   15.7286   -9.6979  -14.4369 C   0  0  0  0  0  0  0  0  0  0  0  0
   14.3434   -9.5450  -14.8907 C   0  0  0  0  0  0  0  0  0  0  0  0
   13.3629   -9.0868  -13.8549 C   0  0  0  0  0  0  0  0  0  0  0  0
   12.0311   -8.9000  -14.5889 C   0  0  0  0  0  0  0  0  0  0  0  0
   10.9537   -8.6234  -13.6894 N   0  0  0  0  0  0  0  0  0  0  0  0
   18.1193   -9.6445  -15.0119 C   0  0  0  0  0  0  0  0  0  0  0  0
   18.7327  -10.1811  -14.0183 O   0  0  0  0  0  0  0  0  0  0  0  0
   18.8243   -8.6065  -15.6655 N   0  0  0  0  0  0  0  0  0  0  0  0
   20.1780   -8.1984  -15.2185 C   0  0  1  0  0  0  0  0  0  0  0  0
   21.0787   -8.3892  -16.4153 C   0  0  0  0  0  0  0  0  0  0  0  0
   22.4751   -7.9216  -16.1039 C   0  0  0  0  0  0  0  0  0  0  0  0
   23.3410   -8.0929  -17.3550 C   0  0  0  0  0  0  0  0  0  0  0  0
   24.7694   -7.7201  -17.0731 C   0  0  0  0  0  0  0  0  0  0  0  0
   25.5253   -7.7443  -18.3251 N   0  0  0  0  0  0  0  0  0  0  0  0
   20.1408   -6.8204  -14.7445 C   0  0  0  0  0  0  0  0  0  0  0  0
   19.1029   -5.9711  -15.0277 O   0  0  0  0  0  0  0  0  0  0  0  0
   21.0978   -6.3584  -14.0385 O   0  0  0  0  0  0  0  0  0  0  0  0
  2  1  1  6
  2  3  1  0
  4  2  1  0
  4  5  2  0
  6  4  1  0
  7  6  1  0
  8  9  1  0
  7  8  1  1
  9 10  1  0
 11 12  1  0
 11 10  1  0
 13 15  1  0
 13  7  1  0
 14 13  2  0
 16 15  1  0
 16 22  1  0
 16 17  1  6
 18 17  1  0
 19 18  1  0
 20 19  1  0
 21 20  1  0
 22 24  2  0
 22 23  1  0
M  END
$$$$
