AKK.pdb
     RDKit          3D

 24 23  0  0  1  0  0  0  0  0999 V2000
   30.0471  -24.8364  -18.0458 C   0  0  0  0  0  0  0  0  0  0  0  0
   28.8733  -24.8184  -17.1193 C   0  0  2  0  0  0  0  0  0  0  0  0
   27.7981  -25.6652  -17.6054 N   0  0  0  0  0  0  0  0  0  0  0  0
   28.3900  -23.4476  -16.8107 C   0  0  0  0  0  0  0  0  0  0  0  0
   29.1961  -22.6023  -16.3441 O   0  0  0  0  0  0  0  0  0  0  0  0
   27.0515  -23.0338  -17.0159 N   0  0  0  0  0  0  0  0  0  0  0  0
   26.6159  -21.6462  -16.7013 C   0  0  1  0  0  0  0  0  0  0  0  0
   25.8941  -21.1514  -17.8958 C   0  0  0  0  0  0  0  0  0  0  0  0
   25.5524  -19.7297  -17.9967 C   0  0  0  0  0  0  0  0  0  0  0  0
   26.6864  -18.7696  -17.8062 C   0  0  0  0  0  0  0  0  0  0  0  0
   26.0666  -17.3694  -17.8601 C   0  0  0  0  0  0  0  0  0  0  0  0
   27.0402  -16.3406  -17.6599 N   0  0  0  0  0  0  0  0  0  0  0  0
   25.7273  -21.7545  -15.5173 C   0  0  0  0  0  0  0  0  0  0  0  0
   24.7878  -22.6310  -15.4967 O   0  0  0  0  0  0  0  0  0  0  0  0
   25.8251  -20.9489  -14.3583 N   0  0  0  0  0  0  0  0  0  0  0  0
   24.9368  -21.1714  -13.1920 C   0  0  1  0  0  0  0  0  0  0  0  0
   25.7013  -20.6632  -11.9930 C   0  0  0  0  0  0  0  0  0  0  0  0
   24.8931  -20.8462  -10.7364 C   0  0  0  0  0  0  0  0  0  0  0  0
   25.7215  -20.3594   -9.5443 C   0  0  0  0  0  0  0  0  0  0  0  0
   24.9956  -20.6051   -8.2514 C   0  0  0  0  0  0  0  0  0  0  0  0
   25.8398  -20.1689   -7.1394 N   0  0  0  0  0  0  0  0  0  0  0  0
   23.6729  -20.4759  -13.4012 C   0  0  0  0  0  0  0  0  0  0  0  0
   22.4994  -20.8905  -12.8272 O   0  0  0  0  0  0  0  0  0  0  0  0
   23.6259  -19.4395  -14.1438 O   0  0  0  0  0  0  0  0  0  0  0  0
  2  1  1  6
  2  3  1  0
  4  2  1  0
  4  5  2  0
  6  4  1  0
  7  6  1  0
  8  9  1  0
  7  8  1  6
  9 10  1  0
 11 12  1  0
 11 10  1  0
 13 15  1  0
 13  7  1  0
 14 13  2  0
 16 15  1  0
 16 22  1  0
 16 17  1  1
 18 17  1  0
 19 18  1  0
 20 19  1  0
 21 20  1  0
 22 24  2  0
 22 23  1  0
M  END
$$$$
