AKK.pdb
     RDKit          3D

 24 23  0  0  1  0  0  0  0  0999 V2000
   19.8563  -12.7421  -20.0088 C   0  0  0  0  0  0  0  0  0  0  0  0
   20.5765  -11.7352  -19.1697 C   0  0  2  0  0  0  0  0  0  0  0  0
   21.4297  -12.3757  -18.1842 N   0  0  0  0  0  0  0  0  0  0  0  0
   19.6704  -10.7394  -18.5408 C   0  0  0  0  0  0  0  0  0  0  0  0
   18.9405  -10.0237  -19.2736 O   0  0  0  0  0  0  0  0  0  0  0  0
   19.5817  -10.5487  -17.1405 N   0  0  0  0  0  0  0  0  0  0  0  0
   18.6621   -9.5352  -16.5565 C   0  0  1  0  0  0  0  0  0  0  0  0
   18.4420   -9.9304  -15.1465 C   0  0  0  0  0  0  0  0  0  0  0  0
   17.6250   -9.0800  -14.2762 C   0  0  0  0  0  0  0  0  0  0  0  0
   17.4652   -9.5525  -12.8636 C   0  0  0  0  0  0  0  0  0  0  0  0
   16.4605   -8.5974  -12.2110 C   0  0  0  0  0  0  0  0  0  0  0  0
   16.2777   -8.8753  -10.8197 N   0  0  0  0  0  0  0  0  0  0  0  0
   19.3647   -8.2324  -16.6678 C   0  0  0  0  0  0  0  0  0  0  0  0
   20.5685   -8.1121  -16.2345 O   0  0  0  0  0  0  0  0  0  0  0  0
   18.8083   -7.0610  -17.2337 N   0  0  0  0  0  0  0  0  0  0  0  0
   19.5839   -5.7991  -17.3027 C   0  0  1  0  0  0  0  0  0  0  0  0
   19.2887   -5.2115  -18.6621 C   0  0  0  0  0  0  0  0  0  0  0  0
   20.0452   -3.9247  -18.8555 C   0  0  0  0  0  0  0  0  0  0  0  0
   19.7516   -3.3886  -20.2594 C   0  0  0  0  0  0  0  0  0  0  0  0
   20.4879   -2.1019  -20.5063 C   0  0  0  0  0  0  0  0  0  0  0  0
   21.9256   -2.3443  -20.3889 N   0  0  0  0  0  0  0  0  0  0  0  0
   19.1921   -4.9246  -16.2042 C   0  0  0  0  0  0  0  0  0  0  0  0
   20.0225   -3.9582  -15.6990 O   0  0  0  0  0  0  0  0  0  0  0  0
   18.0389   -5.0410  -15.6711 O   0  0  0  0  0  0  0  0  0  0  0  0
  2  1  1  1
  2  3  1  0
  4  2  1  0
  4  5  2  0
  6  4  1  0
  7  6  1  0
  8  9  1  0
  7  8  1  1
  9 10  1  0
 11 12  1  0
 11 10  1  0
 13 15  1  0
 13  7  1  0
 14 13  2  0
 16 15  1  0
 16 22  1  0
 16 17  1  6
 18 17  1  0
 19 18  1  0
 20 19  1  0
 21 20  1  0
 22 24  2  0
 22 23  1  0
M  END
$$$$
