AKK.pdb
     RDKit          3D

 24 23  0  0  1  0  0  0  0  0999 V2000
   25.8479  -20.4169  -10.1137 C   0  0  0  0  0  0  0  0  0  0  0  0
   24.7565  -20.9983  -10.9549 C   0  0  2  0  0  0  0  0  0  0  0  0
   24.8408  -22.4472  -11.0095 N   0  0  0  0  0  0  0  0  0  0  0  0
   24.6847  -20.4051  -12.3154 C   0  0  0  0  0  0  0  0  0  0  0  0
   24.6293  -19.1545  -12.4384 O   0  0  0  0  0  0  0  0  0  0  0  0
   24.6751  -21.1817  -13.4994 N   0  0  0  0  0  0  0  0  0  0  0  0
   24.6243  -20.5415  -14.8416 C   0  0  1  0  0  0  0  0  0  0  0  0
   25.1013  -21.5558  -15.8093 C   0  0  0  0  0  0  0  0  0  0  0  0
   26.4916  -21.5168  -16.2713 C   0  0  0  0  0  0  0  0  0  0  0  0
   27.2442  -22.8095  -16.1893 C   0  0  0  0  0  0  0  0  0  0  0  0
   28.6141  -22.5403  -16.8208 C   0  0  0  0  0  0  0  0  0  0  0  0
   29.4995  -23.6555  -16.6840 N   0  0  0  0  0  0  0  0  0  0  0  0
   23.2029  -20.1786  -15.0686 C   0  0  0  0  0  0  0  0  0  0  0  0
   22.2665  -20.9224  -14.5981 O   0  0  0  0  0  0  0  0  0  0  0  0
   22.7651  -19.0389  -15.7835 N   0  0  0  0  0  0  0  0  0  0  0  0
   21.3237  -18.7087  -15.8930 C   0  0  1  0  0  0  0  0  0  0  0  0
   21.2656  -17.3270  -16.4995 C   0  0  0  0  0  0  0  0  0  0  0  0
   19.8397  -16.9327  -16.7768 C   0  0  0  0  0  0  0  0  0  0  0  0
   19.6211  -15.5003  -16.2821 C   0  0  0  0  0  0  0  0  0  0  0  0
   18.1693  -15.1204  -16.3656 C   0  0  0  0  0  0  0  0  0  0  0  0
   17.9751  -13.8286  -15.7075 N   0  0  0  0  0  0  0  0  0  0  0  0
   20.6519  -19.7176  -16.7029 C   0  0  0  0  0  0  0  0  0  0  0  0
   21.2601  -20.3356  -17.7645 O   0  0  0  0  0  0  0  0  0  0  0  0
   19.4510  -20.0575  -16.4386 O   0  0  0  0  0  0  0  0  0  0  0  0
  2  1  1  6
  2  3  1  0
  4  2  1  0
  4  5  2  0
  6  4  1  0
  7  6  1  0
  8  9  1  0
  7  8  1  6
  9 10  1  0
 11 12  1  0
 11 10  1  0
 13 15  1  0
 13  7  1  0
 14 13  2  0
 16 15  1  0
 16 22  1  0
 16 17  1  6
 18 17  1  0
 19 18  1  0
 20 19  1  0
 21 20  1  0
 22 24  2  0
 22 23  1  0
M  END
$$$$
