AKK.pdb
     RDKit          3D

 24 23  0  0  1  0  0  0  0  0999 V2000
   29.0166  -22.4393  -17.3007 C   0  0  0  0  0  0  0  0  0  0  0  0
   27.9901  -21.3639  -17.1380 C   0  0  2  0  0  0  0  0  0  0  0  0
   28.6068  -20.0700  -16.9043 N   0  0  0  0  0  0  0  0  0  0  0  0
   26.9712  -21.6768  -16.1025 C   0  0  0  0  0  0  0  0  0  0  0  0
   26.2589  -22.7053  -16.2323 O   0  0  0  0  0  0  0  0  0  0  0  0
   26.7546  -20.8688  -14.9601 N   0  0  0  0  0  0  0  0  0  0  0  0
   25.7145  -21.2170  -13.9546 C   0  0  1  0  0  0  0  0  0  0  0  0
   26.2544  -20.8161  -12.6354 C   0  0  0  0  0  0  0  0  0  0  0  0
   25.4197  -20.9578  -11.4390 C   0  0  0  0  0  0  0  0  0  0  0  0
   26.0438  -20.5171  -10.1505 C   0  0  0  0  0  0  0  0  0  0  0  0
   24.9877  -20.7577   -9.0668 C   0  0  0  0  0  0  0  0  0  0  0  0
   25.4715  -20.4321   -7.7606 N   0  0  0  0  0  0  0  0  0  0  0  0
   24.5085  -20.4349  -14.3253 C   0  0  0  0  0  0  0  0  0  0  0  0
   24.6066  -19.1755  -14.5612 O   0  0  0  0  0  0  0  0  0  0  0  0
   23.2055  -20.9716  -14.4508 N   0  0  0  0  0  0  0  0  0  0  0  0
   22.0622  -20.1223  -14.8633 C   0  0  1  0  0  0  0  0  0  0  0  0
   21.1199  -21.0381  -15.6074 C   0  0  0  0  0  0  0  0  0  0  0  0
   19.8383  -20.3208  -15.9368 C   0  0  0  0  0  0  0  0  0  0  0  0
   18.9076  -21.2900  -16.6708 C   0  0  0  0  0  0  0  0  0  0  0  0
   17.7029  -20.5712  -17.2100 C   0  0  0  0  0  0  0  0  0  0  0  0
   16.8461  -21.5308  -17.9062 N   0  0  0  0  0  0  0  0  0  0  0  0
   21.4566  -19.5131  -13.6854 C   0  0  0  0  0  0  0  0  0  0  0  0
   20.8725  -18.2735  -13.7144 O   0  0  0  0  0  0  0  0  0  0  0  0
   21.4569  -20.1330  -12.5704 O   0  0  0  0  0  0  0  0  0  0  0  0
  2  1  1  1
  2  3  1  0
  4  2  1  0
  4  5  2  0
  6  4  1  0
  7  6  1  0
  8  9  1  0
  7  8  1  1
  9 10  1  0
 11 12  1  0
 11 10  1  0
 13 15  1  0
 13  7  1  0
 14 13  2  0
 16 15  1  0
 16 22  1  0
 16 17  1  1
 18 17  1  0
 19 18  1  0
 20 19  1  0
 21 20  1  0
 22 24  2  0
 22 23  1  0
M  END
$$$$
