AKK.pdb
     RDKit          3D

 24 23  0  0  1  0  0  0  0  0999 V2000
   25.4551  -15.3760  -18.3133 C   0  0  0  0  0  0  0  0  0  0  0  0
   25.3825  -16.6422  -17.5207 C   0  0  2  0  0  0  0  0  0  0  0  0
   26.4363  -17.5677  -17.8980 N   0  0  0  0  0  0  0  0  0  0  0  0
   24.0457  -17.2893  -17.5695 C   0  0  0  0  0  0  0  0  0  0  0  0
   23.4077  -17.3009  -18.6533 O   0  0  0  0  0  0  0  0  0  0  0  0
   23.4411  -17.9032  -16.4458 N   0  0  0  0  0  0  0  0  0  0  0  0
   22.1098  -18.5599  -16.5486 C   0  0  1  0  0  0  0  0  0  0  0  0
   22.1543  -19.7417  -15.6575 C   0  0  0  0  0  0  0  0  0  0  0  0
   20.9797  -20.6118  -15.5512 C   0  0  0  0  0  0  0  0  0  0  0  0
   21.0701  -21.7111  -14.5375 C   0  0  0  0  0  0  0  0  0  0  0  0
   19.7606  -22.4983  -14.6518 C   0  0  0  0  0  0  0  0  0  0  0  0
   19.6491  -23.5086  -13.6452 N   0  0  0  0  0  0  0  0  0  0  0  0
   21.1201  -17.5528  -16.0910 C   0  0  0  0  0  0  0  0  0  0  0  0
   21.3159  -16.9108  -14.9952 O   0  0  0  0  0  0  0  0  0  0  0  0
   19.9311  -17.2180  -16.7810 N   0  0  0  0  0  0  0  0  0  0  0  0
   19.0107  -16.1771  -16.2634 C   0  0  1  0  0  0  0  0  0  0  0  0
   18.7055  -15.2799  -17.4391 C   0  0  0  0  0  0  0  0  0  0  0  0
   17.7035  -14.2257  -17.0515 C   0  0  0  0  0  0  0  0  0  0  0  0
   17.4572  -13.3150  -18.2575 C   0  0  0  0  0  0  0  0  0  0  0  0
   16.6014  -12.1400  -17.8756 C   0  0  0  0  0  0  0  0  0  0  0  0
   16.5761  -11.1870  -18.9849 N   0  0  0  0  0  0  0  0  0  0  0  0
   17.8229  -16.8102  -15.7036 C   0  0  0  0  0  0  0  0  0  0  0  0
   17.1814  -16.3234  -14.5945 O   0  0  0  0  0  0  0  0  0  0  0  0
   17.3401  -17.8602  -16.2441 O   0  0  0  0  0  0  0  0  0  0  0  0
  2  1  1  6
  2  3  1  0
  4  2  1  0
  4  5  2  0
  6  4  1  0
  7  6  1  0
  8  9  1  0
  7  8  1  1
  9 10  1  0
 11 12  1  0
 11 10  1  0
 13 15  1  0
 13  7  1  0
 14 13  2  0
 16 15  1  0
 16 22  1  0
 16 17  1  6
 18 17  1  0
 19 18  1  0
 20 19  1  0
 21 20  1  0
 22 24  2  0
 22 23  1  0
M  END
$$$$
