AKK.pdb
     RDKit          3D

 24 23  0  0  1  0  0  0  0  0999 V2000
   22.7048   -9.1350  -19.3033 C   0  0  0  0  0  0  0  0  0  0  0  0
   21.3613   -9.7743  -19.4549 C   0  0  2  0  0  0  0  0  0  0  0  0
   20.3627   -8.8168  -19.8969 N   0  0  0  0  0  0  0  0  0  0  0  0
   20.9170  -10.5024  -18.2382 C   0  0  0  0  0  0  0  0  0  0  0  0
   21.6451  -11.4133  -17.7668 O   0  0  0  0  0  0  0  0  0  0  0  0
   19.7004  -10.2232  -17.5695 N   0  0  0  0  0  0  0  0  0  0  0  0
   19.3171  -10.9505  -16.3293 C   0  0  1  0  0  0  0  0  0  0  0  0
   18.8072   -9.9306  -15.3846 C   0  0  0  0  0  0  0  0  0  0  0  0
   18.2434  -10.3529  -14.0994 C   0  0  0  0  0  0  0  0  0  0  0  0
   17.7501   -9.2538  -13.2091 C   0  0  0  0  0  0  0  0  0  0  0  0
   17.1402   -9.9447  -11.9851 C   0  0  0  0  0  0  0  0  0  0  0  0
   16.7792   -9.0113  -10.9630 N   0  0  0  0  0  0  0  0  0  0  0  0
   18.2635  -11.9163  -16.7301 C   0  0  0  0  0  0  0  0  0  0  0  0
   17.2381  -11.5116  -17.3906 O   0  0  0  0  0  0  0  0  0  0  0  0
   18.2862  -13.3013  -16.4420 N   0  0  0  0  0  0  0  0  0  0  0  0
   17.2359  -14.2103  -16.9608 C   0  0  1  0  0  0  0  0  0  0  0  0
   17.9077  -15.5506  -17.1413 C   0  0  0  0  0  0  0  0  0  0  0  0
   16.9559  -16.5379  -17.7618 C   0  0  0  0  0  0  0  0  0  0  0  0
   17.6860  -17.8700  -17.9535 C   0  0  0  0  0  0  0  0  0  0  0  0
   16.8437  -18.8340  -18.7410 C   0  0  0  0  0  0  0  0  0  0  0  0
   17.5823  -20.0850  -18.9112 N   0  0  0  0  0  0  0  0  0  0  0  0
   16.1197  -14.2515  -16.0240 C   0  0  0  0  0  0  0  0  0  0  0  0
   14.8260  -14.4572  -16.4273 O   0  0  0  0  0  0  0  0  0  0  0  0
   16.3239  -14.0913  -14.7749 O   0  0  0  0  0  0  0  0  0  0  0  0
  2  1  1  1
  2  3  1  0
  4  2  1  0
  4  5  2  0
  6  4  1  0
  7  6  1  0
  8  9  1  0
  7  8  1  1
  9 10  1  0
 11 12  1  0
 11 10  1  0
 13 15  1  0
 13  7  1  0
 14 13  2  0
 16 15  1  0
 16 22  1  0
 16 17  1  1
 18 17  1  0
 19 18  1  0
 20 19  1  0
 21 20  1  0
 22 24  2  0
 22 23  1  0
M  END
$$$$
