MYD.pdb
     RDKit          3D

 29 29  0  0  1  0  0  0  0  0999 V2000
   37.7905  -12.0910  -11.3335 C   0  0  0  0  0  0  0  0  0  0  0  0
   39.1734  -12.3677  -12.4797 S   0  0  0  0  0  0  0  0  0  0  0  0
   40.7422  -12.1285  -11.5612 C   0  0  0  0  0  0  0  0  0  0  0  0
   40.5601  -11.1320  -10.4638 C   0  0  0  0  0  0  0  0  0  0  0  0
   41.7706  -10.8200   -9.6909 C   0  0  2  0  0  0  0  0  0  0  0  0
   42.1930  -11.9704   -8.9040 N   0  0  0  0  0  0  0  0  0  0  0  0
   41.7007   -9.5956   -8.8649 C   0  0  0  0  0  0  0  0  0  0  0  0
   41.2167   -9.5567   -7.6910 O   0  0  0  0  0  0  0  0  0  0  0  0
   46.1793  -10.1853   -4.4569 O   0  0  0  0  0  0  0  0  0  0  0  0
   45.5080   -9.3158   -5.3400 C   0  0  0  0  0  0  0  0  0  0  0  0
   44.5504   -8.4426   -4.8820 C   0  0  0  0  0  0  0  0  0  0  0  0
   43.8982   -7.5975   -5.7573 C   0  0  0  0  0  0  0  0  0  0  0  0
   44.1732   -7.5898   -7.1127 C   0  0  0  0  0  0  0  0  0  0  0  0
   43.4361   -6.6740   -7.9683 C   0  0  0  0  0  0  0  0  0  0  0  0
   42.1755   -7.1093   -8.5773 C   0  0  2  0  0  0  0  0  0  0  0  0
   42.1852   -8.3296   -9.3454 N   0  0  0  0  0  0  0  0  0  0  0  0
   41.3460   -6.0920   -9.2498 C   0  0  0  0  0  0  0  0  0  0  0  0
   41.3702   -6.0490  -10.5153 O   0  0  0  0  0  0  0  0  0  0  0  0
   45.1397   -8.4777   -7.5380 C   0  0  0  0  0  0  0  0  0  0  0  0
   45.7977   -9.3267   -6.6716 C   0  0  0  0  0  0  0  0  0  0  0  0
   40.5220   -5.1567   -8.6209 N   0  0  0  0  0  0  0  0  0  0  0  0
   39.6964   -4.2049   -9.4113 C   0  0  1  0  0  0  0  0  0  0  0  0
   38.8190   -5.0040  -10.2982 C   0  0  0  0  0  0  0  0  0  0  0  0
   37.8815   -4.1900  -11.0878 C   0  0  0  0  0  0  0  0  0  0  0  0
   37.8379   -2.9440  -10.9874 O   0  0  0  0  0  0  0  0  0  0  0  0
   39.0044   -3.2689   -8.4971 C   0  0  0  0  0  0  0  0  0  0  0  0
   38.6577   -1.9719   -8.8234 O   0  0  0  0  0  0  0  0  0  0  0  0
   37.0004   -4.7715  -11.9823 O   0  0  0  0  0  0  0  0  0  0  0  0
   38.6955   -3.6520   -7.3274 O   0  0  0  0  0  0  0  0  0  0  0  0
  2  1  1  0
  3  2  1  0
  4  5  1  0
  4  3  1  0
  5  6  1  1
  7  8  2  0
  7  5  1  0
  9 10  1  0
 10 11  2  0
 11 12  1  0
 13 12  2  0
 13 14  1  0
 15 14  1  6
 15 16  1  0
 16  7  1  0
 17 21  1  0
 17 15  1  0
 18 17  2  0
 19 13  1  0
 20 10  1  0
 20 19  2  0
 22 21  1  0
 22 26  1  0
 22 23  1  1
 23 24  1  0
 24 25  2  0
 26 27  1  0
 28 24  1  0
 29 26  2  0
M  END
$$$$
