MYD.pdb
     RDKit          3D

 29 29  0  0  1  0  0  0  0  0999 V2000
   27.6740  -16.7141  -16.2973 C   0  0  0  0  0  0  0  0  0  0  0  0
   28.7129  -18.0753  -16.9057 S   0  0  0  0  0  0  0  0  0  0  0  0
   27.6245  -19.3321  -17.6788 C   0  0  0  0  0  0  0  0  0  0  0  0
   26.6504  -19.8668  -16.6808 C   0  0  0  0  0  0  0  0  0  0  0  0
   27.2318  -20.7017  -15.6202 C   0  0  2  0  0  0  0  0  0  0  0  0
   27.9268  -21.8491  -16.1873 N   0  0  0  0  0  0  0  0  0  0  0  0
   26.2989  -21.1099  -14.5480 C   0  0  0  0  0  0  0  0  0  0  0  0
   25.6654  -22.2109  -14.5379 O   0  0  0  0  0  0  0  0  0  0  0  0
   29.9972  -21.9391   -8.4164 O   0  0  0  0  0  0  0  0  0  0  0  0
   28.8279  -21.4786   -9.0546 C   0  0  0  0  0  0  0  0  0  0  0  0
   28.8027  -21.2555  -10.4107 C   0  0  0  0  0  0  0  0  0  0  0  0
   27.6519  -20.8021  -11.0237 C   0  0  0  0  0  0  0  0  0  0  0  0
   26.4904  -20.5555  -10.3145 C   0  0  0  0  0  0  0  0  0  0  0  0
   25.3235  -20.0721  -11.0345 C   0  0  0  0  0  0  0  0  0  0  0  0
   25.0588  -20.5580  -12.3922 C   0  0  2  0  0  0  0  0  0  0  0  0
   26.0340  -20.2665  -13.4135 N   0  0  0  0  0  0  0  0  0  0  0  0
   23.6952  -20.3954  -12.9303 C   0  0  0  0  0  0  0  0  0  0  0  0
   23.4705  -19.4052  -13.6873 O   0  0  0  0  0  0  0  0  0  0  0  0
   26.5506  -20.7907   -8.9564 C   0  0  0  0  0  0  0  0  0  0  0  0
   27.6956  -21.2439   -8.3336 C   0  0  0  0  0  0  0  0  0  0  0  0
   22.6093  -21.2382  -12.6857 N   0  0  0  0  0  0  0  0  0  0  0  0
   21.2625  -20.9376  -13.2410 C   0  0  1  0  0  0  0  0  0  0  0  0
   20.9990  -21.9113  -14.3261 C   0  0  0  0  0  0  0  0  0  0  0  0
   19.6476  -21.8040  -14.8982 C   0  0  0  0  0  0  0  0  0  0  0  0
   18.7249  -22.5823  -14.5705 O   0  0  0  0  0  0  0  0  0  0  0  0
   20.2674  -20.9118  -12.1456 C   0  0  0  0  0  0  0  0  0  0  0  0
   18.9684  -20.4616  -12.2813 O   0  0  0  0  0  0  0  0  0  0  0  0
   19.3360  -20.8304  -15.8308 O   0  0  0  0  0  0  0  0  0  0  0  0
   20.5982  -21.3230  -10.9915 O   0  0  0  0  0  0  0  0  0  0  0  0
  2  1  1  0
  3  2  1  0
  4  5  1  0
  4  3  1  0
  5  6  1  6
  7  8  2  0
  7  5  1  0
  9 10  1  0
 10 11  2  0
 11 12  1  0
 13 12  2  0
 13 14  1  0
 15 14  1  1
 15 16  1  0
 16  7  1  0
 17 21  1  0
 17 15  1  0
 18 17  2  0
 19 13  1  0
 20 10  1  0
 20 19  2  0
 22 21  1  0
 22 26  1  0
 22 23  1  6
 23 24  1  0
 24 25  2  0
 26 27  1  0
 28 24  1  0
 29 26  2  0
M  END
$$$$
