MYD.pdb
     RDKit          3D

 29 29  0  0  1  0  0  0  0  0999 V2000
   23.5303  -11.6726  -22.9168 C   0  0  0  0  0  0  0  0  0  0  0  0
   22.7973  -11.0002  -21.3958 S   0  0  0  0  0  0  0  0  0  0  0  0
   23.6048  -11.8055  -19.9600 C   0  0  0  0  0  0  0  0  0  0  0  0
   22.8801  -11.4732  -18.6970 C   0  0  0  0  0  0  0  0  0  0  0  0
   22.6623  -10.0399  -18.4559 C   0  0  2  0  0  0  0  0  0  0  0  0
   23.9254   -9.3152  -18.4688 N   0  0  0  0  0  0  0  0  0  0  0  0
   21.8616   -9.7104  -17.2573 C   0  0  0  0  0  0  0  0  0  0  0  0
   20.7718  -10.2864  -16.9500 O   0  0  0  0  0  0  0  0  0  0  0  0
   19.3212   -5.8944   -9.5193 O   0  0  0  0  0  0  0  0  0  0  0  0
   20.0421   -6.3930  -10.6229 C   0  0  0  0  0  0  0  0  0  0  0  0
   20.5650   -5.5439  -11.5689 C   0  0  0  0  0  0  0  0  0  0  0  0
   21.2672   -6.0448  -12.6467 C   0  0  0  0  0  0  0  0  0  0  0  0
   21.4741   -7.4009  -12.8221 C   0  0  0  0  0  0  0  0  0  0  0  0
   22.2183   -7.8473  -13.9887 C   0  0  0  0  0  0  0  0  0  0  0  0
   21.4934   -8.2633  -15.1932 C   0  0  2  0  0  0  0  0  0  0  0  0
   22.2687   -8.6866  -16.3329 N   0  0  0  0  0  0  0  0  0  0  0  0
   20.3531   -7.4376  -15.6327 C   0  0  0  0  0  0  0  0  0  0  0  0
   20.5801   -6.5035  -16.4574 O   0  0  0  0  0  0  0  0  0  0  0  0
   20.9368   -8.2241  -11.8541 C   0  0  0  0  0  0  0  0  0  0  0  0
   20.2332   -7.7340  -10.7729 C   0  0  0  0  0  0  0  0  0  0  0  0
   19.0260   -7.5853  -15.2249 N   0  0  0  0  0  0  0  0  0  0  0  0
   17.9896   -6.5880  -15.6041 C   0  0  1  0  0  0  0  0  0  0  0  0
   16.6718   -7.2604  -15.5239 C   0  0  0  0  0  0  0  0  0  0  0  0
   15.5530   -6.4192  -15.9773 C   0  0  0  0  0  0  0  0  0  0  0  0
   15.5732   -5.1734  -15.8681 O   0  0  0  0  0  0  0  0  0  0  0  0
   18.1420   -5.3723  -14.7737 C   0  0  0  0  0  0  0  0  0  0  0  0
   18.4544   -4.1217  -15.2705 O   0  0  0  0  0  0  0  0  0  0  0  0
   14.4211   -6.9736  -16.5484 O   0  0  0  0  0  0  0  0  0  0  0  0
   17.9825   -5.4502  -13.5171 O   0  0  0  0  0  0  0  0  0  0  0  0
  2  1  1  0
  3  2  1  0
  4  5  1  0
  4  3  1  0
  5  6  1  1
  7  8  2  0
  7  5  1  0
  9 10  1  0
 10 11  2  0
 11 12  1  0
 13 12  2  0
 13 14  1  0
 15 14  1  1
 15 16  1  0
 16  7  1  0
 17 21  1  0
 17 15  1  0
 18 17  2  0
 19 13  1  0
 20 10  1  0
 20 19  2  0
 22 21  1  0
 22 26  1  0
 22 23  1  1
 23 24  1  0
 24 25  2  0
 26 27  1  0
 28 24  1  0
 29 26  2  0
M  END
$$$$
