MYD.pdb
     RDKit          3D

 29 29  0  0  1  0  0  0  0  0999 V2000
   26.2372  -16.0834  -24.5671 C   0  0  0  0  0  0  0  0  0  0  0  0
   24.8461  -15.4756  -23.5682 S   0  0  0  0  0  0  0  0  0  0  0  0
   24.2530  -16.8483  -22.5072 C   0  0  0  0  0  0  0  0  0  0  0  0
   23.1328  -16.3885  -21.6329 C   0  0  0  0  0  0  0  0  0  0  0  0
   23.3224  -16.6209  -20.1942 C   0  0  2  0  0  0  0  0  0  0  0  0
   23.6987  -18.0044  -19.9387 N   0  0  0  0  0  0  0  0  0  0  0  0
   22.2022  -16.1960  -19.3276 C   0  0  0  0  0  0  0  0  0  0  0  0
   21.0396  -16.7062  -19.3673 O   0  0  0  0  0  0  0  0  0  0  0  0
   21.3019  -20.4730  -14.5094 O   0  0  0  0  0  0  0  0  0  0  0  0
   21.2986  -19.1200  -14.9039 C   0  0  0  0  0  0  0  0  0  0  0  0
   22.4743  -18.4251  -15.0595 C   0  0  0  0  0  0  0  0  0  0  0  0
   22.4578  -17.0994  -15.4440 C   0  0  0  0  0  0  0  0  0  0  0  0
   21.2779  -16.4200  -15.6868 C   0  0  0  0  0  0  0  0  0  0  0  0
   21.3469  -15.0222  -16.0810 C   0  0  0  0  0  0  0  0  0  0  0  0
   21.2933  -14.6682  -17.5028 C   0  0  2  0  0  0  0  0  0  0  0  0
   22.3529  -15.1464  -18.3559 N   0  0  0  0  0  0  0  0  0  0  0  0
   20.9440  -13.2795  -17.8559 C   0  0  0  0  0  0  0  0  0  0  0  0
   21.8905  -12.4703  -18.0874 O   0  0  0  0  0  0  0  0  0  0  0  0
   20.1172  -17.1473  -15.5222 C   0  0  0  0  0  0  0  0  0  0  0  0
   20.1224  -18.4728  -15.1382 C   0  0  0  0  0  0  0  0  0  0  0  0
   19.6531  -12.7588  -17.9637 N   0  0  0  0  0  0  0  0  0  0  0  0
   19.4269  -11.3269  -18.2969 C   0  0  1  0  0  0  0  0  0  0  0  0
   18.3970  -11.2729  -19.3606 C   0  0  0  0  0  0  0  0  0  0  0  0
   18.0279   -9.9039  -19.7539 C   0  0  0  0  0  0  0  0  0  0  0  0
   18.8864   -9.0144  -19.9447 O   0  0  0  0  0  0  0  0  0  0  0  0
   19.1155  -10.5722  -17.0624 C   0  0  0  0  0  0  0  0  0  0  0  0
   19.5433   -9.2838  -16.8061 O   0  0  0  0  0  0  0  0  0  0  0  0
   16.7054   -9.5377  -19.9309 O   0  0  0  0  0  0  0  0  0  0  0  0
   18.4112  -11.1170  -16.1582 O   0  0  0  0  0  0  0  0  0  0  0  0
  2  1  1  0
  3  2  1  0
  4  5  1  0
  4  3  1  0
  5  6  1  6
  7  8  2  0
  7  5  1  0
  9 10  1  0
 10 11  2  0
 11 12  1  0
 13 12  2  0
 13 14  1  0
 15 14  1  1
 15 16  1  0
 16  7  1  0
 17 21  1  0
 17 15  1  0
 18 17  2  0
 19 13  1  0
 20 10  1  0
 20 19  2  0
 22 21  1  0
 22 26  1  0
 22 23  1  6
 23 24  1  0
 24 25  2  0
 26 27  1  0
 28 24  1  0
 29 26  2  0
M  END
$$$$
