MYD.pdb
     RDKit          3D

 29 29  0  0  1  0  0  0  0  0999 V2000
   28.5372  -24.3634  -19.8896 C   0  0  0  0  0  0  0  0  0  0  0  0
   29.7632  -23.1747  -20.5113 S   0  0  0  0  0  0  0  0  0  0  0  0
   30.0301  -21.8943  -19.2264 C   0  0  0  0  0  0  0  0  0  0  0  0
   29.3827  -22.2976  -17.9423 C   0  0  0  0  0  0  0  0  0  0  0  0
   28.1015  -21.6393  -17.6505 C   0  0  2  0  0  0  0  0  0  0  0  0
   28.1828  -20.2092  -17.9137 N   0  0  0  0  0  0  0  0  0  0  0  0
   27.5360  -21.9118  -16.3118 C   0  0  0  0  0  0  0  0  0  0  0  0
   27.3804  -23.0766  -15.8294 O   0  0  0  0  0  0  0  0  0  0  0  0
   24.8684  -20.7873   -7.8160 O   0  0  0  0  0  0  0  0  0  0  0  0
   25.4103  -20.6640   -9.1112 C   0  0  0  0  0  0  0  0  0  0  0  0
   26.6060  -21.2580   -9.4377 C   0  0  0  0  0  0  0  0  0  0  0  0
   27.1276  -21.1279  -10.7092 C   0  0  0  0  0  0  0  0  0  0  0  0
   26.4824  -20.4064  -11.6972 C   0  0  0  0  0  0  0  0  0  0  0  0
   27.1027  -20.3115  -13.0087 C   0  0  0  0  0  0  0  0  0  0  0  0
   26.5278  -21.0520  -14.1359 C   0  0  2  0  0  0  0  0  0  0  0  0
   27.1087  -20.8505  -15.4402 N   0  0  0  0  0  0  0  0  0  0  0  0
   25.0581  -21.1207  -14.2393 C   0  0  0  0  0  0  0  0  0  0  0  0
   24.4646  -20.2002  -14.8753 O   0  0  0  0  0  0  0  0  0  0  0  0
   25.2849  -19.8244  -11.3357 C   0  0  0  0  0  0  0  0  0  0  0  0
   24.7547  -19.9482  -10.0677 C   0  0  0  0  0  0  0  0  0  0  0  0
   24.2418  -22.1159  -13.6984 N   0  0  0  0  0  0  0  0  0  0  0  0
   22.7595  -22.0213  -13.7768 C   0  0  1  0  0  0  0  0  0  0  0  0
   22.3394  -20.8781  -12.9332 C   0  0  0  0  0  0  0  0  0  0  0  0
   20.8809  -20.6913  -12.8784 C   0  0  0  0  0  0  0  0  0  0  0  0
   20.3484  -19.5732  -13.0536 O   0  0  0  0  0  0  0  0  0  0  0  0
   22.3393  -21.9617  -15.1948 C   0  0  0  0  0  0  0  0  0  0  0  0
   21.0257  -21.8973  -15.6177 O   0  0  0  0  0  0  0  0  0  0  0  0
   20.0283  -21.7522  -12.6287 O   0  0  0  0  0  0  0  0  0  0  0  0
   23.2202  -21.9696  -16.1082 O   0  0  0  0  0  0  0  0  0  0  0  0
  2  1  1  0
  3  2  1  0
  4  5  1  0
  4  3  1  0
  5  6  1  1
  7  8  2  0
  7  5  1  0
  9 10  1  0
 10 11  2  0
 11 12  1  0
 13 12  2  0
 13 14  1  0
 15 14  1  1
 15 16  1  0
 16  7  1  0
 17 21  1  0
 17 15  1  0
 18 17  2  0
 19 13  1  0
 20 10  1  0
 20 19  2  0
 22 21  1  0
 22 26  1  0
 22 23  1  1
 23 24  1  0
 24 25  2  0
 26 27  1  0
 28 24  1  0
 29 26  2  0
M  END
$$$$
