MYD.pdb
     RDKit          3D

 29 29  0  0  1  0  0  0  0  0999 V2000
   15.5103  -14.3401  -14.2859 C   0  0  0  0  0  0  0  0  0  0  0  0
   14.7196  -12.8655  -13.5767 S   0  0  0  0  0  0  0  0  0  0  0  0
   16.0342  -11.7346  -12.9811 C   0  0  0  0  0  0  0  0  0  0  0  0
   15.4350  -10.5155  -12.3602 C   0  0  0  0  0  0  0  0  0  0  0  0
   16.3997   -9.5303  -11.8518 C   0  0  2  0  0  0  0  0  0  0  0  0
   17.3505  -10.1577  -10.9443 N   0  0  0  0  0  0  0  0  0  0  0  0
   15.8113   -8.3098  -11.2598 C   0  0  0  0  0  0  0  0  0  0  0  0
   14.9096   -7.6118  -11.8196 O   0  0  0  0  0  0  0  0  0  0  0  0
   10.0520   -8.9714   -7.0298 O   0  0  0  0  0  0  0  0  0  0  0  0
   11.3354   -8.4371   -7.2615 C   0  0  0  0  0  0  0  0  0  0  0  0
   11.5529   -7.0802   -7.2333 C   0  0  0  0  0  0  0  0  0  0  0  0
   12.8142   -6.5689   -7.4643 C   0  0  0  0  0  0  0  0  0  0  0  0
   13.8995   -7.3840   -7.7300 C   0  0  0  0  0  0  0  0  0  0  0  0
   15.1934   -6.7656   -7.9697 C   0  0  0  0  0  0  0  0  0  0  0  0
   15.6897   -6.6359   -9.3432 C   0  0  2  0  0  0  0  0  0  0  0  0
   16.2310   -7.8125   -9.9772 N   0  0  0  0  0  0  0  0  0  0  0  0
   16.5133   -5.4573   -9.6714 C   0  0  0  0  0  0  0  0  0  0  0  0
   17.6159   -5.3164   -9.0643 O   0  0  0  0  0  0  0  0  0  0  0  0
   13.6460   -8.7400   -7.7500 C   0  0  0  0  0  0  0  0  0  0  0  0
   12.3892   -9.2615   -7.5204 C   0  0  0  0  0  0  0  0  0  0  0  0
   16.1948   -4.4652  -10.6007 N   0  0  0  0  0  0  0  0  0  0  0  0
   17.0788   -3.2856  -10.7995 C   0  0  1  0  0  0  0  0  0  0  0  0
   17.5618   -3.3199  -12.1997 C   0  0  0  0  0  0  0  0  0  0  0  0
   18.3703   -2.1484  -12.5726 C   0  0  0  0  0  0  0  0  0  0  0  0
   18.6518   -1.2482  -11.7511 O   0  0  0  0  0  0  0  0  0  0  0  0
   16.3630   -2.0542  -10.3970 C   0  0  0  0  0  0  0  0  0  0  0  0
   15.0584   -2.0224   -9.9435 O   0  0  0  0  0  0  0  0  0  0  0  0
   18.8579   -1.9901  -13.8578 O   0  0  0  0  0  0  0  0  0  0  0  0
   16.9590   -0.9358  -10.4619 O   0  0  0  0  0  0  0  0  0  0  0  0
  2  1  1  0
  3  2  1  0
  4  5  1  0
  4  3  1  0
  5  6  1  1
  7  8  2  0
  7  5  1  0
  9 10  1  0
 10 11  2  0
 11 12  1  0
 13 12  2  0
 13 14  1  0
 15 14  1  1
 15 16  1  0
 16  7  1  0
 17 21  1  0
 17 15  1  0
 18 17  2  0
 19 13  1  0
 20 10  1  0
 20 19  2  0
 22 21  1  0
 22 26  1  0
 22 23  1  6
 23 24  1  0
 24 25  2  0
 26 27  1  0
 28 24  1  0
 29 26  2  0
M  END
$$$$
