MYD.pdb
     RDKit          3D

 29 29  0  0  1  0  0  0  0  0999 V2000
   28.5796  -26.9103  -16.5298 C   0  0  0  0  0  0  0  0  0  0  0  0
   29.2357  -26.2263  -18.0803 S   0  0  0  0  0  0  0  0  0  0  0  0
   29.0053  -24.4075  -18.0531 C   0  0  0  0  0  0  0  0  0  0  0  0
   28.4037  -23.9750  -16.7563 C   0  0  0  0  0  0  0  0  0  0  0  0
   27.4628  -22.8495  -16.8444 C   0  0  2  0  0  0  0  0  0  0  0  0
   28.1306  -21.6544  -17.3414 N   0  0  0  0  0  0  0  0  0  0  0  0
   26.6916  -22.5666  -15.6149 C   0  0  0  0  0  0  0  0  0  0  0  0
   26.0246  -23.4397  -14.9774 O   0  0  0  0  0  0  0  0  0  0  0  0
   26.9531  -21.1873   -7.4569 O   0  0  0  0  0  0  0  0  0  0  0  0
   26.8365  -20.8696   -8.8251 C   0  0  0  0  0  0  0  0  0  0  0  0
   25.6858  -20.3090   -9.3260 C   0  0  0  0  0  0  0  0  0  0  0  0
   25.5829  -20.0047  -10.6685 C   0  0  0  0  0  0  0  0  0  0  0  0
   26.6151  -20.2451  -11.5572 C   0  0  0  0  0  0  0  0  0  0  0  0
   26.4237  -19.9022  -12.9571 C   0  0  0  0  0  0  0  0  0  0  0  0
   25.8647  -20.8987  -13.8758 C   0  0  2  0  0  0  0  0  0  0  0  0
   26.6385  -21.2488  -15.0410 N   0  0  0  0  0  0  0  0  0  0  0  0
   24.4367  -20.7887  -14.2283 C   0  0  0  0  0  0  0  0  0  0  0  0
   24.1202  -20.0288  -15.1907 O   0  0  0  0  0  0  0  0  0  0  0  0
   27.7551  -20.8074  -11.0209 C   0  0  0  0  0  0  0  0  0  0  0  0
   27.8684  -21.1155   -9.6805 C   0  0  0  0  0  0  0  0  0  0  0  0
   23.3813  -21.4502  -13.5976 N   0  0  0  0  0  0  0  0  0  0  0  0
   21.9697  -21.1972  -13.9924 C   0  0  1  0  0  0  0  0  0  0  0  0
   21.4171  -22.4685  -14.5153 C   0  0  0  0  0  0  0  0  0  0  0  0
   21.1943  -22.4596  -15.9697 C   0  0  0  0  0  0  0  0  0  0  0  0
   21.3929  -21.4390  -16.6649 O   0  0  0  0  0  0  0  0  0  0  0  0
   21.2355  -20.5969  -12.8561 C   0  0  0  0  0  0  0  0  0  0  0  0
   20.1254  -19.7848  -12.9854 O   0  0  0  0  0  0  0  0  0  0  0  0
   20.7519  -23.5882  -16.6370 O   0  0  0  0  0  0  0  0  0  0  0  0
   21.6269  -20.8229  -11.6702 O   0  0  0  0  0  0  0  0  0  0  0  0
  2  1  1  0
  3  2  1  0
  4  5  1  0
  4  3  1  0
  5  6  1  1
  7  8  2  0
  7  5  1  0
  9 10  1  0
 10 11  2  0
 11 12  1  0
 13 12  2  0
 13 14  1  0
 15 14  1  6
 15 16  1  0
 16  7  1  0
 17 21  1  0
 17 15  1  0
 18 17  2  0
 19 13  1  0
 20 10  1  0
 20 19  2  0
 22 21  1  0
 22 26  1  0
 22 23  1  1
 23 24  1  0
 24 25  2  0
 26 27  1  0
 28 24  1  0
 29 26  2  0
M  END
$$$$
