MYD.pdb
     RDKit          3D

 29 29  0  0  1  0  0  0  0  0999 V2000
   26.8393  -16.5728  -15.1236 C   0  0  0  0  0  0  0  0  0  0  0  0
   28.3035  -17.5984  -15.4505 S   0  0  0  0  0  0  0  0  0  0  0  0
   27.7622  -19.1179  -16.3220 C   0  0  0  0  0  0  0  0  0  0  0  0
   26.6332  -19.7673  -15.5909 C   0  0  0  0  0  0  0  0  0  0  0  0
   27.0018  -20.4449  -14.3399 C   0  0  2  0  0  0  0  0  0  0  0  0
   27.9695  -21.5039  -14.5907 N   0  0  0  0  0  0  0  0  0  0  0  0
   25.8700  -20.9290  -13.5207 C   0  0  0  0  0  0  0  0  0  0  0  0
   25.4337  -22.1218  -13.5452 O   0  0  0  0  0  0  0  0  0  0  0  0
   28.3540  -20.3757   -7.0327 O   0  0  0  0  0  0  0  0  0  0  0  0
   27.2438  -20.2618   -7.8934 C   0  0  0  0  0  0  0  0  0  0  0  0
   26.2910  -21.2506   -7.9542 C   0  0  0  0  0  0  0  0  0  0  0  0
   25.2093  -21.1285   -8.8031 C   0  0  0  0  0  0  0  0  0  0  0  0
   25.0364  -20.0244   -9.6180 C   0  0  0  0  0  0  0  0  0  0  0  0
   23.8732  -19.9764  -10.4890 C   0  0  0  0  0  0  0  0  0  0  0  0
   23.9877  -20.4418  -11.8746 C   0  0  2  0  0  0  0  0  0  0  0  0
   25.1633  -20.0609  -12.6176 N   0  0  0  0  0  0  0  0  0  0  0  0
   22.7923  -20.3527  -12.7340 C   0  0  0  0  0  0  0  0  0  0  0  0
   22.8849  -19.6952  -13.8125 O   0  0  0  0  0  0  0  0  0  0  0  0
   26.0103  -19.0512   -9.5312 C   0  0  0  0  0  0  0  0  0  0  0  0
   27.0955  -19.1632   -8.6861 C   0  0  0  0  0  0  0  0  0  0  0  0
   21.5485  -20.9310  -12.4741 N   0  0  0  0  0  0  0  0  0  0  0  0
   20.5547  -21.1380  -13.5612 C   0  0  1  0  0  0  0  0  0  0  0  0
   21.1865  -22.0016  -14.5859 C   0  0  0  0  0  0  0  0  0  0  0  0
   20.2868  -22.3532  -15.6959 C   0  0  0  0  0  0  0  0  0  0  0  0
   20.2591  -23.5025  -16.1885 O   0  0  0  0  0  0  0  0  0  0  0  0
   19.2878  -21.6442  -12.9872 C   0  0  0  0  0  0  0  0  0  0  0  0
   19.2078  -22.6086  -12.0012 O   0  0  0  0  0  0  0  0  0  0  0  0
   19.4259  -21.4209  -16.2474 O   0  0  0  0  0  0  0  0  0  0  0  0
   18.1831  -21.1827  -13.4078 O   0  0  0  0  0  0  0  0  0  0  0  0
  2  1  1  0
  3  2  1  0
  4  5  1  0
  4  3  1  0
  5  6  1  6
  7  8  2  0
  7  5  1  0
  9 10  1  0
 10 11  2  0
 11 12  1  0
 13 12  2  0
 13 14  1  0
 15 14  1  1
 15 16  1  0
 16  7  1  0
 17 21  1  0
 17 15  1  0
 18 17  2  0
 19 13  1  0
 20 10  1  0
 20 19  2  0
 22 21  1  0
 22 26  1  0
 22 23  1  6
 23 24  1  0
 24 25  2  0
 26 27  1  0
 28 24  1  0
 29 26  2  0
M  END
$$$$
