MYD.pdb
     RDKit          3D

 29 29  0  0  1  0  0  0  0  0999 V2000
   28.9770  -14.1623  -15.0354 C   0  0  0  0  0  0  0  0  0  0  0  0
   27.9231  -12.9565  -15.8945 S   0  0  0  0  0  0  0  0  0  0  0  0
   26.1727  -13.3358  -15.5022 C   0  0  0  0  0  0  0  0  0  0  0  0
   25.2734  -12.2684  -16.0340 C   0  0  0  0  0  0  0  0  0  0  0  0
   25.1618  -12.2127  -17.4983 C   0  0  2  0  0  0  0  0  0  0  0  0
   26.4681  -12.0103  -18.1096 N   0  0  0  0  0  0  0  0  0  0  0  0
   24.1641  -11.2568  -18.0249 C   0  0  0  0  0  0  0  0  0  0  0  0
   24.4278  -10.0541  -18.3376 O   0  0  0  0  0  0  0  0  0  0  0  0
   16.5213   -8.2079  -21.7031 O   0  0  0  0  0  0  0  0  0  0  0  0
   17.5902   -8.9825  -21.2095 C   0  0  0  0  0  0  0  0  0  0  0  0
   17.3623  -10.0649  -20.3935 C   0  0  0  0  0  0  0  0  0  0  0  0
   18.4180  -10.8144  -19.9146 C   0  0  0  0  0  0  0  0  0  0  0  0
   19.7318  -10.5168  -20.2281 C   0  0  0  0  0  0  0  0  0  0  0  0
   20.7864  -11.3518  -19.6763 C   0  0  0  0  0  0  0  0  0  0  0  0
   21.7811  -10.7601  -18.7764 C   0  0  2  0  0  0  0  0  0  0  0  0
   22.7892  -11.6297  -18.2224 N   0  0  0  0  0  0  0  0  0  0  0  0
   21.3070   -9.8130  -17.7500 C   0  0  0  0  0  0  0  0  0  0  0  0
   21.1607  -10.2436  -16.5680 O   0  0  0  0  0  0  0  0  0  0  0  0
   19.9243   -9.4252  -21.0495 C   0  0  0  0  0  0  0  0  0  0  0  0
   18.8763   -8.6692  -21.5338 C   0  0  0  0  0  0  0  0  0  0  0  0
   20.9991   -8.4666  -17.9539 N   0  0  0  0  0  0  0  0  0  0  0  0
   20.6293   -7.5818  -16.8168 C   0  0  1  0  0  0  0  0  0  0  0  0
   21.6848   -7.7145  -15.7856 C   0  0  0  0  0  0  0  0  0  0  0  0
   21.1581   -7.8815  -14.4219 C   0  0  0  0  0  0  0  0  0  0  0  0
   19.9308   -7.8838  -14.1807 O   0  0  0  0  0  0  0  0  0  0  0  0
   20.3858   -6.2090  -17.3136 C   0  0  0  0  0  0  0  0  0  0  0  0
   20.0092   -5.1455  -16.5163 O   0  0  0  0  0  0  0  0  0  0  0  0
   22.0035   -8.0443  -13.3387 O   0  0  0  0  0  0  0  0  0  0  0  0
   20.5224   -5.9589  -18.5503 O   0  0  0  0  0  0  0  0  0  0  0  0
  2  1  1  0
  3  2  1  0
  4  5  1  0
  4  3  1  0
  5  6  1  6
  7  8  2  0
  7  5  1  0
  9 10  1  0
 10 11  2  0
 11 12  1  0
 13 12  2  0
 13 14  1  0
 15 14  1  1
 15 16  1  0
 16  7  1  0
 17 21  1  0
 17 15  1  0
 18 17  2  0
 19 13  1  0
 20 10  1  0
 20 19  2  0
 22 21  1  0
 22 26  1  0
 22 23  1  1
 23 24  1  0
 24 25  2  0
 26 27  1  0
 28 24  1  0
 29 26  2  0
M  END
$$$$
