MYD.pdb
     RDKit          3D

 29 29  0  0  1  0  0  0  0  0999 V2000
   26.3780  -15.9347  -16.9773 C   0  0  0  0  0  0  0  0  0  0  0  0
   27.8650  -16.8117  -17.5451 S   0  0  0  0  0  0  0  0  0  0  0  0
   28.2595  -18.1273  -16.3305 C   0  0  0  0  0  0  0  0  0  0  0  0
   27.1078  -19.0668  -16.1832 C   0  0  0  0  0  0  0  0  0  0  0  0
   27.2740  -20.1093  -15.1606 C   0  0  2  0  0  0  0  0  0  0  0  0
   28.5337  -20.8171  -15.3432 N   0  0  0  0  0  0  0  0  0  0  0  0
   26.1410  -21.0487  -15.0192 C   0  0  0  0  0  0  0  0  0  0  0  0
   26.1908  -22.2763  -15.3420 O   0  0  0  0  0  0  0  0  0  0  0  0
   26.5246  -19.9886   -8.1384 O   0  0  0  0  0  0  0  0  0  0  0  0
   25.9914  -20.5774   -9.3026 C   0  0  0  0  0  0  0  0  0  0  0  0
   24.6351  -20.7394   -9.4565 C   0  0  0  0  0  0  0  0  0  0  0  0
   24.1252  -21.3198  -10.6005 C   0  0  0  0  0  0  0  0  0  0  0  0
   24.9410  -21.7577  -11.6279 C   0  0  0  0  0  0  0  0  0  0  0  0
   24.3249  -22.3652  -12.7964 C   0  0  0  0  0  0  0  0  0  0  0  0
   23.8950  -21.5156  -13.9112 C   0  0  2  0  0  0  0  0  0  0  0  0
   24.8693  -20.6277  -14.4956 N   0  0  0  0  0  0  0  0  0  0  0  0
   22.5910  -20.8357  -13.7983 C   0  0  0  0  0  0  0  0  0  0  0  0
   22.5772  -19.5697  -13.8329 O   0  0  0  0  0  0  0  0  0  0  0  0
   26.2962  -21.5791  -11.4411 C   0  0  0  0  0  0  0  0  0  0  0  0
   26.8164  -21.0001  -10.3016 C   0  0  0  0  0  0  0  0  0  0  0  0
   21.3494  -21.4580  -13.6559 N   0  0  0  0  0  0  0  0  0  0  0  0
   20.1211  -20.8689  -14.2533 C   0  0  1  0  0  0  0  0  0  0  0  0
   20.5394  -19.7286  -15.1018 C   0  0  0  0  0  0  0  0  0  0  0  0
   19.5013  -18.6972  -15.2555 C   0  0  0  0  0  0  0  0  0  0  0  0
   18.4005  -18.7712  -14.6664 O   0  0  0  0  0  0  0  0  0  0  0  0
   19.3439  -21.9270  -14.9369 C   0  0  0  0  0  0  0  0  0  0  0  0
   19.7431  -22.5632  -16.0964 O   0  0  0  0  0  0  0  0  0  0  0  0
   19.6989  -17.5922  -16.0646 O   0  0  0  0  0  0  0  0  0  0  0  0
   18.2312  -22.2969  -14.4516 O   0  0  0  0  0  0  0  0  0  0  0  0
  2  1  1  0
  3  2  1  0
  4  5  1  0
  4  3  1  0
  5  6  1  6
  7  8  2  0
  7  5  1  0
  9 10  1  0
 10 11  2  0
 11 12  1  0
 13 12  2  0
 13 14  1  0
 15 14  1  1
 15 16  1  0
 16  7  1  0
 17 21  1  0
 17 15  1  0
 18 17  2  0
 19 13  1  0
 20 10  1  0
 20 19  2  0
 22 21  1  0
 22 26  1  0
 22 23  1  6
 23 24  1  0
 24 25  2  0
 26 27  1  0
 28 24  1  0
 29 26  2  0
M  END
$$$$
