MYD.pdb
     RDKit          3D

 29 29  0  0  1  0  0  0  0  0999 V2000
   27.0266  -18.5727  -16.2277 C   0  0  0  0  0  0  0  0  0  0  0  0
   26.9781  -16.7872  -16.5625 S   0  0  0  0  0  0  0  0  0  0  0  0
   26.5578  -15.9180  -15.0038 C   0  0  0  0  0  0  0  0  0  0  0  0
   26.5509  -14.4393  -15.2139 C   0  0  0  0  0  0  0  0  0  0  0  0
   25.2513  -13.8638  -15.5879 C   0  0  2  0  0  0  0  0  0  0  0  0
   24.7640  -14.4492  -16.8292 N   0  0  0  0  0  0  0  0  0  0  0  0
   25.1970  -12.3867  -15.6283 C   0  0  0  0  0  0  0  0  0  0  0  0
   25.6073  -11.6343  -14.6906 O   0  0  0  0  0  0  0  0  0  0  0  0
   30.9110  -11.2084  -18.4255 O   0  0  0  0  0  0  0  0  0  0  0  0
   29.5583  -10.8291  -18.3127 C   0  0  0  0  0  0  0  0  0  0  0  0
   29.2001   -9.6664  -17.6730 C   0  0  0  0  0  0  0  0  0  0  0  0
   27.8715   -9.3070  -17.5670 C   0  0  0  0  0  0  0  0  0  0  0  0
   26.8560  -10.0864  -18.0905 C   0  0  0  0  0  0  0  0  0  0  0  0
   25.4815   -9.6405  -17.9295 C   0  0  0  0  0  0  0  0  0  0  0  0
   24.6427  -10.2436  -16.8893 C   0  0  2  0  0  0  0  0  0  0  0  0
   24.6596  -11.6796  -16.7596 N   0  0  0  0  0  0  0  0  0  0  0  0
   23.2674   -9.7351  -16.7302 C   0  0  0  0  0  0  0  0  0  0  0  0
   22.3645  -10.2249  -17.4711 O   0  0  0  0  0  0  0  0  0  0  0  0
   27.2507  -11.2454  -18.7263 C   0  0  0  0  0  0  0  0  0  0  0  0
   28.5759  -11.6140  -18.8379 C   0  0  0  0  0  0  0  0  0  0  0  0
   22.8537   -8.7524  -15.8288 N   0  0  0  0  0  0  0  0  0  0  0  0
   21.4293   -8.3312  -15.7509 C   0  0  1  0  0  0  0  0  0  0  0  0
   20.6188   -9.5428  -15.4859 C   0  0  0  0  0  0  0  0  0  0  0  0
   19.1947   -9.2584  -15.2491 C   0  0  0  0  0  0  0  0  0  0  0  0
   18.5874   -8.3552  -15.8654 O   0  0  0  0  0  0  0  0  0  0  0  0
   21.2878   -7.2357  -14.7658 C   0  0  0  0  0  0  0  0  0  0  0  0
   22.3276   -6.7213  -14.0155 O   0  0  0  0  0  0  0  0  0  0  0  0
   18.4597   -9.9828  -14.3274 O   0  0  0  0  0  0  0  0  0  0  0  0
   20.1478   -6.7128  -14.5726 O   0  0  0  0  0  0  0  0  0  0  0  0
  2  1  1  0
  3  2  1  0
  4  5  1  0
  4  3  1  0
  5  6  1  6
  7  8  2  0
  7  5  1  0
  9 10  1  0
 10 11  2  0
 11 12  1  0
 13 12  2  0
 13 14  1  0
 15 14  1  6
 15 16  1  0
 16  7  1  0
 17 21  1  0
 17 15  1  0
 18 17  2  0
 19 13  1  0
 20 10  1  0
 20 19  2  0
 22 21  1  0
 22 26  1  0
 22 23  1  1
 23 24  1  0
 24 25  2  0
 26 27  1  0
 28 24  1  0
 29 26  2  0
M  END
$$$$
