MYD.pdb
     RDKit          3D

 29 29  0  0  1  0  0  0  0  0999 V2000
   17.5131  -16.0092  -17.1425 C   0  0  0  0  0  0  0  0  0  0  0  0
   18.4182  -15.4541  -18.6174 S   0  0  0  0  0  0  0  0  0  0  0  0
   20.1839  -15.2477  -18.1684 C   0  0  0  0  0  0  0  0  0  0  0  0
   20.3498  -14.1247  -17.1977 C   0  0  0  0  0  0  0  0  0  0  0  0
   20.0713  -12.7848  -17.7333 C   0  0  2  0  0  0  0  0  0  0  0  0
   20.9328  -12.4927  -18.8707 N   0  0  0  0  0  0  0  0  0  0  0  0
   20.0913  -11.6866  -16.7433 C   0  0  0  0  0  0  0  0  0  0  0  0
   19.3812  -11.6659  -15.6902 O   0  0  0  0  0  0  0  0  0  0  0  0
   22.4088   -3.6504  -13.3066 O   0  0  0  0  0  0  0  0  0  0  0  0
   22.3573   -4.9323  -13.8899 C   0  0  0  0  0  0  0  0  0  0  0  0
   22.0426   -6.0397  -13.1388 C   0  0  0  0  0  0  0  0  0  0  0  0
   21.9978   -7.2904  -13.7214 C   0  0  0  0  0  0  0  0  0  0  0  0
   22.2626   -7.4846  -15.0649 C   0  0  0  0  0  0  0  0  0  0  0  0
   22.2015   -8.8354  -15.5992 C   0  0  0  0  0  0  0  0  0  0  0  0
   20.9150   -9.3794  -16.0448 C   0  0  2  0  0  0  0  0  0  0  0  0
   20.9352  -10.5338  -16.9085 N   0  0  0  0  0  0  0  0  0  0  0  0
   19.8807   -8.4279  -16.4922 C   0  0  0  0  0  0  0  0  0  0  0  0
   19.8329   -8.1399  -17.7246 O   0  0  0  0  0  0  0  0  0  0  0  0
   22.5740   -6.3522  -15.7890 C   0  0  0  0  0  0  0  0  0  0  0  0
   22.6215   -5.0974  -15.2166 C   0  0  0  0  0  0  0  0  0  0  0  0
   18.9323   -7.8032  -15.6801 N   0  0  0  0  0  0  0  0  0  0  0  0
   17.9759   -6.8104  -16.2389 C   0  0  1  0  0  0  0  0  0  0  0  0
   16.6067   -7.3088  -15.9707 C   0  0  0  0  0  0  0  0  0  0  0  0
   15.5481   -6.3760  -16.3883 C   0  0  0  0  0  0  0  0  0  0  0  0
   15.7530   -5.4746  -17.2309 O   0  0  0  0  0  0  0  0  0  0  0  0
   18.2861   -5.4656  -15.7043 C   0  0  0  0  0  0  0  0  0  0  0  0
   18.3819   -5.1630  -14.3597 O   0  0  0  0  0  0  0  0  0  0  0  0
   14.2705   -6.4555  -15.8630 O   0  0  0  0  0  0  0  0  0  0  0  0
   18.4814   -4.5035  -16.5085 O   0  0  0  0  0  0  0  0  0  0  0  0
  2  1  1  0
  3  2  1  0
  4  5  1  0
  4  3  1  0
  5  6  1  6
  7  8  2  0
  7  5  1  0
  9 10  1  0
 10 11  2  0
 11 12  1  0
 13 12  2  0
 13 14  1  0
 15 14  1  6
 15 16  1  0
 16  7  1  0
 17 21  1  0
 17 15  1  0
 18 17  2  0
 19 13  1  0
 20 10  1  0
 20 19  2  0
 22 21  1  0
 22 26  1  0
 22 23  1  1
 23 24  1  0
 24 25  2  0
 26 27  1  0
 28 24  1  0
 29 26  2  0
M  END
$$$$
