MYD.pdb
     RDKit          3D

 29 29  0  0  1  0  0  0  0  0999 V2000
   32.7281  -12.6946  -18.1186 C   0  0  0  0  0  0  0  0  0  0  0  0
   31.4079  -13.5831  -18.9963 S   0  0  0  0  0  0  0  0  0  0  0  0
   29.8626  -13.4328  -18.0208 C   0  0  0  0  0  0  0  0  0  0  0  0
   28.7059  -13.9919  -18.7824 C   0  0  0  0  0  0  0  0  0  0  0  0
   28.9045  -15.3435  -19.3242 C   0  0  2  0  0  0  0  0  0  0  0  0
   30.0957  -15.3960  -20.1604 N   0  0  0  0  0  0  0  0  0  0  0  0
   27.7349  -15.9323  -20.0111 C   0  0  0  0  0  0  0  0  0  0  0  0
   27.6010  -15.9789  -21.2735 O   0  0  0  0  0  0  0  0  0  0  0  0
   21.3634  -20.9793  -23.1556 O   0  0  0  0  0  0  0  0  0  0  0  0
   22.4375  -20.2245  -22.6428 C   0  0  0  0  0  0  0  0  0  0  0  0
   23.3475  -20.7850  -21.7785 C   0  0  0  0  0  0  0  0  0  0  0  0
   24.3940  -20.0346  -21.2812 C   0  0  0  0  0  0  0  0  0  0  0  0
   24.5729  -18.7065  -21.6234 C   0  0  0  0  0  0  0  0  0  0  0  0
   25.6967  -17.9842  -21.0496 C   0  0  0  0  0  0  0  0  0  0  0  0
   25.4805  -17.1126  -19.8907 C   0  0  2  0  0  0  0  0  0  0  0  0
   26.6371  -16.5056  -19.2799 N   0  0  0  0  0  0  0  0  0  0  0  0
   24.5365  -17.5661  -18.8522 C   0  0  0  0  0  0  0  0  0  0  0  0
   24.9911  -17.7784  -17.6893 O   0  0  0  0  0  0  0  0  0  0  0  0
   23.6423  -18.1762  -22.4929 C   0  0  0  0  0  0  0  0  0  0  0  0
   22.5926  -18.9174  -22.9960 C   0  0  0  0  0  0  0  0  0  0  0  0
   23.1689  -17.7874  -19.0250 N   0  0  0  0  0  0  0  0  0  0  0  0
   22.3249  -18.2929  -17.9093 C   0  0  1  0  0  0  0  0  0  0  0  0
   22.1988  -17.2022  -16.9146 C   0  0  0  0  0  0  0  0  0  0  0  0
   21.3252  -17.5386  -15.7794 C   0  0  0  0  0  0  0  0  0  0  0  0
   20.8259  -18.6771  -15.6414 O   0  0  0  0  0  0  0  0  0  0  0  0
   21.0516  -18.8207  -18.4487 C   0  0  0  0  0  0  0  0  0  0  0  0
   20.6852  -18.7662  -19.7796 O   0  0  0  0  0  0  0  0  0  0  0  0
   21.0154  -16.6035  -14.8077 O   0  0  0  0  0  0  0  0  0  0  0  0
   20.2179  -19.3650  -17.6619 O   0  0  0  0  0  0  0  0  0  0  0  0
  2  1  1  0
  3  2  1  0
  4  5  1  0
  4  3  1  0
  5  6  1  6
  7  8  2  0
  7  5  1  0
  9 10  1  0
 10 11  2  0
 11 12  1  0
 13 12  2  0
 13 14  1  0
 15 14  1  1
 15 16  1  0
 16  7  1  0
 17 21  1  0
 17 15  1  0
 18 17  2  0
 19 13  1  0
 20 10  1  0
 20 19  2  0
 22 21  1  0
 22 26  1  0
 22 23  1  1
 23 24  1  0
 24 25  2  0
 26 27  1  0
 28 24  1  0
 29 26  2  0
M  END
$$$$
