QRH.pdb
     RDKit          3D

 31 31  0  0  1  0  0  0  0  0999 V2000
    5.1129  -20.8879   25.0010 N   0  0  0  0  0  0  0  0  0  0  0  0
    6.5257  -21.0573   24.8790 C   0  0  0  0  0  0  0  0  0  0  0  0
    7.1032  -21.8601   25.6400 O   0  0  0  0  0  0  0  0  0  0  0  0
    7.3085  -20.2998   23.8710 C   0  0  0  0  0  0  0  0  0  0  0  0
    6.3827  -19.4263   23.0802 C   0  0  0  0  0  0  0  0  0  0  0  0
    6.8004  -19.3058   21.6277 C   0  0  2  0  0  0  0  0  0  0  0  0
    7.2734  -20.5486   21.0913 N   0  0  0  0  0  0  0  0  0  0  0  0
    7.9591  -18.3429   21.6306 C   0  0  0  0  0  0  0  0  0  0  0  0
    9.1348  -18.7459   21.8011 O   0  0  0  0  0  0  0  0  0  0  0  0
    7.1887  -13.6816   15.3858 N   0  0  0  0  0  0  0  0  0  0  0  0
    7.6921  -13.6791   16.7136 C   0  0  0  0  0  0  0  0  0  0  0  0
    8.9174  -14.0409   16.9495 N   0  0  0  0  0  0  0  0  0  0  0  0
    6.8557  -13.2820   17.7909 N   0  0  0  0  0  0  0  0  0  0  0  0
    7.3643  -13.2567   19.1440 C   0  0  0  0  0  0  0  0  0  0  0  0
    7.8587  -14.6205   19.5646 C   0  0  0  0  0  0  0  0  0  0  0  0
    8.2981  -14.6657   21.0052 C   0  0  0  0  0  0  0  0  0  0  0  0
    8.8085  -15.9727   21.4227 C   0  0  2  0  0  0  0  0  0  0  0  0
    7.7520  -16.9535   21.4397 N   0  0  0  0  0  0  0  0  0  0  0  0
    9.5049  -16.0055   22.7215 C   0  0  0  0  0  0  0  0  0  0  0  0
    8.8105  -16.1265   23.7592 O   0  0  0  0  0  0  0  0  0  0  0  0
    9.3637  -13.9548   17.8728 N   0  0  0  0  0  0  0  0  0  0  0  0
   10.9021  -15.9097   22.8701 C   0  0  1  0  0  0  0  0  0  0  0  0
   11.5977  -15.9736   24.1642 C   0  0  0  0  0  0  0  0  0  0  0  0
   11.4968  -17.3155   24.7763 C   0  0  0  0  0  0  0  0  0  0  0  0
   10.2606  -17.4584   25.5680 C   0  0  0  0  0  0  0  0  0  0  0  0
    9.2417  -16.5673   25.8021 N   0  0  0  0  0  0  0  0  0  0  0  0
    8.2608  -17.1654   26.5052 C   0  0  0  0  0  0  0  0  0  0  0  0
    8.6317  -18.4293   26.7262 N   0  0  0  0  0  0  0  0  0  0  0  0
    9.8329  -18.6208   26.1679 C   0  0  0  0  0  0  0  0  0  0  0  0
   13.0500  -15.7255   23.8829 O   0  0  0  0  0  0  0  0  0  0  0  0
   13.9945  -15.7047   24.8387 O   0  0  0  0  0  0  0  0  0  0  0  0
  2  3  2  0
  2  1  1  0
  4  2  1  0
  5  4  1  0
  6  5  1  0
  6  7  1  1
  8  9  2  0
  8  6  1  0
 10 11  1  0
 11 12  2  0
 13 11  1  0
 13 14  1  0
 14 15  1  0
 15 16  1  0
 17 16  1  1
 17 18  1  0
 18  8  1  0
 19 21  1  0
 19 17  1  0
 20 19  2  0
 22 21  1  0
 22 29  1  0
 23 24  1  0
 22 23  1  1
 24 25  2  0
 25 26  1  0
 27 26  1  0
 28 24  1  0
 28 27  2  0
 29 30  1  0
 31 29  2  0
M  END
$$$$
