QRH.pdb
     RDKit          3D

 31 31  0  0  1  0  0  0  0  0999 V2000
    6.8668  -12.2829   17.6414 N   0  0  0  0  0  0  0  0  0  0  0  0
    7.1993  -13.4800   16.9372 C   0  0  0  0  0  0  0  0  0  0  0  0
    6.9136  -13.5641   15.7254 O   0  0  0  0  0  0  0  0  0  0  0  0
    7.8724  -14.6135   17.6190 C   0  0  0  0  0  0  0  0  0  0  0  0
    7.9773  -14.3176   19.0841 C   0  0  0  0  0  0  0  0  0  0  0  0
    9.3925  -14.4719   19.6059 C   0  0  2  0  0  0  0  0  0  0  0  0
   10.2374  -15.1807   18.6897 N   0  0  0  0  0  0  0  0  0  0  0  0
    9.2635  -15.3144   20.8483 C   0  0  0  0  0  0  0  0  0  0  0  0
    8.4370  -15.0217   21.7456 O   0  0  0  0  0  0  0  0  0  0  0  0
    9.4170  -20.9792   16.9577 N   0  0  0  0  0  0  0  0  0  0  0  0
    9.3534  -20.9271   18.3754 C   0  0  0  0  0  0  0  0  0  0  0  0
    8.2036  -20.8636   18.9768 N   0  0  0  0  0  0  0  0  0  0  0  0
   10.5490  -20.9426   19.1423 N   0  0  0  0  0  0  0  0  0  0  0  0
   10.5000  -20.8045   20.5806 C   0  0  0  0  0  0  0  0  0  0  0  0
    9.7696  -19.5445   20.9811 C   0  0  0  0  0  0  0  0  0  0  0  0
   10.5942  -18.6453   21.8653 C   0  0  0  0  0  0  0  0  0  0  0  0
    9.9539  -17.3617   22.1577 C   0  0  2  0  0  0  0  0  0  0  0  0
   10.0733  -16.4627   21.0370 N   0  0  0  0  0  0  0  0  0  0  0  0
   10.4256  -16.6700   23.3710 C   0  0  0  0  0  0  0  0  0  0  0  0
   11.5931  -16.2112   23.3710 O   0  0  0  0  0  0  0  0  0  0  0  0
    8.1006  -20.8752   20.0007 N   0  0  0  0  0  0  0  0  0  0  0  0
    9.6467  -16.4918   24.5307 C   0  0  2  0  0  0  0  0  0  0  0  0
   10.1531  -15.9014   25.7788 C   0  0  0  0  0  0  0  0  0  0  0  0
    9.0649  -15.6439   26.7457 C   0  0  0  0  0  0  0  0  0  0  0  0
    9.5725  -15.0100   27.9768 C   0  0  0  0  0  0  0  0  0  0  0  0
   10.0530  -13.7417   28.1959 N   0  0  0  0  0  0  0  0  0  0  0  0
   10.3133  -13.5690   29.5060 C   0  0  0  0  0  0  0  0  0  0  0  0
   10.0061  -14.7066   30.1349 N   0  0  0  0  0  0  0  0  0  0  0  0
    9.5587  -15.5831   29.2279 C   0  0  0  0  0  0  0  0  0  0  0  0
   11.0609  -16.9221   26.3984 O   0  0  0  0  0  0  0  0  0  0  0  0
   10.7074  -18.2040   26.5929 O   0  0  0  0  0  0  0  0  0  0  0  0
  2  3  2  0
  2  1  1  0
  4  2  1  0
  5  4  1  0
  6  5  1  0
  6  7  1  6
  8  9  2  0
  8  6  1  0
 10 11  1  0
 11 12  2  0
 13 11  1  0
 13 14  1  0
 14 15  1  0
 15 16  1  0
 17 16  1  6
 17 18  1  0
 18  8  1  0
 19 21  1  0
 19 17  1  0
 20 19  2  0
 22 21  1  0
 22 29  1  0
 23 24  1  0
 22 23  1  6
 24 25  2  0
 25 26  1  0
 27 26  1  0
 28 24  1  0
 28 27  2  0
 29 30  1  0
 31 29  2  0
M  END
$$$$
