QRH.pdb
     RDKit          3D

 31 31  0  0  1  0  0  0  0  0999 V2000
    6.7143  -12.8840   17.6256 N   0  0  0  0  0  0  0  0  0  0  0  0
    7.7983  -13.6861   17.1556 C   0  0  0  0  0  0  0  0  0  0  0  0
    7.6949  -14.2462   16.0453 O   0  0  0  0  0  0  0  0  0  0  0  0
    9.0328  -13.8614   17.9605 C   0  0  0  0  0  0  0  0  0  0  0  0
    8.8614  -13.1797   19.2839 C   0  0  0  0  0  0  0  0  0  0  0  0
   10.0641  -13.3621   20.1889 C   0  0  2  0  0  0  0  0  0  0  0  0
   11.2288  -13.7881   19.4692 N   0  0  0  0  0  0  0  0  0  0  0  0
    9.6817  -14.4737   21.1314 C   0  0  0  0  0  0  0  0  0  0  0  0
    8.5407  -14.5174   21.6510 O   0  0  0  0  0  0  0  0  0  0  0  0
   11.0161  -21.8475   21.2214 N   0  0  0  0  0  0  0  0  0  0  0  0
   10.4901  -21.6130   19.9233 C   0  0  0  0  0  0  0  0  0  0  0  0
    9.9202  -22.5769   19.2644 N   0  0  0  0  0  0  0  0  0  0  0  0
   10.5870  -20.3220   19.3388 N   0  0  0  0  0  0  0  0  0  0  0  0
   11.2635  -19.2504   20.0347 C   0  0  0  0  0  0  0  0  0  0  0  0
   10.5235  -18.8679   21.2946 C   0  0  0  0  0  0  0  0  0  0  0  0
   11.1888  -17.7444   22.0466 C   0  0  0  0  0  0  0  0  0  0  0  0
   10.2995  -16.6146   22.3219 C   0  0  2  0  0  0  0  0  0  0  0  0
   10.6019  -15.5020   21.4563 N   0  0  0  0  0  0  0  0  0  0  0  0
   10.2803  -16.1370   23.7164 C   0  0  0  0  0  0  0  0  0  0  0  0
   11.1830  -15.3456   24.0804 O   0  0  0  0  0  0  0  0  0  0  0  0
    9.5344  -22.4623   18.3173 N   0  0  0  0  0  0  0  0  0  0  0  0
    9.3110  -16.5139   24.6660 C   0  0  2  0  0  0  0  0  0  0  0  0
    9.2961  -16.0404   26.0583 C   0  0  0  0  0  0  0  0  0  0  0  0
    7.9199  -15.8010   26.5423 C   0  0  0  0  0  0  0  0  0  0  0  0
    7.4199  -14.4788   26.1216 C   0  0  0  0  0  0  0  0  0  0  0  0
    8.0444  -13.4632   25.4391 N   0  0  0  0  0  0  0  0  0  0  0  0
    7.1674  -12.4730   25.1853 C   0  0  0  0  0  0  0  0  0  0  0  0
    5.9864  -12.8360   25.6927 N   0  0  0  0  0  0  0  0  0  0  0  0
    6.1224  -14.0410   26.2591 C   0  0  0  0  0  0  0  0  0  0  0  0
    9.8709  -17.1461   26.8931 O   0  0  0  0  0  0  0  0  0  0  0  0
   10.1689  -17.0093   28.1964 O   0  0  0  0  0  0  0  0  0  0  0  0
  2  3  2  0
  2  1  1  0
  4  2  1  0
  5  4  1  0
  6  5  1  0
  6  7  1  6
  8  9  2  0
  8  6  1  0
 10 11  1  0
 11 12  2  0
 13 11  1  0
 13 14  1  0
 14 15  1  0
 15 16  1  0
 17 16  1  1
 17 18  1  0
 18  8  1  0
 19 21  1  0
 19 17  1  0
 20 19  2  0
 22 21  1  0
 22 29  1  0
 23 24  1  0
 22 23  1  6
 24 25  2  0
 25 26  1  0
 27 26  1  0
 28 24  1  0
 28 27  2  0
 29 30  1  0
 31 29  2  0
M  END
$$$$
