QRH.pdb
     RDKit          3D

 31 31  0  0  1  0  0  0  0  0999 V2000
   16.0776  -14.7839   20.1715 N   0  0  0  0  0  0  0  0  0  0  0  0
   15.1955  -14.9068   19.0552 C   0  0  0  0  0  0  0  0  0  0  0  0
   15.0288  -13.9207   18.3089 O   0  0  0  0  0  0  0  0  0  0  0  0
   14.4814  -16.1770   18.7735 C   0  0  0  0  0  0  0  0  0  0  0  0
   13.4738  -16.4281   19.8537 C   0  0  0  0  0  0  0  0  0  0  0  0
   12.0657  -16.0600   19.4287 C   0  0  2  0  0  0  0  0  0  0  0  0
   12.0508  -15.1097   18.3552 N   0  0  0  0  0  0  0  0  0  0  0  0
   11.4533  -15.3933   20.6330 C   0  0  0  0  0  0  0  0  0  0  0  0
   12.1451  -14.6814   21.4000 O   0  0  0  0  0  0  0  0  0  0  0  0
    8.2978  -14.4219   16.1635 N   0  0  0  0  0  0  0  0  0  0  0  0
    7.9129  -13.7260   17.3400 C   0  0  0  0  0  0  0  0  0  0  0  0
    8.2311  -12.4759   17.4944 N   0  0  0  0  0  0  0  0  0  0  0  0
    7.1787  -14.3959   18.3549 N   0  0  0  0  0  0  0  0  0  0  0  0
    6.8743  -13.7298   19.6014 C   0  0  0  0  0  0  0  0  0  0  0  0
    8.1141  -13.5692   20.4489 C   0  0  0  0  0  0  0  0  0  0  0  0
    8.0979  -14.4364   21.6810 C   0  0  0  0  0  0  0  0  0  0  0  0
    9.4182  -14.9424   22.0604 C   0  0  2  0  0  0  0  0  0  0  0  0
   10.0766  -15.5521   20.9321 N   0  0  0  0  0  0  0  0  0  0  0  0
    9.4432  -15.8887   23.1904 C   0  0  0  0  0  0  0  0  0  0  0  0
    9.4172  -17.1159   22.9317 O   0  0  0  0  0  0  0  0  0  0  0  0
    7.9818  -11.9289   18.3297 N   0  0  0  0  0  0  0  0  0  0  0  0
    9.4949  -15.5006   24.5433 C   0  0  1  0  0  0  0  0  0  0  0  0
    9.3125  -16.4259   25.6717 C   0  0  0  0  0  0  0  0  0  0  0  0
    8.1628  -17.3307   25.4596 C   0  0  0  0  0  0  0  0  0  0  0  0
    8.0153  -18.2892   26.5709 C   0  0  0  0  0  0  0  0  0  0  0  0
    8.6710  -18.3681   27.7756 N   0  0  0  0  0  0  0  0  0  0  0  0
    8.1378  -19.3518   28.5252 C   0  0  0  0  0  0  0  0  0  0  0  0
    7.1472  -19.9072   27.8222 N   0  0  0  0  0  0  0  0  0  0  0  0
    7.0611  -19.2782   26.6441 C   0  0  0  0  0  0  0  0  0  0  0  0
   10.5428  -17.2820   25.7273 O   0  0  0  0  0  0  0  0  0  0  0  0
   11.4997  -17.2623   24.7839 O   0  0  0  0  0  0  0  0  0  0  0  0
  2  3  2  0
  2  1  1  0
  4  2  1  0
  5  4  1  0
  6  5  1  0
  6  7  1  6
  8  9  2  0
  8  6  1  0
 10 11  1  0
 11 12  2  0
 13 11  1  0
 13 14  1  0
 14 15  1  0
 15 16  1  0
 17 16  1  6
 17 18  1  0
 18  8  1  0
 19 21  1  0
 19 17  1  0
 20 19  2  0
 22 21  1  0
 22 29  1  0
 23 24  1  0
 22 23  1  1
 24 25  2  0
 25 26  1  0
 27 26  1  0
 28 24  1  0
 28 27  2  0
 29 30  1  0
 31 29  2  0
M  END
$$$$
