QRH.pdb
     RDKit          3D

 31 31  0  0  1  0  0  0  0  0999 V2000
    6.8647  -18.5618   28.9721 N   0  0  0  0  0  0  0  0  0  0  0  0
    7.3866  -19.7994   28.4871 C   0  0  0  0  0  0  0  0  0  0  0  0
    7.7493  -20.6634   29.3111 O   0  0  0  0  0  0  0  0  0  0  0  0
    7.5029  -20.0695   27.0323 C   0  0  0  0  0  0  0  0  0  0  0  0
    7.0863  -18.8498   26.2680 C   0  0  0  0  0  0  0  0  0  0  0  0
    6.5375  -19.1865   24.8953 C   0  0  2  0  0  0  0  0  0  0  0  0
    6.6830  -20.5766   24.5756 N   0  0  0  0  0  0  0  0  0  0  0  0
    7.3910  -18.4071   23.9288 C   0  0  0  0  0  0  0  0  0  0  0  0
    8.5048  -18.8441   23.5516 O   0  0  0  0  0  0  0  0  0  0  0  0
    8.6851  -14.7339   17.9909 N   0  0  0  0  0  0  0  0  0  0  0  0
    7.9137  -13.5617   18.2091 C   0  0  0  0  0  0  0  0  0  0  0  0
    8.2286  -12.4510   17.6133 N   0  0  0  0  0  0  0  0  0  0  0  0
    6.7941  -13.5992   19.0825 N   0  0  0  0  0  0  0  0  0  0  0  0
    6.9371  -13.2368   20.4748 C   0  0  0  0  0  0  0  0  0  0  0  0
    7.7958  -14.2374   21.2115 C   0  0  0  0  0  0  0  0  0  0  0  0
    6.9900  -15.1980   22.0471 C   0  0  0  0  0  0  0  0  0  0  0  0
    7.7905  -16.2633   22.6533 C   0  0  2  0  0  0  0  0  0  0  0  0
    6.9577  -17.1575   23.4184 N   0  0  0  0  0  0  0  0  0  0  0  0
    8.9125  -15.8209   23.5008 C   0  0  0  0  0  0  0  0  0  0  0  0
    8.6487  -15.1293   24.5135 O   0  0  0  0  0  0  0  0  0  0  0  0
    7.7322  -11.5639   17.7737 N   0  0  0  0  0  0  0  0  0  0  0  0
   10.2631  -16.1269   23.2445 C   0  0  1  0  0  0  0  0  0  0  0  0
   11.3781  -15.7166   24.1112 C   0  0  0  0  0  0  0  0  0  0  0  0
   11.3336  -16.3975   25.4226 C   0  0  0  0  0  0  0  0  0  0  0  0
   10.5980  -15.6008   26.4224 C   0  0  0  0  0  0  0  0  0  0  0  0
    9.8324  -14.4696   26.2755 N   0  0  0  0  0  0  0  0  0  0  0  0
    9.2671  -14.1415   27.4531 C   0  0  0  0  0  0  0  0  0  0  0  0
    9.6558  -15.0452   28.3565 N   0  0  0  0  0  0  0  0  0  0  0  0
   10.4568  -15.9301   27.7511 C   0  0  0  0  0  0  0  0  0  0  0  0
   12.6378  -16.1587   23.4275 O   0  0  0  0  0  0  0  0  0  0  0  0
   13.8675  -15.8802   23.8924 O   0  0  0  0  0  0  0  0  0  0  0  0
  2  3  2  0
  2  1  1  0
  4  2  1  0
  5  4  1  0
  6  5  1  0
  6  7  1  6
  8  9  2  0
  8  6  1  0
 10 11  1  0
 11 12  2  0
 13 11  1  0
 13 14  1  0
 14 15  1  0
 15 16  1  0
 17 16  1  1
 17 18  1  0
 18  8  1  0
 19 21  1  0
 19 17  1  0
 20 19  2  0
 22 21  1  0
 22 29  1  0
 23 24  1  0
 22 23  1  6
 24 25  2  0
 25 26  1  0
 27 26  1  0
 28 24  1  0
 28 27  2  0
 29 30  1  0
 31 29  2  0
M  END
$$$$
