QRH.pdb
     RDKit          3D

 31 31  0  0  1  0  0  0  0  0999 V2000
   16.3304  -13.3991   18.0125 N   0  0  0  0  0  0  0  0  0  0  0  0
   15.4272  -14.1556   17.2056 C   0  0  0  0  0  0  0  0  0  0  0  0
   15.1223  -13.7221   16.0759 O   0  0  0  0  0  0  0  0  0  0  0  0
   14.8516  -15.4362   17.6867 C   0  0  0  0  0  0  0  0  0  0  0  0
   15.1861  -15.6153   19.1363 C   0  0  0  0  0  0  0  0  0  0  0  0
   14.6688  -16.9278   19.6918 C   0  0  2  0  0  0  0  0  0  0  0  0
   13.8549  -17.6366   18.7479 N   0  0  0  0  0  0  0  0  0  0  0  0
   13.7876  -16.5435   20.8519 C   0  0  0  0  0  0  0  0  0  0  0  0
   14.2220  -15.8250   21.7840 O   0  0  0  0  0  0  0  0  0  0  0  0
    6.4120  -13.4268   19.2857 N   0  0  0  0  0  0  0  0  0  0  0  0
    7.6553  -13.2023   18.6373 C   0  0  0  0  0  0  0  0  0  0  0  0
    7.7002  -12.5426   17.5190 N   0  0  0  0  0  0  0  0  0  0  0  0
    8.8563  -13.7005   19.2093 N   0  0  0  0  0  0  0  0  0  0  0  0
    8.8167  -14.7621   20.1900 C   0  0  0  0  0  0  0  0  0  0  0  0
   10.2101  -15.1680   20.6084 C   0  0  0  0  0  0  0  0  0  0  0  0
   10.2202  -16.3505   21.5421 C   0  0  0  0  0  0  0  0  0  0  0  0
   11.5558  -16.7064   22.0244 C   0  0  2  0  0  0  0  0  0  0  0  0
   12.4417  -16.9833   20.9213 N   0  0  0  0  0  0  0  0  0  0  0  0
   11.6171  -17.8323   22.9740 C   0  0  0  0  0  0  0  0  0  0  0  0
   11.4985  -18.9948   22.5177 O   0  0  0  0  0  0  0  0  0  0  0  0
    8.5732  -12.3615   17.0050 N   0  0  0  0  0  0  0  0  0  0  0  0
   11.8011  -17.6841   24.3624 C   0  0  1  0  0  0  0  0  0  0  0  0
   11.7611  -18.7988   25.3208 C   0  0  0  0  0  0  0  0  0  0  0  0
   13.0565  -18.9768   26.0105 C   0  0  0  0  0  0  0  0  0  0  0  0
   14.0774  -19.5423   25.1087 C   0  0  0  0  0  0  0  0  0  0  0  0
   14.0231  -19.8298   23.7664 N   0  0  0  0  0  0  0  0  0  0  0  0
   15.2307  -20.2426   23.3358 C   0  0  0  0  0  0  0  0  0  0  0  0
   16.0629  -20.2238   24.3802 N   0  0  0  0  0  0  0  0  0  0  0  0
   15.3835  -19.8042   25.4542 C   0  0  0  0  0  0  0  0  0  0  0  0
   10.7520  -18.4287   26.3669 O   0  0  0  0  0  0  0  0  0  0  0  0
   10.4166  -19.2355   27.3881 O   0  0  0  0  0  0  0  0  0  0  0  0
  2  3  2  0
  2  1  1  0
  4  2  1  0
  5  4  1  0
  6  5  1  0
  6  7  1  6
  8  9  2  0
  8  6  1  0
 10 11  1  0
 11 12  2  0
 13 11  1  0
 13 14  1  0
 14 15  1  0
 15 16  1  0
 17 16  1  6
 17 18  1  0
 18  8  1  0
 19 21  1  0
 19 17  1  0
 20 19  2  0
 22 21  1  0
 22 29  1  0
 23 24  1  0
 22 23  1  6
 24 25  2  0
 25 26  1  0
 27 26  1  0
 28 24  1  0
 28 27  2  0
 29 30  1  0
 31 29  2  0
M  END
$$$$
