QRH.pdb
     RDKit          3D

 31 31  0  0  1  0  0  0  0  0999 V2000
   14.3489  -13.4272   19.5725 N   0  0  0  0  0  0  0  0  0  0  0  0
   13.8714  -14.7240   19.2121 C   0  0  0  0  0  0  0  0  0  0  0  0
   14.6237  -15.7070   19.3694 O   0  0  0  0  0  0  0  0  0  0  0  0
   12.5079  -14.9168   18.6586 C   0  0  0  0  0  0  0  0  0  0  0  0
   11.5170  -14.1983   19.5229 C   0  0  0  0  0  0  0  0  0  0  0  0
   10.0859  -14.4332   19.0808 C   0  0  2  0  0  0  0  0  0  0  0  0
    9.4120  -13.2134   18.7436 N   0  0  0  0  0  0  0  0  0  0  0  0
    9.3932  -15.0160   20.2852 C   0  0  0  0  0  0  0  0  0  0  0  0
    8.7510  -14.2862   21.0783 O   0  0  0  0  0  0  0  0  0  0  0  0
    5.0367  -20.9538   22.8913 N   0  0  0  0  0  0  0  0  0  0  0  0
    6.0137  -21.5024   23.7639 C   0  0  0  0  0  0  0  0  0  0  0  0
    5.6532  -22.0691   24.8760 N   0  0  0  0  0  0  0  0  0  0  0  0
    7.3911  -21.4318   23.4240 N   0  0  0  0  0  0  0  0  0  0  0  0
    7.8204  -20.7111   22.2465 C   0  0  0  0  0  0  0  0  0  0  0  0
    8.0363  -19.2480   22.5533 C   0  0  0  0  0  0  0  0  0  0  0  0
    8.5709  -18.4752   21.3754 C   0  0  0  0  0  0  0  0  0  0  0  0
    8.7534  -17.0477   21.6436 C   0  0  2  0  0  0  0  0  0  0  0  0
    9.4479  -16.4067   20.5549 N   0  0  0  0  0  0  0  0  0  0  0  0
    9.4403  -16.7135   22.9044 C   0  0  0  0  0  0  0  0  0  0  0  0
   10.6921  -16.7908   22.9316 O   0  0  0  0  0  0  0  0  0  0  0  0
    6.3155  -22.5271   25.5168 N   0  0  0  0  0  0  0  0  0  0  0  0
    8.7784  -16.3123   24.0810 C   0  0  2  0  0  0  0  0  0  0  0  0
    9.4678  -15.9208   25.3196 C   0  0  0  0  0  0  0  0  0  0  0  0
    8.6053  -15.0942   26.1905 C   0  0  0  0  0  0  0  0  0  0  0  0
    9.2282  -14.8623   27.5072 C   0  0  0  0  0  0  0  0  0  0  0  0
   10.4740  -15.1993   27.9779 N   0  0  0  0  0  0  0  0  0  0  0  0
   10.6492  -14.6963   29.2150 C   0  0  0  0  0  0  0  0  0  0  0  0
    9.5353  -14.0389   29.5480 N   0  0  0  0  0  0  0  0  0  0  0  0
    8.6710  -14.1295   28.5301 C   0  0  0  0  0  0  0  0  0  0  0  0
    9.7616  -17.1885   26.0657 O   0  0  0  0  0  0  0  0  0  0  0  0
   10.8050  -17.3293   26.9008 O   0  0  0  0  0  0  0  0  0  0  0  0
  2  3  2  0
  2  1  1  0
  4  2  1  0
  5  4  1  0
  6  5  1  0
  6  7  1  1
  8  9  2  0
  8  6  1  0
 10 11  1  0
 11 12  2  0
 13 11  1  0
 13 14  1  0
 14 15  1  0
 15 16  1  0
 17 16  1  6
 17 18  1  0
 18  8  1  0
 19 21  1  0
 19 17  1  0
 20 19  2  0
 22 21  1  0
 22 29  1  0
 23 24  1  0
 22 23  1  6
 24 25  2  0
 25 26  1  0
 27 26  1  0
 28 24  1  0
 28 27  2  0
 29 30  1  0
 31 29  2  0
M  END
$$$$
