QRH.pdb
     RDKit          3D

 31 31  0  0  1  0  0  0  0  0999 V2000
   18.6756  -17.3686   12.1718 N   0  0  0  0  0  0  0  0  0  0  0  0
   18.1169  -17.2813   10.8604 C   0  0  0  0  0  0  0  0  0  0  0  0
   18.8467  -16.9091    9.9192 O   0  0  0  0  0  0  0  0  0  0  0  0
   16.6955  -17.6230   10.6040 C   0  0  0  0  0  0  0  0  0  0  0  0
   16.0792  -18.1527   11.8629 C   0  0  0  0  0  0  0  0  0  0  0  0
   14.9816  -19.1624   11.5897 C   0  0  2  0  0  0  0  0  0  0  0  0
   13.7750  -18.5437   11.1236 N   0  0  0  0  0  0  0  0  0  0  0  0
   14.6826  -19.7893   12.9267 C   0  0  0  0  0  0  0  0  0  0  0  0
   13.5792  -19.6062   13.4948 O   0  0  0  0  0  0  0  0  0  0  0  0
   15.4974  -26.4841   18.1827 N   0  0  0  0  0  0  0  0  0  0  0  0
   16.7151  -25.7597   18.2782 C   0  0  0  0  0  0  0  0  0  0  0  0
   17.4024  -25.7777   19.3806 N   0  0  0  0  0  0  0  0  0  0  0  0
   17.1861  -25.0102   17.1673 N   0  0  0  0  0  0  0  0  0  0  0  0
   16.3414  -24.7996   16.0130 C   0  0  0  0  0  0  0  0  0  0  0  0
   15.7072  -23.4292   16.0461 C   0  0  0  0  0  0  0  0  0  0  0  0
   16.0578  -22.5923   14.8431 C   0  0  0  0  0  0  0  0  0  0  0  0
   15.4106  -21.2792   14.8326 C   0  0  2  0  0  0  0  0  0  0  0  0
   15.6411  -20.6047   13.5795 N   0  0  0  0  0  0  0  0  0  0  0  0
   15.7812  -20.3714   15.9333 C   0  0  0  0  0  0  0  0  0  0  0  0
   16.8778  -19.7671   15.8545 O   0  0  0  0  0  0  0  0  0  0  0  0
   18.2594  -25.2255   19.5207 N   0  0  0  0  0  0  0  0  0  0  0  0
   14.9804  -20.1398   17.0684 C   0  0  2  0  0  0  0  0  0  0  0  0
   15.3387  -19.2127   18.1523 C   0  0  0  0  0  0  0  0  0  0  0  0
   14.3200  -19.2003   19.2235 C   0  0  0  0  0  0  0  0  0  0  0  0
   13.0308  -18.6722   18.7393 C   0  0  0  0  0  0  0  0  0  0  0  0
   12.7471  -17.5550   17.9919 N   0  0  0  0  0  0  0  0  0  0  0  0
   11.4330  -17.5201   17.6986 C   0  0  0  0  0  0  0  0  0  0  0  0
   10.8658  -18.5990   18.2446 N   0  0  0  0  0  0  0  0  0  0  0  0
   11.8148  -19.3023   18.8739 C   0  0  0  0  0  0  0  0  0  0  0  0
   16.6090  -19.7318   18.7580 O   0  0  0  0  0  0  0  0  0  0  0  0
   17.5289  -18.9408   19.3361 O   0  0  0  0  0  0  0  0  0  0  0  0
  2  3  2  0
  2  1  1  0
  4  2  1  0
  5  4  1  0
  6  5  1  0
  6  7  1  1
  8  9  2  0
  8  6  1  0
 10 11  1  0
 11 12  2  0
 13 11  1  0
 13 14  1  0
 14 15  1  0
 15 16  1  0
 17 16  1  6
 17 18  1  0
 18  8  1  0
 19 21  1  0
 19 17  1  0
 20 19  2  0
 22 21  1  0
 22 29  1  0
 23 24  1  0
 22 23  1  6
 24 25  2  0
 25 26  1  0
 27 26  1  0
 28 24  1  0
 28 27  2  0
 29 30  1  0
 31 29  2  0
M  END
$$$$
