QRH.pdb
     RDKit          3D

 31 31  0  0  1  0  0  0  0  0999 V2000
   13.3518  -19.0899   17.5105 N   0  0  0  0  0  0  0  0  0  0  0  0
   14.3098  -18.0310   17.4864 C   0  0  0  0  0  0  0  0  0  0  0  0
   14.9984  -17.8662   16.4589 O   0  0  0  0  0  0  0  0  0  0  0  0
   14.4963  -17.1338   18.6538 C   0  0  0  0  0  0  0  0  0  0  0  0
   13.1558  -16.6946   19.1592 C   0  0  0  0  0  0  0  0  0  0  0  0
   12.8091  -15.2827   18.7289 C   0  0  2  0  0  0  0  0  0  0  0  0
   13.9665  -14.4417   18.6341 N   0  0  0  0  0  0  0  0  0  0  0  0
   11.9413  -14.7372   19.8331 C   0  0  0  0  0  0  0  0  0  0  0  0
   12.4408  -14.1130   20.7999 O   0  0  0  0  0  0  0  0  0  0  0  0
    7.2101  -13.4443   15.4666 N   0  0  0  0  0  0  0  0  0  0  0  0
    8.0084  -14.3434   16.2222 C   0  0  0  0  0  0  0  0  0  0  0  0
    8.4684  -15.4282   15.6749 N   0  0  0  0  0  0  0  0  0  0  0  0
    8.3059  -14.0603   17.5820 N   0  0  0  0  0  0  0  0  0  0  0  0
    7.8326  -12.8410   18.1982 C   0  0  0  0  0  0  0  0  0  0  0  0
    8.2117  -12.7877   19.6593 C   0  0  0  0  0  0  0  0  0  0  0  0
    8.3183  -14.1533   20.2870 C   0  0  0  0  0  0  0  0  0  0  0  0
    9.6426  -14.4440   20.8391 C   0  0  2  0  0  0  0  0  0  0  0  0
   10.5350  -14.9142   19.8091 N   0  0  0  0  0  0  0  0  0  0  0  0
    9.6749  -15.3967   21.9636 C   0  0  0  0  0  0  0  0  0  0  0  0
    9.2327  -16.5542   21.7678 O   0  0  0  0  0  0  0  0  0  0  0  0
    9.0739  -16.0972   16.1698 N   0  0  0  0  0  0  0  0  0  0  0  0
   10.1718  -15.0883   23.2447 C   0  0  2  0  0  0  0  0  0  0  0  0
    9.7319  -15.7545   24.4798 C   0  0  0  0  0  0  0  0  0  0  0  0
    8.2626  -15.9112   24.5258 C   0  0  0  0  0  0  0  0  0  0  0  0
    7.6088  -14.7233   25.1062 C   0  0  0  0  0  0  0  0  0  0  0  0
    8.1440  -13.5463   25.5702 N   0  0  0  0  0  0  0  0  0  0  0  0
    7.1570  -12.6996   25.9209 C   0  0  0  0  0  0  0  0  0  0  0  0
    5.9936  -13.3129   25.6883 N   0  0  0  0  0  0  0  0  0  0  0  0
    6.2491  -14.5315   25.1976 C   0  0  0  0  0  0  0  0  0  0  0  0
   10.3217  -17.1334   24.4564 O   0  0  0  0  0  0  0  0  0  0  0  0
   11.0024  -17.6281   23.4086 O   0  0  0  0  0  0  0  0  0  0  0  0
  2  3  2  0
  2  1  1  0
  4  2  1  0
  5  4  1  0
  6  5  1  0
  6  7  1  1
  8  9  2  0
  8  6  1  0
 10 11  1  0
 11 12  2  0
 13 11  1  0
 13 14  1  0
 14 15  1  0
 15 16  1  0
 17 16  1  6
 17 18  1  0
 18  8  1  0
 19 21  1  0
 19 17  1  0
 20 19  2  0
 22 21  1  0
 22 29  1  0
 23 24  1  0
 22 23  1  6
 24 25  2  0
 25 26  1  0
 27 26  1  0
 28 24  1  0
 28 27  2  0
 29 30  1  0
 31 29  2  0
M  END
$$$$
