QRH.pdb
     RDKit          3D

 31 31  0  0  1  0  0  0  0  0999 V2000
   15.3163  -13.3011   17.9802 N   0  0  0  0  0  0  0  0  0  0  0  0
   16.4725  -14.0954   18.2482 C   0  0  0  0  0  0  0  0  0  0  0  0
   17.5486  -13.5214   18.5119 O   0  0  0  0  0  0  0  0  0  0  0  0
   16.4131  -15.5780   18.2173 C   0  0  0  0  0  0  0  0  0  0  0  0
   14.9809  -16.0166   18.2590 C   0  0  0  0  0  0  0  0  0  0  0  0
   14.6909  -16.9358   19.4293 C   0  0  2  0  0  0  0  0  0  0  0  0
   13.9780  -18.1150   19.0331 N   0  0  0  0  0  0  0  0  0  0  0  0
   13.7870  -16.1430   20.3372 C   0  0  0  0  0  0  0  0  0  0  0  0
   14.1929  -15.1003   20.9045 O   0  0  0  0  0  0  0  0  0  0  0  0
    7.5988  -14.1253   18.3268 N   0  0  0  0  0  0  0  0  0  0  0  0
    7.4775  -13.3214   19.4911 C   0  0  0  0  0  0  0  0  0  0  0  0
    7.6029  -12.0308   19.4110 N   0  0  0  0  0  0  0  0  0  0  0  0
    7.2197  -13.9268   20.7500 N   0  0  0  0  0  0  0  0  0  0  0  0
    7.7513  -15.2357   21.0574 C   0  0  0  0  0  0  0  0  0  0  0  0
    9.1419  -15.1349   21.6383 C   0  0  0  0  0  0  0  0  0  0  0  0
   10.1607  -15.9261   20.8596 C   0  0  0  0  0  0  0  0  0  0  0  0
   11.5172  -15.8313   21.4019 C   0  0  2  0  0  0  0  0  0  0  0  0
   12.4511  -16.5539   20.5746 N   0  0  0  0  0  0  0  0  0  0  0  0
   11.6831  -16.2728   22.7985 C   0  0  0  0  0  0  0  0  0  0  0  0
   12.8498  -16.4255   23.2333 O   0  0  0  0  0  0  0  0  0  0  0  0
    7.4592  -11.3989   20.2105 N   0  0  0  0  0  0  0  0  0  0  0  0
   10.6127  -16.5336   23.6758 C   0  0  2  0  0  0  0  0  0  0  0  0
   10.6774  -16.3409   25.1323 C   0  0  0  0  0  0  0  0  0  0  0  0
   10.1540  -15.0183   25.5351 C   0  0  0  0  0  0  0  0  0  0  0  0
   10.3752  -14.7622   26.9707 C   0  0  0  0  0  0  0  0  0  0  0  0
   11.0651  -15.4875   27.9116 N   0  0  0  0  0  0  0  0  0  0  0  0
   11.0876  -14.8194   29.0808 C   0  0  0  0  0  0  0  0  0  0  0  0
   10.4238  -13.6735   28.9071 N   0  0  0  0  0  0  0  0  0  0  0  0
    9.9894  -13.6246   27.6421 C   0  0  0  0  0  0  0  0  0  0  0  0
    9.7783  -17.3751   25.7420 O   0  0  0  0  0  0  0  0  0  0  0  0
    8.9619  -18.1620   25.0206 O   0  0  0  0  0  0  0  0  0  0  0  0
  2  3  2  0
  2  1  1  0
  4  2  1  0
  5  4  1  0
  6  5  1  0
  6  7  1  6
  8  9  2  0
  8  6  1  0
 10 11  1  0
 11 12  2  0
 13 11  1  0
 13 14  1  0
 14 15  1  0
 15 16  1  0
 17 16  1  6
 17 18  1  0
 18  8  1  0
 19 21  1  0
 19 17  1  0
 20 19  2  0
 22 21  1  0
 22 29  1  0
 23 24  1  0
 22 23  1  6
 24 25  2  0
 25 26  1  0
 27 26  1  0
 28 24  1  0
 28 27  2  0
 29 30  1  0
 31 29  2  0
M  END
$$$$
