QRH.pdb
     RDKit          3D

 31 31  0  0  1  0  0  0  0  0999 V2000
   12.1093  -23.0334   20.9506 N   0  0  0  0  0  0  0  0  0  0  0  0
   12.8749  -23.3260   19.7812 C   0  0  0  0  0  0  0  0  0  0  0  0
   13.8045  -24.1544   19.8625 O   0  0  0  0  0  0  0  0  0  0  0  0
   12.5839  -22.6654   18.4844 C   0  0  0  0  0  0  0  0  0  0  0  0
   12.9447  -21.2140   18.5766 C   0  0  0  0  0  0  0  0  0  0  0  0
   12.2335  -20.3734   17.5342 C   0  0  2  0  0  0  0  0  0  0  0  0
   13.0606  -20.1028   16.3948 N   0  0  0  0  0  0  0  0  0  0  0  0
   11.9537  -19.0584   18.2141 C   0  0  0  0  0  0  0  0  0  0  0  0
   12.8157  -18.1473   18.2404 O   0  0  0  0  0  0  0  0  0  0  0  0
    8.7392  -12.7193   18.6445 N   0  0  0  0  0  0  0  0  0  0  0  0
    7.9694  -12.8474   19.8309 C   0  0  0  0  0  0  0  0  0  0  0  0
    8.0390  -11.9391   20.7572 N   0  0  0  0  0  0  0  0  0  0  0  0
    7.1204  -13.9720   20.0103 N   0  0  0  0  0  0  0  0  0  0  0  0
    7.4225  -15.2298   19.3645 C   0  0  0  0  0  0  0  0  0  0  0  0
    8.7596  -15.7664   19.8179 C   0  0  0  0  0  0  0  0  0  0  0  0
    9.0527  -17.1419   19.2771 C   0  0  0  0  0  0  0  0  0  0  0  0
   10.3986  -17.6228   19.5938 C   0  0  2  0  0  0  0  0  0  0  0  0
   10.7067  -18.8143   18.8427 N   0  0  0  0  0  0  0  0  0  0  0  0
   10.6703  -17.8795   21.0197 C   0  0  0  0  0  0  0  0  0  0  0  0
    9.8956  -18.6488   21.6377 O   0  0  0  0  0  0  0  0  0  0  0  0
    7.5255  -11.9997   21.6470 N   0  0  0  0  0  0  0  0  0  0  0  0
   11.7461  -17.3149   21.7319 C   0  0  1  0  0  0  0  0  0  0  0  0
   12.0292  -17.5900   23.1486 C   0  0  0  0  0  0  0  0  0  0  0  0
   12.8742  -18.7913   23.3166 C   0  0  0  0  0  0  0  0  0  0  0  0
   12.0584  -20.0073   23.4934 C   0  0  0  0  0  0  0  0  0  0  0  0
   10.6954  -20.1785   23.4791 N   0  0  0  0  0  0  0  0  0  0  0  0
   10.3957  -21.4875   23.5839 C   0  0  0  0  0  0  0  0  0  0  0  0
   11.5454  -22.1625   23.6640 N   0  0  0  0  0  0  0  0  0  0  0  0
   12.5549  -21.2855   23.6104 C   0  0  0  0  0  0  0  0  0  0  0  0
   12.8167  -16.4217   23.6630 O   0  0  0  0  0  0  0  0  0  0  0  0
   13.1878  -15.3844   22.8934 O   0  0  0  0  0  0  0  0  0  0  0  0
  2  3  2  0
  2  1  1  0
  4  2  1  0
  5  4  1  0
  6  5  1  0
  6  7  1  6
  8  9  2  0
  8  6  1  0
 10 11  1  0
 11 12  2  0
 13 11  1  0
 13 14  1  0
 14 15  1  0
 15 16  1  0
 17 16  1  1
 17 18  1  0
 18  8  1  0
 19 21  1  0
 19 17  1  0
 20 19  2  0
 22 21  1  0
 22 29  1  0
 23 24  1  0
 22 23  1  1
 24 25  2  0
 25 26  1  0
 27 26  1  0
 28 24  1  0
 28 27  2  0
 29 30  1  0
 31 29  2  0
M  END
$$$$
