QRH.pdb
     RDKit          3D

 31 31  0  0  1  0  0  0  0  0999 V2000
   11.3104  -15.8651   14.3133 N   0  0  0  0  0  0  0  0  0  0  0  0
    9.9627  -16.0226   13.8681 C   0  0  0  0  0  0  0  0  0  0  0  0
    9.7242  -16.8291   12.9462 O   0  0  0  0  0  0  0  0  0  0  0  0
    8.8536  -15.2487   14.4794 C   0  0  0  0  0  0  0  0  0  0  0  0
    8.9213  -15.3810   15.9704 C   0  0  0  0  0  0  0  0  0  0  0  0
    7.7363  -14.7368   16.6630 C   0  0  2  0  0  0  0  0  0  0  0  0
    7.5924  -13.3515   16.3224 N   0  0  0  0  0  0  0  0  0  0  0  0
    8.0526  -14.8116   18.1341 C   0  0  0  0  0  0  0  0  0  0  0  0
    8.8429  -13.9967   18.6682 O   0  0  0  0  0  0  0  0  0  0  0  0
    6.3563  -20.4282   18.9936 N   0  0  0  0  0  0  0  0  0  0  0  0
    4.9543  -20.2453   18.8614 C   0  0  0  0  0  0  0  0  0  0  0  0
    4.3003  -20.8585   17.9211 N   0  0  0  0  0  0  0  0  0  0  0  0
    4.2609  -19.3883   19.7573 N   0  0  0  0  0  0  0  0  0  0  0  0
    4.9874  -18.5895   20.7188 C   0  0  0  0  0  0  0  0  0  0  0  0
    5.9861  -17.6879   20.0326 C   0  0  0  0  0  0  0  0  0  0  0  0
    6.7658  -16.8345   20.9992 C   0  0  0  0  0  0  0  0  0  0  0  0
    7.7659  -15.9816   20.3549 C   0  0  2  0  0  0  0  0  0  0  0  0
    7.4645  -15.8058   18.9560 N   0  0  0  0  0  0  0  0  0  0  0  0
    9.1664  -16.4228   20.4847 C   0  0  0  0  0  0  0  0  0  0  0  0
    9.6682  -17.0764   19.5388 O   0  0  0  0  0  0  0  0  0  0  0  0
    3.3002  -20.7028   17.7351 N   0  0  0  0  0  0  0  0  0  0  0  0
    9.9769  -16.1561   21.6052 C   0  0  1  0  0  0  0  0  0  0  0  0
   11.4469  -16.1355   21.5706 C   0  0  0  0  0  0  0  0  0  0  0  0
   11.9627  -14.9587   20.8394 C   0  0  0  0  0  0  0  0  0  0  0  0
   13.4275  -15.0202   20.6779 C   0  0  0  0  0  0  0  0  0  0  0  0
   14.3340  -15.9619   21.1004 N   0  0  0  0  0  0  0  0  0  0  0  0
   15.5622  -15.6564   20.6397 C   0  0  0  0  0  0  0  0  0  0  0  0
   15.4604  -14.5325   19.9252 N   0  0  0  0  0  0  0  0  0  0  0  0
   14.1817  -14.1378   19.9387 C   0  0  0  0  0  0  0  0  0  0  0  0
   11.9074  -16.0076   22.9924 O   0  0  0  0  0  0  0  0  0  0  0  0
   13.1805  -16.2013   23.3768 O   0  0  0  0  0  0  0  0  0  0  0  0
  2  3  2  0
  2  1  1  0
  4  2  1  0
  5  4  1  0
  6  5  1  0
  6  7  1  6
  8  9  2  0
  8  6  1  0
 10 11  1  0
 11 12  2  0
 13 11  1  0
 13 14  1  0
 14 15  1  0
 15 16  1  0
 17 16  1  6
 17 18  1  0
 18  8  1  0
 19 21  1  0
 19 17  1  0
 20 19  2  0
 22 21  1  0
 22 29  1  0
 23 24  1  0
 22 23  1  1
 24 25  2  0
 25 26  1  0
 27 26  1  0
 28 24  1  0
 28 27  2  0
 29 30  1  0
 31 29  2  0
M  END
$$$$
