QPW.pdb
     RDKit          3D

 31 33  0  0  1  0  0  0  0  0999 V2000
   12.8553  -14.3903   17.4977 N   0  0  0  0  0  0  0  0  0  0  0  0
   12.7624  -14.0852   18.8792 C   0  0  0  0  0  0  0  0  0  0  0  0
   13.8127  -13.8418   19.4944 O   0  0  0  0  0  0  0  0  0  0  0  0
   11.4583  -14.0703   19.5322 C   0  0  0  0  0  0  0  0  0  0  0  0
   10.3832  -13.2610   18.9148 C   0  0  0  0  0  0  0  0  0  0  0  0
    9.0231  -13.8558   18.8451 C   0  0  2  0  0  0  0  0  0  0  0  0
    8.1165  -12.7474   18.4553 N   0  0  0  0  0  0  0  0  0  0  0  0
    8.4857  -14.4329   20.0821 C   0  0  0  0  0  0  0  0  0  0  0  0
    8.1579  -13.6382   21.0261 O   0  0  0  0  0  0  0  0  0  0  0  0
    8.3000  -15.8266   20.2995 N   0  0  0  0  0  0  0  0  0  0  0  0
    8.5243  -16.8345   19.2865 C   0  0  0  0  0  0  0  0  0  0  0  0
    8.7195  -18.0972   20.0838 C   0  0  0  0  0  0  0  0  0  0  0  0
    7.6571  -17.9236   21.1644 C   0  0  0  0  0  0  0  0  0  0  0  0
    7.8927  -16.4419   21.5131 C   0  0  1  0  0  0  0  0  0  0  0  0
    8.9612  -16.4724   22.5486 C   0  0  0  0  0  0  0  0  0  0  0  0
   10.1255  -16.7932   22.2023 O   0  0  0  0  0  0  0  0  0  0  0  0
    8.7432  -16.1605   23.9035 N   0  0  0  0  0  0  0  0  0  0  0  0
    9.7407  -16.2965   24.9503 C   0  0  1  0  0  0  0  0  0  0  0  0
    9.5565  -15.0967   25.8648 C   0  0  0  0  0  0  0  0  0  0  0  0
    8.1427  -14.6805   25.9822 C   0  0  0  0  0  0  0  0  0  0  0  0
    7.0225  -15.4662   25.9027 C   0  0  0  0  0  0  0  0  0  0  0  0
    5.9090  -14.7146   26.0619 N   0  0  0  0  0  0  0  0  0  0  0  0
    6.2988  -13.4329   26.2464 C   0  0  0  0  0  0  0  0  0  0  0  0
    5.5352  -12.3032   26.4508 C   0  0  0  0  0  0  0  0  0  0  0  0
    6.1977  -11.0897   26.6138 C   0  0  0  0  0  0  0  0  0  0  0  0
    7.5615  -11.0130   26.5737 C   0  0  0  0  0  0  0  0  0  0  0  0
    8.3096  -12.1773   26.3646 C   0  0  0  0  0  0  0  0  0  0  0  0
    7.6893  -13.3980   26.1989 C   0  0  0  0  0  0  0  0  0  0  0  0
    9.4323  -17.4963   25.8066 C   0  0  0  0  0  0  0  0  0  0  0  0
    8.3199  -18.0853   25.7003 O   0  0  0  0  0  0  0  0  0  0  0  0
   10.3321  -17.9868   26.7188 O   0  0  0  0  0  0  0  0  0  0  0  0
  2  1  1  0
  3  2  2  0
  4  2  1  0
  5  4  1  0
  6  8  1  0
  6  5  1  0
  6  7  1  1
  8 10  1  0
  9  8  2  0
 10 11  1  0
 10 14  1  0
 11 12  1  0
 12 13  1  0
 14 13  1  0
 15 17  1  0
 14 15  1  1
 16 15  2  0
 18 29  1  0
 18 17  1  0
 18 19  1  1
 20 28  1  0
 20 19  1  0
 21 20  2  0
 22 21  1  0
 22 23  1  0
 23 28  2  0
 24 23  1  0
 24 25  2  0
 25 26  1  0
 26 27  2  0
 28 27  1  0
 29 31  1  0
 30 29  2  0
M  END
$$$$
