QPW.pdb
     RDKit          3D

 31 33  0  0  1  0  0  0  0  0999 V2000
   10.9399  -21.4711   19.0172 N   0  0  0  0  0  0  0  0  0  0  0  0
    9.6025  -21.3296   18.5680 C   0  0  0  0  0  0  0  0  0  0  0  0
    9.1022  -22.2646   17.9227 O   0  0  0  0  0  0  0  0  0  0  0  0
    8.8631  -20.1083   18.8660 C   0  0  0  0  0  0  0  0  0  0  0  0
    9.5264  -19.0832   19.7035 C   0  0  0  0  0  0  0  0  0  0  0  0
    9.4547  -17.6691   19.2520 C   0  0  2  0  0  0  0  0  0  0  0  0
   10.4663  -17.5368   18.1743 N   0  0  0  0  0  0  0  0  0  0  0  0
    9.7554  -16.6367   20.2500 C   0  0  0  0  0  0  0  0  0  0  0  0
   10.9794  -16.4109   20.5347 O   0  0  0  0  0  0  0  0  0  0  0  0
    8.7688  -15.8626   20.9220 N   0  0  0  0  0  0  0  0  0  0  0  0
    7.3590  -15.9046   20.6010 C   0  0  0  0  0  0  0  0  0  0  0  0
    6.6986  -15.3782   21.8482 C   0  0  0  0  0  0  0  0  0  0  0  0
    7.6494  -14.2458   22.2225 C   0  0  0  0  0  0  0  0  0  0  0  0
    8.9944  -14.9614   21.9962 C   0  0  1  0  0  0  0  0  0  0  0  0
    9.2723  -15.6414   23.2906 C   0  0  0  0  0  0  0  0  0  0  0  0
    8.5547  -16.6175   23.6234 O   0  0  0  0  0  0  0  0  0  0  0  0
   10.2995  -15.2531   24.1707 N   0  0  0  0  0  0  0  0  0  0  0  0
   10.5119  -15.8221   25.4899 C   0  0  1  0  0  0  0  0  0  0  0  0
    9.8886  -14.8459   26.4741 C   0  0  0  0  0  0  0  0  0  0  0  0
    8.4414  -14.6500   26.2441 C   0  0  0  0  0  0  0  0  0  0  0  0
    7.5016  -15.5961   25.9273 C   0  0  0  0  0  0  0  0  0  0  0  0
    6.2829  -15.0233   25.7985 N   0  0  0  0  0  0  0  0  0  0  0  0
    6.4225  -13.6985   26.0313 C   0  0  0  0  0  0  0  0  0  0  0  0
    5.4727  -12.6992   26.0172 C   0  0  0  0  0  0  0  0  0  0  0  0
    5.8894  -11.4003   26.2951 C   0  0  0  0  0  0  0  0  0  0  0  0
    7.1968  -11.1172   26.5739 C   0  0  0  0  0  0  0  0  0  0  0  0
    8.1381  -12.1530   26.5806 C   0  0  0  0  0  0  0  0  0  0  0  0
    7.7637  -13.4527   26.3103 C   0  0  0  0  0  0  0  0  0  0  0  0
    9.7186  -17.0934   25.6392 C   0  0  0  0  0  0  0  0  0  0  0  0
    9.7379  -17.7315   26.7292 O   0  0  0  0  0  0  0  0  0  0  0  0
    8.9579  -17.5982   24.6150 O   0  0  0  0  0  0  0  0  0  0  0  0
  2  1  1  0
  3  2  2  0
  4  2  1  0
  5  4  1  0
  6  8  1  0
  6  5  1  0
  6  7  1  6
  8 10  1  0
  9  8  2  0
 10 11  1  0
 10 14  1  0
 11 12  1  0
 12 13  1  0
 14 13  1  0
 15 17  1  0
 14 15  1  1
 16 15  2  0
 18 29  1  0
 18 17  1  0
 18 19  1  1
 20 28  1  0
 20 19  1  0
 21 20  2  0
 22 21  1  0
 22 23  1  0
 23 28  2  0
 24 23  1  0
 24 25  2  0
 25 26  1  0
 26 27  2  0
 28 27  1  0
 29 31  1  0
 30 29  2  0
M  END
$$$$
