QPW.pdb
     RDKit          3D

 31 33  0  0  1  0  0  0  0  0999 V2000
    8.6164  -21.5560   20.1285 N   0  0  0  0  0  0  0  0  0  0  0  0
    9.9188  -21.2861   19.6372 C   0  0  0  0  0  0  0  0  0  0  0  0
   10.7907  -22.1568   19.7876 O   0  0  0  0  0  0  0  0  0  0  0  0
   10.1974  -20.0125   18.9833 C   0  0  0  0  0  0  0  0  0  0  0  0
    9.0804  -19.0529   18.8301 C   0  0  0  0  0  0  0  0  0  0  0  0
    9.4215  -17.6321   18.5589 C   0  0  2  0  0  0  0  0  0  0  0  0
   10.7386  -17.6557   17.8757 N   0  0  0  0  0  0  0  0  0  0  0  0
    9.5584  -16.7478   19.7214 C   0  0  0  0  0  0  0  0  0  0  0  0
   10.7343  -16.4799   20.1407 O   0  0  0  0  0  0  0  0  0  0  0  0
    8.4624  -16.1616   20.4137 N   0  0  0  0  0  0  0  0  0  0  0  0
    7.0784  -16.3652   20.0457 C   0  0  0  0  0  0  0  0  0  0  0  0
    6.3258  -16.0232   21.3047 C   0  0  0  0  0  0  0  0  0  0  0  0
    7.1080  -14.8059   21.7871 C   0  0  0  0  0  0  0  0  0  0  0  0
    8.5414  -15.3197   21.5548 C   0  0  1  0  0  0  0  0  0  0  0  0
    8.8785  -16.0502   22.8069 C   0  0  0  0  0  0  0  0  0  0  0  0
    8.6862  -17.2910   22.8497 O   0  0  0  0  0  0  0  0  0  0  0  0
    9.4042  -15.4286   23.9548 N   0  0  0  0  0  0  0  0  0  0  0  0
    9.9516  -16.1385   25.0975 C   0  0  1  0  0  0  0  0  0  0  0  0
    9.6812  -15.2594   26.3075 C   0  0  0  0  0  0  0  0  0  0  0  0
    8.3183  -14.6864   26.3031 C   0  0  0  0  0  0  0  0  0  0  0  0
    7.1240  -15.3507   26.1987 C   0  0  0  0  0  0  0  0  0  0  0  0
    6.0941  -14.4744   26.2348 N   0  0  0  0  0  0  0  0  0  0  0  0
    6.6130  -13.2323   26.3633 C   0  0  0  0  0  0  0  0  0  0  0  0
    5.9697  -12.0155   26.4439 C   0  0  0  0  0  0  0  0  0  0  0  0
    6.7527  -10.8717   26.5736 C   0  0  0  0  0  0  0  0  0  0  0  0
    8.1165  -10.9451   26.6203 C   0  0  0  0  0  0  0  0  0  0  0  0
    8.7409  -12.1950   26.5361 C   0  0  0  0  0  0  0  0  0  0  0  0
    7.9990  -13.3506   26.4071 C   0  0  0  0  0  0  0  0  0  0  0  0
    9.1701  -17.4018   25.3451 C   0  0  0  0  0  0  0  0  0  0  0  0
    7.9539  -17.4737   25.0114 O   0  0  0  0  0  0  0  0  0  0  0  0
    9.7394  -18.5035   25.9321 O   0  0  0  0  0  0  0  0  0  0  0  0
  2  1  1  0
  3  2  2  0
  4  2  1  0
  5  4  1  0
  6  8  1  0
  6  5  1  0
  6  7  1  1
  8 10  1  0
  9  8  2  0
 10 11  1  0
 10 14  1  0
 11 12  1  0
 12 13  1  0
 14 13  1  0
 15 17  1  0
 14 15  1  1
 16 15  2  0
 18 29  1  0
 18 17  1  0
 18 19  1  1
 20 28  1  0
 20 19  1  0
 21 20  2  0
 22 21  1  0
 22 23  1  0
 23 28  2  0
 24 23  1  0
 24 25  2  0
 25 26  1  0
 26 27  2  0
 28 27  1  0
 29 31  1  0
 30 29  2  0
M  END
$$$$
