QPW.pdb
     RDKit          3D

 31 33  0  0  1  0  0  0  0  0999 V2000
   13.9445  -19.2197   19.6728 N   0  0  0  0  0  0  0  0  0  0  0  0
   12.9485  -19.2566   18.6642 C   0  0  0  0  0  0  0  0  0  0  0  0
   13.2558  -19.7297   17.5585 O   0  0  0  0  0  0  0  0  0  0  0  0
   11.6130  -18.7422   18.9451 C   0  0  0  0  0  0  0  0  0  0  0  0
   11.0279  -17.7742   17.9897 C   0  0  0  0  0  0  0  0  0  0  0  0
    9.5895  -17.4338   18.1436 C   0  0  2  0  0  0  0  0  0  0  0  0
    9.3216  -16.3552   17.1602 N   0  0  0  0  0  0  0  0  0  0  0  0
    9.1614  -16.9334   19.4545 C   0  0  0  0  0  0  0  0  0  0  0  0
    9.5557  -15.7740   19.8160 O   0  0  0  0  0  0  0  0  0  0  0  0
    8.3278  -17.6558   20.3530 N   0  0  0  0  0  0  0  0  0  0  0  0
    7.8702  -19.0070   20.1138 C   0  0  0  0  0  0  0  0  0  0  0  0
    7.5065  -19.5036   21.4884 C   0  0  0  0  0  0  0  0  0  0  0  0
    6.8375  -18.2649   22.0754 C   0  0  0  0  0  0  0  0  0  0  0  0
    7.8357  -17.1917   21.6018 C   0  0  1  0  0  0  0  0  0  0  0  0
    8.8719  -17.1554   22.6695 C   0  0  0  0  0  0  0  0  0  0  0  0
    9.7612  -18.0428   22.6750 O   0  0  0  0  0  0  0  0  0  0  0  0
    8.9152  -16.1781   23.6813 N   0  0  0  0  0  0  0  0  0  0  0  0
    9.9598  -16.0785   24.6853 C   0  0  1  0  0  0  0  0  0  0  0  0
    9.6340  -14.8442   25.5099 C   0  0  0  0  0  0  0  0  0  0  0  0
    8.1818  -14.6684   25.7246 C   0  0  0  0  0  0  0  0  0  0  0  0
    7.2158  -15.6382   25.7947 C   0  0  0  0  0  0  0  0  0  0  0  0
    6.0021  -15.0784   26.0029 N   0  0  0  0  0  0  0  0  0  0  0  0
    6.1713  -13.7383   26.0698 C   0  0  0  0  0  0  0  0  0  0  0  0
    5.2373  -12.7437   26.2678 C   0  0  0  0  0  0  0  0  0  0  0  0
    5.6846  -11.4256   26.2936 C   0  0  0  0  0  0  0  0  0  0  0  0
    7.0062  -11.1198   26.1286 C   0  0  0  0  0  0  0  0  0  0  0  0
    7.9308  -12.1515   25.9294 C   0  0  0  0  0  0  0  0  0  0  0  0
    7.5260  -13.4696   25.8977 C   0  0  0  0  0  0  0  0  0  0  0  0
    9.8643  -17.2327   25.6480 C   0  0  0  0  0  0  0  0  0  0  0  0
    8.8166  -17.9367   25.6958 O   0  0  0  0  0  0  0  0  0  0  0  0
   10.8936  -17.5578   26.4949 O   0  0  0  0  0  0  0  0  0  0  0  0
  2  1  1  0
  3  2  2  0
  4  2  1  0
  5  4  1  0
  6  8  1  0
  6  5  1  0
  6  7  1  6
  8 10  1  0
  9  8  2  0
 10 11  1  0
 10 14  1  0
 11 12  1  0
 12 13  1  0
 14 13  1  0
 15 17  1  0
 14 15  1  1
 16 15  2  0
 18 29  1  0
 18 17  1  0
 18 19  1  1
 20 28  1  0
 20 19  1  0
 21 20  2  0
 22 21  1  0
 22 23  1  0
 23 28  2  0
 24 23  1  0
 24 25  2  0
 25 26  1  0
 26 27  2  0
 28 27  1  0
 29 31  1  0
 30 29  2  0
M  END
$$$$
