QPW.pdb
     RDKit          3D

 31 33  0  0  1  0  0  0  0  0999 V2000
    7.6886  -20.5254   24.4730 N   0  0  0  0  0  0  0  0  0  0  0  0
    6.5465  -19.9235   23.8866 C   0  0  0  0  0  0  0  0  0  0  0  0
    5.4276  -20.3255   24.2434 O   0  0  0  0  0  0  0  0  0  0  0  0
    6.7125  -18.8690   22.8928 C   0  0  0  0  0  0  0  0  0  0  0  0
    6.9220  -19.2715   21.4834 C   0  0  0  0  0  0  0  0  0  0  0  0
    7.1397  -18.1953   20.4819 C   0  0  2  0  0  0  0  0  0  0  0  0
    7.4660  -18.8867   19.2099 N   0  0  0  0  0  0  0  0  0  0  0  0
    8.2304  -17.2509   20.7474 C   0  0  0  0  0  0  0  0  0  0  0  0
    9.4312  -17.6587   20.5992 O   0  0  0  0  0  0  0  0  0  0  0  0
    8.0382  -15.9019   21.1566 N   0  0  0  0  0  0  0  0  0  0  0  0
    6.7389  -15.3114   21.3923 C   0  0  0  0  0  0  0  0  0  0  0  0
    7.0447  -14.1289   22.2736 C   0  0  0  0  0  0  0  0  0  0  0  0
    8.3241  -13.6092   21.6260 C   0  0  0  0  0  0  0  0  0  0  0  0
    9.0578  -14.9462   21.4099 C   0  0  1  0  0  0  0  0  0  0  0  0
    9.7829  -15.1794   22.6885 C   0  0  0  0  0  0  0  0  0  0  0  0
   10.7681  -14.4498   22.9630 O   0  0  0  0  0  0  0  0  0  0  0  0
    9.4275  -16.1766   23.6159 N   0  0  0  0  0  0  0  0  0  0  0  0
   10.1349  -16.4357   24.8575 C   0  0  1  0  0  0  0  0  0  0  0  0
    9.7313  -15.3234   25.8113 C   0  0  0  0  0  0  0  0  0  0  0  0
    8.2696  -15.1039   25.8458 C   0  0  0  0  0  0  0  0  0  0  0  0
    7.2735  -16.0185   25.6229 C   0  0  0  0  0  0  0  0  0  0  0  0
    6.0607  -15.4321   25.7463 N   0  0  0  0  0  0  0  0  0  0  0  0
    6.2608  -14.1298   26.0509 C   0  0  0  0  0  0  0  0  0  0  0  0
    5.3398  -13.1282   26.2735 C   0  0  0  0  0  0  0  0  0  0  0  0
    5.8200  -11.8564   26.5735 C   0  0  0  0  0  0  0  0  0  0  0  0
    7.1606  -11.6014   26.6467 C   0  0  0  0  0  0  0  0  0  0  0  0
    8.0712  -12.6389   26.4157 C   0  0  0  0  0  0  0  0  0  0  0  0
    7.6338  -13.9122   26.1159 C   0  0  0  0  0  0  0  0  0  0  0  0
    9.6232  -17.7029   25.4901 C   0  0  0  0  0  0  0  0  0  0  0  0
   10.1914  -18.1781   26.5133 O   0  0  0  0  0  0  0  0  0  0  0  0
    8.5392  -18.3778   24.9879 O   0  0  0  0  0  0  0  0  0  0  0  0
  2  1  1  0
  3  2  2  0
  4  2  1  0
  5  4  1  0
  6  8  1  0
  6  5  1  0
  6  7  1  6
  8 10  1  0
  9  8  2  0
 10 11  1  0
 10 14  1  0
 11 12  1  0
 12 13  1  0
 14 13  1  0
 15 17  1  0
 14 15  1  1
 16 15  2  0
 18 29  1  0
 18 17  1  0
 18 19  1  1
 20 28  1  0
 20 19  1  0
 21 20  2  0
 22 21  1  0
 22 23  1  0
 23 28  2  0
 24 23  1  0
 24 25  2  0
 25 26  1  0
 26 27  2  0
 28 27  1  0
 29 31  1  0
 30 29  2  0
M  END
$$$$
