QPW.pdb
     RDKit          3D

 31 33  0  0  1  0  0  0  0  0999 V2000
    6.6089  -21.0945   20.8654 N   0  0  0  0  0  0  0  0  0  0  0  0
    7.9730  -20.8788   21.1866 C   0  0  0  0  0  0  0  0  0  0  0  0
    8.5283  -21.6889   21.9457 O   0  0  0  0  0  0  0  0  0  0  0  0
    8.6754  -19.7278   20.6307 C   0  0  0  0  0  0  0  0  0  0  0  0
    7.9394  -18.8558   19.6873 C   0  0  0  0  0  0  0  0  0  0  0  0
    8.6420  -17.6560   19.1627 C   0  0  2  0  0  0  0  0  0  0  0  0
    9.7731  -18.1719   18.3522 N   0  0  0  0  0  0  0  0  0  0  0  0
    9.2102  -16.7331   20.1513 C   0  0  0  0  0  0  0  0  0  0  0  0
   10.4250  -16.9020   20.5062 O   0  0  0  0  0  0  0  0  0  0  0  0
    8.4954  -15.6534   20.7408 N   0  0  0  0  0  0  0  0  0  0  0  0
    7.1161  -15.3418   20.4362 C   0  0  0  0  0  0  0  0  0  0  0  0
    6.6691  -14.5284   21.6223 C   0  0  0  0  0  0  0  0  0  0  0  0
    7.9040  -13.6661   21.8631 C   0  0  0  0  0  0  0  0  0  0  0  0
    8.9958  -14.7414   21.7077 C   0  0  1  0  0  0  0  0  0  0  0  0
    9.1265  -15.3330   23.0672 C   0  0  0  0  0  0  0  0  0  0  0  0
    8.5218  -16.4055   23.3170 O   0  0  0  0  0  0  0  0  0  0  0  0
    9.8935  -14.7579   24.0974 N   0  0  0  0  0  0  0  0  0  0  0  0
   10.2690  -15.4404   25.3231 C   0  0  1  0  0  0  0  0  0  0  0  0
    9.0410  -16.2203   25.7632 C   0  0  0  0  0  0  0  0  0  0  0  0
    7.8315  -15.3751   25.8562 C   0  0  0  0  0  0  0  0  0  0  0  0
    6.5427  -15.7074   25.5289 C   0  0  0  0  0  0  0  0  0  0  0  0
    5.7156  -14.6613   25.7557 N   0  0  0  0  0  0  0  0  0  0  0  0
    6.4626  -13.6401   26.2330 C   0  0  0  0  0  0  0  0  0  0  0  0
    6.0773  -12.3709   26.6095 C   0  0  0  0  0  0  0  0  0  0  0  0
    7.0613  -11.5017   27.0726 C   0  0  0  0  0  0  0  0  0  0  0  0
    8.3697  -11.8873   27.1540 C   0  0  0  0  0  0  0  0  0  0  0  0
    8.7302  -13.1824   26.7643 C   0  0  0  0  0  0  0  0  0  0  0  0
    7.7838  -14.0722   26.3005 C   0  0  0  0  0  0  0  0  0  0  0  0
   11.3164  -16.4834   25.0349 C   0  0  0  0  0  0  0  0  0  0  0  0
   11.6945  -16.6949   23.8484 O   0  0  0  0  0  0  0  0  0  0  0  0
   11.8899  -17.2304   26.0326 O   0  0  0  0  0  0  0  0  0  0  0  0
  2  1  1  0
  3  2  2  0
  4  2  1  0
  5  4  1  0
  6  8  1  0
  6  5  1  0
  6  7  1  6
  8 10  1  0
  9  8  2  0
 10 11  1  0
 10 14  1  0
 11 12  1  0
 12 13  1  0
 14 13  1  0
 15 17  1  0
 14 15  1  1
 16 15  2  0
 18 29  1  0
 18 17  1  0
 18 19  1  6
 20 28  1  0
 20 19  1  0
 21 20  2  0
 22 21  1  0
 22 23  1  0
 23 28  2  0
 24 23  1  0
 24 25  2  0
 25 26  1  0
 26 27  2  0
 28 27  1  0
 29 31  1  0
 30 29  2  0
M  END
$$$$
