QPW.pdb
     RDKit          3D

 31 33  0  0  1  0  0  0  0  0999 V2000
   12.6271  -15.6310   16.6731 N   0  0  0  0  0  0  0  0  0  0  0  0
   11.5955  -15.6580   15.7008 C   0  0  0  0  0  0  0  0  0  0  0  0
   11.8894  -16.0145   14.5486 O   0  0  0  0  0  0  0  0  0  0  0  0
   10.2397  -15.2682   16.0713 C   0  0  0  0  0  0  0  0  0  0  0  0
    9.9842  -14.9059   17.4839 C   0  0  0  0  0  0  0  0  0  0  0  0
    8.5839  -14.6011   17.8774 C   0  0  2  0  0  0  0  0  0  0  0  0
    8.3386  -13.2019   17.4480 N   0  0  0  0  0  0  0  0  0  0  0  0
    8.2649  -14.6719   19.3075 C   0  0  0  0  0  0  0  0  0  0  0  0
    8.6169  -13.6971   20.0533 O   0  0  0  0  0  0  0  0  0  0  0  0
    7.5813  -15.7581   19.9216 N   0  0  0  0  0  0  0  0  0  0  0  0
    7.1051  -16.9181   19.2005 C   0  0  0  0  0  0  0  0  0  0  0  0
    6.9554  -17.9630   20.2749 C   0  0  0  0  0  0  0  0  0  0  0  0
    6.3707  -17.1285   21.4099 C   0  0  0  0  0  0  0  0  0  0  0  0
    7.2773  -15.8879   21.3028 C   0  0  1  0  0  0  0  0  0  0  0  0
    8.4611  -16.2232   22.1402 C   0  0  0  0  0  0  0  0  0  0  0  0
    9.3652  -16.9406   21.6439 O   0  0  0  0  0  0  0  0  0  0  0  0
    8.6294  -15.7805   23.4655 N   0  0  0  0  0  0  0  0  0  0  0  0
    9.7677  -16.1100   24.3050 C   0  0  1  0  0  0  0  0  0  0  0  0
    9.6822  -15.1878   25.5101 C   0  0  0  0  0  0  0  0  0  0  0  0
    8.2884  -14.8773   25.8931 C   0  0  0  0  0  0  0  0  0  0  0  0
    7.2344  -15.7445   26.0173 C   0  0  0  0  0  0  0  0  0  0  0  0
    6.1178  -15.0771   26.3882 N   0  0  0  0  0  0  0  0  0  0  0  0
    6.4391  -13.7690   26.5080 C   0  0  0  0  0  0  0  0  0  0  0  0
    5.6457  -12.6982   26.8612 C   0  0  0  0  0  0  0  0  0  0  0  0
    6.2352  -11.4379   26.9083 C   0  0  0  0  0  0  0  0  0  0  0  0
    7.5580  -11.2602   26.6150 C   0  0  0  0  0  0  0  0  0  0  0  0
    8.3379  -12.3666   26.2595 C   0  0  0  0  0  0  0  0  0  0  0  0
    7.7898  -13.6310   26.2019 C   0  0  0  0  0  0  0  0  0  0  0  0
    9.6154  -17.5011   24.8613 C   0  0  0  0  0  0  0  0  0  0  0  0
    8.5060  -18.1000   24.7830 O   0  0  0  0  0  0  0  0  0  0  0  0
   10.6575  -18.1595   25.4637 O   0  0  0  0  0  0  0  0  0  0  0  0
  2  1  1  0
  3  2  2  0
  4  2  1  0
  5  4  1  0
  6  8  1  0
  6  5  1  0
  6  7  1  1
  8 10  1  0
  9  8  2  0
 10 11  1  0
 10 14  1  0
 11 12  1  0
 12 13  1  0
 14 13  1  0
 15 17  1  0
 14 15  1  1
 16 15  2  0
 18 29  1  0
 18 17  1  0
 18 19  1  1
 20 28  1  0
 20 19  1  0
 21 20  2  0
 22 21  1  0
 22 23  1  0
 23 28  2  0
 24 23  1  0
 24 25  2  0
 25 26  1  0
 26 27  2  0
 28 27  1  0
 29 31  1  0
 30 29  2  0
M  END
$$$$
