QPW.pdb
     RDKit          3D

 31 33  0  0  1  0  0  0  0  0999 V2000
    6.8232  -12.9084   16.8980 N   0  0  0  0  0  0  0  0  0  0  0  0
    7.9672  -13.4943   16.2993 C   0  0  0  0  0  0  0  0  0  0  0  0
    8.1350  -13.3318   15.0801 O   0  0  0  0  0  0  0  0  0  0  0  0
    8.8989  -14.2638   17.1160 C   0  0  0  0  0  0  0  0  0  0  0  0
    8.7176  -15.7319   17.1775 C   0  0  0  0  0  0  0  0  0  0  0  0
    9.4510  -16.4757   18.2346 C   0  0  2  0  0  0  0  0  0  0  0  0
    9.0838  -17.9022   18.0543 N   0  0  0  0  0  0  0  0  0  0  0  0
    9.1445  -16.1278   19.6265 C   0  0  0  0  0  0  0  0  0  0  0  0
    9.7737  -15.1516   20.1570 O   0  0  0  0  0  0  0  0  0  0  0  0
    8.1843  -16.8064   20.4275 N   0  0  0  0  0  0  0  0  0  0  0  0
    7.5231  -18.0287   20.0261 C   0  0  0  0  0  0  0  0  0  0  0  0
    7.0510  -18.6175   21.3294 C   0  0  0  0  0  0  0  0  0  0  0  0
    6.5739  -17.3645   22.0565 C   0  0  0  0  0  0  0  0  0  0  0  0
    7.7419  -16.4184   21.7201 C   0  0  1  0  0  0  0  0  0  0  0  0
    8.7439  -16.6750   22.7902 C   0  0  0  0  0  0  0  0  0  0  0  0
    9.5061  -17.6670   22.6752 O   0  0  0  0  0  0  0  0  0  0  0  0
    8.8895  -15.8657   23.9324 N   0  0  0  0  0  0  0  0  0  0  0  0
    9.9263  -16.0360   24.9350 C   0  0  1  0  0  0  0  0  0  0  0  0
    9.7046  -14.9360   25.9601 C   0  0  0  0  0  0  0  0  0  0  0  0
    8.2902  -14.5147   26.0479 C   0  0  0  0  0  0  0  0  0  0  0  0
    7.1815  -15.3067   26.1970 C   0  0  0  0  0  0  0  0  0  0  0  0
    6.0631  -14.5468   26.2371 N   0  0  0  0  0  0  0  0  0  0  0  0
    6.4379  -13.2534   26.1141 C   0  0  0  0  0  0  0  0  0  0  0  0
    5.6642  -12.1122   26.0980 C   0  0  0  0  0  0  0  0  0  0  0  0
    6.3117  -10.8879   25.9565 C   0  0  0  0  0  0  0  0  0  0  0  0
    7.6708  -10.8119   25.8369 C   0  0  0  0  0  0  0  0  0  0  0  0
    8.4295  -11.9880   25.8568 C   0  0  0  0  0  0  0  0  0  0  0  0
    7.8241  -13.2196   25.9954 C   0  0  0  0  0  0  0  0  0  0  0  0
    9.7135  -17.3239   25.6861 C   0  0  0  0  0  0  0  0  0  0  0  0
   10.6063  -17.7614   26.4652 O   0  0  0  0  0  0  0  0  0  0  0  0
    8.5619  -18.0581   25.5550 O   0  0  0  0  0  0  0  0  0  0  0  0
  2  1  1  0
  3  2  2  0
  4  2  1  0
  5  4  1  0
  6  8  1  0
  6  5  1  0
  6  7  1  1
  8 10  1  0
  9  8  2  0
 10 11  1  0
 10 14  1  0
 11 12  1  0
 12 13  1  0
 14 13  1  0
 15 17  1  0
 14 15  1  1
 16 15  2  0
 18 29  1  0
 18 17  1  0
 18 19  1  1
 20 28  1  0
 20 19  1  0
 21 20  2  0
 22 21  1  0
 22 23  1  0
 23 28  2  0
 24 23  1  0
 24 25  2  0
 25 26  1  0
 26 27  2  0
 28 27  1  0
 29 31  1  0
 30 29  2  0
M  END
$$$$
