QPW.pdb
     RDKit          3D

 31 33  0  0  1  0  0  0  0  0999 V2000
    5.0238  -18.4831   23.0882 N   0  0  0  0  0  0  0  0  0  0  0  0
    6.1708  -19.3081   23.2083 C   0  0  0  0  0  0  0  0  0  0  0  0
    6.3849  -19.8531   24.3028 O   0  0  0  0  0  0  0  0  0  0  0  0
    7.0571  -19.4884   22.0641 C   0  0  0  0  0  0  0  0  0  0  0  0
    6.7267  -18.7715   20.8116 C   0  0  0  0  0  0  0  0  0  0  0  0
    7.8424  -18.1350   20.0641 C   0  0  2  0  0  0  0  0  0  0  0  0
    8.8032  -19.2258   19.7653 N   0  0  0  0  0  0  0  0  0  0  0  0
    8.5925  -17.0825   20.7583 C   0  0  0  0  0  0  0  0  0  0  0  0
    9.7084  -17.3916   21.2964 O   0  0  0  0  0  0  0  0  0  0  0  0
    8.1594  -15.7318   20.8684 N   0  0  0  0  0  0  0  0  0  0  0  0
    6.8626  -15.2657   20.4285 C   0  0  0  0  0  0  0  0  0  0  0  0
    6.6689  -13.9862   21.1991 C   0  0  0  0  0  0  0  0  0  0  0  0
    8.0709  -13.3899   21.1260 C   0  0  0  0  0  0  0  0  0  0  0  0
    8.8979  -14.6543   21.4258 C   0  0  1  0  0  0  0  0  0  0  0  0
    8.9787  -14.6982   22.9113 C   0  0  0  0  0  0  0  0  0  0  0  0
    8.5374  -13.7215   23.5667 O   0  0  0  0  0  0  0  0  0  0  0  0
    9.5240  -15.7777   23.6310 N   0  0  0  0  0  0  0  0  0  0  0  0
   10.2664  -15.6480   24.8724 C   0  0  1  0  0  0  0  0  0  0  0  0
    9.3136  -16.0713   25.9782 C   0  0  0  0  0  0  0  0  0  0  0  0
    8.0324  -15.3343   25.9406 C   0  0  0  0  0  0  0  0  0  0  0  0
    6.7831  -15.8274   25.6676 C   0  0  0  0  0  0  0  0  0  0  0  0
    5.8630  -14.8378   25.7315 N   0  0  0  0  0  0  0  0  0  0  0  0
    6.5094  -13.6927   26.0472 C   0  0  0  0  0  0  0  0  0  0  0  0
    6.0074  -12.4209   26.2251 C   0  0  0  0  0  0  0  0  0  0  0  0
    6.9035  -11.4062   26.5500 C   0  0  0  0  0  0  0  0  0  0  0  0
    8.2398  -11.6554   26.6898 C   0  0  0  0  0  0  0  0  0  0  0  0
    8.7195  -12.9569   26.5029 C   0  0  0  0  0  0  0  0  0  0  0  0
    7.8627  -13.9886   26.1803 C   0  0  0  0  0  0  0  0  0  0  0  0
   11.3880  -16.6521   24.9122 C   0  0  0  0  0  0  0  0  0  0  0  0
   11.4439  -17.5784   24.0552 O   0  0  0  0  0  0  0  0  0  0  0  0
   12.3747  -16.5999   25.8641 O   0  0  0  0  0  0  0  0  0  0  0  0
  2  1  1  0
  3  2  2  0
  4  2  1  0
  5  4  1  0
  6  8  1  0
  6  5  1  0
  6  7  1  1
  8 10  1  0
  9  8  2  0
 10 11  1  0
 10 14  1  0
 11 12  1  0
 12 13  1  0
 14 13  1  0
 15 17  1  0
 14 15  1  1
 16 15  2  0
 18 29  1  0
 18 17  1  0
 18 19  1  1
 20 28  1  0
 20 19  1  0
 21 20  2  0
 22 21  1  0
 22 23  1  0
 23 28  2  0
 24 23  1  0
 24 25  2  0
 25 26  1  0
 26 27  2  0
 28 27  1  0
 29 31  1  0
 30 29  2  0
M  END
$$$$
