QPW.pdb
     RDKit          3D

 31 33  0  0  1  0  0  0  0  0999 V2000
    3.8592  -18.8379   22.1563 N   0  0  0  0  0  0  0  0  0  0  0  0
    5.1521  -19.0190   22.7095 C   0  0  0  0  0  0  0  0  0  0  0  0
    5.2344  -19.4584   23.8676 O   0  0  0  0  0  0  0  0  0  0  0  0
    6.3319  -18.6854   21.9195 C   0  0  0  0  0  0  0  0  0  0  0  0
    6.1240  -18.0719   20.5882 C   0  0  0  0  0  0  0  0  0  0  0  0
    7.3291  -17.6918   19.8060 C   0  0  2  0  0  0  0  0  0  0  0  0
    8.0342  -18.9628   19.5064 N   0  0  0  0  0  0  0  0  0  0  0  0
    8.2986  -16.8099   20.4652 C   0  0  0  0  0  0  0  0  0  0  0  0
    9.3436  -17.3367   20.9759 O   0  0  0  0  0  0  0  0  0  0  0  0
    8.1537  -15.3985   20.5698 N   0  0  0  0  0  0  0  0  0  0  0  0
    7.0294  -14.6644   20.0316 C   0  0  0  0  0  0  0  0  0  0  0  0
    7.0436  -13.3769   20.8129 C   0  0  0  0  0  0  0  0  0  0  0  0
    8.5410  -13.0929   20.8744 C   0  0  0  0  0  0  0  0  0  0  0  0
    9.0513  -14.5060   21.2138 C   0  0  1  0  0  0  0  0  0  0  0  0
    8.9888  -14.5734   22.6993 C   0  0  0  0  0  0  0  0  0  0  0  0
    8.3986  -13.6535   23.3188 O   0  0  0  0  0  0  0  0  0  0  0  0
    9.5557  -15.6149   23.4571 N   0  0  0  0  0  0  0  0  0  0  0  0
   10.2597  -15.4294   24.7138 C   0  0  1  0  0  0  0  0  0  0  0  0
    9.3531  -16.0003   25.7918 C   0  0  0  0  0  0  0  0  0  0  0  0
    8.0184  -15.3647   25.8102 C   0  0  0  0  0  0  0  0  0  0  0  0
    6.8111  -15.9277   25.4875 C   0  0  0  0  0  0  0  0  0  0  0  0
    5.8167  -15.0220   25.6313 N   0  0  0  0  0  0  0  0  0  0  0  0
    6.3719  -13.8619   26.0492 C   0  0  0  0  0  0  0  0  0  0  0  0
    5.7723  -12.6533   26.3337 C   0  0  0  0  0  0  0  0  0  0  0  0
    6.5867  -11.6042   26.7510 C   0  0  0  0  0  0  0  0  0  0  0  0
    7.9385  -11.7600   26.8770 C   0  0  0  0  0  0  0  0  0  0  0  0
    8.5182  -12.9990   26.5809 C   0  0  0  0  0  0  0  0  0  0  0  0
    7.7443  -14.0622   26.1647 C   0  0  0  0  0  0  0  0  0  0  0  0
   11.4978  -16.2863   24.7450 C   0  0  0  0  0  0  0  0  0  0  0  0
   12.2971  -16.2145   25.7204 O   0  0  0  0  0  0  0  0  0  0  0  0
   11.7993  -17.1622   23.7329 O   0  0  0  0  0  0  0  0  0  0  0  0
  2  1  1  0
  3  2  2  0
  4  2  1  0
  5  4  1  0
  6  8  1  0
  6  5  1  0
  6  7  1  1
  8 10  1  0
  9  8  2  0
 10 11  1  0
 10 14  1  0
 11 12  1  0
 12 13  1  0
 14 13  1  0
 15 17  1  0
 14 15  1  1
 16 15  2  0
 18 29  1  0
 18 17  1  0
 18 19  1  1
 20 28  1  0
 20 19  1  0
 21 20  2  0
 22 21  1  0
 22 23  1  0
 23 28  2  0
 24 23  1  0
 24 25  2  0
 25 26  1  0
 26 27  2  0
 28 27  1  0
 29 31  1  0
 30 29  2  0
M  END
$$$$
