QPW.pdb
     RDKit          3D

 31 33  0  0  1  0  0  0  0  0999 V2000
    5.5769  -21.1711   22.4080 N   0  0  0  0  0  0  0  0  0  0  0  0
    5.8892  -20.0018   23.1469 C   0  0  0  0  0  0  0  0  0  0  0  0
    5.2941  -19.8140   24.2199 O   0  0  0  0  0  0  0  0  0  0  0  0
    6.8807  -19.0633   22.6338 C   0  0  0  0  0  0  0  0  0  0  0  0
    7.5392  -19.3850   21.3474 C   0  0  0  0  0  0  0  0  0  0  0  0
    7.8059  -18.2649   20.4078 C   0  0  2  0  0  0  0  0  0  0  0  0
    8.5720  -18.8550   19.2821 N   0  0  0  0  0  0  0  0  0  0  0  0
    8.5969  -17.1409   20.9208 C   0  0  0  0  0  0  0  0  0  0  0  0
    9.7923  -17.3706   21.3064 O   0  0  0  0  0  0  0  0  0  0  0  0
    8.1199  -15.8038   21.0135 N   0  0  0  0  0  0  0  0  0  0  0  0
    6.8216  -15.3793   20.5374 C   0  0  0  0  0  0  0  0  0  0  0  0
    6.5684  -14.1036   21.2970 C   0  0  0  0  0  0  0  0  0  0  0  0
    7.9529  -13.4648   21.2585 C   0  0  0  0  0  0  0  0  0  0  0  0
    8.8100  -14.7021   21.5856 C   0  0  1  0  0  0  0  0  0  0  0  0
    8.8525  -14.7383   23.0728 C   0  0  0  0  0  0  0  0  0  0  0  0
    8.3432  -13.7844   23.7125 O   0  0  0  0  0  0  0  0  0  0  0  0
    9.4337  -15.7860   23.8111 N   0  0  0  0  0  0  0  0  0  0  0  0
   10.3010  -15.6001   24.9611 C   0  0  1  0  0  0  0  0  0  0  0  0
    9.4426  -15.8775   26.1842 C   0  0  0  0  0  0  0  0  0  0  0  0
    8.1131  -15.2355   26.1056 C   0  0  0  0  0  0  0  0  0  0  0  0
    6.9070  -15.8242   25.8276 C   0  0  0  0  0  0  0  0  0  0  0  0
    5.9178  -14.9017   25.8489 N   0  0  0  0  0  0  0  0  0  0  0  0
    6.4754  -13.7049   26.1414 C   0  0  0  0  0  0  0  0  0  0  0  0
    5.8811  -12.4680   26.2750 C   0  0  0  0  0  0  0  0  0  0  0  0
    6.6969  -11.3831   26.5843 C   0  0  0  0  0  0  0  0  0  0  0  0
    8.0449  -11.5320   26.7518 C   0  0  0  0  0  0  0  0  0  0  0  0
    8.6193  -12.8004   26.6099 C   0  0  0  0  0  0  0  0  0  0  0  0
    7.8439  -13.8993   26.3039 C   0  0  0  0  0  0  0  0  0  0  0  0
   11.3697  -16.6610   24.9803 C   0  0  0  0  0  0  0  0  0  0  0  0
   12.3217  -16.5906   25.8075 O   0  0  0  0  0  0  0  0  0  0  0  0
   11.3504  -17.7257   24.1151 O   0  0  0  0  0  0  0  0  0  0  0  0
  2  1  1  0
  3  2  2  0
  4  2  1  0
  5  4  1  0
  6  8  1  0
  6  5  1  0
  6  7  1  6
  8 10  1  0
  9  8  2  0
 10 11  1  0
 10 14  1  0
 11 12  1  0
 12 13  1  0
 14 13  1  0
 15 17  1  0
 14 15  1  1
 16 15  2  0
 18 29  1  0
 18 17  1  0
 18 19  1  1
 20 28  1  0
 20 19  1  0
 21 20  2  0
 22 21  1  0
 22 23  1  0
 23 28  2  0
 24 23  1  0
 24 25  2  0
 25 26  1  0
 26 27  2  0
 28 27  1  0
 29 31  1  0
 30 29  2  0
M  END
$$$$
