QPW.pdb
     RDKit          3D

 31 33  0  0  1  0  0  0  0  0999 V2000
   10.3964  -21.4782   19.4882 N   0  0  0  0  0  0  0  0  0  0  0  0
   11.3194  -20.5818   20.0841 C   0  0  0  0  0  0  0  0  0  0  0  0
   12.1585  -21.0472   20.8717 O   0  0  0  0  0  0  0  0  0  0  0  0
   11.2573  -19.1598   19.7661 C   0  0  0  0  0  0  0  0  0  0  0  0
   10.2011  -18.7032   18.8345 C   0  0  0  0  0  0  0  0  0  0  0  0
   10.0748  -17.2420   18.5945 C   0  0  2  0  0  0  0  0  0  0  0  0
   11.3160  -16.8396   17.8876 N   0  0  0  0  0  0  0  0  0  0  0  0
    9.9581  -16.3819   19.7771 C   0  0  0  0  0  0  0  0  0  0  0  0
   11.0237  -15.8669   20.2563 O   0  0  0  0  0  0  0  0  0  0  0  0
    8.7294  -16.0776   20.4265 N   0  0  0  0  0  0  0  0  0  0  0  0
    7.4398  -16.5415   19.9636 C   0  0  0  0  0  0  0  0  0  0  0  0
    6.5686  -16.4380   21.1878 C   0  0  0  0  0  0  0  0  0  0  0  0
    7.0516  -15.1157   21.7750 C   0  0  0  0  0  0  0  0  0  0  0  0
    8.5709  -15.3066   21.6087 C   0  0  1  0  0  0  0  0  0  0  0  0
    8.9895  -16.0242   22.8436 C   0  0  0  0  0  0  0  0  0  0  0  0
    9.0662  -17.2779   22.8140 O   0  0  0  0  0  0  0  0  0  0  0  0
    9.3073  -15.3767   24.0520 N   0  0  0  0  0  0  0  0  0  0  0  0
    9.8738  -16.0364   25.2151 C   0  0  1  0  0  0  0  0  0  0  0  0
    9.4866  -15.1838   26.4122 C   0  0  0  0  0  0  0  0  0  0  0  0
    8.1006  -14.6765   26.3269 C   0  0  0  0  0  0  0  0  0  0  0  0
    6.9563  -15.3865   26.0720 C   0  0  0  0  0  0  0  0  0  0  0  0
    5.8821  -14.5644   26.0771 N   0  0  0  0  0  0  0  0  0  0  0  0
    6.3217  -13.3120   26.3359 C   0  0  0  0  0  0  0  0  0  0  0  0
    5.6103  -12.1358   26.4427 C   0  0  0  0  0  0  0  0  0  0  0  0
    6.3179  -10.9692   26.7193 C   0  0  0  0  0  0  0  0  0  0  0  0
    7.6747  -10.9819   26.8811 C   0  0  0  0  0  0  0  0  0  0  0  0
    8.3693  -12.1916   26.7668 C   0  0  0  0  0  0  0  0  0  0  0  0
    7.7033  -13.3682   26.4937 C   0  0  0  0  0  0  0  0  0  0  0  0
    9.1960  -17.3624   25.4395 C   0  0  0  0  0  0  0  0  0  0  0  0
    9.6886  -18.2008   26.2457 O   0  0  0  0  0  0  0  0  0  0  0  0
    8.0379  -17.7043   24.7880 O   0  0  0  0  0  0  0  0  0  0  0  0
  2  1  1  0
  3  2  2  0
  4  2  1  0
  5  4  1  0
  6  8  1  0
  6  5  1  0
  6  7  1  1
  8 10  1  0
  9  8  2  0
 10 11  1  0
 10 14  1  0
 11 12  1  0
 12 13  1  0
 14 13  1  0
 15 17  1  0
 14 15  1  1
 16 15  2  0
 18 29  1  0
 18 17  1  0
 18 19  1  1
 20 28  1  0
 20 19  1  0
 21 20  2  0
 22 21  1  0
 22 23  1  0
 23 28  2  0
 24 23  1  0
 24 25  2  0
 25 26  1  0
 26 27  2  0
 28 27  1  0
 29 31  1  0
 30 29  2  0
M  END
$$$$
