VVL.pdb
     RDKit          3D

 23 22  0  0  1  0  0  0  0  0999 V2000
   23.3501  -24.2612  -18.3558 C   0  0  0  0  0  0  0  0  0  0  0  0
   23.4672  -23.1677  -17.3450 C   0  0  2  0  0  0  0  0  0  0  0  0
   23.6348  -23.8189  -15.9740 C   0  0  0  0  0  0  0  0  0  0  0  0
   22.2789  -22.2637  -17.2500 C   0  0  2  0  0  0  0  0  0  0  0  0
   21.9444  -21.6715  -18.5204 N   0  0  0  0  0  0  0  0  0  0  0  0
   22.4844  -21.1612  -16.2608 C   0  0  0  0  0  0  0  0  0  0  0  0
   23.0347  -20.1440  -16.7177 O   0  0  0  0  0  0  0  0  0  0  0  0
   20.7184  -19.2159  -12.1136 C   0  0  0  0  0  0  0  0  0  0  0  0
   20.6581  -20.1761  -13.3149 C   0  0  1  0  0  0  0  0  0  0  0  0
   19.9868  -19.2630  -14.3869 C   0  0  0  0  0  0  0  0  0  0  0  0
   22.1039  -20.3378  -13.8376 C   0  0  2  0  0  0  0  0  0  0  0  0
   22.0804  -21.3041  -14.9561 N   0  0  0  0  0  0  0  0  0  0  0  0
   23.0082  -20.9158  -12.8253 C   0  0  0  0  0  0  0  0  0  0  0  0
   22.6652  -21.9862  -12.1969 O   0  0  0  0  0  0  0  0  0  0  0  0
   28.3612  -20.0536  -13.1026 C   0  0  0  0  0  0  0  0  0  0  0  0
   26.9845  -20.6386  -12.9216 C   0  0  1  0  0  0  0  0  0  0  0  0
   27.1330  -22.1436  -13.1601 C   0  0  0  0  0  0  0  0  0  0  0  0
   26.4528  -20.4699  -11.5389 C   0  0  0  0  0  0  0  0  0  0  0  0
   25.0447  -20.9907  -11.3417 C   0  0  2  0  0  0  0  0  0  0  0  0
   24.2710  -20.4120  -12.4488 N   0  0  0  0  0  0  0  0  0  0  0  0
   24.4721  -20.6688  -10.0374 C   0  0  0  0  0  0  0  0  0  0  0  0
   23.7081  -19.6883   -9.8755 O   0  0  0  0  0  0  0  0  0  0  0  0
   24.7503  -21.4379   -8.9186 O   0  0  0  0  0  0  0  0  0  0  0  0
  2  1  1  6
  2  4  1  0
  3  2  1  0
  4  5  1  6
  4  6  1  0
  6 12  1  0
  7  6  2  0
  9  8  1  1
  9 10  1  0
 11 13  1  0
 11  9  1  0
 11 12  1  6
 13 14  2  0
 16 15  1  1
 16 17  1  0
 18 16  1  0
 19 18  1  1
 20 19  1  0
 20 13  1  0
 21 19  1  0
 22 21  2  0
 23 21  1  0
M  END
$$$$
