VVL.pdb
     RDKit          3D

 23 22  0  0  1  0  0  0  0  0999 V2000
   21.0340  -17.6486  -17.4514 C   0  0  0  0  0  0  0  0  0  0  0  0
   21.9361  -18.5396  -16.6617 C   0  0  2  0  0  0  0  0  0  0  0  0
   22.0464  -17.9585  -15.2539 C   0  0  0  0  0  0  0  0  0  0  0  0
   23.3310  -18.6565  -17.1898 C   0  0  2  0  0  0  0  0  0  0  0  0
   23.3555  -19.0525  -18.5751 N   0  0  0  0  0  0  0  0  0  0  0  0
   24.1510  -19.6344  -16.4103 C   0  0  0  0  0  0  0  0  0  0  0  0
   23.7633  -20.8140  -16.4783 O   0  0  0  0  0  0  0  0  0  0  0  0
   28.5815  -20.3420  -14.3166 C   0  0  0  0  0  0  0  0  0  0  0  0
   27.6213  -19.5538  -15.2252 C   0  0  1  0  0  0  0  0  0  0  0  0
   27.8678  -20.2593  -16.5945 C   0  0  0  0  0  0  0  0  0  0  0  0
   26.1858  -19.9893  -14.8520 C   0  0  2  0  0  0  0  0  0  0  0  0
   25.2419  -19.2175  -15.6876 N   0  0  0  0  0  0  0  0  0  0  0  0
   25.8436  -19.6650  -13.4540 C   0  0  0  0  0  0  0  0  0  0  0  0
   25.9325  -18.4493  -13.0386 O   0  0  0  0  0  0  0  0  0  0  0  0
   21.3648  -20.6552  -11.0610 C   0  0  0  0  0  0  0  0  0  0  0  0
   22.8252  -21.0215  -11.1173 C   0  0  1  0  0  0  0  0  0  0  0  0
   23.0630  -21.5861  -12.5204 C   0  0  0  0  0  0  0  0  0  0  0  0
   23.7308  -19.8469  -10.9643 C   0  0  0  0  0  0  0  0  0  0  0  0
   25.2052  -20.1752  -11.0694 C   0  0  2  0  0  0  0  0  0  0  0  0
   25.4029  -20.5744  -12.4696 N   0  0  0  0  0  0  0  0  0  0  0  0
   25.6509  -21.2022  -10.1318 C   0  0  0  0  0  0  0  0  0  0  0  0
   26.1150  -22.2985  -10.5247 O   0  0  0  0  0  0  0  0  0  0  0  0
   25.5796  -21.0070   -8.7616 O   0  0  0  0  0  0  0  0  0  0  0  0
  2  1  1  6
  2  4  1  0
  3  2  1  0
  4  5  1  6
  4  6  1  0
  6 12  1  0
  7  6  2  0
  9  8  1  1
  9 10  1  0
 11 13  1  0
 11  9  1  0
 11 12  1  6
 13 14  2  0
 16 15  1  6
 16 17  1  0
 18 16  1  0
 19 18  1  6
 20 19  1  0
 20 13  1  0
 21 19  1  0
 22 21  2  0
 23 21  1  0
M  END
$$$$
