VVL.pdb
     RDKit          3D

 23 22  0  0  1  0  0  0  0  0999 V2000
   26.9120  -23.8808  -15.8282 C   0  0  0  0  0  0  0  0  0  0  0  0
   26.0056  -23.9543  -17.0132 C   0  0  2  0  0  0  0  0  0  0  0  0
   26.4787  -25.1127  -17.8884 C   0  0  0  0  0  0  0  0  0  0  0  0
   25.9971  -22.7350  -17.8801 C   0  0  2  0  0  0  0  0  0  0  0  0
   27.2777  -22.4987  -18.4971 N   0  0  0  0  0  0  0  0  0  0  0  0
   25.6099  -21.5051  -17.1227 C   0  0  0  0  0  0  0  0  0  0  0  0
   26.5492  -20.7322  -16.8643 O   0  0  0  0  0  0  0  0  0  0  0  0
   21.9172  -18.4168  -16.1594 C   0  0  0  0  0  0  0  0  0  0  0  0
   22.6154  -19.5262  -16.9659 C   0  0  1  0  0  0  0  0  0  0  0  0
   23.4517  -18.6759  -17.9714 C   0  0  0  0  0  0  0  0  0  0  0  0
   23.6893  -20.1480  -16.0439 C   0  0  2  0  0  0  0  0  0  0  0  0
   24.3036  -21.2858  -16.7600 N   0  0  0  0  0  0  0  0  0  0  0  0
   23.1133  -20.7133  -14.8089 C   0  0  0  0  0  0  0  0  0  0  0  0
   22.2631  -21.6777  -14.8820 O   0  0  0  0  0  0  0  0  0  0  0  0
   25.8013  -20.0934  -10.1043 C   0  0  0  0  0  0  0  0  0  0  0  0
   25.0211  -20.5759  -11.2996 C   0  0  1  0  0  0  0  0  0  0  0  0
   25.3142  -22.0741  -11.4156 C   0  0  0  0  0  0  0  0  0  0  0  0
   23.5462  -20.4350  -11.1330 C   0  0  0  0  0  0  0  0  0  0  0  0
   22.7344  -20.8997  -12.3238 C   0  0  2  0  0  0  0  0  0  0  0  0
   23.4025  -20.3054  -13.4897 N   0  0  0  0  0  0  0  0  0  0  0  0
   21.3206  -20.5409  -12.2523 C   0  0  0  0  0  0  0  0  0  0  0  0
   20.9068  -19.4127  -12.6092 O   0  0  0  0  0  0  0  0  0  0  0  0
   20.3724  -21.4371  -11.7851 O   0  0  0  0  0  0  0  0  0  0  0  0
  2  1  1  1
  2  4  1  0
  3  2  1  0
  4  5  1  1
  4  6  1  0
  6 12  1  0
  7  6  2  0
  9  8  1  1
  9 10  1  0
 11 13  1  0
 11  9  1  0
 11 12  1  6
 13 14  2  0
 16 15  1  1
 16 17  1  0
 18 16  1  0
 19 18  1  1
 20 19  1  0
 20 13  1  0
 21 19  1  0
 22 21  2  0
 23 21  1  0
M  END
$$$$
