VVL.pdb
     RDKit          3D

 23 22  0  0  1  0  0  0  0  0999 V2000
   21.0356  -20.0205  -12.4956 C   0  0  0  0  0  0  0  0  0  0  0  0
   22.1940  -20.5789  -11.7356 C   0  0  2  0  0  0  0  0  0  0  0  0
   22.3656  -19.7421  -10.4699 C   0  0  0  0  0  0  0  0  0  0  0  0
   23.5032  -20.5398  -12.4585 C   0  0  2  0  0  0  0  0  0  0  0  0
   23.4314  -21.1818  -13.7467 N   0  0  0  0  0  0  0  0  0  0  0  0
   24.6013  -21.1861  -11.6756 C   0  0  0  0  0  0  0  0  0  0  0  0
   24.5283  -22.4249  -11.5961 O   0  0  0  0  0  0  0  0  0  0  0  0
   29.3051  -21.0085  -10.6591 C   0  0  0  0  0  0  0  0  0  0  0  0
   28.0280  -20.5103  -11.3588 C   0  0  1  0  0  0  0  0  0  0  0  0
   27.8934  -21.5593  -12.5055 C   0  0  0  0  0  0  0  0  0  0  0  0
   26.8414  -20.8455  -10.4264 C   0  0  2  0  0  0  0  0  0  0  0  0
   25.5954  -20.4300  -11.1045 N   0  0  0  0  0  0  0  0  0  0  0  0
   26.8848  -20.0853   -9.1629 C   0  0  0  0  0  0  0  0  0  0  0  0
   26.4627  -18.8690   -9.1326 O   0  0  0  0  0  0  0  0  0  0  0  0
   27.3564  -22.2907   -3.9725 C   0  0  0  0  0  0  0  0  0  0  0  0
   26.9108  -21.3369   -5.0505 C   0  0  1  0  0  0  0  0  0  0  0  0
   25.9983  -20.3196   -4.3604 C   0  0  0  0  0  0  0  0  0  0  0  0
   28.0363  -20.5684   -5.6553 C   0  0  0  0  0  0  0  0  0  0  0  0
   27.6308  -19.6559   -6.7936 C   0  0  2  0  0  0  0  0  0  0  0  0
   27.3528  -20.5588   -7.9191 N   0  0  0  0  0  0  0  0  0  0  0  0
   28.6314  -18.6458   -7.1273 C   0  0  0  0  0  0  0  0  0  0  0  0
   28.6165  -17.5048   -6.6083 O   0  0  0  0  0  0  0  0  0  0  0  0
   29.6448  -18.9077   -8.0357 O   0  0  0  0  0  0  0  0  0  0  0  0
  2  1  1  6
  2  4  1  0
  3  2  1  0
  4  5  1  6
  4  6  1  0
  6 12  1  0
  7  6  2  0
  9  8  1  1
  9 10  1  0
 11 13  1  0
 11  9  1  0
 11 12  1  6
 13 14  2  0
 16 15  1  1
 16 17  1  0
 18 16  1  0
 19 18  1  1
 20 19  1  0
 20 13  1  0
 21 19  1  0
 22 21  2  0
 23 21  1  0
M  END
$$$$
