VVL.pdb
     RDKit          3D

 23 22  0  0  1  0  0  0  0  0999 V2000
   31.8390  -20.9030  -10.8495 C   0  0  0  0  0  0  0  0  0  0  0  0
   31.0907  -22.1049  -11.3257 C   0  0  2  0  0  0  0  0  0  0  0  0
   32.1135  -23.1141  -11.8423 C   0  0  0  0  0  0  0  0  0  0  0  0
   30.1325  -21.8508  -12.4462 C   0  0  2  0  0  0  0  0  0  0  0  0
   30.7997  -21.3880  -13.6367 N   0  0  0  0  0  0  0  0  0  0  0  0
   29.0852  -20.8486  -12.0788 C   0  0  0  0  0  0  0  0  0  0  0  0
   29.3126  -19.6885  -12.4646 O   0  0  0  0  0  0  0  0  0  0  0  0
   24.3990  -19.9922  -11.3178 C   0  0  0  0  0  0  0  0  0  0  0  0
   25.6239  -20.7465  -11.8650 C   0  0  1  0  0  0  0  0  0  0  0  0
   25.9409  -19.9057  -13.1401 C   0  0  0  0  0  0  0  0  0  0  0  0
   26.8083  -20.4288  -10.9236 C   0  0  2  0  0  0  0  0  0  0  0  0
   27.9719  -21.2248  -11.3679 N   0  0  0  0  0  0  0  0  0  0  0  0
   26.5476  -20.8398   -9.5309 C   0  0  0  0  0  0  0  0  0  0  0  0
   26.3061  -22.0759   -9.2626 O   0  0  0  0  0  0  0  0  0  0  0  0
   28.7440  -18.1759   -5.2877 C   0  0  0  0  0  0  0  0  0  0  0  0
   28.2340  -19.2788   -6.1786 C   0  0  1  0  0  0  0  0  0  0  0  0
   28.8582  -20.5714   -5.6462 C   0  0  0  0  0  0  0  0  0  0  0  0
   26.7547  -19.4519   -6.1090 C   0  0  0  0  0  0  0  0  0  0  0  0
   26.2010  -20.4938   -7.0582 C   0  0  2  0  0  0  0  0  0  0  0  0
   26.5364  -19.9968   -8.3997 N   0  0  0  0  0  0  0  0  0  0  0  0
   24.7700  -20.7380   -6.8992 C   0  0  0  0  0  0  0  0  0  0  0  0
   23.9165  -20.1380   -7.5941 O   0  0  0  0  0  0  0  0  0  0  0  0
   24.2932  -21.6481   -5.9691 O   0  0  0  0  0  0  0  0  0  0  0  0
  2  1  1  6
  2  4  1  0
  3  2  1  0
  4  5  1  6
  4  6  1  0
  6 12  1  0
  7  6  2  0
  9  8  1  1
  9 10  1  0
 11 13  1  0
 11  9  1  0
 11 12  1  6
 13 14  2  0
 16 15  1  1
 16 17  1  0
 18 16  1  0
 19 18  1  1
 20 19  1  0
 20 13  1  0
 21 19  1  0
 22 21  2  0
 23 21  1  0
M  END
$$$$
