VVL.pdb
     RDKit          3D

 23 22  0  0  1  0  0  0  0  0999 V2000
   20.8672  -20.5839  -11.9992 C   0  0  0  0  0  0  0  0  0  0  0  0
   22.1075  -21.0575  -11.3145 C   0  0  2  0  0  0  0  0  0  0  0  0
   22.2213  -20.3077   -9.9893 C   0  0  0  0  0  0  0  0  0  0  0  0
   23.3786  -20.8058  -12.0624 C   0  0  2  0  0  0  0  0  0  0  0  0
   23.3244  -21.3116  -13.4106 N   0  0  0  0  0  0  0  0  0  0  0  0
   24.5643  -21.4135  -11.3833 C   0  0  0  0  0  0  0  0  0  0  0  0
   24.5992  -22.6564  -11.4038 O   0  0  0  0  0  0  0  0  0  0  0  0
   29.2862  -20.7854  -10.5152 C   0  0  0  0  0  0  0  0  0  0  0  0
   27.9318  -20.3902  -11.1301 C   0  0  1  0  0  0  0  0  0  0  0  0
   27.8950  -21.3208  -12.3816 C   0  0  0  0  0  0  0  0  0  0  0  0
   26.8317  -20.9768  -10.2160 C   0  0  2  0  0  0  0  0  0  0  0  0
   25.5187  -20.6210  -10.7942 N   0  0  0  0  0  0  0  0  0  0  0  0
   26.8490  -20.3876   -8.8635 C   0  0  0  0  0  0  0  0  0  0  0  0
   26.1478  -19.3367   -8.6140 O   0  0  0  0  0  0  0  0  0  0  0  0
   29.4235  -22.1622   -3.7229 C   0  0  0  0  0  0  0  0  0  0  0  0
   28.3173  -21.4496   -4.4569 C   0  0  1  0  0  0  0  0  0  0  0  0
   27.8454  -20.3320   -3.5229 C   0  0  0  0  0  0  0  0  0  0  0  0
   28.7751  -20.7965   -5.7166 C   0  0  0  0  0  0  0  0  0  0  0  0
   27.6772  -20.1074   -6.4993 C   0  0  2  0  0  0  0  0  0  0  0  0
   27.5753  -20.8668   -7.7531 N   0  0  0  0  0  0  0  0  0  0  0  0
   27.9183  -18.6857   -6.7302 C   0  0  0  0  0  0  0  0  0  0  0  0
   28.6751  -18.2844   -7.6455 O   0  0  0  0  0  0  0  0  0  0  0  0
   27.3172  -17.7157   -5.9437 O   0  0  0  0  0  0  0  0  0  0  0  0
  2  1  1  6
  2  4  1  0
  3  2  1  0
  4  5  1  6
  4  6  1  0
  6 12  1  0
  7  6  2  0
  9  8  1  1
  9 10  1  0
 11 13  1  0
 11  9  1  0
 11 12  1  6
 13 14  2  0
 16 15  1  1
 16 17  1  0
 18 16  1  0
 19 18  1  1
 20 19  1  0
 20 13  1  0
 21 19  1  0
 22 21  2  0
 23 21  1  0
M  END
$$$$
