VVL.pdb
     RDKit          3D

 23 22  0  0  1  0  0  0  0  0999 V2000
   21.2759  -18.3668  -17.5678 C   0  0  0  0  0  0  0  0  0  0  0  0
   22.1212  -19.2056  -16.6660 C   0  0  2  0  0  0  0  0  0  0  0  0
   22.3771  -18.4043  -15.3916 C   0  0  0  0  0  0  0  0  0  0  0  0
   23.4614  -19.5758  -17.2183 C   0  0  2  0  0  0  0  0  0  0  0  0
   23.3569  -20.2727  -18.4753 N   0  0  0  0  0  0  0  0  0  0  0  0
   24.2458  -20.4306  -16.2747 C   0  0  0  0  0  0  0  0  0  0  0  0
   23.8480  -21.6048  -16.1783 O   0  0  0  0  0  0  0  0  0  0  0  0
   28.5130  -20.6420  -13.7008 C   0  0  0  0  0  0  0  0  0  0  0  0
   27.6330  -20.0249  -14.8025 C   0  0  1  0  0  0  0  0  0  0  0  0
   28.1161  -20.8291  -16.0488 C   0  0  0  0  0  0  0  0  0  0  0  0
   26.1948  -20.5449  -14.5768 C   0  0  2  0  0  0  0  0  0  0  0  0
   25.3174  -19.9163  -15.5868 N   0  0  0  0  0  0  0  0  0  0  0  0
   25.6499  -20.1450  -13.2654 C   0  0  0  0  0  0  0  0  0  0  0  0
   25.6228  -18.9004  -12.9359 O   0  0  0  0  0  0  0  0  0  0  0  0
   21.0197  -21.2627  -11.7428 C   0  0  0  0  0  0  0  0  0  0  0  0
   22.3580  -20.5750  -11.8216 C   0  0  1  0  0  0  0  0  0  0  0  0
   22.0824  -19.0896  -11.5737 C   0  0  0  0  0  0  0  0  0  0  0  0
   23.3097  -21.0211  -10.7640 C   0  0  0  0  0  0  0  0  0  0  0  0
   24.7290  -20.5273  -10.9503 C   0  0  2  0  0  0  0  0  0  0  0  0
   25.1230  -21.0081  -12.2817 N   0  0  0  0  0  0  0  0  0  0  0  0
   25.6504  -20.9680   -9.9065 C   0  0  0  0  0  0  0  0  0  0  0  0
   25.6613  -20.4404   -8.7694 O   0  0  0  0  0  0  0  0  0  0  0  0
   26.5556  -21.9934  -10.1302 O   0  0  0  0  0  0  0  0  0  0  0  0
  2  1  1  6
  2  4  1  0
  3  2  1  0
  4  5  1  6
  4  6  1  0
  6 12  1  0
  7  6  2  0
  9  8  1  1
  9 10  1  0
 11 13  1  0
 11  9  1  0
 11 12  1  6
 13 14  2  0
 16 15  1  1
 16 17  1  0
 18 16  1  0
 19 18  1  1
 20 19  1  0
 20 13  1  0
 21 19  1  0
 22 21  2  0
 23 21  1  0
M  END
$$$$
