VVL.pdb
     RDKit          3D

 23 22  0  0  1  0  0  0  0  0999 V2000
   28.8148  -18.3205  -14.7814 C   0  0  0  0  0  0  0  0  0  0  0  0
   28.6650  -19.8039  -14.6899 C   0  0  2  0  0  0  0  0  0  0  0  0
   29.4771  -20.4234  -15.8249 C   0  0  0  0  0  0  0  0  0  0  0  0
   27.2644  -20.3087  -14.8371 C   0  0  2  0  0  0  0  0  0  0  0  0
   26.7199  -20.0267  -16.1412 N   0  0  0  0  0  0  0  0  0  0  0  0
   26.3433  -19.7290  -13.8115 C   0  0  0  0  0  0  0  0  0  0  0  0
   25.8718  -18.6155  -14.1012 O   0  0  0  0  0  0  0  0  0  0  0  0
   22.6188  -20.4991  -11.1024 C   0  0  0  0  0  0  0  0  0  0  0  0
   23.7038  -20.8023  -12.1511 C   0  0  1  0  0  0  0  0  0  0  0  0
   23.2759  -19.8406  -13.3024 C   0  0  0  0  0  0  0  0  0  0  0  0
   25.0199  -20.1776  -11.6339 C   0  0  2  0  0  0  0  0  0  0  0  0
   26.0670  -20.4097  -12.6511 N   0  0  0  0  0  0  0  0  0  0  0  0
   25.5056  -20.8262  -10.4010 C   0  0  0  0  0  0  0  0  0  0  0  0
   25.8028  -22.0791  -10.4111 O   0  0  0  0  0  0  0  0  0  0  0  0
   28.2944  -18.3423   -6.4567 C   0  0  0  0  0  0  0  0  0  0  0  0
   27.7752  -19.4117   -7.3825 C   0  0  1  0  0  0  0  0  0  0  0  0
   28.8148  -20.5352   -7.3515 C   0  0  0  0  0  0  0  0  0  0  0  0
   26.4842  -20.0039   -6.9287 C   0  0  0  0  0  0  0  0  0  0  0  0
   25.8616  -20.9746   -7.9100 C   0  0  2  0  0  0  0  0  0  0  0  0
   25.6980  -20.2033   -9.1499 N   0  0  0  0  0  0  0  0  0  0  0  0
   24.6041  -21.5567   -7.4491 C   0  0  0  0  0  0  0  0  0  0  0  0
   23.4940  -21.0793   -7.7827 O   0  0  0  0  0  0  0  0  0  0  0  0
   24.5849  -22.6669   -6.6198 O   0  0  0  0  0  0  0  0  0  0  0  0
  2  1  1  6
  2  4  1  0
  3  2  1  0
  4  5  1  6
  4  6  1  0
  6 12  1  0
  7  6  2  0
  9  8  1  1
  9 10  1  0
 11 13  1  0
 11  9  1  0
 11 12  1  6
 13 14  2  0
 16 15  1  1
 16 17  1  0
 18 16  1  0
 19 18  1  1
 20 19  1  0
 20 13  1  0
 21 19  1  0
 22 21  2  0
 23 21  1  0
M  END
$$$$
