VVL.pdb
     RDKit          3D

 23 22  0  0  1  0  0  0  0  0999 V2000
   20.9315  -20.3607  -12.4497 C   0  0  0  0  0  0  0  0  0  0  0  0
   22.1381  -20.9400  -11.7865 C   0  0  2  0  0  0  0  0  0  0  0  0
   22.3008  -20.2499  -10.4341 C   0  0  0  0  0  0  0  0  0  0  0  0
   23.4230  -20.7439  -12.5273 C   0  0  2  0  0  0  0  0  0  0  0  0
   23.3642  -21.2743  -13.8659 N   0  0  0  0  0  0  0  0  0  0  0  0
   24.5827  -21.3755  -11.8256 C   0  0  0  0  0  0  0  0  0  0  0  0
   24.5955  -22.6188  -11.8504 O   0  0  0  0  0  0  0  0  0  0  0  0
   29.2615  -20.8182  -10.5897 C   0  0  0  0  0  0  0  0  0  0  0  0
   27.9772  -20.4571  -11.3573 C   0  0  1  0  0  0  0  0  0  0  0  0
   28.0612  -21.4535  -12.5546 C   0  0  0  0  0  0  0  0  0  0  0  0
   26.7884  -20.9942  -10.5279 C   0  0  2  0  0  0  0  0  0  0  0  0
   25.5386  -20.6027  -11.2132 N   0  0  0  0  0  0  0  0  0  0  0  0
   26.7181  -20.3876   -9.1849 C   0  0  0  0  0  0  0  0  0  0  0  0
   26.1257  -19.2555   -9.0239 O   0  0  0  0  0  0  0  0  0  0  0  0
   28.4844  -19.7076   -3.7288 C   0  0  0  0  0  0  0  0  0  0  0  0
   29.0050  -20.3911   -4.9665 C   0  0  1  0  0  0  0  0  0  0  0  0
   29.9790  -21.4652   -4.4751 C   0  0  0  0  0  0  0  0  0  0  0  0
   27.9411  -21.0929   -5.7403 C   0  0  0  0  0  0  0  0  0  0  0  0
   27.1904  -20.2103   -6.7151 C   0  0  2  0  0  0  0  0  0  0  0  0
   27.2451  -20.9311   -7.9944 N   0  0  0  0  0  0  0  0  0  0  0  0
   27.7251  -18.8553   -6.8189 C   0  0  0  0  0  0  0  0  0  0  0  0
   28.7035  -18.5860   -7.5550 O   0  0  0  0  0  0  0  0  0  0  0  0
   27.1704  -17.8050   -6.1049 O   0  0  0  0  0  0  0  0  0  0  0  0
  2  1  1  6
  2  4  1  0
  3  2  1  0
  4  5  1  6
  4  6  1  0
  6 12  1  0
  7  6  2  0
  9  8  1  1
  9 10  1  0
 11 13  1  0
 11  9  1  0
 11 12  1  6
 13 14  2  0
 16 15  1  1
 16 17  1  0
 18 16  1  0
 19 18  1  1
 20 19  1  0
 20 13  1  0
 21 19  1  0
 22 21  2  0
 23 21  1  0
M  END
$$$$
