VVL.pdb
     RDKit          3D

 23 22  0  0  1  0  0  0  0  0999 V2000
   16.9725   -9.4901  -16.7710 C   0  0  0  0  0  0  0  0  0  0  0  0
   18.1093   -9.8880  -17.6546 C   0  0  2  0  0  0  0  0  0  0  0  0
   17.5206  -10.3858  -18.9727 C   0  0  0  0  0  0  0  0  0  0  0  0
   18.9682  -10.9914  -17.1226 C   0  0  2  0  0  0  0  0  0  0  0  0
   18.2341  -12.2207  -16.9603 N   0  0  0  0  0  0  0  0  0  0  0  0
   19.5888  -10.6414  -15.8078 C   0  0  0  0  0  0  0  0  0  0  0  0
   18.9101  -10.9457  -14.8112 O   0  0  0  0  0  0  0  0  0  0  0  0
   23.2020  -11.4227  -15.4045 C   0  0  0  0  0  0  0  0  0  0  0  0
   23.1274   -9.9551  -14.9469 C   0  0  1  0  0  0  0  0  0  0  0  0
   23.3173   -9.2139  -16.3064 C   0  0  0  0  0  0  0  0  0  0  0  0
   21.6517   -9.6682  -14.5864 C   0  0  2  0  0  0  0  0  0  0  0  0
   20.8175  -10.0305  -15.7516 N   0  0  0  0  0  0  0  0  0  0  0  0
   21.3995   -8.2356  -14.3407 C   0  0  0  0  0  0  0  0  0  0  0  0
   22.0810   -7.6099  -13.4447 O   0  0  0  0  0  0  0  0  0  0  0  0
   21.7704   -3.4247  -13.5765 C   0  0  0  0  0  0  0  0  0  0  0  0
   21.7137   -3.9041  -15.0039 C   0  0  1  0  0  0  0  0  0  0  0  0
   23.0310   -3.4635  -15.6476 C   0  0  0  0  0  0  0  0  0  0  0  0
   21.6498   -5.3891  -15.1216 C   0  0  0  0  0  0  0  0  0  0  0  0
   20.3179   -5.9917  -14.7269 C   0  0  2  0  0  0  0  0  0  0  0  0
   20.4559   -7.4271  -15.0087 N   0  0  0  0  0  0  0  0  0  0  0  0
   19.1736   -5.3992  -15.4141 C   0  0  0  0  0  0  0  0  0  0  0  0
   18.7708   -5.8319  -16.5195 O   0  0  0  0  0  0  0  0  0  0  0  0
   18.4813   -4.3289  -14.8702 O   0  0  0  0  0  0  0  0  0  0  0  0
  2  1  1  1
  2  4  1  0
  3  2  1  0
  4  5  1  1
  4  6  1  0
  6 12  1  0
  7  6  2  0
  9  8  1  6
  9 10  1  0
 11 13  1  0
 11  9  1  0
 11 12  1  6
 13 14  2  0
 16 15  1  1
 16 17  1  0
 18 16  1  0
 19 18  1  6
 20 19  1  0
 20 13  1  0
 21 19  1  0
 22 21  2  0
 23 21  1  0
M  END
$$$$
