VVL.pdb
     RDKit          3D

 23 22  0  0  1  0  0  0  0  0999 V2000
   18.9069  -13.9783  -20.4667 C   0  0  0  0  0  0  0  0  0  0  0  0
   19.2604  -13.4138  -19.1297 C   0  0  2  0  0  0  0  0  0  0  0  0
   19.5049  -11.9170  -19.3077 C   0  0  0  0  0  0  0  0  0  0  0  0
   20.4982  -13.9816  -18.5102 C   0  0  2  0  0  0  0  0  0  0  0  0
   20.3963  -15.4034  -18.2989 N   0  0  0  0  0  0  0  0  0  0  0  0
   20.8220  -13.3372  -17.2001 C   0  0  0  0  0  0  0  0  0  0  0  0
   20.0657  -13.6477  -16.2631 O   0  0  0  0  0  0  0  0  0  0  0  0
   24.1209  -13.4845  -15.5663 C   0  0  0  0  0  0  0  0  0  0  0  0
   23.9181  -11.9798  -15.8185 C   0  0  1  0  0  0  0  0  0  0  0  0
   24.3912  -11.8643  -17.3005 C   0  0  0  0  0  0  0  0  0  0  0  0
   22.3940  -11.7379  -15.9097 C   0  0  2  0  0  0  0  0  0  0  0  0
   21.8837  -12.4737  -17.0857 N   0  0  0  0  0  0  0  0  0  0  0  0
   22.0613  -10.3202  -16.1464 C   0  0  0  0  0  0  0  0  0  0  0  0
   21.9994   -9.8696  -17.3512 O   0  0  0  0  0  0  0  0  0  0  0  0
   18.5602   -7.0102  -17.9236 C   0  0  0  0  0  0  0  0  0  0  0  0
   19.5263   -6.8450  -16.7792 C   0  0  1  0  0  0  0  0  0  0  0  0
   18.7004   -6.3105  -15.6060 C   0  0  0  0  0  0  0  0  0  0  0  0
   20.1310   -8.1324  -16.3318 C   0  0  0  0  0  0  0  0  0  0  0  0
   21.3877   -7.9784  -15.5011 C   0  0  2  0  0  0  0  0  0  0  0  0
   21.7833   -9.3516  -15.1591 N   0  0  0  0  0  0  0  0  0  0  0  0
   21.2156   -7.1400  -14.3178 C   0  0  0  0  0  0  0  0  0  0  0  0
   20.9700   -7.6308  -13.1908 O   0  0  0  0  0  0  0  0  0  0  0  0
   21.3177   -5.7598  -14.3914 O   0  0  0  0  0  0  0  0  0  0  0  0
  2  1  1  6
  2  4  1  0
  3  2  1  0
  4  5  1  1
  4  6  1  0
  6 12  1  0
  7  6  2  0
  9  8  1  6
  9 10  1  0
 11 13  1  0
 11  9  1  0
 11 12  1  6
 13 14  2  0
 16 15  1  6
 16 17  1  0
 18 16  1  0
 19 18  1  1
 20 19  1  0
 20 13  1  0
 21 19  1  0
 22 21  2  0
 23 21  1  0
M  END
$$$$
