VVL.pdb
     RDKit          3D

 23 22  0  0  1  0  0  0  0  0999 V2000
   21.2009  -21.2282  -10.7221 C   0  0  0  0  0  0  0  0  0  0  0  0
   21.9017  -20.0841  -11.3787 C   0  0  2  0  0  0  0  0  0  0  0  0
   20.8524  -19.2645  -12.1264 C   0  0  0  0  0  0  0  0  0  0  0  0
   22.9416  -20.4707  -12.3824 C   0  0  2  0  0  0  0  0  0  0  0  0
   22.4063  -21.3134  -13.4216 N   0  0  0  0  0  0  0  0  0  0  0  0
   24.0975  -21.1817  -11.7541 C   0  0  0  0  0  0  0  0  0  0  0  0
   24.0133  -22.4224  -11.7575 O   0  0  0  0  0  0  0  0  0  0  0  0
   28.8669  -21.0607  -10.8359 C   0  0  0  0  0  0  0  0  0  0  0  0
   27.5857  -20.4980  -11.4767 C   0  0  1  0  0  0  0  0  0  0  0  0
   27.4680  -21.4037  -12.7414 C   0  0  0  0  0  0  0  0  0  0  0  0
   26.4006  -20.9570  -10.5966 C   0  0  2  0  0  0  0  0  0  0  0  0
   25.1515  -20.4779  -11.2253 N   0  0  0  0  0  0  0  0  0  0  0  0
   26.4310  -20.3537   -9.2506 C   0  0  0  0  0  0  0  0  0  0  0  0
   25.9106  -19.1916   -9.0580 O   0  0  0  0  0  0  0  0  0  0  0  0
   27.5490  -20.3858   -3.6526 C   0  0  0  0  0  0  0  0  0  0  0  0
   28.5796  -20.3808   -4.7517 C   0  0  1  0  0  0  0  0  0  0  0  0
   29.7495  -21.2222   -4.2345 C   0  0  0  0  0  0  0  0  0  0  0  0
   28.1018  -21.0290   -6.0066 C   0  0  0  0  0  0  0  0  0  0  0  0
   27.2061  -20.1561   -6.8602 C   0  0  2  0  0  0  0  0  0  0  0  0
   26.9860  -20.9309   -8.0891 N   0  0  0  0  0  0  0  0  0  0  0  0
   27.7562  -18.8307   -7.1314 C   0  0  0  0  0  0  0  0  0  0  0  0
   28.6994  -18.6599   -7.9392 O   0  0  0  0  0  0  0  0  0  0  0  0
   27.2557  -17.7006   -6.5045 O   0  0  0  0  0  0  0  0  0  0  0  0
  2  1  1  6
  2  4  1  0
  3  2  1  0
  4  5  1  6
  4  6  1  0
  6 12  1  0
  7  6  2  0
  9  8  1  1
  9 10  1  0
 11 13  1  0
 11  9  1  0
 11 12  1  6
 13 14  2  0
 16 15  1  1
 16 17  1  0
 18 16  1  0
 19 18  1  1
 20 19  1  0
 20 13  1  0
 21 19  1  0
 22 21  2  0
 23 21  1  0
M  END
$$$$
