VVL.pdb
     RDKit          3D

 23 22  0  0  1  0  0  0  0  0999 V2000
   21.3395  -34.8582  -15.3072 C   0  0  0  0  0  0  0  0  0  0  0  0
   21.4665  -33.9843  -14.1024 C   0  0  2  0  0  0  0  0  0  0  0  0
   20.0602  -33.7246  -13.5671 C   0  0  0  0  0  0  0  0  0  0  0  0
   22.0856  -32.6457  -14.3540 C   0  0  2  0  0  0  0  0  0  0  0  0
   23.4457  -32.7551  -14.8174 N   0  0  0  0  0  0  0  0  0  0  0  0
   22.0761  -31.7799  -13.1348 C   0  0  0  0  0  0  0  0  0  0  0  0
   23.0287  -31.9616  -12.3564 O   0  0  0  0  0  0  0  0  0  0  0  0
   20.2987  -27.5650  -11.2582 C   0  0  0  0  0  0  0  0  0  0  0  0
   20.6143  -28.5152  -12.4271 C   0  0  1  0  0  0  0  0  0  0  0  0
   22.0477  -28.0372  -12.8149 C   0  0  0  0  0  0  0  0  0  0  0  0
   20.8568  -29.9155  -11.8188 C   0  0  2  0  0  0  0  0  0  0  0  0
   21.0716  -30.8661  -12.9302 N   0  0  0  0  0  0  0  0  0  0  0  0
   19.6841  -30.4196  -11.0789 C   0  0  0  0  0  0  0  0  0  0  0  0
   18.5477  -30.5253  -11.6753 O   0  0  0  0  0  0  0  0  0  0  0  0
   17.4482  -34.2806   -7.5334 C   0  0  0  0  0  0  0  0  0  0  0  0
   17.7632  -32.8428   -7.2115 C   0  0  1  0  0  0  0  0  0  0  0  0
   18.2531  -32.8345   -5.7611 C   0  0  0  0  0  0  0  0  0  0  0  0
   18.8665  -32.2837   -8.0442 C   0  0  0  0  0  0  0  0  0  0  0  0
   18.4226  -31.2551   -9.0628 C   0  0  2  0  0  0  0  0  0  0  0  0
   19.6603  -30.8255   -9.7280 N   0  0  0  0  0  0  0  0  0  0  0  0
   17.6841  -30.1339   -8.4882 C   0  0  0  0  0  0  0  0  0  0  0  0
   18.2693  -29.1395   -7.9981 O   0  0  0  0  0  0  0  0  0  0  0  0
   16.2985  -30.1218   -8.4607 O   0  0  0  0  0  0  0  0  0  0  0  0
  2  1  1  6
  2  4  1  0
  3  2  1  0
  4  5  1  1
  4  6  1  0
  6 12  1  0
  7  6  2  0
  9  8  1  1
  9 10  1  0
 11 13  1  0
 11  9  1  0
 11 12  1  6
 13 14  2  0
 16 15  1  6
 16 17  1  0
 18 16  1  0
 19 18  1  1
 20 19  1  0
 20 13  1  0
 21 19  1  0
 22 21  2  0
 23 21  1  0
M  END
$$$$
