AKW.pdb
     RDKit          3D

 29 30  0  0  1  0  0  0  0  0999 V2000
    8.7390  -12.2357   19.6359 C   0  0  0  0  0  0  0  0  0  0  0  0
    8.4000  -13.5989   19.0172 C   0  0  2  0  0  0  0  0  0  0  0  0
    7.0835  -13.4796   18.4524 N   0  0  0  0  0  0  0  0  0  0  0  0
    8.3708  -14.5732   20.1195 C   0  0  0  0  0  0  0  0  0  0  0  0
    7.3682  -14.6129   20.8716 O   0  0  0  0  0  0  0  0  0  0  0  0
    9.4255  -15.4959   20.3984 N   0  0  0  0  0  0  0  0  0  0  0  0
    9.2818  -16.5645   21.3611 C   0  0  1  0  0  0  0  0  0  0  0  0
   10.0445  -17.7964   20.8871 C   0  0  0  0  0  0  0  0  0  0  0  0
    9.5268  -18.3209   19.5924 C   0  0  0  0  0  0  0  0  0  0  0  0
   10.4090  -19.4597   19.1477 C   0  0  0  0  0  0  0  0  0  0  0  0
   10.0264  -19.9830   17.7854 C   0  0  0  0  0  0  0  0  0  0  0  0
   10.8995  -21.1071   17.4697 N   0  0  0  0  0  0  0  0  0  0  0  0
    9.9218  -16.1552   22.6389 C   0  0  0  0  0  0  0  0  0  0  0  0
   11.0889  -15.6591   22.5575 O   0  0  0  0  0  0  0  0  0  0  0  0
    9.2991  -16.2950   23.8871 N   0  0  0  0  0  0  0  0  0  0  0  0
   10.0980  -16.1136   25.1067 C   0  0  1  0  0  0  0  0  0  0  0  0
    9.7833  -14.7334   25.5819 C   0  0  0  0  0  0  0  0  0  0  0  0
    8.3561  -14.5496   25.8394 C   0  0  0  0  0  0  0  0  0  0  0  0
    7.4413  -15.6052   25.7570 C   0  0  0  0  0  0  0  0  0  0  0  0
    6.2391  -15.0781   26.0099 N   0  0  0  0  0  0  0  0  0  0  0  0
    6.3371  -13.7642   26.2462 C   0  0  0  0  0  0  0  0  0  0  0  0
    5.3817  -12.8019   26.5675 C   0  0  0  0  0  0  0  0  0  0  0  0
    5.7732  -11.5095   26.7811 C   0  0  0  0  0  0  0  0  0  0  0  0
    7.1061  -11.1849   26.6741 C   0  0  0  0  0  0  0  0  0  0  0  0
    8.0657  -12.1127   26.3584 C   0  0  0  0  0  0  0  0  0  0  0  0
    7.6624  -13.4162   26.1431 C   0  0  0  0  0  0  0  0  0  0  0  0
    9.8411  -17.1898   26.0686 C   0  0  0  0  0  0  0  0  0  0  0  0
    8.9258  -18.0297   25.8003 O   0  0  0  0  0  0  0  0  0  0  0  0
   10.5189  -17.3757   27.2511 O   0  0  0  0  0  0  0  0  0  0  0  0
  2  3  1  0
  2  1  1  1
  4  5  2  0
  4  2  1  0
  6  4  1  0
  7  6  1  0
  7 13  1  0
  7  8  1  6
  9  8  1  0
 10  9  1  0
 11 10  1  0
 12 11  1  0
 13 14  2  0
 13 15  1  0
 15 16  1  0
 16 17  1  1
 16 27  1  0
 18 19  2  0
 18 17  1  0
 20 19  1  0
 21 26  2  0
 21 20  1  0
 22 21  1  0
 23 24  1  0
 23 22  2  0
 24 25  2  0
 25 26  1  0
 26 18  1  0
 27 29  1  0
 28 27  2  0
M  END
$$$$
