AKW.pdb
     RDKit          3D

 29 30  0  0  1  0  0  0  0  0999 V2000
    8.5281  -12.1475   19.5537 C   0  0  0  0  0  0  0  0  0  0  0  0
    8.5843  -13.5276   18.8844 C   0  0  2  0  0  0  0  0  0  0  0  0
    7.5451  -13.5472   17.8914 N   0  0  0  0  0  0  0  0  0  0  0  0
    8.2809  -14.5209   19.9268 C   0  0  0  0  0  0  0  0  0  0  0  0
    7.3747  -14.2751   20.7578 O   0  0  0  0  0  0  0  0  0  0  0  0
    8.9598  -15.7710   20.0610 N   0  0  0  0  0  0  0  0  0  0  0  0
    8.6192  -16.7278   21.0895 C   0  0  1  0  0  0  0  0  0  0  0  0
    8.9876  -18.1347   20.6322 C   0  0  0  0  0  0  0  0  0  0  0  0
    8.7399  -19.1573   21.6869 C   0  0  0  0  0  0  0  0  0  0  0  0
    8.9357  -20.5257   21.0854 C   0  0  0  0  0  0  0  0  0  0  0  0
    8.6740  -21.6310   22.0782 C   0  0  0  0  0  0  0  0  0  0  0  0
    8.7745  -22.9048   21.3758 N   0  0  0  0  0  0  0  0  0  0  0  0
    9.4479  -16.4604   22.2942 C   0  0  0  0  0  0  0  0  0  0  0  0
   10.6793  -16.2176   22.0955 O   0  0  0  0  0  0  0  0  0  0  0  0
    8.9306  -16.4677   23.5972 N   0  0  0  0  0  0  0  0  0  0  0  0
    9.8382  -16.2207   24.7259 C   0  0  1  0  0  0  0  0  0  0  0  0
    9.5597  -14.8180   25.1556 C   0  0  0  0  0  0  0  0  0  0  0  0
    8.1930  -14.6517   25.6471 C   0  0  0  0  0  0  0  0  0  0  0  0
    7.2931  -15.7203   25.7250 C   0  0  0  0  0  0  0  0  0  0  0  0
    6.1424  -15.2077   26.1725 N   0  0  0  0  0  0  0  0  0  0  0  0
    6.2590  -13.8906   26.3816 C   0  0  0  0  0  0  0  0  0  0  0  0
    5.3566  -12.9389   26.8528 C   0  0  0  0  0  0  0  0  0  0  0  0
    5.7591  -11.6397   26.9905 C   0  0  0  0  0  0  0  0  0  0  0  0
    7.0504  -11.2977   26.6602 C   0  0  0  0  0  0  0  0  0  0  0  0
    7.9573  -12.2148   26.1936 C   0  0  0  0  0  0  0  0  0  0  0  0
    7.5431  -13.5254   26.0562 C   0  0  0  0  0  0  0  0  0  0  0  0
    9.6790  -17.2451   25.7626 C   0  0  0  0  0  0  0  0  0  0  0  0
    8.7579  -18.1088   25.6176 O   0  0  0  0  0  0  0  0  0  0  0  0
   10.4555  -17.3581   26.8924 O   0  0  0  0  0  0  0  0  0  0  0  0
  2  3  1  0
  2  1  1  1
  4  5  2  0
  4  2  1  0
  6  4  1  0
  7  6  1  0
  7 13  1  0
  7  8  1  6
  9  8  1  0
 10  9  1  0
 11 10  1  0
 12 11  1  0
 13 14  2  0
 13 15  1  0
 15 16  1  0
 16 17  1  1
 16 27  1  0
 18 19  2  0
 18 17  1  0
 20 19  1  0
 21 26  2  0
 21 20  1  0
 22 21  1  0
 23 24  1  0
 23 22  2  0
 24 25  2  0
 25 26  1  0
 26 18  1  0
 27 29  1  0
 28 27  2  0
M  END
$$$$
