AKW.pdb
     RDKit          3D

 29 30  0  0  1  0  0  0  0  0999 V2000
    7.8998  -12.4337   20.4445 C   0  0  0  0  0  0  0  0  0  0  0  0
    7.9691  -13.7752   19.7020 C   0  0  2  0  0  0  0  0  0  0  0  0
    6.7344  -13.9105   18.9784 N   0  0  0  0  0  0  0  0  0  0  0  0
    8.0507  -14.8275   20.7273 C   0  0  0  0  0  0  0  0  0  0  0  0
    6.9942  -15.2437   21.2592 O   0  0  0  0  0  0  0  0  0  0  0  0
    9.2738  -15.4204   21.1681 N   0  0  0  0  0  0  0  0  0  0  0  0
    9.3027  -16.5706   22.0430 C   0  0  1  0  0  0  0  0  0  0  0  0
   10.3144  -17.5886   21.5289 C   0  0  0  0  0  0  0  0  0  0  0  0
    9.8500  -18.2749   20.2909 C   0  0  0  0  0  0  0  0  0  0  0  0
   10.9294  -19.2223   19.8325 C   0  0  0  0  0  0  0  0  0  0  0  0
   10.9928  -19.3349   18.3295 C   0  0  0  0  0  0  0  0  0  0  0  0
   12.1142  -20.2012   17.9864 N   0  0  0  0  0  0  0  0  0  0  0  0
    9.7923  -16.1493   23.3818 C   0  0  0  0  0  0  0  0  0  0  0  0
   10.7891  -15.3613   23.4011 O   0  0  0  0  0  0  0  0  0  0  0  0
    9.2085  -16.5796   24.5815 N   0  0  0  0  0  0  0  0  0  0  0  0
    9.8415  -16.2104   25.8550 C   0  0  1  0  0  0  0  0  0  0  0  0
    8.7175  -16.0743   26.8286 C   0  0  0  0  0  0  0  0  0  0  0  0
    7.6829  -15.1573   26.3534 C   0  0  0  0  0  0  0  0  0  0  0  0
    6.5052  -15.6104   25.7484 C   0  0  0  0  0  0  0  0  0  0  0  0
    5.8163  -14.5169   25.4068 N   0  0  0  0  0  0  0  0  0  0  0  0
    6.4806  -13.4087   25.7568 C   0  0  0  0  0  0  0  0  0  0  0  0
    6.1687  -12.0565   25.6293 C   0  0  0  0  0  0  0  0  0  0  0  0
    7.0408  -11.1168   26.1043 C   0  0  0  0  0  0  0  0  0  0  0  0
    8.2115  -11.5267   26.7001 C   0  0  0  0  0  0  0  0  0  0  0  0
    8.5422  -12.8508   26.8370 C   0  0  0  0  0  0  0  0  0  0  0  0
    7.6566  -13.7945   26.3538 C   0  0  0  0  0  0  0  0  0  0  0  0
   10.8853  -17.1723   26.2217 C   0  0  0  0  0  0  0  0  0  0  0  0
   11.5998  -16.9236   27.2430 O   0  0  0  0  0  0  0  0  0  0  0  0
   11.1589  -18.3411   25.5499 O   0  0  0  0  0  0  0  0  0  0  0  0
  2  3  1  0
  2  1  1  1
  4  5  2  0
  4  2  1  0
  6  4  1  0
  7  6  1  0
  7 13  1  0
  7  8  1  6
  9  8  1  0
 10  9  1  0
 11 10  1  0
 12 11  1  0
 13 14  2  0
 13 15  1  0
 15 16  1  0
 16 17  1  1
 16 27  1  0
 18 19  2  0
 18 17  1  0
 20 19  1  0
 21 26  2  0
 21 20  1  0
 22 21  1  0
 23 24  1  0
 23 22  2  0
 24 25  2  0
 25 26  1  0
 26 18  1  0
 27 29  1  0
 28 27  2  0
M  END
$$$$
