AKW.pdb
     RDKit          3D

 29 30  0  0  1  0  0  0  0  0999 V2000
    5.5405  -19.7903   24.2109 C   0  0  0  0  0  0  0  0  0  0  0  0
    5.4059  -19.6105   22.6925 C   0  0  2  0  0  0  0  0  0  0  0  0
    5.6148  -20.9051   22.1036 N   0  0  0  0  0  0  0  0  0  0  0  0
    6.4859  -18.7040   22.2720 C   0  0  0  0  0  0  0  0  0  0  0  0
    7.6383  -19.1674   22.0995 O   0  0  0  0  0  0  0  0  0  0  0  0
    6.3104  -17.3048   22.0416 N   0  0  0  0  0  0  0  0  0  0  0  0
    7.4124  -16.4347   21.6984 C   0  0  1  0  0  0  0  0  0  0  0  0
    6.8879  -15.1790   21.0112 C   0  0  0  0  0  0  0  0  0  0  0  0
    7.9847  -14.3263   20.4733 C   0  0  0  0  0  0  0  0  0  0  0  0
    7.3763  -13.2385   19.6252 C   0  0  0  0  0  0  0  0  0  0  0  0
    8.4146  -12.4736   18.8424 C   0  0  0  0  0  0  0  0  0  0  0  0
    7.7619  -11.3262   18.2236 N   0  0  0  0  0  0  0  0  0  0  0  0
    8.0714  -15.9710   22.9475 C   0  0  0  0  0  0  0  0  0  0  0  0
    7.3537  -15.3016   23.7548 O   0  0  0  0  0  0  0  0  0  0  0  0
    9.4132  -16.2401   23.2515 N   0  0  0  0  0  0  0  0  0  0  0  0
   10.0384  -15.5519   24.3891 C   0  0  1  0  0  0  0  0  0  0  0  0
    9.2901  -16.0214   25.5930 C   0  0  0  0  0  0  0  0  0  0  0  0
    8.0806  -15.2362   25.8329 C   0  0  0  0  0  0  0  0  0  0  0  0
    6.8011  -15.7993   25.7707 C   0  0  0  0  0  0  0  0  0  0  0  0
    5.9422  -14.8007   25.9988 N   0  0  0  0  0  0  0  0  0  0  0  0
    6.5951  -13.6497   26.2008 C   0  0  0  0  0  0  0  0  0  0  0  0
    6.1460  -12.3621   26.4880 C   0  0  0  0  0  0  0  0  0  0  0  0
    7.0548  -11.3572   26.6703 C   0  0  0  0  0  0  0  0  0  0  0  0
    8.3978  -11.6387   26.5665 C   0  0  0  0  0  0  0  0  0  0  0  0
    8.8654  -12.8968   26.2841 C   0  0  0  0  0  0  0  0  0  0  0  0
    7.9412  -13.9068   26.1001 C   0  0  0  0  0  0  0  0  0  0  0  0
   11.4860  -15.7824   24.4121 C   0  0  0  0  0  0  0  0  0  0  0  0
   12.1594  -15.2805   25.3661 O   0  0  0  0  0  0  0  0  0  0  0  0
   12.1886  -16.5106   23.4802 O   0  0  0  0  0  0  0  0  0  0  0  0
  2  3  1  0
  2  1  1  1
  4  5  2  0
  4  2  1  0
  6  4  1  0
  7  6  1  0
  7 13  1  0
  7  8  1  1
  9  8  1  0
 10  9  1  0
 11 10  1  0
 12 11  1  0
 13 14  2  0
 13 15  1  0
 15 16  1  0
 16 17  1  1
 16 27  1  0
 18 19  2  0
 18 17  1  0
 20 19  1  0
 21 26  2  0
 21 20  1  0
 22 21  1  0
 23 24  1  0
 23 22  2  0
 24 25  2  0
 25 26  1  0
 26 18  1  0
 27 29  1  0
 28 27  2  0
M  END
$$$$
