AKW.pdb
     RDKit          3D

 29 30  0  0  1  0  0  0  0  0999 V2000
    7.9886  -12.0935   20.2864 C   0  0  0  0  0  0  0  0  0  0  0  0
    8.1979  -13.3855   19.4847 C   0  0  2  0  0  0  0  0  0  0  0  0
    7.1317  -13.4513   18.5226 N   0  0  0  0  0  0  0  0  0  0  0  0
    8.0678  -14.5029   20.4331 C   0  0  0  0  0  0  0  0  0  0  0  0
    6.9225  -14.8838   20.7732 O   0  0  0  0  0  0  0  0  0  0  0  0
    9.1770  -15.1987   21.0051 N   0  0  0  0  0  0  0  0  0  0  0  0
    9.0066  -16.3388   21.8771 C   0  0  1  0  0  0  0  0  0  0  0  0
    9.7531  -17.5415   21.3110 C   0  0  0  0  0  0  0  0  0  0  0  0
    9.1722  -18.0154   20.0236 C   0  0  0  0  0  0  0  0  0  0  0  0
    9.9152  -19.2525   19.5873 C   0  0  0  0  0  0  0  0  0  0  0  0
    9.3746  -19.8212   18.2988 C   0  0  0  0  0  0  0  0  0  0  0  0
   10.2116  -20.9519   17.9157 N   0  0  0  0  0  0  0  0  0  0  0  0
    9.6415  -16.0452   23.1888 C   0  0  0  0  0  0  0  0  0  0  0  0
   10.7124  -15.3616   23.1624 O   0  0  0  0  0  0  0  0  0  0  0  0
    9.1134  -16.4841   24.4110 N   0  0  0  0  0  0  0  0  0  0  0  0
    9.8939  -16.2804   25.6391 C   0  0  1  0  0  0  0  0  0  0  0  0
    8.8832  -16.0632   26.7166 C   0  0  0  0  0  0  0  0  0  0  0  0
    7.7505  -15.2608   26.2582 C   0  0  0  0  0  0  0  0  0  0  0  0
    6.6456  -15.8291   25.6145 C   0  0  0  0  0  0  0  0  0  0  0  0
    5.8326  -14.8148   25.3028 N   0  0  0  0  0  0  0  0  0  0  0  0
    6.3512  -13.6490   25.7075 C   0  0  0  0  0  0  0  0  0  0  0  0
    5.8776  -12.3409   25.6267 C   0  0  0  0  0  0  0  0  0  0  0  0
    6.6214  -11.3219   26.1537 C   0  0  0  0  0  0  0  0  0  0  0  0
    7.8253  -11.6099   26.7546 C   0  0  0  0  0  0  0  0  0  0  0  0
    8.3139  -12.8882   26.8463 C   0  0  0  0  0  0  0  0  0  0  0  0
    7.5574  -13.9124   26.3107 C   0  0  0  0  0  0  0  0  0  0  0  0
   10.8273  -17.3894   25.8589 C   0  0  0  0  0  0  0  0  0  0  0  0
   11.6448  -17.3036   26.8282 O   0  0  0  0  0  0  0  0  0  0  0  0
   10.8919  -18.5346   25.0996 O   0  0  0  0  0  0  0  0  0  0  0  0
  2  3  1  0
  2  1  1  1
  4  5  2  0
  4  2  1  0
  6  4  1  0
  7  6  1  0
  7 13  1  0
  7  8  1  6
  9  8  1  0
 10  9  1  0
 11 10  1  0
 12 11  1  0
 13 14  2  0
 13 15  1  0
 15 16  1  0
 16 17  1  1
 16 27  1  0
 18 19  2  0
 18 17  1  0
 20 19  1  0
 21 26  2  0
 21 20  1  0
 22 21  1  0
 23 24  1  0
 23 22  2  0
 24 25  2  0
 25 26  1  0
 26 18  1  0
 27 29  1  0
 28 27  2  0
M  END
$$$$
