AKW.pdb
     RDKit          3D

 29 30  0  0  1  0  0  0  0  0999 V2000
    8.0963  -12.5444   18.6645 C   0  0  0  0  0  0  0  0  0  0  0  0
    8.4102  -13.8274   17.8828 C   0  0  2  0  0  0  0  0  0  0  0  0
    7.2359  -14.1403   17.1148 N   0  0  0  0  0  0  0  0  0  0  0  0
    8.6393  -14.8882   18.8765 C   0  0  0  0  0  0  0  0  0  0  0  0
    7.6600  -15.3590   19.5024 O   0  0  0  0  0  0  0  0  0  0  0  0
    9.9249  -15.4305   19.1843 N   0  0  0  0  0  0  0  0  0  0  0  0
   10.0974  -16.5366   20.0986 C   0  0  1  0  0  0  0  0  0  0  0  0
   11.4919  -17.1310   19.9373 C   0  0  0  0  0  0  0  0  0  0  0  0
   11.6087  -17.9824   18.7204 C   0  0  0  0  0  0  0  0  0  0  0  0
   13.0356  -18.4530   18.5977 C   0  0  0  0  0  0  0  0  0  0  0  0
   13.2614  -19.2812   17.3572 C   0  0  0  0  0  0  0  0  0  0  0  0
   14.6833  -19.5921   17.2720 N   0  0  0  0  0  0  0  0  0  0  0  0
   10.0299  -16.0276   21.4936 C   0  0  0  0  0  0  0  0  0  0  0  0
   10.7455  -15.0130   21.7645 O   0  0  0  0  0  0  0  0  0  0  0  0
    9.2291  -16.6122   22.4848 N   0  0  0  0  0  0  0  0  0  0  0  0
    9.1058  -15.9441   23.7875 C   0  0  1  0  0  0  0  0  0  0  0  0
    7.7582  -15.3010   23.7743 C   0  0  0  0  0  0  0  0  0  0  0  0
    7.3813  -14.7806   25.0874 C   0  0  0  0  0  0  0  0  0  0  0  0
    6.8418  -15.5979   26.0870 C   0  0  0  0  0  0  0  0  0  0  0  0
    6.5808  -14.7962   27.1244 N   0  0  0  0  0  0  0  0  0  0  0  0
    6.9205  -13.5320   26.8446 C   0  0  0  0  0  0  0  0  0  0  0  0
    6.8563  -12.3617   27.5985 C   0  0  0  0  0  0  0  0  0  0  0  0
    7.3017  -11.1875   27.0581 C   0  0  0  0  0  0  0  0  0  0  0  0
    7.8056  -11.1855   25.7776 C   0  0  0  0  0  0  0  0  0  0  0  0
    7.8789  -12.3231   25.0148 C   0  0  0  0  0  0  0  0  0  0  0  0
    7.4261  -13.5055   25.5671 C   0  0  0  0  0  0  0  0  0  0  0  0
    9.3493  -16.8843   24.8858 C   0  0  0  0  0  0  0  0  0  0  0  0
    9.7617  -16.4195   25.9945 O   0  0  0  0  0  0  0  0  0  0  0  0
    9.1617  -18.2455   24.8214 O   0  0  0  0  0  0  0  0  0  0  0  0
  2  3  1  0
  2  1  1  1
  4  5  2  0
  4  2  1  0
  6  4  1  0
  7  6  1  0
  7 13  1  0
  7  8  1  6
  9  8  1  0
 10  9  1  0
 11 10  1  0
 12 11  1  0
 13 14  2  0
 13 15  1  0
 15 16  1  0
 16 17  1  1
 16 27  1  0
 18 19  2  0
 18 17  1  0
 20 19  1  0
 21 26  2  0
 21 20  1  0
 22 21  1  0
 23 24  1  0
 23 22  2  0
 24 25  2  0
 25 26  1  0
 26 18  1  0
 27 29  1  0
 28 27  2  0
M  END
$$$$
