AKW.pdb
     RDKit          3D

 29 30  0  0  1  0  0  0  0  0999 V2000
    7.9617  -12.2893   19.5164 C   0  0  0  0  0  0  0  0  0  0  0  0
    8.0877  -13.6276   18.7755 C   0  0  2  0  0  0  0  0  0  0  0  0
    6.8031  -13.8973   18.1894 N   0  0  0  0  0  0  0  0  0  0  0  0
    8.3851  -14.6513   19.7897 C   0  0  0  0  0  0  0  0  0  0  0  0
    7.4450  -15.1269   20.4698 O   0  0  0  0  0  0  0  0  0  0  0  0
    9.6960  -15.1519   20.0592 N   0  0  0  0  0  0  0  0  0  0  0  0
    9.9325  -16.2395   20.9815 C   0  0  1  0  0  0  0  0  0  0  0  0
   11.0057  -17.1682   20.4248 C   0  0  0  0  0  0  0  0  0  0  0  0
   10.5919  -17.8116   19.1464 C   0  0  0  0  0  0  0  0  0  0  0  0
   11.7235  -18.6787   18.6561 C   0  0  0  0  0  0  0  0  0  0  0  0
   11.3859  -19.3874   17.3678 C   0  0  0  0  0  0  0  0  0  0  0  0
   12.5688  -20.1177   16.9285 N   0  0  0  0  0  0  0  0  0  0  0  0
   10.4851  -15.6903   22.2474 C   0  0  0  0  0  0  0  0  0  0  0  0
   11.0311  -14.5447   22.1804 O   0  0  0  0  0  0  0  0  0  0  0  0
   10.4245  -16.3735   23.4701 N   0  0  0  0  0  0  0  0  0  0  0  0
    9.6568  -15.7872   24.5771 C   0  0  1  0  0  0  0  0  0  0  0  0
    8.3881  -15.2972   23.9606 C   0  0  0  0  0  0  0  0  0  0  0  0
    7.4452  -14.7976   24.9597 C   0  0  0  0  0  0  0  0  0  0  0  0
    6.3236  -15.5324   25.3600 C   0  0  0  0  0  0  0  0  0  0  0  0
    5.6719  -14.7681   26.2422 N   0  0  0  0  0  0  0  0  0  0  0  0
    6.3082  -13.6044   26.4235 C   0  0  0  0  0  0  0  0  0  0  0  0
    6.0327  -12.5097   27.2406 C   0  0  0  0  0  0  0  0  0  0  0  0
    6.8836  -11.4397   27.2421 C   0  0  0  0  0  0  0  0  0  0  0  0
    7.9976  -11.4660   26.4347 C   0  0  0  0  0  0  0  0  0  0  0  0
    8.2908  -12.5305   25.6211 C   0  0  0  0  0  0  0  0  0  0  0  0
    7.4259  -13.6075   25.6241 C   0  0  0  0  0  0  0  0  0  0  0  0
    9.4997  -16.7468   25.6743 C   0  0  0  0  0  0  0  0  0  0  0  0
    9.5443  -16.3090   26.8666 O   0  0  0  0  0  0  0  0  0  0  0  0
    9.2990  -18.0993   25.5230 O   0  0  0  0  0  0  0  0  0  0  0  0
  2  3  1  0
  2  1  1  1
  4  5  2  0
  4  2  1  0
  6  4  1  0
  7  6  1  0
  7 13  1  0
  7  8  1  6
  9  8  1  0
 10  9  1  0
 11 10  1  0
 12 11  1  0
 13 14  2  0
 13 15  1  0
 15 16  1  0
 16 17  1  6
 16 27  1  0
 18 19  2  0
 18 17  1  0
 20 19  1  0
 21 26  2  0
 21 20  1  0
 22 21  1  0
 23 24  1  0
 23 22  2  0
 24 25  2  0
 25 26  1  0
 26 18  1  0
 27 29  1  0
 28 27  2  0
M  END
$$$$
