AKW.pdb
     RDKit          3D

 29 30  0  0  1  0  0  0  0  0999 V2000
    7.2444  -12.6297   19.2367 C   0  0  0  0  0  0  0  0  0  0  0  0
    8.6289  -13.2872   19.3199 C   0  0  2  0  0  0  0  0  0  0  0  0
    8.8797  -13.8843   18.0365 N   0  0  0  0  0  0  0  0  0  0  0  0
    8.5396  -14.3440   20.3398 C   0  0  0  0  0  0  0  0  0  0  0  0
    8.2325  -14.0326   21.5151 O   0  0  0  0  0  0  0  0  0  0  0  0
    8.7829  -15.7278   20.0800 N   0  0  0  0  0  0  0  0  0  0  0  0
    8.5666  -16.7504   21.0784 C   0  0  1  0  0  0  0  0  0  0  0  0
    8.9869  -18.1091   20.5294 C   0  0  0  0  0  0  0  0  0  0  0  0
    8.8092  -19.2030   21.5249 C   0  0  0  0  0  0  0  0  0  0  0  0
    9.1307  -20.5166   20.8586 C   0  0  0  0  0  0  0  0  0  0  0  0
    8.9752  -21.6881   21.7962 C   0  0  0  0  0  0  0  0  0  0  0  0
    9.4317  -22.8871   21.1036 N   0  0  0  0  0  0  0  0  0  0  0  0
    9.4545  -16.4880   22.2414 C   0  0  0  0  0  0  0  0  0  0  0  0
   10.6482  -16.1400   21.9790 O   0  0  0  0  0  0  0  0  0  0  0  0
    9.0300  -16.6087   23.5720 N   0  0  0  0  0  0  0  0  0  0  0  0
    9.9533  -16.2335   24.6516 C   0  0  1  0  0  0  0  0  0  0  0  0
    9.6746  -14.7922   24.9250 C   0  0  0  0  0  0  0  0  0  0  0  0
    8.3102  -14.5740   25.4023 C   0  0  0  0  0  0  0  0  0  0  0  0
    7.3672  -15.6061   25.4632 C   0  0  0  0  0  0  0  0  0  0  0  0
    6.2331  -15.0503   25.9012 N   0  0  0  0  0  0  0  0  0  0  0  0
    6.4001  -13.7403   26.1202 C   0  0  0  0  0  0  0  0  0  0  0  0
    5.5313  -12.7560   26.5875 C   0  0  0  0  0  0  0  0  0  0  0  0
    5.9841  -11.4748   26.7381 C   0  0  0  0  0  0  0  0  0  0  0  0
    7.2918  -11.1830   26.4245 C   0  0  0  0  0  0  0  0  0  0  0  0
    8.1664  -12.1331   25.9621 C   0  0  0  0  0  0  0  0  0  0  0  0
    7.7014  -13.4251   25.8115 C   0  0  0  0  0  0  0  0  0  0  0  0
    9.8146  -17.1352   25.7993 C   0  0  0  0  0  0  0  0  0  0  0  0
    8.8474  -17.9596   25.8024 O   0  0  0  0  0  0  0  0  0  0  0  0
   10.6565  -17.1711   26.8865 O   0  0  0  0  0  0  0  0  0  0  0  0
  2  3  1  0
  2  1  1  6
  4  5  2  0
  4  2  1  0
  6  4  1  0
  7  6  1  0
  7 13  1  0
  7  8  1  6
  9  8  1  0
 10  9  1  0
 11 10  1  0
 12 11  1  0
 13 14  2  0
 13 15  1  0
 15 16  1  0
 16 17  1  1
 16 27  1  0
 18 19  2  0
 18 17  1  0
 20 19  1  0
 21 26  2  0
 21 20  1  0
 22 21  1  0
 23 24  1  0
 23 22  2  0
 24 25  2  0
 25 26  1  0
 26 18  1  0
 27 29  1  0
 28 27  2  0
M  END
$$$$
