AKW.pdb
     RDKit          3D

 29 30  0  0  1  0  0  0  0  0999 V2000
    7.2497  -19.6579   19.3115 C   0  0  0  0  0  0  0  0  0  0  0  0
    7.1510  -19.2404   20.7853 C   0  0  2  0  0  0  0  0  0  0  0  0
    5.8374  -18.6866   20.9701 N   0  0  0  0  0  0  0  0  0  0  0  0
    8.1576  -18.1888   21.0000 C   0  0  0  0  0  0  0  0  0  0  0  0
    9.3637  -18.5132   21.1125 O   0  0  0  0  0  0  0  0  0  0  0  0
    7.8513  -16.7962   21.0909 N   0  0  0  0  0  0  0  0  0  0  0  0
    8.8577  -15.8022   21.3882 C   0  0  1  0  0  0  0  0  0  0  0  0
    8.5166  -14.4921   20.6872 C   0  0  0  0  0  0  0  0  0  0  0  0
    7.8717  -14.7088   19.3619 C   0  0  0  0  0  0  0  0  0  0  0  0
    8.3029  -13.6041   18.4310 C   0  0  0  0  0  0  0  0  0  0  0  0
    7.6045  -13.6747   17.0956 C   0  0  0  0  0  0  0  0  0  0  0  0
    7.9205  -12.4600   16.3537 N   0  0  0  0  0  0  0  0  0  0  0  0
    8.8301  -15.5048   22.8444 C   0  0  0  0  0  0  0  0  0  0  0  0
    8.3134  -14.3962   23.1892 O   0  0  0  0  0  0  0  0  0  0  0  0
    9.3390  -16.3793   23.8149 N   0  0  0  0  0  0  0  0  0  0  0  0
   10.0459  -15.8221   24.9761 C   0  0  1  0  0  0  0  0  0  0  0  0
    9.1501  -16.0786   26.1429 C   0  0  0  0  0  0  0  0  0  0  0  0
    7.9277  -15.2786   26.0874 C   0  0  0  0  0  0  0  0  0  0  0  0
    6.6890  -15.8320   25.7447 C   0  0  0  0  0  0  0  0  0  0  0  0
    5.8133  -14.8220   25.7541 N   0  0  0  0  0  0  0  0  0  0  0  0
    6.4176  -13.6728   26.0801 C   0  0  0  0  0  0  0  0  0  0  0  0
    5.9312  -12.3762   26.2354 C   0  0  0  0  0  0  0  0  0  0  0  0
    6.7872  -11.3756   26.6031 C   0  0  0  0  0  0  0  0  0  0  0  0
    8.1149  -11.6704   26.8129 C   0  0  0  0  0  0  0  0  0  0  0  0
    8.6186  -12.9376   26.6659 C   0  0  0  0  0  0  0  0  0  0  0  0
    7.7479  -13.9432   26.2932 C   0  0  0  0  0  0  0  0  0  0  0  0
   11.3998  -16.3745   25.0823 C   0  0  0  0  0  0  0  0  0  0  0  0
   11.7450  -17.2812   24.2614 O   0  0  0  0  0  0  0  0  0  0  0  0
   12.3451  -15.9866   26.0033 O   0  0  0  0  0  0  0  0  0  0  0  0
  2  3  1  0
  2  1  1  6
  4  5  2  0
  4  2  1  0
  6  4  1  0
  7  6  1  0
  7 13  1  0
  7  8  1  6
  9  8  1  0
 10  9  1  0
 11 10  1  0
 12 11  1  0
 13 14  2  0
 13 15  1  0
 15 16  1  0
 16 17  1  1
 16 27  1  0
 18 19  2  0
 18 17  1  0
 20 19  1  0
 21 26  2  0
 21 20  1  0
 22 21  1  0
 23 24  1  0
 23 22  2  0
 24 25  2  0
 25 26  1  0
 26 18  1  0
 27 29  1  0
 28 27  2  0
M  END
$$$$
