AKW.pdb
     RDKit          3D

 29 30  0  0  1  0  0  0  0  0999 V2000
    8.0414  -12.4053   20.7010 C   0  0  0  0  0  0  0  0  0  0  0  0
    7.9739  -13.7550   19.9731 C   0  0  2  0  0  0  0  0  0  0  0  0
    6.6466  -13.8661   19.4322 N   0  0  0  0  0  0  0  0  0  0  0  0
    8.1747  -14.7995   20.9899 C   0  0  0  0  0  0  0  0  0  0  0  0
    7.1988  -15.1690   21.6853 O   0  0  0  0  0  0  0  0  0  0  0  0
    9.4286  -15.4353   21.2454 N   0  0  0  0  0  0  0  0  0  0  0  0
    9.5526  -16.5682   22.1345 C   0  0  1  0  0  0  0  0  0  0  0  0
   10.6911  -17.4698   21.6707 C   0  0  0  0  0  0  0  0  0  0  0  0
   10.1992  -18.7385   21.0641 C   0  0  0  0  0  0  0  0  0  0  0  0
   11.3711  -19.4675   20.4577 C   0  0  0  0  0  0  0  0  0  0  0  0
   10.9623  -20.7612   19.7980 C   0  0  0  0  0  0  0  0  0  0  0  0
   12.1463  -21.3524   19.1863 N   0  0  0  0  0  0  0  0  0  0  0  0
    9.9400  -16.0842   23.4855 C   0  0  0  0  0  0  0  0  0  0  0  0
   10.8057  -15.1549   23.5305 O   0  0  0  0  0  0  0  0  0  0  0  0
    9.3988  -16.6034   24.6699 N   0  0  0  0  0  0  0  0  0  0  0  0
    9.9492  -16.1623   25.9587 C   0  0  1  0  0  0  0  0  0  0  0  0
    8.7929  -16.1682   26.9035 C   0  0  0  0  0  0  0  0  0  0  0  0
    7.7036  -15.3058   26.4490 C   0  0  0  0  0  0  0  0  0  0  0  0
    6.5908  -15.8075   25.7649 C   0  0  0  0  0  0  0  0  0  0  0  0
    5.8260  -14.7513   25.4703 N   0  0  0  0  0  0  0  0  0  0  0  0
    6.3824  -13.6213   25.9235 C   0  0  0  0  0  0  0  0  0  0  0  0
    5.9637  -12.2930   25.8763 C   0  0  0  0  0  0  0  0  0  0  0  0
    6.7363  -11.3227   26.4513 C   0  0  0  0  0  0  0  0  0  0  0  0
    7.9145  -11.6788   27.0666 C   0  0  0  0  0  0  0  0  0  0  0  0
    8.3492  -12.9783   27.1260 C   0  0  0  0  0  0  0  0  0  0  0  0
    7.5638  -13.9530   26.5420 C   0  0  0  0  0  0  0  0  0  0  0  0
   11.0942  -16.9891   26.3522 C   0  0  0  0  0  0  0  0  0  0  0  0
   11.7003  -16.7016   27.4317 O   0  0  0  0  0  0  0  0  0  0  0  0
   11.5729  -18.0688   25.6471 O   0  0  0  0  0  0  0  0  0  0  0  0
  2  3  1  0
  2  1  1  1
  4  5  2  0
  4  2  1  0
  6  4  1  0
  7  6  1  0
  7 13  1  0
  7  8  1  6
  9  8  1  0
 10  9  1  0
 11 10  1  0
 12 11  1  0
 13 14  2  0
 13 15  1  0
 15 16  1  0
 16 17  1  1
 16 27  1  0
 18 19  2  0
 18 17  1  0
 20 19  1  0
 21 26  2  0
 21 20  1  0
 22 21  1  0
 23 24  1  0
 23 22  2  0
 24 25  2  0
 25 26  1  0
 26 18  1  0
 27 29  1  0
 28 27  2  0
M  END
$$$$
