AKW.pdb
     RDKit          3D

 29 30  0  0  1  0  0  0  0  0999 V2000
    8.1219  -12.2336   19.8155 C   0  0  0  0  0  0  0  0  0  0  0  0
    8.2885  -13.5663   19.0725 C   0  0  2  0  0  0  0  0  0  0  0  0
    7.1335  -13.7160   18.2298 N   0  0  0  0  0  0  0  0  0  0  0  0
    8.2883  -14.6271   20.0922 C   0  0  0  0  0  0  0  0  0  0  0  0
    7.1926  -15.0800   20.5006 O   0  0  0  0  0  0  0  0  0  0  0  0
    9.4726  -15.1889   20.6609 N   0  0  0  0  0  0  0  0  0  0  0  0
    9.4358  -16.3217   21.5580 C   0  0  1  0  0  0  0  0  0  0  0  0
   10.3096  -17.4452   21.0117 C   0  0  0  0  0  0  0  0  0  0  0  0
    9.5064  -18.5596   20.4352 C   0  0  0  0  0  0  0  0  0  0  0  0
    9.6494  -18.5294   18.9347 C   0  0  0  0  0  0  0  0  0  0  0  0
    8.9182  -19.6670   18.2662 C   0  0  0  0  0  0  0  0  0  0  0  0
    8.9647  -19.4515   16.8250 N   0  0  0  0  0  0  0  0  0  0  0  0
   10.0405  -15.9303   22.8583 C   0  0  0  0  0  0  0  0  0  0  0  0
   11.3099  -15.9030   22.9104 O   0  0  0  0  0  0  0  0  0  0  0  0
    9.2798  -15.6020   23.9892 N   0  0  0  0  0  0  0  0  0  0  0  0
    9.8102  -15.9199   25.3220 C   0  0  1  0  0  0  0  0  0  0  0  0
    8.6218  -16.3167   26.1344 C   0  0  0  0  0  0  0  0  0  0  0  0
    7.5554  -15.3184   26.0777 C   0  0  0  0  0  0  0  0  0  0  0  0
    6.2116  -15.6710   25.9110 C   0  0  0  0  0  0  0  0  0  0  0  0
    5.5275  -14.5235   25.8633 N   0  0  0  0  0  0  0  0  0  0  0  0
    6.3500  -13.4749   25.9896 C   0  0  0  0  0  0  0  0  0  0  0  0
    6.1115  -12.1022   26.0177 C   0  0  0  0  0  0  0  0  0  0  0  0
    7.1595  -11.2401   26.1835 C   0  0  0  0  0  0  0  0  0  0  0  0
    8.4315  -11.7470   26.3197 C   0  0  0  0  0  0  0  0  0  0  0  0
    8.6929  -13.0932   26.2947 C   0  0  0  0  0  0  0  0  0  0  0  0
    7.6291  -13.9581   26.1258 C   0  0  0  0  0  0  0  0  0  0  0  0
   10.8822  -16.9163   25.2375 C   0  0  0  0  0  0  0  0  0  0  0  0
   11.7465  -16.9497   26.1687 O   0  0  0  0  0  0  0  0  0  0  0  0
   11.0327  -17.8361   24.2257 O   0  0  0  0  0  0  0  0  0  0  0  0
  2  3  1  0
  2  1  1  1
  4  5  2  0
  4  2  1  0
  6  4  1  0
  7  6  1  0
  7 13  1  0
  7  8  1  6
  9  8  1  0
 10  9  1  0
 11 10  1  0
 12 11  1  0
 13 14  2  0
 13 15  1  0
 15 16  1  0
 16 17  1  1
 16 27  1  0
 18 19  2  0
 18 17  1  0
 20 19  1  0
 21 26  2  0
 21 20  1  0
 22 21  1  0
 23 24  1  0
 23 22  2  0
 24 25  2  0
 25 26  1  0
 26 18  1  0
 27 29  1  0
 28 27  2  0
M  END
$$$$
