AKW.pdb
     RDKit          3D

 29 30  0  0  1  0  0  0  0  0999 V2000
    5.3858  -18.5917   23.1215 C   0  0  0  0  0  0  0  0  0  0  0  0
    5.5985  -18.3235   21.6252 C   0  0  2  0  0  0  0  0  0  0  0  0
    5.7135  -19.6071   20.9883 N   0  0  0  0  0  0  0  0  0  0  0  0
    6.8736  -17.6004   21.4976 C   0  0  0  0  0  0  0  0  0  0  0  0
    7.9411  -18.2545   21.4268 O   0  0  0  0  0  0  0  0  0  0  0  0
    6.9831  -16.1766   21.4474 N   0  0  0  0  0  0  0  0  0  0  0  0
    8.2569  -15.5041   21.3272 C   0  0  1  0  0  0  0  0  0  0  0  0
    8.0663  -14.1463   20.6607 C   0  0  0  0  0  0  0  0  0  0  0  0
    7.5343  -14.2643   19.2742 C   0  0  0  0  0  0  0  0  0  0  0  0
    8.3065  -13.3266   18.3814 C   0  0  0  0  0  0  0  0  0  0  0  0
    7.8502  -13.3968   16.9452 C   0  0  0  0  0  0  0  0  0  0  0  0
    8.4666  -12.2930   16.2189 N   0  0  0  0  0  0  0  0  0  0  0  0
    8.7856  -15.2203   22.6872 C   0  0  0  0  0  0  0  0  0  0  0  0
    8.6616  -14.0279   23.1086 O   0  0  0  0  0  0  0  0  0  0  0  0
    9.3956  -16.1937   23.4907 N   0  0  0  0  0  0  0  0  0  0  0  0
   10.1417  -15.7687   24.6830 C   0  0  1  0  0  0  0  0  0  0  0  0
    9.3007  -16.1872   25.8437 C   0  0  0  0  0  0  0  0  0  0  0  0
    8.0228  -15.4784   25.8843 C   0  0  0  0  0  0  0  0  0  0  0  0
    6.8073  -16.1156   25.6110 C   0  0  0  0  0  0  0  0  0  0  0  0
    5.8635  -15.1728   25.6983 N   0  0  0  0  0  0  0  0  0  0  0  0
    6.4035  -13.9879   26.0084 C   0  0  0  0  0  0  0  0  0  0  0  0
    5.8361  -12.7331   26.2220 C   0  0  0  0  0  0  0  0  0  0  0  0
    6.6401  -11.6784   26.5544 C   0  0  0  0  0  0  0  0  0  0  0  0
    7.9965  -11.8783   26.6716 C   0  0  0  0  0  0  0  0  0  0  0  0
    8.5796  -13.1026   26.4658 C   0  0  0  0  0  0  0  0  0  0  0  0
    7.7610  -14.1633   26.1293 C   0  0  0  0  0  0  0  0  0  0  0  0
   11.5080  -16.2998   24.6654 C   0  0  0  0  0  0  0  0  0  0  0  0
   11.8137  -17.1424   23.7644 O   0  0  0  0  0  0  0  0  0  0  0  0
   12.5046  -15.9557   25.5490 O   0  0  0  0  0  0  0  0  0  0  0  0
  2  3  1  0
  2  1  1  1
  4  5  2  0
  4  2  1  0
  6  4  1  0
  7  6  1  0
  7 13  1  0
  7  8  1  6
  9  8  1  0
 10  9  1  0
 11 10  1  0
 12 11  1  0
 13 14  2  0
 13 15  1  0
 15 16  1  0
 16 17  1  1
 16 27  1  0
 18 19  2  0
 18 17  1  0
 20 19  1  0
 21 26  2  0
 21 20  1  0
 22 21  1  0
 23 24  1  0
 23 22  2  0
 24 25  2  0
 25 26  1  0
 26 18  1  0
 27 29  1  0
 28 27  2  0
M  END
$$$$
