AKW.pdb
     RDKit          3D

 29 30  0  0  1  0  0  0  0  0999 V2000
    8.7544  -12.3041   19.6142 C   0  0  0  0  0  0  0  0  0  0  0  0
    8.2399  -13.5974   18.9671 C   0  0  2  0  0  0  0  0  0  0  0  0
    6.9386  -13.3019   18.4325 N   0  0  0  0  0  0  0  0  0  0  0  0
    8.1100  -14.5918   20.0438 C   0  0  0  0  0  0  0  0  0  0  0  0
    7.1959  -14.4565   20.8915 O   0  0  0  0  0  0  0  0  0  0  0  0
    8.9691  -15.7235   20.1941 N   0  0  0  0  0  0  0  0  0  0  0  0
    8.7714  -16.7104   21.2315 C   0  0  1  0  0  0  0  0  0  0  0  0
    9.3270  -18.0565   20.7802 C   0  0  0  0  0  0  0  0  0  0  0  0
    8.5693  -18.6268   19.6313 C   0  0  0  0  0  0  0  0  0  0  0  0
    9.2832  -19.8649   19.1515 C   0  0  0  0  0  0  0  0  0  0  0  0
    8.5616  -20.5363   18.0094 C   0  0  0  0  0  0  0  0  0  0  0  0
    7.4479  -21.2981   18.5618 N   0  0  0  0  0  0  0  0  0  0  0  0
    9.5642  -16.3223   22.4275 C   0  0  0  0  0  0  0  0  0  0  0  0
   10.7607  -15.9477   22.2202 O   0  0  0  0  0  0  0  0  0  0  0  0
    9.0503  -16.3557   23.7314 N   0  0  0  0  0  0  0  0  0  0  0  0
    9.9597  -16.1255   24.8622 C   0  0  1  0  0  0  0  0  0  0  0  0
    9.6930  -14.7239   25.3030 C   0  0  0  0  0  0  0  0  0  0  0  0
    8.2675  -14.4696   25.5037 C   0  0  0  0  0  0  0  0  0  0  0  0
    7.3026  -15.4717   25.3534 C   0  0  0  0  0  0  0  0  0  0  0  0
    6.1199  -14.8868   25.5687 N   0  0  0  0  0  0  0  0  0  0  0  0
    6.2769  -13.5864   25.8447 C   0  0  0  0  0  0  0  0  0  0  0  0
    5.3605  -12.5821   26.1508 C   0  0  0  0  0  0  0  0  0  0  0  0
    5.8101  -11.3185   26.4161 C   0  0  0  0  0  0  0  0  0  0  0  0
    7.1618  -11.0639   26.3754 C   0  0  0  0  0  0  0  0  0  0  0  0
    8.0839  -12.0342   26.0761 C   0  0  0  0  0  0  0  0  0  0  0  0
    7.6220  -13.3082   25.8082 C   0  0  0  0  0  0  0  0  0  0  0  0
    9.7917  -17.1567   25.8906 C   0  0  0  0  0  0  0  0  0  0  0  0
   10.5700  -17.1362   26.8951 O   0  0  0  0  0  0  0  0  0  0  0  0
    8.8467  -18.1560   25.8654 O   0  0  0  0  0  0  0  0  0  0  0  0
  2  3  1  0
  2  1  1  1
  4  5  2  0
  4  2  1  0
  6  4  1  0
  7  6  1  0
  7 13  1  0
  7  8  1  6
  9  8  1  0
 10  9  1  0
 11 10  1  0
 12 11  1  0
 13 14  2  0
 13 15  1  0
 15 16  1  0
 16 17  1  1
 16 27  1  0
 18 19  2  0
 18 17  1  0
 20 19  1  0
 21 26  2  0
 21 20  1  0
 22 21  1  0
 23 24  1  0
 23 22  2  0
 24 25  2  0
 25 26  1  0
 26 18  1  0
 27 29  1  0
 28 27  2  0
M  END
$$$$
