AKW.pdb
     RDKit          3D

 29 30  0  0  1  0  0  0  0  0999 V2000
    7.2742  -19.2683   19.2993 C   0  0  0  0  0  0  0  0  0  0  0  0
    7.6861  -19.0823   20.7661 C   0  0  2  0  0  0  0  0  0  0  0  0
    6.4720  -18.9150   21.5175 N   0  0  0  0  0  0  0  0  0  0  0  0
    8.4760  -17.8428   20.8344 C   0  0  0  0  0  0  0  0  0  0  0  0
    9.6295  -17.8270   20.3429 O   0  0  0  0  0  0  0  0  0  0  0  0
    8.0116  -16.6314   21.4333 N   0  0  0  0  0  0  0  0  0  0  0  0
    8.8090  -15.4260   21.4552 C   0  0  1  0  0  0  0  0  0  0  0  0
    7.9080  -14.2047   21.3118 C   0  0  0  0  0  0  0  0  0  0  0  0
    7.3031  -14.1020   19.9542 C   0  0  0  0  0  0  0  0  0  0  0  0
    8.3596  -13.6213   18.9922 C   0  0  0  0  0  0  0  0  0  0  0  0
    7.8320  -13.4781   17.5861 C   0  0  0  0  0  0  0  0  0  0  0  0
    8.9088  -12.9649   16.7477 N   0  0  0  0  0  0  0  0  0  0  0  0
    9.4593  -15.2990   22.7859 C   0  0  0  0  0  0  0  0  0  0  0  0
   10.2150  -14.2917   22.9562 O   0  0  0  0  0  0  0  0  0  0  0  0
    9.2711  -16.2242   23.8222 N   0  0  0  0  0  0  0  0  0  0  0  0
   10.0294  -16.0611   25.0700 C   0  0  1  0  0  0  0  0  0  0  0  0
    9.0526  -16.3415   26.1640 C   0  0  0  0  0  0  0  0  0  0  0  0
    7.8539  -15.5111   26.0609 C   0  0  0  0  0  0  0  0  0  0  0  0
    6.6131  -16.0359   25.6829 C   0  0  0  0  0  0  0  0  0  0  0  0
    5.7641  -15.0037   25.6539 N   0  0  0  0  0  0  0  0  0  0  0  0
    6.3872  -13.8672   25.9888 C   0  0  0  0  0  0  0  0  0  0  0  0
    5.9298  -12.5569   26.1158 C   0  0  0  0  0  0  0  0  0  0  0  0
    6.7991  -11.5749   26.5020 C   0  0  0  0  0  0  0  0  0  0  0  0
    8.1111  -11.9016   26.7581 C   0  0  0  0  0  0  0  0  0  0  0  0
    8.5862  -13.1828   26.6398 C   0  0  0  0  0  0  0  0  0  0  0  0
    7.7023  -14.1694   26.2481 C   0  0  0  0  0  0  0  0  0  0  0  0
   11.2344  -16.8962   25.0661 C   0  0  0  0  0  0  0  0  0  0  0  0
   11.3955  -17.7143   24.1069 O   0  0  0  0  0  0  0  0  0  0  0  0
   12.2236  -16.8664   26.0215 O   0  0  0  0  0  0  0  0  0  0  0  0
  2  3  1  0
  2  1  1  6
  4  5  2  0
  4  2  1  0
  6  4  1  0
  7  6  1  0
  7 13  1  0
  7  8  1  1
  9  8  1  0
 10  9  1  0
 11 10  1  0
 12 11  1  0
 13 14  2  0
 13 15  1  0
 15 16  1  0
 16 17  1  1
 16 27  1  0
 18 19  2  0
 18 17  1  0
 20 19  1  0
 21 26  2  0
 21 20  1  0
 22 21  1  0
 23 24  1  0
 23 22  2  0
 24 25  2  0
 25 26  1  0
 26 18  1  0
 27 29  1  0
 28 27  2  0
M  END
$$$$
