YFG.pdb
     RDKit          3D

 28 29  0  0  1  0  0  0  0  0999 V2000
   21.0142   -9.6828  -24.8123 O   0  0  0  0  0  0  0  0  0  0  0  0
   20.7830   -9.4426  -23.4569 C   0  0  0  0  0  0  0  0  0  0  0  0
   20.1532  -10.3694  -22.6525 C   0  0  0  0  0  0  0  0  0  0  0  0
   19.9396  -10.1016  -21.3165 C   0  0  0  0  0  0  0  0  0  0  0  0
   20.3323   -8.9225  -20.7200 C   0  0  0  0  0  0  0  0  0  0  0  0
   20.1010   -8.6334  -19.2751 C   0  0  0  0  0  0  0  0  0  0  0  0
   21.3604   -8.8976  -18.4639 C   0  0  2  0  0  0  0  0  0  0  0  0
   21.6235  -10.3035  -18.5041 N   0  0  0  0  0  0  0  0  0  0  0  0
   21.2002   -8.3534  -17.1113 C   0  0  0  0  0  0  0  0  0  0  0  0
   20.6578   -9.0775  -16.2423 O   0  0  0  0  0  0  0  0  0  0  0  0
   20.9647   -7.9921  -21.5281 C   0  0  0  0  0  0  0  0  0  0  0  0
   21.1773   -8.2617  -22.8633 C   0  0  0  0  0  0  0  0  0  0  0  0
   21.6160   -7.0600  -16.7098 N   0  0  0  0  0  0  0  0  0  0  0  0
   21.4484   -6.5752  -15.3563 C   0  0  1  0  0  0  0  0  0  0  0  0
   22.8223   -6.3423  -14.7457 C   0  0  0  0  0  0  0  0  0  0  0  0
   23.5997   -7.6027  -14.6775 C   0  0  0  0  0  0  0  0  0  0  0  0
   24.5894   -7.8729  -15.5966 C   0  0  0  0  0  0  0  0  0  0  0  0
   25.2941   -9.0558  -15.5037 C   0  0  0  0  0  0  0  0  0  0  0  0
   25.0315   -9.9739  -14.5131 C   0  0  0  0  0  0  0  0  0  0  0  0
   24.0411   -9.6963  -13.5988 C   0  0  0  0  0  0  0  0  0  0  0  0
   23.3190   -8.5038  -13.6791 C   0  0  0  0  0  0  0  0  0  0  0  0
   20.6947   -5.2957  -15.3371 C   0  0  0  0  0  0  0  0  0  0  0  0
   21.2665   -4.2299  -15.7122 O   0  0  0  0  0  0  0  0  0  0  0  0
   19.3557   -5.2540  -14.9080 N   0  0  0  0  0  0  0  0  0  0  0  0
   18.7057   -3.9688  -14.8025 C   0  0  0  0  0  0  0  0  0  0  0  0
   18.0990   -3.5648  -16.0915 C   0  0  0  0  0  0  0  0  0  0  0  0
   17.0828   -4.1611  -16.5237 O   0  0  0  0  0  0  0  0  0  0  0  0
   18.6231   -2.5342  -16.8494 O   0  0  0  0  0  0  0  0  0  0  0  0
  2  1  1  0
  3  2  2  0
  4  3  1  0
  5  4  2  0
  5 11  1  0
  6  7  1  0
  6  5  1  0
  7  8  1  1
  9  7  1  0
  9 10  2  0
 11 12  2  0
 12  2  1  0
 13  9  1  0
 14 13  1  0
 14 15  1  6
 16 15  1  0
 16 21  2  0
 17 18  2  0
 17 16  1  0
 18 19  1  0
 19 20  2  0
 21 20  1  0
 22 14  1  0
 23 22  2  0
 24 22  1  0
 25 24  1  0
 26 28  1  0
 26 25  1  0
 27 26  2  0
M  END
$$$$
