YFG.pdb
     RDKit          3D

 28 29  0  0  1  0  0  0  0  0999 V2000
   18.3665    2.5563  -15.9611 O   0  0  0  0  0  0  0  0  0  0  0  0
   17.4804    2.3319  -14.9062 C   0  0  0  0  0  0  0  0  0  0  0  0
   17.9041    2.3131  -13.5936 C   0  0  0  0  0  0  0  0  0  0  0  0
   17.0032    2.0886  -12.5738 C   0  0  0  0  0  0  0  0  0  0  0  0
   15.6600    1.8751  -12.7986 C   0  0  0  0  0  0  0  0  0  0  0  0
   14.6861    1.6323  -11.6953 C   0  0  0  0  0  0  0  0  0  0  0  0
   14.9638    0.3008  -11.0141 C   0  0  2  0  0  0  0  0  0  0  0  0
   14.3806   -0.7330  -11.8132 N   0  0  0  0  0  0  0  0  0  0  0  0
   14.4750    0.3415   -9.6318 C   0  0  0  0  0  0  0  0  0  0  0  0
   13.2548    0.1325   -9.4290 O   0  0  0  0  0  0  0  0  0  0  0  0
   15.2348    1.8941  -14.1168 C   0  0  0  0  0  0  0  0  0  0  0  0
   16.1370    2.1187  -15.1348 C   0  0  0  0  0  0  0  0  0  0  0  0
   15.2851    0.6016   -8.4991 N   0  0  0  0  0  0  0  0  0  0  0  0
   14.7417    0.7000   -7.1612 C   0  0  1  0  0  0  0  0  0  0  0  0
   15.4849   -0.2726   -6.2576 C   0  0  0  0  0  0  0  0  0  0  0  0
   16.8605    0.2020   -5.9749 C   0  0  0  0  0  0  0  0  0  0  0  0
   17.2088    0.6519   -4.7204 C   0  0  0  0  0  0  0  0  0  0  0  0
   18.4985    1.0863   -4.4916 C   0  0  0  0  0  0  0  0  0  0  0  0
   19.4470    1.0810   -5.4883 C   0  0  0  0  0  0  0  0  0  0  0  0
   19.0910    0.6300   -6.7388 C   0  0  0  0  0  0  0  0  0  0  0  0
   17.7900    0.1871   -6.9866 C   0  0  0  0  0  0  0  0  0  0  0  0
   14.9032    2.0732   -6.6191 C   0  0  0  0  0  0  0  0  0  0  0  0
   15.6963    2.8790   -7.1895 O   0  0  0  0  0  0  0  0  0  0  0  0
   14.1868    2.4883   -5.4819 N   0  0  0  0  0  0  0  0  0  0  0  0
   14.2905    3.8679   -5.0680 C   0  0  0  0  0  0  0  0  0  0  0  0
   15.5502    4.1155   -4.3299 C   0  0  0  0  0  0  0  0  0  0  0  0
   16.6419    3.7016   -4.7904 O   0  0  0  0  0  0  0  0  0  0  0  0
   15.5656    4.7995   -3.1286 O   0  0  0  0  0  0  0  0  0  0  0  0
  2  1  1  0
  3  2  2  0
  4  3  1  0
  5  4  2  0
  5 11  1  0
  6  7  1  0
  6  5  1  0
  7  8  1  6
  9  7  1  0
  9 10  2  0
 11 12  2  0
 12  2  1  0
 13  9  1  0
 14 13  1  0
 14 15  1  1
 16 15  1  0
 16 21  2  0
 17 18  2  0
 17 16  1  0
 18 19  1  0
 19 20  2  0
 21 20  1  0
 22 14  1  0
 23 22  2  0
 24 22  1  0
 25 24  1  0
 26 28  1  0
 26 25  1  0
 27 26  2  0
M  END
$$$$
