YFG.pdb
     RDKit          3D

 28 29  0  0  1  0  0  0  0  0999 V2000
   28.9576  -14.3742  -17.3919 O   0  0  0  0  0  0  0  0  0  0  0  0
   28.3293  -15.4594  -16.7787 C   0  0  0  0  0  0  0  0  0  0  0  0
   27.9152  -15.4105  -15.4639 C   0  0  0  0  0  0  0  0  0  0  0  0
   27.2971  -16.5002  -14.8872 C   0  0  0  0  0  0  0  0  0  0  0  0
   27.0620  -17.6733  -15.5719 C   0  0  0  0  0  0  0  0  0  0  0  0
   26.3935  -18.8516  -14.9476 C   0  0  0  0  0  0  0  0  0  0  0  0
   27.3319  -19.5523  -13.9768 C   0  0  2  0  0  0  0  0  0  0  0  0
   28.3805  -20.1592  -14.7381 N   0  0  0  0  0  0  0  0  0  0  0  0
   26.5714  -20.4906  -13.1446 C   0  0  0  0  0  0  0  0  0  0  0  0
   26.4356  -21.6687  -13.5537 O   0  0  0  0  0  0  0  0  0  0  0  0
   27.4779  -17.7221  -16.8922 C   0  0  0  0  0  0  0  0  0  0  0  0
   28.0956  -16.6317  -17.4669 C   0  0  0  0  0  0  0  0  0  0  0  0
   25.9738  -20.1626  -11.9027 N   0  0  0  0  0  0  0  0  0  0  0  0
   25.1188  -21.0836  -11.1845 C   0  0  1  0  0  0  0  0  0  0  0  0
   25.1111  -20.6988   -9.7126 C   0  0  0  0  0  0  0  0  0  0  0  0
   26.4903  -20.5553   -9.1884 C   0  0  0  0  0  0  0  0  0  0  0  0
   27.5383  -21.2427   -9.7597 C   0  0  0  0  0  0  0  0  0  0  0  0
   28.8098  -21.0856   -9.2469 C   0  0  0  0  0  0  0  0  0  0  0  0
   29.0567  -20.2572   -8.1764 C   0  0  0  0  0  0  0  0  0  0  0  0
   28.0041  -19.5740   -7.6114 C   0  0  0  0  0  0  0  0  0  0  0  0
   26.7115  -19.7221   -8.1186 C   0  0  0  0  0  0  0  0  0  0  0  0
   23.7266  -21.0309  -11.6987 C   0  0  0  0  0  0  0  0  0  0  0  0
   23.1992  -19.9086  -11.9555 O   0  0  0  0  0  0  0  0  0  0  0  0
   22.9884  -22.2107  -11.9034 N   0  0  0  0  0  0  0  0  0  0  0  0
   21.7179  -22.1192  -12.5837 C   0  0  0  0  0  0  0  0  0  0  0  0
   20.6190  -21.8264  -11.6353 C   0  0  0  0  0  0  0  0  0  0  0  0
   20.8710  -21.6220  -10.4230 O   0  0  0  0  0  0  0  0  0  0  0  0
   19.3004  -21.7692  -12.0469 O   0  0  0  0  0  0  0  0  0  0  0  0
  2  1  1  0
  3  2  2  0
  4  3  1  0
  5  4  2  0
  5 11  1  0
  6  7  1  0
  6  5  1  0
  7  8  1  6
  9  7  1  0
  9 10  2  0
 11 12  2  0
 12  2  1  0
 13  9  1  0
 14 13  1  0
 14 15  1  1
 16 15  1  0
 16 21  2  0
 17 18  2  0
 17 16  1  0
 18 19  1  0
 19 20  2  0
 21 20  1  0
 22 14  1  0
 23 22  2  0
 24 22  1  0
 25 24  1  0
 26 28  1  0
 26 25  1  0
 27 26  2  0
M  END
$$$$
