YFG.pdb
     RDKit          3D

 28 29  0  0  1  0  0  0  0  0999 V2000
    9.8514   -9.8479    7.7143 O   0  0  0  0  0  0  0  0  0  0  0  0
   10.6348  -10.9951    7.5785 C   0  0  0  0  0  0  0  0  0  0  0  0
   10.0734  -12.2529    7.5044 C   0  0  0  0  0  0  0  0  0  0  0  0
   10.8753  -13.3670    7.3703 C   0  0  0  0  0  0  0  0  0  0  0  0
   12.2502  -13.2928    7.3039 C   0  0  0  0  0  0  0  0  0  0  0  0
   13.1170  -14.4980    7.1589 C   0  0  0  0  0  0  0  0  0  0  0  0
   13.6792  -14.5914    5.7485 C   0  0  2  0  0  0  0  0  0  0  0  0
   12.6047  -14.9333    4.8676 N   0  0  0  0  0  0  0  0  0  0  0  0
   14.8008  -15.5362    5.7252 C   0  0  0  0  0  0  0  0  0  0  0  0
   14.6537  -16.6144    5.1011 O   0  0  0  0  0  0  0  0  0  0  0  0
   12.8136  -12.0296    7.3782 C   0  0  0  0  0  0  0  0  0  0  0  0
   12.0103  -10.9172    7.5123 C   0  0  0  0  0  0  0  0  0  0  0  0
   16.0485  -15.3200    6.3605 N   0  0  0  0  0  0  0  0  0  0  0  0
   17.1371  -16.2704    6.2788 C   0  0  1  0  0  0  0  0  0  0  0  0
   18.3836  -15.5471    5.7915 C   0  0  0  0  0  0  0  0  0  0  0  0
   18.3449  -15.3405    4.3241 C   0  0  0  0  0  0  0  0  0  0  0  0
   18.3551  -14.0714    3.7888 C   0  0  0  0  0  0  0  0  0  0  0  0
   18.3185  -13.9151    2.4182 C   0  0  0  0  0  0  0  0  0  0  0  0
   18.2720  -14.9985    1.5714 C   0  0  0  0  0  0  0  0  0  0  0  0
   18.2621  -16.2631    2.1143 C   0  0  0  0  0  0  0  0  0  0  0  0
   18.2987  -16.4382    3.4992 C   0  0  0  0  0  0  0  0  0  0  0  0
   17.4223  -16.8707    7.6070 C   0  0  0  0  0  0  0  0  0  0  0  0
   17.5013  -16.1220    8.6252 O   0  0  0  0  0  0  0  0  0  0  0  0
   17.6053  -18.2584    7.7467 N   0  0  0  0  0  0  0  0  0  0  0  0
   17.8896  -18.7870    9.0601 C   0  0  0  0  0  0  0  0  0  0  0  0
   16.7473  -19.5700    9.5844 C   0  0  0  0  0  0  0  0  0  0  0  0
   16.0905  -20.3161    8.8182 O   0  0  0  0  0  0  0  0  0  0  0  0
   16.3723  -19.5064   10.9135 O   0  0  0  0  0  0  0  0  0  0  0  0
  2  1  1  0
  3  2  2  0
  4  3  1  0
  5  4  2  0
  5 11  1  0
  6  7  1  0
  6  5  1  0
  7  8  1  6
  9  7  1  0
  9 10  2  0
 11 12  2  0
 12  2  1  0
 13  9  1  0
 14 13  1  0
 14 15  1  1
 16 15  1  0
 16 21  2  0
 17 18  2  0
 17 16  1  0
 18 19  1  0
 19 20  2  0
 21 20  1  0
 22 14  1  0
 23 22  2  0
 24 22  1  0
 25 24  1  0
 26 28  1  0
 26 25  1  0
 27 26  2  0
M  END
$$$$
