YFG.pdb
     RDKit          3D

 28 29  0  0  1  0  0  0  0  0999 V2000
   15.7160  -36.7108  -10.8290 O   0  0  0  0  0  0  0  0  0  0  0  0
   17.1034  -36.6361  -10.6956 C   0  0  0  0  0  0  0  0  0  0  0  0
   17.7089  -35.6446   -9.9520 C   0  0  0  0  0  0  0  0  0  0  0  0
   19.0827  -35.5984   -9.8399 C   0  0  0  0  0  0  0  0  0  0  0  0
   19.9120  -36.5163  -10.4481 C   0  0  0  0  0  0  0  0  0  0  0  0
   21.3978  -36.4658  -10.3266 C   0  0  0  0  0  0  0  0  0  0  0  0
   21.9884  -35.4895  -11.3326 C   0  0  2  0  0  0  0  0  0  0  0  0
   21.7272  -35.9971  -12.6447 N   0  0  0  0  0  0  0  0  0  0  0  0
   23.4102  -35.2787  -11.0405 C   0  0  0  0  0  0  0  0  0  0  0  0
   24.2547  -35.8968  -11.7323 O   0  0  0  0  0  0  0  0  0  0  0  0
   19.3037  -37.5118  -11.1948 C   0  0  0  0  0  0  0  0  0  0  0  0
   17.9303  -37.5562  -11.3057 C   0  0  0  0  0  0  0  0  0  0  0  0
   23.9050  -34.4217  -10.0267 N   0  0  0  0  0  0  0  0  0  0  0  0
   25.3189  -34.1741   -9.8403 C   0  0  1  0  0  0  0  0  0  0  0  0
   25.6317  -32.7555  -10.2924 C   0  0  0  0  0  0  0  0  0  0  0  0
   25.4792  -32.6142  -11.7602 C   0  0  0  0  0  0  0  0  0  0  0  0
   26.4752  -33.0283  -12.6170 C   0  0  0  0  0  0  0  0  0  0  0  0
   26.3004  -32.8824  -13.9780 C   0  0  0  0  0  0  0  0  0  0  0  0
   25.1529  -32.3322  -14.5012 C   0  0  0  0  0  0  0  0  0  0  0  0
   24.1628  -31.9210  -13.6384 C   0  0  0  0  0  0  0  0  0  0  0  0
   24.3243  -32.0617  -12.2585 C   0  0  0  0  0  0  0  0  0  0  0  0
   25.7017  -34.3151   -8.4123 C   0  0  0  0  0  0  0  0  0  0  0  0
   26.9195  -34.2127   -8.0806 O   0  0  0  0  0  0  0  0  0  0  0  0
   24.7293  -34.5607   -7.4260 N   0  0  0  0  0  0  0  0  0  0  0  0
   25.1592  -34.7018   -6.0547 C   0  0  0  0  0  0  0  0  0  0  0  0
   24.8896  -33.4712   -5.2764 C   0  0  0  0  0  0  0  0  0  0  0  0
   24.3860  -32.4683   -5.8382 O   0  0  0  0  0  0  0  0  0  0  0  0
   25.1789  -33.3873   -3.9271 O   0  0  0  0  0  0  0  0  0  0  0  0
  2  1  1  0
  3  2  2  0
  4  3  1  0
  5  4  2  0
  5 11  1  0
  6  7  1  0
  6  5  1  0
  7  8  1  6
  9  7  1  0
  9 10  2  0
 11 12  2  0
 12  2  1  0
 13  9  1  0
 14 13  1  0
 14 15  1  1
 16 15  1  0
 16 21  2  0
 17 18  2  0
 17 16  1  0
 18 19  1  0
 19 20  2  0
 21 20  1  0
 22 14  1  0
 23 22  2  0
 24 22  1  0
 25 24  1  0
 26 28  1  0
 26 25  1  0
 27 26  2  0
M  END
$$$$
