YFG.pdb
     RDKit          3D

 28 29  0  0  1  0  0  0  0  0999 V2000
   27.9217  -13.5008  -19.7235 O   0  0  0  0  0  0  0  0  0  0  0  0
   27.4047  -14.5561  -18.9702 C   0  0  0  0  0  0  0  0  0  0  0  0
   27.4614  -14.5604  -17.5920 C   0  0  0  0  0  0  0  0  0  0  0  0
   26.9413  -15.6185  -16.8765 C   0  0  0  0  0  0  0  0  0  0  0  0
   26.3489  -16.7074  -17.4796 C   0  0  0  0  0  0  0  0  0  0  0  0
   25.7867  -17.8516  -16.7054 C   0  0  0  0  0  0  0  0  0  0  0  0
   26.8999  -18.6785  -16.0801 C   0  0  2  0  0  0  0  0  0  0  0  0
   27.5936  -19.3525  -17.1346 N   0  0  0  0  0  0  0  0  0  0  0  0
   26.3391  -19.5719  -15.0609 C   0  0  0  0  0  0  0  0  0  0  0  0
   26.0504  -20.7456  -15.3967 O   0  0  0  0  0  0  0  0  0  0  0  0
   26.2922  -16.7028  -18.8636 C   0  0  0  0  0  0  0  0  0  0  0  0
   26.8126  -15.6441  -19.5770 C   0  0  0  0  0  0  0  0  0  0  0  0
   26.0970  -19.2048  -13.7142 N   0  0  0  0  0  0  0  0  0  0  0  0
   25.5495  -20.1284  -12.7435 C   0  0  1  0  0  0  0  0  0  0  0  0
   25.9614  -19.6763  -11.3504 C   0  0  0  0  0  0  0  0  0  0  0  0
   25.3808  -20.5555  -10.3076 C   0  0  0  0  0  0  0  0  0  0  0  0
   24.2447  -20.1842   -9.6229 C   0  0  0  0  0  0  0  0  0  0  0  0
   23.7305  -21.0267   -8.6584 C   0  0  0  0  0  0  0  0  0  0  0  0
   24.3265  -22.2313   -8.3635 C   0  0  0  0  0  0  0  0  0  0  0  0
   25.4612  -22.5948   -9.0521 C   0  0  0  0  0  0  0  0  0  0  0  0
   25.9940  -21.7534  -10.0310 C   0  0  0  0  0  0  0  0  0  0  0  0
   24.0665  -20.1613  -12.8154 C   0  0  0  0  0  0  0  0  0  0  0  0
   23.4250  -19.0778  -12.9501 O   0  0  0  0  0  0  0  0  0  0  0  0
   23.3676  -21.3795  -12.7358 N   0  0  0  0  0  0  0  0  0  0  0  0
   21.9261  -21.3430  -12.6584 C   0  0  0  0  0  0  0  0  0  0  0  0
   21.3088  -21.6267  -13.9742 C   0  0  0  0  0  0  0  0  0  0  0  0
   21.5788  -20.9056  -14.9652 O   0  0  0  0  0  0  0  0  0  0  0  0
   20.4289  -22.6780  -14.1520 O   0  0  0  0  0  0  0  0  0  0  0  0
  2  1  1  0
  3  2  2  0
  4  3  1  0
  5  4  2  0
  5 11  1  0
  6  7  1  0
  6  5  1  0
  7  8  1  6
  9  7  1  0
  9 10  2  0
 11 12  2  0
 12  2  1  0
 13  9  1  0
 14 13  1  0
 14 15  1  1
 16 15  1  0
 16 21  2  0
 17 18  2  0
 17 16  1  0
 18 19  1  0
 19 20  2  0
 21 20  1  0
 22 14  1  0
 23 22  2  0
 24 22  1  0
 25 24  1  0
 26 28  1  0
 26 25  1  0
 27 26  2  0
M  END
$$$$
