YFG.pdb
     RDKit          3D

 28 29  0  0  1  0  0  0  0  0999 V2000
   26.7031  -15.9586  -17.2993 O   0  0  0  0  0  0  0  0  0  0  0  0
   26.5154  -16.8122  -16.2110 C   0  0  0  0  0  0  0  0  0  0  0  0
   25.8740  -18.0262  -16.3427 C   0  0  0  0  0  0  0  0  0  0  0  0
   25.7043  -18.8470  -15.2474 C   0  0  0  0  0  0  0  0  0  0  0  0
   26.1537  -18.5125  -13.9879 C   0  0  0  0  0  0  0  0  0  0  0  0
   25.9698  -19.4005  -12.8036 C   0  0  0  0  0  0  0  0  0  0  0  0
   27.3014  -19.9826  -12.3541 C   0  0  2  0  0  0  0  0  0  0  0  0
   27.6906  -20.9783  -13.3053 N   0  0  0  0  0  0  0  0  0  0  0  0
   27.1853  -20.4771  -10.9782 C   0  0  0  0  0  0  0  0  0  0  0  0
   27.0742  -21.7141  -10.8011 O   0  0  0  0  0  0  0  0  0  0  0  0
   26.7977  -17.2933  -13.8559 C   0  0  0  0  0  0  0  0  0  0  0  0
   26.9663  -16.4743  -14.9520 C   0  0  0  0  0  0  0  0  0  0  0  0
   27.1894  -19.6549   -9.8245 N   0  0  0  0  0  0  0  0  0  0  0  0
   27.2942  -20.1950   -8.4858 C   0  0  1  0  0  0  0  0  0  0  0  0
   27.7551  -19.0905   -7.5464 C   0  0  0  0  0  0  0  0  0  0  0  0
   28.0420  -19.6225   -6.1928 C   0  0  0  0  0  0  0  0  0  0  0  0
   29.0863  -20.4960   -5.9837 C   0  0  0  0  0  0  0  0  0  0  0  0
   29.3256  -20.9717   -4.7106 C   0  0  0  0  0  0  0  0  0  0  0  0
   28.5447  -20.5939   -3.6427 C   0  0  0  0  0  0  0  0  0  0  0  0
   27.5033  -19.7209   -3.8601 C   0  0  0  0  0  0  0  0  0  0  0  0
   27.2480  -19.2304   -5.1423 C   0  0  0  0  0  0  0  0  0  0  0  0
   25.9828  -20.7072   -8.0127 C   0  0  0  0  0  0  0  0  0  0  0  0
   25.8933  -21.2179   -6.8574 O   0  0  0  0  0  0  0  0  0  0  0  0
   24.8415  -20.6319   -8.8315 N   0  0  0  0  0  0  0  0  0  0  0  0
   23.5789  -21.0850   -8.2968 C   0  0  0  0  0  0  0  0  0  0  0  0
   22.4849  -20.9130   -9.2799 C   0  0  0  0  0  0  0  0  0  0  0  0
   21.2975  -21.1484   -8.9485 O   0  0  0  0  0  0  0  0  0  0  0  0
   22.7309  -20.4943  -10.5743 O   0  0  0  0  0  0  0  0  0  0  0  0
  2  1  1  0
  3  2  2  0
  4  3  1  0
  5  4  2  0
  5 11  1  0
  6  7  1  0
  6  5  1  0
  7  8  1  6
  9  7  1  0
  9 10  2  0
 11 12  2  0
 12  2  1  0
 13  9  1  0
 14 13  1  0
 14 15  1  1
 16 15  1  0
 16 21  2  0
 17 18  2  0
 17 16  1  0
 18 19  1  0
 19 20  2  0
 21 20  1  0
 22 14  1  0
 23 22  2  0
 24 22  1  0
 25 24  1  0
 26 28  1  0
 26 25  1  0
 27 26  2  0
M  END
$$$$
