YFG.pdb
     RDKit          3D

 28 29  0  0  1  0  0  0  0  0999 V2000
   26.0749  -19.6959  -21.9913 O   0  0  0  0  0  0  0  0  0  0  0  0
   25.6953  -20.0580  -20.6978 C   0  0  0  0  0  0  0  0  0  0  0  0
   24.9772  -21.2088  -20.4472 C   0  0  0  0  0  0  0  0  0  0  0  0
   24.6173  -21.5385  -19.1574 C   0  0  0  0  0  0  0  0  0  0  0  0
   24.9448  -20.7584  -18.0690 C   0  0  0  0  0  0  0  0  0  0  0  0
   24.5553  -21.1154  -16.6742 C   0  0  0  0  0  0  0  0  0  0  0  0
   25.6561  -21.9160  -15.9949 C   0  0  2  0  0  0  0  0  0  0  0  0
   25.7425  -23.1871  -16.6464 N   0  0  0  0  0  0  0  0  0  0  0  0
   25.3930  -21.9944  -14.5542 C   0  0  0  0  0  0  0  0  0  0  0  0
   24.6245  -22.8958  -14.1409 O   0  0  0  0  0  0  0  0  0  0  0  0
   25.6659  -19.6029  -18.3209 C   0  0  0  0  0  0  0  0  0  0  0  0
   26.0247  -19.2751  -19.6111 C   0  0  0  0  0  0  0  0  0  0  0  0
   25.9467  -21.1206  -13.5863 N   0  0  0  0  0  0  0  0  0  0  0  0
   25.5818  -21.1797  -12.1868 C   0  0  1  0  0  0  0  0  0  0  0  0
   26.6673  -20.4971  -11.3681 C   0  0  0  0  0  0  0  0  0  0  0  0
   26.2326  -20.2921   -9.9657 C   0  0  0  0  0  0  0  0  0  0  0  0
   26.1493  -21.3519   -9.0898 C   0  0  0  0  0  0  0  0  0  0  0  0
   25.7414  -21.1256   -7.7911 C   0  0  0  0  0  0  0  0  0  0  0  0
   25.4149  -19.8643   -7.3489 C   0  0  0  0  0  0  0  0  0  0  0  0
   25.5007  -18.8108   -8.2303 C   0  0  0  0  0  0  0  0  0  0  0  0
   25.9119  -19.0232   -9.5478 C   0  0  0  0  0  0  0  0  0  0  0  0
   24.2919  -20.4856  -11.9418 C   0  0  0  0  0  0  0  0  0  0  0  0
   24.0619  -19.3784  -12.5117 O   0  0  0  0  0  0  0  0  0  0  0  0
   23.3245  -21.0427  -11.0858 N   0  0  0  0  0  0  0  0  0  0  0  0
   22.1473  -20.2652  -10.7781 C   0  0  0  0  0  0  0  0  0  0  0  0
   21.0146  -20.6313  -11.6590 C   0  0  0  0  0  0  0  0  0  0  0  0
   21.1819  -21.4559  -12.5901 O   0  0  0  0  0  0  0  0  0  0  0  0
   19.7558  -20.0859  -11.4879 O   0  0  0  0  0  0  0  0  0  0  0  0
  2  1  1  0
  3  2  2  0
  4  3  1  0
  5  4  2  0
  5 11  1  0
  6  7  1  0
  6  5  1  0
  7  8  1  6
  9  7  1  0
  9 10  2  0
 11 12  2  0
 12  2  1  0
 13  9  1  0
 14 13  1  0
 14 15  1  1
 16 15  1  0
 16 21  2  0
 17 18  2  0
 17 16  1  0
 18 19  1  0
 19 20  2  0
 21 20  1  0
 22 14  1  0
 23 22  2  0
 24 22  1  0
 25 24  1  0
 26 28  1  0
 26 25  1  0
 27 26  2  0
M  END
$$$$
