YFG.pdb
     RDKit          3D

 28 29  0  0  1  0  0  0  0  0999 V2000
   17.4016  -24.0957  -15.7808 O   0  0  0  0  0  0  0  0  0  0  0  0
   18.5612  -23.3777  -15.4839 C   0  0  0  0  0  0  0  0  0  0  0  0
   19.7242  -24.0069  -15.0914 C   0  0  0  0  0  0  0  0  0  0  0  0
   20.8533  -23.2685  -14.8051 C   0  0  0  0  0  0  0  0  0  0  0  0
   20.8870  -21.8932  -14.8916 C   0  0  0  0  0  0  0  0  0  0  0  0
   22.1084  -21.0951  -14.5818 C   0  0  0  0  0  0  0  0  0  0  0  0
   22.5209  -21.2822  -13.1296 C   0  0  2  0  0  0  0  0  0  0  0  0
   21.4838  -20.7434  -12.3040 N   0  0  0  0  0  0  0  0  0  0  0  0
   23.8401  -20.6802  -12.9090 C   0  0  0  0  0  0  0  0  0  0  0  0
   23.9139  -19.4307  -12.8247 O   0  0  0  0  0  0  0  0  0  0  0  0
   19.7189  -21.2616  -15.2857 C   0  0  0  0  0  0  0  0  0  0  0  0
   18.5913  -22.0015  -15.5715 C   0  0  0  0  0  0  0  0  0  0  0  0
   25.0472  -21.4109  -12.7831 N   0  0  0  0  0  0  0  0  0  0  0  0
   26.3292  -20.7666  -12.5924 C   0  0  1  0  0  0  0  0  0  0  0  0
   27.0396  -21.4263  -11.4200 C   0  0  0  0  0  0  0  0  0  0  0  0
   26.4103  -21.0510  -10.1313 C   0  0  0  0  0  0  0  0  0  0  0  0
   27.0983  -20.3048   -9.1999 C   0  0  0  0  0  0  0  0  0  0  0  0
   26.4822  -19.9727   -8.0107 C   0  0  0  0  0  0  0  0  0  0  0  0
   25.1946  -20.3695   -7.7319 C   0  0  0  0  0  0  0  0  0  0  0  0
   24.5142  -21.1148   -8.6677 C   0  0  0  0  0  0  0  0  0  0  0  0
   25.1235  -21.4591   -9.8760 C   0  0  0  0  0  0  0  0  0  0  0  0
   27.1795  -20.9013  -13.8025 C   0  0  0  0  0  0  0  0  0  0  0  0
   26.9689  -21.8544  -14.6092 O   0  0  0  0  0  0  0  0  0  0  0  0
   28.2141  -19.9843  -14.0625 N   0  0  0  0  0  0  0  0  0  0  0  0
   27.8913  -18.7600  -14.7568 C   0  0  0  0  0  0  0  0  0  0  0  0
   27.7581  -18.9864  -16.2142 C   0  0  0  0  0  0  0  0  0  0  0  0
   27.9717  -20.1250  -16.6968 O   0  0  0  0  0  0  0  0  0  0  0  0
   27.3998  -17.9679  -17.0776 O   0  0  0  0  0  0  0  0  0  0  0  0
  2  1  1  0
  3  2  2  0
  4  3  1  0
  5  4  2  0
  5 11  1  0
  6  7  1  0
  6  5  1  0
  7  8  1  1
  9  7  1  0
  9 10  2  0
 11 12  2  0
 12  2  1  0
 13  9  1  0
 14 13  1  0
 14 15  1  1
 16 15  1  0
 16 21  2  0
 17 18  2  0
 17 16  1  0
 18 19  1  0
 19 20  2  0
 21 20  1  0
 22 14  1  0
 23 22  2  0
 24 22  1  0
 25 24  1  0
 26 28  1  0
 26 25  1  0
 27 26  2  0
M  END
$$$$
