YFG.pdb
     RDKit          3D

 28 29  0  0  1  0  0  0  0  0999 V2000
   24.1258  -13.6347  -21.3118 O   0  0  0  0  0  0  0  0  0  0  0  0
   23.9493  -14.8001  -20.5641 C   0  0  0  0  0  0  0  0  0  0  0  0
   24.1139  -14.8160  -19.1947 C   0  0  0  0  0  0  0  0  0  0  0  0
   23.9321  -15.9843  -18.4847 C   0  0  0  0  0  0  0  0  0  0  0  0
   23.5841  -17.1755  -19.0849 C   0  0  0  0  0  0  0  0  0  0  0  0
   23.3877  -18.4388  -18.3164 C   0  0  0  0  0  0  0  0  0  0  0  0
   24.7268  -19.0540  -17.9388 C   0  0  2  0  0  0  0  0  0  0  0  0
   25.1754  -19.8451  -19.0435 N   0  0  0  0  0  0  0  0  0  0  0  0
   24.5921  -19.7971  -16.6814 C   0  0  0  0  0  0  0  0  0  0  0  0
   24.3377  -21.0240  -16.7432 O   0  0  0  0  0  0  0  0  0  0  0  0
   23.4190  -17.1592  -20.4600 C   0  0  0  0  0  0  0  0  0  0  0  0
   23.6011  -15.9903  -21.1680 C   0  0  0  0  0  0  0  0  0  0  0  0
   24.7290  -19.2276  -15.3915 N   0  0  0  0  0  0  0  0  0  0  0  0
   24.5525  -19.9983  -14.1791 C   0  0  1  0  0  0  0  0  0  0  0  0
   25.4832  -19.4482  -13.1087 C   0  0  0  0  0  0  0  0  0  0  0  0
   25.4134  -20.2582  -11.8692 C   0  0  0  0  0  0  0  0  0  0  0  0
   26.0120  -21.4969  -11.8000 C   0  0  0  0  0  0  0  0  0  0  0  0
   25.9279  -22.2244  -10.6304 C   0  0  0  0  0  0  0  0  0  0  0  0
   25.2593  -21.7414   -9.5291 C   0  0  0  0  0  0  0  0  0  0  0  0
   24.6640  -20.5030   -9.6064 C   0  0  0  0  0  0  0  0  0  0  0  0
   24.7400  -19.7544  -10.7828 C   0  0  0  0  0  0  0  0  0  0  0  0
   23.1539  -19.9074  -13.6878 C   0  0  0  0  0  0  0  0  0  0  0  0
   22.7234  -18.8067  -13.2331 O   0  0  0  0  0  0  0  0  0  0  0  0
   22.3035  -21.0275  -13.7217 N   0  0  0  0  0  0  0  0  0  0  0  0
   20.9828  -20.9073  -13.1502 C   0  0  0  0  0  0  0  0  0  0  0  0
   20.6359  -22.0978  -12.3408 C   0  0  0  0  0  0  0  0  0  0  0  0
   21.2549  -23.1764  -12.5095 O   0  0  0  0  0  0  0  0  0  0  0  0
   19.6350  -22.0615  -11.3878 O   0  0  0  0  0  0  0  0  0  0  0  0
  2  1  1  0
  3  2  2  0
  4  3  1  0
  5  4  2  0
  5 11  1  0
  6  7  1  0
  6  5  1  0
  7  8  1  6
  9  7  1  0
  9 10  2  0
 11 12  2  0
 12  2  1  0
 13  9  1  0
 14 13  1  0
 14 15  1  1
 16 15  1  0
 16 21  2  0
 17 18  2  0
 17 16  1  0
 18 19  1  0
 19 20  2  0
 21 20  1  0
 22 14  1  0
 23 22  2  0
 24 22  1  0
 25 24  1  0
 26 28  1  0
 26 25  1  0
 27 26  2  0
M  END
$$$$
