YFG.pdb
     RDKit          3D

 28 29  0  0  1  0  0  0  0  0999 V2000
   23.1313  -27.2283  -13.9161 O   0  0  0  0  0  0  0  0  0  0  0  0
   23.1158  -25.8348  -13.8354 C   0  0  0  0  0  0  0  0  0  0  0  0
   21.9776  -25.1407  -13.4815 C   0  0  0  0  0  0  0  0  0  0  0  0
   21.9952  -23.7635  -13.4108 C   0  0  0  0  0  0  0  0  0  0  0  0
   23.1217  -23.0169  -13.6824 C   0  0  0  0  0  0  0  0  0  0  0  0
   23.1402  -21.5274  -13.6059 C   0  0  0  0  0  0  0  0  0  0  0  0
   22.7117  -20.9140  -14.9303 C   0  0  2  0  0  0  0  0  0  0  0  0
   23.7504  -20.0301  -15.3630 N   0  0  0  0  0  0  0  0  0  0  0  0
   21.4010  -20.2737  -14.7773 C   0  0  0  0  0  0  0  0  0  0  0  0
   21.3458  -19.1746  -14.1750 O   0  0  0  0  0  0  0  0  0  0  0  0
   24.2646  -23.7143  -14.0378 C   0  0  0  0  0  0  0  0  0  0  0  0
   24.2449  -25.0910  -14.1079 C   0  0  0  0  0  0  0  0  0  0  0  0
   20.1824  -20.8085  -15.2632 N   0  0  0  0  0  0  0  0  0  0  0  0
   18.9175  -20.1211  -15.1130 C   0  0  1  0  0  0  0  0  0  0  0  0
   18.3822  -19.7729  -16.4939 C   0  0  0  0  0  0  0  0  0  0  0  0
   19.2607  -18.7949  -17.1789 C   0  0  0  0  0  0  0  0  0  0  0  0
   20.2827  -19.2174  -18.0002 C   0  0  0  0  0  0  0  0  0  0  0  0
   21.0814  -18.2800  -18.6228 C   0  0  0  0  0  0  0  0  0  0  0  0
   20.8815  -16.9307  -18.4427 C   0  0  0  0  0  0  0  0  0  0  0  0
   19.8583  -16.5169  -17.6206 C   0  0  0  0  0  0  0  0  0  0  0  0
   19.0411  -17.4528  -16.9833 C   0  0  0  0  0  0  0  0  0  0  0  0
   17.9235  -20.9782  -14.4181 C   0  0  0  0  0  0  0  0  0  0  0  0
   16.7743  -20.5142  -14.1579 O   0  0  0  0  0  0  0  0  0  0  0  0
   18.2430  -22.2968  -14.0464 N   0  0  0  0  0  0  0  0  0  0  0  0
   17.1961  -23.1340  -13.5094 C   0  0  0  0  0  0  0  0  0  0  0  0
   17.3111  -23.2632  -12.0387 C   0  0  0  0  0  0  0  0  0  0  0  0
   18.2026  -22.6339  -11.4189 O   0  0  0  0  0  0  0  0  0  0  0  0
   16.4543  -24.0682  -11.3112 O   0  0  0  0  0  0  0  0  0  0  0  0
  2  1  1  0
  3  2  2  0
  4  3  1  0
  5  4  2  0
  5 11  1  0
  6  7  1  0
  6  5  1  0
  7  8  1  1
  9  7  1  0
  9 10  2  0
 11 12  2  0
 12  2  1  0
 13  9  1  0
 14 13  1  0
 14 15  1  6
 16 15  1  0
 16 21  2  0
 17 18  2  0
 17 16  1  0
 18 19  1  0
 19 20  2  0
 21 20  1  0
 22 14  1  0
 23 22  2  0
 24 22  1  0
 25 24  1  0
 26 28  1  0
 26 25  1  0
 27 26  2  0
M  END
$$$$
