YFG.pdb
     RDKit          3D

 28 29  0  0  1  0  0  0  0  0999 V2000
   29.4345  -15.7204  -18.3430 O   0  0  0  0  0  0  0  0  0  0  0  0
   28.6529  -16.5290  -17.5160 C   0  0  0  0  0  0  0  0  0  0  0  0
   28.2921  -16.1334  -16.2448 C   0  0  0  0  0  0  0  0  0  0  0  0
   27.5188  -16.9558  -15.4525 C   0  0  0  0  0  0  0  0  0  0  0  0
   27.0714  -18.1903  -15.8720 C   0  0  0  0  0  0  0  0  0  0  0  0
   26.2351  -19.0793  -15.0146 C   0  0  0  0  0  0  0  0  0  0  0  0
   27.1003  -19.8401  -14.0213 C   0  0  2  0  0  0  0  0  0  0  0  0
   27.9887  -20.6806  -14.7641 N   0  0  0  0  0  0  0  0  0  0  0  0
   26.2456  -20.5588  -13.0704 C   0  0  0  0  0  0  0  0  0  0  0  0
   25.8735  -21.7191  -13.3688 O   0  0  0  0  0  0  0  0  0  0  0  0
   27.4339  -18.5872  -17.1486 C   0  0  0  0  0  0  0  0  0  0  0  0
   28.2069  -17.7637  -17.9391 C   0  0  0  0  0  0  0  0  0  0  0  0
   25.8051  -20.0358  -11.8297 N   0  0  0  0  0  0  0  0  0  0  0  0
   24.9489  -20.7815  -10.9321 C   0  0  1  0  0  0  0  0  0  0  0  0
   25.2417  -20.3489   -9.5032 C   0  0  0  0  0  0  0  0  0  0  0  0
   26.6683  -20.5604   -9.1602 C   0  0  0  0  0  0  0  0  0  0  0  0
   27.4641  -21.3845   -9.9251 C   0  0  0  0  0  0  0  0  0  0  0  0
   28.7882  -21.5589   -9.5777 C   0  0  0  0  0  0  0  0  0  0  0  0
   29.3340  -20.9282   -8.4834 C   0  0  0  0  0  0  0  0  0  0  0  0
   28.5322  -20.1066   -7.7245 C   0  0  0  0  0  0  0  0  0  0  0  0
   27.1903  -19.9197   -8.0627 C   0  0  0  0  0  0  0  0  0  0  0  0
   23.5158  -20.5239  -11.2244 C   0  0  0  0  0  0  0  0  0  0  0  0
   23.1748  -19.4224  -11.7478 O   0  0  0  0  0  0  0  0  0  0  0  0
   22.5348  -21.4874  -10.9272 N   0  0  0  0  0  0  0  0  0  0  0  0
   21.1514  -21.1647  -11.1867 C   0  0  0  0  0  0  0  0  0  0  0  0
   20.6765  -21.7972  -12.4387 C   0  0  0  0  0  0  0  0  0  0  0  0
   21.3146  -21.6358  -13.5072 O   0  0  0  0  0  0  0  0  0  0  0  0
   19.5333  -22.5738  -12.4716 O   0  0  0  0  0  0  0  0  0  0  0  0
  2  1  1  0
  3  2  2  0
  4  3  1  0
  5  4  2  0
  5 11  1  0
  6  7  1  0
  6  5  1  0
  7  8  1  6
  9  7  1  0
  9 10  2  0
 11 12  2  0
 12  2  1  0
 13  9  1  0
 14 13  1  0
 14 15  1  1
 16 15  1  0
 16 21  2  0
 17 18  2  0
 17 16  1  0
 18 19  1  0
 19 20  2  0
 21 20  1  0
 22 14  1  0
 23 22  2  0
 24 22  1  0
 25 24  1  0
 26 28  1  0
 26 25  1  0
 27 26  2  0
M  END
$$$$
