YFG.pdb
     RDKit          3D

 28 29  0  0  1  0  0  0  0  0999 V2000
   22.5786  -18.8709  -17.2010 O   0  0  0  0  0  0  0  0  0  0  0  0
   23.0220  -19.3211  -15.9564 C   0  0  0  0  0  0  0  0  0  0  0  0
   23.4217  -18.4459  -14.9680 C   0  0  0  0  0  0  0  0  0  0  0  0
   23.8547  -18.9229  -13.7485 C   0  0  0  0  0  0  0  0  0  0  0  0
   23.9127  -20.2677  -13.4515 C   0  0  0  0  0  0  0  0  0  0  0  0
   24.3812  -20.7830  -12.1324 C   0  0  0  0  0  0  0  0  0  0  0  0
   25.8714  -20.5347  -11.9549 C   0  0  2  0  0  0  0  0  0  0  0  0
   26.5668  -21.3029  -12.9417 N   0  0  0  0  0  0  0  0  0  0  0  0
   26.2613  -20.8351  -10.5732 C   0  0  0  0  0  0  0  0  0  0  0  0
   26.2759  -22.0358  -10.2100 O   0  0  0  0  0  0  0  0  0  0  0  0
   23.5113  -21.1463  -14.4443 C   0  0  0  0  0  0  0  0  0  0  0  0
   23.0788  -20.6676  -15.6626 C   0  0  0  0  0  0  0  0  0  0  0  0
   26.6256  -19.8621   -9.6101 N   0  0  0  0  0  0  0  0  0  0  0  0
   27.0039  -20.2113   -8.2574 C   0  0  1  0  0  0  0  0  0  0  0  0
   27.7394  -19.0339   -7.6348 C   0  0  0  0  0  0  0  0  0  0  0  0
   28.2608  -19.3774   -6.2903 C   0  0  0  0  0  0  0  0  0  0  0  0
   27.7843  -18.7426   -5.1644 C   0  0  0  0  0  0  0  0  0  0  0  0
   28.2914  -19.0869   -3.9281 C   0  0  0  0  0  0  0  0  0  0  0  0
   29.2636  -20.0511   -3.7923 C   0  0  0  0  0  0  0  0  0  0  0  0
   29.7343  -20.6805   -4.9220 C   0  0  0  0  0  0  0  0  0  0  0  0
   29.2314  -20.3435   -6.1804 C   0  0  0  0  0  0  0  0  0  0  0  0
   25.8085  -20.5179   -7.4311 C   0  0  0  0  0  0  0  0  0  0  0  0
   24.8351  -19.7080   -7.4187 O   0  0  0  0  0  0  0  0  0  0  0  0
   25.7451  -21.6952   -6.6637 N   0  0  0  0  0  0  0  0  0  0  0  0
   24.6467  -21.8573   -5.7404 C   0  0  0  0  0  0  0  0  0  0  0  0
   23.3943  -22.2061   -6.4493 C   0  0  0  0  0  0  0  0  0  0  0  0
   23.3709  -22.2474   -7.7035 O   0  0  0  0  0  0  0  0  0  0  0  0
   22.2280  -22.4932   -5.7647 O   0  0  0  0  0  0  0  0  0  0  0  0
  2  1  1  0
  3  2  2  0
  4  3  1  0
  5  4  2  0
  5 11  1  0
  6  7  1  0
  6  5  1  0
  7  8  1  6
  9  7  1  0
  9 10  2  0
 11 12  2  0
 12  2  1  0
 13  9  1  0
 14 13  1  0
 14 15  1  1
 16 15  1  0
 16 21  2  0
 17 18  2  0
 17 16  1  0
 18 19  1  0
 19 20  2  0
 21 20  1  0
 22 14  1  0
 23 22  2  0
 24 22  1  0
 25 24  1  0
 26 28  1  0
 26 25  1  0
 27 26  2  0
M  END
$$$$
