YFG.pdb
     RDKit          3D

 28 29  0  0  1  0  0  0  0  0999 V2000
   17.2177  -23.5260  -10.2452 O   0  0  0  0  0  0  0  0  0  0  0  0
   18.4977  -22.9727  -10.3062 C   0  0  0  0  0  0  0  0  0  0  0  0
   19.5454  -23.4837   -9.5687 C   0  0  0  0  0  0  0  0  0  0  0  0
   20.7986  -22.9140   -9.6512 C   0  0  0  0  0  0  0  0  0  0  0  0
   21.0729  -21.8279  -10.4546 C   0  0  0  0  0  0  0  0  0  0  0  0
   22.4285  -21.2121  -10.5434 C   0  0  0  0  0  0  0  0  0  0  0  0
   22.8524  -20.6447   -9.1971 C   0  0  2  0  0  0  0  0  0  0  0  0
   21.9065  -19.6371   -8.8261 N   0  0  0  0  0  0  0  0  0  0  0  0
   24.2381  -20.1703   -9.2749 C   0  0  0  0  0  0  0  0  0  0  0  0
   24.4508  -19.0455   -9.7880 O   0  0  0  0  0  0  0  0  0  0  0  0
   20.0206  -21.3150  -11.1950 C   0  0  0  0  0  0  0  0  0  0  0  0
   18.7686  -21.8859  -11.1112 C   0  0  0  0  0  0  0  0  0  0  0  0
   25.3637  -20.8940   -8.8099 N   0  0  0  0  0  0  0  0  0  0  0  0
   26.7200  -20.5328   -9.1636 C   0  0  1  0  0  0  0  0  0  0  0  0
   27.6623  -21.0560   -8.0898 C   0  0  0  0  0  0  0  0  0  0  0  0
   27.5559  -20.2559   -6.8464 C   0  0  0  0  0  0  0  0  0  0  0  0
   27.4394  -20.8700   -5.6189 C   0  0  0  0  0  0  0  0  0  0  0  0
   27.3428  -20.0948   -4.4814 C   0  0  0  0  0  0  0  0  0  0  0  0
   27.3600  -18.7204   -4.5435 C   0  0  0  0  0  0  0  0  0  0  0  0
   27.4767  -18.1147   -5.7737 C   0  0  0  0  0  0  0  0  0  0  0  0
   27.5755  -18.8849   -6.9343 C   0  0  0  0  0  0  0  0  0  0  0  0
   27.1073  -21.1263  -10.4687 C   0  0  0  0  0  0  0  0  0  0  0  0
   27.3159  -22.3727  -10.5491 O   0  0  0  0  0  0  0  0  0  0  0  0
   27.2449  -20.3216  -11.6143 N   0  0  0  0  0  0  0  0  0  0  0  0
   27.6602  -20.9455  -12.8486 C   0  0  0  0  0  0  0  0  0  0  0  0
   27.8168  -19.9468  -13.9307 C   0  0  0  0  0  0  0  0  0  0  0  0
   27.4748  -18.7542  -13.7415 O   0  0  0  0  0  0  0  0  0  0  0  0
   28.3364  -20.2891  -15.1652 O   0  0  0  0  0  0  0  0  0  0  0  0
  2  1  1  0
  3  2  2  0
  4  3  1  0
  5  4  2  0
  5 11  1  0
  6  7  1  0
  6  5  1  0
  7  8  1  6
  9  7  1  0
  9 10  2  0
 11 12  2  0
 12  2  1  0
 13  9  1  0
 14 13  1  0
 14 15  1  1
 16 15  1  0
 16 21  2  0
 17 18  2  0
 17 16  1  0
 18 19  1  0
 19 20  2  0
 21 20  1  0
 22 14  1  0
 23 22  2  0
 24 22  1  0
 25 24  1  0
 26 28  1  0
 26 25  1  0
 27 26  2  0
M  END
$$$$
