TIT.pdb
     RDKit          3D

 23 22  0  0  1  0  0  0  0  0999 V2000
   26.1934  -13.5832  -20.8219 C   0  0  0  0  0  0  0  0  0  0  0  0
   25.0059  -13.1413  -20.0160 C   0  0  1  0  0  0  0  0  0  0  0  0
   24.5092  -14.1851  -19.2085 O   0  0  0  0  0  0  0  0  0  0  0  0
   25.3507  -11.9981  -19.0703 C   0  0  2  0  0  0  0  0  0  0  0  0
   26.3496  -12.5012  -18.1567 N   0  0  0  0  0  0  0  0  0  0  0  0
   24.1013  -11.6100  -18.2876 C   0  0  0  0  0  0  0  0  0  0  0  0
   23.0876  -11.3619  -18.9519 O   0  0  0  0  0  0  0  0  0  0  0  0
   21.6711  -13.8659  -15.5029 C   0  0  0  0  0  0  0  0  0  0  0  0
   23.0119  -13.4757  -14.9954 C   0  0  0  0  0  0  0  0  0  0  0  0
   23.1538  -11.9911  -14.6812 C   0  0  2  0  0  0  0  0  0  0  0  0
   22.1148  -11.6671  -13.6479 C   0  0  0  0  0  0  0  0  0  0  0  0
   23.0925  -11.2042  -15.9538 C   0  0  2  0  0  0  0  0  0  0  0  0
   24.1461  -11.5509  -16.8968 N   0  0  0  0  0  0  0  0  0  0  0  0
   23.0162   -9.7656  -15.7409 C   0  0  0  0  0  0  0  0  0  0  0  0
   24.0080   -9.2013  -15.1190 O   0  0  0  0  0  0  0  0  0  0  0  0
   23.1633   -6.7958  -18.0684 C   0  0  0  0  0  0  0  0  0  0  0  0
   21.9715   -6.6546  -17.1810 C   0  0  1  0  0  0  0  0  0  0  0  0
   20.8446   -7.1163  -17.8891 O   0  0  0  0  0  0  0  0  0  0  0  0
   22.1040   -7.4227  -15.8763 C   0  0  2  0  0  0  0  0  0  0  0  0
   22.0159   -8.8581  -16.1148 N   0  0  0  0  0  0  0  0  0  0  0  0
   20.9708   -7.0442  -14.9998 C   0  0  0  0  0  0  0  0  0  0  0  0
   20.9277   -5.7834  -14.3732 O   0  0  0  0  0  0  0  0  0  0  0  0
   19.9869   -7.7842  -14.7474 O   0  0  0  0  0  0  0  0  0  0  0  0
  2  1  1  1
  2  4  1  0
  3  2  1  0
  4  5  1  1
  6  4  1  0
  6  7  2  0
  8  9  1  0
  9 10  1  0
 10 11  1  1
 12 13  1  6
 12 10  1  0
 13  6  1  0
 14 12  1  0
 15 14  2  0
 17 16  1  6
 18 17  1  0
 19 17  1  0
 19 20  1  6
 20 14  1  0
 21 22  1  0
 21 19  1  0
 23 21  2  0
M  END
$$$$
