TIT.pdb
     RDKit          3D

 23 22  0  0  1  0  0  0  0  0999 V2000
   17.6180   -9.4308  -20.8516 C   0  0  0  0  0  0  0  0  0  0  0  0
   18.1779   -9.2261  -19.4734 C   0  0  1  0  0  0  0  0  0  0  0  0
   17.1737   -8.8573  -18.5548 O   0  0  0  0  0  0  0  0  0  0  0  0
   18.8152  -10.4947  -18.9214 C   0  0  2  0  0  0  0  0  0  0  0  0
   17.7777  -11.4985  -18.8833 N   0  0  0  0  0  0  0  0  0  0  0  0
   19.3076  -10.2243  -17.5042 C   0  0  0  0  0  0  0  0  0  0  0  0
   18.5638  -10.5822  -16.5828 O   0  0  0  0  0  0  0  0  0  0  0  0
   24.3064  -10.4723  -14.1528 C   0  0  0  0  0  0  0  0  0  0  0  0
   23.0804   -9.7070  -14.4975 C   0  0  0  0  0  0  0  0  0  0  0  0
   22.4575  -10.0930  -15.8339 C   0  0  2  0  0  0  0  0  0  0  0  0
   23.5369   -9.9605  -16.8679 C   0  0  0  0  0  0  0  0  0  0  0  0
   21.2190   -9.2819  -16.0593 C   0  0  2  0  0  0  0  0  0  0  0  0
   20.5386   -9.6037  -17.3055 N   0  0  0  0  0  0  0  0  0  0  0  0
   21.4335   -7.8483  -15.9207 C   0  0  0  0  0  0  0  0  0  0  0  0
   22.0826   -7.2475  -16.8730 O   0  0  0  0  0  0  0  0  0  0  0  0
   20.1240   -3.3120  -14.6676 C   0  0  0  0  0  0  0  0  0  0  0  0
   19.9469   -4.7905  -14.7695 C   0  0  1  0  0  0  0  0  0  0  0  0
   19.1130   -5.0538  -15.8738 O   0  0  0  0  0  0  0  0  0  0  0  0
   21.2594   -5.5394  -14.9314 C   0  0  2  0  0  0  0  0  0  0  0  0
   21.0362   -6.9795  -14.8954 N   0  0  0  0  0  0  0  0  0  0  0  0
   22.1336   -5.1932  -13.7862 C   0  0  0  0  0  0  0  0  0  0  0  0
   23.0948   -4.1689  -13.8907 O   0  0  0  0  0  0  0  0  0  0  0  0
   22.0971   -5.7596  -12.6649 O   0  0  0  0  0  0  0  0  0  0  0  0
  2  1  1  6
  2  4  1  0
  3  2  1  0
  4  5  1  1
  6  4  1  0
  6  7  2  0
  8  9  1  0
  9 10  1  0
 10 11  1  6
 12 13  1  6
 12 10  1  0
 13  6  1  0
 14 12  1  0
 15 14  2  0
 17 16  1  6
 18 17  1  0
 19 17  1  0
 19 20  1  1
 20 14  1  0
 21 22  1  0
 21 19  1  0
 23 21  2  0
M  END
$$$$
