TIT.pdb
     RDKit          3D

 23 22  0  0  1  0  0  0  0  0999 V2000
   28.5608  -18.8182  -16.2501 C   0  0  0  0  0  0  0  0  0  0  0  0
   27.3856  -19.4998  -15.6106 C   0  0  1  0  0  0  0  0  0  0  0  0
   26.5003  -20.0222  -16.5759 O   0  0  0  0  0  0  0  0  0  0  0  0
   27.8108  -20.6762  -14.7415 C   0  0  2  0  0  0  0  0  0  0  0  0
   28.3654  -21.6705  -15.6300 N   0  0  0  0  0  0  0  0  0  0  0  0
   26.5797  -21.2496  -14.0487 C   0  0  0  0  0  0  0  0  0  0  0  0
   26.0278  -22.2068  -14.6050 O   0  0  0  0  0  0  0  0  0  0  0  0
   26.5635  -20.5824   -8.6345 C   0  0  0  0  0  0  0  0  0  0  0  0
   26.2873  -21.1150   -9.9938 C   0  0  0  0  0  0  0  0  0  0  0  0
   25.0368  -20.5401  -10.6484 C   0  0  2  0  0  0  0  0  0  0  0  0
   23.8815  -20.8955   -9.7591 C   0  0  0  0  0  0  0  0  0  0  0  0
   24.9536  -21.0144  -12.0664 C   0  0  2  0  0  0  0  0  0  0  0  0
   26.1359  -20.6916  -12.8521 N   0  0  0  0  0  0  0  0  0  0  0  0
   23.7317  -20.6025  -12.7431 C   0  0  0  0  0  0  0  0  0  0  0  0
   23.5774  -19.3331  -12.9750 O   0  0  0  0  0  0  0  0  0  0  0  0
   22.3670  -20.9966  -16.2232 C   0  0  0  0  0  0  0  0  0  0  0  0
   21.3189  -21.4307  -15.2531 C   0  0  1  0  0  0  0  0  0  0  0  0
   21.3701  -22.8351  -15.1567 O   0  0  0  0  0  0  0  0  0  0  0  0
   21.4920  -20.8180  -13.8731 C   0  0  2  0  0  0  0  0  0  0  0  0
   22.6605  -21.3786  -13.2058 N   0  0  0  0  0  0  0  0  0  0  0  0
   20.3027  -21.1656  -13.0605 C   0  0  0  0  0  0  0  0  0  0  0  0
   19.0457  -20.5906  -13.3310 O   0  0  0  0  0  0  0  0  0  0  0  0
   20.3092  -21.9717  -12.0963 O   0  0  0  0  0  0  0  0  0  0  0  0
  2  1  1  6
  2  4  1  0
  3  2  1  0
  4  5  1  6
  6  4  1  0
  6  7  2  0
  8  9  1  0
  9 10  1  0
 10 11  1  1
 12 13  1  6
 12 10  1  0
 13  6  1  0
 14 12  1  0
 15 14  2  0
 17 16  1  6
 18 17  1  0
 19 17  1  0
 19 20  1  1
 20 14  1  0
 21 22  1  0
 21 19  1  0
 23 21  2  0
M  END
$$$$
