TIT.pdb
     RDKit          3D

 23 22  0  0  1  0  0  0  0  0999 V2000
   26.7893  -19.7028  -16.8986 C   0  0  0  0  0  0  0  0  0  0  0  0
   27.6445  -19.1586  -15.7907 C   0  0  1  0  0  0  0  0  0  0  0  0
   26.9741  -18.1534  -15.0636 O   0  0  0  0  0  0  0  0  0  0  0  0
   28.0237  -20.2339  -14.7808 C   0  0  2  0  0  0  0  0  0  0  0  0
   28.7426  -21.2531  -15.5088 N   0  0  0  0  0  0  0  0  0  0  0  0
   26.7501  -20.8349  -14.1968 C   0  0  0  0  0  0  0  0  0  0  0  0
   26.1464  -21.6481  -14.9071 O   0  0  0  0  0  0  0  0  0  0  0  0
   26.7048  -20.5018   -8.7179 C   0  0  0  0  0  0  0  0  0  0  0  0
   26.4666  -21.0019  -10.0966 C   0  0  0  0  0  0  0  0  0  0  0  0
   25.1851  -20.4824  -10.7374 C   0  0  2  0  0  0  0  0  0  0  0  0
   24.0489  -20.9661   -9.8848 C   0  0  0  0  0  0  0  0  0  0  0  0
   25.1508  -20.8841  -12.1797 C   0  0  2  0  0  0  0  0  0  0  0  0
   26.3267  -20.4577  -12.9246 N   0  0  0  0  0  0  0  0  0  0  0  0
   23.9197  -20.5019  -12.8571 C   0  0  0  0  0  0  0  0  0  0  0  0
   23.7342  -19.2364  -13.0880 O   0  0  0  0  0  0  0  0  0  0  0  0
   20.1463  -21.2297  -15.9536 C   0  0  0  0  0  0  0  0  0  0  0  0
   21.3785  -21.6625  -15.2310 C   0  0  1  0  0  0  0  0  0  0  0  0
   22.4479  -21.6492  -16.1478 O   0  0  0  0  0  0  0  0  0  0  0  0
   21.7151  -20.7781  -14.0418 C   0  0  2  0  0  0  0  0  0  0  0  0
   22.8684  -21.3037  -13.3217 N   0  0  0  0  0  0  0  0  0  0  0  0
   20.5614  -20.7945  -13.1121 C   0  0  0  0  0  0  0  0  0  0  0  0
   19.6033  -19.7621  -13.1264 O   0  0  0  0  0  0  0  0  0  0  0  0
   20.3436  -21.6944  -12.2623 O   0  0  0  0  0  0  0  0  0  0  0  0
  2  1  1  6
  2  4  1  0
  3  2  1  0
  4  5  1  6
  6  4  1  0
  6  7  2  0
  8  9  1  0
  9 10  1  0
 10 11  1  1
 12 13  1  6
 12 10  1  0
 13  6  1  0
 14 12  1  0
 15 14  2  0
 17 16  1  6
 18 17  1  0
 19 17  1  0
 19 20  1  1
 20 14  1  0
 21 22  1  0
 21 19  1  0
 23 21  2  0
M  END
$$$$
