TIT.pdb
     RDKit          3D

 23 22  0  0  1  0  0  0  0  0999 V2000
   25.3015  -16.9678  -16.8415 C   0  0  0  0  0  0  0  0  0  0  0  0
   26.5142  -17.5379  -17.5191 C   0  0  1  0  0  0  0  0  0  0  0  0
   27.2443  -16.5422  -18.2002 O   0  0  0  0  0  0  0  0  0  0  0  0
   27.4801  -18.1695  -16.5250 C   0  0  2  0  0  0  0  0  0  0  0  0
   28.6080  -18.6494  -17.2887 N   0  0  0  0  0  0  0  0  0  0  0  0
   26.7914  -19.3488  -15.8475 C   0  0  0  0  0  0  0  0  0  0  0  0
   26.4242  -20.2723  -16.5842 O   0  0  0  0  0  0  0  0  0  0  0  0
   25.7764  -22.5337  -11.3527 C   0  0  0  0  0  0  0  0  0  0  0  0
   25.3344  -21.1153  -11.3717 C   0  0  0  0  0  0  0  0  0  0  0  0
   26.2367  -20.1899  -12.1794 C   0  0  2  0  0  0  0  0  0  0  0  0
   26.1309  -18.8297  -11.5544 C   0  0  0  0  0  0  0  0  0  0  0  0
   25.8766  -20.2839  -13.6299 C   0  0  2  0  0  0  0  0  0  0  0  0
   26.6070  -19.3430  -14.4670 N   0  0  0  0  0  0  0  0  0  0  0  0
   24.4427  -20.2179  -13.8751 C   0  0  0  0  0  0  0  0  0  0  0  0
   23.8923  -19.0406  -13.8811 O   0  0  0  0  0  0  0  0  0  0  0  0
   20.0691  -22.0204  -15.4497 C   0  0  0  0  0  0  0  0  0  0  0  0
   21.5494  -22.1076  -15.2787 C   0  0  1  0  0  0  0  0  0  0  0  0
   22.1413  -22.0068  -16.5529 O   0  0  0  0  0  0  0  0  0  0  0  0
   22.1100  -21.0271  -14.3688 C   0  0  2  0  0  0  0  0  0  0  0  0
   23.5285  -21.2517  -14.1193 N   0  0  0  0  0  0  0  0  0  0  0  0
   21.4080  -21.1091  -13.0665 C   0  0  0  0  0  0  0  0  0  0  0  0
   20.3311  -20.2519  -12.7673 O   0  0  0  0  0  0  0  0  0  0  0  0
   21.6989  -21.9180  -12.1497 O   0  0  0  0  0  0  0  0  0  0  0  0
  2  1  1  1
  2  4  1  0
  3  2  1  0
  4  5  1  6
  6  4  1  0
  6  7  2  0
  8  9  1  0
  9 10  1  0
 10 11  1  1
 12 13  1  6
 12 10  1  0
 13  6  1  0
 14 12  1  0
 15 14  2  0
 17 16  1  6
 18 17  1  0
 19 17  1  0
 19 20  1  1
 20 14  1  0
 21 22  1  0
 21 19  1  0
 23 21  2  0
M  END
$$$$
