TIT.pdb
     RDKit          3D

 23 22  0  0  1  0  0  0  0  0999 V2000
   19.8166  -11.5837  -20.3734 C   0  0  0  0  0  0  0  0  0  0  0  0
   20.1192  -10.9946  -19.0257 C   0  0  1  0  0  0  0  0  0  0  0  0
   18.9644  -10.9232  -18.2195 O   0  0  0  0  0  0  0  0  0  0  0  0
   21.1291  -11.8307  -18.2504 C   0  0  2  0  0  0  0  0  0  0  0  0
   20.5349  -13.1338  -18.0647 N   0  0  0  0  0  0  0  0  0  0  0  0
   21.3644  -11.1853  -16.8894 C   0  0  0  0  0  0  0  0  0  0  0  0
   20.5041  -11.3899  -16.0243 O   0  0  0  0  0  0  0  0  0  0  0  0
   26.6850  -10.2796  -15.4150 C   0  0  0  0  0  0  0  0  0  0  0  0
   25.3334   -9.9134  -15.9117 C   0  0  0  0  0  0  0  0  0  0  0  0
   24.2105  -10.1656  -14.9125 C   0  0  2  0  0  0  0  0  0  0  0  0
   24.2756  -11.6198  -14.5476 C   0  0  0  0  0  0  0  0  0  0  0  0
   22.9146   -9.6825  -15.4867 C   0  0  2  0  0  0  0  0  0  0  0  0
   22.5039  -10.4130  -16.6771 N   0  0  0  0  0  0  0  0  0  0  0  0
   22.8788   -8.2428  -15.7026 C   0  0  0  0  0  0  0  0  0  0  0  0
   23.5452   -7.7750  -16.7156 O   0  0  0  0  0  0  0  0  0  0  0  0
   20.6061   -5.9238  -17.2307 C   0  0  0  0  0  0  0  0  0  0  0  0
   20.9035   -5.3835  -15.8715 C   0  0  1  0  0  0  0  0  0  0  0  0
   19.8807   -5.8081  -15.0011 O   0  0  0  0  0  0  0  0  0  0  0  0
   22.2515   -5.8326  -15.3321 C   0  0  2  0  0  0  0  0  0  0  0  0
   22.2162   -7.2454  -14.9747 N   0  0  0  0  0  0  0  0  0  0  0  0
   22.5341   -5.0652  -14.0965 C   0  0  0  0  0  0  0  0  0  0  0  0
   22.7726   -3.6778  -14.1425 O   0  0  0  0  0  0  0  0  0  0  0  0
   22.5842   -5.5635  -12.9438 O   0  0  0  0  0  0  0  0  0  0  0  0
  2  1  1  6
  2  4  1  0
  3  2  1  0
  4  5  1  1
  6  4  1  0
  6  7  2  0
  8  9  1  0
  9 10  1  0
 10 11  1  6
 12 13  1  6
 12 10  1  0
 13  6  1  0
 14 12  1  0
 15 14  2  0
 17 16  1  6
 18 17  1  0
 19 17  1  0
 19 20  1  1
 20 14  1  0
 21 22  1  0
 21 19  1  0
 23 21  2  0
M  END
$$$$
