TIT.pdb
     RDKit          3D

 23 22  0  0  1  0  0  0  0  0999 V2000
   21.9562   -9.9528  -21.0149 C   0  0  0  0  0  0  0  0  0  0  0  0
   21.4584  -11.3493  -20.7760 C   0  0  1  0  0  0  0  0  0  0  0  0
   21.3914  -12.0884  -21.9750 O   0  0  0  0  0  0  0  0  0  0  0  0
   22.3753  -12.1311  -19.8442 C   0  0  2  0  0  0  0  0  0  0  0  0
   21.8208  -13.4600  -19.7340 N   0  0  0  0  0  0  0  0  0  0  0  0
   22.3689  -11.4666  -18.4722 C   0  0  0  0  0  0  0  0  0  0  0  0
   21.3527  -11.6266  -17.7851 O   0  0  0  0  0  0  0  0  0  0  0  0
   26.9622  -11.5746  -15.7354 C   0  0  0  0  0  0  0  0  0  0  0  0
   25.5487  -11.4344  -16.1712 C   0  0  0  0  0  0  0  0  0  0  0  0
   25.0865   -9.9919  -16.3400 C   0  0  2  0  0  0  0  0  0  0  0  0
   25.3519   -9.2980  -15.0361 C   0  0  0  0  0  0  0  0  0  0  0  0
   23.6696   -9.9760  -16.8243 C   0  0  2  0  0  0  0  0  0  0  0  0
   23.4733  -10.7269  -18.0560 N   0  0  0  0  0  0  0  0  0  0  0  0
   23.1055   -8.6367  -16.9177 C   0  0  0  0  0  0  0  0  0  0  0  0
   23.7878   -7.7467  -17.5746 O   0  0  0  0  0  0  0  0  0  0  0  0
   20.0100   -7.4232  -18.6740 C   0  0  0  0  0  0  0  0  0  0  0  0
   20.0181   -6.8529  -17.2946 C   0  0  1  0  0  0  0  0  0  0  0  0
   19.1801   -7.6491  -16.4896 O   0  0  0  0  0  0  0  0  0  0  0  0
   21.4074   -6.7927  -16.6815 C   0  0  2  0  0  0  0  0  0  0  0  0
   21.9032   -8.1346  -16.4016 N   0  0  0  0  0  0  0  0  0  0  0  0
   21.3121   -6.0723  -15.3901 C   0  0  0  0  0  0  0  0  0  0  0  0
   21.0485   -4.6893  -15.3484 O   0  0  0  0  0  0  0  0  0  0  0  0
   21.4522   -6.6093  -14.2625 O   0  0  0  0  0  0  0  0  0  0  0  0
  2  1  1  6
  2  4  1  0
  3  2  1  0
  4  5  1  1
  6  4  1  0
  6  7  2  0
  8  9  1  0
  9 10  1  0
 10 11  1  1
 12 13  1  6
 12 10  1  0
 13  6  1  0
 14 12  1  0
 15 14  2  0
 17 16  1  6
 18 17  1  0
 19 17  1  0
 19 20  1  1
 20 14  1  0
 21 22  1  0
 21 19  1  0
 23 21  2  0
M  END
$$$$
