TIT.pdb
     RDKit          3D

 23 22  0  0  1  0  0  0  0  0999 V2000
   19.7721   -7.8178  -19.6908 C   0  0  0  0  0  0  0  0  0  0  0  0
   19.0726   -9.1384  -19.8379 C   0  0  1  0  0  0  0  0  0  0  0  0
   18.8514   -9.4604  -21.1928 O   0  0  0  0  0  0  0  0  0  0  0  0
   19.8884  -10.2851  -19.2552 C   0  0  2  0  0  0  0  0  0  0  0  0
   19.1194  -11.4898  -19.4624 N   0  0  0  0  0  0  0  0  0  0  0  0
   20.0690  -10.0532  -17.7592 C   0  0  0  0  0  0  0  0  0  0  0  0
   19.0419  -10.0660  -17.0698 O   0  0  0  0  0  0  0  0  0  0  0  0
   23.6762  -12.7383  -15.0901 C   0  0  0  0  0  0  0  0  0  0  0  0
   22.5609  -11.8302  -15.4633 C   0  0  0  0  0  0  0  0  0  0  0  0
   22.9149  -10.3490  -15.4063 C   0  0  2  0  0  0  0  0  0  0  0  0
   23.4000  -10.0740  -14.0131 C   0  0  0  0  0  0  0  0  0  0  0  0
   21.7456   -9.5387  -15.8742 C   0  0  2  0  0  0  0  0  0  0  0  0
   21.3442   -9.8422  -17.2404 N   0  0  0  0  0  0  0  0  0  0  0  0
   21.9162   -8.1068  -15.6715 C   0  0  0  0  0  0  0  0  0  0  0  0
   22.7523   -7.4894  -16.4518 O   0  0  0  0  0  0  0  0  0  0  0  0
   20.4806   -3.5576  -14.7258 C   0  0  0  0  0  0  0  0  0  0  0  0
   20.2855   -5.0309  -14.8645 C   0  0  1  0  0  0  0  0  0  0  0  0
   19.7661   -5.2820  -16.1496 O   0  0  0  0  0  0  0  0  0  0  0  0
   21.5669   -5.8240  -14.6682 C   0  0  2  0  0  0  0  0  0  0  0  0
   21.3011   -7.2553  -14.7439 N   0  0  0  0  0  0  0  0  0  0  0  0
   22.0854   -5.5363  -13.3102 C   0  0  0  0  0  0  0  0  0  0  0  0
   23.0398   -4.5225  -13.0976 O   0  0  0  0  0  0  0  0  0  0  0  0
   21.7341   -6.1465  -12.2691 O   0  0  0  0  0  0  0  0  0  0  0  0
  2  1  1  6
  2  4  1  0
  3  2  1  0
  4  5  1  1
  6  4  1  0
  6  7  2  0
  8  9  1  0
  9 10  1  0
 10 11  1  1
 12 13  1  6
 12 10  1  0
 13  6  1  0
 14 12  1  0
 15 14  2  0
 17 16  1  6
 18 17  1  0
 19 17  1  0
 19 20  1  1
 20 14  1  0
 21 22  1  0
 21 19  1  0
 23 21  2  0
M  END
$$$$
