TIT.pdb
     RDKit          3D

 23 22  0  0  1  0  0  0  0  0999 V2000
   18.9849  -10.2726  -17.5764 C   0  0  0  0  0  0  0  0  0  0  0  0
   18.3548  -11.6355  -17.5911 C   0  0  1  0  0  0  0  0  0  0  0  0
   19.0971  -12.5420  -18.3758 O   0  0  0  0  0  0  0  0  0  0  0  0
   18.2764  -12.2437  -16.1968 C   0  0  2  0  0  0  0  0  0  0  0  0
   17.7976  -13.5965  -16.3596 N   0  0  0  0  0  0  0  0  0  0  0  0
   17.2735  -11.4503  -15.3669 C   0  0  0  0  0  0  0  0  0  0  0  0
   16.1235  -11.3719  -15.8160 O   0  0  0  0  0  0  0  0  0  0  0  0
   16.4465  -12.4467  -10.3574 C   0  0  0  0  0  0  0  0  0  0  0  0
   16.3839  -11.8644  -11.7230 C   0  0  0  0  0  0  0  0  0  0  0  0
   16.9848  -10.4683  -11.8355 C   0  0  2  0  0  0  0  0  0  0  0  0
   16.2744   -9.6099  -10.8302 C   0  0  0  0  0  0  0  0  0  0  0  0
   16.9222  -10.0121  -13.2604 C   0  0  2  0  0  0  0  0  0  0  0  0
   17.6768  -10.8613  -14.1709 N   0  0  0  0  0  0  0  0  0  0  0  0
   17.2621   -8.6066  -13.4330 C   0  0  0  0  0  0  0  0  0  0  0  0
   18.4757   -8.2461  -13.1390 O   0  0  0  0  0  0  0  0  0  0  0  0
   15.5443   -6.0246  -16.1889 C   0  0  0  0  0  0  0  0  0  0  0  0
   16.9164   -5.8759  -15.6205 C   0  0  1  0  0  0  0  0  0  0  0  0
   17.3326   -4.5466  -15.8300 O   0  0  0  0  0  0  0  0  0  0  0  0
   16.9878   -6.2053  -14.1386 C   0  0  2  0  0  0  0  0  0  0  0  0
   16.4687   -7.5435  -13.8849 N   0  0  0  0  0  0  0  0  0  0  0  0
   16.1262   -5.2453  -13.4095 C   0  0  0  0  0  0  0  0  0  0  0  0
   16.5031   -3.8956  -13.2665 O   0  0  0  0  0  0  0  0  0  0  0  0
   15.0268   -5.5376  -12.8753 O   0  0  0  0  0  0  0  0  0  0  0  0
  2  1  1  1
  2  4  1  0
  3  2  1  0
  4  5  1  6
  6  4  1  0
  6  7  2  0
  8  9  1  0
  9 10  1  0
 10 11  1  1
 12 13  1  6
 12 10  1  0
 13  6  1  0
 14 12  1  0
 15 14  2  0
 17 16  1  1
 18 17  1  0
 19 17  1  0
 19 20  1  6
 20 14  1  0
 21 22  1  0
 21 19  1  0
 23 21  2  0
M  END
$$$$
