TIT.pdb
     RDKit          3D

 23 22  0  0  1  0  0  0  0  0999 V2000
   20.7700   -8.8317  -19.8013 C   0  0  0  0  0  0  0  0  0  0  0  0
   20.4538  -10.2970  -19.7123 C   0  0  1  0  0  0  0  0  0  0  0  0
   20.3324  -10.8802  -20.9904 O   0  0  0  0  0  0  0  0  0  0  0  0
   21.5472  -11.0746  -18.9913 C   0  0  2  0  0  0  0  0  0  0  0  0
   21.1337  -12.4582  -18.9780 N   0  0  0  0  0  0  0  0  0  0  0  0
   21.6525  -10.5659  -17.5579 C   0  0  0  0  0  0  0  0  0  0  0  0
   20.6360  -10.6653  -16.8599 O   0  0  0  0  0  0  0  0  0  0  0  0
   26.8626  -10.2713  -15.4707 C   0  0  0  0  0  0  0  0  0  0  0  0
   25.5829   -9.7972  -16.0582 C   0  0  0  0  0  0  0  0  0  0  0  0
   24.3700   -9.9945  -15.1567 C   0  0  2  0  0  0  0  0  0  0  0  0
   24.3100  -11.4573  -14.8272 C   0  0  0  0  0  0  0  0  0  0  0  0
   23.1584   -9.4125  -15.8169 C   0  0  2  0  0  0  0  0  0  0  0  0
   22.8522  -10.0249  -17.1017 N   0  0  0  0  0  0  0  0  0  0  0  0
   23.1926   -7.9597  -15.9104 C   0  0  0  0  0  0  0  0  0  0  0  0
   24.1231   -7.4314  -16.6480 O   0  0  0  0  0  0  0  0  0  0  0  0
   21.3580   -5.4355  -17.7364 C   0  0  0  0  0  0  0  0  0  0  0  0
   21.3526   -5.0022  -16.3081 C   0  0  1  0  0  0  0  0  0  0  0  0
   20.1352   -5.4156  -15.7325 O   0  0  0  0  0  0  0  0  0  0  0  0
   22.5136   -5.5688  -15.5077 C   0  0  2  0  0  0  0  0  0  0  0  0
   22.3540   -7.0054  -15.3190 N   0  0  0  0  0  0  0  0  0  0  0  0
   22.5030   -4.9373  -14.1673 C   0  0  0  0  0  0  0  0  0  0  0  0
   22.7933   -3.5683  -14.0077 O   0  0  0  0  0  0  0  0  0  0  0  0
   22.2444   -5.5423  -13.0964 O   0  0  0  0  0  0  0  0  0  0  0  0
  2  1  1  6
  2  4  1  0
  3  2  1  0
  4  5  1  1
  6  4  1  0
  6  7  2  0
  8  9  1  0
  9 10  1  0
 10 11  1  6
 12 13  1  6
 12 10  1  0
 13  6  1  0
 14 12  1  0
 15 14  2  0
 17 16  1  6
 18 17  1  0
 19 17  1  0
 19 20  1  1
 20 14  1  0
 21 22  1  0
 21 19  1  0
 23 21  2  0
M  END
$$$$
