TIT.pdb
     RDKit          3D

 23 22  0  0  1  0  0  0  0  0999 V2000
   18.4205  -10.2037  -20.7181 C   0  0  0  0  0  0  0  0  0  0  0  0
   19.0228   -9.7524  -19.4187 C   0  0  1  0  0  0  0  0  0  0  0  0
   18.2302   -8.7678  -18.7935 O   0  0  0  0  0  0  0  0  0  0  0  0
   19.1487  -10.8955  -18.4199 C   0  0  2  0  0  0  0  0  0  0  0  0
   17.8101  -11.3731  -18.1636 N   0  0  0  0  0  0  0  0  0  0  0  0
   19.7485  -10.3574  -17.1257 C   0  0  0  0  0  0  0  0  0  0  0  0
   18.9495  -10.0385  -16.2367 O   0  0  0  0  0  0  0  0  0  0  0  0
   23.5940  -13.0273  -16.1585 C   0  0  0  0  0  0  0  0  0  0  0  0
   22.8070  -12.0424  -15.3721 C   0  0  0  0  0  0  0  0  0  0  0  0
   23.1697  -10.5883  -15.6490 C   0  0  2  0  0  0  0  0  0  0  0  0
   24.0596  -10.1436  -14.5254 C   0  0  0  0  0  0  0  0  0  0  0  0
   21.9179   -9.7936  -15.8588 C   0  0  2  0  0  0  0  0  0  0  0  0
   21.1310  -10.2481  -16.9963 N   0  0  0  0  0  0  0  0  0  0  0  0
   22.1465   -8.3562  -15.9055 C   0  0  0  0  0  0  0  0  0  0  0  0
   22.9767   -7.9132  -16.8019 O   0  0  0  0  0  0  0  0  0  0  0  0
   20.2290   -5.5654  -17.1494 C   0  0  0  0  0  0  0  0  0  0  0  0
   20.6680   -5.1691  -15.7790 C   0  0  1  0  0  0  0  0  0  0  0  0
   19.5982   -5.4061  -14.8938 O   0  0  0  0  0  0  0  0  0  0  0  0
   21.8992   -5.9236  -15.3048 C   0  0  2  0  0  0  0  0  0  0  0  0
   21.5945   -7.3368  -15.1181 N   0  0  0  0  0  0  0  0  0  0  0  0
   22.2996   -5.3742  -13.9882 C   0  0  0  0  0  0  0  0  0  0  0  0
   22.8727   -4.0921  -13.8808 O   0  0  0  0  0  0  0  0  0  0  0  0
   22.1688   -5.9787  -12.8941 O   0  0  0  0  0  0  0  0  0  0  0  0
  2  1  1  6
  2  4  1  0
  3  2  1  0
  4  5  1  1
  6  4  1  0
  6  7  2  0
  8  9  1  0
  9 10  1  0
 10 11  1  1
 12 13  1  6
 12 10  1  0
 13  6  1  0
 14 12  1  0
 15 14  2  0
 17 16  1  6
 18 17  1  0
 19 17  1  0
 19 20  1  1
 20 14  1  0
 21 22  1  0
 21 19  1  0
 23 21  2  0
M  END
$$$$
