TIT.pdb
     RDKit          3D

 23 22  0  0  1  0  0  0  0  0999 V2000
   18.2342  -11.9381  -18.9702 C   0  0  0  0  0  0  0  0  0  0  0  0
   18.1937  -13.3597  -18.4883 C   0  0  1  0  0  0  0  0  0  0  0  0
   17.8269  -14.2474  -19.5207 O   0  0  0  0  0  0  0  0  0  0  0  0
   19.5515  -13.8308  -17.9837 C   0  0  2  0  0  0  0  0  0  0  0  0
   19.4043  -15.2240  -17.6332 N   0  0  0  0  0  0  0  0  0  0  0  0
   19.9198  -13.0335  -16.7376 C   0  0  0  0  0  0  0  0  0  0  0  0
   19.0956  -13.0374  -15.8151 O   0  0  0  0  0  0  0  0  0  0  0  0
   24.7617  -13.3231  -14.6581 C   0  0  0  0  0  0  0  0  0  0  0  0
   23.3303  -13.0079  -14.9016 C   0  0  0  0  0  0  0  0  0  0  0  0
   23.0758  -11.5814  -15.3740 C   0  0  2  0  0  0  0  0  0  0  0  0
   23.6412  -10.6711  -14.3235 C   0  0  0  0  0  0  0  0  0  0  0  0
   21.6210  -11.4119  -15.6862 C   0  0  2  0  0  0  0  0  0  0  0  0
   21.1330  -12.3513  -16.6857 N   0  0  0  0  0  0  0  0  0  0  0  0
   21.2564  -10.0412  -16.0161 C   0  0  0  0  0  0  0  0  0  0  0  0
   21.8638   -9.4884  -17.0233 O   0  0  0  0  0  0  0  0  0  0  0  0
   18.3510   -5.9874  -15.8135 C   0  0  0  0  0  0  0  0  0  0  0  0
   18.6322   -7.4251  -15.5271 C   0  0  1  0  0  0  0  0  0  0  0  0
   17.7315   -8.2031  -16.2805 O   0  0  0  0  0  0  0  0  0  0  0  0
   20.0585   -7.8321  -15.8582 C   0  0  2  0  0  0  0  0  0  0  0  0
   20.3214   -9.1932  -15.4073 N   0  0  0  0  0  0  0  0  0  0  0  0
   20.9785   -6.9319  -15.1241 C   0  0  0  0  0  0  0  0  0  0  0  0
   21.4083   -5.7155  -15.6896 O   0  0  0  0  0  0  0  0  0  0  0  0
   21.4388   -7.1638  -13.9779 O   0  0  0  0  0  0  0  0  0  0  0  0
  2  1  1  6
  2  4  1  0
  3  2  1  0
  4  5  1  1
  6  4  1  0
  6  7  2  0
  8  9  1  0
  9 10  1  0
 10 11  1  1
 12 13  1  6
 12 10  1  0
 13  6  1  0
 14 12  1  0
 15 14  2  0
 17 16  1  6
 18 17  1  0
 19 17  1  0
 19 20  1  1
 20 14  1  0
 21 22  1  0
 21 19  1  0
 23 21  2  0
M  END
$$$$
