TIT.pdb
     RDKit          3D

 23 22  0  0  1  0  0  0  0  0999 V2000
   25.2952  -17.8973  -16.5461 C   0  0  0  0  0  0  0  0  0  0  0  0
   26.2750  -18.8223  -17.2087 C   0  0  1  0  0  0  0  0  0  0  0  0
   27.1819  -18.1178  -18.0271 O   0  0  0  0  0  0  0  0  0  0  0  0
   27.1189  -19.5827  -16.1940 C   0  0  2  0  0  0  0  0  0  0  0  0
   28.0139  -20.4288  -16.9482 N   0  0  0  0  0  0  0  0  0  0  0  0
   26.2022  -20.4522  -15.3409 C   0  0  0  0  0  0  0  0  0  0  0  0
   25.7183  -21.4497  -15.8895 O   0  0  0  0  0  0  0  0  0  0  0  0
   27.6284  -21.0411  -10.2335 C   0  0  0  0  0  0  0  0  0  0  0  0
   26.9728  -21.2163  -11.5553 C   0  0  0  0  0  0  0  0  0  0  0  0
   25.5668  -20.6340  -11.6380 C   0  0  2  0  0  0  0  0  0  0  0  0
   24.7482  -21.3314  -10.5915 C   0  0  0  0  0  0  0  0  0  0  0  0
   25.0681  -20.7337  -13.0466 C   0  0  2  0  0  0  0  0  0  0  0  0
   25.9512  -20.1018  -14.0164 N   0  0  0  0  0  0  0  0  0  0  0  0
   23.6911  -20.2874  -13.2053 C   0  0  0  0  0  0  0  0  0  0  0  0
   23.3977  -19.0952  -12.7792 O   0  0  0  0  0  0  0  0  0  0  0  0
   21.6640  -19.3940  -16.2267 C   0  0  0  0  0  0  0  0  0  0  0  0
   20.8692  -20.3439  -15.3937 C   0  0  1  0  0  0  0  0  0  0  0  0
   21.0334  -21.6359  -15.9305 O   0  0  0  0  0  0  0  0  0  0  0  0
   21.2806  -20.3435  -13.9306 C   0  0  2  0  0  0  0  0  0  0  0  0
   22.5939  -20.9544  -13.7667 N   0  0  0  0  0  0  0  0  0  0  0  0
   20.3066  -21.1668  -13.1762 C   0  0  0  0  0  0  0  0  0  0  0  0
   18.9916  -20.7135  -12.9540 O   0  0  0  0  0  0  0  0  0  0  0  0
   20.5567  -22.2971  -12.6871 O   0  0  0  0  0  0  0  0  0  0  0  0
  2  1  1  1
  2  4  1  0
  3  2  1  0
  4  5  1  6
  6  4  1  0
  6  7  2  0
  8  9  1  0
  9 10  1  0
 10 11  1  1
 12 13  1  6
 12 10  1  0
 13  6  1  0
 14 12  1  0
 15 14  2  0
 17 16  1  6
 18 17  1  0
 19 17  1  0
 19 20  1  6
 20 14  1  0
 21 22  1  0
 21 19  1  0
 23 21  2  0
M  END
$$$$
