TIT.pdb
     RDKit          3D

 23 22  0  0  1  0  0  0  0  0999 V2000
   20.9593   -7.2584  -19.1794 C   0  0  0  0  0  0  0  0  0  0  0  0
   20.3067   -8.6011  -19.0179 C   0  0  1  0  0  0  0  0  0  0  0  0
   20.5192   -9.4204  -20.1457 O   0  0  0  0  0  0  0  0  0  0  0  0
   20.8627   -9.3668  -17.8242 C   0  0  2  0  0  0  0  0  0  0  0  0
   20.2193  -10.6596  -17.8232 N   0  0  0  0  0  0  0  0  0  0  0  0
   20.4985   -8.6211  -16.5453 C   0  0  0  0  0  0  0  0  0  0  0  0
   19.2923   -8.4552  -16.3266 O   0  0  0  0  0  0  0  0  0  0  0  0
   22.6711  -10.3710  -12.4348 C   0  0  0  0  0  0  0  0  0  0  0  0
   21.7304   -9.5347  -13.2245 C   0  0  0  0  0  0  0  0  0  0  0  0
   22.1219   -8.0643  -13.3101 C   0  0  2  0  0  0  0  0  0  0  0  0
   21.8806   -7.4733  -11.9519 C   0  0  0  0  0  0  0  0  0  0  0  0
   21.3975   -7.4213  -14.4522 C   0  0  2  0  0  0  0  0  0  0  0  0
   21.5062   -8.1684  -15.6970 N   0  0  0  0  0  0  0  0  0  0  0  0
   21.7402   -6.0182  -14.6378 C   0  0  0  0  0  0  0  0  0  0  0  0
   22.9991   -5.6998  -14.5851 O   0  0  0  0  0  0  0  0  0  0  0  0
   21.2131   -3.7116  -17.6384 C   0  0  0  0  0  0  0  0  0  0  0  0
   20.7795   -3.0034  -16.3981 C   0  0  1  0  0  0  0  0  0  0  0  0
   19.3764   -3.0944  -16.3131 O   0  0  0  0  0  0  0  0  0  0  0  0
   21.4051   -3.5729  -15.1356 C   0  0  2  0  0  0  0  0  0  0  0  0
   20.9060   -4.9179  -14.8774 N   0  0  0  0  0  0  0  0  0  0  0  0
   21.0016   -2.7189  -13.9939 C   0  0  0  0  0  0  0  0  0  0  0  0
   21.5239   -1.4200  -13.8390 O   0  0  0  0  0  0  0  0  0  0  0  0
   20.1901   -3.0633  -13.0981 O   0  0  0  0  0  0  0  0  0  0  0  0
  2  1  1  6
  2  4  1  0
  3  2  1  0
  4  5  1  1
  6  4  1  0
  6  7  2  0
  8  9  1  0
  9 10  1  0
 10 11  1  1
 12 13  1  6
 12 10  1  0
 13  6  1  0
 14 12  1  0
 15 14  2  0
 17 16  1  6
 18 17  1  0
 19 17  1  0
 19 20  1  1
 20 14  1  0
 21 22  1  0
 21 19  1  0
 23 21  2  0
M  END
$$$$
