DPT.pdb
     RDKit          3D

 23 23  0  0  1  0  0  0  0  0999 V2000
   19.0561  -12.8194  -16.7193 N   0  0  0  0  0  0  0  0  0  0  0  0
   20.3444  -12.1430  -16.8873 C   0  0  1  0  0  0  0  0  0  0  0  0
   20.3268  -11.4312  -18.2430 C   0  0  0  0  0  0  0  0  0  0  0  0
   20.2251  -12.3644  -19.3650 C   0  0  0  0  0  0  0  0  0  0  0  0
   19.2725  -12.3112  -20.1659 O   0  0  0  0  0  0  0  0  0  0  0  0
   20.5566  -11.1650  -15.8253 C   0  0  0  0  0  0  0  0  0  0  0  0
   19.4918  -10.6462  -15.3286 O   0  0  0  0  0  0  0  0  0  0  0  0
   21.2080  -13.3231  -19.5371 O   0  0  0  0  0  0  0  0  0  0  0  0
   21.7842  -10.7310  -15.2871 N   0  0  0  0  0  0  0  0  0  0  0  0
   23.0864  -11.0972  -15.8089 C   0  0  0  0  0  0  0  0  0  0  0  0
   23.7946  -11.5113  -14.5083 C   0  0  0  0  0  0  0  0  0  0  0  0
   23.2293  -10.5580  -13.4959 C   0  0  0  0  0  0  0  0  0  0  0  0
   22.0557   -9.8836  -14.1561 C   0  0  1  0  0  0  0  0  0  0  0  0
   22.3583   -8.4691  -14.5423 C   0  0  0  0  0  0  0  0  0  0  0  0
   23.1674   -8.2894  -15.4902 O   0  0  0  0  0  0  0  0  0  0  0  0
   19.5477   -5.5404  -14.0563 C   0  0  0  0  0  0  0  0  0  0  0  0
   20.6419   -5.5314  -15.0798 C   0  0  1  0  0  0  0  0  0  0  0  0
   20.8516   -4.2369  -15.5620 O   0  0  0  0  0  0  0  0  0  0  0  0
   21.9334   -5.9888  -14.4176 C   0  0  2  0  0  0  0  0  0  0  0  0
   21.7966   -7.3513  -13.9126 N   0  0  0  0  0  0  0  0  0  0  0  0
   22.4162   -5.0632  -13.3933 C   0  0  0  0  0  0  0  0  0  0  0  0
   22.8863   -3.8262  -13.7292 O   0  0  0  0  0  0  0  0  0  0  0  0
   22.3974   -5.4181  -12.1660 O   0  0  0  0  0  0  0  0  0  0  0  0
  2  1  1  1
  2  3  1  0
  2  6  1  0
  3  4  1  0
  4  5  2  0
  4  8  1  0
  6  7  2  0
  9 13  1  0
  9  6  1  0
 10  9  1  0
 11 10  1  0
 11 12  1  0
 12 13  1  0
 13 14  1  6
 14 15  2  0
 14 20  1  0
 17 16  1  1
 17 18  1  0
 19 17  1  0
 19 20  1  1
 21 22  1  0
 21 19  1  0
 23 21  2  0
M  END
$$$$
