DPT.pdb
     RDKit          3D

 23 23  0  0  1  0  0  0  0  0999 V2000
   19.1490  -12.8895  -16.8770 N   0  0  0  0  0  0  0  0  0  0  0  0
   20.1304  -11.8758  -17.2704 C   0  0  1  0  0  0  0  0  0  0  0  0
   19.4715  -10.9642  -18.3096 C   0  0  0  0  0  0  0  0  0  0  0  0
   19.1942  -11.6569  -19.5679 C   0  0  0  0  0  0  0  0  0  0  0  0
   18.2216  -11.3410  -20.2791 O   0  0  0  0  0  0  0  0  0  0  0  0
   20.5442  -11.0826  -16.1177 C   0  0  0  0  0  0  0  0  0  0  0  0
   19.6477  -10.9075  -15.2146 O   0  0  0  0  0  0  0  0  0  0  0  0
   20.0307  -12.6822  -19.9729 O   0  0  0  0  0  0  0  0  0  0  0  0
   21.8030  -10.4945  -15.8843 N   0  0  0  0  0  0  0  0  0  0  0  0
   22.9314  -10.5797  -16.7906 C   0  0  0  0  0  0  0  0  0  0  0  0
   24.0416  -10.9838  -15.8064 C   0  0  0  0  0  0  0  0  0  0  0  0
   23.6727  -10.2409  -14.5552 C   0  0  0  0  0  0  0  0  0  0  0  0
   22.2749   -9.7215  -14.7659 C   0  0  1  0  0  0  0  0  0  0  0  0
   22.2506   -8.2464  -15.0205 C   0  0  0  0  0  0  0  0  0  0  0  0
   22.5989   -7.8516  -16.1643 O   0  0  0  0  0  0  0  0  0  0  0  0
   19.6414   -4.3296  -14.6418 C   0  0  0  0  0  0  0  0  0  0  0  0
   19.9779   -5.7591  -14.3444 C   0  0  1  0  0  0  0  0  0  0  0  0
   19.4255   -6.6040  -15.3103 O   0  0  0  0  0  0  0  0  0  0  0  0
   21.4894   -5.9263  -14.3993 C   0  0  2  0  0  0  0  0  0  0  0  0
   21.8667   -7.2962  -14.0659 N   0  0  0  0  0  0  0  0  0  0  0  0
   22.2089   -4.9407  -13.5932 C   0  0  0  0  0  0  0  0  0  0  0  0
   22.7300   -3.8138  -14.1611 O   0  0  0  0  0  0  0  0  0  0  0  0
   22.3516   -5.1378  -12.3388 O   0  0  0  0  0  0  0  0  0  0  0  0
  2  1  1  1
  2  3  1  0
  2  6  1  0
  3  4  1  0
  4  5  2  0
  4  8  1  0
  6  7  2  0
  9 13  1  0
  9  6  1  0
 10  9  1  0
 11 10  1  0
 11 12  1  0
 12 13  1  0
 13 14  1  6
 14 15  2  0
 14 20  1  0
 17 16  1  6
 17 18  1  0
 19 17  1  0
 19 20  1  1
 21 22  1  0
 21 19  1  0
 23 21  2  0
M  END
$$$$
