DPT.pdb
     RDKit          3D

 23 23  0  0  1  0  0  0  0  0999 V2000
   19.4076  -10.7026  -15.3184 N   0  0  0  0  0  0  0  0  0  0  0  0
   19.1884   -9.2614  -15.1756 C   0  0  1  0  0  0  0  0  0  0  0  0
   17.9036   -8.9058  -15.9291 C   0  0  0  0  0  0  0  0  0  0  0  0
   18.0365   -9.0763  -17.3759 C   0  0  0  0  0  0  0  0  0  0  0  0
   17.2495   -9.7984  -18.0168 O   0  0  0  0  0  0  0  0  0  0  0  0
   19.0464   -8.8973  -13.7697 C   0  0  0  0  0  0  0  0  0  0  0  0
   18.5147   -9.7916  -13.0164 O   0  0  0  0  0  0  0  0  0  0  0  0
   19.0571   -8.4210  -18.0421 O   0  0  0  0  0  0  0  0  0  0  0  0
   19.4241   -7.6894  -13.1507 N   0  0  0  0  0  0  0  0  0  0  0  0
   19.9731   -6.5437  -13.8493 C   0  0  0  0  0  0  0  0  0  0  0  0
   21.1822   -6.2311  -12.9520 C   0  0  0  0  0  0  0  0  0  0  0  0
   20.6779   -6.5593  -11.5767 C   0  0  0  0  0  0  0  0  0  0  0  0
   19.3813   -7.3017  -11.7654 C   0  0  1  0  0  0  0  0  0  0  0  0
   18.1909   -6.4582  -11.4290 C   0  0  0  0  0  0  0  0  0  0  0  0
   17.9168   -5.5083  -12.2087 O   0  0  0  0  0  0  0  0  0  0  0  0
   14.9070   -8.1327  -10.2414 C   0  0  0  0  0  0  0  0  0  0  0  0
   15.1170   -6.9143   -9.3950 C   0  0  1  0  0  0  0  0  0  0  0  0
   15.6769   -7.2633   -8.1635 O   0  0  0  0  0  0  0  0  0  0  0  0
   16.1008   -5.9929  -10.1013 C   0  0  2  0  0  0  0  0  0  0  0  0
   17.3783   -6.6677  -10.3076 N   0  0  0  0  0  0  0  0  0  0  0  0
   16.2573   -4.6987   -9.4385 C   0  0  0  0  0  0  0  0  0  0  0  0
   15.2210   -3.8123   -9.3738 O   0  0  0  0  0  0  0  0  0  0  0  0
   17.3811   -4.3936   -8.9124 O   0  0  0  0  0  0  0  0  0  0  0  0
  2  1  1  1
  2  3  1  0
  2  6  1  0
  3  4  1  0
  4  5  2  0
  4  8  1  0
  6  7  2  0
  9 13  1  0
  9  6  1  0
 10  9  1  0
 11 10  1  0
 11 12  1  0
 12 13  1  0
 13 14  1  6
 14 15  2  0
 14 20  1  0
 17 16  1  6
 17 18  1  0
 19 17  1  0
 19 20  1  1
 21 22  1  0
 21 19  1  0
 23 21  2  0
M  END
$$$$
