DPT.pdb
     RDKit          3D

 23 23  0  0  1  0  0  0  0  0999 V2000
   12.6001  -24.1927   -4.1048 N   0  0  0  0  0  0  0  0  0  0  0  0
   13.9096  -24.0550   -3.4631 C   0  0  1  0  0  0  0  0  0  0  0  0
   13.7255  -23.2104   -2.1990 C   0  0  0  0  0  0  0  0  0  0  0  0
   13.2957  -21.8438   -2.4954 C   0  0  0  0  0  0  0  0  0  0  0  0
   12.8801  -21.0876   -1.5970 O   0  0  0  0  0  0  0  0  0  0  0  0
   14.4481  -25.3624   -3.1024 C   0  0  0  0  0  0  0  0  0  0  0  0
   13.5895  -26.2172   -2.6762 O   0  0  0  0  0  0  0  0  0  0  0  0
   13.3536  -21.3856   -3.7998 O   0  0  0  0  0  0  0  0  0  0  0  0
   15.7890  -25.7896   -3.1697 N   0  0  0  0  0  0  0  0  0  0  0  0
   16.9238  -24.9092   -3.3680 C   0  0  0  0  0  0  0  0  0  0  0  0
   17.6633  -25.6652   -4.4843 C   0  0  0  0  0  0  0  0  0  0  0  0
   17.4191  -27.1053   -4.1383 C   0  0  0  0  0  0  0  0  0  0  0  0
   16.3489  -27.1122   -3.0787 C   0  0  1  0  0  0  0  0  0  0  0  0
   16.8972  -27.4249   -1.7211 C   0  0  0  0  0  0  0  0  0  0  0  0
   17.5170  -26.5066   -1.1227 O   0  0  0  0  0  0  0  0  0  0  0  0
   15.0919  -30.5215    0.4123 C   0  0  0  0  0  0  0  0  0  0  0  0
   15.5568  -29.2126    0.9741 C   0  0  1  0  0  0  0  0  0  0  0  0
   15.7489  -29.3120    2.3544 O   0  0  0  0  0  0  0  0  0  0  0  0
   16.8988  -28.8619    0.3484 C   0  0  2  0  0  0  0  0  0  0  0  0
   16.7589  -28.6682   -1.0914 N   0  0  0  0  0  0  0  0  0  0  0  0
   17.9570  -29.8156    0.6798 C   0  0  0  0  0  0  0  0  0  0  0  0
   18.6461  -30.4695   -0.3007 O   0  0  0  0  0  0  0  0  0  0  0  0
   18.2402  -30.0396    1.9055 O   0  0  0  0  0  0  0  0  0  0  0  0
  2  1  1  1
  2  3  1  0
  2  6  1  0
  3  4  1  0
  4  5  2  0
  4  8  1  0
  6  7  2  0
  9 13  1  0
  9  6  1  0
 10  9  1  0
 11 10  1  0
 11 12  1  0
 12 13  1  0
 13 14  1  1
 14 15  2  0
 14 20  1  0
 17 16  1  6
 17 18  1  0
 19 17  1  0
 19 20  1  6
 21 22  1  0
 21 19  1  0
 23 21  2  0
M  END
$$$$
