DPT.pdb
     RDKit          3D

 23 23  0  0  1  0  0  0  0  0999 V2000
   16.9581  -12.2027  -17.0490 N   0  0  0  0  0  0  0  0  0  0  0  0
   16.6734  -11.0715  -16.1631 C   0  0  1  0  0  0  0  0  0  0  0  0
   16.7433  -11.5777  -14.7195 C   0  0  0  0  0  0  0  0  0  0  0  0
   15.7896  -12.6554  -14.4563 C   0  0  0  0  0  0  0  0  0  0  0  0
   14.5653  -12.4876  -14.6129 O   0  0  0  0  0  0  0  0  0  0  0  0
   17.6520  -10.0063  -16.3547 C   0  0  0  0  0  0  0  0  0  0  0  0
   18.7686  -10.3667  -16.8772 O   0  0  0  0  0  0  0  0  0  0  0  0
   16.2602  -13.8833  -14.0256 O   0  0  0  0  0  0  0  0  0  0  0  0
   17.5119   -8.6409  -16.0367 N   0  0  0  0  0  0  0  0  0  0  0  0
   16.3852   -8.0745  -15.3212 C   0  0  0  0  0  0  0  0  0  0  0  0
   16.0583   -6.8784  -16.2307 C   0  0  0  0  0  0  0  0  0  0  0  0
   17.4109   -6.4348  -16.7072 C   0  0  0  0  0  0  0  0  0  0  0  0
   18.3754   -7.5262  -16.3240 C   0  0  1  0  0  0  0  0  0  0  0  0
   19.2383   -7.1385  -15.1636 C   0  0  0  0  0  0  0  0  0  0  0  0
   18.7253   -7.2014  -14.0155 O   0  0  0  0  0  0  0  0  0  0  0  0
   22.0664   -8.9898  -14.2812 C   0  0  0  0  0  0  0  0  0  0  0  0
   22.6303   -7.6018  -14.3044 C   0  0  1  0  0  0  0  0  0  0  0  0
   23.2563   -7.3473  -15.5273 O   0  0  0  0  0  0  0  0  0  0  0  0
   21.4872   -6.6081  -14.1588 C   0  0  2  0  0  0  0  0  0  0  0  0
   20.5676   -6.7148  -15.2871 N   0  0  0  0  0  0  0  0  0  0  0  0
   21.9404   -5.2348  -13.9403 C   0  0  0  0  0  0  0  0  0  0  0  0
   22.5631   -4.8766  -12.7793 O   0  0  0  0  0  0  0  0  0  0  0  0
   21.7504   -4.3577  -14.8499 O   0  0  0  0  0  0  0  0  0  0  0  0
  2  1  1  6
  2  3  1  0
  2  6  1  0
  3  4  1  0
  4  5  2  0
  4  8  1  0
  6  7  2  0
  9 13  1  0
  9  6  1  0
 10  9  1  0
 11 10  1  0
 11 12  1  0
 12 13  1  0
 13 14  1  1
 14 15  2  0
 14 20  1  0
 17 16  1  6
 17 18  1  0
 19 17  1  0
 19 20  1  6
 21 22  1  0
 21 19  1  0
 23 21  2  0
M  END
$$$$
