DPT.pdb
     RDKit          3D

 23 23  0  0  1  0  0  0  0  0999 V2000
   17.6379  -13.4396  -16.4475 N   0  0  0  0  0  0  0  0  0  0  0  0
   17.1121  -12.0831  -16.2772 C   0  0  1  0  0  0  0  0  0  0  0  0
   16.6648  -11.9333  -14.8203 C   0  0  0  0  0  0  0  0  0  0  0  0
   15.6060  -12.8760  -14.4591 C   0  0  0  0  0  0  0  0  0  0  0  0
   14.4476  -12.7463  -14.8981 O   0  0  0  0  0  0  0  0  0  0  0  0
   18.1382  -11.0899  -16.5773 C   0  0  0  0  0  0  0  0  0  0  0  0
   19.3518  -11.4936  -16.4590 O   0  0  0  0  0  0  0  0  0  0  0  0
   15.9008  -13.9308  -13.6133 O   0  0  0  0  0  0  0  0  0  0  0  0
   17.9508   -9.7528  -16.9797 N   0  0  0  0  0  0  0  0  0  0  0  0
   16.6581   -9.1277  -17.1802 C   0  0  0  0  0  0  0  0  0  0  0  0
   16.8834   -8.4695  -18.5515 C   0  0  0  0  0  0  0  0  0  0  0  0
   18.3244   -8.0528  -18.4953 C   0  0  0  0  0  0  0  0  0  0  0  0
   18.9160   -8.7307  -17.2876 C   0  0  1  0  0  0  0  0  0  0  0  0
   19.1416   -7.7770  -16.1557 C   0  0  0  0  0  0  0  0  0  0  0  0
   18.1796   -7.5768  -15.3684 O   0  0  0  0  0  0  0  0  0  0  0  0
   22.1036   -5.8893  -12.8436 C   0  0  0  0  0  0  0  0  0  0  0  0
   21.8568   -6.7757  -14.0262 C   0  0  1  0  0  0  0  0  0  0  0  0
   21.6184   -8.0890  -13.6133 O   0  0  0  0  0  0  0  0  0  0  0  0
   20.6095   -6.2888  -14.7492 C   0  0  2  0  0  0  0  0  0  0  0  0
   20.3497   -7.1051  -15.9308 N   0  0  0  0  0  0  0  0  0  0  0  0
   20.6424   -4.8597  -15.0583 C   0  0  0  0  0  0  0  0  0  0  0  0
   20.1657   -3.9376  -14.1714 O   0  0  0  0  0  0  0  0  0  0  0  0
   21.1245   -4.4689  -16.1753 O   0  0  0  0  0  0  0  0  0  0  0  0
  2  1  1  1
  2  3  1  0
  2  6  1  0
  3  4  1  0
  4  5  2  0
  4  8  1  0
  6  7  2  0
  9 13  1  0
  9  6  1  0
 10  9  1  0
 11 10  1  0
 11 12  1  0
 12 13  1  0
 13 14  1  1
 14 15  2  0
 14 20  1  0
 17 16  1  1
 17 18  1  0
 19 17  1  0
 19 20  1  6
 21 22  1  0
 21 19  1  0
 23 21  2  0
M  END
$$$$
