DPT.pdb
     RDKit          3D

 23 23  0  0  1  0  0  0  0  0999 V2000
   18.9835  -12.6121  -16.8118 N   0  0  0  0  0  0  0  0  0  0  0  0
   20.1832  -11.9015  -17.2605 C   0  0  1  0  0  0  0  0  0  0  0  0
   19.8079  -11.0845  -18.5001 C   0  0  0  0  0  0  0  0  0  0  0  0
   19.4181  -11.9274  -19.6304 C   0  0  0  0  0  0  0  0  0  0  0  0
   18.2424  -11.9553  -20.0408 O   0  0  0  0  0  0  0  0  0  0  0  0
   20.6746  -11.0075  -16.2171 C   0  0  0  0  0  0  0  0  0  0  0  0
   19.7744  -10.4922  -15.4595 O   0  0  0  0  0  0  0  0  0  0  0  0
   20.3766  -12.7072  -20.2534 O   0  0  0  0  0  0  0  0  0  0  0  0
   22.0106  -10.6507  -15.9479 N   0  0  0  0  0  0  0  0  0  0  0  0
   23.1535  -11.1013  -16.7179 C   0  0  0  0  0  0  0  0  0  0  0  0
   24.0858  -11.5545  -15.5821 C   0  0  0  0  0  0  0  0  0  0  0  0
   23.7993  -10.5631  -14.4919 C   0  0  0  0  0  0  0  0  0  0  0  0
   22.5593   -9.8178  -14.9104 C   0  0  1  0  0  0  0  0  0  0  0  0
   22.8632   -8.4270  -15.3742 C   0  0  0  0  0  0  0  0  0  0  0  0
   23.2064   -8.2810  -16.5769 O   0  0  0  0  0  0  0  0  0  0  0  0
   19.9611   -6.6769  -14.5316 C   0  0  0  0  0  0  0  0  0  0  0  0
   20.8822   -6.1606  -15.5947 C   0  0  1  0  0  0  0  0  0  0  0  0
   20.4684   -4.8998  -16.0320 O   0  0  0  0  0  0  0  0  0  0  0  0
   22.2747   -6.0058  -15.0010 C   0  0  2  0  0  0  0  0  0  0  0  0
   22.7873   -7.2962  -14.5514 N   0  0  0  0  0  0  0  0  0  0  0  0
   22.3463   -4.9855  -13.9556 C   0  0  0  0  0  0  0  0  0  0  0  0
   22.3953   -3.6581  -14.2713 O   0  0  0  0  0  0  0  0  0  0  0  0
   22.3632   -5.3423  -12.7288 O   0  0  0  0  0  0  0  0  0  0  0  0
  2  1  1  1
  2  3  1  0
  2  6  1  0
  3  4  1  0
  4  5  2  0
  4  8  1  0
  6  7  2  0
  9 13  1  0
  9  6  1  0
 10  9  1  0
 11 10  1  0
 11 12  1  0
 12 13  1  0
 13 14  1  6
 14 15  2  0
 14 20  1  0
 17 16  1  1
 17 18  1  0
 19 17  1  0
 19 20  1  1
 21 22  1  0
 21 19  1  0
 23 21  2  0
M  END
$$$$
