DPT.pdb
     RDKit          3D

 23 23  0  0  1  0  0  0  0  0999 V2000
   19.1731  -12.5010  -16.6438 N   0  0  0  0  0  0  0  0  0  0  0  0
   18.6624  -11.1620  -16.9467 C   0  0  1  0  0  0  0  0  0  0  0  0
   17.4719  -10.8941  -16.0215 C   0  0  0  0  0  0  0  0  0  0  0  0
   16.3665  -11.8256  -16.2461 C   0  0  0  0  0  0  0  0  0  0  0  0
   16.0169  -12.6377  -15.3686 O   0  0  0  0  0  0  0  0  0  0  0  0
   19.6923  -10.1531  -16.7213 C   0  0  0  0  0  0  0  0  0  0  0  0
   20.5021  -10.3941  -15.7538 O   0  0  0  0  0  0  0  0  0  0  0  0
   15.6984  -11.8012  -17.4578 O   0  0  0  0  0  0  0  0  0  0  0  0
   19.8983   -8.9579  -17.4382 N   0  0  0  0  0  0  0  0  0  0  0  0
   19.0368   -8.4771  -18.5006 C   0  0  0  0  0  0  0  0  0  0  0  0
   20.0875   -8.1374  -19.5708 C   0  0  0  0  0  0  0  0  0  0  0  0
   21.2450   -7.6298  -18.7608 C   0  0  0  0  0  0  0  0  0  0  0  0
   20.9437   -7.9752  -17.3262 C   0  0  1  0  0  0  0  0  0  0  0  0
   20.5379   -6.7757  -16.5275 C   0  0  0  0  0  0  0  0  0  0  0  0
   19.3046   -6.5558  -16.4011 O   0  0  0  0  0  0  0  0  0  0  0  0
   22.0343   -7.1801  -13.3844 C   0  0  0  0  0  0  0  0  0  0  0  0
   20.8584   -6.2707  -13.5726 C   0  0  1  0  0  0  0  0  0  0  0  0
   20.5829   -5.5749  -12.3927 O   0  0  0  0  0  0  0  0  0  0  0  0
   21.2020   -5.2432  -14.6411 C   0  0  2  0  0  0  0  0  0  0  0  0
   21.4460   -5.8975  -15.9227 N   0  0  0  0  0  0  0  0  0  0  0  0
   22.2965   -4.3531  -14.2552 C   0  0  0  0  0  0  0  0  0  0  0  0
   22.0529   -3.1913  -13.5808 O   0  0  0  0  0  0  0  0  0  0  0  0
   23.4982   -4.6680  -14.5542 O   0  0  0  0  0  0  0  0  0  0  0  0
  2  1  1  1
  2  3  1  0
  2  6  1  0
  3  4  1  0
  4  5  2  0
  4  8  1  0
  6  7  2  0
  9 13  1  0
  9  6  1  0
 10  9  1  0
 11 10  1  0
 11 12  1  0
 12 13  1  0
 13 14  1  1
 14 15  2  0
 14 20  1  0
 17 16  1  1
 17 18  1  0
 19 17  1  0
 19 20  1  6
 21 22  1  0
 21 19  1  0
 23 21  2  0
M  END
$$$$
