DPT.pdb
     RDKit          3D

 23 23  0  0  1  0  0  0  0  0999 V2000
   19.2411  -12.5641  -17.6384 N   0  0  0  0  0  0  0  0  0  0  0  0
   20.5365  -11.9133  -17.8479 C   0  0  1  0  0  0  0  0  0  0  0  0
   20.4256  -11.0412  -19.1017 C   0  0  0  0  0  0  0  0  0  0  0  0
   20.1773  -11.8265  -20.3108 C   0  0  0  0  0  0  0  0  0  0  0  0
   19.1441  -11.6627  -20.9871 O   0  0  0  0  0  0  0  0  0  0  0  0
   20.8868  -11.0794  -16.7028 C   0  0  0  0  0  0  0  0  0  0  0  0
   19.8951  -10.5978  -16.0437 O   0  0  0  0  0  0  0  0  0  0  0  0
   21.1102  -12.7681  -20.7079 O   0  0  0  0  0  0  0  0  0  0  0  0
   22.1761  -10.7475  -16.2417 N   0  0  0  0  0  0  0  0  0  0  0  0
   23.4081  -11.0998  -16.9199 C   0  0  0  0  0  0  0  0  0  0  0  0
   24.2128  -11.6744  -15.7421 C   0  0  0  0  0  0  0  0  0  0  0  0
   23.7840  -10.8161  -14.5875 C   0  0  0  0  0  0  0  0  0  0  0  0
   22.5860  -10.0355  -15.0601 C   0  0  1  0  0  0  0  0  0  0  0  0
   22.9140   -8.5990  -15.3253 C   0  0  0  0  0  0  0  0  0  0  0  0
   23.4253   -8.3194  -16.4414 O   0  0  0  0  0  0  0  0  0  0  0  0
   20.0504   -6.6704  -15.1471 C   0  0  0  0  0  0  0  0  0  0  0  0
   21.2803   -6.1116  -15.7953 C   0  0  1  0  0  0  0  0  0  0  0  0
   21.0923   -4.7674  -16.1266 O   0  0  0  0  0  0  0  0  0  0  0  0
   22.4307   -6.1823  -14.8017 C   0  0  2  0  0  0  0  0  0  0  0  0
   22.6854   -7.5646  -14.4090 N   0  0  0  0  0  0  0  0  0  0  0  0
   22.2518   -5.3016  -13.6479 C   0  0  0  0  0  0  0  0  0  0  0  0
   22.3849   -3.9483  -13.7694 O   0  0  0  0  0  0  0  0  0  0  0  0
   21.9667   -5.8069  -12.5094 O   0  0  0  0  0  0  0  0  0  0  0  0
  2  1  1  1
  2  3  1  0
  2  6  1  0
  3  4  1  0
  4  5  2  0
  4  8  1  0
  6  7  2  0
  9 13  1  0
  9  6  1  0
 10  9  1  0
 11 10  1  0
 11 12  1  0
 12 13  1  0
 13 14  1  6
 14 15  2  0
 14 20  1  0
 17 16  1  1
 17 18  1  0
 19 17  1  0
 19 20  1  1
 21 22  1  0
 21 19  1  0
 23 21  2  0
M  END
$$$$
