DPT.pdb
     RDKit          3D

 23 23  0  0  1  0  0  0  0  0999 V2000
   19.5302  -12.5696  -17.5297 N   0  0  0  0  0  0  0  0  0  0  0  0
   20.8009  -11.8653  -17.3426 C   0  0  1  0  0  0  0  0  0  0  0  0
   21.1419  -11.1569  -18.6568 C   0  0  0  0  0  0  0  0  0  0  0  0
   21.3306  -12.0924  -19.7655 C   0  0  0  0  0  0  0  0  0  0  0  0
   21.0080  -11.7886  -20.9297 O   0  0  0  0  0  0  0  0  0  0  0  0
   20.6929  -10.8807  -16.2711 C   0  0  0  0  0  0  0  0  0  0  0  0
   19.5098  -10.4343  -16.0456 O   0  0  0  0  0  0  0  0  0  0  0  0
   21.8785  -13.3377  -19.5126 O   0  0  0  0  0  0  0  0  0  0  0  0
   21.7281  -10.3707  -15.4630 N   0  0  0  0  0  0  0  0  0  0  0  0
   23.1340  -10.6810  -15.6341 C   0  0  0  0  0  0  0  0  0  0  0  0
   23.5152  -11.0263  -14.1849 C   0  0  0  0  0  0  0  0  0  0  0  0
   22.6745  -10.0798  -13.3782 C   0  0  0  0  0  0  0  0  0  0  0  0
   21.6725   -9.4834  -14.3313 C   0  0  1  0  0  0  0  0  0  0  0  0
   21.9983   -8.0648  -14.6818 C   0  0  0  0  0  0  0  0  0  0  0  0
   22.9406   -7.8720  -15.4943 O   0  0  0  0  0  0  0  0  0  0  0  0
   20.4457   -3.4733  -15.2504 C   0  0  0  0  0  0  0  0  0  0  0  0
   20.1903   -4.8640  -14.7547 C   0  0  1  0  0  0  0  0  0  0  0  0
   19.4045   -5.5731  -15.6668 O   0  0  0  0  0  0  0  0  0  0  0  0
   21.5215   -5.5912  -14.6338 C   0  0  2  0  0  0  0  0  0  0  0  0
   21.3192   -6.9566  -14.1597 N   0  0  0  0  0  0  0  0  0  0  0  0
   22.5052   -4.8650  -13.8312 C   0  0  0  0  0  0  0  0  0  0  0  0
   23.4684   -4.0999  -14.4234 O   0  0  0  0  0  0  0  0  0  0  0  0
   22.4618   -4.9484  -12.5569 O   0  0  0  0  0  0  0  0  0  0  0  0
  2  1  1  6
  2  3  1  0
  2  6  1  0
  3  4  1  0
  4  5  2  0
  4  8  1  0
  6  7  2  0
  9 13  1  0
  9  6  1  0
 10  9  1  0
 11 10  1  0
 11 12  1  0
 12 13  1  0
 13 14  1  6
 14 15  2  0
 14 20  1  0
 17 16  1  6
 17 18  1  0
 19 17  1  0
 19 20  1  1
 21 22  1  0
 21 19  1  0
 23 21  2  0
M  END
$$$$
