DPT.pdb
     RDKit          3D

 23 23  0  0  1  0  0  0  0  0999 V2000
   18.8279  -11.9334  -17.5926 N   0  0  0  0  0  0  0  0  0  0  0  0
   20.2085  -11.4556  -17.6983 C   0  0  1  0  0  0  0  0  0  0  0  0
   20.3233  -10.6359  -18.9866 C   0  0  0  0  0  0  0  0  0  0  0  0
   20.1815  -11.4576  -20.1886 C   0  0  0  0  0  0  0  0  0  0  0  0
   19.5628  -11.0419  -21.1866 O   0  0  0  0  0  0  0  0  0  0  0  0
   20.5542  -10.6180  -16.5545 C   0  0  0  0  0  0  0  0  0  0  0  0
   19.5808   -9.9611  -16.0341 O   0  0  0  0  0  0  0  0  0  0  0  0
   20.7470  -12.7203  -20.2140 O   0  0  0  0  0  0  0  0  0  0  0  0
   21.8210  -10.4513  -15.9610 N   0  0  0  0  0  0  0  0  0  0  0  0
   23.0623  -10.9536  -16.5170 C   0  0  0  0  0  0  0  0  0  0  0  0
   23.6652  -11.6272  -15.2731 C   0  0  0  0  0  0  0  0  0  0  0  0
   23.2313  -10.7248  -14.1547 C   0  0  0  0  0  0  0  0  0  0  0  0
   22.1940   -9.7991  -14.7336 C   0  0  1  0  0  0  0  0  0  0  0  0
   22.7233   -8.4143  -14.9426 C   0  0  0  0  0  0  0  0  0  0  0  0
   23.4892   -8.2306  -15.9250 O   0  0  0  0  0  0  0  0  0  0  0  0
   20.2331   -6.1587  -15.5413 C   0  0  0  0  0  0  0  0  0  0  0  0
   21.6463   -5.7456  -15.8197 C   0  0  1  0  0  0  0  0  0  0  0  0
   21.7036   -4.3911  -16.1574 O   0  0  0  0  0  0  0  0  0  0  0  0
   22.4693   -5.9379  -14.5543 C   0  0  2  0  0  0  0  0  0  0  0  0
   22.4157   -7.3282  -14.1136 N   0  0  0  0  0  0  0  0  0  0  0  0
   22.1140   -5.0033  -13.4870 C   0  0  0  0  0  0  0  0  0  0  0  0
   21.5021   -5.4384  -12.3467 O   0  0  0  0  0  0  0  0  0  0  0  0
   22.3804   -3.7612  -13.6244 O   0  0  0  0  0  0  0  0  0  0  0  0
  2  1  1  1
  2  3  1  0
  2  6  1  0
  3  4  1  0
  4  5  2  0
  4  8  1  0
  6  7  2  0
  9 13  1  0
  9  6  1  0
 10  9  1  0
 11 10  1  0
 11 12  1  0
 12 13  1  0
 13 14  1  6
 14 15  2  0
 14 20  1  0
 17 16  1  1
 17 18  1  0
 19 17  1  0
 19 20  1  1
 21 22  1  0
 21 19  1  0
 23 21  2  0
M  END
$$$$
