DPT.pdb
     RDKit          3D

 23 23  0  0  1  0  0  0  0  0999 V2000
   17.1630  -10.4964  -14.2280 N   0  0  0  0  0  0  0  0  0  0  0  0
   17.9825   -9.8704  -15.2682 C   0  0  1  0  0  0  0  0  0  0  0  0
   17.0587   -9.4966  -16.4310 C   0  0  0  0  0  0  0  0  0  0  0  0
   16.3795  -10.6589  -17.0034 C   0  0  0  0  0  0  0  0  0  0  0  0
   15.1593  -10.6365  -17.2532 O   0  0  0  0  0  0  0  0  0  0  0  0
   18.6356   -8.6693  -14.7582 C   0  0  0  0  0  0  0  0  0  0  0  0
   17.9815   -8.0201  -13.8634 O   0  0  0  0  0  0  0  0  0  0  0  0
   17.1095  -11.8035  -17.2715 O   0  0  0  0  0  0  0  0  0  0  0  0
   19.8900   -8.1472  -15.1305 N   0  0  0  0  0  0  0  0  0  0  0  0
   20.7304   -8.6939  -16.1779 C   0  0  0  0  0  0  0  0  0  0  0  0
   22.0799   -8.7503  -15.4428 C   0  0  0  0  0  0  0  0  0  0  0  0
   22.0419   -7.5298  -14.5697 C   0  0  0  0  0  0  0  0  0  0  0  0
   20.6232   -7.0258  -14.6052 C   0  0  1  0  0  0  0  0  0  0  0  0
   20.4813   -5.7900  -15.4384 C   0  0  0  0  0  0  0  0  0  0  0  0
   20.5413   -5.9260  -16.6887 O   0  0  0  0  0  0  0  0  0  0  0  0
   17.5650   -3.7295  -15.4359 C   0  0  0  0  0  0  0  0  0  0  0  0
   18.6568   -2.7166  -15.2715 C   0  0  1  0  0  0  0  0  0  0  0  0
   18.7963   -2.3597  -13.9279 O   0  0  0  0  0  0  0  0  0  0  0  0
   19.9713   -3.3387  -15.7195 C   0  0  2  0  0  0  0  0  0  0  0  0
   20.2886   -4.5087  -14.9067 N   0  0  0  0  0  0  0  0  0  0  0  0
   21.0758   -2.3813  -15.7690 C   0  0  0  0  0  0  0  0  0  0  0  0
   21.0716   -1.3491  -16.6627 O   0  0  0  0  0  0  0  0  0  0  0  0
   22.0590   -2.5133  -14.9637 O   0  0  0  0  0  0  0  0  0  0  0  0
  2  1  1  1
  2  3  1  0
  2  6  1  0
  3  4  1  0
  4  5  2  0
  4  8  1  0
  6  7  2  0
  9 13  1  0
  9  6  1  0
 10  9  1  0
 11 10  1  0
 11 12  1  0
 12 13  1  0
 13 14  1  6
 14 15  2  0
 14 20  1  0
 17 16  1  1
 17 18  1  0
 19 17  1  0
 19 20  1  1
 21 22  1  0
 21 19  1  0
 23 21  2  0
M  END
$$$$
