DPT.pdb
     RDKit          3D

 23 23  0  0  1  0  0  0  0  0999 V2000
   16.9152  -11.4187  -16.1514 N   0  0  0  0  0  0  0  0  0  0  0  0
   17.5935  -10.1386  -16.3678 C   0  0  1  0  0  0  0  0  0  0  0  0
   16.5188   -9.0711  -16.5926 C   0  0  0  0  0  0  0  0  0  0  0  0
   15.8401   -9.2210  -17.8799 C   0  0  0  0  0  0  0  0  0  0  0  0
   14.6181   -9.4540  -17.9431 O   0  0  0  0  0  0  0  0  0  0  0  0
   18.4024   -9.7801  -15.2075 C   0  0  0  0  0  0  0  0  0  0  0  0
   17.9058  -10.0972  -14.0661 O   0  0  0  0  0  0  0  0  0  0  0  0
   16.5728   -9.1009  -19.0476 O   0  0  0  0  0  0  0  0  0  0  0  0
   19.6543   -9.1338  -15.1972 N   0  0  0  0  0  0  0  0  0  0  0  0
   20.3461   -8.6621  -16.3807 C   0  0  0  0  0  0  0  0  0  0  0  0
   21.7497   -9.2347  -16.1223 C   0  0  0  0  0  0  0  0  0  0  0  0
   21.8919   -9.1247  -14.6320 C   0  0  0  0  0  0  0  0  0  0  0  0
   20.5212   -8.8042  -14.0968 C   0  0  1  0  0  0  0  0  0  0  0  0
   20.4015   -7.3762  -13.6632 C   0  0  0  0  0  0  0  0  0  0  0  0
   20.1493   -6.5215  -14.5527 O   0  0  0  0  0  0  0  0  0  0  0  0
   19.3480   -4.2921   -9.9777 C   0  0  0  0  0  0  0  0  0  0  0  0
   19.6614   -5.6830  -10.4382 C   0  0  1  0  0  0  0  0  0  0  0  0
   18.5087   -6.4726  -10.4332 O   0  0  0  0  0  0  0  0  0  0  0  0
   20.1677   -5.6200  -11.8718 C   0  0  2  0  0  0  0  0  0  0  0  0
   20.5540   -6.9478  -12.3385 N   0  0  0  0  0  0  0  0  0  0  0  0
   21.2293   -4.6329  -12.0662 C   0  0  0  0  0  0  0  0  0  0  0  0
   22.5437   -4.9812  -11.9444 O   0  0  0  0  0  0  0  0  0  0  0  0
   20.9212   -3.4267  -12.3541 O   0  0  0  0  0  0  0  0  0  0  0  0
  2  1  1  1
  2  3  1  0
  2  6  1  0
  3  4  1  0
  4  5  2  0
  4  8  1  0
  6  7  2  0
  9 13  1  0
  9  6  1  0
 10  9  1  0
 11 10  1  0
 11 12  1  0
 12 13  1  0
 13 14  1  6
 14 15  2  0
 14 20  1  0
 17 16  1  6
 17 18  1  0
 19 17  1  0
 19 20  1  1
 21 22  1  0
 21 19  1  0
 23 21  2  0
M  END
$$$$
