DPT.pdb
     RDKit          3D

 23 23  0  0  1  0  0  0  0  0999 V2000
   23.9538  -21.5467  -15.8868 N   0  0  0  0  0  0  0  0  0  0  0  0
   24.7669  -20.5100  -15.2467 C   0  0  1  0  0  0  0  0  0  0  0  0
   23.8446  -19.3370  -14.9026 C   0  0  0  0  0  0  0  0  0  0  0  0
   23.2513  -18.7229  -16.0904 C   0  0  0  0  0  0  0  0  0  0  0  0
   23.9363  -18.0409  -16.8761 O   0  0  0  0  0  0  0  0  0  0  0  0
   25.3857  -21.0185  -14.0270 C   0  0  0  0  0  0  0  0  0  0  0  0
   24.7543  -21.9711  -13.4407 O   0  0  0  0  0  0  0  0  0  0  0  0
   21.9030  -18.9054  -16.3430 O   0  0  0  0  0  0  0  0  0  0  0  0
   26.5856  -20.5890  -13.4266 N   0  0  0  0  0  0  0  0  0  0  0  0
   27.4782  -19.5957  -13.9911 C   0  0  0  0  0  0  0  0  0  0  0  0
   28.8243  -20.3246  -13.8454 C   0  0  0  0  0  0  0  0  0  0  0  0
   28.6666  -21.0734  -12.5540 C   0  0  0  0  0  0  0  0  0  0  0  0
   27.2063  -20.9968  -12.1939 C   0  0  1  0  0  0  0  0  0  0  0  0
   26.9496  -20.0467  -11.0657 C   0  0  0  0  0  0  0  0  0  0  0  0
   26.3963  -18.9513  -11.3472 O   0  0  0  0  0  0  0  0  0  0  0  0
   24.3076  -20.5353   -7.4742 C   0  0  0  0  0  0  0  0  0  0  0  0
   25.0781  -20.7004   -8.7486 C   0  0  1  0  0  0  0  0  0  0  0  0
   24.4001  -20.1002   -9.8127 O   0  0  0  0  0  0  0  0  0  0  0  0
   26.4188  -19.9955   -8.6032 C   0  0  2  0  0  0  0  0  0  0  0  0
   27.2887  -20.3092   -9.7323 N   0  0  0  0  0  0  0  0  0  0  0  0
   27.0669  -20.2475   -7.3166 C   0  0  0  0  0  0  0  0  0  0  0  0
   27.1925  -19.2558   -6.3867 O   0  0  0  0  0  0  0  0  0  0  0  0
   27.5221  -21.4134   -7.0596 O   0  0  0  0  0  0  0  0  0  0  0  0
  2  1  1  1
  2  3  1  0
  2  6  1  0
  3  4  1  0
  4  5  2  0
  4  8  1  0
  6  7  2  0
  9 13  1  0
  9  6  1  0
 10  9  1  0
 11 10  1  0
 11 12  1  0
 12 13  1  0
 13 14  1  1
 14 15  2  0
 14 20  1  0
 17 16  1  1
 17 18  1  0
 19 17  1  0
 19 20  1  6
 21 22  1  0
 21 19  1  0
 23 21  2  0
M  END
$$$$
