DPT.pdb
     RDKit          3D

 23 23  0  0  1  0  0  0  0  0999 V2000
   18.6796  -12.6000  -16.7318 N   0  0  0  0  0  0  0  0  0  0  0  0
   19.9789  -11.9771  -16.9952 C   0  0  1  0  0  0  0  0  0  0  0  0
   19.8639  -11.1881  -18.3025 C   0  0  0  0  0  0  0  0  0  0  0  0
   19.5755  -12.0461  -19.4518 C   0  0  0  0  0  0  0  0  0  0  0  0
   18.5081  -11.9410  -20.0853 O   0  0  0  0  0  0  0  0  0  0  0  0
   20.3479  -11.0734  -15.9105 C   0  0  0  0  0  0  0  0  0  0  0  0
   19.3721  -10.6281  -15.2039 O   0  0  0  0  0  0  0  0  0  0  0  0
   20.5087  -12.9912  -19.8400 O   0  0  0  0  0  0  0  0  0  0  0  0
   21.6398  -10.6399  -15.5529 N   0  0  0  0  0  0  0  0  0  0  0  0
   22.8509  -10.9822  -16.2727 C   0  0  0  0  0  0  0  0  0  0  0  0
   23.7491  -11.4180  -15.1031 C   0  0  0  0  0  0  0  0  0  0  0  0
   23.3366  -10.4926  -13.9955 C   0  0  0  0  0  0  0  0  0  0  0  0
   22.0731   -9.8149  -14.4562 C   0  0  1  0  0  0  0  0  0  0  0  0
   22.3057   -8.3895  -14.8507 C   0  0  0  0  0  0  0  0  0  0  0  0
   23.0154   -8.1804  -15.8694 O   0  0  0  0  0  0  0  0  0  0  0  0
   19.4742   -5.5888  -14.0784 C   0  0  0  0  0  0  0  0  0  0  0  0
   20.4776   -5.4927  -15.1871 C   0  0  1  0  0  0  0  0  0  0  0  0
   20.5962   -4.1722  -15.6280 O   0  0  0  0  0  0  0  0  0  0  0  0
   21.8367   -5.9219  -14.6540 C   0  0  2  0  0  0  0  0  0  0  0  0
   21.7827   -7.2923  -14.1549 N   0  0  0  0  0  0  0  0  0  0  0  0
   22.3894   -4.9936  -13.6683 C   0  0  0  0  0  0  0  0  0  0  0  0
   22.8375   -3.7586  -14.0398 O   0  0  0  0  0  0  0  0  0  0  0  0
   22.4537   -5.3442  -12.4412 O   0  0  0  0  0  0  0  0  0  0  0  0
  2  1  1  1
  2  3  1  0
  2  6  1  0
  3  4  1  0
  4  5  2  0
  4  8  1  0
  6  7  2  0
  9 13  1  0
  9  6  1  0
 10  9  1  0
 11 10  1  0
 11 12  1  0
 12 13  1  0
 13 14  1  6
 14 15  2  0
 14 20  1  0
 17 16  1  1
 17 18  1  0
 19 17  1  0
 19 20  1  1
 21 22  1  0
 21 19  1  0
 23 21  2  0
M  END
$$$$
