YLR.pdb
     RDKit          3D

 32 32  0  0  1  0  0  0  0  0999 V2000
    7.3994  -14.6494   14.6955 O   0  0  0  0  0  0  0  0  0  0  0  0
    7.6943  -14.7742   16.0384 C   0  0  0  0  0  0  0  0  0  0  0  0
    7.9894  -16.0093   16.6174 C   0  0  0  0  0  0  0  0  0  0  0  0
    8.2759  -16.0579   17.9722 C   0  0  0  0  0  0  0  0  0  0  0  0
    8.2789  -14.9311   18.7630 C   0  0  0  0  0  0  0  0  0  0  0  0
    8.5831  -14.9878   20.1964 C   0  0  0  0  0  0  0  0  0  0  0  0
    8.3707  -13.6614   20.9021 C   0  0  2  0  0  0  0  0  0  0  0  0
    9.3797  -12.7462   20.3923 N   0  0  0  0  0  0  0  0  0  0  0  0
    8.6886  -13.8740   22.3475 C   0  0  0  0  0  0  0  0  0  0  0  0
    9.9076  -13.9205   22.6567 O   0  0  0  0  0  0  0  0  0  0  0  0
    7.9850  -13.7190   18.1738 C   0  0  0  0  0  0  0  0  0  0  0  0
    7.6945  -13.6435   16.8181 C   0  0  0  0  0  0  0  0  0  0  0  0
    5.3397  -12.1566   26.5389 C   0  0  0  0  0  0  0  0  0  0  0  0
    6.5486  -12.4732   25.6944 C   0  0  1  0  0  0  0  0  0  0  0  0
    7.7022  -11.6531   26.2780 C   0  0  0  0  0  0  0  0  0  0  0  0
    6.9423  -13.9019   25.6665 C   0  0  0  0  0  0  0  0  0  0  0  0
    8.0305  -14.2878   24.7305 C   0  0  2  0  0  0  0  0  0  0  0  0
    7.7142  -14.0194   23.3418 N   0  0  0  0  0  0  0  0  0  0  0  0
    8.5370  -15.6713   24.9003 C   0  0  0  0  0  0  0  0  0  0  0  0
    7.7621  -16.6791   24.7825 O   0  0  0  0  0  0  0  0  0  0  0  0
   14.3326  -15.0536   22.8243 N   0  0  0  0  0  0  0  0  0  0  0  0
   13.6554  -15.2163   21.5688 C   0  0  0  0  0  0  0  0  0  0  0  0
   13.6803  -14.2683   20.6984 N   0  0  0  0  0  0  0  0  0  0  0  0
   12.9544  -16.4035   21.2607 N   0  0  0  0  0  0  0  0  0  0  0  0
   12.7147  -17.4384   22.2363 C   0  0  0  0  0  0  0  0  0  0  0  0
   11.5075  -17.1869   23.0717 C   0  0  0  0  0  0  0  0  0  0  0  0
   11.5935  -17.5864   24.4966 C   0  0  0  0  0  0  0  0  0  0  0  0
   10.3962  -17.3152   25.3420 C   0  0  2  0  0  0  0  0  0  0  0  0
    9.8912  -15.9705   25.2005 N   0  0  0  0  0  0  0  0  0  0  0  0
   10.4868  -17.7475   26.7411 C   0  0  0  0  0  0  0  0  0  0  0  0
   10.5051  -19.1331   26.9916 O   0  0  0  0  0  0  0  0  0  0  0  0
   10.5499  -17.0086   27.7289 O   0  0  0  0  0  0  0  0  0  0  0  0
  2  1  1  0
  3  2  2  0
  4  3  1  0
  5  4  2  0
  5 11  1  0
  6  5  1  0
  7  6  1  0
  7  8  1  6
  9  7  1  0
  9 10  2  0
 11 12  2  0
 12  2  1  0
 14 13  1  1
 14 15  1  0
 17 16  1  1
 16 14  1  0
 17 18  1  0
 18  9  1  0
 19 17  1  0
 20 19  2  0
 21 22  1  0
 22 24  1  0
 23 22  2  0
 24 25  1  0
 25 26  1  0
 26 27  1  0
 28 27  1  1
 28 29  1  0
 29 19  1  0
 30 31  1  0
 30 28  1  0
 32 30  2  0
M  END
$$$$
