YLR.pdb
     RDKit          3D

 32 32  0  0  1  0  0  0  0  0999 V2000
   10.8757  -12.9776   19.5527 O   0  0  0  0  0  0  0  0  0  0  0  0
   11.5324  -13.9653   20.2592 C   0  0  0  0  0  0  0  0  0  0  0  0
   12.9014  -13.8982   20.5222 C   0  0  0  0  0  0  0  0  0  0  0  0
   13.4929  -14.9269   21.2376 C   0  0  0  0  0  0  0  0  0  0  0  0
   12.7763  -16.0094   21.6958 C   0  0  0  0  0  0  0  0  0  0  0  0
   13.4071  -17.0954   22.4528 C   0  0  0  0  0  0  0  0  0  0  0  0
   13.9082  -16.6566   23.8163 C   0  0  2  0  0  0  0  0  0  0  0  0
   14.8319  -17.6818   24.2760 N   0  0  0  0  0  0  0  0  0  0  0  0
   12.7406  -16.6944   24.7494 C   0  0  0  0  0  0  0  0  0  0  0  0
   12.3345  -17.8328   25.0998 O   0  0  0  0  0  0  0  0  0  0  0  0
   11.4244  -16.0589   21.4266 C   0  0  0  0  0  0  0  0  0  0  0  0
   10.8078  -15.0408   20.7116 C   0  0  0  0  0  0  0  0  0  0  0  0
    9.9181  -14.4515   29.0857 C   0  0  0  0  0  0  0  0  0  0  0  0
    9.4747  -14.2389   27.6599 C   0  0  1  0  0  0  0  0  0  0  0  0
    8.8023  -12.8640   27.6236 C   0  0  0  0  0  0  0  0  0  0  0  0
   10.5598  -14.2685   26.6506 C   0  0  0  0  0  0  0  0  0  0  0  0
   10.9338  -15.5954   26.0949 C   0  0  2  0  0  0  0  0  0  0  0  0
   12.0994  -15.5488   25.2349 N   0  0  0  0  0  0  0  0  0  0  0  0
    9.8244  -16.3334   25.4436 C   0  0  0  0  0  0  0  0  0  0  0  0
    8.7975  -16.7040   26.1054 O   0  0  0  0  0  0  0  0  0  0  0  0
    8.1943  -12.2589   19.1266 N   0  0  0  0  0  0  0  0  0  0  0  0
    8.2081  -13.6670   18.8468 C   0  0  0  0  0  0  0  0  0  0  0  0
    8.4654  -14.0825   17.6560 N   0  0  0  0  0  0  0  0  0  0  0  0
    7.9433  -14.6191   19.8563 N   0  0  0  0  0  0  0  0  0  0  0  0
    7.7021  -14.2479   21.2290 C   0  0  0  0  0  0  0  0  0  0  0  0
    7.4107  -15.4145   22.1082 C   0  0  0  0  0  0  0  0  0  0  0  0
    8.3930  -16.5244   22.0824 C   0  0  0  0  0  0  0  0  0  0  0  0
    8.6694  -17.2048   23.3795 C   0  0  2  0  0  0  0  0  0  0  0  0
    9.8231  -16.6754   24.0665 N   0  0  0  0  0  0  0  0  0  0  0  0
    8.6427  -18.6715   23.3537 C   0  0  0  0  0  0  0  0  0  0  0  0
    9.8464  -19.3468   23.6330 O   0  0  0  0  0  0  0  0  0  0  0  0
    7.6591  -19.3777   23.1097 O   0  0  0  0  0  0  0  0  0  0  0  0
  2  1  1  0
  3  2  2  0
  4  3  1  0
  5  4  2  0
  5 11  1  0
  6  5  1  0
  7  6  1  0
  7  8  1  1
  9  7  1  0
  9 10  2  0
 11 12  2  0
 12  2  1  0
 14 13  1  1
 14 15  1  0
 17 16  1  6
 16 14  1  0
 17 18  1  0
 18  9  1  0
 19 17  1  0
 20 19  2  0
 21 22  1  0
 22 24  1  0
 23 22  2  0
 24 25  1  0
 25 26  1  0
 26 27  1  0
 28 27  1  6
 28 29  1  0
 29 19  1  0
 30 31  1  0
 30 28  1  0
 32 30  2  0
M  END
$$$$
