YLR.pdb
     RDKit          3D

 32 32  0  0  1  0  0  0  0  0999 V2000
   15.3018  -17.5763   12.6855 O   0  0  0  0  0  0  0  0  0  0  0  0
   14.7695  -17.2977   13.9285 C   0  0  0  0  0  0  0  0  0  0  0  0
   15.4515  -17.6004   15.1079 C   0  0  0  0  0  0  0  0  0  0  0  0
   14.8548  -17.2917   16.3197 C   0  0  0  0  0  0  0  0  0  0  0  0
   13.6151  -16.6980   16.3978 C   0  0  0  0  0  0  0  0  0  0  0  0
   12.9882  -16.3731   17.6829 C   0  0  0  0  0  0  0  0  0  0  0  0
   12.7935  -14.8823   17.8893 C   0  0  2  0  0  0  0  0  0  0  0  0
   14.1097  -14.3159   18.1392 N   0  0  0  0  0  0  0  0  0  0  0  0
   12.0149  -14.7093   19.1539 C   0  0  0  0  0  0  0  0  0  0  0  0
   12.6805  -14.5318   20.2071 O   0  0  0  0  0  0  0  0  0  0  0  0
   12.9558  -16.4060   15.2219 C   0  0  0  0  0  0  0  0  0  0  0  0
   13.5321  -16.7053   13.9947 C   0  0  0  0  0  0  0  0  0  0  0  0
    6.6564  -13.0340   18.7674 C   0  0  0  0  0  0  0  0  0  0  0  0
    8.1222  -13.1919   19.0859 C   0  0  1  0  0  0  0  0  0  0  0  0
    8.6189  -11.8052   19.5035 C   0  0  0  0  0  0  0  0  0  0  0  0
    8.4327  -14.1577   20.1665 C   0  0  0  0  0  0  0  0  0  0  0  0
    9.8670  -14.4540   20.4204 C   0  0  2  0  0  0  0  0  0  0  0  0
   10.6166  -14.7359   19.2126 N   0  0  0  0  0  0  0  0  0  0  0  0
   10.1161  -15.4898   21.4522 C   0  0  0  0  0  0  0  0  0  0  0  0
    9.6137  -15.3933   22.6219 O   0  0  0  0  0  0  0  0  0  0  0  0
   15.5927  -22.6522   22.2666 N   0  0  0  0  0  0  0  0  0  0  0  0
   14.2732  -23.0732   22.6446 C   0  0  0  0  0  0  0  0  0  0  0  0
   14.0519  -24.3074   22.9358 N   0  0  0  0  0  0  0  0  0  0  0  0
   13.1993  -22.1574   22.7057 N   0  0  0  0  0  0  0  0  0  0  0  0
   13.3442  -20.7669   22.3509 C   0  0  0  0  0  0  0  0  0  0  0  0
   12.1188  -19.9638   22.6194 C   0  0  0  0  0  0  0  0  0  0  0  0
   11.8177  -18.8747   21.6598 C   0  0  0  0  0  0  0  0  0  0  0  0
   11.1288  -17.6713   22.2068 C   0  0  2  0  0  0  0  0  0  0  0  0
   10.9149  -16.6394   21.2205 N   0  0  0  0  0  0  0  0  0  0  0  0
   11.6545  -17.1509   23.4738 C   0  0  0  0  0  0  0  0  0  0  0  0
   11.3532  -17.8716   24.6455 O   0  0  0  0  0  0  0  0  0  0  0  0
   12.3419  -16.1344   23.6142 O   0  0  0  0  0  0  0  0  0  0  0  0
  2  1  1  0
  3  2  2  0
  4  3  1  0
  5  4  2  0
  5 11  1  0
  6  5  1  0
  7  6  1  0
  7  8  1  1
  9  7  1  0
  9 10  2  0
 11 12  2  0
 12  2  1  0
 14 13  1  1
 14 15  1  0
 17 16  1  6
 16 14  1  0
 17 18  1  0
 18  9  1  0
 19 17  1  0
 20 19  2  0
 21 22  1  0
 22 24  1  0
 23 22  2  0
 24 25  1  0
 25 26  1  0
 26 27  1  0
 28 27  1  6
 28 29  1  0
 29 19  1  0
 30 31  1  0
 30 28  1  0
 32 30  2  0
M  END
$$$$
