YLR.pdb
     RDKit          3D

 32 32  0  0  1  0  0  0  0  0999 V2000
   13.1474  -16.4644   32.4953 O   0  0  0  0  0  0  0  0  0  0  0  0
   12.6509  -16.6877   31.2266 C   0  0  0  0  0  0  0  0  0  0  0  0
   12.8395  -17.9011   30.5635 C   0  0  0  0  0  0  0  0  0  0  0  0
   12.3122  -18.0532   29.2912 C   0  0  0  0  0  0  0  0  0  0  0  0
   11.6107  -17.0495   28.6621 C   0  0  0  0  0  0  0  0  0  0  0  0
   11.0545  -17.2157   27.3155 C   0  0  0  0  0  0  0  0  0  0  0  0
    9.6834  -17.8661   27.3148 C   0  0  2  0  0  0  0  0  0  0  0  0
    9.8592  -19.2198   26.8126 N   0  0  0  0  0  0  0  0  0  0  0  0
    8.8535  -17.1463   26.3007 C   0  0  0  0  0  0  0  0  0  0  0  0
    8.2318  -17.8595   25.4709 O   0  0  0  0  0  0  0  0  0  0  0  0
   11.4342  -15.8570   29.3326 C   0  0  0  0  0  0  0  0  0  0  0  0
   11.9527  -15.6795   30.6084 C   0  0  0  0  0  0  0  0  0  0  0  0
    5.4694  -12.1649   26.1567 C   0  0  0  0  0  0  0  0  0  0  0  0
    6.4641  -12.8612   25.2621 C   0  0  1  0  0  0  0  0  0  0  0  0
    7.1549  -11.7591   24.4545 C   0  0  0  0  0  0  0  0  0  0  0  0
    7.4966  -13.6580   25.9664 C   0  0  0  0  0  0  0  0  0  0  0  0
    7.6711  -15.0712   25.5399 C   0  0  2  0  0  0  0  0  0  0  0  0
    8.7431  -15.7524   26.2381 N   0  0  0  0  0  0  0  0  0  0  0  0
    7.7829  -15.2706   24.0746 C   0  0  0  0  0  0  0  0  0  0  0  0
    6.7949  -15.0443   23.2984 O   0  0  0  0  0  0  0  0  0  0  0  0
    7.3377  -11.6519   18.0200 N   0  0  0  0  0  0  0  0  0  0  0  0
    7.5941  -12.9178   17.3929 C   0  0  0  0  0  0  0  0  0  0  0  0
    6.9518  -13.2481   16.3274 N   0  0  0  0  0  0  0  0  0  0  0  0
    8.5438  -13.8203   17.9212 N   0  0  0  0  0  0  0  0  0  0  0  0
    9.3663  -13.5014   19.0623 C   0  0  0  0  0  0  0  0  0  0  0  0
    9.7479  -14.6990   19.8616 C   0  0  0  0  0  0  0  0  0  0  0  0
    9.5281  -14.6155   21.3252 C   0  0  0  0  0  0  0  0  0  0  0  0
    9.1018  -15.8683   22.0113 C   0  0  2  0  0  0  0  0  0  0  0  0
    8.9707  -15.7191   23.4409 N   0  0  0  0  0  0  0  0  0  0  0  0
    9.8222  -17.0875   21.6276 C   0  0  0  0  0  0  0  0  0  0  0  0
   10.9092  -17.4787   22.4327 O   0  0  0  0  0  0  0  0  0  0  0  0
    9.5656  -17.8107   20.6597 O   0  0  0  0  0  0  0  0  0  0  0  0
  2  1  1  0
  3  2  2  0
  4  3  1  0
  5  4  2  0
  5 11  1  0
  6  5  1  0
  7  6  1  0
  7  8  1  6
  9  7  1  0
  9 10  2  0
 11 12  2  0
 12  2  1  0
 14 13  1  1
 14 15  1  0
 17 16  1  6
 16 14  1  0
 17 18  1  0
 18  9  1  0
 19 17  1  0
 20 19  2  0
 21 22  1  0
 22 24  1  0
 23 22  2  0
 24 25  1  0
 25 26  1  0
 26 27  1  0
 28 27  1  1
 28 29  1  0
 29 19  1  0
 30 31  1  0
 30 28  1  0
 32 30  2  0
M  END
$$$$
