YLR.pdb
     RDKit          3D

 32 32  0  0  1  0  0  0  0  0999 V2000
    7.0341  -13.8083   16.0148 O   0  0  0  0  0  0  0  0  0  0  0  0
    7.6544  -13.8834   17.2458 C   0  0  0  0  0  0  0  0  0  0  0  0
    8.5920  -14.8743   17.5403 C   0  0  0  0  0  0  0  0  0  0  0  0
    9.1739  -14.8873   18.7978 C   0  0  0  0  0  0  0  0  0  0  0  0
    8.8582  -13.9576   19.7627 C   0  0  0  0  0  0  0  0  0  0  0  0
    9.4772  -13.9756   21.0919 C   0  0  0  0  0  0  0  0  0  0  0  0
    9.1552  -15.2314   21.8807 C   0  0  2  0  0  0  0  0  0  0  0  0
    7.7307  -15.4771   21.7190 N   0  0  0  0  0  0  0  0  0  0  0  0
    9.3647  -14.9113   23.3260 C   0  0  0  0  0  0  0  0  0  0  0  0
   10.5495  -14.6931   23.6900 O   0  0  0  0  0  0  0  0  0  0  0  0
    7.9295  -12.9856   19.4540 C   0  0  0  0  0  0  0  0  0  0  0  0
    7.3320  -12.9508   18.2011 C   0  0  0  0  0  0  0  0  0  0  0  0
    5.9402  -11.8865   26.5754 C   0  0  0  0  0  0  0  0  0  0  0  0
    7.1381  -12.5282   25.9212 C   0  0  1  0  0  0  0  0  0  0  0  0
    8.3403  -11.6508   26.2803 C   0  0  0  0  0  0  0  0  0  0  0  0
    7.4177  -13.9209   26.3444 C   0  0  0  0  0  0  0  0  0  0  0  0
    8.5481  -14.6188   25.6777 C   0  0  2  0  0  0  0  0  0  0  0  0
    8.3274  -14.8462   24.2634 N   0  0  0  0  0  0  0  0  0  0  0  0
    8.9965  -15.8622   26.3503 C   0  0  0  0  0  0  0  0  0  0  0  0
    9.2405  -15.8861   27.6032 O   0  0  0  0  0  0  0  0  0  0  0  0
   10.3245  -22.9260   21.6154 N   0  0  0  0  0  0  0  0  0  0  0  0
   11.2668  -22.1490   22.3702 C   0  0  0  0  0  0  0  0  0  0  0  0
   12.5106  -22.4803   22.3797 N   0  0  0  0  0  0  0  0  0  0  0  0
   10.8592  -21.0175   23.1113 N   0  0  0  0  0  0  0  0  0  0  0  0
    9.4725  -20.6587   23.2801 C   0  0  0  0  0  0  0  0  0  0  0  0
    9.2832  -19.4063   24.0637 C   0  0  0  0  0  0  0  0  0  0  0  0
    9.3492  -19.5322   25.5393 C   0  0  0  0  0  0  0  0  0  0  0  0
    9.6646  -18.2923   26.3042 C   0  0  2  0  0  0  0  0  0  0  0  0
    9.1841  -17.0906   25.6652 N   0  0  0  0  0  0  0  0  0  0  0  0
   11.0442  -18.1699   26.7881 C   0  0  0  0  0  0  0  0  0  0  0  0
   11.8984  -17.2900   26.0959 O   0  0  0  0  0  0  0  0  0  0  0  0
   11.5335  -18.7676   27.7520 O   0  0  0  0  0  0  0  0  0  0  0  0
  2  1  1  0
  3  2  2  0
  4  3  1  0
  5  4  2  0
  5 11  1  0
  6  5  1  0
  7  6  1  0
  7  8  1  1
  9  7  1  0
  9 10  2  0
 11 12  2  0
 12  2  1  0
 14 13  1  1
 14 15  1  0
 17 16  1  1
 16 14  1  0
 17 18  1  0
 18  9  1  0
 19 17  1  0
 20 19  2  0
 21 22  1  0
 22 24  1  0
 23 22  2  0
 24 25  1  0
 25 26  1  0
 26 27  1  0
 28 27  1  6
 28 29  1  0
 29 19  1  0
 30 31  1  0
 30 28  1  0
 32 30  2  0
M  END
$$$$
