YLR.pdb
     RDKit          3D

 32 32  0  0  1  0  0  0  0  0999 V2000
    7.3271  -13.7205   15.3984 O   0  0  0  0  0  0  0  0  0  0  0  0
    7.6576  -13.7461   16.7386 C   0  0  0  0  0  0  0  0  0  0  0  0
    8.5475  -14.6856   17.2613 C   0  0  0  0  0  0  0  0  0  0  0  0
    8.8319  -14.6506   18.6169 C   0  0  0  0  0  0  0  0  0  0  0  0
    8.2671  -13.7223   19.4621 C   0  0  0  0  0  0  0  0  0  0  0  0
    8.5718  -13.6894   20.8961 C   0  0  0  0  0  0  0  0  0  0  0  0
    8.5748  -15.0658   21.5349 C   0  0  2  0  0  0  0  0  0  0  0  0
    7.2174  -15.5791   21.4369 N   0  0  0  0  0  0  0  0  0  0  0  0
    8.8477  -14.8759   22.9926 C   0  0  0  0  0  0  0  0  0  0  0  0
   10.0425  -14.6535   23.3191 O   0  0  0  0  0  0  0  0  0  0  0  0
    7.3899  -12.8014   18.9280 C   0  0  0  0  0  0  0  0  0  0  0  0
    7.0883  -12.8153   17.5727 C   0  0  0  0  0  0  0  0  0  0  0  0
    5.5668  -12.4538   26.8536 C   0  0  0  0  0  0  0  0  0  0  0  0
    6.7671  -12.9493   26.0865 C   0  0  1  0  0  0  0  0  0  0  0  0
    7.9641  -12.1475   26.6045 C   0  0  0  0  0  0  0  0  0  0  0  0
    7.0583  -14.3951   26.2352 C   0  0  0  0  0  0  0  0  0  0  0  0
    8.1514  -14.9567   25.3992 C   0  0  2  0  0  0  0  0  0  0  0  0
    7.8575  -14.9336   23.9801 N   0  0  0  0  0  0  0  0  0  0  0  0
    8.6316  -16.2957   25.8187 C   0  0  0  0  0  0  0  0  0  0  0  0
    7.8141  -17.2445   26.0665 O   0  0  0  0  0  0  0  0  0  0  0  0
   13.4245  -21.4455   27.8971 N   0  0  0  0  0  0  0  0  0  0  0  0
   14.0525  -21.9420   26.7053 C   0  0  0  0  0  0  0  0  0  0  0  0
   14.5018  -23.1478   26.6710 N   0  0  0  0  0  0  0  0  0  0  0  0
   14.1917  -21.1320   25.5563 N   0  0  0  0  0  0  0  0  0  0  0  0
   13.6882  -19.7818   25.4931 C   0  0  0  0  0  0  0  0  0  0  0  0
   12.2326  -19.6855   25.7941 C   0  0  0  0  0  0  0  0  0  0  0  0
   11.5588  -18.4230   25.4075 C   0  0  0  0  0  0  0  0  0  0  0  0
   10.4833  -17.9323   26.3155 C   0  0  2  0  0  0  0  0  0  0  0  0
   10.0058  -16.6139   25.9732 N   0  0  0  0  0  0  0  0  0  0  0  0
   10.7321  -18.0949   27.7522 C   0  0  0  0  0  0  0  0  0  0  0  0
   10.6517  -19.3976   28.2807 O   0  0  0  0  0  0  0  0  0  0  0  0
   11.0084  -17.1932   28.5499 O   0  0  0  0  0  0  0  0  0  0  0  0
  2  1  1  0
  3  2  2  0
  4  3  1  0
  5  4  2  0
  5 11  1  0
  6  5  1  0
  7  6  1  0
  7  8  1  1
  9  7  1  0
  9 10  2  0
 11 12  2  0
 12  2  1  0
 14 13  1  1
 14 15  1  0
 17 16  1  1
 16 14  1  0
 17 18  1  0
 18  9  1  0
 19 17  1  0
 20 19  2  0
 21 22  1  0
 22 24  1  0
 23 22  2  0
 24 25  1  0
 25 26  1  0
 26 27  1  0
 28 27  1  6
 28 29  1  0
 29 19  1  0
 30 31  1  0
 30 28  1  0
 32 30  2  0
M  END
$$$$
