YLR.pdb
     RDKit          3D

 32 32  0  0  1  0  0  0  0  0999 V2000
   15.8790  -17.8701   12.6191 O   0  0  0  0  0  0  0  0  0  0  0  0
   15.3202  -17.3821   13.7834 C   0  0  0  0  0  0  0  0  0  0  0  0
   15.5096  -16.0624   14.1960 C   0  0  0  0  0  0  0  0  0  0  0  0
   14.9176  -15.6427   15.3764 C   0  0  0  0  0  0  0  0  0  0  0  0
   14.1513  -16.4825   16.1527 C   0  0  0  0  0  0  0  0  0  0  0  0
   13.5267  -16.0332   17.4011 C   0  0  0  0  0  0  0  0  0  0  0  0
   13.6022  -14.5302   17.5962 C   0  0  2  0  0  0  0  0  0  0  0  0
   14.9260  -14.2396   18.1242 N   0  0  0  0  0  0  0  0  0  0  0  0
   12.6319  -14.1757   18.6770 C   0  0  0  0  0  0  0  0  0  0  0  0
   13.0989  -14.0620   19.8401 O   0  0  0  0  0  0  0  0  0  0  0  0
   13.9749  -17.7834   15.7294 C   0  0  0  0  0  0  0  0  0  0  0  0
   14.5575  -18.2286   14.5503 C   0  0  0  0  0  0  0  0  0  0  0  0
    8.0730  -12.2410   21.1097 C   0  0  0  0  0  0  0  0  0  0  0  0
    7.8780  -13.3114   20.0652 C   0  0  1  0  0  0  0  0  0  0  0  0
    6.5599  -12.9825   19.3593 C   0  0  0  0  0  0  0  0  0  0  0  0
    8.9543  -13.4066   19.0506 C   0  0  0  0  0  0  0  0  0  0  0  0
   10.2998  -13.8231   19.5255 C   0  0  2  0  0  0  0  0  0  0  0  0
   11.2652  -13.9710   18.4547 N   0  0  0  0  0  0  0  0  0  0  0  0
   10.3071  -15.0114   20.4129 C   0  0  0  0  0  0  0  0  0  0  0  0
    9.8466  -14.9522   21.6022 O   0  0  0  0  0  0  0  0  0  0  0  0
    9.9249  -15.8356   16.0525 N   0  0  0  0  0  0  0  0  0  0  0  0
    9.1251  -17.0131   15.8648 C   0  0  0  0  0  0  0  0  0  0  0  0
    7.9276  -16.9091   15.4042 N   0  0  0  0  0  0  0  0  0  0  0  0
    9.6243  -18.2974   16.1764 N   0  0  0  0  0  0  0  0  0  0  0  0
   10.4186  -18.5571   17.3519 C   0  0  0  0  0  0  0  0  0  0  0  0
    9.6379  -18.4675   18.6172 C   0  0  0  0  0  0  0  0  0  0  0  0
   10.3903  -18.6835   19.8761 C   0  0  0  0  0  0  0  0  0  0  0  0
   10.5865  -17.4935   20.7520 C   0  0  2  0  0  0  0  0  0  0  0  0
   10.8164  -16.2744   20.0143 N   0  0  0  0  0  0  0  0  0  0  0  0
   11.5173  -17.6676   21.8726 C   0  0  0  0  0  0  0  0  0  0  0  0
   12.4557  -16.6429   22.1011 O   0  0  0  0  0  0  0  0  0  0  0  0
   11.5579  -18.6329   22.6421 O   0  0  0  0  0  0  0  0  0  0  0  0
  2  1  1  0
  3  2  2  0
  4  3  1  0
  5  4  2  0
  5 11  1  0
  6  5  1  0
  7  6  1  0
  7  8  1  1
  9  7  1  0
  9 10  2  0
 11 12  2  0
 12  2  1  0
 14 13  1  1
 14 15  1  0
 17 16  1  6
 16 14  1  0
 17 18  1  0
 18  9  1  0
 19 17  1  0
 20 19  2  0
 21 22  1  0
 22 24  1  0
 23 22  2  0
 24 25  1  0
 25 26  1  0
 26 27  1  0
 28 27  1  6
 28 29  1  0
 29 19  1  0
 30 31  1  0
 30 28  1  0
 32 30  2  0
M  END
$$$$
