RSH.pdb
     RDKit          3D

 28 28  0  0  1  0  0  0  0  0999 V2000
    8.0060  -13.4711   14.8013 N   0  0  0  0  0  0  0  0  0  0  0  0
    8.5451  -14.5104   15.5953 C   0  0  0  0  0  0  0  0  0  0  0  0
    9.3542  -15.3906   15.0802 N   0  0  0  0  0  0  0  0  0  0  0  0
    8.1809  -14.5733   16.9804 N   0  0  0  0  0  0  0  0  0  0  0  0
    7.5154  -13.4268   17.5681 C   0  0  0  0  0  0  0  0  0  0  0  0
    8.2382  -13.1060   18.8542 C   0  0  0  0  0  0  0  0  0  0  0  0
    7.7446  -13.9430   20.0164 C   0  0  0  0  0  0  0  0  0  0  0  0
    9.0001  -14.4708   20.7171 C   0  0  2  0  0  0  0  0  0  0  0  0
    9.6398  -15.3794   19.8167 N   0  0  0  0  0  0  0  0  0  0  0  0
    8.5612  -15.1229   21.9769 C   0  0  0  0  0  0  0  0  0  0  0  0
    7.8001  -14.5513   22.7972 O   0  0  0  0  0  0  0  0  0  0  0  0
    9.6924  -16.1596   15.6765 O   0  0  0  0  0  0  0  0  0  0  0  0
   10.3542  -18.6147   23.1037 C   0  0  0  0  0  0  0  0  0  0  0  0
    8.9858  -18.5758   23.3638 C   0  0  1  0  0  0  0  0  0  0  0  0
    8.5658  -17.1232   23.5031 N   0  0  0  0  0  0  0  0  0  0  0  0
    8.9916  -16.4358   22.3061 C   0  0  0  0  0  0  0  0  0  0  0  0
    9.2846  -16.4902   24.6662 O   0  0  0  0  0  0  0  0  0  0  0  0
   10.4211  -16.0168   24.4669 N   0  0  0  0  0  0  0  0  0  0  0  0
    8.7114  -16.4252   25.9399 C   0  0  1  0  0  0  0  0  0  0  0  0
    9.2336  -15.8517   27.0986 C   0  0  0  0  0  0  0  0  0  0  0  0
    8.3976  -14.8479   27.8578 C   0  0  0  0  0  0  0  0  0  0  0  0
    7.7226  -13.8502   27.0284 C   0  0  0  0  0  0  0  0  0  0  0  0
    7.8406  -12.4658   26.9416 N   0  0  0  0  0  0  0  0  0  0  0  0
    6.9534  -11.9810   26.0578 C   0  0  0  0  0  0  0  0  0  0  0  0
    6.2865  -13.0356   25.5936 N   0  0  0  0  0  0  0  0  0  0  0  0
    6.7303  -14.1459   26.1582 C   0  0  0  0  0  0  0  0  0  0  0  0
    9.8675  -16.7673   28.0462 O   0  0  0  0  0  0  0  0  0  0  0  0
   10.5837  -16.3704   29.1609 O   0  0  0  0  0  0  0  0  0  0  0  0
  2  1  1  0
  3  2  2  0
  4  2  1  0
  5  4  1  0
  6  5  1  0
  7  6  1  0
  8  7  1  0
  8  9  1  6
 10  8  1  0
 10 15  1  0
 11 10  2  0
 12 13  1  0
 14 13  1  6
 14 15  1  0
 14 16  1  0
 16 18  1  0
 16 17  2  0
 18 19  1  0
 19 20  1  1
 19 26  1  0
 21 22  2  0
 21 20  1  0
 23 22  1  0
 24 25  2  0
 24 23  1  0
 25 21  1  0
 26 27  1  0
 28 26  2  0
M  END
$$$$
