RSH.pdb
     RDKit          3D

 28 28  0  0  1  0  0  0  0  0999 V2000
   13.8119  -14.2147   19.7245 N   0  0  0  0  0  0  0  0  0  0  0  0
   13.1239  -13.8851   18.5333 C   0  0  0  0  0  0  0  0  0  0  0  0
   13.7390  -13.8897   17.3860 N   0  0  0  0  0  0  0  0  0  0  0  0
   11.7336  -13.5456   18.6170 N   0  0  0  0  0  0  0  0  0  0  0  0
   10.9580  -14.0926   19.7134 C   0  0  0  0  0  0  0  0  0  0  0  0
   10.6616  -15.5329   19.3712 C   0  0  0  0  0  0  0  0  0  0  0  0
    9.6928  -16.1689   20.3468 C   0  0  0  0  0  0  0  0  0  0  0  0
   10.4409  -17.3499   20.9723 C   0  0  2  0  0  0  0  0  0  0  0  0
   10.0518  -18.5264   20.2583 N   0  0  0  0  0  0  0  0  0  0  0  0
   10.0667  -17.3986   22.4085 C   0  0  0  0  0  0  0  0  0  0  0  0
   10.2253  -16.4162   23.1758 O   0  0  0  0  0  0  0  0  0  0  0  0
   13.2526  -13.5057   16.5629 O   0  0  0  0  0  0  0  0  0  0  0  0
    9.5021  -20.9808   24.2562 C   0  0  0  0  0  0  0  0  0  0  0  0
    8.5191  -20.0460   24.5750 C   0  0  1  0  0  0  0  0  0  0  0  0
    9.0911  -18.6563   24.3571 N   0  0  0  0  0  0  0  0  0  0  0  0
    9.5076  -18.5743   22.9763 C   0  0  0  0  0  0  0  0  0  0  0  0
   10.3185  -18.4666   25.2101 O   0  0  0  0  0  0  0  0  0  0  0  0
   11.3867  -18.9826   24.8250 N   0  0  0  0  0  0  0  0  0  0  0  0
   10.2822  -17.7368   26.4022 C   0  0  1  0  0  0  0  0  0  0  0  0
   11.2558  -17.6492   27.3964 C   0  0  0  0  0  0  0  0  0  0  0  0
   11.1472  -16.5532   28.4308 C   0  0  0  0  0  0  0  0  0  0  0  0
   10.5914  -15.2922   27.9413 C   0  0  0  0  0  0  0  0  0  0  0  0
   10.2547  -14.8463   26.6662 N   0  0  0  0  0  0  0  0  0  0  0  0
    9.8268  -13.5745   26.7195 C   0  0  0  0  0  0  0  0  0  0  0  0
    9.8907  -13.2209   28.0013 N   0  0  0  0  0  0  0  0  0  0  0  0
   10.3405  -14.2255   28.7342 C   0  0  0  0  0  0  0  0  0  0  0  0
   11.6229  -18.9013   28.0564 O   0  0  0  0  0  0  0  0  0  0  0  0
   12.6042  -19.0197   29.0238 O   0  0  0  0  0  0  0  0  0  0  0  0
  2  1  1  0
  3  2  2  0
  4  2  1  0
  5  4  1  0
  6  5  1  0
  7  6  1  0
  8  7  1  0
  8  9  1  6
 10  8  1  0
 10 15  1  0
 11 10  2  0
 12 13  1  0
 14 13  1  6
 14 15  1  0
 14 16  1  0
 16 18  1  0
 16 17  2  0
 18 19  1  0
 19 20  1  1
 19 26  1  0
 21 22  2  0
 21 20  1  0
 23 22  1  0
 24 25  2  0
 24 23  1  0
 25 21  1  0
 26 27  1  0
 28 26  2  0
M  END
$$$$
