RSH.pdb
     RDKit          3D

 28 28  0  0  1  0  0  0  0  0999 V2000
   11.6098  -21.7452   22.1967 N   0  0  0  0  0  0  0  0  0  0  0  0
   12.9551  -21.7521   21.7593 C   0  0  0  0  0  0  0  0  0  0  0  0
   13.5608  -22.8716   21.4861 N   0  0  0  0  0  0  0  0  0  0  0  0
   13.6374  -20.4987   21.6232 N   0  0  0  0  0  0  0  0  0  0  0  0
   12.9332  -19.2889   22.0020 C   0  0  0  0  0  0  0  0  0  0  0  0
   12.1332  -18.8471   20.8002 C   0  0  0  0  0  0  0  0  0  0  0  0
   12.3030  -17.3707   20.5066 C   0  0  0  0  0  0  0  0  0  0  0  0
   10.9739  -16.9068   19.9031 C   0  0  2  0  0  0  0  0  0  0  0  0
   11.2376  -16.4952   18.5590 N   0  0  0  0  0  0  0  0  0  0  0  0
   10.4649  -15.8013   20.7538 C   0  0  0  0  0  0  0  0  0  0  0  0
   11.0853  -14.7164   20.8845 O   0  0  0  0  0  0  0  0  0  0  0  0
   14.5391  -22.8386   21.1648 O   0  0  0  0  0  0  0  0  0  0  0  0
    6.5793  -15.8963   22.2676 C   0  0  0  0  0  0  0  0  0  0  0  0
    7.2518  -14.7125   21.9710 C   0  0  1  0  0  0  0  0  0  0  0  0
    8.7182  -14.8941   22.3211 N   0  0  0  0  0  0  0  0  0  0  0  0
    9.2403  -15.9310   21.4615 C   0  0  0  0  0  0  0  0  0  0  0  0
    8.8508  -15.3773   23.7420 O   0  0  0  0  0  0  0  0  0  0  0  0
    8.6935  -16.5942   23.9655 N   0  0  0  0  0  0  0  0  0  0  0  0
    9.1415  -14.5031   24.7938 C   0  0  2  0  0  0  0  0  0  0  0  0
    9.0321  -14.7286   26.1654 C   0  0  0  0  0  0  0  0  0  0  0  0
    7.6753  -14.6093   26.8196 C   0  0  0  0  0  0  0  0  0  0  0  0
    6.9563  -13.3684   26.5330 C   0  0  0  0  0  0  0  0  0  0  0  0
    7.3893  -12.0780   26.2411 N   0  0  0  0  0  0  0  0  0  0  0  0
    6.3357  -11.2561   26.1082 C   0  0  0  0  0  0  0  0  0  0  0  0
    5.2569  -12.0091   26.3116 N   0  0  0  0  0  0  0  0  0  0  0  0
    5.6085  -13.2587   26.5635 C   0  0  0  0  0  0  0  0  0  0  0  0
    9.7159  -15.9123   26.6843 O   0  0  0  0  0  0  0  0  0  0  0  0
   10.3625  -16.8510   25.9009 O   0  0  0  0  0  0  0  0  0  0  0  0
  2  1  1  0
  3  2  2  0
  4  2  1  0
  5  4  1  0
  6  5  1  0
  7  6  1  0
  8  7  1  0
  8  9  1  6
 10  8  1  0
 10 15  1  0
 11 10  2  0
 12 13  1  0
 14 13  1  6
 14 15  1  0
 14 16  1  0
 16 18  1  0
 16 17  2  0
 18 19  1  0
 19 20  1  6
 19 26  1  0
 21 22  2  0
 21 20  1  0
 23 22  1  0
 24 25  2  0
 24 23  1  0
 25 21  1  0
 26 27  1  0
 28 26  2  0
M  END
$$$$
