RSH.pdb
     RDKit          3D

 28 28  0  0  1  0  0  0  0  0999 V2000
   14.3935  -14.2394   16.3867 N   0  0  0  0  0  0  0  0  0  0  0  0
   14.9856  -14.3612   17.6656 C   0  0  0  0  0  0  0  0  0  0  0  0
   15.9273  -13.5458   18.0438 N   0  0  0  0  0  0  0  0  0  0  0  0
   14.5259  -15.4028   18.5368 N   0  0  0  0  0  0  0  0  0  0  0  0
   13.3803  -16.1892   18.1219 C   0  0  0  0  0  0  0  0  0  0  0  0
   12.1705  -15.2903   18.2098 C   0  0  0  0  0  0  0  0  0  0  0  0
   11.2083  -15.7244   19.2963 C   0  0  0  0  0  0  0  0  0  0  0  0
   10.0011  -14.7881   19.1872 C   0  0  2  0  0  0  0  0  0  0  0  0
   10.4675  -13.5556   18.6312 N   0  0  0  0  0  0  0  0  0  0  0  0
    9.4422  -14.6276   20.5535 C   0  0  0  0  0  0  0  0  0  0  0  0
    9.7743  -13.6776   21.3059 O   0  0  0  0  0  0  0  0  0  0  0  0
   16.3986  -13.7184   18.9435 O   0  0  0  0  0  0  0  0  0  0  0  0
    6.7221  -17.3826   21.7904 C   0  0  0  0  0  0  0  0  0  0  0  0
    6.5782  -16.1230   22.3687 C   0  0  1  0  0  0  0  0  0  0  0  0
    7.9394  -15.4504   22.3962 N   0  0  0  0  0  0  0  0  0  0  0  0
    8.4978  -15.5554   21.0680 C   0  0  0  0  0  0  0  0  0  0  0  0
    8.8593  -16.1910   23.3317 O   0  0  0  0  0  0  0  0  0  0  0  0
    9.8342  -16.7946   22.8410 N   0  0  0  0  0  0  0  0  0  0  0  0
    8.6440  -16.2131   24.7131 C   0  0  1  0  0  0  0  0  0  0  0  0
    9.3909  -16.8584   25.6979 C   0  0  0  0  0  0  0  0  0  0  0  0
    9.1532  -16.5014   27.1466 C   0  0  0  0  0  0  0  0  0  0  0  0
    8.9330  -15.0790   27.4061 C   0  0  0  0  0  0  0  0  0  0  0  0
    8.2106  -14.1013   26.7278 N   0  0  0  0  0  0  0  0  0  0  0  0
    8.3588  -12.9127   27.3348 C   0  0  0  0  0  0  0  0  0  0  0  0
    9.1583  -13.1316   28.3765 N   0  0  0  0  0  0  0  0  0  0  0  0
    9.5051  -14.4065   28.4308 C   0  0  0  0  0  0  0  0  0  0  0  0
    9.5127  -18.3101   25.5720 O   0  0  0  0  0  0  0  0  0  0  0  0
   10.3432  -19.0977   26.3485 O   0  0  0  0  0  0  0  0  0  0  0  0
  2  1  1  0
  3  2  2  0
  4  2  1  0
  5  4  1  0
  6  5  1  0
  7  6  1  0
  8  7  1  0
  8  9  1  1
 10  8  1  0
 10 15  1  0
 11 10  2  0
 12 13  1  0
 14 13  1  6
 14 15  1  0
 14 16  1  0
 16 18  1  0
 16 17  2  0
 18 19  1  0
 19 20  1  1
 19 26  1  0
 21 22  2  0
 21 20  1  0
 23 22  1  0
 24 25  2  0
 24 23  1  0
 25 21  1  0
 26 27  1  0
 28 26  2  0
M  END
$$$$
