RSH.pdb
     RDKit          3D

 28 28  0  0  1  0  0  0  0  0999 V2000
    8.8052  -15.2910   17.4005 N   0  0  0  0  0  0  0  0  0  0  0  0
    8.3499  -14.1011   16.7858 C   0  0  0  0  0  0  0  0  0  0  0  0
    8.1188  -14.0593   15.5054 N   0  0  0  0  0  0  0  0  0  0  0  0
    8.1482  -12.9414   17.6042 N   0  0  0  0  0  0  0  0  0  0  0  0
    8.4842  -13.0277   19.0122 C   0  0  0  0  0  0  0  0  0  0  0  0
    7.2212  -13.4081   19.7467 C   0  0  0  0  0  0  0  0  0  0  0  0
    7.5057  -14.0139   21.1057 C   0  0  0  0  0  0  0  0  0  0  0  0
    7.4968  -15.5316   20.8994 C   0  0  2  0  0  0  0  0  0  0  0  0
    6.1578  -15.9078   20.5663 N   0  0  0  0  0  0  0  0  0  0  0  0
    7.9711  -16.1515   22.1626 C   0  0  0  0  0  0  0  0  0  0  0  0
    7.1836  -16.4765   23.0862 O   0  0  0  0  0  0  0  0  0  0  0  0
    7.8526  -13.1593   15.0804 O   0  0  0  0  0  0  0  0  0  0  0  0
   12.0338  -16.7036   22.7265 C   0  0  0  0  0  0  0  0  0  0  0  0
   11.1834  -17.7162   23.1660 C   0  0  1  0  0  0  0  0  0  0  0  0
    9.8515  -17.0927   23.5442 N   0  0  0  0  0  0  0  0  0  0  0  0
    9.3523  -16.4037   22.3768 C   0  0  0  0  0  0  0  0  0  0  0  0
   10.0554  -16.0613   24.6235 O   0  0  0  0  0  0  0  0  0  0  0  0
    9.8373  -14.8660   24.3421 N   0  0  0  0  0  0  0  0  0  0  0  0
   10.4763  -16.4133   25.9095 C   0  0  1  0  0  0  0  0  0  0  0  0
    9.8029  -16.2475   27.1191 C   0  0  0  0  0  0  0  0  0  0  0  0
    8.3025  -16.0705   27.1018 C   0  0  0  0  0  0  0  0  0  0  0  0
    7.8429  -14.7012   26.8723 C   0  0  0  0  0  0  0  0  0  0  0  0
    8.5148  -13.4838   26.8046 N   0  0  0  0  0  0  0  0  0  0  0  0
    7.6386  -12.4816   26.6278 C   0  0  0  0  0  0  0  0  0  0  0  0
    6.4360  -13.0511   26.5844 N   0  0  0  0  0  0  0  0  0  0  0  0
    6.5417  -14.3614   26.7274 C   0  0  0  0  0  0  0  0  0  0  0  0
   10.1682  -17.1671   28.1957 O   0  0  0  0  0  0  0  0  0  0  0  0
   10.6949  -18.4313   28.0024 O   0  0  0  0  0  0  0  0  0  0  0  0
  2  1  1  0
  3  2  2  0
  4  2  1  0
  5  4  1  0
  6  5  1  0
  7  6  1  0
  8  7  1  0
  8  9  1  1
 10  8  1  0
 10 15  1  0
 11 10  2  0
 12 13  1  0
 14 13  1  6
 14 15  1  0
 14 16  1  0
 16 18  1  0
 16 17  2  0
 18 19  1  0
 19 20  1  1
 19 26  1  0
 21 22  2  0
 21 20  1  0
 23 22  1  0
 24 25  2  0
 24 23  1  0
 25 21  1  0
 26 27  1  0
 28 26  2  0
M  END
$$$$
