RSH.pdb
     RDKit          3D

 28 28  0  0  1  0  0  0  0  0999 V2000
    8.5667  -11.6984   19.6582 N   0  0  0  0  0  0  0  0  0  0  0  0
    8.4769  -13.0855   19.3960 C   0  0  0  0  0  0  0  0  0  0  0  0
    9.0791  -13.6092   18.3675 N   0  0  0  0  0  0  0  0  0  0  0  0
    7.7077  -13.9027   20.2881 N   0  0  0  0  0  0  0  0  0  0  0  0
    7.7215  -15.3389   20.0878 C   0  0  0  0  0  0  0  0  0  0  0  0
    6.3483  -15.7312   19.5980 C   0  0  0  0  0  0  0  0  0  0  0  0
    5.4611  -16.2382   20.7163 C   0  0  0  0  0  0  0  0  0  0  0  0
    5.6313  -17.7603   20.7305 C   0  0  2  0  0  0  0  0  0  0  0  0
    4.4545  -18.3255   20.1464 N   0  0  0  0  0  0  0  0  0  0  0  0
    5.8250  -18.1696   22.1446 C   0  0  0  0  0  0  0  0  0  0  0  0
    4.8718  -18.2301   22.9611 O   0  0  0  0  0  0  0  0  0  0  0  0
    8.9685  -14.6181   18.1909 O   0  0  0  0  0  0  0  0  0  0  0  0
    9.2612  -20.0791   23.2474 C   0  0  0  0  0  0  0  0  0  0  0  0
    8.0788  -20.2424   23.9663 C   0  0  1  0  0  0  0  0  0  0  0  0
    7.3523  -18.9095   24.0023 N   0  0  0  0  0  0  0  0  0  0  0  0
    7.1135  -18.5128   22.6339 C   0  0  0  0  0  0  0  0  0  0  0  0
    8.2343  -17.8605   24.6282 O   0  0  0  0  0  0  0  0  0  0  0  0
    9.1660  -17.3922   23.9440 N   0  0  0  0  0  0  0  0  0  0  0  0
    8.0309  -17.4115   25.9367 C   0  0  2  0  0  0  0  0  0  0  0  0
    8.8262  -16.5513   26.6928 C   0  0  0  0  0  0  0  0  0  0  0  0
    8.2704  -15.9820   27.9772 C   0  0  0  0  0  0  0  0  0  0  0  0
    9.1521  -15.0445   28.6719 C   0  0  0  0  0  0  0  0  0  0  0  0
    9.3799  -13.6797   28.5183 N   0  0  0  0  0  0  0  0  0  0  0  0
   10.3383  -13.2730   29.3666 C   0  0  0  0  0  0  0  0  0  0  0  0
   10.7106  -14.3568   30.0441 N   0  0  0  0  0  0  0  0  0  0  0  0
   10.0184  -15.4101   29.6442 C   0  0  0  0  0  0  0  0  0  0  0  0
   10.2102  -16.9707   26.9096 O   0  0  0  0  0  0  0  0  0  0  0  0
   11.3140  -16.1577   26.7262 O   0  0  0  0  0  0  0  0  0  0  0  0
  2  1  1  0
  3  2  2  0
  4  2  1  0
  5  4  1  0
  6  5  1  0
  7  6  1  0
  8  7  1  0
  8  9  1  1
 10  8  1  0
 10 15  1  0
 11 10  2  0
 12 13  1  0
 14 13  1  1
 14 15  1  0
 14 16  1  0
 16 18  1  0
 16 17  2  0
 18 19  1  0
 19 20  1  1
 19 26  1  0
 21 22  2  0
 21 20  1  0
 23 22  1  0
 24 25  2  0
 24 23  1  0
 25 21  1  0
 26 27  1  0
 28 26  2  0
M  END
$$$$
