RSH.pdb
     RDKit          3D

 28 28  0  0  1  0  0  0  0  0999 V2000
    8.0627  -15.2973   15.8784 N   0  0  0  0  0  0  0  0  0  0  0  0
    7.9724  -13.9239   16.2054 C   0  0  0  0  0  0  0  0  0  0  0  0
    8.4594  -13.0164   15.4093 N   0  0  0  0  0  0  0  0  0  0  0  0
    7.3326  -13.5531   17.4335 N   0  0  0  0  0  0  0  0  0  0  0  0
    7.7568  -14.2103   18.6546 C   0  0  0  0  0  0  0  0  0  0  0  0
    9.2661  -14.1783   18.6737 C   0  0  0  0  0  0  0  0  0  0  0  0
    9.8202  -13.9737   20.0686 C   0  0  0  0  0  0  0  0  0  0  0  0
    9.6933  -15.3273   20.7739 C   0  0  2  0  0  0  0  0  0  0  0  0
    8.4302  -15.8848   20.4007 N   0  0  0  0  0  0  0  0  0  0  0  0
    9.8027  -15.0766   22.2333 C   0  0  0  0  0  0  0  0  0  0  0  0
   10.7638  -14.4401   22.7335 O   0  0  0  0  0  0  0  0  0  0  0  0
    8.3507  -12.0244   15.6654 O   0  0  0  0  0  0  0  0  0  0  0  0
    6.6454  -15.8526   24.6769 C   0  0  0  0  0  0  0  0  0  0  0  0
    7.6845  -15.0724   25.1800 C   0  0  1  0  0  0  0  0  0  0  0  0
    8.9865  -15.5545   24.5649 N   0  0  0  0  0  0  0  0  0  0  0  0
    8.8109  -15.5537   23.1310 C   0  0  0  0  0  0  0  0  0  0  0  0
    9.2576  -16.9758   24.9849 O   0  0  0  0  0  0  0  0  0  0  0  0
    8.5942  -17.8841   24.4461 N   0  0  0  0  0  0  0  0  0  0  0  0
   10.2208  -17.2885   25.9490 C   0  0  1  0  0  0  0  0  0  0  0  0
   10.5487  -18.5374   26.4753 C   0  0  0  0  0  0  0  0  0  0  0  0
   11.8405  -19.1942   26.0478 C   0  0  0  0  0  0  0  0  0  0  0  0
   12.1001  -19.1722   24.6087 C   0  0  0  0  0  0  0  0  0  0  0  0
   11.3890  -19.6658   23.5184 N   0  0  0  0  0  0  0  0  0  0  0  0
   12.0724  -19.4465   22.3834 C   0  0  0  0  0  0  0  0  0  0  0  0
   13.1935  -18.8267   22.7459 N   0  0  0  0  0  0  0  0  0  0  0  0
   13.2231  -18.6582   24.0571 C   0  0  0  0  0  0  0  0  0  0  0  0
   10.3807  -18.6967   27.9191 O   0  0  0  0  0  0  0  0  0  0  0  0
   10.6197  -19.8698   28.6117 O   0  0  0  0  0  0  0  0  0  0  0  0
  2  1  1  0
  3  2  2  0
  4  2  1  0
  5  4  1  0
  6  5  1  0
  7  6  1  0
  8  7  1  0
  8  9  1  1
 10  8  1  0
 10 15  1  0
 11 10  2  0
 12 13  1  0
 14 13  1  6
 14 15  1  0
 14 16  1  0
 16 18  1  0
 16 17  2  0
 18 19  1  0
 19 20  1  1
 19 26  1  0
 21 22  2  0
 21 20  1  0
 23 22  1  0
 24 25  2  0
 24 23  1  0
 25 21  1  0
 26 27  1  0
 28 26  2  0
M  END
$$$$
