RSH.pdb
     RDKit          3D

 28 28  0  0  1  0  0  0  0  0999 V2000
   14.9230  -16.0779   13.2570 N   0  0  0  0  0  0  0  0  0  0  0  0
   14.3485  -17.0197   14.1425 C   0  0  0  0  0  0  0  0  0  0  0  0
   15.0883  -17.6735   14.9909 N   0  0  0  0  0  0  0  0  0  0  0  0
   12.9329  -17.2388   14.0851 N   0  0  0  0  0  0  0  0  0  0  0  0
   12.1068  -16.2284   13.4530 C   0  0  0  0  0  0  0  0  0  0  0  0
   10.7242  -16.8163   13.3035 C   0  0  0  0  0  0  0  0  0  0  0  0
   10.1483  -17.2772   14.6267 C   0  0  0  0  0  0  0  0  0  0  0  0
    9.1006  -16.2303   15.0164 C   0  0  2  0  0  0  0  0  0  0  0  0
    8.9870  -15.3146   13.9236 N   0  0  0  0  0  0  0  0  0  0  0  0
    9.5705  -15.5795   16.2657 C   0  0  0  0  0  0  0  0  0  0  0  0
   10.4685  -14.7005   16.2663 O   0  0  0  0  0  0  0  0  0  0  0  0
   14.6361  -18.3519   15.6208 O   0  0  0  0  0  0  0  0  0  0  0  0
    7.9759  -16.7906   19.9151 C   0  0  0  0  0  0  0  0  0  0  0  0
    8.3441  -15.4551   19.7654 C   0  0  1  0  0  0  0  0  0  0  0  0
    9.4911  -15.3829   18.7728 N   0  0  0  0  0  0  0  0  0  0  0  0
    9.0144  -15.9314   17.5243 C   0  0  0  0  0  0  0  0  0  0  0  0
   10.6304  -16.2508   19.2406 O   0  0  0  0  0  0  0  0  0  0  0  0
   10.9412  -17.2376   18.5441 N   0  0  0  0  0  0  0  0  0  0  0  0
   11.3317  -15.9751   20.4184 C   0  0  1  0  0  0  0  0  0  0  0  0
   12.4040  -16.6722   20.9736 C   0  0  0  0  0  0  0  0  0  0  0  0
   13.5444  -17.0939   20.0767 C   0  0  0  0  0  0  0  0  0  0  0  0
   14.0705  -16.0420   19.2074 C   0  0  0  0  0  0  0  0  0  0  0  0
   14.2075  -14.6668   19.3742 N   0  0  0  0  0  0  0  0  0  0  0  0
   14.7002  -14.1123   18.2548 C   0  0  0  0  0  0  0  0  0  0  0  0
   14.8723  -15.1147   17.3958 N   0  0  0  0  0  0  0  0  0  0  0  0
   14.5045  -16.2599   17.9450 C   0  0  0  0  0  0  0  0  0  0  0  0
   12.9443  -16.1413   22.2244 O   0  0  0  0  0  0  0  0  0  0  0  0
   12.4913  -14.9940   22.8500 O   0  0  0  0  0  0  0  0  0  0  0  0
  2  1  1  0
  3  2  2  0
  4  2  1  0
  5  4  1  0
  6  5  1  0
  7  6  1  0
  8  7  1  0
  8  9  1  6
 10  8  1  0
 10 15  1  0
 11 10  2  0
 12 13  1  0
 14 13  1  6
 14 15  1  0
 14 16  1  0
 16 18  1  0
 16 17  2  0
 18 19  1  0
 19 20  1  1
 19 26  1  0
 21 22  2  0
 21 20  1  0
 23 22  1  0
 24 25  2  0
 24 23  1  0
 25 21  1  0
 26 27  1  0
 28 26  2  0
M  END
$$$$
