RSH.pdb
     RDKit          3D

 28 28  0  0  1  0  0  0  0  0999 V2000
   10.7018  -17.1815   13.7151 N   0  0  0  0  0  0  0  0  0  0  0  0
    9.4366  -16.9176   13.1401 C   0  0  0  0  0  0  0  0  0  0  0  0
    9.3098  -16.7576   11.8544 N   0  0  0  0  0  0  0  0  0  0  0  0
    8.2962  -16.8302   14.0045 N   0  0  0  0  0  0  0  0  0  0  0  0
    8.5028  -16.9852   15.4314 C   0  0  0  0  0  0  0  0  0  0  0  0
    8.8855  -15.6291   15.9737 C   0  0  0  0  0  0  0  0  0  0  0  0
    9.1696  -15.6631   17.4613 C   0  0  0  0  0  0  0  0  0  0  0  0
    8.2962  -14.5680   18.0809 C   0  0  2  0  0  0  0  0  0  0  0  0
    8.5430  -13.3631   17.3509 N   0  0  0  0  0  0  0  0  0  0  0  0
    8.6734  -14.4603   19.5131 C   0  0  0  0  0  0  0  0  0  0  0  0
    9.8507  -14.2178   19.8794 O   0  0  0  0  0  0  0  0  0  0  0  0
    8.3735  -16.5645   11.4704 O   0  0  0  0  0  0  0  0  0  0  0  0
    5.9626  -15.6663   22.3624 C   0  0  0  0  0  0  0  0  0  0  0  0
    6.7311  -14.5590   22.7157 C   0  0  1  0  0  0  0  0  0  0  0  0
    8.0366  -14.6157   21.9423 N   0  0  0  0  0  0  0  0  0  0  0  0
    7.7035  -14.6298   20.5367 C   0  0  0  0  0  0  0  0  0  0  0  0
    8.7588  -15.9024   22.2473 O   0  0  0  0  0  0  0  0  0  0  0  0
    8.7809  -16.7861   21.3675 N   0  0  0  0  0  0  0  0  0  0  0  0
    9.3922  -16.1191   23.4748 C   0  0  1  0  0  0  0  0  0  0  0  0
   10.0589  -17.2606   23.9181 C   0  0  0  0  0  0  0  0  0  0  0  0
   11.0354  -17.9435   22.9891 C   0  0  0  0  0  0  0  0  0  0  0  0
   12.0512  -17.0679   22.4055 C   0  0  0  0  0  0  0  0  0  0  0  0
   12.0203  -15.7390   21.9918 N   0  0  0  0  0  0  0  0  0  0  0  0
   13.2047  -15.3924   21.4623 C   0  0  0  0  0  0  0  0  0  0  0  0
   13.9709  -16.4784   21.5384 N   0  0  0  0  0  0  0  0  0  0  0  0
   13.3025  -17.4754   22.0933 C   0  0  0  0  0  0  0  0  0  0  0  0
   10.6350  -17.1947   25.2604 O   0  0  0  0  0  0  0  0  0  0  0  0
   11.3489  -18.2172   25.8587 O   0  0  0  0  0  0  0  0  0  0  0  0
  2  1  1  0
  3  2  2  0
  4  2  1  0
  5  4  1  0
  6  5  1  0
  7  6  1  0
  8  7  1  0
  8  9  1  6
 10  8  1  0
 10 15  1  0
 11 10  2  0
 12 13  1  0
 14 13  1  6
 14 15  1  0
 14 16  1  0
 16 18  1  0
 16 17  2  0
 18 19  1  0
 19 20  1  1
 19 26  1  0
 21 22  2  0
 21 20  1  0
 23 22  1  0
 24 25  2  0
 24 23  1  0
 25 21  1  0
 26 27  1  0
 28 26  2  0
M  END
$$$$
