RSH.pdb
     RDKit          3D

 28 28  0  0  1  0  0  0  0  0999 V2000
    7.0921  -12.8662   19.6153 N   0  0  0  0  0  0  0  0  0  0  0  0
    8.4987  -12.8331   19.4680 C   0  0  0  0  0  0  0  0  0  0  0  0
    9.1024  -11.7461   19.0826 N   0  0  0  0  0  0  0  0  0  0  0  0
    9.2453  -14.0234   19.7527 N   0  0  0  0  0  0  0  0  0  0  0  0
    9.9661  -14.6582   18.6663 C   0  0  0  0  0  0  0  0  0  0  0  0
    9.8179  -16.1497   18.8479 C   0  0  0  0  0  0  0  0  0  0  0  0
    9.5677  -16.5318   20.2923 C   0  0  0  0  0  0  0  0  0  0  0  0
    9.4148  -18.0557   20.3033 C   0  0  2  0  0  0  0  0  0  0  0  0
    8.1185  -18.3570   19.7797 N   0  0  0  0  0  0  0  0  0  0  0  0
    9.5870  -18.5063   21.7076 C   0  0  0  0  0  0  0  0  0  0  0  0
    8.6327  -18.5322   22.5247 O   0  0  0  0  0  0  0  0  0  0  0  0
   10.0901  -11.8047   18.7954 O   0  0  0  0  0  0  0  0  0  0  0  0
   13.3833  -19.5881   23.0839 C   0  0  0  0  0  0  0  0  0  0  0  0
   12.2689  -20.2733   23.5640 C   0  0  1  0  0  0  0  0  0  0  0  0
   11.0837  -19.3241   23.5575 N   0  0  0  0  0  0  0  0  0  0  0  0
   10.8549  -18.9310   22.1864 C   0  0  0  0  0  0  0  0  0  0  0  0
   11.4200  -18.0772   24.3336 O   0  0  0  0  0  0  0  0  0  0  0  0
   11.5647  -17.0125   23.7004 N   0  0  0  0  0  0  0  0  0  0  0  0
   11.5699  -18.0922   25.7237 C   0  0  1  0  0  0  0  0  0  0  0  0
   11.1513  -17.1400   26.6522 C   0  0  0  0  0  0  0  0  0  0  0  0
    9.8895  -16.3559   26.3765 C   0  0  0  0  0  0  0  0  0  0  0  0
    9.6246  -15.2605   27.3087 C   0  0  0  0  0  0  0  0  0  0  0  0
   10.4167  -14.6256   28.2612 N   0  0  0  0  0  0  0  0  0  0  0  0
    9.6979  -13.7004   28.9175 C   0  0  0  0  0  0  0  0  0  0  0  0
    8.4755  -13.7473   28.3924 N   0  0  0  0  0  0  0  0  0  0  0  0
    8.4179  -14.6641   27.4413 C   0  0  0  0  0  0  0  0  0  0  0  0
   11.1669  -17.5520   28.0551 O   0  0  0  0  0  0  0  0  0  0  0  0
   11.7071  -16.8047   29.0860 O   0  0  0  0  0  0  0  0  0  0  0  0
  2  1  1  0
  3  2  2  0
  4  2  1  0
  5  4  1  0
  6  5  1  0
  7  6  1  0
  8  7  1  0
  8  9  1  1
 10  8  1  0
 10 15  1  0
 11 10  2  0
 12 13  1  0
 14 13  1  6
 14 15  1  0
 14 16  1  0
 16 18  1  0
 16 17  2  0
 18 19  1  0
 19 20  1  1
 19 26  1  0
 21 22  2  0
 21 20  1  0
 23 22  1  0
 24 25  2  0
 24 23  1  0
 25 21  1  0
 26 27  1  0
 28 26  2  0
M  END
$$$$
