RSH.pdb
     RDKit          3D

 28 28  0  0  1  0  0  0  0  0999 V2000
    8.1505  -12.3830   16.0969 N   0  0  0  0  0  0  0  0  0  0  0  0
    7.7604  -13.7093   15.7972 C   0  0  0  0  0  0  0  0  0  0  0  0
    7.9567  -14.2092   14.6114 N   0  0  0  0  0  0  0  0  0  0  0  0
    7.1438  -14.4914   16.8283 N   0  0  0  0  0  0  0  0  0  0  0  0
    7.9870  -15.3549   17.6323 C   0  0  0  0  0  0  0  0  0  0  0  0
    7.4710  -15.2835   19.0494 C   0  0  0  0  0  0  0  0  0  0  0  0
    8.1539  -14.1989   19.8569 C   0  0  0  0  0  0  0  0  0  0  0  0
    9.2558  -14.9009   20.6562 C   0  0  2  0  0  0  0  0  0  0  0  0
    9.6218  -16.0789   19.9323 N   0  0  0  0  0  0  0  0  0  0  0  0
    8.7025  -15.2010   22.0011 C   0  0  0  0  0  0  0  0  0  0  0  0
    8.2558  -14.3025   22.7575 O   0  0  0  0  0  0  0  0  0  0  0  0
    7.6824  -15.1866   14.4355 O   0  0  0  0  0  0  0  0  0  0  0  0
    8.0671  -19.1159   23.2034 C   0  0  0  0  0  0  0  0  0  0  0  0
    7.3867  -18.0628   23.8114 C   0  0  1  0  0  0  0  0  0  0  0  0
    8.3092  -16.8574   23.8537 N   0  0  0  0  0  0  0  0  0  0  0  0
    8.6569  -16.5339   22.4895 C   0  0  0  0  0  0  0  0  0  0  0  0
    9.5852  -17.2123   24.5720 O   0  0  0  0  0  0  0  0  0  0  0  0
   10.5618  -17.5782   23.8880 N   0  0  0  0  0  0  0  0  0  0  0  0
    9.6920  -17.1400   25.9643 C   0  0  1  0  0  0  0  0  0  0  0  0
   10.7580  -17.5290   26.7745 C   0  0  0  0  0  0  0  0  0  0  0  0
   10.8688  -16.9483   28.1649 C   0  0  0  0  0  0  0  0  0  0  0  0
   10.4455  -15.5540   28.2896 C   0  0  0  0  0  0  0  0  0  0  0  0
   10.0274  -14.6121   27.3536 N   0  0  0  0  0  0  0  0  0  0  0  0
    9.7957  -13.4341   27.9552 C   0  0  0  0  0  0  0  0  0  0  0  0
   10.0612  -13.6245   29.2458 N   0  0  0  0  0  0  0  0  0  0  0  0
   10.4460  -14.8718   29.4575 C   0  0  0  0  0  0  0  0  0  0  0  0
   11.0442  -18.9620   26.8255 O   0  0  0  0  0  0  0  0  0  0  0  0
   10.2698  -19.9383   26.2254 O   0  0  0  0  0  0  0  0  0  0  0  0
  2  1  1  0
  3  2  2  0
  4  2  1  0
  5  4  1  0
  6  5  1  0
  7  6  1  0
  8  7  1  0
  8  9  1  6
 10  8  1  0
 10 15  1  0
 11 10  2  0
 12 13  1  0
 14 13  1  6
 14 15  1  0
 14 16  1  0
 16 18  1  0
 16 17  2  0
 18 19  1  0
 19 20  1  1
 19 26  1  0
 21 22  2  0
 21 20  1  0
 23 22  1  0
 24 25  2  0
 24 23  1  0
 25 21  1  0
 26 27  1  0
 28 26  2  0
M  END
$$$$
