RSH.pdb
     RDKit          3D

 28 28  0  0  1  0  0  0  0  0999 V2000
    6.5946  -13.1385   15.1774 N   0  0  0  0  0  0  0  0  0  0  0  0
    8.0008  -13.0679   15.3137 C   0  0  0  0  0  0  0  0  0  0  0  0
    8.7578  -12.8166   14.2849 N   0  0  0  0  0  0  0  0  0  0  0  0
    8.5746  -13.2794   16.6104 N   0  0  0  0  0  0  0  0  0  0  0  0
    7.7453  -13.8768   17.6391 C   0  0  0  0  0  0  0  0  0  0  0  0
    8.5581  -13.8899   18.9114 C   0  0  0  0  0  0  0  0  0  0  0  0
    7.8209  -14.5493   20.0588 C   0  0  0  0  0  0  0  0  0  0  0  0
    8.3405  -15.9887   20.1202 C   0  0  2  0  0  0  0  0  0  0  0  0
    7.6441  -16.7355   19.1187 N   0  0  0  0  0  0  0  0  0  0  0  0
    8.0857  -16.4917   21.4939 C   0  0  0  0  0  0  0  0  0  0  0  0
    6.9846  -16.3232   22.0755 O   0  0  0  0  0  0  0  0  0  0  0  0
    9.7799  -12.8060   14.4142 O   0  0  0  0  0  0  0  0  0  0  0  0
    9.6832  -19.7796   22.6657 C   0  0  0  0  0  0  0  0  0  0  0  0
    8.6201  -19.2230   23.3741 C   0  0  1  0  0  0  0  0  0  0  0  0
    8.8773  -17.7349   23.5331 N   0  0  0  0  0  0  0  0  0  0  0  0
    9.0915  -17.1920   22.2117 C   0  0  0  0  0  0  0  0  0  0  0  0
   10.1420  -17.5137   24.3216 O   0  0  0  0  0  0  0  0  0  0  0  0
   11.2207  -17.4590   23.6982 N   0  0  0  0  0  0  0  0  0  0  0  0
   10.1280  -17.3714   25.7126 C   0  0  1  0  0  0  0  0  0  0  0  0
   11.2104  -17.2890   26.5876 C   0  0  0  0  0  0  0  0  0  0  0  0
   11.0947  -16.4116   27.8123 C   0  0  0  0  0  0  0  0  0  0  0  0
   10.3364  -15.1760   27.6198 C   0  0  0  0  0  0  0  0  0  0  0  0
    9.7684  -14.5885   26.4928 N   0  0  0  0  0  0  0  0  0  0  0  0
    9.2145  -13.4087   26.8162 C   0  0  0  0  0  0  0  0  0  0  0  0
    9.4267  -13.2509   28.1210 N   0  0  0  0  0  0  0  0  0  0  0  0
   10.0881  -14.2870   28.6085 C   0  0  0  0  0  0  0  0  0  0  0  0
   11.8421  -18.5545   26.9582 O   0  0  0  0  0  0  0  0  0  0  0  0
   13.0308  -18.6627   27.6569 O   0  0  0  0  0  0  0  0  0  0  0  0
  2  1  1  0
  3  2  2  0
  4  2  1  0
  5  4  1  0
  6  5  1  0
  7  6  1  0
  8  7  1  0
  8  9  1  6
 10  8  1  0
 10 15  1  0
 11 10  2  0
 12 13  1  0
 14 13  1  6
 14 15  1  0
 14 16  1  0
 16 18  1  0
 16 17  2  0
 18 19  1  0
 19 20  1  1
 19 26  1  0
 21 22  2  0
 21 20  1  0
 23 22  1  0
 24 25  2  0
 24 23  1  0
 25 21  1  0
 26 27  1  0
 28 26  2  0
M  END
$$$$
