RSH.pdb
     RDKit          3D

 28 28  0  0  1  0  0  0  0  0999 V2000
   11.2381  -22.0235   17.9663 N   0  0  0  0  0  0  0  0  0  0  0  0
   12.4182  -22.0543   18.7457 C   0  0  0  0  0  0  0  0  0  0  0  0
   13.5219  -22.5482   18.2636 N   0  0  0  0  0  0  0  0  0  0  0  0
   12.3722  -21.5294   20.0790 N   0  0  0  0  0  0  0  0  0  0  0  0
   11.1272  -20.9517   20.5469 C   0  0  0  0  0  0  0  0  0  0  0  0
   10.9975  -19.5941   19.8992 C   0  0  0  0  0  0  0  0  0  0  0  0
    9.7499  -18.8599   20.3456 C   0  0  0  0  0  0  0  0  0  0  0  0
    9.7421  -17.5370   19.5739 C   0  0  2  0  0  0  0  0  0  0  0  0
   10.8571  -17.5602   18.6784 N   0  0  0  0  0  0  0  0  0  0  0  0
    9.8299  -16.4424   20.5735 C   0  0  0  0  0  0  0  0  0  0  0  0
   10.9216  -15.9002   20.8790 O   0  0  0  0  0  0  0  0  0  0  0  0
   14.3753  -22.5058   18.8393 O   0  0  0  0  0  0  0  0  0  0  0  0
    6.3350  -14.9350   22.1555 C   0  0  0  0  0  0  0  0  0  0  0  0
    7.4191  -14.0744   21.9947 C   0  0  1  0  0  0  0  0  0  0  0  0
    8.6968  -14.8734   22.1812 N   0  0  0  0  0  0  0  0  0  0  0  0
    8.6666  -15.9608   21.2307 C   0  0  0  0  0  0  0  0  0  0  0  0
    8.7261  -15.4806   23.5598 O   0  0  0  0  0  0  0  0  0  0  0  0
    8.1227  -16.5571   23.7403 N   0  0  0  0  0  0  0  0  0  0  0  0
    9.4044  -14.8708   24.6196 C   0  0  2  0  0  0  0  0  0  0  0  0
    9.3367  -15.1692   25.9799 C   0  0  0  0  0  0  0  0  0  0  0  0
    8.0096  -15.0412   26.6908 C   0  0  0  0  0  0  0  0  0  0  0  0
    7.3611  -13.7366   26.5620 C   0  0  0  0  0  0  0  0  0  0  0  0
    7.7640  -12.4494   26.9063 N   0  0  0  0  0  0  0  0  0  0  0  0
    6.7839  -11.5713   26.6384 C   0  0  0  0  0  0  0  0  0  0  0  0
    5.7802  -12.2864   26.1349 N   0  0  0  0  0  0  0  0  0  0  0  0
    6.1073  -13.5666   26.0840 C   0  0  0  0  0  0  0  0  0  0  0  0
    9.9961  -16.4025   26.4067 O   0  0  0  0  0  0  0  0  0  0  0  0
   10.4267  -16.6559   27.6964 O   0  0  0  0  0  0  0  0  0  0  0  0
  2  1  1  0
  3  2  2  0
  4  2  1  0
  5  4  1  0
  6  5  1  0
  7  6  1  0
  8  7  1  0
  8  9  1  6
 10  8  1  0
 10 15  1  0
 11 10  2  0
 12 13  1  0
 14 13  1  6
 14 15  1  0
 14 16  1  0
 16 18  1  0
 16 17  2  0
 18 19  1  0
 19 20  1  6
 19 26  1  0
 21 22  2  0
 21 20  1  0
 23 22  1  0
 24 25  2  0
 24 23  1  0
 25 21  1  0
 26 27  1  0
 28 26  2  0
M  END
$$$$
