RSH.pdb
     RDKit          3D

 28 28  0  0  1  0  0  0  0  0999 V2000
   17.1420  -18.9877   12.1559 N   0  0  0  0  0  0  0  0  0  0  0  0
   17.2292  -18.7446   13.5467 C   0  0  0  0  0  0  0  0  0  0  0  0
   18.1780  -17.9984   14.0341 N   0  0  0  0  0  0  0  0  0  0  0  0
   16.2494  -19.3384   14.4085 N   0  0  0  0  0  0  0  0  0  0  0  0
   16.3111  -19.0405   15.8263 C   0  0  0  0  0  0  0  0  0  0  0  0
   15.2730  -17.9794   16.1018 C   0  0  0  0  0  0  0  0  0  0  0  0
   14.1127  -18.5078   16.9200 C   0  0  0  0  0  0  0  0  0  0  0  0
   13.0378  -17.4175   16.8777 C   0  0  2  0  0  0  0  0  0  0  0  0
   13.4813  -16.4183   15.9555 N   0  0  0  0  0  0  0  0  0  0  0  0
   12.8830  -16.8966   18.2596 C   0  0  0  0  0  0  0  0  0  0  0  0
   13.6687  -16.0456   18.7467 O   0  0  0  0  0  0  0  0  0  0  0  0
   18.2359  -17.8769   15.0555 O   0  0  0  0  0  0  0  0  0  0  0  0
    9.6191  -17.9267   19.8268 C   0  0  0  0  0  0  0  0  0  0  0  0
   10.2851  -17.3709   20.9173 C   0  0  2  0  0  0  0  0  0  0  0  0
   11.6454  -16.8838   20.4502 N   0  0  0  0  0  0  0  0  0  0  0  0
   11.8257  -17.3474   19.0940 C   0  0  0  0  0  0  0  0  0  0  0  0
   12.7302  -17.5090   21.2882 O   0  0  0  0  0  0  0  0  0  0  0  0
   13.5551  -18.2530   20.7211 N   0  0  0  0  0  0  0  0  0  0  0  0
   12.8269  -17.2746   22.6633 C   0  0  1  0  0  0  0  0  0  0  0  0
   13.9663  -17.0025   23.4195 C   0  0  0  0  0  0  0  0  0  0  0  0
   14.9197  -15.9309   22.9446 C   0  0  0  0  0  0  0  0  0  0  0  0
   16.1878  -16.4234   22.4080 C   0  0  0  0  0  0  0  0  0  0  0  0
   16.7106  -17.7052   22.2603 N   0  0  0  0  0  0  0  0  0  0  0  0
   17.9554  -17.6417   21.7605 C   0  0  0  0  0  0  0  0  0  0  0  0
   18.2169  -16.3469   21.5945 N   0  0  0  0  0  0  0  0  0  0  0  0
   17.1819  -15.6161   21.9728 C   0  0  0  0  0  0  0  0  0  0  0  0
   13.7700  -16.8693   24.8623 O   0  0  0  0  0  0  0  0  0  0  0  0
   14.7245  -17.1757   25.8153 O   0  0  0  0  0  0  0  0  0  0  0  0
  2  1  1  0
  3  2  2  0
  4  2  1  0
  5  4  1  0
  6  5  1  0
  7  6  1  0
  8  7  1  0
  8  9  1  6
 10  8  1  0
 10 15  1  0
 11 10  2  0
 12 13  1  0
 14 13  1  6
 14 15  1  0
 14 16  1  0
 16 18  1  0
 16 17  2  0
 18 19  1  0
 19 20  1  1
 19 26  1  0
 21 22  2  0
 21 20  1  0
 23 22  1  0
 24 25  2  0
 24 23  1  0
 25 21  1  0
 26 27  1  0
 28 26  2  0
M  END
$$$$
