RSH.pdb
     RDKit          3D

 28 28  0  0  1  0  0  0  0  0999 V2000
    8.6093  -12.5075   18.8296 N   0  0  0  0  0  0  0  0  0  0  0  0
    8.0190  -13.2044   17.7493 C   0  0  0  0  0  0  0  0  0  0  0  0
    8.1902  -12.8011   16.5235 N   0  0  0  0  0  0  0  0  0  0  0  0
    7.2277  -14.3655   18.0341 N   0  0  0  0  0  0  0  0  0  0  0  0
    7.4343  -15.0439   19.2989 C   0  0  0  0  0  0  0  0  0  0  0  0
    8.6990  -15.8575   19.1640 C   0  0  0  0  0  0  0  0  0  0  0  0
    9.0154  -16.6426   20.4204 C   0  0  0  0  0  0  0  0  0  0  0  0
   10.3471  -17.3492   20.1500 C   0  0  2  0  0  0  0  0  0  0  0  0
   10.1218  -18.2946   19.1007 N   0  0  0  0  0  0  0  0  0  0  0  0
   10.7724  -17.9901   21.4201 C   0  0  0  0  0  0  0  0  0  0  0  0
   10.0267  -18.7764   22.0563 O   0  0  0  0  0  0  0  0  0  0  0  0
    7.7829  -13.3581   15.7585 O   0  0  0  0  0  0  0  0  0  0  0  0
   13.9686  -16.4574   23.4253 C   0  0  0  0  0  0  0  0  0  0  0  0
   13.9315  -17.8502   23.4438 C   0  0  1  0  0  0  0  0  0  0  0  0
   12.4954  -18.2940   23.2284 N   0  0  0  0  0  0  0  0  0  0  0  0
   12.0564  -17.7346   21.9710 C   0  0  0  0  0  0  0  0  0  0  0  0
   11.6138  -17.7223   24.3082 O   0  0  0  0  0  0  0  0  0  0  0  0
   11.1960  -16.5555   24.1688 N   0  0  0  0  0  0  0  0  0  0  0  0
   11.2625  -18.4620   25.4416 C   0  0  1  0  0  0  0  0  0  0  0  0
   10.5225  -18.0529   26.5503 C   0  0  0  0  0  0  0  0  0  0  0  0
    9.0143  -18.0484   26.4609 C   0  0  0  0  0  0  0  0  0  0  0  0
    8.4570  -17.1661   25.4362 C   0  0  0  0  0  0  0  0  0  0  0  0
    8.9585  -16.0365   24.7955 N   0  0  0  0  0  0  0  0  0  0  0  0
    8.0370  -15.5325   23.9588 C   0  0  0  0  0  0  0  0  0  0  0  0
    6.9732  -16.3257   24.0663 N   0  0  0  0  0  0  0  0  0  0  0  0
    7.2072  -17.2945   24.9352 C   0  0  0  0  0  0  0  0  0  0  0  0
   10.9281  -18.6077   27.8409 O   0  0  0  0  0  0  0  0  0  0  0  0
   10.6479  -18.0299   29.0659 O   0  0  0  0  0  0  0  0  0  0  0  0
  2  1  1  0
  3  2  2  0
  4  2  1  0
  5  4  1  0
  6  5  1  0
  7  6  1  0
  8  7  1  0
  8  9  1  6
 10  8  1  0
 10 15  1  0
 11 10  2  0
 12 13  1  0
 14 13  1  6
 14 15  1  0
 14 16  1  0
 16 18  1  0
 16 17  2  0
 18 19  1  0
 19 20  1  1
 19 26  1  0
 21 22  2  0
 21 20  1  0
 23 22  1  0
 24 25  2  0
 24 23  1  0
 25 21  1  0
 26 27  1  0
 28 26  2  0
M  END
$$$$
