RSH.pdb
     RDKit          3D

 28 28  0  0  1  0  0  0  0  0999 V2000
    7.1526  -16.4072   12.0781 N   0  0  0  0  0  0  0  0  0  0  0  0
    6.8940  -17.7945   11.9800 C   0  0  0  0  0  0  0  0  0  0  0  0
    7.2816  -18.4721   10.9383 N   0  0  0  0  0  0  0  0  0  0  0  0
    6.1954  -18.4385   13.0536 N   0  0  0  0  0  0  0  0  0  0  0  0
    6.0190  -17.7081   14.2938 C   0  0  0  0  0  0  0  0  0  0  0  0
    7.3799  -17.5920   14.9373 C   0  0  0  0  0  0  0  0  0  0  0  0
    7.3155  -16.9524   16.3090 C   0  0  0  0  0  0  0  0  0  0  0  0
    7.8102  -15.5145   16.1257 C   0  0  2  0  0  0  0  0  0  0  0  0
    8.6228  -15.4908   14.9490 N   0  0  0  0  0  0  0  0  0  0  0  0
    8.5627  -15.1470   17.3519 C   0  0  0  0  0  0  0  0  0  0  0  0
    9.7962  -15.3561   17.4688 O   0  0  0  0  0  0  0  0  0  0  0  0
    7.0750  -19.4807   10.8998 O   0  0  0  0  0  0  0  0  0  0  0  0
    6.4981  -13.8688   20.6805 C   0  0  0  0  0  0  0  0  0  0  0  0
    7.6752  -13.1769   20.4023 C   0  0  1  0  0  0  0  0  0  0  0  0
    8.6068  -14.1034   19.6410 N   0  0  0  0  0  0  0  0  0  0  0  0
    7.9067  -14.5367   18.4540 C   0  0  0  0  0  0  0  0  0  0  0  0
    8.8978  -15.3303   20.4657 O   0  0  0  0  0  0  0  0  0  0  0  0
    8.2245  -16.3573   20.2482 N   0  0  0  0  0  0  0  0  0  0  0  0
    9.8897  -15.3378   21.4512 C   0  0  1  0  0  0  0  0  0  0  0  0
   10.2483  -16.3727   22.3140 C   0  0  0  0  0  0  0  0  0  0  0  0
   11.5479  -17.1055   22.0758 C   0  0  0  0  0  0  0  0  0  0  0  0
   11.6741  -17.7313   20.7600 C   0  0  0  0  0  0  0  0  0  0  0  0
   10.7935  -17.8507   19.6884 N   0  0  0  0  0  0  0  0  0  0  0  0
   11.3568  -18.5721   18.7057 C   0  0  0  0  0  0  0  0  0  0  0  0
   12.5692  -18.9034   19.1445 N   0  0  0  0  0  0  0  0  0  0  0  0
   12.7700  -18.4135   20.3562 C   0  0  0  0  0  0  0  0  0  0  0  0
   10.0999  -16.1052   23.7439 O   0  0  0  0  0  0  0  0  0  0  0  0
   10.3053  -17.0402   24.7422 O   0  0  0  0  0  0  0  0  0  0  0  0
  2  1  1  0
  3  2  2  0
  4  2  1  0
  5  4  1  0
  6  5  1  0
  7  6  1  0
  8  7  1  0
  8  9  1  6
 10  8  1  0
 10 15  1  0
 11 10  2  0
 12 13  1  0
 14 13  1  6
 14 15  1  0
 14 16  1  0
 16 18  1  0
 16 17  2  0
 18 19  1  0
 19 20  1  1
 19 26  1  0
 21 22  2  0
 21 20  1  0
 23 22  1  0
 24 25  2  0
 24 23  1  0
 25 21  1  0
 26 27  1  0
 28 26  2  0
M  END
$$$$
