KPL.pdb
     RDKit          3D

 25 25  0  0  1  0  0  0  0  0999 V2000
    9.5030  -18.2584   19.1808 N   0  0  0  0  0  0  0  0  0  0  0  0
    9.5025  -18.7912   20.5423 C   0  0  1  0  0  0  0  0  0  0  0  0
   10.9087  -18.7750   21.0342 C   0  0  0  0  0  0  0  0  0  0  0  0
   11.9607  -18.3111   20.1042 C   0  0  0  0  0  0  0  0  0  0  0  0
   13.3693  -18.4108   20.6047 C   0  0  0  0  0  0  0  0  0  0  0  0
   14.3084  -17.8312   19.5375 C   0  0  0  0  0  0  0  0  0  0  0  0
   15.6500  -17.8871   20.0848 N   0  0  0  0  0  0  0  0  0  0  0  0
    8.5639  -18.0128   21.3807 C   0  0  0  0  0  0  0  0  0  0  0  0
    8.2185  -16.8735   20.9181 O   0  0  0  0  0  0  0  0  0  0  0  0
    8.0788  -18.4954   22.6087 N   0  0  0  0  0  0  0  0  0  0  0  0
    8.5096  -19.7908   23.1547 C   0  0  0  0  0  0  0  0  0  0  0  0
    7.2512  -20.3339   23.7642 C   0  0  0  0  0  0  0  0  0  0  0  0
    6.6667  -19.0920   24.4121 C   0  0  0  0  0  0  0  0  0  0  0  0
    7.1593  -17.9499   23.5553 C   0  0  1  0  0  0  0  0  0  0  0  0
    7.7400  -16.8512   24.3636 C   0  0  0  0  0  0  0  0  0  0  0  0
    8.9710  -16.8882   24.6188 O   0  0  0  0  0  0  0  0  0  0  0  0
    7.8732  -11.4810   25.8931 C   0  0  0  0  0  0  0  0  0  0  0  0
    6.9490  -12.4269   26.7055 C   0  0  1  0  0  0  0  0  0  0  0  0
    5.7683  -11.5540   27.0587 C   0  0  0  0  0  0  0  0  0  0  0  0
    6.6553  -13.5804   25.8259 C   0  0  0  0  0  0  0  0  0  0  0  0
    7.6202  -14.6870   25.6974 C   0  0  2  0  0  0  0  0  0  0  0  0
    6.9890  -15.7662   24.8626 N   0  0  0  0  0  0  0  0  0  0  0  0
    8.1812  -15.2969   26.8734 C   0  0  0  0  0  0  0  0  0  0  0  0
    7.6455  -16.3592   27.5389 O   0  0  0  0  0  0  0  0  0  0  0  0
    9.2703  -14.8237   27.3658 O   0  0  0  0  0  0  0  0  0  0  0  0
  2  1  1  6
  2  8  1  0
  2  3  1  0
  3  4  1  0
  4  5  1  0
  5  6  1  0
  6  7  1  0
  8 10  1  0
  9  8  2  0
 10 14  1  0
 10 11  1  0
 12 11  1  0
 13 12  1  0
 13 14  1  0
 14 15  1  1
 15 22  1  0
 15 16  2  0
 18 17  1  6
 18 20  1  0
 19 18  1  0
 21 23  1  0
 21 20  1  1
 22 21  1  0
 23 24  1  0
 25 23  2  0
M  END
$$$$
