KPL.pdb
     RDKit          3D

 25 25  0  0  1  0  0  0  0  0999 V2000
    8.1772  -19.0621   19.7821 N   0  0  0  0  0  0  0  0  0  0  0  0
    7.7882  -18.5063   21.0771 C   0  0  1  0  0  0  0  0  0  0  0  0
    7.9337  -19.5855   22.0940 C   0  0  0  0  0  0  0  0  0  0  0  0
    7.7191  -19.2306   23.5134 C   0  0  0  0  0  0  0  0  0  0  0  0
    7.1469  -20.3104   24.3803 C   0  0  0  0  0  0  0  0  0  0  0  0
    6.9196  -19.7378   25.7864 C   0  0  0  0  0  0  0  0  0  0  0  0
    6.3888  -20.8164   26.5972 N   0  0  0  0  0  0  0  0  0  0  0  0
    8.5950  -17.2991   21.3628 C   0  0  0  0  0  0  0  0  0  0  0  0
    9.8479  -17.4915   21.5194 O   0  0  0  0  0  0  0  0  0  0  0  0
    8.0217  -16.0188   21.4542 N   0  0  0  0  0  0  0  0  0  0  0  0
    6.5647  -15.8251   21.4911 C   0  0  0  0  0  0  0  0  0  0  0  0
    6.3691  -14.5876   20.6662 C   0  0  0  0  0  0  0  0  0  0  0  0
    7.5295  -13.7264   21.1301 C   0  0  0  0  0  0  0  0  0  0  0  0
    8.5991  -14.7149   21.5301 C   0  0  1  0  0  0  0  0  0  0  0  0
    9.1755  -14.4107   22.8615 C   0  0  0  0  0  0  0  0  0  0  0  0
    9.8197  -13.3392   22.9991 O   0  0  0  0  0  0  0  0  0  0  0  0
    8.4324  -11.9208   26.9196 C   0  0  0  0  0  0  0  0  0  0  0  0
    7.3635  -12.9822   26.5460 C   0  0  1  0  0  0  0  0  0  0  0  0
    6.0928  -12.1767   26.4145 C   0  0  0  0  0  0  0  0  0  0  0  0
    7.8405  -13.6370   25.3073 C   0  0  0  0  0  0  0  0  0  0  0  0
    8.8551  -14.7042   25.3692 C   0  0  2  0  0  0  0  0  0  0  0  0
    9.0419  -15.2557   23.9832 N   0  0  0  0  0  0  0  0  0  0  0  0
    8.6873  -15.8091   26.2752 C   0  0  0  0  0  0  0  0  0  0  0  0
    9.3928  -15.9947   27.4267 O   0  0  0  0  0  0  0  0  0  0  0  0
    7.8157  -16.7144   26.0046 O   0  0  0  0  0  0  0  0  0  0  0  0
  2  1  1  6
  2  8  1  0
  2  3  1  0
  3  4  1  0
  4  5  1  0
  5  6  1  0
  6  7  1  0
  8 10  1  0
  9  8  2  0
 10 14  1  0
 10 11  1  0
 12 11  1  0
 13 12  1  0
 13 14  1  0
 14 15  1  1
 15 22  1  0
 15 16  2  0
 18 17  1  6
 18 20  1  0
 19 18  1  0
 21 23  1  0
 21 20  1  6
 22 21  1  0
 23 24  1  0
 25 23  2  0
M  END
$$$$
