KPL.pdb
     RDKit          3D

 25 25  0  0  1  0  0  0  0  0999 V2000
    8.3251  -17.5549   18.5835 N   0  0  0  0  0  0  0  0  0  0  0  0
    8.8191  -18.1290   19.8340 C   0  0  1  0  0  0  0  0  0  0  0  0
   10.2929  -17.9152   19.8781 C   0  0  0  0  0  0  0  0  0  0  0  0
   10.8011  -16.5510   19.6184 C   0  0  0  0  0  0  0  0  0  0  0  0
   12.2844  -16.3712   19.7301 C   0  0  0  0  0  0  0  0  0  0  0  0
   12.6240  -14.9088   19.4094 C   0  0  0  0  0  0  0  0  0  0  0  0
   13.9787  -14.6817   19.8738 N   0  0  0  0  0  0  0  0  0  0  0  0
    8.0914  -17.5333   20.9765 C   0  0  0  0  0  0  0  0  0  0  0  0
    7.5205  -16.4135   20.7496 O   0  0  0  0  0  0  0  0  0  0  0  0
    8.0280  -18.1595   22.2335 N   0  0  0  0  0  0  0  0  0  0  0  0
    8.8010  -19.3741   22.5319 C   0  0  0  0  0  0  0  0  0  0  0  0
    7.8541  -20.1768   23.3739 C   0  0  0  0  0  0  0  0  0  0  0  0
    7.2502  -19.1028   24.2602 C   0  0  0  0  0  0  0  0  0  0  0  0
    7.3021  -17.8469   23.4229 C   0  0  1  0  0  0  0  0  0  0  0  0
    7.8722  -16.6987   24.1673 C   0  0  0  0  0  0  0  0  0  0  0  0
    9.1120  -16.5000   24.0943 O   0  0  0  0  0  0  0  0  0  0  0  0
    5.5981  -11.5718   26.6095 C   0  0  0  0  0  0  0  0  0  0  0  0
    6.9379  -12.3524   26.5445 C   0  0  1  0  0  0  0  0  0  0  0  0
    7.3273  -12.5127   27.9948 C   0  0  0  0  0  0  0  0  0  0  0  0
    6.6548  -13.6072   25.8124 C   0  0  0  0  0  0  0  0  0  0  0  0
    7.7126  -14.6153   25.6203 C   0  0  2  0  0  0  0  0  0  0  0  0
    7.1018  -15.8161   24.9532 N   0  0  0  0  0  0  0  0  0  0  0  0
    8.4901  -15.0698   26.7422 C   0  0  0  0  0  0  0  0  0  0  0  0
    8.1494  -16.0989   27.5687 O   0  0  0  0  0  0  0  0  0  0  0  0
    9.5964  -14.4767   27.0192 O   0  0  0  0  0  0  0  0  0  0  0  0
  2  1  1  6
  2  8  1  0
  2  3  1  0
  3  4  1  0
  4  5  1  0
  5  6  1  0
  6  7  1  0
  8 10  1  0
  9  8  2  0
 10 14  1  0
 10 11  1  0
 12 11  1  0
 13 12  1  0
 13 14  1  0
 14 15  1  1
 15 22  1  0
 15 16  2  0
 18 17  1  1
 18 20  1  0
 19 18  1  0
 21 23  1  0
 21 20  1  1
 22 21  1  0
 23 24  1  0
 25 23  2  0
M  END
$$$$
