KPL.pdb
     RDKit          3D

 25 25  0  0  1  0  0  0  0  0999 V2000
    8.3096  -18.6528   19.4891 N   0  0  0  0  0  0  0  0  0  0  0  0
    7.5378  -17.5899   20.1311 C   0  0  1  0  0  0  0  0  0  0  0  0
    6.6324  -18.2278   21.1276 C   0  0  0  0  0  0  0  0  0  0  0  0
    7.2062  -19.2531   22.0255 C   0  0  0  0  0  0  0  0  0  0  0  0
    6.2576  -19.8700   23.0075 C   0  0  0  0  0  0  0  0  0  0  0  0
    7.0370  -20.8637   23.8803 C   0  0  0  0  0  0  0  0  0  0  0  0
    6.1072  -21.3702   24.8710 N   0  0  0  0  0  0  0  0  0  0  0  0
    8.4589  -16.5877   20.7115 C   0  0  0  0  0  0  0  0  0  0  0  0
    9.6195  -17.0164   21.0285 O   0  0  0  0  0  0  0  0  0  0  0  0
    8.0839  -15.2461   20.9010 N   0  0  0  0  0  0  0  0  0  0  0  0
    6.7011  -14.7929   20.6907 C   0  0  0  0  0  0  0  0  0  0  0  0
    6.8818  -13.4447   20.0583 C   0  0  0  0  0  0  0  0  0  0  0  0
    8.0331  -12.8800   20.8701 C   0  0  0  0  0  0  0  0  0  0  0  0
    8.8253  -14.0923   21.2987 C   0  0  1  0  0  0  0  0  0  0  0  0
    9.1402  -14.0741   22.7472 C   0  0  0  0  0  0  0  0  0  0  0  0
    9.8207  -13.1158   23.1952 O   0  0  0  0  0  0  0  0  0  0  0  0
    7.8509  -12.2265   27.0360 C   0  0  0  0  0  0  0  0  0  0  0  0
    6.8507  -13.2488   26.4331 C   0  0  1  0  0  0  0  0  0  0  0  0
    5.5573  -12.4737   26.3482 C   0  0  0  0  0  0  0  0  0  0  0  0
    7.4260  -13.6830   25.1403 C   0  0  0  0  0  0  0  0  0  0  0  0
    8.4319  -14.7591   25.0938 C   0  0  2  0  0  0  0  0  0  0  0  0
    8.7192  -15.0716   23.6517 N   0  0  0  0  0  0  0  0  0  0  0  0
    8.1969  -15.9985   25.7854 C   0  0  0  0  0  0  0  0  0  0  0  0
    7.5417  -17.0755   25.2668 O   0  0  0  0  0  0  0  0  0  0  0  0
    8.6197  -16.1327   26.9920 O   0  0  0  0  0  0  0  0  0  0  0  0
  2  1  1  1
  2  8  1  0
  2  3  1  0
  3  4  1  0
  4  5  1  0
  5  6  1  0
  6  7  1  0
  8 10  1  0
  9  8  2  0
 10 14  1  0
 10 11  1  0
 12 11  1  0
 13 12  1  0
 13 14  1  0
 14 15  1  1
 15 22  1  0
 15 16  2  0
 18 17  1  6
 18 20  1  0
 19 18  1  0
 21 23  1  0
 21 20  1  6
 22 21  1  0
 23 24  1  0
 25 23  2  0
M  END
$$$$
