KPL.pdb
     RDKit          3D

 25 25  0  0  1  0  0  0  0  0999 V2000
    9.2890  -18.2641   19.0286 N   0  0  0  0  0  0  0  0  0  0  0  0
    8.2967  -17.2552   19.3958 C   0  0  1  0  0  0  0  0  0  0  0  0
    7.0190  -17.9637   19.6880 C   0  0  0  0  0  0  0  0  0  0  0  0
    7.0217  -18.9771   20.7650 C   0  0  0  0  0  0  0  0  0  0  0  0
    5.7119  -19.6535   21.0325 C   0  0  0  0  0  0  0  0  0  0  0  0
    5.9303  -20.7341   22.1008 C   0  0  0  0  0  0  0  0  0  0  0  0
    4.6600  -20.9194   22.7751 N   0  0  0  0  0  0  0  0  0  0  0  0
    8.8057  -16.4445   20.5242 C   0  0  0  0  0  0  0  0  0  0  0  0
    9.7937  -16.9402   21.1642 O   0  0  0  0  0  0  0  0  0  0  0  0
    8.2411  -15.2047   20.8711 N   0  0  0  0  0  0  0  0  0  0  0  0
    7.0526  -14.6774   20.1847 C   0  0  0  0  0  0  0  0  0  0  0  0
    7.3448  -13.2093   20.0866 C   0  0  0  0  0  0  0  0  0  0  0  0
    7.9501  -12.9282   21.4498 C   0  0  0  0  0  0  0  0  0  0  0  0
    8.5994  -14.2310   21.8523 C   0  0  1  0  0  0  0  0  0  0  0  0
    8.2387  -14.6356   23.2321 C   0  0  0  0  0  0  0  0  0  0  0  0
    7.1981  -15.3228   23.3966 O   0  0  0  0  0  0  0  0  0  0  0  0
   10.8043  -14.0864   28.8127 C   0  0  0  0  0  0  0  0  0  0  0  0
    9.5064  -14.6079   28.1404 C   0  0  1  0  0  0  0  0  0  0  0  0
    8.4113  -13.8261   28.8263 C   0  0  0  0  0  0  0  0  0  0  0  0
    9.6599  -14.3614   26.6891 C   0  0  0  0  0  0  0  0  0  0  0  0
    8.5720  -14.7003   25.7543 C   0  0  2  0  0  0  0  0  0  0  0  0
    8.9972  -14.2931   24.3711 N   0  0  0  0  0  0  0  0  0  0  0  0
    7.2419  -14.2017   25.9821 C   0  0  0  0  0  0  0  0  0  0  0  0
    6.2614  -14.8612   26.6617 O   0  0  0  0  0  0  0  0  0  0  0  0
    6.9168  -13.0485   25.5164 O   0  0  0  0  0  0  0  0  0  0  0  0
  2  1  1  1
  2  8  1  0
  2  3  1  0
  3  4  1  0
  4  5  1  0
  5  6  1  0
  6  7  1  0
  8 10  1  0
  9  8  2  0
 10 14  1  0
 10 11  1  0
 12 11  1  0
 13 12  1  0
 13 14  1  0
 14 15  1  1
 15 22  1  0
 15 16  2  0
 18 17  1  1
 18 20  1  0
 19 18  1  0
 21 23  1  0
 21 20  1  1
 22 21  1  0
 23 24  1  0
 25 23  2  0
M  END
$$$$
