KPL.pdb
     RDKit          3D

 25 25  0  0  1  0  0  0  0  0999 V2000
    9.4314  -17.8991   18.2636 N   0  0  0  0  0  0  0  0  0  0  0  0
    8.3480  -17.1172   18.8573 C   0  0  1  0  0  0  0  0  0  0  0  0
    7.2884  -18.0703   19.2913 C   0  0  0  0  0  0  0  0  0  0  0  0
    7.6975  -19.2329   20.1085 C   0  0  0  0  0  0  0  0  0  0  0  0
    6.5866  -20.0970   20.6223 C   0  0  0  0  0  0  0  0  0  0  0  0
    6.9468  -21.5651   20.3541 C   0  0  0  0  0  0  0  0  0  0  0  0
    5.8419  -22.3644   20.8470 N   0  0  0  0  0  0  0  0  0  0  0  0
    8.8833  -16.2756   19.9504 C   0  0  0  0  0  0  0  0  0  0  0  0
    9.9535  -16.6982   20.5049 O   0  0  0  0  0  0  0  0  0  0  0  0
    8.2570  -15.0835   20.3540 N   0  0  0  0  0  0  0  0  0  0  0  0
    7.0024  -14.6235   19.7407 C   0  0  0  0  0  0  0  0  0  0  0  0
    7.1918  -13.1375   19.6621 C   0  0  0  0  0  0  0  0  0  0  0  0
    7.8470  -12.8434   20.9992 C   0  0  0  0  0  0  0  0  0  0  0  0
    8.6007  -14.1076   21.3382 C   0  0  1  0  0  0  0  0  0  0  0  0
    8.3394  -14.5627   22.7246 C   0  0  0  0  0  0  0  0  0  0  0  0
    7.2664  -15.1770   22.9558 O   0  0  0  0  0  0  0  0  0  0  0  0
    7.5208  -11.8847   27.1870 C   0  0  0  0  0  0  0  0  0  0  0  0
    6.7940  -13.0230   26.4222 C   0  0  1  0  0  0  0  0  0  0  0  0
    5.4005  -12.4792   26.2146 C   0  0  0  0  0  0  0  0  0  0  0  0
    7.5791  -13.2664   25.1913 C   0  0  0  0  0  0  0  0  0  0  0  0
    8.7333  -14.1826   25.2101 C   0  0  2  0  0  0  0  0  0  0  0  0
    9.2269  -14.3454   23.7995 N   0  0  0  0  0  0  0  0  0  0  0  0
    8.6089  -15.4898   25.7978 C   0  0  0  0  0  0  0  0  0  0  0  0
    9.1652  -15.8754   26.9810 O   0  0  0  0  0  0  0  0  0  0  0  0
    7.9310  -16.3918   25.1817 O   0  0  0  0  0  0  0  0  0  0  0  0
  2  1  1  1
  2  8  1  0
  2  3  1  0
  3  4  1  0
  4  5  1  0
  5  6  1  0
  6  7  1  0
  8 10  1  0
  9  8  2  0
 10 14  1  0
 10 11  1  0
 12 11  1  0
 13 12  1  0
 13 14  1  0
 14 15  1  1
 15 22  1  0
 15 16  2  0
 18 17  1  1
 18 20  1  0
 19 18  1  0
 21 23  1  0
 21 20  1  6
 22 21  1  0
 23 24  1  0
 25 23  2  0
M  END
$$$$
