KPL.pdb
     RDKit          3D

 25 25  0  0  1  0  0  0  0  0999 V2000
    9.1255  -17.0036   16.3714 N   0  0  0  0  0  0  0  0  0  0  0  0
    8.2433  -16.3386   17.3289 C   0  0  1  0  0  0  0  0  0  0  0  0
    7.2622  -17.3485   17.8161 C   0  0  0  0  0  0  0  0  0  0  0  0
    6.6811  -18.2806   16.8260 C   0  0  0  0  0  0  0  0  0  0  0  0
    6.9041  -19.7388   17.0882 C   0  0  0  0  0  0  0  0  0  0  0  0
    6.1199  -20.5475   16.0452 C   0  0  0  0  0  0  0  0  0  0  0  0
    6.5319  -21.9301   16.1906 N   0  0  0  0  0  0  0  0  0  0  0  0
    9.0514  -15.7196   18.4029 C   0  0  0  0  0  0  0  0  0  0  0  0
   10.2624  -16.1168   18.4872 O   0  0  0  0  0  0  0  0  0  0  0  0
    8.5232  -14.7525   19.2758 N   0  0  0  0  0  0  0  0  0  0  0  0
    7.1809  -14.1852   19.0798 C   0  0  0  0  0  0  0  0  0  0  0  0
    7.3672  -12.7444   19.4535 C   0  0  0  0  0  0  0  0  0  0  0  0
    8.2629  -12.8600   20.6733 C   0  0  0  0  0  0  0  0  0  0  0  0
    9.0539  -14.1261   20.4442 C   0  0  1  0  0  0  0  0  0  0  0  0
    9.0508  -15.0130   21.6320 C   0  0  0  0  0  0  0  0  0  0  0  0
    8.0807  -15.7991   21.7838 O   0  0  0  0  0  0  0  0  0  0  0  0
   13.5240  -17.4404   23.4188 C   0  0  0  0  0  0  0  0  0  0  0  0
   12.0537  -17.2606   22.9556 C   0  0  1  0  0  0  0  0  0  0  0  0
   11.5651  -18.6767   22.7638 C   0  0  0  0  0  0  0  0  0  0  0  0
   11.3738  -16.4841   24.0165 C   0  0  0  0  0  0  0  0  0  0  0  0
   10.0227  -15.9389   23.7942 C   0  0  2  0  0  0  0  0  0  0  0  0
   10.0753  -15.0250   22.6018 N   0  0  0  0  0  0  0  0  0  0  0  0
    9.3358  -15.2544   24.8569 C   0  0  0  0  0  0  0  0  0  0  0  0
    8.7833  -15.8539   25.9494 O   0  0  0  0  0  0  0  0  0  0  0  0
    9.2098  -13.9763   24.8004 O   0  0  0  0  0  0  0  0  0  0  0  0
  2  1  1  6
  2  8  1  0
  2  3  1  0
  3  4  1  0
  4  5  1  0
  5  6  1  0
  6  7  1  0
  8 10  1  0
  9  8  2  0
 10 14  1  0
 10 11  1  0
 12 11  1  0
 13 12  1  0
 13 14  1  0
 14 15  1  1
 15 22  1  0
 15 16  2  0
 18 17  1  1
 18 20  1  0
 19 18  1  0
 21 23  1  0
 21 20  1  1
 22 21  1  0
 23 24  1  0
 25 23  2  0
M  END
$$$$
