KPL.pdb
     RDKit          3D

 25 25  0  0  1  0  0  0  0  0999 V2000
    8.7702  -17.9906   18.2309 N   0  0  0  0  0  0  0  0  0  0  0  0
    7.7601  -17.3072   19.0373 C   0  0  1  0  0  0  0  0  0  0  0  0
    6.7845  -18.3323   19.5031 C   0  0  0  0  0  0  0  0  0  0  0  0
    5.7407  -17.9077   20.4607 C   0  0  0  0  0  0  0  0  0  0  0  0
    4.8003  -18.9784   20.9234 C   0  0  0  0  0  0  0  0  0  0  0  0
    3.8058  -18.3588   21.9152 C   0  0  0  0  0  0  0  0  0  0  0  0
    2.6338  -19.2126   21.9219 N   0  0  0  0  0  0  0  0  0  0  0  0
    8.4190  -16.5631   20.1336 C   0  0  0  0  0  0  0  0  0  0  0  0
    9.3231  -17.1994   20.7731 O   0  0  0  0  0  0  0  0  0  0  0  0
    8.0755  -15.2376   20.4522 N   0  0  0  0  0  0  0  0  0  0  0  0
    7.0517  -14.5014   19.6962 C   0  0  0  0  0  0  0  0  0  0  0  0
    7.6185  -13.1144   19.6255 C   0  0  0  0  0  0  0  0  0  0  0  0
    8.1794  -12.9436   21.0255 C   0  0  0  0  0  0  0  0  0  0  0  0
    8.5475  -14.3425   21.4598 C   0  0  1  0  0  0  0  0  0  0  0  0
    8.0321  -14.6648   22.8118 C   0  0  0  0  0  0  0  0  0  0  0  0
    6.7865  -14.6723   22.9865 O   0  0  0  0  0  0  0  0  0  0  0  0
    7.5259  -12.1969   27.1884 C   0  0  0  0  0  0  0  0  0  0  0  0
    6.6209  -13.2133   26.4423 C   0  0  1  0  0  0  0  0  0  0  0  0
    5.3358  -12.4511   26.2224 C   0  0  0  0  0  0  0  0  0  0  0  0
    7.3540  -13.6043   25.2174 C   0  0  0  0  0  0  0  0  0  0  0  0
    8.5320  -14.4860   25.3009 C   0  0  2  0  0  0  0  0  0  0  0  0
    8.8605  -14.9637   23.9139 N   0  0  0  0  0  0  0  0  0  0  0  0
    8.5211  -15.6253   26.1792 C   0  0  0  0  0  0  0  0  0  0  0  0
    8.1549  -16.8889   25.8223 O   0  0  0  0  0  0  0  0  0  0  0  0
    8.8732  -15.4738   27.4063 O   0  0  0  0  0  0  0  0  0  0  0  0
  2  1  1  1
  2  8  1  0
  2  3  1  0
  3  4  1  0
  4  5  1  0
  5  6  1  0
  6  7  1  0
  8 10  1  0
  9  8  2  0
 10 14  1  0
 10 11  1  0
 12 11  1  0
 13 12  1  0
 13 14  1  0
 14 15  1  1
 15 22  1  0
 15 16  2  0
 18 17  1  1
 18 20  1  0
 19 18  1  0
 21 23  1  0
 21 20  1  6
 22 21  1  0
 23 24  1  0
 25 23  2  0
M  END
$$$$
