KPL.pdb
     RDKit          3D

 25 25  0  0  1  0  0  0  0  0999 V2000
   11.7255  -16.5464   18.9309 N   0  0  0  0  0  0  0  0  0  0  0  0
   10.2947  -16.4914   19.2260 C   0  0  1  0  0  0  0  0  0  0  0  0
    9.8119  -17.8920   19.3846 C   0  0  0  0  0  0  0  0  0  0  0  0
    8.3529  -18.1132   19.4799 C   0  0  0  0  0  0  0  0  0  0  0  0
    7.9135  -19.5383   19.6243 C   0  0  0  0  0  0  0  0  0  0  0  0
    6.3805  -19.5709   19.6977 C   0  0  0  0  0  0  0  0  0  0  0  0
    5.9903  -20.9675   19.6905 N   0  0  0  0  0  0  0  0  0  0  0  0
   10.0641  -15.6387   20.4132 C   0  0  0  0  0  0  0  0  0  0  0  0
   10.9882  -15.6507   21.2947 O   0  0  0  0  0  0  0  0  0  0  0  0
    8.9028  -14.8606   20.5631 N   0  0  0  0  0  0  0  0  0  0  0  0
    7.8340  -14.8647   19.5535 C   0  0  0  0  0  0  0  0  0  0  0  0
    7.3948  -13.4307   19.5232 C   0  0  0  0  0  0  0  0  0  0  0  0
    7.4091  -13.0772   20.9991 C   0  0  0  0  0  0  0  0  0  0  0  0
    8.4760  -13.9669   21.5918 C   0  0  1  0  0  0  0  0  0  0  0  0
    8.0097  -14.6659   22.8131 C   0  0  0  0  0  0  0  0  0  0  0  0
    7.6919  -15.8792   22.7182 O   0  0  0  0  0  0  0  0  0  0  0  0
    5.7527  -11.7712   26.7146 C   0  0  0  0  0  0  0  0  0  0  0  0
    7.0541  -12.4866   26.2635 C   0  0  1  0  0  0  0  0  0  0  0  0
    8.0585  -12.0996   27.3228 C   0  0  0  0  0  0  0  0  0  0  0  0
    6.7306  -13.9285   26.1806 C   0  0  0  0  0  0  0  0  0  0  0  0
    7.5105  -14.8202   25.3039 C   0  0  2  0  0  0  0  0  0  0  0  0
    7.9025  -14.0465   24.0760 N   0  0  0  0  0  0  0  0  0  0  0  0
    6.9622  -16.0826   24.8852 C   0  0  0  0  0  0  0  0  0  0  0  0
    6.4879  -16.3579   23.6373 O   0  0  0  0  0  0  0  0  0  0  0  0
    6.8938  -17.0476   25.7317 O   0  0  0  0  0  0  0  0  0  0  0  0
  2  1  1  1
  2  8  1  0
  2  3  1  0
  3  4  1  0
  4  5  1  0
  5  6  1  0
  6  7  1  0
  8 10  1  0
  9  8  2  0
 10 14  1  0
 10 11  1  0
 12 11  1  0
 13 12  1  0
 13 14  1  0
 14 15  1  1
 15 22  1  0
 15 16  2  0
 18 17  1  1
 18 20  1  0
 19 18  1  0
 21 23  1  0
 21 20  1  6
 22 21  1  0
 23 24  1  0
 25 23  2  0
M  END
$$$$
