KPL.pdb
     RDKit          3D

 25 25  0  0  1  0  0  0  0  0999 V2000
    9.0984  -18.1446   18.9555 N   0  0  0  0  0  0  0  0  0  0  0  0
    8.1122  -17.1864   19.4522 C   0  0  1  0  0  0  0  0  0  0  0  0
    6.9735  -17.9625   20.0183 C   0  0  0  0  0  0  0  0  0  0  0  0
    6.6678  -19.2785   19.4171 C   0  0  0  0  0  0  0  0  0  0  0  0
    5.4687  -19.9886   19.9676 C   0  0  0  0  0  0  0  0  0  0  0  0
    5.3080  -21.3223   19.2246 C   0  0  0  0  0  0  0  0  0  0  0  0
    4.2255  -22.0359   19.8739 N   0  0  0  0  0  0  0  0  0  0  0  0
    8.7538  -16.2690   20.4199 C   0  0  0  0  0  0  0  0  0  0  0  0
    9.7124  -16.7635   21.1039 O   0  0  0  0  0  0  0  0  0  0  0  0
    8.3384  -14.9352   20.5771 N   0  0  0  0  0  0  0  0  0  0  0  0
    7.3438  -14.3249   19.6827 C   0  0  0  0  0  0  0  0  0  0  0  0
    7.8611  -12.9277   19.5082 C   0  0  0  0  0  0  0  0  0  0  0  0
    8.3141  -12.5930   20.9176 C   0  0  0  0  0  0  0  0  0  0  0  0
    8.7032  -13.9237   21.5168 C   0  0  1  0  0  0  0  0  0  0  0  0
    8.1055  -14.1323   22.8572 C   0  0  0  0  0  0  0  0  0  0  0  0
    7.1094  -13.4347   23.1785 O   0  0  0  0  0  0  0  0  0  0  0  0
    5.6149  -12.6371   25.9424 C   0  0  0  0  0  0  0  0  0  0  0  0
    7.1222  -12.7715   25.5978 C   0  0  1  0  0  0  0  0  0  0  0  0
    7.7960  -11.8425   26.5795 C   0  0  0  0  0  0  0  0  0  0  0  0
    7.4560  -14.2067   25.7378 C   0  0  0  0  0  0  0  0  0  0  0  0
    8.7457  -14.7252   25.2480 C   0  0  2  0  0  0  0  0  0  0  0  0
    8.5914  -15.0697   23.7929 N   0  0  0  0  0  0  0  0  0  0  0  0
    9.3762  -15.8361   25.9098 C   0  0  0  0  0  0  0  0  0  0  0  0
    9.8386  -15.8270   27.1922 O   0  0  0  0  0  0  0  0  0  0  0  0
    9.5377  -16.9382   25.2681 O   0  0  0  0  0  0  0  0  0  0  0  0
  2  1  1  1
  2  8  1  0
  2  3  1  0
  3  4  1  0
  4  5  1  0
  5  6  1  0
  6  7  1  0
  8 10  1  0
  9  8  2  0
 10 14  1  0
 10 11  1  0
 12 11  1  0
 13 12  1  0
 13 14  1  0
 14 15  1  1
 15 22  1  0
 15 16  2  0
 18 17  1  1
 18 20  1  0
 19 18  1  0
 21 23  1  0
 21 20  1  1
 22 21  1  0
 23 24  1  0
 25 23  2  0
M  END
$$$$
