KPL.pdb
     RDKit          3D

 25 25  0  0  1  0  0  0  0  0999 V2000
    8.2591  -18.4874   19.4844 N   0  0  0  0  0  0  0  0  0  0  0  0
    7.5334  -17.4554   20.2231 C   0  0  1  0  0  0  0  0  0  0  0  0
    6.7009  -18.1380   21.2530 C   0  0  0  0  0  0  0  0  0  0  0  0
    7.3837  -19.0364   22.2088 C   0  0  0  0  0  0  0  0  0  0  0  0
    6.5095  -19.6863   23.2374 C   0  0  0  0  0  0  0  0  0  0  0  0
    7.4036  -20.4425   24.2301 C   0  0  0  0  0  0  0  0  0  0  0  0
    6.5280  -20.9981   25.2436 N   0  0  0  0  0  0  0  0  0  0  0  0
    8.4920  -16.4747   20.7791 C   0  0  0  0  0  0  0  0  0  0  0  0
    9.6659  -16.9178   21.0174 O   0  0  0  0  0  0  0  0  0  0  0  0
    8.1367  -15.1374   21.0279 N   0  0  0  0  0  0  0  0  0  0  0  0
    6.7870  -14.6299   20.7406 C   0  0  0  0  0  0  0  0  0  0  0  0
    7.0516  -13.2497   20.2161 C   0  0  0  0  0  0  0  0  0  0  0  0
    8.1478  -12.7738   21.1518 C   0  0  0  0  0  0  0  0  0  0  0  0
    8.8724  -14.0348   21.5591 C   0  0  1  0  0  0  0  0  0  0  0  0
    9.0703  -14.1201   23.0258 C   0  0  0  0  0  0  0  0  0  0  0  0
   10.0787  -13.5560   23.5228 O   0  0  0  0  0  0  0  0  0  0  0  0
    5.6675  -12.2901   26.3670 C   0  0  0  0  0  0  0  0  0  0  0  0
    7.0416  -12.6461   25.7395 C   0  0  1  0  0  0  0  0  0  0  0  0
    8.0007  -11.7005   26.4228 C   0  0  0  0  0  0  0  0  0  0  0  0
    7.2607  -14.0858   26.0036 C   0  0  0  0  0  0  0  0  0  0  0  0
    8.3948  -14.7950   25.3849 C   0  0  2  0  0  0  0  0  0  0  0  0
    8.1906  -14.7983   23.8955 N   0  0  0  0  0  0  0  0  0  0  0  0
    8.7222  -16.1337   25.7979 C   0  0  0  0  0  0  0  0  0  0  0  0
    9.2724  -16.4730   26.9980 O   0  0  0  0  0  0  0  0  0  0  0  0
    8.4966  -17.1105   24.9932 O   0  0  0  0  0  0  0  0  0  0  0  0
  2  1  1  1
  2  8  1  0
  2  3  1  0
  3  4  1  0
  4  5  1  0
  5  6  1  0
  6  7  1  0
  8 10  1  0
  9  8  2  0
 10 14  1  0
 10 11  1  0
 12 11  1  0
 13 12  1  0
 13 14  1  0
 14 15  1  1
 15 22  1  0
 15 16  2  0
 18 17  1  1
 18 20  1  0
 19 18  1  0
 21 23  1  0
 21 20  1  1
 22 21  1  0
 23 24  1  0
 25 23  2  0
M  END
$$$$
