KPL.pdb
     RDKit          3D

 25 25  0  0  1  0  0  0  0  0999 V2000
   11.2744  -16.8683   18.7113 N   0  0  0  0  0  0  0  0  0  0  0  0
    9.9502  -16.8787   19.3306 C   0  0  1  0  0  0  0  0  0  0  0  0
    9.5394  -18.3014   19.4949 C   0  0  0  0  0  0  0  0  0  0  0  0
    8.2885  -18.5783   20.2334 C   0  0  0  0  0  0  0  0  0  0  0  0
    7.9202  -20.0231   20.3813 C   0  0  0  0  0  0  0  0  0  0  0  0
    6.5257  -20.1083   21.0175 C   0  0  0  0  0  0  0  0  0  0  0  0
    5.9725  -21.3955   20.6438 N   0  0  0  0  0  0  0  0  0  0  0  0
    9.9874  -16.1142   20.5971 C   0  0  0  0  0  0  0  0  0  0  0  0
   11.0631  -16.2176   21.2779 O   0  0  0  0  0  0  0  0  0  0  0  0
    8.9090  -15.3206   21.0256 N   0  0  0  0  0  0  0  0  0  0  0  0
    7.7345  -15.0867   20.1726 C   0  0  0  0  0  0  0  0  0  0  0  0
    7.3977  -13.6517   20.4504 C   0  0  0  0  0  0  0  0  0  0  0  0
    7.6052  -13.5760   21.9521 C   0  0  0  0  0  0  0  0  0  0  0  0
    8.6667  -14.6108   22.2407 C   0  0  1  0  0  0  0  0  0  0  0  0
    8.2942  -15.4982   23.3683 C   0  0  0  0  0  0  0  0  0  0  0  0
    8.4770  -16.7356   23.2358 O   0  0  0  0  0  0  0  0  0  0  0  0
   10.6218  -15.5503   27.8853 C   0  0  0  0  0  0  0  0  0  0  0  0
    9.2538  -14.8445   28.0832 C   0  0  1  0  0  0  0  0  0  0  0  0
    9.5933  -13.6410   28.9302 C   0  0  0  0  0  0  0  0  0  0  0  0
    8.7356  -14.5512   26.7281 C   0  0  0  0  0  0  0  0  0  0  0  0
    8.1449  -15.6223   25.9059 C   0  0  2  0  0  0  0  0  0  0  0  0
    7.7461  -15.0325   24.5819 N   0  0  0  0  0  0  0  0  0  0  0  0
    7.0382  -16.3920   26.4082 C   0  0  0  0  0  0  0  0  0  0  0  0
    7.1326  -17.6326   26.9651 O   0  0  0  0  0  0  0  0  0  0  0  0
    5.8513  -15.9033   26.3364 O   0  0  0  0  0  0  0  0  0  0  0  0
  2  1  1  1
  2  8  1  0
  2  3  1  0
  3  4  1  0
  4  5  1  0
  5  6  1  0
  6  7  1  0
  8 10  1  0
  9  8  2  0
 10 14  1  0
 10 11  1  0
 12 11  1  0
 13 12  1  0
 13 14  1  0
 14 15  1  1
 15 22  1  0
 15 16  2  0
 18 17  1  6
 18 20  1  0
 19 18  1  0
 21 23  1  0
 21 20  1  1
 22 21  1  0
 23 24  1  0
 25 23  2  0
M  END
$$$$
