KPL.pdb
     RDKit          3D

 25 25  0  0  1  0  0  0  0  0999 V2000
    9.2495  -18.0956   18.5121 N   0  0  0  0  0  0  0  0  0  0  0  0
    8.2406  -17.1533   18.9932 C   0  0  1  0  0  0  0  0  0  0  0  0
    7.0553  -17.9439   19.4289 C   0  0  0  0  0  0  0  0  0  0  0  0
    7.2291  -19.3997   19.6222 C   0  0  0  0  0  0  0  0  0  0  0  0
    7.1008  -19.8943   21.0307 C   0  0  0  0  0  0  0  0  0  0  0  0
    7.2104  -21.4255   21.0217 C   0  0  0  0  0  0  0  0  0  0  0  0
    7.2511  -21.8508   22.4074 N   0  0  0  0  0  0  0  0  0  0  0  0
    8.8204  -16.3042   20.0574 C   0  0  0  0  0  0  0  0  0  0  0  0
    9.9288  -16.7065   20.5481 O   0  0  0  0  0  0  0  0  0  0  0  0
    8.1943  -15.1262   20.5010 N   0  0  0  0  0  0  0  0  0  0  0  0
    6.9123  -14.6742   19.9407 C   0  0  0  0  0  0  0  0  0  0  0  0
    7.0798  -13.1849   19.8769 C   0  0  0  0  0  0  0  0  0  0  0  0
    7.7799  -12.9011   21.1934 C   0  0  0  0  0  0  0  0  0  0  0  0
    8.5615  -14.1599   21.4861 C   0  0  1  0  0  0  0  0  0  0  0  0
    8.3570  -14.6380   22.8743 C   0  0  0  0  0  0  0  0  0  0  0  0
    7.2947  -15.2573   23.1388 O   0  0  0  0  0  0  0  0  0  0  0  0
    8.2148  -11.9062   27.4549 C   0  0  0  0  0  0  0  0  0  0  0  0
    7.1987  -12.7055   26.5962 C   0  0  1  0  0  0  0  0  0  0  0  0
    6.0410  -11.7494   26.4329 C   0  0  0  0  0  0  0  0  0  0  0  0
    7.9061  -13.0770   25.3503 C   0  0  0  0  0  0  0  0  0  0  0  0
    8.8469  -14.2114   25.3351 C   0  0  2  0  0  0  0  0  0  0  0  0
    9.2874  -14.4373   23.9156 N   0  0  0  0  0  0  0  0  0  0  0  0
    8.4595  -15.4791   25.8940 C   0  0  0  0  0  0  0  0  0  0  0  0
    8.3064  -16.6350   25.1879 O   0  0  0  0  0  0  0  0  0  0  0  0
    8.2256  -15.5626   27.1553 O   0  0  0  0  0  0  0  0  0  0  0  0
  2  1  1  1
  2  8  1  0
  2  3  1  0
  3  4  1  0
  4  5  1  0
  5  6  1  0
  6  7  1  0
  8 10  1  0
  9  8  2  0
 10 14  1  0
 10 11  1  0
 12 11  1  0
 13 12  1  0
 13 14  1  0
 14 15  1  1
 15 22  1  0
 15 16  2  0
 18 17  1  1
 18 20  1  0
 19 18  1  0
 21 23  1  0
 21 20  1  6
 22 21  1  0
 23 24  1  0
 25 23  2  0
M  END
$$$$
