KPL.pdb
     RDKit          3D

 25 25  0  0  1  0  0  0  0  0999 V2000
   11.9513  -16.9159   19.5009 N   0  0  0  0  0  0  0  0  0  0  0  0
   10.6647  -17.3152   20.0688 C   0  0  1  0  0  0  0  0  0  0  0  0
   10.8719  -18.5964   20.8004 C   0  0  0  0  0  0  0  0  0  0  0  0
   12.0552  -19.4100   20.4472 C   0  0  0  0  0  0  0  0  0  0  0  0
   13.0138  -19.6927   21.5635 C   0  0  0  0  0  0  0  0  0  0  0  0
   13.1624  -21.2140   21.7053 C   0  0  0  0  0  0  0  0  0  0  0  0
   14.0930  -21.4446   22.7931 N   0  0  0  0  0  0  0  0  0  0  0  0
   10.1321  -16.2216   20.9116 C   0  0  0  0  0  0  0  0  0  0  0  0
   10.9967  -15.4006   21.3694 O   0  0  0  0  0  0  0  0  0  0  0  0
    8.7605  -16.0903   21.1906 N   0  0  0  0  0  0  0  0  0  0  0  0
    7.7682  -17.0308   20.6497 C   0  0  0  0  0  0  0  0  0  0  0  0
    6.6051  -16.1414   20.3236 C   0  0  0  0  0  0  0  0  0  0  0  0
    6.5883  -15.2110   21.5226 C   0  0  0  0  0  0  0  0  0  0  0  0
    8.0290  -15.1441   21.9708 C   0  0  1  0  0  0  0  0  0  0  0  0
    8.1737  -15.3581   23.4305 C   0  0  0  0  0  0  0  0  0  0  0  0
    8.4664  -16.5124   23.8355 O   0  0  0  0  0  0  0  0  0  0  0  0
    5.5557  -12.6854   26.9249 C   0  0  0  0  0  0  0  0  0  0  0  0
    6.8239  -12.4616   26.0586 C   0  0  1  0  0  0  0  0  0  0  0  0
    7.1028  -10.9851   26.2105 C   0  0  0  0  0  0  0  0  0  0  0  0
    7.8617  -13.3703   26.5953 C   0  0  0  0  0  0  0  0  0  0  0  0
    8.2482  -14.5839   25.8538 C   0  0  2  0  0  0  0  0  0  0  0  0
    8.0016  -14.3394   24.3911 N   0  0  0  0  0  0  0  0  0  0  0  0
    7.6742  -15.8566   26.2011 C   0  0  0  0  0  0  0  0  0  0  0  0
    6.7117  -16.5054   25.4864 O   0  0  0  0  0  0  0  0  0  0  0  0
    8.0736  -16.4541   27.2669 O   0  0  0  0  0  0  0  0  0  0  0  0
  2  1  1  1
  2  8  1  0
  2  3  1  0
  3  4  1  0
  4  5  1  0
  5  6  1  0
  6  7  1  0
  8 10  1  0
  9  8  2  0
 10 14  1  0
 10 11  1  0
 12 11  1  0
 13 12  1  0
 13 14  1  0
 14 15  1  1
 15 22  1  0
 15 16  2  0
 18 17  1  1
 18 20  1  0
 19 18  1  0
 21 23  1  0
 21 20  1  1
 22 21  1  0
 23 24  1  0
 25 23  2  0
M  END
$$$$
