KPL.pdb
     RDKit          3D

 25 25  0  0  1  0  0  0  0  0999 V2000
    7.4855  -19.0573   19.6137 N   0  0  0  0  0  0  0  0  0  0  0  0
    8.1932  -19.2709   20.8751 C   0  0  1  0  0  0  0  0  0  0  0  0
    9.6077  -18.8474   20.6769 C   0  0  0  0  0  0  0  0  0  0  0  0
   10.5177  -19.7824   19.9806 C   0  0  0  0  0  0  0  0  0  0  0  0
   10.7248  -19.5295   18.5185 C   0  0  0  0  0  0  0  0  0  0  0  0
   11.6963  -20.5859   17.9737 C   0  0  0  0  0  0  0  0  0  0  0  0
   11.8125  -20.3524   16.5473 N   0  0  0  0  0  0  0  0  0  0  0  0
    7.4973  -18.5499   21.9640 C   0  0  0  0  0  0  0  0  0  0  0  0
    6.7951  -17.5450   21.6059 O   0  0  0  0  0  0  0  0  0  0  0  0
    7.5987  -18.9453   23.3093 N   0  0  0  0  0  0  0  0  0  0  0  0
    8.4013  -20.1086   23.7146 C   0  0  0  0  0  0  0  0  0  0  0  0
    7.5716  -20.7276   24.8002 C   0  0  0  0  0  0  0  0  0  0  0  0
    7.0924  -19.5003   25.5538 C   0  0  0  0  0  0  0  0  0  0  0  0
    7.0366  -18.4115   24.5085 C   0  0  1  0  0  0  0  0  0  0  0  0
    7.7027  -17.1660   24.9588 C   0  0  0  0  0  0  0  0  0  0  0  0
    8.9283  -17.0258   24.7135 O   0  0  0  0  0  0  0  0  0  0  0  0
    7.3207  -11.6398   25.6025 C   0  0  0  0  0  0  0  0  0  0  0  0
    7.1014  -12.5138   26.8661 C   0  0  1  0  0  0  0  0  0  0  0  0
    6.0469  -11.7604   27.6415 C   0  0  0  0  0  0  0  0  0  0  0  0
    6.7072  -13.8559   26.3822 C   0  0  0  0  0  0  0  0  0  0  0  0
    7.7322  -14.8408   25.9931 C   0  0  2  0  0  0  0  0  0  0  0  0
    7.0387  -16.1289   25.6471 N   0  0  0  0  0  0  0  0  0  0  0  0
    8.8214  -15.1405   26.8840 C   0  0  0  0  0  0  0  0  0  0  0  0
    8.8581  -16.1882   27.7552 O   0  0  0  0  0  0  0  0  0  0  0  0
    9.8553  -14.3766   26.8887 O   0  0  0  0  0  0  0  0  0  0  0  0
  2  1  1  6
  2  8  1  0
  2  3  1  0
  3  4  1  0
  4  5  1  0
  5  6  1  0
  6  7  1  0
  8 10  1  0
  9  8  2  0
 10 14  1  0
 10 11  1  0
 12 11  1  0
 13 12  1  0
 13 14  1  0
 14 15  1  1
 15 22  1  0
 15 16  2  0
 18 17  1  6
 18 20  1  0
 19 18  1  0
 21 23  1  0
 21 20  1  1
 22 21  1  0
 23 24  1  0
 25 23  2  0
M  END
$$$$
