QYA.pdb
     RDKit          3D

 27 27  0  0  1  0  0  0  0  0999 V2000
   17.8061   -9.9957  -21.4528 N   0  0  0  0  0  0  0  0  0  0  0  0
   17.5454   -9.2045  -20.2874 C   0  0  0  0  0  0  0  0  0  0  0  0
   18.0191   -8.0566  -20.2804 O   0  0  0  0  0  0  0  0  0  0  0  0
   16.7474   -9.8027  -19.2030 C   0  0  0  0  0  0  0  0  0  0  0  0
   17.3981   -9.7058  -17.8472 C   0  0  0  0  0  0  0  0  0  0  0  0
   18.6353  -10.5384  -17.6998 C   0  0  2  0  0  0  0  0  0  0  0  0
   18.2309  -11.9072  -17.4462 N   0  0  0  0  0  0  0  0  0  0  0  0
   19.4719   -9.9920  -16.6072 C   0  0  0  0  0  0  0  0  0  0  0  0
   19.1417  -10.2941  -15.4313 O   0  0  0  0  0  0  0  0  0  0  0  0
   23.6625  -14.6997  -16.2066 O   0  0  0  0  0  0  0  0  0  0  0  0
   23.4840  -13.3250  -16.1318 C   0  0  0  0  0  0  0  0  0  0  0  0
   23.0204  -12.6458  -17.2236 C   0  0  0  0  0  0  0  0  0  0  0  0
   22.8398  -11.2907  -17.1636 C   0  0  0  0  0  0  0  0  0  0  0  0
   23.1121  -10.5608  -16.0203 C   0  0  0  0  0  0  0  0  0  0  0  0
   22.8893   -9.1138  -16.0463 C   0  0  0  0  0  0  0  0  0  0  0  0
   21.4625   -8.7197  -15.7214 C   0  0  2  0  0  0  0  0  0  0  0  0
   20.5960   -9.1690  -16.7897 N   0  0  0  0  0  0  0  0  0  0  0  0
   21.4192   -7.2409  -15.6753 C   0  0  0  0  0  0  0  0  0  0  0  0
   21.5348   -6.6028  -16.7348 O   0  0  0  0  0  0  0  0  0  0  0  0
   23.5798  -11.2371  -14.9148 C   0  0  0  0  0  0  0  0  0  0  0  0
   23.7575  -12.5937  -14.9843 C   0  0  0  0  0  0  0  0  0  0  0  0
   19.7908   -4.6485  -13.9811 C   0  0  0  0  0  0  0  0  0  0  0  0
   21.1780   -5.1430  -14.3234 C   0  0  2  0  0  0  0  0  0  0  0  0
   21.2492   -6.5660  -14.4452 N   0  0  0  0  0  0  0  0  0  0  0  0
   22.0818   -4.6491  -13.2536 C   0  0  0  0  0  0  0  0  0  0  0  0
   22.5086   -3.3340  -13.1819 O   0  0  0  0  0  0  0  0  0  0  0  0
   22.4660   -5.4727  -12.3849 O   0  0  0  0  0  0  0  0  0  0  0  0
  1  2  1  0
  2  3  2  0
  4  2  1  0
  5  4  1  0
  6  5  1  0
  6  7  1  1
  8  9  2  0
  8  6  1  0
 10 11  1  0
 11 12  2  0
 12 13  1  0
 14 15  1  0
 14 13  2  0
 16 15  1  6
 16 17  1  0
 17  8  1  0
 18 16  1  0
 18 24  1  0
 19 18  2  0
 20 14  1  0
 21 20  2  0
 21 11  1  0
 23 25  1  0
 23 24  1  0
 23 22  1  1
 25 26  1  0
 27 25  2  0
M  END
$$$$
