QYA.pdb
     RDKit          3D

 27 27  0  0  1  0  0  0  0  0999 V2000
   27.5321  -23.0584  -17.5338 N   0  0  0  0  0  0  0  0  0  0  0  0
   28.2877  -22.8276  -16.3389 C   0  0  0  0  0  0  0  0  0  0  0  0
   29.4219  -23.3314  -16.2954 O   0  0  0  0  0  0  0  0  0  0  0  0
   27.6724  -22.0224  -15.2695 C   0  0  0  0  0  0  0  0  0  0  0  0
   26.2952  -21.5137  -15.6099 C   0  0  0  0  0  0  0  0  0  0  0  0
   25.2444  -21.8670  -14.6017 C   0  0  2  0  0  0  0  0  0  0  0  0
   25.1447  -23.3119  -14.5406 N   0  0  0  0  0  0  0  0  0  0  0  0
   23.9610  -21.2346  -14.9826 C   0  0  0  0  0  0  0  0  0  0  0  0
   23.2130  -21.8853  -15.7572 O   0  0  0  0  0  0  0  0  0  0  0  0
   17.8434  -23.0556  -11.9102 O   0  0  0  0  0  0  0  0  0  0  0  0
   18.7761  -22.1014  -12.2929 C   0  0  0  0  0  0  0  0  0  0  0  0
   18.3615  -20.9868  -12.9669 C   0  0  0  0  0  0  0  0  0  0  0  0
   19.2703  -20.0383  -13.3500 C   0  0  0  0  0  0  0  0  0  0  0  0
   20.6215  -20.1603  -13.0792 C   0  0  0  0  0  0  0  0  0  0  0  0
   21.5221  -19.0961  -13.5271 C   0  0  0  0  0  0  0  0  0  0  0  0
   22.2226  -19.4120  -14.8333 C   0  0  2  0  0  0  0  0  0  0  0  0
   23.5250  -19.9728  -14.5445 N   0  0  0  0  0  0  0  0  0  0  0  0
   22.4139  -18.1289  -15.5460 C   0  0  0  0  0  0  0  0  0  0  0  0
   23.1396  -17.2598  -15.0350 O   0  0  0  0  0  0  0  0  0  0  0  0
   21.0486  -21.2804  -12.4003 C   0  0  0  0  0  0  0  0  0  0  0  0
   20.1315  -22.2247  -12.0207 C   0  0  0  0  0  0  0  0  0  0  0  0
   22.0164  -16.9606  -19.0435 C   0  0  0  0  0  0  0  0  0  0  0  0
   21.9514  -16.7021  -17.5552 C   0  0  2  0  0  0  0  0  0  0  0  0
   21.7806  -17.8966  -16.7880 N   0  0  0  0  0  0  0  0  0  0  0  0
   20.8269  -15.7571  -17.3362 C   0  0  0  0  0  0  0  0  0  0  0  0
   19.7167  -16.0783  -16.5739 O   0  0  0  0  0  0  0  0  0  0  0  0
   20.9023  -14.6226  -17.8725 O   0  0  0  0  0  0  0  0  0  0  0  0
  1  2  1  0
  2  3  2  0
  4  2  1  0
  5  4  1  0
  6  5  1  0
  6  7  1  6
  8  9  2  0
  8  6  1  0
 10 11  1  0
 11 12  2  0
 12 13  1  0
 14 15  1  0
 14 13  2  0
 16 15  1  1
 16 17  1  0
 17  8  1  0
 18 16  1  0
 18 24  1  0
 19 18  2  0
 20 14  1  0
 21 20  2  0
 21 11  1  0
 23 25  1  0
 23 24  1  0
 23 22  1  6
 25 26  1  0
 27 25  2  0
M  END
$$$$
