QYA.pdb
     RDKit          3D

 27 27  0  0  1  0  0  0  0  0999 V2000
   13.5711   -0.1276  -13.1773 N   0  0  0  0  0  0  0  0  0  0  0  0
   13.6022   -1.5562  -13.2780 C   0  0  0  0  0  0  0  0  0  0  0  0
   13.2646   -2.0416  -14.3700 O   0  0  0  0  0  0  0  0  0  0  0  0
   14.0261   -2.3292  -12.0976 C   0  0  0  0  0  0  0  0  0  0  0  0
   14.3291   -1.4772  -10.8920 C   0  0  0  0  0  0  0  0  0  0  0  0
   14.9380   -2.2286   -9.7474 C   0  0  2  0  0  0  0  0  0  0  0  0
   13.9137   -3.0736   -9.1658 N   0  0  0  0  0  0  0  0  0  0  0  0
   15.4939   -1.2695   -8.7659 C   0  0  0  0  0  0  0  0  0  0  0  0
   14.7498   -0.9412   -7.8059 O   0  0  0  0  0  0  0  0  0  0  0  0
   20.1465    2.8413   -2.7841 O   0  0  0  0  0  0  0  0  0  0  0  0
   19.7105    2.0267   -3.8202 C   0  0  0  0  0  0  0  0  0  0  0  0
   18.4393    1.5249   -3.7929 C   0  0  0  0  0  0  0  0  0  0  0  0
   17.9967    0.7207   -4.8076 C   0  0  0  0  0  0  0  0  0  0  0  0
   18.7972    0.3853   -5.8849 C   0  0  0  0  0  0  0  0  0  0  0  0
   18.2403   -0.4814   -6.9255 C   0  0  0  0  0  0  0  0  0  0  0  0
   17.3061    0.2426   -7.8740 C   0  0  2  0  0  0  0  0  0  0  0  0
   16.7796   -0.7066   -8.8310 N   0  0  0  0  0  0  0  0  0  0  0  0
   18.1169    1.2422   -8.6050 C   0  0  0  0  0  0  0  0  0  0  0  0
   18.8918    0.8532   -9.4946 O   0  0  0  0  0  0  0  0  0  0  0  0
   20.0800    0.8865   -5.9209 C   0  0  0  0  0  0  0  0  0  0  0  0
   20.5145    1.6908   -4.9005 C   0  0  0  0  0  0  0  0  0  0  0  0
   20.2110    3.5215   -8.8967 C   0  0  0  0  0  0  0  0  0  0  0  0
   18.7079    3.6463   -9.0024 C   0  0  2  0  0  0  0  0  0  0  0  0
   18.0111    2.6171   -8.2952 N   0  0  0  0  0  0  0  0  0  0  0  0
   18.3796    3.6203  -10.4505 C   0  0  0  0  0  0  0  0  0  0  0  0
   18.9221    4.5147  -11.3575 O   0  0  0  0  0  0  0  0  0  0  0  0
   17.5737    2.7432  -10.8528 O   0  0  0  0  0  0  0  0  0  0  0  0
  1  2  1  0
  2  3  2  0
  4  2  1  0
  5  4  1  0
  6  5  1  0
  6  7  1  1
  8  9  2  0
  8  6  1  0
 10 11  1  0
 11 12  2  0
 12 13  1  0
 14 15  1  0
 14 13  2  0
 16 15  1  1
 16 17  1  0
 17  8  1  0
 18 16  1  0
 18 24  1  0
 19 18  2  0
 20 14  1  0
 21 20  2  0
 21 11  1  0
 23 25  1  0
 23 24  1  0
 23 22  1  6
 25 26  1  0
 27 25  2  0
M  END
$$$$
