QYA.pdb
     RDKit          3D

 27 27  0  0  1  0  0  0  0  0999 V2000
   28.6930  -23.0331  -19.2773 N   0  0  0  0  0  0  0  0  0  0  0  0
   29.5916  -21.9277  -19.1277 C   0  0  0  0  0  0  0  0  0  0  0  0
   30.2086  -21.5743  -20.1458 O   0  0  0  0  0  0  0  0  0  0  0  0
   29.7135  -21.3033  -17.7989 C   0  0  0  0  0  0  0  0  0  0  0  0
   28.7670  -21.8715  -16.7730 C   0  0  0  0  0  0  0  0  0  0  0  0
   27.3836  -21.2982  -16.8309 C   0  0  2  0  0  0  0  0  0  0  0  0
   27.4963  -19.8605  -16.9778 N   0  0  0  0  0  0  0  0  0  0  0  0
   26.6394  -21.6778  -15.6086 C   0  0  0  0  0  0  0  0  0  0  0  0
   26.4331  -22.9053  -15.4252 O   0  0  0  0  0  0  0  0  0  0  0  0
   22.7663  -21.3491   -7.6496 O   0  0  0  0  0  0  0  0  0  0  0  0
   23.4330  -21.0420   -8.8279 C   0  0  0  0  0  0  0  0  0  0  0  0
   24.7428  -21.4045   -8.9746 C   0  0  0  0  0  0  0  0  0  0  0  0
   25.4119  -21.1081  -10.1308 C   0  0  0  0  0  0  0  0  0  0  0  0
   24.8075  -20.4424  -11.1822 C   0  0  0  0  0  0  0  0  0  0  0  0
   25.6003  -20.1669  -12.3821 C   0  0  0  0  0  0  0  0  0  0  0  0
   25.3439  -21.1466  -13.5095 C   0  0  2  0  0  0  0  0  0  0  0  0
   26.1530  -20.7732  -14.6497 N   0  0  0  0  0  0  0  0  0  0  0  0
   23.9183  -21.0148  -13.8851 C   0  0  0  0  0  0  0  0  0  0  0  0
   23.5032  -19.9175  -14.2934 O   0  0  0  0  0  0  0  0  0  0  0  0
   23.4875  -20.0731  -11.0433 C   0  0  0  0  0  0  0  0  0  0  0  0
   22.8257  -20.3741   -9.8821 C   0  0  0  0  0  0  0  0  0  0  0  0
   21.1995  -23.3241  -14.8614 C   0  0  0  0  0  0  0  0  0  0  0  0
   21.6613  -22.0759  -14.1440 C   0  0  2  0  0  0  0  0  0  0  0  0
   23.0435  -22.1200  -13.7802 N   0  0  0  0  0  0  0  0  0  0  0  0
   20.7949  -21.9279  -12.9469 C   0  0  0  0  0  0  0  0  0  0  0  0
   19.5172  -21.3983  -13.0082 O   0  0  0  0  0  0  0  0  0  0  0  0
   21.2564  -22.3042  -11.8397 O   0  0  0  0  0  0  0  0  0  0  0  0
  1  2  1  0
  2  3  2  0
  4  2  1  0
  5  4  1  0
  6  5  1  0
  6  7  1  1
  8  9  2  0
  8  6  1  0
 10 11  1  0
 11 12  2  0
 12 13  1  0
 14 15  1  0
 14 13  2  0
 16 15  1  1
 16 17  1  0
 17  8  1  0
 18 16  1  0
 18 24  1  0
 19 18  2  0
 20 14  1  0
 21 20  2  0
 21 11  1  0
 23 25  1  0
 23 24  1  0
 23 22  1  1
 25 26  1  0
 27 25  2  0
M  END
$$$$
