QYA.pdb
     RDKit          3D

 27 27  0  0  1  0  0  0  0  0999 V2000
   16.8632  -14.3922  -14.2484 N   0  0  0  0  0  0  0  0  0  0  0  0
   17.0105  -14.8981  -15.5804 C   0  0  0  0  0  0  0  0  0  0  0  0
   16.5480  -16.0301  -15.7968 O   0  0  0  0  0  0  0  0  0  0  0  0
   17.6882  -14.0507  -16.5770 C   0  0  0  0  0  0  0  0  0  0  0  0
   18.1986  -12.7476  -16.0179 C   0  0  0  0  0  0  0  0  0  0  0  0
   19.0725  -11.9765  -16.9598 C   0  0  2  0  0  0  0  0  0  0  0  0
   20.2330  -12.7892  -17.2670 N   0  0  0  0  0  0  0  0  0  0  0  0
   19.4445  -10.6831  -16.3427 C   0  0  0  0  0  0  0  0  0  0  0  0
   19.2799  -10.5766  -15.0998 O   0  0  0  0  0  0  0  0  0  0  0  0
   23.8817   -2.9743  -15.6117 O   0  0  0  0  0  0  0  0  0  0  0  0
   23.3438   -4.2119  -15.9375 C   0  0  0  0  0  0  0  0  0  0  0  0
   24.1707   -5.2925  -16.0672 C   0  0  0  0  0  0  0  0  0  0  0  0
   23.6537   -6.5182  -16.3880 C   0  0  0  0  0  0  0  0  0  0  0  0
   22.2997   -6.7166  -16.5916 C   0  0  0  0  0  0  0  0  0  0  0  0
   21.8349   -8.0629  -16.9316 C   0  0  0  0  0  0  0  0  0  0  0  0
   20.4444   -8.3676  -16.4116 C   0  0  2  0  0  0  0  0  0  0  0  0
   19.9626   -9.5788  -17.0400 N   0  0  0  0  0  0  0  0  0  0  0  0
   19.5699   -7.2471  -16.8247 C   0  0  0  0  0  0  0  0  0  0  0  0
   19.3421   -7.0766  -18.0339 O   0  0  0  0  0  0  0  0  0  0  0  0
   21.4586   -5.6331  -16.4629 C   0  0  0  0  0  0  0  0  0  0  0  0
   21.9853   -4.4099  -16.1415 C   0  0  0  0  0  0  0  0  0  0  0  0
   17.0845   -5.0862  -15.0528 C   0  0  0  0  0  0  0  0  0  0  0  0
   18.0693   -5.3482  -16.1697 C   0  0  2  0  0  0  0  0  0  0  0  0
   19.0036   -6.3849  -15.8584 N   0  0  0  0  0  0  0  0  0  0  0  0
   18.7624   -4.0621  -16.4363 C   0  0  0  0  0  0  0  0  0  0  0  0
   18.1252   -2.9716  -17.0032 O   0  0  0  0  0  0  0  0  0  0  0  0
   19.9783   -3.9773  -16.1283 O   0  0  0  0  0  0  0  0  0  0  0  0
  1  2  1  0
  2  3  2  0
  4  2  1  0
  5  4  1  0
  6  5  1  0
  6  7  1  1
  8  9  2  0
  8  6  1  0
 10 11  1  0
 11 12  2  0
 12 13  1  0
 14 15  1  0
 14 13  2  0
 16 15  1  6
 16 17  1  0
 17  8  1  0
 18 16  1  0
 18 24  1  0
 19 18  2  0
 20 14  1  0
 21 20  2  0
 21 11  1  0
 23 25  1  0
 23 24  1  0
 23 22  1  1
 25 26  1  0
 27 25  2  0
M  END
$$$$
