QYA.pdb
     RDKit          3D

 27 27  0  0  1  0  0  0  0  0999 V2000
   27.3223  -20.2572  -19.2484 N   0  0  0  0  0  0  0  0  0  0  0  0
   27.8607  -21.4342  -19.8621 C   0  0  0  0  0  0  0  0  0  0  0  0
   28.8189  -21.2670  -20.6341 O   0  0  0  0  0  0  0  0  0  0  0  0
   27.2473  -22.7334  -19.5358 C   0  0  0  0  0  0  0  0  0  0  0  0
   26.2204  -22.6594  -18.4352 C   0  0  0  0  0  0  0  0  0  0  0  0
   26.8022  -22.6317  -17.0545 C   0  0  2  0  0  0  0  0  0  0  0  0
   27.3489  -23.9434  -16.7684 N   0  0  0  0  0  0  0  0  0  0  0  0
   25.7547  -22.2398  -16.0843 C   0  0  0  0  0  0  0  0  0  0  0  0
   25.1574  -23.1704  -15.4839 O   0  0  0  0  0  0  0  0  0  0  0  0
   27.9870  -21.4799   -9.4983 O   0  0  0  0  0  0  0  0  0  0  0  0
   27.2379  -20.9918  -10.5602 C   0  0  0  0  0  0  0  0  0  0  0  0
   27.8753  -20.5230  -11.6748 C   0  0  0  0  0  0  0  0  0  0  0  0
   27.1490  -20.0391  -12.7287 C   0  0  0  0  0  0  0  0  0  0  0  0
   25.7661  -20.0026  -12.7159 C   0  0  0  0  0  0  0  0  0  0  0  0
   25.0710  -19.4677  -13.8884 C   0  0  0  0  0  0  0  0  0  0  0  0
   24.4449  -20.5403  -14.7568 C   0  0  2  0  0  0  0  0  0  0  0  0
   25.3852  -20.9165  -15.7904 N   0  0  0  0  0  0  0  0  0  0  0  0
   23.2566  -19.9389  -15.4027 C   0  0  0  0  0  0  0  0  0  0  0  0
   23.4221  -19.0905  -16.2948 O   0  0  0  0  0  0  0  0  0  0  0  0
   25.1150  -20.4730  -11.5966 C   0  0  0  0  0  0  0  0  0  0  0  0
   25.8504  -20.9556  -10.5463 C   0  0  0  0  0  0  0  0  0  0  0  0
   19.6257  -20.7866  -15.6273 C   0  0  0  0  0  0  0  0  0  0  0  0
   20.7605  -19.7884  -15.5866 C   0  0  2  0  0  0  0  0  0  0  0  0
   21.9545  -20.3237  -15.0099 N   0  0  0  0  0  0  0  0  0  0  0  0
   20.2698  -18.6174  -14.8162 C   0  0  0  0  0  0  0  0  0  0  0  0
   19.4490  -17.6486  -15.3682 O   0  0  0  0  0  0  0  0  0  0  0  0
   20.6238  -18.5170  -13.6141 O   0  0  0  0  0  0  0  0  0  0  0  0
  1  2  1  0
  2  3  2  0
  4  2  1  0
  5  4  1  0
  6  5  1  0
  6  7  1  1
  8  9  2  0
  8  6  1  0
 10 11  1  0
 11 12  2  0
 12 13  1  0
 14 15  1  0
 14 13  2  0
 16 15  1  1
 16 17  1  0
 17  8  1  0
 18 16  1  0
 18 24  1  0
 19 18  2  0
 20 14  1  0
 21 20  2  0
 21 11  1  0
 23 25  1  0
 23 24  1  0
 23 22  1  1
 25 26  1  0
 27 25  2  0
M  END
$$$$
