QYA.pdb
     RDKit          3D

 27 27  0  0  1  0  0  0  0  0999 V2000
   19.1615   -9.7348  -21.8735 N   0  0  0  0  0  0  0  0  0  0  0  0
   19.4109  -11.0958  -21.5029 C   0  0  0  0  0  0  0  0  0  0  0  0
   18.9090  -11.9683  -22.2302 O   0  0  0  0  0  0  0  0  0  0  0  0
   20.2312  -11.3534  -20.3065 C   0  0  0  0  0  0  0  0  0  0  0  0
   20.6678  -10.1016  -19.5900 C   0  0  0  0  0  0  0  0  0  0  0  0
   22.0742  -10.1488  -19.0747 C   0  0  2  0  0  0  0  0  0  0  0  0
   22.4110  -11.5332  -18.8073 N   0  0  0  0  0  0  0  0  0  0  0  0
   22.1862   -9.3033  -17.8645 C   0  0  0  0  0  0  0  0  0  0  0  0
   21.7574   -9.7913  -16.7869 O   0  0  0  0  0  0  0  0  0  0  0  0
   27.7185  -11.1855  -15.8244 O   0  0  0  0  0  0  0  0  0  0  0  0
   26.8492  -10.1085  -15.9310 C   0  0  0  0  0  0  0  0  0  0  0  0
   26.7990   -9.3965  -17.0968 C   0  0  0  0  0  0  0  0  0  0  0  0
   25.9466   -8.3326  -17.2154 C   0  0  0  0  0  0  0  0  0  0  0  0
   25.1141   -7.9365  -16.1838 C   0  0  0  0  0  0  0  0  0  0  0  0
   24.2342   -6.7861  -16.3994 C   0  0  0  0  0  0  0  0  0  0  0  0
   22.7916   -7.1729  -16.6557 C   0  0  2  0  0  0  0  0  0  0  0  0
   22.7316   -8.0088  -17.8355 N   0  0  0  0  0  0  0  0  0  0  0  0
   22.0480   -5.9229  -16.9304 C   0  0  0  0  0  0  0  0  0  0  0  0
   22.1783   -5.3772  -18.0387 O   0  0  0  0  0  0  0  0  0  0  0  0
   25.1579   -8.6483  -15.0050 C   0  0  0  0  0  0  0  0  0  0  0  0
   26.0144   -9.7120  -14.8955 C   0  0  0  0  0  0  0  0  0  0  0  0
   19.0012   -4.2890  -15.7956 C   0  0  0  0  0  0  0  0  0  0  0  0
   20.4684   -4.1469  -16.1319 C   0  0  2  0  0  0  0  0  0  0  0  0
   21.2035   -5.3594  -15.9471 N   0  0  0  0  0  0  0  0  0  0  0  0
   20.9991   -3.0599  -15.2704 C   0  0  0  0  0  0  0  0  0  0  0  0
   20.6231   -1.7358  -15.4188 O   0  0  0  0  0  0  0  0  0  0  0  0
   21.8232   -3.3726  -14.3739 O   0  0  0  0  0  0  0  0  0  0  0  0
  1  2  1  0
  2  3  2  0
  4  2  1  0
  5  4  1  0
  6  5  1  0
  6  7  1  1
  8  9  2  0
  8  6  1  0
 10 11  1  0
 11 12  2  0
 12 13  1  0
 14 15  1  0
 14 13  2  0
 16 15  1  6
 16 17  1  0
 17  8  1  0
 18 16  1  0
 18 24  1  0
 19 18  2  0
 20 14  1  0
 21 20  2  0
 21 11  1  0
 23 25  1  0
 23 24  1  0
 23 22  1  1
 25 26  1  0
 27 25  2  0
M  END
$$$$
