QYA.pdb
     RDKit          3D

 27 27  0  0  1  0  0  0  0  0999 V2000
   27.4330  -18.2441  -17.2583 N   0  0  0  0  0  0  0  0  0  0  0  0
   27.0717  -18.9185  -18.4694 C   0  0  0  0  0  0  0  0  0  0  0  0
   27.5440  -18.4578  -19.5215 O   0  0  0  0  0  0  0  0  0  0  0  0
   26.1820  -20.0891  -18.3767 C   0  0  0  0  0  0  0  0  0  0  0  0
   25.8506  -20.4881  -16.9618 C   0  0  0  0  0  0  0  0  0  0  0  0
   26.9461  -21.2342  -16.2625 C   0  0  2  0  0  0  0  0  0  0  0  0
   27.1446  -22.4946  -16.9505 N   0  0  0  0  0  0  0  0  0  0  0  0
   26.5838  -21.4259  -14.8398 C   0  0  0  0  0  0  0  0  0  0  0  0
   25.8235  -22.3916  -14.5706 O   0  0  0  0  0  0  0  0  0  0  0  0
   26.1532  -20.1508   -6.0531 O   0  0  0  0  0  0  0  0  0  0  0  0
   26.4746  -20.0772   -7.4015 C   0  0  0  0  0  0  0  0  0  0  0  0
   27.3360  -20.9921   -7.9394 C   0  0  0  0  0  0  0  0  0  0  0  0
   27.6613  -20.9311   -9.2672 C   0  0  0  0  0  0  0  0  0  0  0  0
   27.1450  -19.9620  -10.1088 C   0  0  0  0  0  0  0  0  0  0  0  0
   27.5485  -19.9728  -11.5163 C   0  0  0  0  0  0  0  0  0  0  0  0
   26.6170  -20.7755  -12.4021 C   0  0  2  0  0  0  0  0  0  0  0  0
   27.0247  -20.6140  -13.7812 N   0  0  0  0  0  0  0  0  0  0  0  0
   25.2626  -20.1994  -12.2448 C   0  0  0  0  0  0  0  0  0  0  0  0
   25.0591  -19.0319  -12.6171 O   0  0  0  0  0  0  0  0  0  0  0  0
   26.2759  -19.0356   -9.5754 C   0  0  0  0  0  0  0  0  0  0  0  0
   25.9560  -19.1046   -8.2450 C   0  0  0  0  0  0  0  0  0  0  0  0
   21.8957  -21.2891  -12.4013 C   0  0  0  0  0  0  0  0  0  0  0  0
   22.8711  -20.5023  -11.5554 C   0  0  2  0  0  0  0  0  0  0  0  0
   24.2182  -20.9656  -11.6797 N   0  0  0  0  0  0  0  0  0  0  0  0
   22.3952  -20.6032  -10.1522 C   0  0  0  0  0  0  0  0  0  0  0  0
   21.1892  -20.0699   -9.7304 O   0  0  0  0  0  0  0  0  0  0  0  0
   23.1303  -21.2012   -9.3260 O   0  0  0  0  0  0  0  0  0  0  0  0
  1  2  1  0
  2  3  2  0
  4  2  1  0
  5  4  1  0
  6  5  1  0
  6  7  1  6
  8  9  2  0
  8  6  1  0
 10 11  1  0
 11 12  2  0
 12 13  1  0
 14 15  1  0
 14 13  2  0
 16 15  1  1
 16 17  1  0
 17  8  1  0
 18 16  1  0
 18 24  1  0
 19 18  2  0
 20 14  1  0
 21 20  2  0
 21 11  1  0
 23 25  1  0
 23 24  1  0
 23 22  1  6
 25 26  1  0
 27 25  2  0
M  END
$$$$
