QYA.pdb
     RDKit          3D

 27 27  0  0  1  0  0  0  0  0999 V2000
   19.0960  -13.7543  -20.1366 N   0  0  0  0  0  0  0  0  0  0  0  0
   19.4667  -12.7095  -21.0438 C   0  0  0  0  0  0  0  0  0  0  0  0
   19.5221  -13.0145  -22.2463 O   0  0  0  0  0  0  0  0  0  0  0  0
   19.7491  -11.3736  -20.4906 C   0  0  0  0  0  0  0  0  0  0  0  0
   19.5574  -11.2825  -18.9986 C   0  0  0  0  0  0  0  0  0  0  0  0
   19.8705   -9.9356  -18.4211 C   0  0  2  0  0  0  0  0  0  0  0  0
   21.3117   -9.7852  -18.3814 N   0  0  0  0  0  0  0  0  0  0  0  0
   19.2599   -9.8196  -17.0773 C   0  0  0  0  0  0  0  0  0  0  0  0
   19.8617  -10.3842  -16.1274 O   0  0  0  0  0  0  0  0  0  0  0  0
   22.6209   -5.8822  -13.5117 O   0  0  0  0  0  0  0  0  0  0  0  0
   21.3570   -6.2958  -13.9098 C   0  0  0  0  0  0  0  0  0  0  0  0
   20.6062   -7.0702  -13.0701 C   0  0  0  0  0  0  0  0  0  0  0  0
   19.3588   -7.4848  -13.4500 C   0  0  0  0  0  0  0  0  0  0  0  0
   18.8110   -7.1472  -14.6747 C   0  0  0  0  0  0  0  0  0  0  0  0
   17.4689   -7.6355  -14.9976 C   0  0  0  0  0  0  0  0  0  0  0  0
   17.4526   -9.0707  -15.4839 C   0  0  2  0  0  0  0  0  0  0  0  0
   18.0690   -9.1308  -16.7918 N   0  0  0  0  0  0  0  0  0  0  0  0
   16.0332   -9.4690  -15.6176 C   0  0  0  0  0  0  0  0  0  0  0  0
   15.3748   -9.0341  -16.5770 O   0  0  0  0  0  0  0  0  0  0  0  0
   19.5605   -6.3670  -15.5277 C   0  0  0  0  0  0  0  0  0  0  0  0
   20.8084   -5.9565  -15.1388 C   0  0  0  0  0  0  0  0  0  0  0  0
   13.8270  -11.9803  -13.8300 C   0  0  0  0  0  0  0  0  0  0  0  0
   14.1082  -10.8444  -14.7875 C   0  0  2  0  0  0  0  0  0  0  0  0
   15.4371  -10.3299  -14.6684 N   0  0  0  0  0  0  0  0  0  0  0  0
   13.0976   -9.7926  -14.5084 C   0  0  0  0  0  0  0  0  0  0  0  0
   11.8174   -9.8259  -15.0345 O   0  0  0  0  0  0  0  0  0  0  0  0
   13.4352   -8.8393  -13.7615 O   0  0  0  0  0  0  0  0  0  0  0  0
  1  2  1  0
  2  3  2  0
  4  2  1  0
  5  4  1  0
  6  5  1  0
  6  7  1  1
  8  9  2  0
  8  6  1  0
 10 11  1  0
 11 12  2  0
 12 13  1  0
 14 15  1  0
 14 13  2  0
 16 15  1  6
 16 17  1  0
 17  8  1  0
 18 16  1  0
 18 24  1  0
 19 18  2  0
 20 14  1  0
 21 20  2  0
 21 11  1  0
 23 25  1  0
 23 24  1  0
 23 22  1  1
 25 26  1  0
 27 25  2  0
M  END
$$$$
