QYA.pdb
     RDKit          3D

 27 27  0  0  1  0  0  0  0  0999 V2000
   18.5463  -14.5873  -18.4386 N   0  0  0  0  0  0  0  0  0  0  0  0
   19.9518  -14.4157  -18.6559 C   0  0  0  0  0  0  0  0  0  0  0  0
   20.6412  -15.4485  -18.6610 O   0  0  0  0  0  0  0  0  0  0  0  0
   20.4648  -13.0489  -18.8543 C   0  0  0  0  0  0  0  0  0  0  0  0
   19.4088  -11.9810  -18.7291 C   0  0  0  0  0  0  0  0  0  0  0  0
   19.9384  -10.5818  -18.8147 C   0  0  2  0  0  0  0  0  0  0  0  0
   21.2166  -10.5401  -18.1323 N   0  0  0  0  0  0  0  0  0  0  0  0
   18.9579   -9.6447  -18.2210 C   0  0  0  0  0  0  0  0  0  0  0  0
   17.8095   -9.6207  -18.7346 O   0  0  0  0  0  0  0  0  0  0  0  0
   14.6767  -12.6221  -14.1603 O   0  0  0  0  0  0  0  0  0  0  0  0
   15.5481  -11.5636  -14.3777 C   0  0  0  0  0  0  0  0  0  0  0  0
   15.0477  -10.3398  -14.7247 C   0  0  0  0  0  0  0  0  0  0  0  0
   15.8954   -9.2878  -14.9419 C   0  0  0  0  0  0  0  0  0  0  0  0
   17.2682   -9.4108  -14.8231 C   0  0  0  0  0  0  0  0  0  0  0  0
   18.0991   -8.2315  -15.0741 C   0  0  0  0  0  0  0  0  0  0  0  0
   18.2415   -7.8992  -16.5458 C   0  0  2  0  0  0  0  0  0  0  0  0
   19.2172   -8.7899  -17.1364 N   0  0  0  0  0  0  0  0  0  0  0  0
   18.7600   -6.5154  -16.6315 C   0  0  0  0  0  0  0  0  0  0  0  0
   19.9683   -6.3125  -16.4269 O   0  0  0  0  0  0  0  0  0  0  0  0
   17.7816  -10.6406  -14.4736 C   0  0  0  0  0  0  0  0  0  0  0  0
   16.9253  -11.6880  -14.2581 C   0  0  0  0  0  0  0  0  0  0  0  0
   17.2123   -3.1365  -17.4279 C   0  0  0  0  0  0  0  0  0  0  0  0
   18.2987   -4.0711  -16.9461 C   0  0  2  0  0  0  0  0  0  0  0  0
   17.8937   -5.4424  -16.9408 N   0  0  0  0  0  0  0  0  0  0  0  0
   18.6771   -3.6171  -15.5836 C   0  0  0  0  0  0  0  0  0  0  0  0
   18.6006   -4.4392  -14.4723 O   0  0  0  0  0  0  0  0  0  0  0  0
   19.0817   -2.4341  -15.4517 O   0  0  0  0  0  0  0  0  0  0  0  0
  1  2  1  0
  2  3  2  0
  4  2  1  0
  5  4  1  0
  6  5  1  0
  6  7  1  1
  8  9  2  0
  8  6  1  0
 10 11  1  0
 11 12  2  0
 12 13  1  0
 14 15  1  0
 14 13  2  0
 16 15  1  1
 16 17  1  0
 17  8  1  0
 18 16  1  0
 18 24  1  0
 19 18  2  0
 20 14  1  0
 21 20  2  0
 21 11  1  0
 23 25  1  0
 23 24  1  0
 23 22  1  1
 25 26  1  0
 27 25  2  0
M  END
$$$$
