QYA.pdb
     RDKit          3D

 27 27  0  0  1  0  0  0  0  0999 V2000
   22.8088  -20.7230  -14.7254 N   0  0  0  0  0  0  0  0  0  0  0  0
   21.4184  -20.9745  -14.4901 C   0  0  0  0  0  0  0  0  0  0  0  0
   21.0852  -22.1637  -14.3606 O   0  0  0  0  0  0  0  0  0  0  0  0
   20.5036  -19.8217  -14.4200 C   0  0  0  0  0  0  0  0  0  0  0  0
   21.1951  -18.4898  -14.5576 C   0  0  0  0  0  0  0  0  0  0  0  0
   20.5530  -17.5647  -15.5462 C   0  0  2  0  0  0  0  0  0  0  0  0
   20.6929  -18.1469  -16.8664 N   0  0  0  0  0  0  0  0  0  0  0  0
   21.1846  -16.2286  -15.4557 C   0  0  0  0  0  0  0  0  0  0  0  0
   21.1726  -15.6680  -14.3293 O   0  0  0  0  0  0  0  0  0  0  0  0
   27.0615  -18.4501  -14.7304 O   0  0  0  0  0  0  0  0  0  0  0  0
   26.2811  -17.4366  -15.2696 C   0  0  0  0  0  0  0  0  0  0  0  0
   25.6394  -17.6411  -16.4591 C   0  0  0  0  0  0  0  0  0  0  0  0
   24.8670  -16.6506  -17.0018 C   0  0  0  0  0  0  0  0  0  0  0  0
   24.7030  -15.4227  -16.3857 C   0  0  0  0  0  0  0  0  0  0  0  0
   23.8578  -14.4213  -17.0390 C   0  0  0  0  0  0  0  0  0  0  0  0
   22.4866  -14.2882  -16.4075 C   0  0  2  0  0  0  0  0  0  0  0  0
   21.7894  -15.5507  -16.5275 N   0  0  0  0  0  0  0  0  0  0  0  0
   21.7460  -13.2697  -17.1854 C   0  0  0  0  0  0  0  0  0  0  0  0
   21.2735  -13.5838  -18.2905 O   0  0  0  0  0  0  0  0  0  0  0  0
   25.3460  -15.2075  -15.1865 C   0  0  0  0  0  0  0  0  0  0  0  0
   26.1172  -16.2051  -14.6507 C   0  0  0  0  0  0  0  0  0  0  0  0
   20.5973   -9.7196  -16.5035 C   0  0  0  0  0  0  0  0  0  0  0  0
   20.8819  -10.9235  -17.3728 C   0  0  2  0  0  0  0  0  0  0  0  0
   21.5797  -11.9609  -16.6788 N   0  0  0  0  0  0  0  0  0  0  0  0
   21.6655  -10.4332  -18.5352 C   0  0  0  0  0  0  0  0  0  0  0  0
   22.9633  -10.8427  -18.7897 O   0  0  0  0  0  0  0  0  0  0  0  0
   21.1121   -9.6127  -19.3105 O   0  0  0  0  0  0  0  0  0  0  0  0
  1  2  1  0
  2  3  2  0
  4  2  1  0
  5  4  1  0
  6  5  1  0
  6  7  1  6
  8  9  2  0
  8  6  1  0
 10 11  1  0
 11 12  2  0
 12 13  1  0
 14 15  1  0
 14 13  2  0
 16 15  1  6
 16 17  1  0
 17  8  1  0
 18 16  1  0
 18 24  1  0
 19 18  2  0
 20 14  1  0
 21 20  2  0
 21 11  1  0
 23 25  1  0
 23 24  1  0
 23 22  1  1
 25 26  1  0
 27 25  2  0
M  END
$$$$
