QYA.pdb
     RDKit          3D

 27 27  0  0  1  0  0  0  0  0999 V2000
   26.0000  -20.2400  -19.9564 N   0  0  0  0  0  0  0  0  0  0  0  0
   27.3810  -20.5272  -20.2055 C   0  0  0  0  0  0  0  0  0  0  0  0
   27.7529  -20.4726  -21.3891 O   0  0  0  0  0  0  0  0  0  0  0  0
   28.2421  -20.8597  -19.0573 C   0  0  0  0  0  0  0  0  0  0  0  0
   27.5374  -20.7786  -17.7276 C   0  0  0  0  0  0  0  0  0  0  0  0
   28.1718  -21.5994  -16.6462 C   0  0  2  0  0  0  0  0  0  0  0  0
   28.6436  -22.8366  -17.2362 N   0  0  0  0  0  0  0  0  0  0  0  0
   27.1892  -21.8361  -15.5642 C   0  0  0  0  0  0  0  0  0  0  0  0
   26.5106  -22.8934  -15.6322 O   0  0  0  0  0  0  0  0  0  0  0  0
   22.6913  -20.8426   -7.9805 O   0  0  0  0  0  0  0  0  0  0  0  0
   23.6318  -20.7679   -8.9988 C   0  0  0  0  0  0  0  0  0  0  0  0
   23.4050  -19.9444  -10.0659 C   0  0  0  0  0  0  0  0  0  0  0  0
   24.3238  -19.8612  -11.0765 C   0  0  0  0  0  0  0  0  0  0  0  0
   25.4994  -20.5905  -11.0658 C   0  0  0  0  0  0  0  0  0  0  0  0
   26.4253  -20.4389  -12.1899 C   0  0  0  0  0  0  0  0  0  0  0  0
   26.0106  -21.2216  -13.4196 C   0  0  2  0  0  0  0  0  0  0  0  0
   26.9642  -20.9723  -14.4791 N   0  0  0  0  0  0  0  0  0  0  0  0
   24.6927  -20.6985  -13.8446 C   0  0  0  0  0  0  0  0  0  0  0  0
   24.6134  -19.5271  -14.2505 O   0  0  0  0  0  0  0  0  0  0  0  0
   25.7365  -21.4233   -9.9941 C   0  0  0  0  0  0  0  0  0  0  0  0
   24.8109  -21.5001   -8.9870 C   0  0  0  0  0  0  0  0  0  0  0  0
   21.6735  -21.7455  -15.3613 C   0  0  0  0  0  0  0  0  0  0  0  0
   22.2292  -21.0687  -14.1288 C   0  0  2  0  0  0  0  0  0  0  0  0
   23.5432  -21.5189  -13.7890 N   0  0  0  0  0  0  0  0  0  0  0  0
   21.2686  -21.3343  -13.0278 C   0  0  0  0  0  0  0  0  0  0  0  0
   20.0932  -20.6197  -12.8710 O   0  0  0  0  0  0  0  0  0  0  0  0
   21.5499  -22.2495  -12.2131 O   0  0  0  0  0  0  0  0  0  0  0  0
  1  2  1  0
  2  3  2  0
  4  2  1  0
  5  4  1  0
  6  5  1  0
  6  7  1  6
  8  9  2  0
  8  6  1  0
 10 11  1  0
 11 12  2  0
 12 13  1  0
 14 15  1  0
 14 13  2  0
 16 15  1  1
 16 17  1  0
 17  8  1  0
 18 16  1  0
 18 24  1  0
 19 18  2  0
 20 14  1  0
 21 20  2  0
 21 11  1  0
 23 25  1  0
 23 24  1  0
 23 22  1  6
 25 26  1  0
 27 25  2  0
M  END
$$$$
