QYA.pdb
     RDKit          3D

 27 27  0  0  1  0  0  0  0  0999 V2000
   20.9654  -14.9320  -16.4818 N   0  0  0  0  0  0  0  0  0  0  0  0
   21.8816  -15.2742  -17.5284 C   0  0  0  0  0  0  0  0  0  0  0  0
   21.6990  -16.3674  -18.0885 O   0  0  0  0  0  0  0  0  0  0  0  0
   22.9538  -14.3185  -17.8564 C   0  0  0  0  0  0  0  0  0  0  0  0
   22.9377  -13.0743  -17.0062 C   0  0  0  0  0  0  0  0  0  0  0  0
   24.0541  -12.1180  -17.2974 C   0  0  2  0  0  0  0  0  0  0  0  0
   25.2952  -12.7262  -16.8603 N   0  0  0  0  0  0  0  0  0  0  0  0
   23.7929  -10.8303  -16.6149 C   0  0  0  0  0  0  0  0  0  0  0  0
   24.1947  -10.7231  -15.4275 O   0  0  0  0  0  0  0  0  0  0  0  0
   21.5944   -2.3045  -15.3975 O   0  0  0  0  0  0  0  0  0  0  0  0
   21.9758   -3.5418  -15.8982 C   0  0  0  0  0  0  0  0  0  0  0  0
   21.1120   -4.2418  -16.6935 C   0  0  0  0  0  0  0  0  0  0  0  0
   21.4752   -5.4625  -17.1937 C   0  0  0  0  0  0  0  0  0  0  0  0
   22.7065   -6.0329  -16.9239 C   0  0  0  0  0  0  0  0  0  0  0  0
   23.0103   -7.3436  -17.5018 C   0  0  0  0  0  0  0  0  0  0  0  0
   22.8733   -8.4829  -16.5120 C   0  0  2  0  0  0  0  0  0  0  0  0
   23.1351   -9.7321  -17.1941 N   0  0  0  0  0  0  0  0  0  0  0  0
   21.4678   -8.4897  -16.0478 C   0  0  0  0  0  0  0  0  0  0  0  0
   20.5670   -8.7512  -16.8622 O   0  0  0  0  0  0  0  0  0  0  0  0
   23.5835   -5.3347  -16.1232 C   0  0  0  0  0  0  0  0  0  0  0  0
   23.2112   -4.1132  -15.6269 C   0  0  0  0  0  0  0  0  0  0  0  0
   19.7698   -8.7141  -12.7409 C   0  0  0  0  0  0  0  0  0  0  0  0
   19.8281   -8.2233  -14.1698 C   0  0  2  0  0  0  0  0  0  0  0  0
   21.1561   -8.2028  -14.6994 N   0  0  0  0  0  0  0  0  0  0  0  0
   19.2249   -6.8662  -14.1785 C   0  0  0  0  0  0  0  0  0  0  0  0
   19.9570   -5.7232  -14.4517 O   0  0  0  0  0  0  0  0  0  0  0  0
   17.9974   -6.7692  -13.9252 O   0  0  0  0  0  0  0  0  0  0  0  0
  1  2  1  0
  2  3  2  0
  4  2  1  0
  5  4  1  0
  6  5  1  0
  6  7  1  1
  8  9  2  0
  8  6  1  0
 10 11  1  0
 11 12  2  0
 12 13  1  0
 14 15  1  0
 14 13  2  0
 16 15  1  6
 16 17  1  0
 17  8  1  0
 18 16  1  0
 18 24  1  0
 19 18  2  0
 20 14  1  0
 21 20  2  0
 21 11  1  0
 23 25  1  0
 23 24  1  0
 23 22  1  1
 25 26  1  0
 27 25  2  0
M  END
$$$$
