FKC.pdb
     RDKit          3D

 27 27  0  0  1  0  0  0  0  0999 V2000
    5.5286  -17.3065   24.9608 N   0  0  0  0  0  0  0  0  0  0  0  0
    6.2700  -16.0792   24.7427 C   0  0  1  0  0  0  0  0  0  0  0  0
    6.9099  -15.6452   26.0561 C   0  0  0  0  0  0  0  0  0  0  0  0
    6.9333  -14.1902   26.2388 C   0  0  0  0  0  0  0  0  0  0  0  0
    8.0821  -13.4599   26.1322 C   0  0  0  0  0  0  0  0  0  0  0  0
    8.0434  -12.1041   26.3136 C   0  0  0  0  0  0  0  0  0  0  0  0
    6.8570  -11.4654   26.6031 C   0  0  0  0  0  0  0  0  0  0  0  0
    5.6902  -12.2107   26.7109 C   0  0  0  0  0  0  0  0  0  0  0  0
    5.7144  -13.5734   26.5312 C   0  0  0  0  0  0  0  0  0  0  0  0
    7.3810  -16.3192   23.7922 C   0  0  0  0  0  0  0  0  0  0  0  0
    8.0257  -17.3930   23.8424 O   0  0  0  0  0  0  0  0  0  0  0  0
    7.6968  -15.3242   22.8375 N   0  0  0  0  0  0  0  0  0  0  0  0
    8.8688  -15.3655   22.0224 C   0  0  1  0  0  0  0  0  0  0  0  0
    8.9344  -14.1875   21.0721 C   0  0  0  0  0  0  0  0  0  0  0  0
    8.2390  -14.6303   19.7909 C   0  0  0  0  0  0  0  0  0  0  0  0
    8.4449  -13.5748   18.7278 C   0  0  0  0  0  0  0  0  0  0  0  0
    7.6710  -14.0253   17.4987 C   0  0  0  0  0  0  0  0  0  0  0  0
    7.9022  -13.1153   16.4162 N   0  0  0  0  0  0  0  0  0  0  0  0
   10.1187  -15.5385   22.7834 C   0  0  0  0  0  0  0  0  0  0  0  0
   10.3964  -14.7317   23.6936 O   0  0  0  0  0  0  0  0  0  0  0  0
   10.9680  -16.6148   22.4605 N   0  0  0  0  0  0  0  0  0  0  0  0
   12.2476  -16.7889   23.1046 C   0  0  1  0  0  0  0  0  0  0  0  0
   12.2524  -18.0696   23.9148 C   0  0  0  0  0  0  0  0  0  0  0  0
   11.5033  -17.6989   25.5250 S   0  0  0  0  0  0  0  0  0  0  0  0
   13.2815  -16.9359   22.0561 C   0  0  0  0  0  0  0  0  0  0  0  0
   14.6093  -17.0178   22.4493 O   0  0  0  0  0  0  0  0  0  0  0  0
   12.9634  -16.9854   20.8336 O   0  0  0  0  0  0  0  0  0  0  0  0
  2  1  1  1
  3  4  1  0
  3  2  1  0
  4  5  2  0
  5  6  1  0
  7  6  2  0
  8  7  1  0
  9  8  2  0
  9  4  1  0
 10  2  1  0
 10 11  2  0
 12 10  1  0
 13 12  1  0
 13 19  1  0
 13 14  1  1
 15 14  1  0
 16 15  1  0
 17 16  1  0
 18 17  1  0
 19 20  2  0
 19 21  1  0
 21 22  1  0
 22 25  1  0
 22 23  1  1
 24 23  1  0
 25 27  2  0
 25 26  1  0
M  END
$$$$
