FKC.pdb
     RDKit          3D

 27 27  0  0  1  0  0  0  0  0999 V2000
    5.9740  -18.1432   25.2798 N   0  0  0  0  0  0  0  0  0  0  0  0
    6.4231  -16.7804   25.0693 C   0  0  1  0  0  0  0  0  0  0  0  0
    6.6128  -16.1051   26.4224 C   0  0  0  0  0  0  0  0  0  0  0  0
    6.8126  -14.6554   26.3260 C   0  0  0  0  0  0  0  0  0  0  0  0
    5.7761  -13.7872   26.1346 C   0  0  0  0  0  0  0  0  0  0  0  0
    6.0230  -12.4438   26.0518 C   0  0  0  0  0  0  0  0  0  0  0  0
    7.3072  -11.9552   26.1594 C   0  0  0  0  0  0  0  0  0  0  0  0
    8.3592  -12.8405   26.3542 C   0  0  0  0  0  0  0  0  0  0  0  0
    8.1258  -14.1927   26.4392 C   0  0  0  0  0  0  0  0  0  0  0  0
    7.7493  -16.7791   24.4085 C   0  0  0  0  0  0  0  0  0  0  0  0
    8.6549  -17.5403   24.8230 O   0  0  0  0  0  0  0  0  0  0  0  0
    7.9715  -15.9120   23.3131 N   0  0  0  0  0  0  0  0  0  0  0  0
    9.2098  -15.8478   22.6045 C   0  0  1  0  0  0  0  0  0  0  0  0
    9.1137  -14.9544   21.3847 C   0  0  0  0  0  0  0  0  0  0  0  0
    9.3183  -15.8571   20.1745 C   0  0  0  0  0  0  0  0  0  0  0  0
    8.4623  -15.3544   19.0339 C   0  0  0  0  0  0  0  0  0  0  0  0
    8.6667  -16.3113   17.8697 C   0  0  0  0  0  0  0  0  0  0  0  0
    7.9191  -15.8625   16.7326 N   0  0  0  0  0  0  0  0  0  0  0  0
   10.3659  -15.5100   23.4534 C   0  0  0  0  0  0  0  0  0  0  0  0
   10.4017  -14.4011   24.0239 O   0  0  0  0  0  0  0  0  0  0  0  0
   11.4022  -16.4532   23.5976 N   0  0  0  0  0  0  0  0  0  0  0  0
   12.2799  -16.4442   24.7430 C   0  0  1  0  0  0  0  0  0  0  0  0
   11.4990  -16.7725   25.9996 C   0  0  0  0  0  0  0  0  0  0  0  0
   12.3744  -16.0185   27.3984 S   0  0  0  0  0  0  0  0  0  0  0  0
   13.2873  -17.5137   24.5673 C   0  0  0  0  0  0  0  0  0  0  0  0
   13.0596  -18.4780   23.5964 O   0  0  0  0  0  0  0  0  0  0  0  0
   14.3287  -17.5483   25.2833 O   0  0  0  0  0  0  0  0  0  0  0  0
  2  1  1  1
  3  4  1  0
  3  2  1  0
  4  5  2  0
  5  6  1  0
  7  6  2  0
  8  7  1  0
  9  8  2  0
  9  4  1  0
 10  2  1  0
 10 11  2  0
 12 10  1  0
 13 12  1  0
 13 19  1  0
 13 14  1  6
 15 14  1  0
 16 15  1  0
 17 16  1  0
 18 17  1  0
 19 20  2  0
 19 21  1  0
 21 22  1  0
 22 25  1  0
 22 23  1  1
 24 23  1  0
 25 27  2  0
 25 26  1  0
M  END
$$$$
