FKC.pdb
     RDKit          3D

 27 27  0  0  1  0  0  0  0  0999 V2000
    6.2746  -16.5899   22.0093 N   0  0  0  0  0  0  0  0  0  0  0  0
    7.6282  -16.1527   22.2923 C   0  0  1  0  0  0  0  0  0  0  0  0
    7.6374  -14.6372   22.4533 C   0  0  0  0  0  0  0  0  0  0  0  0
    7.7395  -13.9175   21.1795 C   0  0  0  0  0  0  0  0  0  0  0  0
    8.8722  -13.9408   20.4172 C   0  0  0  0  0  0  0  0  0  0  0  0
    8.9099  -13.2492   19.2370 C   0  0  0  0  0  0  0  0  0  0  0  0
    7.8167  -12.5282   18.8073 C   0  0  0  0  0  0  0  0  0  0  0  0
    6.6661  -12.5065   19.5846 C   0  0  0  0  0  0  0  0  0  0  0  0
    6.6143  -13.1966   20.7725 C   0  0  0  0  0  0  0  0  0  0  0  0
    8.0841  -16.7162   23.5846 C   0  0  0  0  0  0  0  0  0  0  0  0
    7.3400  -16.6529   24.5914 O   0  0  0  0  0  0  0  0  0  0  0  0
    9.3610  -17.3203   23.6597 N   0  0  0  0  0  0  0  0  0  0  0  0
   10.0237  -17.5989   24.8938 C   0  0  1  0  0  0  0  0  0  0  0  0
   11.1674  -18.5752   24.7098 C   0  0  0  0  0  0  0  0  0  0  0  0
   10.9278  -19.7083   25.6997 C   0  0  0  0  0  0  0  0  0  0  0  0
   12.0825  -20.6818   25.6240 C   0  0  0  0  0  0  0  0  0  0  0  0
   11.7541  -21.8343   26.5601 C   0  0  0  0  0  0  0  0  0  0  0  0
   12.8316  -22.7790   26.5673 N   0  0  0  0  0  0  0  0  0  0  0  0
   10.4332  -16.3937   25.6360 C   0  0  0  0  0  0  0  0  0  0  0  0
   11.2455  -15.6024   25.1159 O   0  0  0  0  0  0  0  0  0  0  0  0
    9.8933  -16.1680   26.9173 N   0  0  0  0  0  0  0  0  0  0  0  0
   10.3496  -15.0815   27.7504 C   0  0  1  0  0  0  0  0  0  0  0  0
    9.1760  -14.2195   28.1703 C   0  0  0  0  0  0  0  0  0  0  0  0
    8.3100  -13.7049   26.6615 S   0  0  0  0  0  0  0  0  0  0  0  0
   10.9310  -15.6529   28.9854 C   0  0  0  0  0  0  0  0  0  0  0  0
   10.9628  -17.0333   29.1192 O   0  0  0  0  0  0  0  0  0  0  0  0
   11.3870  -14.9029   29.8952 O   0  0  0  0  0  0  0  0  0  0  0  0
  2  1  1  1
  3  4  1  0
  3  2  1  0
  4  5  2  0
  5  6  1  0
  7  6  2  0
  8  7  1  0
  9  8  2  0
  9  4  1  0
 10  2  1  0
 10 11  2  0
 12 10  1  0
 13 12  1  0
 13 19  1  0
 13 14  1  6
 15 14  1  0
 16 15  1  0
 17 16  1  0
 18 17  1  0
 19 20  2  0
 19 21  1  0
 21 22  1  0
 22 25  1  0
 22 23  1  1
 24 23  1  0
 25 27  2  0
 25 26  1  0
M  END
$$$$
