FKC.pdb
     RDKit          3D

 27 27  0  0  1  0  0  0  0  0999 V2000
    5.8409  -16.8124   25.3042 N   0  0  0  0  0  0  0  0  0  0  0  0
    6.7604  -15.8170   24.7875 C   0  0  1  0  0  0  0  0  0  0  0  0
    7.3760  -15.0555   25.9555 C   0  0  0  0  0  0  0  0  0  0  0  0
    6.9131  -13.6673   26.0534 C   0  0  0  0  0  0  0  0  0  0  0  0
    7.5181  -12.6471   25.3766 C   0  0  0  0  0  0  0  0  0  0  0  0
    7.0425  -11.3707   25.5070 C   0  0  0  0  0  0  0  0  0  0  0  0
    5.9584  -11.1014   26.3142 C   0  0  0  0  0  0  0  0  0  0  0  0
    5.3451  -12.1409   27.0011 C   0  0  0  0  0  0  0  0  0  0  0  0
    5.8124  -13.4281   26.8796 C   0  0  0  0  0  0  0  0  0  0  0  0
    7.8809  -16.4796   24.0797 C   0  0  0  0  0  0  0  0  0  0  0  0
    8.4204  -17.4961   24.5767 O   0  0  0  0  0  0  0  0  0  0  0  0
    8.3252  -15.9490   22.8460 N   0  0  0  0  0  0  0  0  0  0  0  0
    9.5275  -16.3703   22.2004 C   0  0  1  0  0  0  0  0  0  0  0  0
    9.7336  -15.6609   20.8778 C   0  0  0  0  0  0  0  0  0  0  0  0
    8.5191  -14.7629   20.6786 C   0  0  0  0  0  0  0  0  0  0  0  0
    8.7273  -13.9189   19.4413 C   0  0  0  0  0  0  0  0  0  0  0  0
    7.5472  -12.9639   19.3511 C   0  0  0  0  0  0  0  0  0  0  0  0
    7.7071  -12.0964   18.2218 N   0  0  0  0  0  0  0  0  0  0  0  0
   10.7215  -16.3034   23.0612 C   0  0  0  0  0  0  0  0  0  0  0  0
   11.2310  -15.1930   23.3139 O   0  0  0  0  0  0  0  0  0  0  0  0
   11.2560  -17.5003   23.5768 N   0  0  0  0  0  0  0  0  0  0  0  0
   12.4981  -17.5202   24.3112 C   0  0  1  0  0  0  0  0  0  0  0  0
   12.5292  -18.7102   25.2490 C   0  0  0  0  0  0  0  0  0  0  0  0
   11.2357  -18.4562   26.4955 S   0  0  0  0  0  0  0  0  0  0  0  0
   13.6069  -17.6988   23.3478 C   0  0  0  0  0  0  0  0  0  0  0  0
   14.9028  -17.7529   23.8398 O   0  0  0  0  0  0  0  0  0  0  0  0
   13.3797  -17.7995   22.1082 O   0  0  0  0  0  0  0  0  0  0  0  0
  2  1  1  1
  3  4  1  0
  3  2  1  0
  4  5  2  0
  5  6  1  0
  7  6  2  0
  8  7  1  0
  9  8  2  0
  9  4  1  0
 10  2  1  0
 10 11  2  0
 12 10  1  0
 13 12  1  0
 13 19  1  0
 13 14  1  6
 15 14  1  0
 16 15  1  0
 17 16  1  0
 18 17  1  0
 19 20  2  0
 19 21  1  0
 21 22  1  0
 22 25  1  0
 22 23  1  1
 24 23  1  0
 25 27  2  0
 25 26  1  0
M  END
$$$$
