FKC.pdb
     RDKit          3D

 27 27  0  0  1  0  0  0  0  0999 V2000
    5.9459  -17.6684   25.3025 N   0  0  0  0  0  0  0  0  0  0  0  0
    6.5268  -16.3582   25.0802 C   0  0  1  0  0  0  0  0  0  0  0  0
    7.1719  -15.8748   26.3736 C   0  0  0  0  0  0  0  0  0  0  0  0
    7.1972  -14.4138   26.5002 C   0  0  0  0  0  0  0  0  0  0  0  0
    8.3365  -13.7281   26.8106 C   0  0  0  0  0  0  0  0  0  0  0  0
    8.3000  -12.3643   26.9160 C   0  0  0  0  0  0  0  0  0  0  0  0
    7.1254  -11.6728   26.7123 C   0  0  0  0  0  0  0  0  0  0  0  0
    5.9683  -12.3728   26.3966 C   0  0  0  0  0  0  0  0  0  0  0  0
    5.9904  -13.7431   26.2876 C   0  0  0  0  0  0  0  0  0  0  0  0
    7.6127  -16.4480   24.0761 C   0  0  0  0  0  0  0  0  0  0  0  0
    8.0753  -17.5676   23.7540 O   0  0  0  0  0  0  0  0  0  0  0  0
    8.1120  -15.2591   23.4944 N   0  0  0  0  0  0  0  0  0  0  0  0
    8.6087  -15.1907   22.1571 C   0  0  1  0  0  0  0  0  0  0  0  0
    7.7969  -14.2377   21.3040 C   0  0  0  0  0  0  0  0  0  0  0  0
    8.4388  -14.2455   19.9223 C   0  0  0  0  0  0  0  0  0  0  0  0
    7.6081  -13.3953   18.9876 C   0  0  0  0  0  0  0  0  0  0  0  0
    8.3198  -13.3871   17.6437 C   0  0  0  0  0  0  0  0  0  0  0  0
    8.2768  -14.6955   17.0611 N   0  0  0  0  0  0  0  0  0  0  0  0
   10.0550  -14.9221   22.0711 C   0  0  0  0  0  0  0  0  0  0  0  0
   10.6123  -14.9287   20.9550 O   0  0  0  0  0  0  0  0  0  0  0  0
   10.7703  -14.6641   23.2568 N   0  0  0  0  0  0  0  0  0  0  0  0
   11.5363  -15.6931   23.9179 C   0  0  1  0  0  0  0  0  0  0  0  0
   10.6517  -16.8850   24.2236 C   0  0  0  0  0  0  0  0  0  0  0  0
   11.6715  -18.1147   25.0833 S   0  0  0  0  0  0  0  0  0  0  0  0
   12.5883  -16.1614   22.9886 C   0  0  0  0  0  0  0  0  0  0  0  0
   12.1982  -16.6871   21.7655 O   0  0  0  0  0  0  0  0  0  0  0  0
   13.8109  -16.0849   23.3008 O   0  0  0  0  0  0  0  0  0  0  0  0
  2  1  1  1
  3  4  1  0
  3  2  1  0
  4  5  2  0
  5  6  1  0
  7  6  2  0
  8  7  1  0
  9  8  2  0
  9  4  1  0
 10  2  1  0
 10 11  2  0
 12 10  1  0
 13 12  1  0
 13 19  1  0
 13 14  1  6
 15 14  1  0
 16 15  1  0
 17 16  1  0
 18 17  1  0
 19 20  2  0
 19 21  1  0
 21 22  1  0
 22 25  1  0
 22 23  1  6
 24 23  1  0
 25 27  2  0
 25 26  1  0
M  END
$$$$
