FKC.pdb
     RDKit          3D

 27 27  0  0  1  0  0  0  0  0999 V2000
    6.7480  -16.6390   25.6103 N   0  0  0  0  0  0  0  0  0  0  0  0
    6.9206  -15.5226   24.7008 C   0  0  1  0  0  0  0  0  0  0  0  0
    7.8319  -14.4884   25.3511 C   0  0  0  0  0  0  0  0  0  0  0  0
    7.1046  -13.4775   26.1258 C   0  0  0  0  0  0  0  0  0  0  0  0
    6.0541  -12.7768   25.6063 C   0  0  0  0  0  0  0  0  0  0  0  0
    5.4132  -11.8447   26.3763 C   0  0  0  0  0  0  0  0  0  0  0  0
    5.8157  -11.6039   27.6723 C   0  0  0  0  0  0  0  0  0  0  0  0
    6.8844  -12.3181   28.1980 C   0  0  0  0  0  0  0  0  0  0  0  0
    7.5374  -13.2575   27.4356 C   0  0  0  0  0  0  0  0  0  0  0  0
    7.6079  -15.9734   23.4680 C   0  0  0  0  0  0  0  0  0  0  0  0
    8.1611  -17.0978   23.4363 O   0  0  0  0  0  0  0  0  0  0  0  0
    7.6276  -15.1201   22.3399 N   0  0  0  0  0  0  0  0  0  0  0  0
    8.6268  -15.1913   21.3220 C   0  0  1  0  0  0  0  0  0  0  0  0
    8.5446  -14.0155   20.3703 C   0  0  0  0  0  0  0  0  0  0  0  0
    8.2387  -14.5967   18.9956 C   0  0  0  0  0  0  0  0  0  0  0  0
    8.5739  -13.5677   17.9394 C   0  0  0  0  0  0  0  0  0  0  0  0
    8.0450  -14.1002   16.6167 C   0  0  0  0  0  0  0  0  0  0  0  0
    8.2465  -13.1275   15.5839 N   0  0  0  0  0  0  0  0  0  0  0  0
    9.9914  -15.3959   21.8392 C   0  0  0  0  0  0  0  0  0  0  0  0
   10.3790  -14.7300   22.8203 O   0  0  0  0  0  0  0  0  0  0  0  0
   10.8228  -16.3419   21.2085 N   0  0  0  0  0  0  0  0  0  0  0  0
   12.1317  -16.6628   21.7247 C   0  0  1  0  0  0  0  0  0  0  0  0
   12.0101  -17.2841   23.1015 C   0  0  0  0  0  0  0  0  0  0  0  0
   13.6716  -17.8006   23.6155 S   0  0  0  0  0  0  0  0  0  0  0  0
   12.7445  -17.6807   20.8427 C   0  0  0  0  0  0  0  0  0  0  0  0
   14.0906  -17.9712   21.0104 O   0  0  0  0  0  0  0  0  0  0  0  0
   12.0594  -18.2707   19.9590 O   0  0  0  0  0  0  0  0  0  0  0  0
  2  1  1  1
  3  4  1  0
  3  2  1  0
  4  5  2  0
  5  6  1  0
  7  6  2  0
  8  7  1  0
  9  8  2  0
  9  4  1  0
 10  2  1  0
 10 11  2  0
 12 10  1  0
 13 12  1  0
 13 19  1  0
 13 14  1  1
 15 14  1  0
 16 15  1  0
 17 16  1  0
 18 17  1  0
 19 20  2  0
 19 21  1  0
 21 22  1  0
 22 25  1  0
 22 23  1  1
 24 23  1  0
 25 27  2  0
 25 26  1  0
M  END
$$$$
