FKC.pdb
     RDKit          3D

 27 27  0  0  1  0  0  0  0  0999 V2000
    5.6884  -17.8260   24.8720 N   0  0  0  0  0  0  0  0  0  0  0  0
    6.1114  -16.4405   24.8034 C   0  0  1  0  0  0  0  0  0  0  0  0
    6.3933  -15.9367   26.2140 C   0  0  0  0  0  0  0  0  0  0  0  0
    6.5583  -14.4814   26.2897 C   0  0  0  0  0  0  0  0  0  0  0  0
    5.5118  -13.6192   26.1283 C   0  0  0  0  0  0  0  0  0  0  0  0
    5.7257  -12.2701   26.2089 C   0  0  0  0  0  0  0  0  0  0  0  0
    6.9868  -11.7697   26.4514 C   0  0  0  0  0  0  0  0  0  0  0  0
    8.0491  -12.6489   26.6152 C   0  0  0  0  0  0  0  0  0  0  0  0
    7.8486  -14.0067   26.5367 C   0  0  0  0  0  0  0  0  0  0  0  0
    7.3866  -16.3353   24.0562 C   0  0  0  0  0  0  0  0  0  0  0  0
    8.2806  -17.1984   24.2206 O   0  0  0  0  0  0  0  0  0  0  0  0
    7.5738  -15.2539   23.1635 N   0  0  0  0  0  0  0  0  0  0  0  0
    8.7784  -15.0488   22.4242 C   0  0  1  0  0  0  0  0  0  0  0  0
    8.6872  -13.8312   21.5275 C   0  0  0  0  0  0  0  0  0  0  0  0
    8.0312  -14.2988   20.2343 C   0  0  0  0  0  0  0  0  0  0  0  0
    8.3581  -13.3165   19.1322 C   0  0  0  0  0  0  0  0  0  0  0  0
    7.6106  -13.7770   17.8904 C   0  0  0  0  0  0  0  0  0  0  0  0
    7.8448  -12.8619   16.8129 N   0  0  0  0  0  0  0  0  0  0  0  0
    9.9944  -15.0388   23.2564 C   0  0  0  0  0  0  0  0  0  0  0  0
    9.9998  -14.3906   24.3224 O   0  0  0  0  0  0  0  0  0  0  0  0
   11.1210  -15.7647   22.8229 N   0  0  0  0  0  0  0  0  0  0  0  0
   12.3659  -15.7370   23.5523 C   0  0  1  0  0  0  0  0  0  0  0  0
   12.2088  -16.4554   24.8774 C   0  0  0  0  0  0  0  0  0  0  0  0
   11.1429  -17.8958   24.5937 S   0  0  0  0  0  0  0  0  0  0  0  0
   13.3797  -16.4820   22.7733 C   0  0  0  0  0  0  0  0  0  0  0  0
   14.6771  -16.5327   23.2618 O   0  0  0  0  0  0  0  0  0  0  0  0
   13.0721  -17.0573   21.6904 O   0  0  0  0  0  0  0  0  0  0  0  0
  2  1  1  1
  3  4  1  0
  3  2  1  0
  4  5  2  0
  5  6  1  0
  7  6  2  0
  8  7  1  0
  9  8  2  0
  9  4  1  0
 10  2  1  0
 10 11  2  0
 12 10  1  0
 13 12  1  0
 13 19  1  0
 13 14  1  1
 15 14  1  0
 16 15  1  0
 17 16  1  0
 18 17  1  0
 19 20  2  0
 19 21  1  0
 21 22  1  0
 22 25  1  0
 22 23  1  1
 24 23  1  0
 25 27  2  0
 25 26  1  0
M  END
$$$$
