FKC.pdb
     RDKit          3D

 27 27  0  0  1  0  0  0  0  0999 V2000
    6.1976  -18.1569   25.6507 N   0  0  0  0  0  0  0  0  0  0  0  0
    6.4922  -16.7957   25.2461 C   0  0  1  0  0  0  0  0  0  0  0  0
    7.4154  -16.1593   26.2784 C   0  0  0  0  0  0  0  0  0  0  0  0
    7.3111  -14.6972   26.3289 C   0  0  0  0  0  0  0  0  0  0  0  0
    6.1082  -14.0529   26.3799 C   0  0  0  0  0  0  0  0  0  0  0  0
    6.0724  -12.6858   26.4250 C   0  0  0  0  0  0  0  0  0  0  0  0
    7.2375  -11.9495   26.4197 C   0  0  0  0  0  0  0  0  0  0  0  0
    8.4593  -12.6075   26.3679 C   0  0  0  0  0  0  0  0  0  0  0  0
    8.5102  -13.9806   26.3221 C   0  0  0  0  0  0  0  0  0  0  0  0
    7.2329  -16.7965   23.9627 C   0  0  0  0  0  0  0  0  0  0  0  0
    7.9413  -17.7823   23.6504 O   0  0  0  0  0  0  0  0  0  0  0  0
    7.1265  -15.6757   23.1062 N   0  0  0  0  0  0  0  0  0  0  0  0
    7.7155  -15.6255   21.8061 C   0  0  1  0  0  0  0  0  0  0  0  0
    7.2365  -14.4237   21.0180 C   0  0  0  0  0  0  0  0  0  0  0  0
    7.8183  -14.5692   19.6174 C   0  0  0  0  0  0  0  0  0  0  0  0
    7.6396  -13.2662   18.8712 C   0  0  0  0  0  0  0  0  0  0  0  0
    8.0753  -13.5132   17.4353 C   0  0  0  0  0  0  0  0  0  0  0  0
    7.8492  -12.3374   16.6480 N   0  0  0  0  0  0  0  0  0  0  0  0
    9.1846  -15.7389   21.8122 C   0  0  0  0  0  0  0  0  0  0  0  0
    9.8043  -15.7072   20.7299 O   0  0  0  0  0  0  0  0  0  0  0  0
    9.8505  -15.8803   23.0454 N   0  0  0  0  0  0  0  0  0  0  0  0
   11.2903  -15.9357   23.1262 C   0  0  1  0  0  0  0  0  0  0  0  0
   11.7808  -15.0732   24.2716 C   0  0  0  0  0  0  0  0  0  0  0  0
   13.5700  -15.3328   24.4225 S   0  0  0  0  0  0  0  0  0  0  0  0
   11.6872  -17.3281   23.4316 C   0  0  0  0  0  0  0  0  0  0  0  0
   10.6869  -18.2612   23.6619 O   0  0  0  0  0  0  0  0  0  0  0  0
   12.9063  -17.6592   23.4818 O   0  0  0  0  0  0  0  0  0  0  0  0
  2  1  1  1
  3  4  1  0
  3  2  1  0
  4  5  2  0
  5  6  1  0
  7  6  2  0
  8  7  1  0
  9  8  2  0
  9  4  1  0
 10  2  1  0
 10 11  2  0
 12 10  1  0
 13 12  1  0
 13 19  1  0
 13 14  1  1
 15 14  1  0
 16 15  1  0
 17 16  1  0
 18 17  1  0
 19 20  2  0
 19 21  1  0
 21 22  1  0
 22 25  1  0
 22 23  1  1
 24 23  1  0
 25 27  2  0
 25 26  1  0
M  END
$$$$
