FKC.pdb
     RDKit          3D

 27 27  0  0  1  0  0  0  0  0999 V2000
    5.5247  -17.7650   24.9443 N   0  0  0  0  0  0  0  0  0  0  0  0
    6.0100  -16.3987   24.9104 C   0  0  1  0  0  0  0  0  0  0  0  0
    6.3046  -15.9407   26.3339 C   0  0  0  0  0  0  0  0  0  0  0  0
    6.5654  -14.5013   26.4394 C   0  0  0  0  0  0  0  0  0  0  0  0
    7.8144  -14.0014   26.6734 C   0  0  0  0  0  0  0  0  0  0  0  0
    7.9977  -12.6483   26.7627 C   0  0  0  0  0  0  0  0  0  0  0  0
    6.9354  -11.7821   26.6191 C   0  0  0  0  0  0  0  0  0  0  0  0
    5.6664  -12.2933   26.3811 C   0  0  0  0  0  0  0  0  0  0  0  0
    5.4676  -13.6506   26.2891 C   0  0  0  0  0  0  0  0  0  0  0  0
    7.2937  -16.3340   24.1732 C   0  0  0  0  0  0  0  0  0  0  0  0
    8.1894  -17.1805   24.4020 O   0  0  0  0  0  0  0  0  0  0  0  0
    7.4869  -15.3099   23.2166 N   0  0  0  0  0  0  0  0  0  0  0  0
    8.6904  -15.1603   22.4624 C   0  0  1  0  0  0  0  0  0  0  0  0
    8.6499  -13.9317   21.5770 C   0  0  0  0  0  0  0  0  0  0  0  0
    8.0670  -14.3827   20.2436 C   0  0  0  0  0  0  0  0  0  0  0  0
    8.4047  -13.3567   19.1854 C   0  0  0  0  0  0  0  0  0  0  0  0
    7.7983  -13.8483   17.8803 C   0  0  0  0  0  0  0  0  0  0  0  0
    8.1338  -12.9481   16.8171 N   0  0  0  0  0  0  0  0  0  0  0  0
    9.9164  -15.2200   23.2777 C   0  0  0  0  0  0  0  0  0  0  0  0
   10.1235  -14.3377   24.1351 O   0  0  0  0  0  0  0  0  0  0  0  0
   10.8234  -16.2765   23.0653 N   0  0  0  0  0  0  0  0  0  0  0  0
   12.1202  -16.2996   23.6981 C   0  0  1  0  0  0  0  0  0  0  0  0
   12.2482  -17.5270   24.5777 C   0  0  0  0  0  0  0  0  0  0  0  0
   11.0809  -17.3362   25.9534 S   0  0  0  0  0  0  0  0  0  0  0  0
   13.1521  -16.4130   22.6436 C   0  0  0  0  0  0  0  0  0  0  0  0
   14.4860  -16.3687   23.0217 O   0  0  0  0  0  0  0  0  0  0  0  0
   12.8269  -16.5466   21.4292 O   0  0  0  0  0  0  0  0  0  0  0  0
  2  1  1  1
  3  4  1  0
  3  2  1  0
  4  5  2  0
  5  6  1  0
  7  6  2  0
  8  7  1  0
  9  8  2  0
  9  4  1  0
 10  2  1  0
 10 11  2  0
 12 10  1  0
 13 12  1  0
 13 19  1  0
 13 14  1  1
 15 14  1  0
 16 15  1  0
 17 16  1  0
 18 17  1  0
 19 20  2  0
 19 21  1  0
 21 22  1  0
 22 25  1  0
 22 23  1  1
 24 23  1  0
 25 27  2  0
 25 26  1  0
M  END
$$$$
