FKC.pdb
     RDKit          3D

 27 27  0  0  1  0  0  0  0  0999 V2000
    7.0919  -17.2249   26.2193 N   0  0  0  0  0  0  0  0  0  0  0  0
    6.3527  -16.7567   25.0627 C   0  0  1  0  0  0  0  0  0  0  0  0
    5.6000  -15.4850   25.4357 C   0  0  0  0  0  0  0  0  0  0  0  0
    6.4771  -14.4047   25.8990 C   0  0  0  0  0  0  0  0  0  0  0  0
    6.6469  -13.2489   25.1920 C   0  0  0  0  0  0  0  0  0  0  0  0
    7.4791  -12.2752   25.6735 C   0  0  0  0  0  0  0  0  0  0  0  0
    8.1492  -12.4469   26.8656 C   0  0  0  0  0  0  0  0  0  0  0  0
    7.9744  -13.6232   27.5825 C   0  0  0  0  0  0  0  0  0  0  0  0
    7.1414  -14.6100   27.1106 C   0  0  0  0  0  0  0  0  0  0  0  0
    7.2902  -16.3877   23.9762 C   0  0  0  0  0  0  0  0  0  0  0  0
    8.3110  -17.0847   23.7678 O   0  0  0  0  0  0  0  0  0  0  0  0
    7.0142  -15.2463   23.1874 N   0  0  0  0  0  0  0  0  0  0  0  0
    7.8240  -14.8446   22.0817 C   0  0  1  0  0  0  0  0  0  0  0  0
    7.2716  -13.6099   21.3996 C   0  0  0  0  0  0  0  0  0  0  0  0
    7.0045  -14.0026   19.9520 C   0  0  0  0  0  0  0  0  0  0  0  0
    8.0428  -13.3531   19.0651 C   0  0  0  0  0  0  0  0  0  0  0  0
    7.7333  -13.7741   17.6369 C   0  0  0  0  0  0  0  0  0  0  0  0
    8.7657  -13.3114   16.7575 N   0  0  0  0  0  0  0  0  0  0  0  0
    9.2544  -14.7084   22.4086 C   0  0  0  0  0  0  0  0  0  0  0  0
    9.6765  -13.6267   22.8649 O   0  0  0  0  0  0  0  0  0  0  0  0
   10.1082  -15.8083   22.1959 N   0  0  0  0  0  0  0  0  0  0  0  0
   11.2291  -16.0756   23.0648 C   0  0  1  0  0  0  0  0  0  0  0  0
   10.7368  -16.5088   24.4309 C   0  0  0  0  0  0  0  0  0  0  0  0
   11.9208  -15.8905   25.6586 S   0  0  0  0  0  0  0  0  0  0  0  0
   11.9963  -17.2086   22.5015 C   0  0  0  0  0  0  0  0  0  0  0  0
   13.2721  -17.4467   22.9913 O   0  0  0  0  0  0  0  0  0  0  0  0
   11.5022  -17.9410   21.5971 O   0  0  0  0  0  0  0  0  0  0  0  0
  2  1  1  1
  3  4  1  0
  3  2  1  0
  4  5  2  0
  5  6  1  0
  7  6  2  0
  8  7  1  0
  9  8  2  0
  9  4  1  0
 10  2  1  0
 10 11  2  0
 12 10  1  0
 13 12  1  0
 13 19  1  0
 13 14  1  1
 15 14  1  0
 16 15  1  0
 17 16  1  0
 18 17  1  0
 19 20  2  0
 19 21  1  0
 21 22  1  0
 22 25  1  0
 22 23  1  1
 24 23  1  0
 25 27  2  0
 25 26  1  0
M  END
$$$$
