FKC.pdb
     RDKit          3D

 27 27  0  0  1  0  0  0  0  0999 V2000
    6.1791  -17.9549   25.7300 N   0  0  0  0  0  0  0  0  0  0  0  0
    6.4384  -16.5738   25.3710 C   0  0  1  0  0  0  0  0  0  0  0  0
    7.1756  -15.8923   26.5177 C   0  0  0  0  0  0  0  0  0  0  0  0
    6.8949  -14.4562   26.6177 C   0  0  0  0  0  0  0  0  0  0  0  0
    7.7264  -13.5944   27.2738 C   0  0  0  0  0  0  0  0  0  0  0  0
    7.4127  -12.2638   27.3351 C   0  0  0  0  0  0  0  0  0  0  0  0
    6.2659  -11.7819   26.7418 C   0  0  0  0  0  0  0  0  0  0  0  0
    5.4223  -12.6608   26.0752 C   0  0  0  0  0  0  0  0  0  0  0  0
    5.7250  -14.0001   26.0057 C   0  0  0  0  0  0  0  0  0  0  0  0
    7.3403  -16.5152   24.1968 C   0  0  0  0  0  0  0  0  0  0  0  0
    8.2184  -17.3956   24.0385 O   0  0  0  0  0  0  0  0  0  0  0  0
    7.1931  -15.4582   23.2682 N   0  0  0  0  0  0  0  0  0  0  0  0
    8.0812  -15.2529   22.1688 C   0  0  1  0  0  0  0  0  0  0  0  0
    7.6329  -14.1022   21.2913 C   0  0  0  0  0  0  0  0  0  0  0  0
    8.5042  -14.1501   20.0424 C   0  0  0  0  0  0  0  0  0  0  0  0
    8.0630  -13.0607   19.0911 C   0  0  0  0  0  0  0  0  0  0  0  0
    8.9532  -13.1569   17.8618 C   0  0  0  0  0  0  0  0  0  0  0  0
    8.1461  -13.2408   16.6807 N   0  0  0  0  0  0  0  0  0  0  0  0
    9.4973  -15.1374   22.5596 C   0  0  0  0  0  0  0  0  0  0  0  0
    9.8630  -14.1651   23.2505 O   0  0  0  0  0  0  0  0  0  0  0  0
   10.4017  -16.1327   22.1407 N   0  0  0  0  0  0  0  0  0  0  0  0
   11.8080  -16.0589   22.4560 C   0  0  1  0  0  0  0  0  0  0  0  0
   12.2045  -17.2231   23.3415 C   0  0  0  0  0  0  0  0  0  0  0  0
   11.3513  -17.0160   24.9291 S   0  0  0  0  0  0  0  0  0  0  0  0
   12.5758  -16.1904   21.1979 C   0  0  0  0  0  0  0  0  0  0  0  0
   13.9552  -16.0531   21.2523 O   0  0  0  0  0  0  0  0  0  0  0  0
   11.9903  -16.4218   20.1016 O   0  0  0  0  0  0  0  0  0  0  0  0
  2  1  1  1
  3  4  1  0
  3  2  1  0
  4  5  2  0
  5  6  1  0
  7  6  2  0
  8  7  1  0
  9  8  2  0
  9  4  1  0
 10  2  1  0
 10 11  2  0
 12 10  1  0
 13 12  1  0
 13 19  1  0
 13 14  1  1
 15 14  1  0
 16 15  1  0
 17 16  1  0
 18 17  1  0
 19 20  2  0
 19 21  1  0
 21 22  1  0
 22 25  1  0
 22 23  1  1
 24 23  1  0
 25 27  2  0
 25 26  1  0
M  END
$$$$
