HQQ.pdb
     RDKit          3D

 29 29  0  0  1  0  0  0  0  0999 V2000
   16.2904  -11.6558   16.6072 N   0  0  0  0  0  0  0  0  0  0  0  0
   15.8872  -13.0044   16.4702 C   0  0  1  0  0  0  0  0  0  0  0  0
   16.9798  -13.9430   16.0367 C   0  0  0  0  0  0  0  0  0  0  0  0
   17.6259  -13.5818   14.7581 C   0  0  0  0  0  0  0  0  0  0  0  0
   17.4032  -14.0456   13.4873 C   0  0  0  0  0  0  0  0  0  0  0  0
   18.2246  -13.4158   12.6088 N   0  0  0  0  0  0  0  0  0  0  0  0
   18.9543  -12.5625   13.3439 C   0  0  0  0  0  0  0  0  0  0  0  0
   18.6168  -12.6404   14.6377 N   0  0  0  0  0  0  0  0  0  0  0  0
   15.2533  -13.6218   17.6636 C   0  0  0  0  0  0  0  0  0  0  0  0
   15.7207  -13.2626   18.7626 O   0  0  0  0  0  0  0  0  0  0  0  0
    9.5340  -16.4338   18.5763 N   0  0  0  0  0  0  0  0  0  0  0  0
   10.2177  -16.7100   19.7731 C   0  0  0  0  0  0  0  0  0  0  0  0
    9.6295  -17.2865   20.7056 O   0  0  0  0  0  0  0  0  0  0  0  0
   11.6329  -16.3208   19.9254 C   0  0  0  0  0  0  0  0  0  0  0  0
   12.1462  -15.6333   18.6618 C   0  0  0  0  0  0  0  0  0  0  0  0
   13.5161  -15.1101   18.7396 C   0  0  2  0  0  0  0  0  0  0  0  0
   14.2058  -14.5475   17.6659 N   0  0  0  0  0  0  0  0  0  0  0  0
   14.3629  -15.9090   19.6262 C   0  0  0  0  0  0  0  0  0  0  0  0
   14.8745  -16.9692   19.1639 O   0  0  0  0  0  0  0  0  0  0  0  0
   19.6436  -15.1379   22.2246 N   0  0  0  0  0  0  0  0  0  0  0  0
   18.5925  -14.2416   22.6418 C   0  0  0  0  0  0  0  0  0  0  0  0
   18.9214  -13.1108   23.0363 O   0  0  0  0  0  0  0  0  0  0  0  0
   17.1787  -14.6979   22.5839 C   0  0  0  0  0  0  0  0  0  0  0  0
   16.9370  -15.9965   21.9041 C   0  0  0  0  0  0  0  0  0  0  0  0
   15.5439  -16.4617   21.7938 C   0  0  2  0  0  0  0  0  0  0  0  0
   14.6850  -15.6281   20.9824 N   0  0  0  0  0  0  0  0  0  0  0  0
   15.0093  -16.5445   23.2005 C   0  0  0  0  0  0  0  0  0  0  0  0
   15.5214  -17.3692   24.1667 O   0  0  0  0  0  0  0  0  0  0  0  0
   14.0235  -15.7941   23.4820 O   0  0  0  0  0  0  0  0  0  0  0  0
  2  1  1  1
  2  3  1  0
  3  4  1  0
  4  8  1  0
  4  5  2  0
  5  6  1  0
  7  6  1  0
  8  7  2  0
  9  2  1  0
 10  9  2  0
 11 12  1  0
 12 13  2  0
 14 12  1  0
 14 15  1  0
 16 15  1  6
 16 17  1  0
 17  9  1  0
 18 26  1  0
 18 16  1  0
 19 18  2  0
 21 20  1  0
 22 21  2  0
 23 21  1  0
 24 23  1  0
 25 24  1  1
 25 26  1  0
 27 25  1  0
 28 27  1  0
 29 27  2  0
M  END
$$$$
