HQQ.pdb
     RDKit          3D

 29 29  0  0  1  0  0  0  0  0999 V2000
    9.7758  -13.0748   18.5442 N   0  0  0  0  0  0  0  0  0  0  0  0
    9.9402  -14.4632   18.3311 C   0  0  1  0  0  0  0  0  0  0  0  0
    9.5335  -14.9385   16.9632 C   0  0  0  0  0  0  0  0  0  0  0  0
    8.2557  -14.3798   16.4755 C   0  0  0  0  0  0  0  0  0  0  0  0
    7.4656  -13.3854   16.9917 C   0  0  0  0  0  0  0  0  0  0  0  0
    6.3819  -13.1893   16.1980 N   0  0  0  0  0  0  0  0  0  0  0  0
    6.5076  -14.0675   15.1908 C   0  0  0  0  0  0  0  0  0  0  0  0
    7.6229  -14.7956   15.3313 N   0  0  0  0  0  0  0  0  0  0  0  0
   11.3016  -15.0055   18.5757 C   0  0  0  0  0  0  0  0  0  0  0  0
   11.4452  -16.2194   18.3292 O   0  0  0  0  0  0  0  0  0  0  0  0
   16.7845  -13.2485   16.6849 N   0  0  0  0  0  0  0  0  0  0  0  0
   15.8184  -14.1314   16.1718 C   0  0  0  0  0  0  0  0  0  0  0  0
   16.0052  -14.6871   15.0745 O   0  0  0  0  0  0  0  0  0  0  0  0
   14.5840  -14.4036   16.9330 C   0  0  0  0  0  0  0  0  0  0  0  0
   14.8637  -14.4171   18.4345 C   0  0  0  0  0  0  0  0  0  0  0  0
   13.7115  -14.7324   19.2887 C   0  0  2  0  0  0  0  0  0  0  0  0
   12.4095  -14.2950   19.0469 N   0  0  0  0  0  0  0  0  0  0  0  0
   14.0668  -14.7584   20.7080 C   0  0  0  0  0  0  0  0  0  0  0  0
   14.1284  -13.6567   21.3261 O   0  0  0  0  0  0  0  0  0  0  0  0
   12.2560  -18.8668   24.9380 N   0  0  0  0  0  0  0  0  0  0  0  0
   11.7178  -17.5300   24.8629 C   0  0  0  0  0  0  0  0  0  0  0  0
   10.5872  -17.3358   25.3389 O   0  0  0  0  0  0  0  0  0  0  0  0
   12.5241  -16.4533   24.2295 C   0  0  0  0  0  0  0  0  0  0  0  0
   13.8568  -16.8531   23.7092 C   0  0  0  0  0  0  0  0  0  0  0  0
   14.6074  -15.8626   22.9187 C   0  0  2  0  0  0  0  0  0  0  0  0
   14.3613  -15.9059   21.4944 N   0  0  0  0  0  0  0  0  0  0  0  0
   16.0671  -16.1090   23.2013 C   0  0  0  0  0  0  0  0  0  0  0  0
   16.8206  -17.0587   22.5639 O   0  0  0  0  0  0  0  0  0  0  0  0
   16.6083  -15.3787   24.0891 O   0  0  0  0  0  0  0  0  0  0  0  0
  2  1  1  6
  2  3  1  0
  3  4  1  0
  4  8  1  0
  4  5  2  0
  5  6  1  0
  7  6  1  0
  8  7  2  0
  9  2  1  0
 10  9  2  0
 11 12  1  0
 12 13  2  0
 14 12  1  0
 14 15  1  0
 16 15  1  6
 16 17  1  0
 17  9  1  0
 18 26  1  0
 18 16  1  0
 19 18  2  0
 21 20  1  0
 22 21  2  0
 23 21  1  0
 24 23  1  0
 25 24  1  1
 25 26  1  0
 27 25  1  0
 28 27  1  0
 29 27  2  0
M  END
$$$$
