HQQ.pdb
     RDKit          3D

 29 29  0  0  1  0  0  0  0  0999 V2000
    9.7543  -17.4841   20.0668 N   0  0  0  0  0  0  0  0  0  0  0  0
    9.3609  -16.4439   20.9405 C   0  0  1  0  0  0  0  0  0  0  0  0
    8.0593  -15.7822   20.5792 C   0  0  0  0  0  0  0  0  0  0  0  0
    8.2028  -14.5174   19.8291 C   0  0  0  0  0  0  0  0  0  0  0  0
    9.3224  -13.8973   19.3379 C   0  0  0  0  0  0  0  0  0  0  0  0
    8.9790  -12.7518   18.6954 N   0  0  0  0  0  0  0  0  0  0  0  0
    7.6431  -12.6688   18.7933 C   0  0  0  0  0  0  0  0  0  0  0  0
    7.1499  -13.7149   19.4688 N   0  0  0  0  0  0  0  0  0  0  0  0
    9.2645  -16.8003   22.3796 C   0  0  0  0  0  0  0  0  0  0  0  0
    8.1059  -16.9396   22.8190 O   0  0  0  0  0  0  0  0  0  0  0  0
   12.5914  -20.4015   26.3227 N   0  0  0  0  0  0  0  0  0  0  0  0
   11.8169  -19.6501   27.2237 C   0  0  0  0  0  0  0  0  0  0  0  0
   11.8813  -19.8848   28.4439 O   0  0  0  0  0  0  0  0  0  0  0  0
   10.9297  -18.5810   26.7266 C   0  0  0  0  0  0  0  0  0  0  0  0
   11.0326  -18.4522   25.2081 C   0  0  0  0  0  0  0  0  0  0  0  0
   10.3152  -17.3132   24.6210 C   0  0  2  0  0  0  0  0  0  0  0  0
   10.3301  -16.9884   23.2648 N   0  0  0  0  0  0  0  0  0  0  0  0
   10.3158  -16.1458   25.5032 C   0  0  0  0  0  0  0  0  0  0  0  0
   11.3633  -15.4388   25.5535 O   0  0  0  0  0  0  0  0  0  0  0  0
    5.8406  -12.0665   27.1348 N   0  0  0  0  0  0  0  0  0  0  0  0
    6.8662  -11.8368   26.1460 C   0  0  0  0  0  0  0  0  0  0  0  0
    6.6887  -10.9135   25.3346 O   0  0  0  0  0  0  0  0  0  0  0  0
    8.0769  -12.6998   26.1365 C   0  0  0  0  0  0  0  0  0  0  0  0
    8.1934  -13.6769   27.2493 C   0  0  0  0  0  0  0  0  0  0  0  0
    9.3543  -14.5832   27.2447 C   0  0  2  0  0  0  0  0  0  0  0  0
    9.2509  -15.7021   26.3345 N   0  0  0  0  0  0  0  0  0  0  0  0
    9.5153  -15.0774   28.6593 C   0  0  0  0  0  0  0  0  0  0  0  0
    9.8692  -14.2781   29.7138 O   0  0  0  0  0  0  0  0  0  0  0  0
    9.3047  -16.3142   28.8598 O   0  0  0  0  0  0  0  0  0  0  0  0
  2  1  1  6
  2  3  1  0
  3  4  1  0
  4  8  1  0
  4  5  2  0
  5  6  1  0
  7  6  1  0
  8  7  2  0
  9  2  1  0
 10  9  2  0
 11 12  1  0
 12 13  2  0
 14 12  1  0
 14 15  1  0
 16 15  1  1
 16 17  1  0
 17  9  1  0
 18 26  1  0
 18 16  1  0
 19 18  2  0
 21 20  1  0
 22 21  2  0
 23 21  1  0
 24 23  1  0
 25 24  1  1
 25 26  1  0
 27 25  1  0
 28 27  1  0
 29 27  2  0
M  END
$$$$
