HQQ.pdb
     RDKit          3D

 29 29  0  0  1  0  0  0  0  0999 V2000
    5.6878  -15.7582   20.4625 N   0  0  0  0  0  0  0  0  0  0  0  0
    6.9520  -15.9050   21.0791 C   0  0  1  0  0  0  0  0  0  0  0  0
    7.8826  -14.7395   20.8832 C   0  0  0  0  0  0  0  0  0  0  0  0
    8.1433  -14.3948   19.4704 C   0  0  0  0  0  0  0  0  0  0  0  0
    7.7777  -13.2922   18.7424 C   0  0  0  0  0  0  0  0  0  0  0  0
    8.2515  -13.3909   17.4740 N   0  0  0  0  0  0  0  0  0  0  0  0
    8.9103  -14.5591   17.4239 C   0  0  0  0  0  0  0  0  0  0  0  0
    8.8619  -15.1835   18.6078 N   0  0  0  0  0  0  0  0  0  0  0  0
    6.9391  -16.1907   22.5370 C   0  0  0  0  0  0  0  0  0  0  0  0
    6.3161  -15.3680   23.2370 O   0  0  0  0  0  0  0  0  0  0  0  0
    6.9875  -21.0045   28.0608 N   0  0  0  0  0  0  0  0  0  0  0  0
    7.7434  -20.5190   26.9796 C   0  0  0  0  0  0  0  0  0  0  0  0
    8.5052  -21.2840   26.3612 O   0  0  0  0  0  0  0  0  0  0  0  0
    7.6335  -19.1046   26.5737 C   0  0  0  0  0  0  0  0  0  0  0  0
    7.6139  -18.9763   25.0519 C   0  0  0  0  0  0  0  0  0  0  0  0
    7.5779  -17.6024   24.5344 C   0  0  2  0  0  0  0  0  0  0  0  0
    7.5486  -17.2722   23.1798 N   0  0  0  0  0  0  0  0  0  0  0  0
    8.3822  -16.6861   25.3437 C   0  0  0  0  0  0  0  0  0  0  0  0
    9.6164  -16.5905   25.0843 O   0  0  0  0  0  0  0  0  0  0  0  0
    6.2917  -11.5506   28.3171 N   0  0  0  0  0  0  0  0  0  0  0  0
    6.5174  -11.7227   26.9023 C   0  0  0  0  0  0  0  0  0  0  0  0
    5.9733  -10.9173   26.1292 O   0  0  0  0  0  0  0  0  0  0  0  0
    7.3791  -12.8391   26.4314 C   0  0  0  0  0  0  0  0  0  0  0  0
    8.0263  -13.6577   27.4887 C   0  0  0  0  0  0  0  0  0  0  0  0
    8.7463  -14.8719   27.0684 C   0  0  2  0  0  0  0  0  0  0  0  0
    7.9288  -15.8711   26.4170 N   0  0  0  0  0  0  0  0  0  0  0  0
    9.3763  -15.4459   28.3114 C   0  0  0  0  0  0  0  0  0  0  0  0
   10.3433  -14.8093   29.0434 O   0  0  0  0  0  0  0  0  0  0  0  0
    8.9688  -16.5908   28.6818 O   0  0  0  0  0  0  0  0  0  0  0  0
  2  1  1  1
  2  3  1  0
  3  4  1  0
  4  8  1  0
  4  5  2  0
  5  6  1  0
  7  6  1  0
  8  7  2  0
  9  2  1  0
 10  9  2  0
 11 12  1  0
 12 13  2  0
 14 12  1  0
 14 15  1  0
 16 15  1  6
 16 17  1  0
 17  9  1  0
 18 26  1  0
 18 16  1  0
 19 18  2  0
 21 20  1  0
 22 21  2  0
 23 21  1  0
 24 23  1  0
 25 24  1  1
 25 26  1  0
 27 25  1  0
 28 27  1  0
 29 27  2  0
M  END
$$$$
