HQQ.pdb
     RDKit          3D

 29 29  0  0  1  0  0  0  0  0999 V2000
   11.8286  -17.3392   16.9515 N   0  0  0  0  0  0  0  0  0  0  0  0
   12.2559  -18.3185   17.8780 C   0  0  1  0  0  0  0  0  0  0  0  0
   13.7455  -18.5204   17.9324 C   0  0  0  0  0  0  0  0  0  0  0  0
   14.3639  -18.8695   16.6369 C   0  0  0  0  0  0  0  0  0  0  0  0
   14.3680  -20.0523   15.9437 C   0  0  0  0  0  0  0  0  0  0  0  0
   15.0533  -19.9106   14.7805 N   0  0  0  0  0  0  0  0  0  0  0  0
   15.4716  -18.6354   14.7602 C   0  0  0  0  0  0  0  0  0  0  0  0
   15.0726  -17.9866   15.8618 N   0  0  0  0  0  0  0  0  0  0  0  0
   11.8068  -18.1306   19.2817 C   0  0  0  0  0  0  0  0  0  0  0  0
   12.1209  -17.0417   19.8018 O   0  0  0  0  0  0  0  0  0  0  0  0
    6.9515  -20.6250   22.6316 N   0  0  0  0  0  0  0  0  0  0  0  0
    7.6371  -19.8562   23.5882 C   0  0  0  0  0  0  0  0  0  0  0  0
    7.1437  -19.6858   24.7176 O   0  0  0  0  0  0  0  0  0  0  0  0
    8.9426  -19.2531   23.2576 C   0  0  0  0  0  0  0  0  0  0  0  0
    9.3137  -19.5260   21.8014 C   0  0  0  0  0  0  0  0  0  0  0  0
   10.5632  -18.9064   21.3414 C   0  0  2  0  0  0  0  0  0  0  0  0
   11.0819  -19.0429   20.0540 N   0  0  0  0  0  0  0  0  0  0  0  0
   11.5871  -18.8861   22.3866 C   0  0  0  0  0  0  0  0  0  0  0  0
   11.9878  -19.9932   22.8484 O   0  0  0  0  0  0  0  0  0  0  0  0
   17.2203  -15.5115   23.4039 N   0  0  0  0  0  0  0  0  0  0  0  0
   15.9596  -15.3845   22.7135 C   0  0  0  0  0  0  0  0  0  0  0  0
   15.7237  -14.3106   22.1360 O   0  0  0  0  0  0  0  0  0  0  0  0
   15.0064  -16.5256   22.7192 C   0  0  0  0  0  0  0  0  0  0  0  0
   14.1959  -16.6957   23.9525 C   0  0  0  0  0  0  0  0  0  0  0  0
   13.2208  -17.7990   23.9829 C   0  0  2  0  0  0  0  0  0  0  0  0
   12.1991  -17.7384   22.9614 N   0  0  0  0  0  0  0  0  0  0  0  0
   12.5894  -17.7726   25.3512 C   0  0  0  0  0  0  0  0  0  0  0  0
   11.2443  -17.6372   25.5711 O   0  0  0  0  0  0  0  0  0  0  0  0
   13.3738  -17.8842   26.3444 O   0  0  0  0  0  0  0  0  0  0  0  0
  2  1  1  6
  2  3  1  0
  3  4  1  0
  4  8  1  0
  4  5  2  0
  5  6  1  0
  7  6  1  0
  8  7  2  0
  9  2  1  0
 10  9  2  0
 11 12  1  0
 12 13  2  0
 14 12  1  0
 14 15  1  0
 16 15  1  1
 16 17  1  0
 17  9  1  0
 18 26  1  0
 18 16  1  0
 19 18  2  0
 21 20  1  0
 22 21  2  0
 23 21  1  0
 24 23  1  0
 25 24  1  1
 25 26  1  0
 27 25  1  0
 28 27  1  0
 29 27  2  0
M  END
$$$$
