HQQ.pdb
     RDKit          3D

 29 29  0  0  1  0  0  0  0  0999 V2000
    9.0811  -17.9599   18.9890 N   0  0  0  0  0  0  0  0  0  0  0  0
   10.2984  -17.3322   19.3415 C   0  0  1  0  0  0  0  0  0  0  0  0
   11.1747  -16.9669   18.1748 C   0  0  0  0  0  0  0  0  0  0  0  0
   10.5780  -17.2410   16.8513 C   0  0  0  0  0  0  0  0  0  0  0  0
    9.3719  -17.8016   16.5188 C   0  0  0  0  0  0  0  0  0  0  0  0
    9.2324  -17.8450   15.1691 N   0  0  0  0  0  0  0  0  0  0  0  0
   10.3578  -17.3090   14.6717 C   0  0  0  0  0  0  0  0  0  0  0  0
   11.1840  -16.9376   15.6583 N   0  0  0  0  0  0  0  0  0  0  0  0
   10.1854  -16.1106   20.1795 C   0  0  0  0  0  0  0  0  0  0  0  0
   11.2622  -15.6673   20.6255 O   0  0  0  0  0  0  0  0  0  0  0  0
    9.8374  -12.3748   19.2026 N   0  0  0  0  0  0  0  0  0  0  0  0
    8.6138  -12.7454   18.6182 C   0  0  0  0  0  0  0  0  0  0  0  0
    8.4953  -12.7571   17.3798 O   0  0  0  0  0  0  0  0  0  0  0  0
    7.4698  -13.1239   19.4698 C   0  0  0  0  0  0  0  0  0  0  0  0
    7.8871  -13.2009   20.9371 C   0  0  0  0  0  0  0  0  0  0  0  0
    8.8291  -14.2771   21.2701 C   0  0  2  0  0  0  0  0  0  0  0  0
    9.0088  -15.4299   20.5061 N   0  0  0  0  0  0  0  0  0  0  0  0
    8.9137  -14.5106   22.7122 C   0  0  0  0  0  0  0  0  0  0  0  0
    9.2391  -13.5393   23.4540 O   0  0  0  0  0  0  0  0  0  0  0  0
    7.6001  -12.9713   26.3169 N   0  0  0  0  0  0  0  0  0  0  0  0
    6.4483  -13.8333   26.2056 C   0  0  0  0  0  0  0  0  0  0  0  0
    5.4494  -13.5523   26.8880 O   0  0  0  0  0  0  0  0  0  0  0  0
    6.4998  -15.0057   25.2928 C   0  0  0  0  0  0  0  0  0  0  0  0
    7.5585  -16.0090   25.5746 C   0  0  0  0  0  0  0  0  0  0  0  0
    8.8211  -15.8997   24.8242 C   0  0  2  0  0  0  0  0  0  0  0  0
    8.6693  -15.7333   23.3958 N   0  0  0  0  0  0  0  0  0  0  0  0
    9.6034  -17.1533   25.1208 C   0  0  0  0  0  0  0  0  0  0  0  0
    9.0362  -18.3897   25.2809 O   0  0  0  0  0  0  0  0  0  0  0  0
   10.8636  -17.0292   25.2241 O   0  0  0  0  0  0  0  0  0  0  0  0
  2  1  1  6
  2  3  1  0
  3  4  1  0
  4  8  1  0
  4  5  2  0
  5  6  1  0
  7  6  1  0
  8  7  2  0
  9  2  1  0
 10  9  2  0
 11 12  1  0
 12 13  2  0
 14 12  1  0
 14 15  1  0
 16 15  1  1
 16 17  1  0
 17  9  1  0
 18 26  1  0
 18 16  1  0
 19 18  2  0
 21 20  1  0
 22 21  2  0
 23 21  1  0
 24 23  1  0
 25 24  1  1
 25 26  1  0
 27 25  1  0
 28 27  1  0
 29 27  2  0
M  END
$$$$
