HQQ.pdb
     RDKit          3D

 29 29  0  0  1  0  0  0  0  0999 V2000
    9.9438  -16.6906   19.5156 N   0  0  0  0  0  0  0  0  0  0  0  0
    8.8329  -15.9155   19.9220 C   0  0  1  0  0  0  0  0  0  0  0  0
    7.7383  -15.8051   18.8961 C   0  0  0  0  0  0  0  0  0  0  0  0
    7.8817  -14.6644   17.9681 C   0  0  0  0  0  0  0  0  0  0  0  0
    8.8737  -13.7243   17.8615 C   0  0  0  0  0  0  0  0  0  0  0  0
    8.5971  -12.8650   16.8476 N   0  0  0  0  0  0  0  0  0  0  0  0
    7.4301  -13.2797   16.3303 C   0  0  0  0  0  0  0  0  0  0  0  0
    6.9771  -14.3579   16.9830 N   0  0  0  0  0  0  0  0  0  0  0  0
    8.1782  -16.3262   21.1909 C   0  0  0  0  0  0  0  0  0  0  0  0
    7.2716  -15.5704   21.5932 O   0  0  0  0  0  0  0  0  0  0  0  0
    5.4451  -21.1175   23.7756 N   0  0  0  0  0  0  0  0  0  0  0  0
    6.8057  -21.3524   24.0401 C   0  0  0  0  0  0  0  0  0  0  0  0
    7.1746  -22.4660   24.4544 O   0  0  0  0  0  0  0  0  0  0  0  0
    7.7985  -20.2823   23.8245 C   0  0  0  0  0  0  0  0  0  0  0  0
    7.1106  -18.9694   23.4559 C   0  0  0  0  0  0  0  0  0  0  0  0
    8.0081  -17.8324   23.2140 C   0  0  2  0  0  0  0  0  0  0  0  0
    8.4800  -17.4561   21.9568 N   0  0  0  0  0  0  0  0  0  0  0  0
    8.9942  -17.6700   24.2829 C   0  0  0  0  0  0  0  0  0  0  0  0
   10.2111  -17.8750   24.0058 O   0  0  0  0  0  0  0  0  0  0  0  0
    9.4774  -13.2428   28.6557 N   0  0  0  0  0  0  0  0  0  0  0  0
   10.3819  -14.2292   29.1953 C   0  0  0  0  0  0  0  0  0  0  0  0
   11.0084  -13.9346   30.2264 O   0  0  0  0  0  0  0  0  0  0  0  0
   10.5269  -15.5397   28.5081 C   0  0  0  0  0  0  0  0  0  0  0  0
    9.5625  -15.8146   27.4121 C   0  0  0  0  0  0  0  0  0  0  0  0
    9.7773  -17.0243   26.5999 C   0  0  2  0  0  0  0  0  0  0  0  0
    8.7390  -17.3017   25.6324 N   0  0  0  0  0  0  0  0  0  0  0  0
    9.9042  -18.1716   27.5690 C   0  0  0  0  0  0  0  0  0  0  0  0
   11.0144  -18.4066   28.3359 O   0  0  0  0  0  0  0  0  0  0  0  0
    8.9075  -18.9541   27.6615 O   0  0  0  0  0  0  0  0  0  0  0  0
  2  1  1  6
  2  3  1  0
  3  4  1  0
  4  8  1  0
  4  5  2  0
  5  6  1  0
  7  6  1  0
  8  7  2  0
  9  2  1  0
 10  9  2  0
 11 12  1  0
 12 13  2  0
 14 12  1  0
 14 15  1  0
 16 15  1  6
 16 17  1  0
 17  9  1  0
 18 26  1  0
 18 16  1  0
 19 18  2  0
 21 20  1  0
 22 21  2  0
 23 21  1  0
 24 23  1  0
 25 24  1  1
 25 26  1  0
 27 25  1  0
 28 27  1  0
 29 27  2  0
M  END
$$$$
