HQQ.pdb
     RDKit          3D

 29 29  0  0  1  0  0  0  0  0999 V2000
    7.0261  -16.8087   20.2724 N   0  0  0  0  0  0  0  0  0  0  0  0
    8.2989  -16.4079   20.7405 C   0  0  1  0  0  0  0  0  0  0  0  0
    8.5630  -14.9300   20.6468 C   0  0  0  0  0  0  0  0  0  0  0  0
    8.4091  -14.3652   19.2903 C   0  0  0  0  0  0  0  0  0  0  0  0
    8.1200  -14.9793   18.0992 C   0  0  0  0  0  0  0  0  0  0  0  0
    8.0602  -14.0606   17.1015 N   0  0  0  0  0  0  0  0  0  0  0  0
    8.3139  -12.8780   17.6831 C   0  0  0  0  0  0  0  0  0  0  0  0
    8.5274  -13.0302   18.9966 N   0  0  0  0  0  0  0  0  0  0  0  0
    8.6400  -16.8073   22.1303 C   0  0  0  0  0  0  0  0  0  0  0  0
    7.6961  -16.7680   22.9443 O   0  0  0  0  0  0  0  0  0  0  0  0
   12.2055  -20.9599   24.9638 N   0  0  0  0  0  0  0  0  0  0  0  0
   12.0946  -20.0215   26.0045 C   0  0  0  0  0  0  0  0  0  0  0  0
   12.3662  -20.3540   27.1723 O   0  0  0  0  0  0  0  0  0  0  0  0
   11.6597  -18.6414   25.7154 C   0  0  0  0  0  0  0  0  0  0  0  0
   11.3777  -18.4619   24.2250 C   0  0  0  0  0  0  0  0  0  0  0  0
   10.3075  -17.5120   23.8948 C   0  0  2  0  0  0  0  0  0  0  0  0
    9.8939  -17.2127   22.5970 N   0  0  0  0  0  0  0  0  0  0  0  0
   10.2963  -16.3579   24.7943 C   0  0  0  0  0  0  0  0  0  0  0  0
   11.1559  -15.4493   24.6069 O   0  0  0  0  0  0  0  0  0  0  0  0
    5.5232  -12.8987   26.5928 N   0  0  0  0  0  0  0  0  0  0  0  0
    6.5939  -12.2907   27.3452 C   0  0  0  0  0  0  0  0  0  0  0  0
    6.3631  -11.2053   27.9030 O   0  0  0  0  0  0  0  0  0  0  0  0
    7.9112  -12.9757   27.4235 C   0  0  0  0  0  0  0  0  0  0  0  0
    8.0443  -14.2308   26.6399 C   0  0  0  0  0  0  0  0  0  0  0  0
    9.3578  -14.8969   26.6338 C   0  0  2  0  0  0  0  0  0  0  0  0
    9.4116  -16.1325   25.8845 N   0  0  0  0  0  0  0  0  0  0  0  0
    9.7154  -15.1481   28.0762 C   0  0  0  0  0  0  0  0  0  0  0  0
   10.0768  -14.1642   28.9577 O   0  0  0  0  0  0  0  0  0  0  0  0
    9.6715  -16.3540   28.4739 O   0  0  0  0  0  0  0  0  0  0  0  0
  2  1  1  1
  2  3  1  0
  3  4  1  0
  4  8  1  0
  4  5  2  0
  5  6  1  0
  7  6  1  0
  8  7  2  0
  9  2  1  0
 10  9  2  0
 11 12  1  0
 12 13  2  0
 14 12  1  0
 14 15  1  0
 16 15  1  6
 16 17  1  0
 17  9  1  0
 18 26  1  0
 18 16  1  0
 19 18  2  0
 21 20  1  0
 22 21  2  0
 23 21  1  0
 24 23  1  0
 25 24  1  1
 25 26  1  0
 27 25  1  0
 28 27  1  0
 29 27  2  0
M  END
$$$$
