HQQ.pdb
     RDKit          3D

 29 29  0  0  1  0  0  0  0  0999 V2000
    8.4314  -16.9792   20.0453 N   0  0  0  0  0  0  0  0  0  0  0  0
    9.0442  -16.2754   21.1080 C   0  0  1  0  0  0  0  0  0  0  0  0
    8.3129  -15.0338   21.5398 C   0  0  0  0  0  0  0  0  0  0  0  0
    8.2189  -13.9863   20.5022 C   0  0  0  0  0  0  0  0  0  0  0  0
    8.7076  -13.9571   19.2216 C   0  0  0  0  0  0  0  0  0  0  0  0
    8.3672  -12.7899   18.6175 N   0  0  0  0  0  0  0  0  0  0  0  0
    7.6670  -12.1003   19.5315 C   0  0  0  0  0  0  0  0  0  0  0  0
    7.5621  -12.7937   20.6725 N   0  0  0  0  0  0  0  0  0  0  0  0
    9.3086  -17.0571   22.3433 C   0  0  0  0  0  0  0  0  0  0  0  0
    8.3160  -17.6284   22.8367 O   0  0  0  0  0  0  0  0  0  0  0  0
   13.2007  -21.4228   24.0784 N   0  0  0  0  0  0  0  0  0  0  0  0
   12.3034  -21.2744   23.0066 C   0  0  0  0  0  0  0  0  0  0  0  0
   12.2556  -22.1382   22.1124 O   0  0  0  0  0  0  0  0  0  0  0  0
   11.4150  -20.0981   22.9407 C   0  0  0  0  0  0  0  0  0  0  0  0
   11.6487  -19.1735   24.1337 C   0  0  0  0  0  0  0  0  0  0  0  0
   10.8643  -17.9320   24.1336 C   0  0  2  0  0  0  0  0  0  0  0  0
   10.5402  -17.2060   22.9878 N   0  0  0  0  0  0  0  0  0  0  0  0
   11.1587  -17.0925   25.2955 C   0  0  0  0  0  0  0  0  0  0  0  0
   12.0700  -16.2224   25.1850 O   0  0  0  0  0  0  0  0  0  0  0  0
    8.8868  -12.7196   28.5282 N   0  0  0  0  0  0  0  0  0  0  0  0
    8.9753  -13.1612   27.1573 C   0  0  0  0  0  0  0  0  0  0  0  0
    8.4456  -12.4509   26.2871 O   0  0  0  0  0  0  0  0  0  0  0  0
    9.6861  -14.4288   26.8435 C   0  0  0  0  0  0  0  0  0  0  0  0
   10.2662  -15.1581   28.0005 C   0  0  0  0  0  0  0  0  0  0  0  0
   10.9910  -16.4104   27.7256 C   0  0  2  0  0  0  0  0  0  0  0  0
   10.5266  -17.1425   26.5682 N   0  0  0  0  0  0  0  0  0  0  0  0
   10.8606  -17.2594   28.9640 C   0  0  0  0  0  0  0  0  0  0  0  0
   11.3432  -16.8983   30.1939 O   0  0  0  0  0  0  0  0  0  0  0  0
   10.2630  -18.3729   28.8328 O   0  0  0  0  0  0  0  0  0  0  0  0
  2  1  1  6
  2  3  1  0
  3  4  1  0
  4  8  1  0
  4  5  2  0
  5  6  1  0
  7  6  1  0
  8  7  2  0
  9  2  1  0
 10  9  2  0
 11 12  1  0
 12 13  2  0
 14 12  1  0
 14 15  1  0
 16 15  1  6
 16 17  1  0
 17  9  1  0
 18 26  1  0
 18 16  1  0
 19 18  2  0
 21 20  1  0
 22 21  2  0
 23 21  1  0
 24 23  1  0
 25 24  1  1
 25 26  1  0
 27 25  1  0
 28 27  1  0
 29 27  2  0
M  END
$$$$
