HQQ.pdb
     RDKit          3D

 29 29  0  0  1  0  0  0  0  0999 V2000
   10.2189  -15.7538   15.3505 N   0  0  0  0  0  0  0  0  0  0  0  0
   10.3106  -15.3671   16.7078 C   0  0  1  0  0  0  0  0  0  0  0  0
    9.1635  -15.8236   17.5671 C   0  0  0  0  0  0  0  0  0  0  0  0
    8.5789  -14.7680   18.4196 C   0  0  0  0  0  0  0  0  0  0  0  0
    8.8770  -13.4330   18.5116 C   0  0  0  0  0  0  0  0  0  0  0  0
    8.0695  -12.8352   19.4246 N   0  0  0  0  0  0  0  0  0  0  0  0
    7.2730  -13.8077   19.8948 C   0  0  0  0  0  0  0  0  0  0  0  0
    7.5562  -14.9787   19.3097 N   0  0  0  0  0  0  0  0  0  0  0  0
   11.5521  -15.7669   17.4191 C   0  0  0  0  0  0  0  0  0  0  0  0
   12.4577  -16.2267   16.6956 O   0  0  0  0  0  0  0  0  0  0  0  0
   16.5790  -13.1739   17.7817 N   0  0  0  0  0  0  0  0  0  0  0  0
   15.7171  -14.2461   17.4924 C   0  0  0  0  0  0  0  0  0  0  0  0
   16.0697  -15.1265   16.6871 O   0  0  0  0  0  0  0  0  0  0  0  0
   14.3960  -14.3323   18.1439 C   0  0  0  0  0  0  0  0  0  0  0  0
   14.3095  -15.5698   19.0348 C   0  0  0  0  0  0  0  0  0  0  0  0
   12.9632  -15.9119   19.5115 C   0  0  2  0  0  0  0  0  0  0  0  0
   11.7909  -15.6771   18.7936 N   0  0  0  0  0  0  0  0  0  0  0  0
   12.8188  -15.7058   20.9530 C   0  0  0  0  0  0  0  0  0  0  0  0
   13.0958  -14.5641   21.4214 O   0  0  0  0  0  0  0  0  0  0  0  0
    9.1568  -13.6377   22.3638 N   0  0  0  0  0  0  0  0  0  0  0  0
    8.7479  -15.0211   22.3989 C   0  0  0  0  0  0  0  0  0  0  0  0
    7.6501  -15.3111   21.8957 O   0  0  0  0  0  0  0  0  0  0  0  0
    9.6418  -16.0306   23.0254 C   0  0  0  0  0  0  0  0  0  0  0  0
   10.9400  -15.5253   23.5413 C   0  0  0  0  0  0  0  0  0  0  0  0
   12.1376  -16.3488   23.3028 C   0  0  2  0  0  0  0  0  0  0  0  0
   12.3951  -16.6634   21.9151 N   0  0  0  0  0  0  0  0  0  0  0  0
   11.9486  -17.6161   24.0963 C   0  0  0  0  0  0  0  0  0  0  0  0
   11.8352  -17.6552   25.4607 O   0  0  0  0  0  0  0  0  0  0  0  0
   11.8948  -18.7005   23.4366 O   0  0  0  0  0  0  0  0  0  0  0  0
  2  1  1  6
  2  3  1  0
  3  4  1  0
  4  8  1  0
  4  5  2  0
  5  6  1  0
  7  6  1  0
  8  7  2  0
  9  2  1  0
 10  9  2  0
 11 12  1  0
 12 13  2  0
 14 12  1  0
 14 15  1  0
 16 15  1  6
 16 17  1  0
 17  9  1  0
 18 26  1  0
 18 16  1  0
 19 18  2  0
 21 20  1  0
 22 21  2  0
 23 21  1  0
 24 23  1  0
 25 24  1  6
 25 26  1  0
 27 25  1  0
 28 27  1  0
 29 27  2  0
M  END
$$$$
