HQQ.pdb
     RDKit          3D

 29 29  0  0  1  0  0  0  0  0999 V2000
   15.4408  -13.9047   17.7648 N   0  0  0  0  0  0  0  0  0  0  0  0
   14.2112  -14.5963   17.6655 C   0  0  1  0  0  0  0  0  0  0  0  0
   14.3415  -16.0630   17.3579 C   0  0  0  0  0  0  0  0  0  0  0  0
   14.9644  -16.3618   16.0519 C   0  0  0  0  0  0  0  0  0  0  0  0
   14.8005  -15.7610   14.8306 C   0  0  0  0  0  0  0  0  0  0  0  0
   15.5920  -16.3601   13.9045 N   0  0  0  0  0  0  0  0  0  0  0  0
   16.2439  -17.3327   14.5606 C   0  0  0  0  0  0  0  0  0  0  0  0
   15.8869  -17.3574   15.8513 N   0  0  0  0  0  0  0  0  0  0  0  0
   13.3063  -14.4930   18.8392 C   0  0  0  0  0  0  0  0  0  0  0  0
   13.8737  -14.4478   19.9488 O   0  0  0  0  0  0  0  0  0  0  0  0
    7.4566  -12.0345   19.4326 N   0  0  0  0  0  0  0  0  0  0  0  0
    7.4856  -13.2721   18.7666 C   0  0  0  0  0  0  0  0  0  0  0  0
    6.4981  -13.6470   18.1091 O   0  0  0  0  0  0  0  0  0  0  0  0
    8.6859  -14.1270   18.8424 C   0  0  0  0  0  0  0  0  0  0  0  0
    9.7513  -13.4896   19.7321 C   0  0  0  0  0  0  0  0  0  0  0  0
   11.0050  -14.2444   19.8556 C   0  0  2  0  0  0  0  0  0  0  0  0
   11.9095  -14.4438   18.8129 N   0  0  0  0  0  0  0  0  0  0  0  0
   10.8687  -15.4004   20.7423 C   0  0  0  0  0  0  0  0  0  0  0  0
   10.8875  -16.5536   20.2233 O   0  0  0  0  0  0  0  0  0  0  0  0
   15.0206  -18.0134   23.1045 N   0  0  0  0  0  0  0  0  0  0  0  0
   14.7534  -16.7285   23.7044 C   0  0  0  0  0  0  0  0  0  0  0  0
   15.7194  -16.0880   24.1505 O   0  0  0  0  0  0  0  0  0  0  0  0
   13.3546  -16.2279   23.7642 C   0  0  0  0  0  0  0  0  0  0  0  0
   12.3458  -17.0112   23.0055 C   0  0  0  0  0  0  0  0  0  0  0  0
   10.9568  -16.5214   23.0082 C   0  0  2  0  0  0  0  0  0  0  0  0
   10.7109  -15.3799   22.1553 N   0  0  0  0  0  0  0  0  0  0  0  0
   10.6273  -16.1813   24.4391 C   0  0  0  0  0  0  0  0  0  0  0  0
   10.6318  -17.0914   25.4627 O   0  0  0  0  0  0  0  0  0  0  0  0
   10.3304  -14.9707   24.6846 O   0  0  0  0  0  0  0  0  0  0  0  0
  2  1  1  1
  2  3  1  0
  3  4  1  0
  4  8  1  0
  4  5  2  0
  5  6  1  0
  7  6  1  0
  8  7  2  0
  9  2  1  0
 10  9  2  0
 11 12  1  0
 12 13  2  0
 14 12  1  0
 14 15  1  0
 16 15  1  6
 16 17  1  0
 17  9  1  0
 18 26  1  0
 18 16  1  0
 19 18  2  0
 21 20  1  0
 22 21  2  0
 23 21  1  0
 24 23  1  0
 25 24  1  1
 25 26  1  0
 27 25  1  0
 28 27  1  0
 29 27  2  0
M  END
$$$$
