HQQ.pdb
     RDKit          3D

 29 29  0  0  1  0  0  0  0  0999 V2000
    5.6961  -15.8165   20.2503 N   0  0  0  0  0  0  0  0  0  0  0  0
    6.9549  -15.9244   20.8857 C   0  0  1  0  0  0  0  0  0  0  0  0
    7.8408  -14.7190   20.7278 C   0  0  0  0  0  0  0  0  0  0  0  0
    8.0905  -14.3218   19.3269 C   0  0  0  0  0  0  0  0  0  0  0  0
    7.6198  -13.2533   18.6084 C   0  0  0  0  0  0  0  0  0  0  0  0
    8.1275  -13.2758   17.3496 N   0  0  0  0  0  0  0  0  0  0  0  0
    8.9126  -14.3630   17.2956 C   0  0  0  0  0  0  0  0  0  0  0  0
    8.9096  -15.0104   18.4681 N   0  0  0  0  0  0  0  0  0  0  0  0
    6.9296  -16.2387   22.3375 C   0  0  0  0  0  0  0  0  0  0  0  0
    6.1935  -15.5077   23.0295 O   0  0  0  0  0  0  0  0  0  0  0  0
    7.5925  -21.5995   25.6884 N   0  0  0  0  0  0  0  0  0  0  0  0
    7.6427  -20.6139   26.6895 C   0  0  0  0  0  0  0  0  0  0  0  0
    7.6947  -20.9471   27.8871 O   0  0  0  0  0  0  0  0  0  0  0  0
    7.6371  -19.1844   26.3237 C   0  0  0  0  0  0  0  0  0  0  0  0
    7.6141  -19.0122   24.8062 C   0  0  0  0  0  0  0  0  0  0  0  0
    7.6441  -17.6241   24.3277 C   0  0  2  0  0  0  0  0  0  0  0  0
    7.6401  -17.2551   22.9828 N   0  0  0  0  0  0  0  0  0  0  0  0
    8.4827  -16.7683   25.1677 C   0  0  0  0  0  0  0  0  0  0  0  0
    9.7186  -16.7056   24.9062 O   0  0  0  0  0  0  0  0  0  0  0  0
    6.7833  -11.6427   28.5413 N   0  0  0  0  0  0  0  0  0  0  0  0
    6.4285  -12.1122   27.2237 C   0  0  0  0  0  0  0  0  0  0  0  0
    5.5238  -11.5111   26.6214 O   0  0  0  0  0  0  0  0  0  0  0  0
    7.1479  -13.2782   26.6463 C   0  0  0  0  0  0  0  0  0  0  0  0
    8.2556  -13.8351   27.4647 C   0  0  0  0  0  0  0  0  0  0  0  0
    8.9227  -15.0530   26.9740 C   0  0  2  0  0  0  0  0  0  0  0  0
    8.0618  -15.9801   26.2738 N   0  0  0  0  0  0  0  0  0  0  0  0
    9.5330  -15.7202   28.1798 C   0  0  0  0  0  0  0  0  0  0  0  0
    9.2594  -17.0063   28.5634 O   0  0  0  0  0  0  0  0  0  0  0  0
   10.3472  -15.0266   28.8655 O   0  0  0  0  0  0  0  0  0  0  0  0
  2  1  1  1
  2  3  1  0
  3  4  1  0
  4  8  1  0
  4  5  2  0
  5  6  1  0
  7  6  1  0
  8  7  2  0
  9  2  1  0
 10  9  2  0
 11 12  1  0
 12 13  2  0
 14 12  1  0
 14 15  1  0
 16 15  1  6
 16 17  1  0
 17  9  1  0
 18 26  1  0
 18 16  1  0
 19 18  2  0
 21 20  1  0
 22 21  2  0
 23 21  1  0
 24 23  1  0
 25 24  1  1
 25 26  1  0
 27 25  1  0
 28 27  1  0
 29 27  2  0
M  END
$$$$
