HQQ.pdb
     RDKit          3D

 29 29  0  0  1  0  0  0  0  0999 V2000
   14.7152  -13.9668   17.9251 N   0  0  0  0  0  0  0  0  0  0  0  0
   13.5688  -14.7920   17.8558 C   0  0  1  0  0  0  0  0  0  0  0  0
   13.8622  -16.2565   17.6768 C   0  0  0  0  0  0  0  0  0  0  0  0
   14.6086  -16.5854   16.4449 C   0  0  0  0  0  0  0  0  0  0  0  0
   15.1165  -15.7684   15.4682 C   0  0  0  0  0  0  0  0  0  0  0  0
   15.7472  -16.5081   14.5206 N   0  0  0  0  0  0  0  0  0  0  0  0
   15.6254  -17.7843   14.9177 C   0  0  0  0  0  0  0  0  0  0  0  0
   14.9464  -17.8612   16.0696 N   0  0  0  0  0  0  0  0  0  0  0  0
   12.6205  -14.6907   18.9949 C   0  0  0  0  0  0  0  0  0  0  0  0
   13.0879  -14.1881   20.0360 O   0  0  0  0  0  0  0  0  0  0  0  0
    7.7177  -12.0620   19.9609 N   0  0  0  0  0  0  0  0  0  0  0  0
    7.4793  -12.9874   20.9918 C   0  0  0  0  0  0  0  0  0  0  0  0
    6.8290  -12.6449   21.9957 O   0  0  0  0  0  0  0  0  0  0  0  0
    7.9956  -14.3655   20.8853 C   0  0  0  0  0  0  0  0  0  0  0  0
    8.9128  -14.5096   19.6725 C   0  0  0  0  0  0  0  0  0  0  0  0
   10.2976  -14.8974   19.9706 C   0  0  2  0  0  0  0  0  0  0  0  0
   11.2835  -15.0990   19.0051 N   0  0  0  0  0  0  0  0  0  0  0  0
   10.3802  -15.8290   21.0960 C   0  0  0  0  0  0  0  0  0  0  0  0
    9.7058  -16.8972   21.0347 O   0  0  0  0  0  0  0  0  0  0  0  0
    8.2237  -14.1689   25.3981 N   0  0  0  0  0  0  0  0  0  0  0  0
    8.5922  -15.4164   26.0228 C   0  0  0  0  0  0  0  0  0  0  0  0
    7.8688  -15.8380   26.9401 O   0  0  0  0  0  0  0  0  0  0  0  0
    9.8037  -16.1383   25.5519 C   0  0  0  0  0  0  0  0  0  0  0  0
    9.7964  -16.5725   24.1313 C   0  0  0  0  0  0  0  0  0  0  0  0
   11.0806  -16.5731   23.4100 C   0  0  2  0  0  0  0  0  0  0  0  0
   11.1474  -15.6700   22.2826 N   0  0  0  0  0  0  0  0  0  0  0  0
   11.3132  -17.9907   22.9544 C   0  0  0  0  0  0  0  0  0  0  0  0
   11.4813  -19.0505   23.8056 O   0  0  0  0  0  0  0  0  0  0  0  0
   11.3517  -18.1885   21.6999 O   0  0  0  0  0  0  0  0  0  0  0  0
  2  1  1  1
  2  3  1  0
  3  4  1  0
  4  8  1  0
  4  5  2  0
  5  6  1  0
  7  6  1  0
  8  7  2  0
  9  2  1  0
 10  9  2  0
 11 12  1  0
 12 13  2  0
 14 12  1  0
 14 15  1  0
 16 15  1  6
 16 17  1  0
 17  9  1  0
 18 26  1  0
 18 16  1  0
 19 18  2  0
 21 20  1  0
 22 21  2  0
 23 21  1  0
 24 23  1  0
 25 24  1  6
 25 26  1  0
 27 25  1  0
 28 27  1  0
 29 27  2  0
M  END
$$$$
