HQQ.pdb
     RDKit          3D

 29 29  0  0  1  0  0  0  0  0999 V2000
   12.5278  -16.2376   18.0277 N   0  0  0  0  0  0  0  0  0  0  0  0
   12.9708  -15.9268   19.3343 C   0  0  1  0  0  0  0  0  0  0  0  0
   13.3549  -14.4869   19.5387 C   0  0  0  0  0  0  0  0  0  0  0  0
   14.6485  -14.1065   18.9347 C   0  0  0  0  0  0  0  0  0  0  0  0
   15.5901  -14.8708   18.2955 C   0  0  0  0  0  0  0  0  0  0  0  0
   16.6242  -14.0929   17.8851 N   0  0  0  0  0  0  0  0  0  0  0  0
   16.3156  -12.8461   18.2746 C   0  0  0  0  0  0  0  0  0  0  0  0
   15.1353  -12.8240   18.9073 N   0  0  0  0  0  0  0  0  0  0  0  0
   12.0406  -16.2734   20.4397 C   0  0  0  0  0  0  0  0  0  0  0  0
   10.8835  -15.8227   20.3253 O   0  0  0  0  0  0  0  0  0  0  0  0
   10.4970  -21.5506   23.0686 N   0  0  0  0  0  0  0  0  0  0  0  0
   10.1889  -20.9918   21.8160 C   0  0  0  0  0  0  0  0  0  0  0  0
    9.6169  -21.6807   20.9523 O   0  0  0  0  0  0  0  0  0  0  0  0
   10.5392  -19.5885   21.5237 C   0  0  0  0  0  0  0  0  0  0  0  0
   11.1022  -18.8994   22.7651 C   0  0  0  0  0  0  0  0  0  0  0  0
   11.4969  -17.4965   22.5843 C   0  0  2  0  0  0  0  0  0  0  0  0
   12.3384  -17.0402   21.5700 N   0  0  0  0  0  0  0  0  0  0  0  0
   11.6915  -16.8085   23.8610 C   0  0  0  0  0  0  0  0  0  0  0  0
   12.7945  -16.2220   24.0586 O   0  0  0  0  0  0  0  0  0  0  0  0
    9.2407  -12.2571   26.9819 N   0  0  0  0  0  0  0  0  0  0  0  0
    8.3719  -13.4022   26.8543 C   0  0  0  0  0  0  0  0  0  0  0  0
    7.1487  -13.2121   26.9544 O   0  0  0  0  0  0  0  0  0  0  0  0
    8.9642  -14.7440   26.6111 C   0  0  0  0  0  0  0  0  0  0  0  0
   10.4366  -14.7847   26.4182 C   0  0  0  0  0  0  0  0  0  0  0  0
   11.0623  -16.1012   26.2068 C   0  0  2  0  0  0  0  0  0  0  0  0
   10.7636  -16.7212   24.9350 N   0  0  0  0  0  0  0  0  0  0  0  0
   10.5946  -16.9821   27.3367 C   0  0  0  0  0  0  0  0  0  0  0  0
   10.9568  -16.8050   28.6457 O   0  0  0  0  0  0  0  0  0  0  0  0
    9.8185  -17.9402   27.0304 O   0  0  0  0  0  0  0  0  0  0  0  0
  2  1  1  6
  2  3  1  0
  3  4  1  0
  4  8  1  0
  4  5  2  0
  5  6  1  0
  7  6  1  0
  8  7  2  0
  9  2  1  0
 10  9  2  0
 11 12  1  0
 12 13  2  0
 14 12  1  0
 14 15  1  0
 16 15  1  1
 16 17  1  0
 17  9  1  0
 18 26  1  0
 18 16  1  0
 19 18  2  0
 21 20  1  0
 22 21  2  0
 23 21  1  0
 24 23  1  0
 25 24  1  6
 25 26  1  0
 27 25  1  0
 28 27  1  0
 29 27  2  0
M  END
$$$$
