HQQ.pdb
     RDKit          3D

 29 29  0  0  1  0  0  0  0  0999 V2000
    9.4480  -16.9294   10.0273 N   0  0  0  0  0  0  0  0  0  0  0  0
   10.6043  -16.8517   10.8379 C   0  0  1  0  0  0  0  0  0  0  0  0
   10.7530  -15.5595   11.5933 C   0  0  0  0  0  0  0  0  0  0  0  0
   10.8773  -14.3611   10.7382 C   0  0  0  0  0  0  0  0  0  0  0  0
   10.8772  -14.2394    9.3727 C   0  0  0  0  0  0  0  0  0  0  0  0
   11.0020  -12.9346    9.0192 N   0  0  0  0  0  0  0  0  0  0  0  0
   11.0793  -12.2532   10.1729 C   0  0  0  0  0  0  0  0  0  0  0  0
   11.0073  -13.0835   11.2213 N   0  0  0  0  0  0  0  0  0  0  0  0
   10.7799  -17.9413   11.8325 C   0  0  0  0  0  0  0  0  0  0  0  0
    9.7385  -18.3087   12.4117 O   0  0  0  0  0  0  0  0  0  0  0  0
   11.8553  -23.6811   12.3821 N   0  0  0  0  0  0  0  0  0  0  0  0
   11.5445  -22.8835   11.2671 C   0  0  0  0  0  0  0  0  0  0  0  0
   11.0545  -23.4036   10.2486 O   0  0  0  0  0  0  0  0  0  0  0  0
   11.7950  -21.4298   11.3022 C   0  0  0  0  0  0  0  0  0  0  0  0
   12.4498  -21.0232   12.6209 C   0  0  0  0  0  0  0  0  0  0  0  0
   12.2091  -19.6379   13.0447 C   0  0  2  0  0  0  0  0  0  0  0  0
   11.9787  -18.5762   12.1703 N   0  0  0  0  0  0  0  0  0  0  0  0
   13.0090  -19.2711   14.2138 C   0  0  0  0  0  0  0  0  0  0  0  0
   13.9715  -18.4676   14.0478 O   0  0  0  0  0  0  0  0  0  0  0  0
   12.1797  -20.4653   20.5543 N   0  0  0  0  0  0  0  0  0  0  0  0
   13.3264  -19.5908   20.5003 C   0  0  0  0  0  0  0  0  0  0  0  0
   13.8069  -19.2025   21.5777 O   0  0  0  0  0  0  0  0  0  0  0  0
   13.8804  -19.1947   19.1786 C   0  0  0  0  0  0  0  0  0  0  0  0
   13.1751  -19.7302   17.9859 C   0  0  0  0  0  0  0  0  0  0  0  0
   13.6528  -19.3025   16.6599 C   0  0  2  0  0  0  0  0  0  0  0  0
   12.8290  -19.7253   15.5492 N   0  0  0  0  0  0  0  0  0  0  0  0
   15.0478  -19.8532   16.5112 C   0  0  0  0  0  0  0  0  0  0  0  0
   16.1698  -19.2377   16.9994 O   0  0  0  0  0  0  0  0  0  0  0  0
   15.1635  -20.9562   15.8913 O   0  0  0  0  0  0  0  0  0  0  0  0
  2  1  1  1
  2  3  1  0
  3  4  1  0
  4  8  1  0
  4  5  2  0
  5  6  1  0
  7  6  1  0
  8  7  2  0
  9  2  1  0
 10  9  2  0
 11 12  1  0
 12 13  2  0
 14 12  1  0
 14 15  1  0
 16 15  1  6
 16 17  1  0
 17  9  1  0
 18 26  1  0
 18 16  1  0
 19 18  2  0
 21 20  1  0
 22 21  2  0
 23 21  1  0
 24 23  1  0
 25 24  1  1
 25 26  1  0
 27 25  1  0
 28 27  1  0
 29 27  2  0
M  END
$$$$
