HQQ.pdb
     RDKit          3D

 29 29  0  0  1  0  0  0  0  0999 V2000
    8.4421  -17.3136   19.5074 N   0  0  0  0  0  0  0  0  0  0  0  0
    8.8478  -16.3253   20.4341 C   0  0  1  0  0  0  0  0  0  0  0  0
    8.0163  -15.0719   20.4161 C   0  0  0  0  0  0  0  0  0  0  0  0
    8.0325  -14.3446   19.1303 C   0  0  0  0  0  0  0  0  0  0  0  0
    8.5898  -14.6832   17.9244 C   0  0  0  0  0  0  0  0  0  0  0  0
    8.3434  -13.7138   17.0064 N   0  0  0  0  0  0  0  0  0  0  0  0
    7.6322  -12.7766   17.6522 C   0  0  0  0  0  0  0  0  0  0  0  0
    7.4305  -13.1282   18.9287 N   0  0  0  0  0  0  0  0  0  0  0  0
    8.9286  -16.7544   21.8541 C   0  0  0  0  0  0  0  0  0  0  0  0
    7.8856  -17.2530   22.3216 O   0  0  0  0  0  0  0  0  0  0  0  0
   13.1398  -19.8816   25.1769 N   0  0  0  0  0  0  0  0  0  0  0  0
   12.2787  -19.4370   26.1951 C   0  0  0  0  0  0  0  0  0  0  0  0
   12.4265  -19.8518   27.3588 O   0  0  0  0  0  0  0  0  0  0  0  0
   11.2012  -18.4766   25.8883 C   0  0  0  0  0  0  0  0  0  0  0  0
   11.2312  -18.0796   24.4138 C   0  0  0  0  0  0  0  0  0  0  0  0
   10.2154  -17.1022   24.0022 C   0  0  2  0  0  0  0  0  0  0  0  0
   10.0415  -16.6515   22.6939 N   0  0  0  0  0  0  0  0  0  0  0  0
   10.0063  -16.0643   25.0122 C   0  0  0  0  0  0  0  0  0  0  0  0
   10.9507  -15.2535   25.2364 O   0  0  0  0  0  0  0  0  0  0  0  0
    6.5078  -12.8627   24.9793 N   0  0  0  0  0  0  0  0  0  0  0  0
    7.0598  -12.3709   26.2185 C   0  0  0  0  0  0  0  0  0  0  0  0
    7.6192  -11.2623   26.2011 O   0  0  0  0  0  0  0  0  0  0  0  0
    6.9393  -13.1963   27.4493 C   0  0  0  0  0  0  0  0  0  0  0  0
    7.3737  -14.6122   27.3334 C   0  0  0  0  0  0  0  0  0  0  0  0
    8.7401  -14.8706   26.8482 C   0  0  2  0  0  0  0  0  0  0  0  0
    8.8369  -15.8556   25.7940 N   0  0  0  0  0  0  0  0  0  0  0  0
    9.5418  -15.3111   28.0460 C   0  0  0  0  0  0  0  0  0  0  0  0
   10.1430  -14.4487   28.9239 O   0  0  0  0  0  0  0  0  0  0  0  0
    9.6521  -16.5633   28.2303 O   0  0  0  0  0  0  0  0  0  0  0  0
  2  1  1  6
  2  3  1  0
  3  4  1  0
  4  8  1  0
  4  5  2  0
  5  6  1  0
  7  6  1  0
  8  7  2  0
  9  2  1  0
 10  9  2  0
 11 12  1  0
 12 13  2  0
 14 12  1  0
 14 15  1  0
 16 15  1  6
 16 17  1  0
 17  9  1  0
 18 26  1  0
 18 16  1  0
 19 18  2  0
 21 20  1  0
 22 21  2  0
 23 21  1  0
 24 23  1  0
 25 24  1  1
 25 26  1  0
 27 25  1  0
 28 27  1  0
 29 27  2  0
M  END
$$$$
