QLD.pdb
     RDKit          3D

 26 25  0  0  1  0  0  0  0  0999 V2000
   16.6157  -14.3133  -14.3476 N   0  0  0  0  0  0  0  0  0  0  0  0
   16.3713  -14.1982  -15.7612 C   0  0  0  0  0  0  0  0  0  0  0  0
   15.5874  -15.0314  -16.2962 O   0  0  0  0  0  0  0  0  0  0  0  0
   17.0175  -13.1356  -16.5706 C   0  0  0  0  0  0  0  0  0  0  0  0
   17.8032  -12.2512  -15.6393 C   0  0  0  0  0  0  0  0  0  0  0  0
   18.4050  -11.0574  -16.3242 C   0  0  2  0  0  0  0  0  0  0  0  0
   19.0765  -11.5434  -17.5145 N   0  0  0  0  0  0  0  0  0  0  0  0
   19.2984  -10.2552  -15.4685 C   0  0  0  0  0  0  0  0  0  0  0  0
   18.9220   -9.8085  -14.3494 O   0  0  0  0  0  0  0  0  0  0  0  0
   24.8723  -10.9852  -15.7130 C   0  0  0  0  0  0  0  0  0  0  0  0
   23.4526  -10.8320  -15.2578 C   0  0  1  0  0  0  0  0  0  0  0  0
   23.4514  -11.1863  -13.7634 C   0  0  0  0  0  0  0  0  0  0  0  0
   23.0001   -9.4310  -15.3884 C   0  0  0  0  0  0  0  0  0  0  0  0
   21.5561   -9.1459  -15.1841 C   0  0  2  0  0  0  0  0  0  0  0  0
   20.6265   -9.9613  -15.8887 N   0  0  0  0  0  0  0  0  0  0  0  0
   21.3637   -7.6774  -15.4645 C   0  0  0  0  0  0  0  0  0  0  0  0
   22.0318   -6.8557  -14.7886 O   0  0  0  0  0  0  0  0  0  0  0  0
   20.4689   -7.1976  -16.4500 N   0  0  0  0  0  0  0  0  0  0  0  0
   20.2500   -5.7360  -16.5440 C   0  0  1  0  0  0  0  0  0  0  0  0
   20.7119   -5.3245  -17.9150 C   0  0  0  0  0  0  0  0  0  0  0  0
   20.4723   -3.9140  -18.2548 C   0  0  0  0  0  0  0  0  0  0  0  0
   20.0263   -3.1066  -17.4152 O   0  0  0  0  0  0  0  0  0  0  0  0
   18.7618   -5.5352  -16.4609 C   0  0  0  0  0  0  0  0  0  0  0  0
   18.2057   -4.6418  -15.5241 O   0  0  0  0  0  0  0  0  0  0  0  0
   20.7470   -3.4615  -19.5414 O   0  0  0  0  0  0  0  0  0  0  0  0
   17.9478   -6.1301  -17.1961 O   0  0  0  0  0  0  0  0  0  0  0  0
  2  1  1  0
  3  2  2  0
  4  2  1  0
  5  6  1  0
  5  4  1  0
  6  8  1  0
  6  7  1  6
  8  9  2  0
 11 10  1  1
 11 12  1  0
 13 11  1  0
 14 13  1  6
 15  8  1  0
 15 14  1  0
 16 14  1  0
 16 17  2  0
 18 16  1  0
 19 23  1  0
 19 18  1  0
 19 20  1  6
 21 20  1  0
 21 25  1  0
 22 21  2  0
 23 24  1  0
 26 23  2  0
M  END
$$$$
