QLD.pdb
     RDKit          3D

 26 25  0  0  1  0  0  0  0  0999 V2000
   22.0509  -16.5544  -14.5229 N   0  0  0  0  0  0  0  0  0  0  0  0
   21.1726  -16.7998  -15.6363 C   0  0  0  0  0  0  0  0  0  0  0  0
   20.3551  -17.7582  -15.5454 O   0  0  0  0  0  0  0  0  0  0  0  0
   21.2210  -15.9562  -16.8561 C   0  0  0  0  0  0  0  0  0  0  0  0
   22.3216  -14.9439  -16.6810 C   0  0  0  0  0  0  0  0  0  0  0  0
   22.0403  -13.6391  -17.3700 C   0  0  2  0  0  0  0  0  0  0  0  0
   22.8761  -13.5945  -18.5546 N   0  0  0  0  0  0  0  0  0  0  0  0
   22.2215  -12.4517  -16.5149 C   0  0  0  0  0  0  0  0  0  0  0  0
   21.6034  -12.3191  -15.4222 O   0  0  0  0  0  0  0  0  0  0  0  0
   27.2197   -9.9837  -16.1393 C   0  0  0  0  0  0  0  0  0  0  0  0
   25.8908  -10.6552  -15.9679 C   0  0  1  0  0  0  0  0  0  0  0  0
   25.8249  -11.0830  -14.4942 C   0  0  0  0  0  0  0  0  0  0  0  0
   24.7814   -9.7097  -16.2121 C   0  0  0  0  0  0  0  0  0  0  0  0
   23.3936  -10.2373  -16.1519 C   0  0  2  0  0  0  0  0  0  0  0  0
   23.1113  -11.4112  -16.9056 N   0  0  0  0  0  0  0  0  0  0  0  0
   22.4816   -9.0908  -16.5070 C   0  0  0  0  0  0  0  0  0  0  0  0
   22.4765   -8.6884  -17.6971 O   0  0  0  0  0  0  0  0  0  0  0  0
   21.6413   -8.4600  -15.5594 N   0  0  0  0  0  0  0  0  0  0  0  0
   20.7096   -7.4131  -16.0379 C   0  0  1  0  0  0  0  0  0  0  0  0
   19.3862   -7.6882  -15.3780 C   0  0  0  0  0  0  0  0  0  0  0  0
   18.3315   -6.7046  -15.6653 C   0  0  0  0  0  0  0  0  0  0  0  0
   17.6860   -6.1533  -14.7514 O   0  0  0  0  0  0  0  0  0  0  0  0
   21.2453   -6.1108  -15.5098 C   0  0  0  0  0  0  0  0  0  0  0  0
   20.8168   -4.8823  -16.0504 O   0  0  0  0  0  0  0  0  0  0  0  0
   18.0406   -6.3757  -16.9855 O   0  0  0  0  0  0  0  0  0  0  0  0
   22.0797   -6.0376  -14.5849 O   0  0  0  0  0  0  0  0  0  0  0  0
  2  1  1  0
  3  2  2  0
  4  2  1  0
  5  6  1  0
  5  4  1  0
  6  8  1  0
  6  7  1  6
  8  9  2  0
 11 10  1  1
 11 12  1  0
 13 11  1  0
 14 13  1  6
 15  8  1  0
 15 14  1  0
 16 14  1  0
 16 17  2  0
 18 16  1  0
 19 23  1  0
 19 18  1  0
 19 20  1  1
 21 20  1  0
 21 25  1  0
 22 21  2  0
 23 24  1  0
 26 23  2  0
M  END
$$$$
