QLD.pdb
     RDKit          3D

 26 25  0  0  1  0  0  0  0  0999 V2000
   20.7516   -9.8281  -20.2276 N   0  0  0  0  0  0  0  0  0  0  0  0
   19.9842  -10.9882  -20.5970 C   0  0  0  0  0  0  0  0  0  0  0  0
   19.8482  -11.2409  -21.8269 O   0  0  0  0  0  0  0  0  0  0  0  0
   19.3692  -11.8642  -19.5693 C   0  0  0  0  0  0  0  0  0  0  0  0
   19.6239  -11.2501  -18.2185 C   0  0  0  0  0  0  0  0  0  0  0  0
   20.7921  -11.8636  -17.5004 C   0  0  2  0  0  0  0  0  0  0  0  0
   20.3478  -13.1425  -16.9801 N   0  0  0  0  0  0  0  0  0  0  0  0
   21.3754  -11.0072  -16.4515 C   0  0  0  0  0  0  0  0  0  0  0  0
   20.8244  -10.8685  -15.3243 O   0  0  0  0  0  0  0  0  0  0  0  0
   26.9533  -10.0952  -16.1927 C   0  0  0  0  0  0  0  0  0  0  0  0
   25.5015  -10.4398  -16.0516 C   0  0  1  0  0  0  0  0  0  0  0  0
   25.3889  -11.2560  -14.7555 C   0  0  0  0  0  0  0  0  0  0  0  0
   24.6789   -9.2226  -15.8898 C   0  0  0  0  0  0  0  0  0  0  0  0
   23.2057   -9.3885  -15.7892 C   0  0  2  0  0  0  0  0  0  0  0  0
   22.5922  -10.3067  -16.6871 N   0  0  0  0  0  0  0  0  0  0  0  0
   22.6099   -8.0069  -15.8805 C   0  0  0  0  0  0  0  0  0  0  0  0
   22.6600   -7.4154  -16.9877 O   0  0  0  0  0  0  0  0  0  0  0  0
   22.0032   -7.3610  -14.7775 N   0  0  0  0  0  0  0  0  0  0  0  0
   21.4982   -5.9816  -14.9656 C   0  0  1  0  0  0  0  0  0  0  0  0
   20.0934   -5.9665  -14.4282 C   0  0  0  0  0  0  0  0  0  0  0  0
   19.0965   -6.6392  -15.2742 C   0  0  0  0  0  0  0  0  0  0  0  0
   19.0344   -6.4305  -16.5024 O   0  0  0  0  0  0  0  0  0  0  0  0
   22.3535   -5.1060  -14.0918 C   0  0  0  0  0  0  0  0  0  0  0  0
   22.2169   -3.7040  -14.1215 O   0  0  0  0  0  0  0  0  0  0  0  0
   18.1973   -7.5313  -14.6986 O   0  0  0  0  0  0  0  0  0  0  0  0
   23.2141   -5.5529  -13.3066 O   0  0  0  0  0  0  0  0  0  0  0  0
  2  1  1  0
  3  2  2  0
  4  2  1  0
  5  6  1  0
  5  4  1  0
  6  8  1  0
  6  7  1  1
  8  9  2  0
 11 10  1  1
 11 12  1  0
 13 11  1  0
 14 13  1  6
 15  8  1  0
 15 14  1  0
 16 14  1  0
 16 17  2  0
 18 16  1  0
 19 23  1  0
 19 18  1  0
 19 20  1  1
 21 20  1  0
 21 25  1  0
 22 21  2  0
 23 24  1  0
 26 23  2  0
M  END
$$$$
