QLD.pdb
     RDKit          3D

 26 25  0  0  1  0  0  0  0  0999 V2000
   29.5517  -17.7540  -16.4341 N   0  0  0  0  0  0  0  0  0  0  0  0
   28.9423  -18.3251  -17.6062 C   0  0  0  0  0  0  0  0  0  0  0  0
   29.3580  -17.9425  -18.7357 O   0  0  0  0  0  0  0  0  0  0  0  0
   27.8586  -19.3329  -17.4974 C   0  0  0  0  0  0  0  0  0  0  0  0
   27.6564  -19.6463  -16.0388 C   0  0  0  0  0  0  0  0  0  0  0  0
   26.2087  -19.7417  -15.6494 C   0  0  2  0  0  0  0  0  0  0  0  0
   25.8500  -18.4790  -15.0322 N   0  0  0  0  0  0  0  0  0  0  0  0
   25.8884  -20.8944  -14.7875 C   0  0  0  0  0  0  0  0  0  0  0  0
   26.0170  -22.0830  -15.1926 O   0  0  0  0  0  0  0  0  0  0  0  0
   26.1553  -20.1983   -9.2959 C   0  0  0  0  0  0  0  0  0  0  0  0
   26.2816  -20.4402  -10.7696 C   0  0  1  0  0  0  0  0  0  0  0  0
   27.7753  -20.6884  -11.0267 C   0  0  0  0  0  0  0  0  0  0  0  0
   25.5470  -21.6573  -11.1740 C   0  0  0  0  0  0  0  0  0  0  0  0
   25.0133  -21.7180  -12.5594 C   0  0  2  0  0  0  0  0  0  0  0  0
   25.4204  -20.6923  -13.4583 N   0  0  0  0  0  0  0  0  0  0  0  0
   23.5140  -21.8176  -12.4389 C   0  0  0  0  0  0  0  0  0  0  0  0
   23.0416  -22.6760  -11.6525 O   0  0  0  0  0  0  0  0  0  0  0  0
   22.6310  -20.9887  -13.1704 N   0  0  0  0  0  0  0  0  0  0  0  0
   21.1840  -21.3012  -13.1309 C   0  0  1  0  0  0  0  0  0  0  0  0
   20.4781  -20.0079  -12.8282 C   0  0  0  0  0  0  0  0  0  0  0  0
   19.0191  -20.1155  -12.6801 C   0  0  0  0  0  0  0  0  0  0  0  0
   18.4324  -21.2125  -12.7709 O   0  0  0  0  0  0  0  0  0  0  0  0
   20.8162  -21.7314  -14.5243 C   0  0  0  0  0  0  0  0  0  0  0  0
   19.7392  -22.6121  -14.7468 O   0  0  0  0  0  0  0  0  0  0  0  0
   18.2678  -18.9709  -12.4329 O   0  0  0  0  0  0  0  0  0  0  0  0
   21.4244  -21.3462  -15.5435 O   0  0  0  0  0  0  0  0  0  0  0  0
  2  1  1  0
  3  2  2  0
  4  2  1  0
  5  6  1  0
  5  4  1  0
  6  8  1  0
  6  7  1  1
  8  9  2  0
 11 10  1  1
 11 12  1  0
 13 11  1  0
 14 13  1  1
 15  8  1  0
 15 14  1  0
 16 14  1  0
 16 17  2  0
 18 16  1  0
 19 23  1  0
 19 18  1  0
 19 20  1  6
 21 20  1  0
 21 25  1  0
 22 21  2  0
 23 24  1  0
 26 23  2  0
M  END
$$$$
