QLD.pdb
     RDKit          3D

 26 25  0  0  1  0  0  0  0  0999 V2000
   27.3037  -26.4194  -15.9557 N   0  0  0  0  0  0  0  0  0  0  0  0
   26.9731  -25.5797  -17.0768 C   0  0  0  0  0  0  0  0  0  0  0  0
   25.8907  -25.8056  -17.6870 O   0  0  0  0  0  0  0  0  0  0  0  0
   27.8722  -24.4804  -17.5073 C   0  0  0  0  0  0  0  0  0  0  0  0
   27.6643  -23.3150  -16.5771 C   0  0  0  0  0  0  0  0  0  0  0  0
   26.3294  -22.6488  -16.7527 C   0  0  2  0  0  0  0  0  0  0  0  0
   26.3902  -21.8936  -17.9896 N   0  0  0  0  0  0  0  0  0  0  0  0
   25.9143  -21.8145  -15.6101 C   0  0  0  0  0  0  0  0  0  0  0  0
   25.7185  -22.3069  -14.4643 O   0  0  0  0  0  0  0  0  0  0  0  0
   26.8540  -16.2812  -16.1886 C   0  0  0  0  0  0  0  0  0  0  0  0
   26.7549  -17.7595  -15.9622 C   0  0  1  0  0  0  0  0  0  0  0  0
   28.1208  -18.1907  -15.4078 C   0  0  0  0  0  0  0  0  0  0  0  0
   25.7347  -18.0742  -14.9401 C   0  0  0  0  0  0  0  0  0  0  0  0
   25.3703  -19.5006  -14.7391 C   0  0  2  0  0  0  0  0  0  0  0  0
   25.7223  -20.4133  -15.7730 N   0  0  0  0  0  0  0  0  0  0  0  0
   23.8967  -19.5277  -14.4228 C   0  0  0  0  0  0  0  0  0  0  0  0
   23.4730  -18.7615  -13.5218 O   0  0  0  0  0  0  0  0  0  0  0  0
   22.9851  -20.3745  -15.0965 N   0  0  0  0  0  0  0  0  0  0  0  0
   21.5829  -20.4118  -14.6217 C   0  0  1  0  0  0  0  0  0  0  0  0
   20.8739  -19.2723  -15.3010 C   0  0  0  0  0  0  0  0  0  0  0  0
   19.4550  -19.1222  -14.9454 C   0  0  0  0  0  0  0  0  0  0  0  0
   18.5885  -19.9140  -15.3675 O   0  0  0  0  0  0  0  0  0  0  0  0
   21.0082  -21.7044  -15.1322 C   0  0  0  0  0  0  0  0  0  0  0  0
   20.1379  -22.4722  -14.3333 O   0  0  0  0  0  0  0  0  0  0  0  0
   19.0614  -18.0745  -14.1190 O   0  0  0  0  0  0  0  0  0  0  0  0
   21.2584  -22.1661  -16.2641 O   0  0  0  0  0  0  0  0  0  0  0  0
  2  1  1  0
  3  2  2  0
  4  2  1  0
  5  6  1  0
  5  4  1  0
  6  8  1  0
  6  7  1  6
  8  9  2  0
 11 10  1  1
 11 12  1  0
 13 11  1  0
 14 13  1  6
 15  8  1  0
 15 14  1  0
 16 14  1  0
 16 17  2  0
 18 16  1  0
 19 23  1  0
 19 18  1  0
 19 20  1  6
 21 20  1  0
 21 25  1  0
 22 21  2  0
 23 24  1  0
 26 23  2  0
M  END
$$$$
