QLD.pdb
     RDKit          3D

 26 25  0  0  1  0  0  0  0  0999 V2000
   22.1036  -27.4824  -12.4946 N   0  0  0  0  0  0  0  0  0  0  0  0
   21.5301  -27.5698  -13.8117 C   0  0  0  0  0  0  0  0  0  0  0  0
   21.4791  -28.7059  -14.3610 O   0  0  0  0  0  0  0  0  0  0  0  0
   21.0130  -26.3658  -14.5081 C   0  0  0  0  0  0  0  0  0  0  0  0
   21.2482  -25.1741  -13.6186 C   0  0  0  0  0  0  0  0  0  0  0  0
   21.7037  -23.9557  -14.3699 C   0  0  2  0  0  0  0  0  0  0  0  0
   22.9997  -24.2680  -14.9415 N   0  0  0  0  0  0  0  0  0  0  0  0
   21.7332  -22.7225  -13.5623 C   0  0  0  0  0  0  0  0  0  0  0  0
   20.7147  -22.3111  -12.9401 O   0  0  0  0  0  0  0  0  0  0  0  0
   26.3825  -20.8687  -10.9148 C   0  0  0  0  0  0  0  0  0  0  0  0
   24.9646  -21.2449  -11.2224 C   0  0  1  0  0  0  0  0  0  0  0  0
   24.1808  -21.0239   -9.9202 C   0  0  0  0  0  0  0  0  0  0  0  0
   24.3888  -20.3535  -12.2511 C   0  0  0  0  0  0  0  0  0  0  0  0
   23.0529  -20.7005  -12.8014 C   0  0  2  0  0  0  0  0  0  0  0  0
   22.9280  -21.9549  -13.4623 N   0  0  0  0  0  0  0  0  0  0  0  0
   22.6334  -19.5448  -13.6736 C   0  0  0  0  0  0  0  0  0  0  0  0
   23.3860  -19.2217  -14.6262 O   0  0  0  0  0  0  0  0  0  0  0  0
   21.4369  -18.8204  -13.4603 N   0  0  0  0  0  0  0  0  0  0  0  0
   20.7994  -18.1641  -14.6247 C   0  0  1  0  0  0  0  0  0  0  0  0
   20.5473  -19.2473  -15.6375 C   0  0  0  0  0  0  0  0  0  0  0  0
   19.8537  -18.8087  -16.8577 C   0  0  0  0  0  0  0  0  0  0  0  0
   18.8552  -19.4150  -17.2952 O   0  0  0  0  0  0  0  0  0  0  0  0
   19.4736  -17.6504  -14.1346 C   0  0  0  0  0  0  0  0  0  0  0  0
   18.8334  -18.2452  -13.0294 O   0  0  0  0  0  0  0  0  0  0  0  0
   20.3160  -17.6918  -17.5465 O   0  0  0  0  0  0  0  0  0  0  0  0
   18.8732  -16.6913  -14.6606 O   0  0  0  0  0  0  0  0  0  0  0  0
  2  1  1  0
  3  2  2  0
  4  2  1  0
  5  6  1  0
  5  4  1  0
  6  8  1  0
  6  7  1  1
  8  9  2  0
 11 10  1  1
 11 12  1  0
 13 11  1  0
 14 13  1  6
 15  8  1  0
 15 14  1  0
 16 14  1  0
 16 17  2  0
 18 16  1  0
 19 23  1  0
 19 18  1  0
 19 20  1  6
 21 20  1  0
 21 25  1  0
 22 21  2  0
 23 24  1  0
 26 23  2  0
M  END
$$$$
