QLD.pdb
     RDKit          3D

 26 25  0  0  1  0  0  0  0  0999 V2000
   26.3282  -33.5436   -5.2287 N   0  0  0  0  0  0  0  0  0  0  0  0
   25.6603  -33.7870   -6.4800 C   0  0  0  0  0  0  0  0  0  0  0  0
   25.0247  -32.8316   -7.0075 O   0  0  0  0  0  0  0  0  0  0  0  0
   25.7132  -35.1173   -7.1354 C   0  0  0  0  0  0  0  0  0  0  0  0
   26.6875  -35.9754   -6.3732 C   0  0  0  0  0  0  0  0  0  0  0  0
   28.0565  -36.0075   -6.9907 C   0  0  2  0  0  0  0  0  0  0  0  0
   28.0134  -36.9740   -8.0714 N   0  0  0  0  0  0  0  0  0  0  0  0
   29.1448  -36.2868   -6.0360 C   0  0  0  0  0  0  0  0  0  0  0  0
   29.4839  -37.4666   -5.7415 O   0  0  0  0  0  0  0  0  0  0  0  0
   33.7896  -33.1581   -5.9808 C   0  0  0  0  0  0  0  0  0  0  0  0
   32.7960  -34.2802   -5.9823 C   0  0  1  0  0  0  0  0  0  0  0  0
   33.6206  -35.5694   -6.1122 C   0  0  0  0  0  0  0  0  0  0  0  0
   32.0620  -34.3427   -4.7010 C   0  0  0  0  0  0  0  0  0  0  0  0
   30.9850  -35.3576   -4.5667 C   0  0  2  0  0  0  0  0  0  0  0  0
   29.8506  -35.2178   -5.4148 N   0  0  0  0  0  0  0  0  0  0  0  0
   30.6121  -35.3986   -3.1067 C   0  0  0  0  0  0  0  0  0  0  0  0
   29.8909  -34.4737   -2.6564 O   0  0  0  0  0  0  0  0  0  0  0  0
   31.0398  -36.4290   -2.2365 N   0  0  0  0  0  0  0  0  0  0  0  0
   30.5401  -36.4198   -0.8425 C   0  0  1  0  0  0  0  0  0  0  0  0
   30.8508  -37.7760   -0.2708 C   0  0  0  0  0  0  0  0  0  0  0  0
   30.0198  -38.1730    0.8755 C   0  0  0  0  0  0  0  0  0  0  0  0
   29.0599  -37.4750    1.2593 O   0  0  0  0  0  0  0  0  0  0  0  0
   31.3649  -35.3941   -0.1149 C   0  0  0  0  0  0  0  0  0  0  0  0
   30.8009  -34.6110    0.9115 O   0  0  0  0  0  0  0  0  0  0  0  0
   30.3045  -39.3540    1.5536 O   0  0  0  0  0  0  0  0  0  0  0  0
   32.5678  -35.1778   -0.3667 O   0  0  0  0  0  0  0  0  0  0  0  0
  2  1  1  0
  3  2  2  0
  4  2  1  0
  5  6  1  0
  5  4  1  0
  6  8  1  0
  6  7  1  6
  8  9  2  0
 11 10  1  1
 11 12  1  0
 13 11  1  0
 14 13  1  1
 15  8  1  0
 15 14  1  0
 16 14  1  0
 16 17  2  0
 18 16  1  0
 19 23  1  0
 19 18  1  0
 19 20  1  1
 21 20  1  0
 21 25  1  0
 22 21  2  0
 23 24  1  0
 26 23  2  0
M  END
$$$$
