QLD.pdb
     RDKit          3D

 26 25  0  0  1  0  0  0  0  0999 V2000
   18.1270  -14.6872  -14.6830 N   0  0  0  0  0  0  0  0  0  0  0  0
   17.5816  -14.4093  -15.9856 C   0  0  0  0  0  0  0  0  0  0  0  0
   16.8609  -15.2940  -16.5267 O   0  0  0  0  0  0  0  0  0  0  0  0
   17.8540  -13.1246  -16.6766 C   0  0  0  0  0  0  0  0  0  0  0  0
   18.7800  -12.3143  -15.8090 C   0  0  0  0  0  0  0  0  0  0  0  0
   19.2492  -11.0477  -16.4662 C   0  0  2  0  0  0  0  0  0  0  0  0
   19.9518  -11.4309  -17.6759 N   0  0  0  0  0  0  0  0  0  0  0  0
   20.0671  -10.1819  -15.5970 C   0  0  0  0  0  0  0  0  0  0  0  0
   19.6995   -9.8758  -14.4288 O   0  0  0  0  0  0  0  0  0  0  0  0
   25.6190  -10.3466  -15.9590 C   0  0  0  0  0  0  0  0  0  0  0  0
   24.1711  -10.3446  -15.5719 C   0  0  1  0  0  0  0  0  0  0  0  0
   24.1183  -10.9114  -14.1455 C   0  0  0  0  0  0  0  0  0  0  0  0
   23.6335   -8.9685  -15.5296 C   0  0  0  0  0  0  0  0  0  0  0  0
   22.1712   -8.8004  -15.3262 C   0  0  2  0  0  0  0  0  0  0  0  0
   21.3095   -9.6633  -16.0601 N   0  0  0  0  0  0  0  0  0  0  0  0
   21.8682   -7.3432  -15.5651 C   0  0  0  0  0  0  0  0  0  0  0  0
   22.4811   -6.4926  -14.8729 O   0  0  0  0  0  0  0  0  0  0  0  0
   20.9304   -6.9050  -16.5296 N   0  0  0  0  0  0  0  0  0  0  0  0
   20.6434   -5.4549  -16.6179 C   0  0  1  0  0  0  0  0  0  0  0  0
   20.9762   -5.0407  -18.0251 C   0  0  0  0  0  0  0  0  0  0  0  0
   20.7034   -3.6304  -18.3395 C   0  0  0  0  0  0  0  0  0  0  0  0
   20.2658   -2.8419  -17.4777 O   0  0  0  0  0  0  0  0  0  0  0  0
   19.1596   -5.3146  -16.4169 C   0  0  0  0  0  0  0  0  0  0  0  0
   18.5907   -4.0680  -16.0889 O   0  0  0  0  0  0  0  0  0  0  0  0
   20.9361   -3.1565  -19.6266 O   0  0  0  0  0  0  0  0  0  0  0  0
   18.3602   -6.2666  -16.5251 O   0  0  0  0  0  0  0  0  0  0  0  0
  2  1  1  0
  3  2  2  0
  4  2  1  0
  5  6  1  0
  5  4  1  0
  6  8  1  0
  6  7  1  6
  8  9  2  0
 11 10  1  1
 11 12  1  0
 13 11  1  0
 14 13  1  6
 15  8  1  0
 15 14  1  0
 16 14  1  0
 16 17  2  0
 18 16  1  0
 19 23  1  0
 19 18  1  0
 19 20  1  6
 21 20  1  0
 21 25  1  0
 22 21  2  0
 23 24  1  0
 26 23  2  0
M  END
$$$$
