QLD.pdb
     RDKit          3D

 26 25  0  0  1  0  0  0  0  0999 V2000
   20.6738  -25.1875  -14.2080 N   0  0  0  0  0  0  0  0  0  0  0  0
   20.8692  -24.0484  -15.0656 C   0  0  0  0  0  0  0  0  0  0  0  0
   21.8933  -24.0324  -15.8045 O   0  0  0  0  0  0  0  0  0  0  0  0
   19.9007  -22.9242  -15.0856 C   0  0  0  0  0  0  0  0  0  0  0  0
   20.6785  -21.6362  -15.0340 C   0  0  0  0  0  0  0  0  0  0  0  0
   21.1785  -21.3018  -13.6575 C   0  0  2  0  0  0  0  0  0  0  0  0
   20.1509  -20.5064  -13.0131 N   0  0  0  0  0  0  0  0  0  0  0  0
   22.4939  -20.6360  -13.6365 C   0  0  0  0  0  0  0  0  0  0  0  0
   22.6420  -19.4448  -14.0273 O   0  0  0  0  0  0  0  0  0  0  0  0
   26.4929  -21.7731   -9.7791 C   0  0  0  0  0  0  0  0  0  0  0  0
   25.4267  -21.2926  -10.7164 C   0  0  1  0  0  0  0  0  0  0  0  0
   25.1718  -19.8246  -10.3434 C   0  0  0  0  0  0  0  0  0  0  0  0
   25.8955  -21.3260  -12.1177 C   0  0  0  0  0  0  0  0  0  0  0  0
   24.9751  -20.8222  -13.1699 C   0  0  2  0  0  0  0  0  0  0  0  0
   23.6453  -21.3296  -13.1675 N   0  0  0  0  0  0  0  0  0  0  0  0
   25.6718  -21.0362  -14.4894 C   0  0  0  0  0  0  0  0  0  0  0  0
   25.4968  -22.1326  -15.0773 O   0  0  0  0  0  0  0  0  0  0  0  0
   26.5050  -20.0582  -15.0820 N   0  0  0  0  0  0  0  0  0  0  0  0
   26.6559  -20.0673  -16.5551 C   0  0  1  0  0  0  0  0  0  0  0  0
   25.3189  -19.6752  -17.1217 C   0  0  0  0  0  0  0  0  0  0  0  0
   25.2741  -19.5589  -18.5869 C   0  0  0  0  0  0  0  0  0  0  0  0
   26.2717  -19.8087  -19.2927 O   0  0  0  0  0  0  0  0  0  0  0  0
   27.6472  -18.9827  -16.8755 C   0  0  0  0  0  0  0  0  0  0  0  0
   28.1557  -18.1476  -15.8610 O   0  0  0  0  0  0  0  0  0  0  0  0
   24.0945  -19.1613  -19.2083 O   0  0  0  0  0  0  0  0  0  0  0  0
   28.0708  -18.7597  -18.0278 O   0  0  0  0  0  0  0  0  0  0  0  0
  2  1  1  0
  3  2  2  0
  4  2  1  0
  5  6  1  0
  5  4  1  0
  6  8  1  0
  6  7  1  6
  8  9  2  0
 11 10  1  1
 11 12  1  0
 13 11  1  0
 14 13  1  1
 15  8  1  0
 15 14  1  0
 16 14  1  0
 16 17  2  0
 18 16  1  0
 19 23  1  0
 19 18  1  0
 19 20  1  6
 21 20  1  0
 21 25  1  0
 22 21  2  0
 23 24  1  0
 26 23  2  0
M  END
$$$$
