FEP.pdb
     RDKit          3D

 28 29  0  0  1  0  0  0  0  0999 V2000
    7.8203  -17.2868   26.0382 N   0  0  0  0  0  0  0  0  0  0  0  0
    6.9072  -16.5396   25.2316 C   0  0  1  0  0  0  0  0  0  0  0  0
    5.9860  -15.7044   26.0614 C   0  0  0  0  0  0  0  0  0  0  0  0
    6.6744  -14.4528   26.4205 C   0  0  0  0  0  0  0  0  0  0  0  0
    6.1383  -13.2221   26.1118 C   0  0  0  0  0  0  0  0  0  0  0  0
    6.7915  -12.0442   26.4512 C   0  0  0  0  0  0  0  0  0  0  0  0
    7.9981  -12.0871   27.1086 C   0  0  0  0  0  0  0  0  0  0  0  0
    8.5474  -13.3086   27.4243 C   0  0  0  0  0  0  0  0  0  0  0  0
    7.8802  -14.4833   27.0774 C   0  0  0  0  0  0  0  0  0  0  0  0
    7.5841  -15.7776   24.1513 C   0  0  0  0  0  0  0  0  0  0  0  0
    6.9014  -14.9683   23.4746 O   0  0  0  0  0  0  0  0  0  0  0  0
    8.9579  -15.9247   23.8542 N   0  0  0  0  0  0  0  0  0  0  0  0
    9.5549  -15.2505   22.7149 C   0  0  1  0  0  0  0  0  0  0  0  0
   11.0098  -15.6049   22.6497 C   0  0  0  0  0  0  0  0  0  0  0  0
   11.8423  -15.0067   21.5993 C   0  0  0  0  0  0  0  0  0  0  0  0
   13.2440  -15.3424   21.4915 C   0  0  0  0  0  0  0  0  0  0  0  0
   13.8789  -15.9139   22.3941 O   0  0  0  0  0  0  0  0  0  0  0  0
    8.8226  -15.5031   21.4853 C   0  0  0  0  0  0  0  0  0  0  0  0
    8.1378  -16.5861   21.4238 O   0  0  0  0  0  0  0  0  0  0  0  0
   13.9200  -15.0125   20.3237 O   0  0  0  0  0  0  0  0  0  0  0  0
    8.7943  -14.6622   20.3499 N   0  0  0  0  0  0  0  0  0  0  0  0
    9.5337  -13.3769   20.2278 C   0  0  0  0  0  0  0  0  0  0  0  0
    8.7840  -12.5356   19.2514 C   0  0  0  0  0  0  0  0  0  0  0  0
    7.5280  -13.3426   18.9077 C   0  0  0  0  0  0  0  0  0  0  0  0
    8.1014  -14.7558   19.0893 C   0  0  1  0  0  0  0  0  0  0  0  0
    9.0384  -14.9640   17.9370 C   0  0  0  0  0  0  0  0  0  0  0  0
   10.2635  -14.8260   18.0982 O   0  0  0  0  0  0  0  0  0  0  0  0
    8.5624  -15.3095   16.6870 O   0  0  0  0  0  0  0  0  0  0  0  0
  2  1  1  1
  2  3  1  0
  3  4  1  0
  4  9  1  0
  5  4  2  0
  5  6  1  0
  6  7  2  0
  7  8  1  0
  9  8  2  0
 10 12  1  0
 10  2  1  0
 11 10  2  0
 13 12  1  0
 13 14  1  6
 14 15  1  0
 15 16  1  0
 16 17  2  0
 18 13  1  0
 19 18  2  0
 20 16  1  0
 21 18  1  0
 21 25  1  0
 22 23  1  0
 22 21  1  0
 23 24  1  0
 25 24  1  0
 26 28  1  0
 25 26  1  6
 27 26  2  0
M  END
$$$$
