FEP.pdb
     RDKit          3D

 28 29  0  0  1  0  0  0  0  0999 V2000
    6.9526  -15.5318   20.8653 N   0  0  0  0  0  0  0  0  0  0  0  0
    7.3275  -14.7559   22.0053 C   0  0  1  0  0  0  0  0  0  0  0  0
    6.1879  -13.9372   22.5211 C   0  0  0  0  0  0  0  0  0  0  0  0
    6.6195  -13.2420   23.7459 C   0  0  0  0  0  0  0  0  0  0  0  0
    6.1638  -13.6233   24.9886 C   0  0  0  0  0  0  0  0  0  0  0  0
    6.5724  -12.9642   26.1410 C   0  0  0  0  0  0  0  0  0  0  0  0
    7.4485  -11.9079   26.0600 C   0  0  0  0  0  0  0  0  0  0  0  0
    7.9131  -11.5144   24.8260 C   0  0  0  0  0  0  0  0  0  0  0  0
    7.4943  -12.1855   23.6772 C   0  0  0  0  0  0  0  0  0  0  0  0
    7.9982  -15.5635   23.0560 C   0  0  0  0  0  0  0  0  0  0  0  0
    7.3366  -16.4660   23.6276 O   0  0  0  0  0  0  0  0  0  0  0  0
    9.3435  -15.3595   23.4378 N   0  0  0  0  0  0  0  0  0  0  0  0
   10.0143  -16.2786   24.3402 C   0  0  1  0  0  0  0  0  0  0  0  0
   10.9251  -17.1626   23.5429 C   0  0  0  0  0  0  0  0  0  0  0  0
   11.7086  -18.1905   24.2384 C   0  0  0  0  0  0  0  0  0  0  0  0
   12.6549  -19.0089   23.5148 C   0  0  0  0  0  0  0  0  0  0  0  0
   12.4956  -19.3482   22.3299 O   0  0  0  0  0  0  0  0  0  0  0  0
   10.6651  -15.5870   25.4402 C   0  0  0  0  0  0  0  0  0  0  0  0
   11.6778  -14.8536   25.1532 O   0  0  0  0  0  0  0  0  0  0  0  0
   13.8008  -19.4403   24.1708 O   0  0  0  0  0  0  0  0  0  0  0  0
   10.2825  -15.6469   26.7993 N   0  0  0  0  0  0  0  0  0  0  0  0
    8.9889  -16.1916   27.2929 C   0  0  0  0  0  0  0  0  0  0  0  0
    8.7038  -15.5215   28.5940 C   0  0  0  0  0  0  0  0  0  0  0  0
    9.8241  -14.4914   28.7690 C   0  0  0  0  0  0  0  0  0  0  0  0
   10.9392  -15.2283   28.0123 C   0  0  1  0  0  0  0  0  0  0  0  0
   11.3221  -16.3876   28.8833 C   0  0  0  0  0  0  0  0  0  0  0  0
   11.9628  -16.1939   29.9311 O   0  0  0  0  0  0  0  0  0  0  0  0
   10.9736  -17.6798   28.5409 O   0  0  0  0  0  0  0  0  0  0  0  0
  2  1  1  6
  2  3  1  0
  3  4  1  0
  4  9  1  0
  5  4  2  0
  5  6  1  0
  6  7  2  0
  7  8  1  0
  9  8  2  0
 10 12  1  0
 10  2  1  0
 11 10  2  0
 13 12  1  0
 13 14  1  6
 14 15  1  0
 15 16  1  0
 16 17  2  0
 18 13  1  0
 19 18  2  0
 20 16  1  0
 21 18  1  0
 21 25  1  0
 22 23  1  0
 22 21  1  0
 23 24  1  0
 25 24  1  0
 26 28  1  0
 25 26  1  1
 27 26  2  0
M  END
$$$$
