FEP.pdb
     RDKit          3D

 28 29  0  0  1  0  0  0  0  0999 V2000
    7.5545  -18.0844   19.7856 N   0  0  0  0  0  0  0  0  0  0  0  0
    7.8000  -16.7534   20.2446 C   0  0  1  0  0  0  0  0  0  0  0  0
    7.1929  -15.7310   19.3385 C   0  0  0  0  0  0  0  0  0  0  0  0
    7.5383  -14.3893   19.8386 C   0  0  0  0  0  0  0  0  0  0  0  0
    8.6474  -13.7134   19.3796 C   0  0  0  0  0  0  0  0  0  0  0  0
    8.9701  -12.4488   19.8547 C   0  0  0  0  0  0  0  0  0  0  0  0
    8.1791  -11.8431   20.8021 C   0  0  0  0  0  0  0  0  0  0  0  0
    7.0676  -12.5049   21.2710 C   0  0  0  0  0  0  0  0  0  0  0  0
    6.7556  -13.7743   20.7849 C   0  0  0  0  0  0  0  0  0  0  0  0
    7.4438  -16.5625   21.6738 C   0  0  0  0  0  0  0  0  0  0  0  0
    6.2465  -16.7283   22.0173 O   0  0  0  0  0  0  0  0  0  0  0  0
    8.3915  -16.2035   22.6588 N   0  0  0  0  0  0  0  0  0  0  0  0
    8.0575  -16.2465   24.0714 C   0  0  1  0  0  0  0  0  0  0  0  0
    8.2470  -17.6467   24.5718 C   0  0  0  0  0  0  0  0  0  0  0  0
    8.9720  -18.6102   23.7351 C   0  0  0  0  0  0  0  0  0  0  0  0
   10.0256  -19.4251   24.2964 C   0  0  0  0  0  0  0  0  0  0  0  0
   10.7615  -20.1544   23.6101 O   0  0  0  0  0  0  0  0  0  0  0  0
    8.7742  -15.2376   24.8333 C   0  0  0  0  0  0  0  0  0  0  0  0
    9.9082  -14.8527   24.3734 O   0  0  0  0  0  0  0  0  0  0  0  0
   10.2303  -19.3956   25.6700 O   0  0  0  0  0  0  0  0  0  0  0  0
    8.3342  -14.6392   26.0356 N   0  0  0  0  0  0  0  0  0  0  0  0
    7.0541  -14.9590   26.7231 C   0  0  0  0  0  0  0  0  0  0  0  0
    6.6707  -13.7521   27.5103 C   0  0  0  0  0  0  0  0  0  0  0  0
    7.7186  -12.6923   27.1562 C   0  0  0  0  0  0  0  0  0  0  0  0
    8.9088  -13.6234   26.8816 C   0  0  1  0  0  0  0  0  0  0  0  0
    9.3199  -14.1608   28.2200 C   0  0  0  0  0  0  0  0  0  0  0  0
    8.9645  -15.2999   28.5694 O   0  0  0  0  0  0  0  0  0  0  0  0
   10.0937  -13.4074   29.0815 O   0  0  0  0  0  0  0  0  0  0  0  0
  2  1  1  6
  2  3  1  0
  3  4  1  0
  4  9  1  0
  5  4  2  0
  5  6  1  0
  6  7  2  0
  7  8  1  0
  9  8  2  0
 10 12  1  0
 10  2  1  0
 11 10  2  0
 13 12  1  0
 13 14  1  1
 14 15  1  0
 15 16  1  0
 16 17  2  0
 18 13  1  0
 19 18  2  0
 20 16  1  0
 21 18  1  0
 21 25  1  0
 22 23  1  0
 22 21  1  0
 23 24  1  0
 25 24  1  0
 26 28  1  0
 25 26  1  1
 27 26  2  0
M  END
$$$$
