FEP.pdb
     RDKit          3D

 28 29  0  0  1  0  0  0  0  0999 V2000
    6.4732  -17.3361   25.4053 N   0  0  0  0  0  0  0  0  0  0  0  0
    6.5445  -15.9128   25.5126 C   0  0  1  0  0  0  0  0  0  0  0  0
    6.7600  -15.4708   26.9244 C   0  0  0  0  0  0  0  0  0  0  0  0
    6.8137  -13.9992   26.9577 C   0  0  0  0  0  0  0  0  0  0  0  0
    5.6678  -13.2359   26.9165 C   0  0  0  0  0  0  0  0  0  0  0  0
    5.7231  -11.8483   26.9470 C   0  0  0  0  0  0  0  0  0  0  0  0
    6.9363  -11.2057   27.0194 C   0  0  0  0  0  0  0  0  0  0  0  0
    8.0905  -11.9538   27.0613 C   0  0  0  0  0  0  0  0  0  0  0  0
    8.0199  -13.3464   27.0301 C   0  0  0  0  0  0  0  0  0  0  0  0
    7.5036  -15.3105   24.5517 C   0  0  0  0  0  0  0  0  0  0  0  0
    7.5300  -14.0590   24.4408 O   0  0  0  0  0  0  0  0  0  0  0  0
    8.3835  -16.0831   23.7605 N   0  0  0  0  0  0  0  0  0  0  0  0
    9.1299  -15.4851   22.6677 C   0  0  1  0  0  0  0  0  0  0  0  0
   10.5523  -15.9526   22.7392 C   0  0  0  0  0  0  0  0  0  0  0  0
   11.5173  -15.4509   21.7538 C   0  0  0  0  0  0  0  0  0  0  0  0
   12.8802  -15.9321   21.7482 C   0  0  0  0  0  0  0  0  0  0  0  0
   13.7218  -15.5845   20.9025 O   0  0  0  0  0  0  0  0  0  0  0  0
    8.4909  -15.7103   21.3820 C   0  0  0  0  0  0  0  0  0  0  0  0
    7.8009  -16.7839   21.2513 O   0  0  0  0  0  0  0  0  0  0  0  0
   13.2745  -16.8274   22.7345 O   0  0  0  0  0  0  0  0  0  0  0  0
    8.5585  -14.8521   20.2613 N   0  0  0  0  0  0  0  0  0  0  0  0
    9.2607  -13.5406   20.2386 C   0  0  0  0  0  0  0  0  0  0  0  0
    8.5941  -12.7092   19.1956 C   0  0  0  0  0  0  0  0  0  0  0  0
    7.4135  -13.5525   18.7041 C   0  0  0  0  0  0  0  0  0  0  0  0
    8.0132  -14.9482   18.9304 C   0  0  1  0  0  0  0  0  0  0  0  0
    9.0788  -15.1053   17.8869 C   0  0  0  0  0  0  0  0  0  0  0  0
   10.2714  -14.9132   18.1812 O   0  0  0  0  0  0  0  0  0  0  0  0
    8.7583  -15.4629   16.5915 O   0  0  0  0  0  0  0  0  0  0  0  0
  2  1  1  1
  2  3  1  0
  3  4  1  0
  4  9  1  0
  5  4  2  0
  5  6  1  0
  6  7  2  0
  7  8  1  0
  9  8  2  0
 10 12  1  0
 10  2  1  0
 11 10  2  0
 13 12  1  0
 13 14  1  6
 14 15  1  0
 15 16  1  0
 16 17  2  0
 18 13  1  0
 19 18  2  0
 20 16  1  0
 21 18  1  0
 21 25  1  0
 22 23  1  0
 22 21  1  0
 23 24  1  0
 25 24  1  0
 26 28  1  0
 25 26  1  6
 27 26  2  0
M  END
$$$$
