FEP.pdb
     RDKit          3D

 28 29  0  0  1  0  0  0  0  0999 V2000
    5.9078  -17.0022   26.2411 N   0  0  0  0  0  0  0  0  0  0  0  0
    6.7993  -16.0885   25.5986 C   0  0  1  0  0  0  0  0  0  0  0  0
    7.5858  -15.2894   26.5874 C   0  0  0  0  0  0  0  0  0  0  0  0
    7.1411  -13.8866   26.5246 C   0  0  0  0  0  0  0  0  0  0  0  0
    7.7361  -12.9801   25.6751 C   0  0  0  0  0  0  0  0  0  0  0  0
    7.3144  -11.6579   25.6199 C   0  0  0  0  0  0  0  0  0  0  0  0
    6.2842  -11.2263   26.4214 C   0  0  0  0  0  0  0  0  0  0  0  0
    5.6792  -12.1193   27.2757 C   0  0  0  0  0  0  0  0  0  0  0  0
    6.1130  -13.4441   27.3205 C   0  0  0  0  0  0  0  0  0  0  0  0
    7.6404  -16.7383   24.5612 C   0  0  0  0  0  0  0  0  0  0  0  0
    8.2755  -17.7768   24.8729 O   0  0  0  0  0  0  0  0  0  0  0  0
    7.7556  -16.2390   23.2442 N   0  0  0  0  0  0  0  0  0  0  0  0
    8.8013  -16.7093   22.3530 C   0  0  1  0  0  0  0  0  0  0  0  0
    8.4806  -16.2715   20.9557 C   0  0  0  0  0  0  0  0  0  0  0  0
    9.4221  -16.5898   19.8757 C   0  0  0  0  0  0  0  0  0  0  0  0
    9.1755  -16.1329   18.5268 C   0  0  0  0  0  0  0  0  0  0  0  0
    9.8805  -16.4606   17.5572 O   0  0  0  0  0  0  0  0  0  0  0  0
   10.1249  -16.3222   22.8114 C   0  0  0  0  0  0  0  0  0  0  0  0
   10.2525  -15.1446   23.3040 O   0  0  0  0  0  0  0  0  0  0  0  0
    8.0990  -15.2858   18.2968 O   0  0  0  0  0  0  0  0  0  0  0  0
   11.2859  -17.1266   22.7660 N   0  0  0  0  0  0  0  0  0  0  0  0
   11.3443  -18.4999   22.1966 C   0  0  0  0  0  0  0  0  0  0  0  0
   12.4637  -19.2070   22.8823 C   0  0  0  0  0  0  0  0  0  0  0  0
   12.9681  -18.2250   23.9444 C   0  0  0  0  0  0  0  0  0  0  0  0
   12.6357  -16.9103   23.2234 C   0  0  1  0  0  0  0  0  0  0  0  0
   13.6133  -16.8111   22.0906 C   0  0  0  0  0  0  0  0  0  0  0  0
   13.2933  -17.2060   20.9558 O   0  0  0  0  0  0  0  0  0  0  0  0
   14.8756  -16.2842   22.2847 O   0  0  0  0  0  0  0  0  0  0  0  0
  2  1  1  1
  2  3  1  0
  3  4  1  0
  4  9  1  0
  5  4  2  0
  5  6  1  0
  6  7  2  0
  7  8  1  0
  9  8  2  0
 10 12  1  0
 10  2  1  0
 11 10  2  0
 13 12  1  0
 13 14  1  6
 14 15  1  0
 15 16  1  0
 16 17  2  0
 18 13  1  0
 19 18  2  0
 20 16  1  0
 21 18  1  0
 21 25  1  0
 22 23  1  0
 22 21  1  0
 23 24  1  0
 25 24  1  0
 26 28  1  0
 25 26  1  6
 27 26  2  0
M  END
$$$$
