FEP.pdb
     RDKit          3D

 28 29  0  0  1  0  0  0  0  0999 V2000
    6.1071  -14.8751   22.0301 N   0  0  0  0  0  0  0  0  0  0  0  0
    7.5035  -14.7213   22.2922 C   0  0  1  0  0  0  0  0  0  0  0  0
    7.8935  -13.2827   22.4075 C   0  0  0  0  0  0  0  0  0  0  0  0
    7.4238  -12.7664   23.7045 C   0  0  0  0  0  0  0  0  0  0  0  0
    6.1809  -13.0917   24.2015 C   0  0  0  0  0  0  0  0  0  0  0  0
    5.7414  -12.6016   25.4245 C   0  0  0  0  0  0  0  0  0  0  0  0
    6.5485  -11.7739   26.1685 C   0  0  0  0  0  0  0  0  0  0  0  0
    7.7930  -11.4392   25.6862 C   0  0  0  0  0  0  0  0  0  0  0  0
    8.2213  -11.9388   24.4564 C   0  0  0  0  0  0  0  0  0  0  0  0
    7.9705  -15.5532   23.4305 C   0  0  0  0  0  0  0  0  0  0  0  0
    7.1290  -15.9110   24.2924 O   0  0  0  0  0  0  0  0  0  0  0  0
    9.3162  -15.9570   23.5838 N   0  0  0  0  0  0  0  0  0  0  0  0
    9.7253  -16.7951   24.6970 C   0  0  1  0  0  0  0  0  0  0  0  0
   10.2676  -18.0847   24.1591 C   0  0  0  0  0  0  0  0  0  0  0  0
   10.7405  -19.1065   25.1007 C   0  0  0  0  0  0  0  0  0  0  0  0
   11.3529  -20.3236   24.6186 C   0  0  0  0  0  0  0  0  0  0  0  0
   12.5668  -20.5656   24.7296 O   0  0  0  0  0  0  0  0  0  0  0  0
   10.6247  -16.1000   25.6025 C   0  0  0  0  0  0  0  0  0  0  0  0
   11.6370  -15.5084   25.0822 O   0  0  0  0  0  0  0  0  0  0  0  0
   10.5500  -21.2735   24.0000 O   0  0  0  0  0  0  0  0  0  0  0  0
   10.4846  -16.0145   27.0062 N   0  0  0  0  0  0  0  0  0  0  0  0
    9.2327  -16.3117   27.7532 C   0  0  0  0  0  0  0  0  0  0  0  0
    9.2859  -15.5265   29.0196 C   0  0  0  0  0  0  0  0  0  0  0  0
   10.5601  -14.6825   28.9153 C   0  0  0  0  0  0  0  0  0  0  0  0
   11.4009  -15.6347   28.0521 C   0  0  1  0  0  0  0  0  0  0  0  0
   11.7555  -16.7854   28.9460 C   0  0  0  0  0  0  0  0  0  0  0  0
   11.1325  -17.8578   28.8570 O   0  0  0  0  0  0  0  0  0  0  0  0
   12.7711  -16.6766   29.8762 O   0  0  0  0  0  0  0  0  0  0  0  0
  2  1  1  1
  2  3  1  0
  3  4  1  0
  4  9  1  0
  5  4  2  0
  5  6  1  0
  6  7  2  0
  7  8  1  0
  9  8  2  0
 10 12  1  0
 10  2  1  0
 11 10  2  0
 13 12  1  0
 13 14  1  6
 14 15  1  0
 15 16  1  0
 16 17  2  0
 18 13  1  0
 19 18  2  0
 20 16  1  0
 21 18  1  0
 21 25  1  0
 22 23  1  0
 22 21  1  0
 23 24  1  0
 25 24  1  0
 26 28  1  0
 25 26  1  1
 27 26  2  0
M  END
$$$$
