FEP.pdb
     RDKit          3D

 28 29  0  0  1  0  0  0  0  0999 V2000
    7.1469  -16.8158   19.9481 N   0  0  0  0  0  0  0  0  0  0  0  0
    7.5071  -15.7568   20.8375 C   0  0  1  0  0  0  0  0  0  0  0  0
    6.4617  -14.6891   20.8845 C   0  0  0  0  0  0  0  0  0  0  0  0
    6.8463  -13.6931   21.8991 C   0  0  0  0  0  0  0  0  0  0  0  0
    6.3898  -13.7736   23.1963 C   0  0  0  0  0  0  0  0  0  0  0  0
    6.7540  -12.8314   24.1497 C   0  0  0  0  0  0  0  0  0  0  0  0
    7.5857  -11.7904   23.8111 C   0  0  0  0  0  0  0  0  0  0  0  0
    8.0504  -11.6956   22.5194 C   0  0  0  0  0  0  0  0  0  0  0  0
    7.6765  -12.6489   21.5725 C   0  0  0  0  0  0  0  0  0  0  0  0
    7.9134  -16.2456   22.1799 C   0  0  0  0  0  0  0  0  0  0  0  0
    7.1337  -17.0149   22.7955 O   0  0  0  0  0  0  0  0  0  0  0  0
    9.1351  -15.8825   22.7906 N   0  0  0  0  0  0  0  0  0  0  0  0
    9.5564  -16.4871   24.0420 C   0  0  1  0  0  0  0  0  0  0  0  0
   10.4119  -17.6802   23.7401 C   0  0  0  0  0  0  0  0  0  0  0  0
   10.9015  -18.5051   24.8509 C   0  0  0  0  0  0  0  0  0  0  0  0
   11.8050  -19.6064   24.6065 C   0  0  0  0  0  0  0  0  0  0  0  0
   12.7565  -19.8860   25.3555 O   0  0  0  0  0  0  0  0  0  0  0  0
   10.1725  -15.5207   24.9355 C   0  0  0  0  0  0  0  0  0  0  0  0
   11.2347  -14.9335   24.5199 O   0  0  0  0  0  0  0  0  0  0  0  0
   11.6049  -20.3949   23.4804 O   0  0  0  0  0  0  0  0  0  0  0  0
    9.7066  -15.1665   26.2218 N   0  0  0  0  0  0  0  0  0  0  0  0
    8.3593  -15.5004   26.7574 C   0  0  0  0  0  0  0  0  0  0  0  0
    8.0319  -14.4690   27.7832 C   0  0  0  0  0  0  0  0  0  0  0  0
    9.1916  -13.4695   27.7316 C   0  0  0  0  0  0  0  0  0  0  0  0
   10.3102  -14.4315   27.3049 C   0  0  1  0  0  0  0  0  0  0  0  0
   10.5797  -15.2954   28.5007 C   0  0  0  0  0  0  0  0  0  0  0  0
   11.1788  -14.8273   29.4846 O   0  0  0  0  0  0  0  0  0  0  0  0
   10.1713  -16.6148   28.5312 O   0  0  0  0  0  0  0  0  0  0  0  0
  2  1  1  6
  2  3  1  0
  3  4  1  0
  4  9  1  0
  5  4  2  0
  5  6  1  0
  6  7  2  0
  7  8  1  0
  9  8  2  0
 10 12  1  0
 10  2  1  0
 11 10  2  0
 13 12  1  0
 13 14  1  6
 14 15  1  0
 15 16  1  0
 16 17  2  0
 18 13  1  0
 19 18  2  0
 20 16  1  0
 21 18  1  0
 21 25  1  0
 22 23  1  0
 22 21  1  0
 23 24  1  0
 25 24  1  0
 26 28  1  0
 25 26  1  1
 27 26  2  0
M  END
$$$$
