FEP.pdb
     RDKit          3D

 28 29  0  0  1  0  0  0  0  0999 V2000
    8.0799  -17.4635   25.3309 N   0  0  0  0  0  0  0  0  0  0  0  0
    7.1166  -16.6579   24.6486 C   0  0  1  0  0  0  0  0  0  0  0  0
    6.2249  -15.9288   25.6016 C   0  0  0  0  0  0  0  0  0  0  0  0
    6.9772  -14.8088   26.1927 C   0  0  0  0  0  0  0  0  0  0  0  0
    6.7460  -13.5055   25.8113 C   0  0  0  0  0  0  0  0  0  0  0  0
    7.4586  -12.4524   26.3704 C   0  0  0  0  0  0  0  0  0  0  0  0
    8.4177  -12.6957   27.3248 C   0  0  0  0  0  0  0  0  0  0  0  0
    8.6608  -13.9921   27.7168 C   0  0  0  0  0  0  0  0  0  0  0  0
    7.9376  -15.0397   27.1469 C   0  0  0  0  0  0  0  0  0  0  0  0
    7.7274  -15.7779   23.6197 C   0  0  0  0  0  0  0  0  0  0  0  0
    6.9806  -14.9830   22.9955 O   0  0  0  0  0  0  0  0  0  0  0  0
    9.1072  -15.7978   23.3149 N   0  0  0  0  0  0  0  0  0  0  0  0
    9.6403  -15.0315   22.2025 C   0  0  1  0  0  0  0  0  0  0  0  0
   11.1166  -15.2742   22.1100 C   0  0  0  0  0  0  0  0  0  0  0  0
   11.8825  -14.6104   21.0485 C   0  0  0  0  0  0  0  0  0  0  0  0
   13.3100  -14.8077   20.9383 C   0  0  0  0  0  0  0  0  0  0  0  0
   14.0550  -14.0483   20.2959 O   0  0  0  0  0  0  0  0  0  0  0  0
    8.9150  -15.2828   20.9685 C   0  0  0  0  0  0  0  0  0  0  0  0
    8.2916  -16.3999   20.8731 O   0  0  0  0  0  0  0  0  0  0  0  0
   13.8832  -15.8982   21.5802 O   0  0  0  0  0  0  0  0  0  0  0  0
    8.8318  -14.4065   19.8629 N   0  0  0  0  0  0  0  0  0  0  0  0
    9.5078  -13.0839   19.7763 C   0  0  0  0  0  0  0  0  0  0  0  0
    8.7061  -12.2471   18.8381 C   0  0  0  0  0  0  0  0  0  0  0  0
    7.4853  -13.1011   18.4816 C   0  0  0  0  0  0  0  0  0  0  0  0
    8.1274  -14.4906   18.6081 C   0  0  1  0  0  0  0  0  0  0  0  0
    9.0579  -14.6149   17.4385 C   0  0  0  0  0  0  0  0  0  0  0  0
    8.5999  -14.7405   16.2894 O   0  0  0  0  0  0  0  0  0  0  0  0
   10.4279  -14.5926   17.6143 O   0  0  0  0  0  0  0  0  0  0  0  0
  2  1  1  1
  2  3  1  0
  3  4  1  0
  4  9  1  0
  5  4  2  0
  5  6  1  0
  6  7  2  0
  7  8  1  0
  9  8  2  0
 10 12  1  0
 10  2  1  0
 11 10  2  0
 13 12  1  0
 13 14  1  6
 14 15  1  0
 15 16  1  0
 16 17  2  0
 18 13  1  0
 19 18  2  0
 20 16  1  0
 21 18  1  0
 21 25  1  0
 22 23  1  0
 22 21  1  0
 23 24  1  0
 25 24  1  0
 26 28  1  0
 25 26  1  6
 27 26  2  0
M  END
$$$$
