FEP.pdb
     RDKit          3D

 28 29  0  0  1  0  0  0  0  0999 V2000
    9.2854  -15.1307   26.4656 N   0  0  0  0  0  0  0  0  0  0  0  0
    8.8015  -14.8674   25.1470 C   0  0  1  0  0  0  0  0  0  0  0  0
    8.5314  -13.4127   24.9329 C   0  0  0  0  0  0  0  0  0  0  0  0
    7.5943  -12.9467   25.9694 C   0  0  0  0  0  0  0  0  0  0  0  0
    6.2425  -13.1972   25.8829 C   0  0  0  0  0  0  0  0  0  0  0  0
    5.3622  -12.7549   26.8620 C   0  0  0  0  0  0  0  0  0  0  0  0
    5.8302  -12.0514   27.9464 C   0  0  0  0  0  0  0  0  0  0  0  0
    7.1779  -11.7929   28.0478 C   0  0  0  0  0  0  0  0  0  0  0  0
    8.0504  -12.2432   27.0572 C   0  0  0  0  0  0  0  0  0  0  0  0
    9.6518  -15.4724   24.0902 C   0  0  0  0  0  0  0  0  0  0  0  0
   10.8968  -15.3202   24.1668 O   0  0  0  0  0  0  0  0  0  0  0  0
    9.1211  -16.2085   23.0068 N   0  0  0  0  0  0  0  0  0  0  0  0
    9.6084  -16.0076   21.6536 C   0  0  1  0  0  0  0  0  0  0  0  0
   10.4643  -17.1762   21.2682 C   0  0  0  0  0  0  0  0  0  0  0  0
   11.5530  -17.5874   22.1625 C   0  0  0  0  0  0  0  0  0  0  0  0
   11.7329  -18.9786   22.5109 C   0  0  0  0  0  0  0  0  0  0  0  0
   12.0529  -19.3597   23.6496 O   0  0  0  0  0  0  0  0  0  0  0  0
    8.5305  -15.7232   20.7213 C   0  0  0  0  0  0  0  0  0  0  0  0
    7.3848  -16.2415   20.9754 O   0  0  0  0  0  0  0  0  0  0  0  0
   11.5397  -19.9415   21.5285 O   0  0  0  0  0  0  0  0  0  0  0  0
    8.6287  -14.9247   19.5595 N   0  0  0  0  0  0  0  0  0  0  0  0
    9.7978  -14.0723   19.2126 C   0  0  0  0  0  0  0  0  0  0  0  0
    9.2901  -12.9708   18.3454 C   0  0  0  0  0  0  0  0  0  0  0  0
    7.7705  -13.1605   18.3040 C   0  0  0  0  0  0  0  0  0  0  0  0
    7.7213  -14.6872   18.4649 C   0  0  1  0  0  0  0  0  0  0  0  0
    8.2298  -15.2476   17.1702 C   0  0  0  0  0  0  0  0  0  0  0  0
    9.4143  -15.6129   17.0724 O   0  0  0  0  0  0  0  0  0  0  0  0
    7.3997  -15.3673   16.0724 O   0  0  0  0  0  0  0  0  0  0  0  0
  2  1  1  1
  2  3  1  0
  3  4  1  0
  4  9  1  0
  5  4  2  0
  5  6  1  0
  6  7  2  0
  7  8  1  0
  9  8  2  0
 10 12  1  0
 10  2  1  0
 11 10  2  0
 13 12  1  0
 13 14  1  6
 14 15  1  0
 15 16  1  0
 16 17  2  0
 18 13  1  0
 19 18  2  0
 20 16  1  0
 21 18  1  0
 21 25  1  0
 22 23  1  0
 22 21  1  0
 23 24  1  0
 25 24  1  0
 26 28  1  0
 25 26  1  6
 27 26  2  0
M  END
$$$$
