FEP.pdb
     RDKit          3D

 28 29  0  0  1  0  0  0  0  0999 V2000
    7.7711  -15.0606   25.8278 N   0  0  0  0  0  0  0  0  0  0  0  0
    7.7858  -13.9214   24.9651 C   0  0  1  0  0  0  0  0  0  0  0  0
    8.2798  -12.6975   25.6671 C   0  0  0  0  0  0  0  0  0  0  0  0
    7.3035  -12.3179   26.7026 C   0  0  0  0  0  0  0  0  0  0  0  0
    7.6605  -12.2266   28.0299 C   0  0  0  0  0  0  0  0  0  0  0  0
    6.7363  -11.8695   29.0033 C   0  0  0  0  0  0  0  0  0  0  0  0
    5.4345  -11.5981   28.6548 C   0  0  0  0  0  0  0  0  0  0  0  0
    5.0615  -11.6849   27.3331 C   0  0  0  0  0  0  0  0  0  0  0  0
    6.0002  -12.0446   26.3663 C   0  0  0  0  0  0  0  0  0  0  0  0
    8.4773  -14.1836   23.6771 C   0  0  0  0  0  0  0  0  0  0  0  0
    8.6044  -13.2337   22.8643 O   0  0  0  0  0  0  0  0  0  0  0  0
    8.9955  -15.4515   23.3292 N   0  0  0  0  0  0  0  0  0  0  0  0
    9.7036  -15.6544   22.0777 C   0  0  1  0  0  0  0  0  0  0  0  0
   10.7127  -16.7471   22.2633 C   0  0  0  0  0  0  0  0  0  0  0  0
   11.5446  -17.1496   21.1231 C   0  0  0  0  0  0  0  0  0  0  0  0
   12.9865  -17.1116   21.2151 C   0  0  0  0  0  0  0  0  0  0  0  0
   13.6093  -17.3675   22.2596 O   0  0  0  0  0  0  0  0  0  0  0  0
    8.7946  -15.8634   20.9632 C   0  0  0  0  0  0  0  0  0  0  0  0
    7.8555  -16.7218   21.1270 O   0  0  0  0  0  0  0  0  0  0  0  0
   13.7174  -16.7730   20.0834 O   0  0  0  0  0  0  0  0  0  0  0  0
    8.8496  -15.2048   19.7141 N   0  0  0  0  0  0  0  0  0  0  0  0
    9.8483  -14.1648   19.3470 C   0  0  0  0  0  0  0  0  0  0  0  0
    9.2200  -13.3102   18.2991 C   0  0  0  0  0  0  0  0  0  0  0  0
    7.7853  -13.8301   18.1641 C   0  0  0  0  0  0  0  0  0  0  0  0
    8.0347  -15.3010   18.5290 C   0  0  1  0  0  0  0  0  0  0  0  0
    8.7828  -15.8852   17.3679 C   0  0  0  0  0  0  0  0  0  0  0  0
   10.0217  -15.9819   17.4106 O   0  0  0  0  0  0  0  0  0  0  0  0
    8.1158  -16.3225   16.2398 O   0  0  0  0  0  0  0  0  0  0  0  0
  2  1  1  1
  2  3  1  0
  3  4  1  0
  4  9  1  0
  5  4  2  0
  5  6  1  0
  6  7  2  0
  7  8  1  0
  9  8  2  0
 10 12  1  0
 10  2  1  0
 11 10  2  0
 13 12  1  0
 13 14  1  1
 14 15  1  0
 15 16  1  0
 16 17  2  0
 18 13  1  0
 19 18  2  0
 20 16  1  0
 21 18  1  0
 21 25  1  0
 22 23  1  0
 22 21  1  0
 23 24  1  0
 25 24  1  0
 26 28  1  0
 25 26  1  6
 27 26  2  0
M  END
$$$$
