PDH.pdb
     RDKit          3D

 26 27  0  0  1  0  0  0  0  0999 V2000
    8.6765  -14.5066   17.7147 N   0  0  0  0  0  0  0  0  0  0  0  0
    7.2738  -14.2799   18.0396 C   0  0  0  0  0  0  0  0  0  0  0  0
    7.2462  -13.0672   18.9355 C   0  0  0  0  0  0  0  0  0  0  0  0
    8.6924  -12.6721   19.1226 C   0  0  0  0  0  0  0  0  0  0  0  0
    9.4273  -13.9565   18.8276 C   0  0  1  0  0  0  0  0  0  0  0  0
    9.3735  -14.9175   19.9307 C   0  0  0  0  0  0  0  0  0  0  0  0
    9.6412  -14.5894   21.1340 O   0  0  0  0  0  0  0  0  0  0  0  0
    9.0168  -16.3003   19.7487 N   0  0  0  0  0  0  0  0  0  0  0  0
    9.1952  -17.2618   20.8017 C   0  0  1  0  0  0  0  0  0  0  0  0
    8.6988  -18.6003   20.3326 C   0  0  0  0  0  0  0  0  0  0  0  0
    7.3327  -18.5230   19.7712 C   0  0  0  0  0  0  0  0  0  0  0  0
    7.0135  -18.8694   18.6077 O   0  0  0  0  0  0  0  0  0  0  0  0
   10.5900  -17.3864   21.2833 C   0  0  0  0  0  0  0  0  0  0  0  0
   11.3981  -17.9536   20.5068 O   0  0  0  0  0  0  0  0  0  0  0  0
    6.3109  -18.0269   20.5923 O   0  0  0  0  0  0  0  0  0  0  0  0
   11.0501  -16.9166   22.5348 N   0  0  0  0  0  0  0  0  0  0  0  0
   12.4630  -16.9809   22.9561 C   0  0  1  0  0  0  0  0  0  0  0  0
   13.1606  -15.7082   22.6537 C   0  0  0  0  0  0  0  0  0  0  0  0
   13.5201  -15.4707   21.2556 C   0  0  0  0  0  0  0  0  0  0  0  0
   13.3083  -16.1263   20.0874 C   0  0  0  0  0  0  0  0  0  0  0  0
   13.8157  -15.4049   19.0436 N   0  0  0  0  0  0  0  0  0  0  0  0
   14.3283  -14.3180   19.5924 C   0  0  0  0  0  0  0  0  0  0  0  0
   14.1733  -14.3185   20.9027 N   0  0  0  0  0  0  0  0  0  0  0  0
   12.4780  -17.1937   24.4395 C   0  0  0  0  0  0  0  0  0  0  0  0
   13.5828  -17.4568   25.1919 O   0  0  0  0  0  0  0  0  0  0  0  0
   11.3821  -17.1233   25.0519 O   0  0  0  0  0  0  0  0  0  0  0  0
  1  2  1  0
  2  3  1  0
  4  3  1  0
  5  1  1  0
  5  4  1  0
  5  6  1  1
  7  6  2  0
  8  6  1  0
  9  8  1  0
  9 10  1  6
 11 10  1  0
 11 15  1  0
 12 11  2  0
 13  9  1  0
 13 16  1  0
 14 13  2  0
 17 16  1  0
 17 24  1  0
 17 18  1  1
 19 18  1  0
 19 20  2  0
 21 20  1  0
 22 21  1  0
 23 22  2  0
 23 19  1  0
 24 25  1  0
 26 24  2  0
M  END
$$$$
