PDH.pdb
     RDKit          3D

 26 27  0  0  1  0  0  0  0  0999 V2000
    8.6977  -14.6600   16.9187 N   0  0  0  0  0  0  0  0  0  0  0  0
    7.2497  -14.8264   16.9216 C   0  0  0  0  0  0  0  0  0  0  0  0
    6.7262  -13.8879   17.9795 C   0  0  0  0  0  0  0  0  0  0  0  0
    7.9500  -13.2396   18.5835 C   0  0  0  0  0  0  0  0  0  0  0  0
    9.0422  -14.2294   18.2606 C   0  0  1  0  0  0  0  0  0  0  0  0
    9.0300  -15.4056   19.1321 C   0  0  0  0  0  0  0  0  0  0  0  0
    8.6491  -15.3487   20.3482 O   0  0  0  0  0  0  0  0  0  0  0  0
    9.4437  -16.7121   18.6911 N   0  0  0  0  0  0  0  0  0  0  0  0
    9.6055  -17.7966   19.6198 C   0  0  1  0  0  0  0  0  0  0  0  0
    9.9552  -19.0449   18.8597 C   0  0  0  0  0  0  0  0  0  0  0  0
   11.2502  -18.9246   18.1555 C   0  0  0  0  0  0  0  0  0  0  0  0
   11.4020  -18.4364   17.0091 O   0  0  0  0  0  0  0  0  0  0  0  0
   10.6180  -17.5518   20.6722 C   0  0  0  0  0  0  0  0  0  0  0  0
   11.1656  -16.4215   20.6653 O   0  0  0  0  0  0  0  0  0  0  0  0
   12.4002  -19.3879   18.8092 O   0  0  0  0  0  0  0  0  0  0  0  0
   10.9935  -18.4941   21.6569 N   0  0  0  0  0  0  0  0  0  0  0  0
   11.1561  -18.1555   23.0841 C   0  0  1  0  0  0  0  0  0  0  0  0
    9.8839  -17.6498   23.6531 C   0  0  0  0  0  0  0  0  0  0  0  0
    9.6315  -16.2143   23.5278 C   0  0  0  0  0  0  0  0  0  0  0  0
   10.2990  -15.1685   22.9801 C   0  0  0  0  0  0  0  0  0  0  0  0
    9.5552  -14.0271   23.0864 N   0  0  0  0  0  0  0  0  0  0  0  0
    8.4431  -14.3957   23.6968 C   0  0  0  0  0  0  0  0  0  0  0  0
    8.4488  -15.6853   23.9754 N   0  0  0  0  0  0  0  0  0  0  0  0
   11.5339  -19.4154   23.8024 C   0  0  0  0  0  0  0  0  0  0  0  0
   11.5800  -20.6599   23.2501 O   0  0  0  0  0  0  0  0  0  0  0  0
   11.8383  -19.3265   25.0190 O   0  0  0  0  0  0  0  0  0  0  0  0
  1  2  1  0
  2  3  1  0
  4  3  1  0
  5  1  1  0
  5  4  1  0
  5  6  1  1
  7  6  2  0
  8  6  1  0
  9  8  1  0
  9 10  1  6
 11 10  1  0
 11 15  1  0
 12 11  2  0
 13  9  1  0
 13 16  1  0
 14 13  2  0
 17 16  1  0
 17 24  1  0
 17 18  1  1
 19 18  1  0
 19 20  2  0
 21 20  1  0
 22 21  1  0
 23 22  2  0
 23 19  1  0
 24 25  1  0
 26 24  2  0
M  END
$$$$
