PDH.pdb
     RDKit          3D

 26 27  0  0  1  0  0  0  0  0999 V2000
    8.9668  -14.1737   18.8052 N   0  0  0  0  0  0  0  0  0  0  0  0
    7.5436  -14.4597   18.6745 C   0  0  0  0  0  0  0  0  0  0  0  0
    6.8505  -13.5909   19.6938 C   0  0  0  0  0  0  0  0  0  0  0  0
    7.9564  -12.8566   20.4152 C   0  0  0  0  0  0  0  0  0  0  0  0
    9.1528  -13.7451   20.1787 C   0  0  1  0  0  0  0  0  0  0  0  0
    9.1624  -14.9369   21.0288 C   0  0  0  0  0  0  0  0  0  0  0  0
    8.1174  -15.3536   21.6301 O   0  0  0  0  0  0  0  0  0  0  0  0
   10.3430  -15.7295   21.2538 N   0  0  0  0  0  0  0  0  0  0  0  0
   10.3319  -16.8438   22.1611 C   0  0  1  0  0  0  0  0  0  0  0  0
   11.5947  -17.6376   21.9780 C   0  0  0  0  0  0  0  0  0  0  0  0
   11.4925  -18.9912   22.5651 C   0  0  0  0  0  0  0  0  0  0  0  0
   12.4693  -19.7272   22.8480 O   0  0  0  0  0  0  0  0  0  0  0  0
   10.1793  -16.4684   23.5854 C   0  0  0  0  0  0  0  0  0  0  0  0
   10.8009  -15.4435   23.9604 O   0  0  0  0  0  0  0  0  0  0  0  0
   10.2132  -19.4992   22.8292 O   0  0  0  0  0  0  0  0  0  0  0  0
    9.3954  -17.1808   24.5217 N   0  0  0  0  0  0  0  0  0  0  0  0
    9.2834  -16.7998   25.9430 C   0  0  1  0  0  0  0  0  0  0  0  0
    7.9021  -16.3681   26.2648 C   0  0  0  0  0  0  0  0  0  0  0  0
    7.5491  -14.9882   25.9309 C   0  0  0  0  0  0  0  0  0  0  0  0
    8.2105  -13.8041   25.9280 C   0  0  0  0  0  0  0  0  0  0  0  0
    7.4014  -12.8138   25.4465 N   0  0  0  0  0  0  0  0  0  0  0  0
    6.2579  -13.4107   25.1614 C   0  0  0  0  0  0  0  0  0  0  0  0
    6.3045  -14.7008   25.4339 N   0  0  0  0  0  0  0  0  0  0  0  0
    9.6070  -18.0148   26.7586 C   0  0  0  0  0  0  0  0  0  0  0  0
    9.6851  -18.0599   28.1179 O   0  0  0  0  0  0  0  0  0  0  0  0
    9.8245  -19.0904   26.1450 O   0  0  0  0  0  0  0  0  0  0  0  0
  1  2  1  0
  2  3  1  0
  4  3  1  0
  5  1  1  0
  5  4  1  0
  5  6  1  1
  7  6  2  0
  8  6  1  0
  9  8  1  0
  9 10  1  1
 11 10  1  0
 11 15  1  0
 12 11  2  0
 13  9  1  0
 13 16  1  0
 14 13  2  0
 17 16  1  0
 17 24  1  0
 17 18  1  6
 19 18  1  0
 19 20  2  0
 21 20  1  0
 22 21  1  0
 23 22  2  0
 23 19  1  0
 24 25  1  0
 26 24  2  0
M  END
$$$$
