PDH.pdb
     RDKit          3D

 26 27  0  0  1  0  0  0  0  0999 V2000
    9.4537  -14.0933   18.6792 N   0  0  0  0  0  0  0  0  0  0  0  0
    8.1139  -14.3865   18.1858 C   0  0  0  0  0  0  0  0  0  0  0  0
    7.1726  -13.5588   19.0241 C   0  0  0  0  0  0  0  0  0  0  0  0
    8.0494  -12.8403   20.0230 C   0  0  0  0  0  0  0  0  0  0  0  0
    9.2814  -13.7102   20.0679 C   0  0  1  0  0  0  0  0  0  0  0  0
    9.0970  -14.9301   20.8559 C   0  0  0  0  0  0  0  0  0  0  0  0
    8.1527  -15.0573   21.7041 O   0  0  0  0  0  0  0  0  0  0  0  0
    9.9596  -16.0767   20.7387 N   0  0  0  0  0  0  0  0  0  0  0  0
   10.0312  -17.0661   21.7784 C   0  0  1  0  0  0  0  0  0  0  0  0
   10.7025  -18.2972   21.2382 C   0  0  0  0  0  0  0  0  0  0  0  0
   10.0772  -18.7683   19.9834 C   0  0  0  0  0  0  0  0  0  0  0  0
    8.9647  -19.3446   19.9074 O   0  0  0  0  0  0  0  0  0  0  0  0
   10.7286  -16.6131   23.0037 C   0  0  0  0  0  0  0  0  0  0  0  0
   11.3489  -15.5241   22.9204 O   0  0  0  0  0  0  0  0  0  0  0  0
   10.7713  -18.5601   18.7837 O   0  0  0  0  0  0  0  0  0  0  0  0
   10.7361  -17.3193   24.2284 N   0  0  0  0  0  0  0  0  0  0  0  0
   10.9423  -16.6707   25.5378 C   0  0  1  0  0  0  0  0  0  0  0  0
    9.9066  -15.6386   25.7827 C   0  0  0  0  0  0  0  0  0  0  0  0
    9.9702  -14.9332   27.0628 C   0  0  0  0  0  0  0  0  0  0  0  0
   10.8107  -14.9534   28.1270 C   0  0  0  0  0  0  0  0  0  0  0  0
   10.4304  -14.0158   29.0455 N   0  0  0  0  0  0  0  0  0  0  0  0
    9.3631  -13.4365   28.5255 C   0  0  0  0  0  0  0  0  0  0  0  0
    9.0575  -13.9517   27.3499 N   0  0  0  0  0  0  0  0  0  0  0  0
   10.8167  -17.7329   26.5876 C   0  0  0  0  0  0  0  0  0  0  0  0
   11.5345  -17.7941   27.7439 O   0  0  0  0  0  0  0  0  0  0  0  0
    9.9779  -18.6496   26.3951 O   0  0  0  0  0  0  0  0  0  0  0  0
  1  2  1  0
  2  3  1  0
  4  3  1  0
  5  1  1  0
  5  4  1  0
  5  6  1  1
  7  6  2  0
  8  6  1  0
  9  8  1  0
  9 10  1  6
 11 10  1  0
 11 15  1  0
 12 11  2  0
 13  9  1  0
 13 16  1  0
 14 13  2  0
 17 16  1  0
 17 24  1  0
 17 18  1  1
 19 18  1  0
 19 20  2  0
 21 20  1  0
 22 21  1  0
 23 22  2  0
 23 19  1  0
 24 25  1  0
 26 24  2  0
M  END
$$$$
