PDH.pdb
     RDKit          3D

 26 27  0  0  1  0  0  0  0  0999 V2000
    9.0477  -13.9713   17.0550 N   0  0  0  0  0  0  0  0  0  0  0  0
    7.7169  -14.4080   17.4584 C   0  0  0  0  0  0  0  0  0  0  0  0
    7.4103  -13.6745   18.7398 C   0  0  0  0  0  0  0  0  0  0  0  0
    8.6452  -12.8580   19.0415 C   0  0  0  0  0  0  0  0  0  0  0  0
    9.7220  -13.5939   18.2828 C   0  0  1  0  0  0  0  0  0  0  0  0
   10.1645  -14.8182   18.9525 C   0  0  0  0  0  0  0  0  0  0  0  0
    9.3848  -15.5156   19.6826 O   0  0  0  0  0  0  0  0  0  0  0  0
   11.5053  -15.3309   18.8425 N   0  0  0  0  0  0  0  0  0  0  0  0
   11.9459  -16.4444   19.6367 C   0  0  1  0  0  0  0  0  0  0  0  0
   13.2857  -16.9045   19.1354 C   0  0  0  0  0  0  0  0  0  0  0  0
   13.2239  -17.3826   17.7372 C   0  0  0  0  0  0  0  0  0  0  0  0
   13.6619  -16.7539   16.7429 O   0  0  0  0  0  0  0  0  0  0  0  0
   12.0244  -16.1642   21.0887 C   0  0  0  0  0  0  0  0  0  0  0  0
   12.6561  -15.1312   21.4225 O   0  0  0  0  0  0  0  0  0  0  0  0
   12.6336  -18.6303   17.4939 O   0  0  0  0  0  0  0  0  0  0  0  0
   11.4451  -16.9732   22.0929 N   0  0  0  0  0  0  0  0  0  0  0  0
   11.5212  -16.6584   23.5327 C   0  0  1  0  0  0  0  0  0  0  0  0
   10.1718  -16.6728   24.1465 C   0  0  0  0  0  0  0  0  0  0  0  0
    9.2343  -15.6426   23.6995 C   0  0  0  0  0  0  0  0  0  0  0  0
    9.3556  -14.4323   23.0996 C   0  0  0  0  0  0  0  0  0  0  0  0
    8.1202  -13.9107   22.8370 N   0  0  0  0  0  0  0  0  0  0  0  0
    7.2634  -14.8133   23.2801 C   0  0  0  0  0  0  0  0  0  0  0  0
    7.8840  -15.8558   23.7987 N   0  0  0  0  0  0  0  0  0  0  0  0
   12.3525  -17.7242   24.1802 C   0  0  0  0  0  0  0  0  0  0  0  0
   12.7162  -17.7585   25.4926 O   0  0  0  0  0  0  0  0  0  0  0  0
   12.7517  -18.6737   23.4591 O   0  0  0  0  0  0  0  0  0  0  0  0
  1  2  1  0
  2  3  1  0
  4  3  1  0
  5  1  1  0
  5  4  1  0
  5  6  1  1
  7  6  2  0
  8  6  1  0
  9  8  1  0
  9 10  1  6
 11 10  1  0
 11 15  1  0
 12 11  2  0
 13  9  1  0
 13 16  1  0
 14 13  2  0
 17 16  1  0
 17 24  1  0
 17 18  1  1
 19 18  1  0
 19 20  2  0
 21 20  1  0
 22 21  1  0
 23 22  2  0
 23 19  1  0
 24 25  1  0
 26 24  2  0
M  END
$$$$
