PDH.pdb
     RDKit          3D

 26 27  0  0  1  0  0  0  0  0999 V2000
    8.8792  -14.2634   18.4127 N   0  0  0  0  0  0  0  0  0  0  0  0
    7.4316  -14.2218   18.5776 C   0  0  0  0  0  0  0  0  0  0  0  0
    7.1588  -13.1225   19.5731 C   0  0  0  0  0  0  0  0  0  0  0  0
    8.5174  -12.6000   19.9780 C   0  0  0  0  0  0  0  0  0  0  0  0
    9.4270  -13.7608   19.6586 C   0  0  1  0  0  0  0  0  0  0  0  0
    9.3599  -14.8354   20.6504 C   0  0  0  0  0  0  0  0  0  0  0  0
    8.3142  -15.0553   21.3472 O   0  0  0  0  0  0  0  0  0  0  0  0
   10.4600  -15.7246   20.9182 N   0  0  0  0  0  0  0  0  0  0  0  0
   10.4729  -16.5660   22.0830 C   0  0  1  0  0  0  0  0  0  0  0  0
   11.6557  -17.4897   22.0074 C   0  0  0  0  0  0  0  0  0  0  0  0
   11.8165  -18.0808   20.6611 C   0  0  0  0  0  0  0  0  0  0  0  0
   12.7777  -17.8529   19.8866 O   0  0  0  0  0  0  0  0  0  0  0  0
   10.4954  -15.8287   23.3670 C   0  0  0  0  0  0  0  0  0  0  0  0
   10.6084  -14.5802   23.2898 O   0  0  0  0  0  0  0  0  0  0  0  0
   10.8265  -18.9629   20.2073 O   0  0  0  0  0  0  0  0  0  0  0  0
   10.4009  -16.4353   24.6405 N   0  0  0  0  0  0  0  0  0  0  0  0
    9.6769  -15.8308   25.7755 C   0  0  1  0  0  0  0  0  0  0  0  0
    8.2494  -15.6186   25.4361 C   0  0  0  0  0  0  0  0  0  0  0  0
    7.6788  -14.3152   25.7762 C   0  0  0  0  0  0  0  0  0  0  0  0
    8.1562  -13.1784   26.3412 C   0  0  0  0  0  0  0  0  0  0  0  0
    7.1851  -12.2171   26.3585 N   0  0  0  0  0  0  0  0  0  0  0  0
    6.1294  -12.7831   25.8014 C   0  0  0  0  0  0  0  0  0  0  0  0
    6.3810  -14.0274   25.4419 N   0  0  0  0  0  0  0  0  0  0  0  0
    9.7580  -16.7934   26.9214 C   0  0  0  0  0  0  0  0  0  0  0  0
    9.9560  -16.4577   28.2267 O   0  0  0  0  0  0  0  0  0  0  0  0
    9.6316  -18.0182   26.6667 O   0  0  0  0  0  0  0  0  0  0  0  0
  1  2  1  0
  2  3  1  0
  4  3  1  0
  5  1  1  0
  5  4  1  0
  5  6  1  1
  7  6  2  0
  8  6  1  0
  9  8  1  0
  9 10  1  6
 11 10  1  0
 11 15  1  0
 12 11  2  0
 13  9  1  0
 13 16  1  0
 14 13  2  0
 17 16  1  0
 17 24  1  0
 17 18  1  6
 19 18  1  0
 19 20  2  0
 21 20  1  0
 22 21  1  0
 23 22  2  0
 23 19  1  0
 24 25  1  0
 26 24  2  0
M  END
$$$$
