PDH.pdb
     RDKit          3D

 26 27  0  0  1  0  0  0  0  0999 V2000
    9.3001  -14.3342   18.8156 N   0  0  0  0  0  0  0  0  0  0  0  0
    8.0409  -14.7073   18.1833 C   0  0  0  0  0  0  0  0  0  0  0  0
    7.0480  -13.6424   18.5757 C   0  0  0  0  0  0  0  0  0  0  0  0
    7.8048  -12.7016   19.4839 C   0  0  0  0  0  0  0  0  0  0  0  0
    8.9327  -13.5665   19.9905 C   0  0  1  0  0  0  0  0  0  0  0  0
    8.5154  -14.5049   21.0338 C   0  0  0  0  0  0  0  0  0  0  0  0
    7.7149  -14.1718   21.9695 O   0  0  0  0  0  0  0  0  0  0  0  0
    8.9708  -15.8695   21.0883 N   0  0  0  0  0  0  0  0  0  0  0  0
    8.8441  -16.6512   22.2873 C   0  0  1  0  0  0  0  0  0  0  0  0
    9.4754  -17.9965   22.0646 C   0  0  0  0  0  0  0  0  0  0  0  0
    9.0338  -18.6168   20.7966 C   0  0  0  0  0  0  0  0  0  0  0  0
    7.8437  -18.8930   20.5083 O   0  0  0  0  0  0  0  0  0  0  0  0
    9.4278  -16.0181   23.4920 C   0  0  0  0  0  0  0  0  0  0  0  0
    9.8068  -14.8273   23.3665 O   0  0  0  0  0  0  0  0  0  0  0  0
   10.0100  -18.9227   19.8386 O   0  0  0  0  0  0  0  0  0  0  0  0
    9.5796  -16.6622   24.7414 N   0  0  0  0  0  0  0  0  0  0  0  0
    9.1682  -16.0557   26.0223 C   0  0  1  0  0  0  0  0  0  0  0  0
    7.7283  -15.7036   25.9994 C   0  0  0  0  0  0  0  0  0  0  0  0
    7.3901  -14.3002   26.2366 C   0  0  0  0  0  0  0  0  0  0  0  0
    8.1013  -13.1716   26.4816 C   0  0  0  0  0  0  0  0  0  0  0  0
    7.2641  -12.0942   26.5563 N   0  0  0  0  0  0  0  0  0  0  0  0
    6.0537  -12.5831   26.3537 C   0  0  0  0  0  0  0  0  0  0  0  0
    6.0852  -13.8877   26.1597 N   0  0  0  0  0  0  0  0  0  0  0  0
    9.3934  -17.0787   27.0942 C   0  0  0  0  0  0  0  0  0  0  0  0
   10.0037  -16.8524   28.2909 O   0  0  0  0  0  0  0  0  0  0  0  0
    8.9857  -18.2489   26.8811 O   0  0  0  0  0  0  0  0  0  0  0  0
  1  2  1  0
  2  3  1  0
  4  3  1  0
  5  1  1  0
  5  4  1  0
  5  6  1  1
  7  6  2  0
  8  6  1  0
  9  8  1  0
  9 10  1  6
 11 10  1  0
 11 15  1  0
 12 11  2  0
 13  9  1  0
 13 16  1  0
 14 13  2  0
 17 16  1  0
 17 24  1  0
 17 18  1  6
 19 18  1  0
 19 20  2  0
 21 20  1  0
 22 21  1  0
 23 22  2  0
 23 19  1  0
 24 25  1  0
 26 24  2  0
M  END
$$$$
