PDH.pdb
     RDKit          3D

 26 27  0  0  1  0  0  0  0  0999 V2000
    9.4678  -14.0799   18.7677 N   0  0  0  0  0  0  0  0  0  0  0  0
    8.1582  -14.5136   18.2974 C   0  0  0  0  0  0  0  0  0  0  0  0
    7.1491  -13.7365   19.1048 C   0  0  0  0  0  0  0  0  0  0  0  0
    7.9611  -12.8984   20.0645 C   0  0  0  0  0  0  0  0  0  0  0  0
    9.2663  -13.6518   20.1392 C   0  0  1  0  0  0  0  0  0  0  0  0
    9.1945  -14.8467   20.9819 C   0  0  0  0  0  0  0  0  0  0  0  0
    8.1648  -15.1267   21.6809 O   0  0  0  0  0  0  0  0  0  0  0  0
   10.2717  -15.7957   21.0895 N   0  0  0  0  0  0  0  0  0  0  0  0
   10.2462  -16.8453   22.0706 C   0  0  1  0  0  0  0  0  0  0  0  0
   11.4287  -17.7471   21.8545 C   0  0  0  0  0  0  0  0  0  0  0  0
   11.4168  -18.3705   20.5133 C   0  0  0  0  0  0  0  0  0  0  0  0
   10.4136  -18.9004   19.9762 O   0  0  0  0  0  0  0  0  0  0  0  0
   10.2304  -16.3687   23.4725 C   0  0  0  0  0  0  0  0  0  0  0  0
   11.0410  -15.4528   23.7580 O   0  0  0  0  0  0  0  0  0  0  0  0
   12.6107  -18.3748   19.7790 O   0  0  0  0  0  0  0  0  0  0  0  0
    9.3780  -16.8744   24.4807 N   0  0  0  0  0  0  0  0  0  0  0  0
    9.3848  -16.3814   25.8716 C   0  0  1  0  0  0  0  0  0  0  0  0
    8.0127  -16.0355   26.3140 C   0  0  0  0  0  0  0  0  0  0  0  0
    7.4523  -14.7844   25.8033 C   0  0  0  0  0  0  0  0  0  0  0  0
    7.9363  -13.7405   25.0853 C   0  0  0  0  0  0  0  0  0  0  0  0
    6.9361  -12.8486   24.8179 N   0  0  0  0  0  0  0  0  0  0  0  0
    5.8557  -13.3642   25.3765 C   0  0  0  0  0  0  0  0  0  0  0  0
    6.1194  -14.5122   25.9709 N   0  0  0  0  0  0  0  0  0  0  0  0
    9.9008  -17.4909   26.7369 C   0  0  0  0  0  0  0  0  0  0  0  0
   10.1464  -17.4052   28.0741 O   0  0  0  0  0  0  0  0  0  0  0  0
   10.1274  -18.6010   26.1917 O   0  0  0  0  0  0  0  0  0  0  0  0
  1  2  1  0
  2  3  1  0
  4  3  1  0
  5  1  1  0
  5  4  1  0
  5  6  1  1
  7  6  2  0
  8  6  1  0
  9  8  1  0
  9 10  1  1
 11 10  1  0
 11 15  1  0
 12 11  2  0
 13  9  1  0
 13 16  1  0
 14 13  2  0
 17 16  1  0
 17 24  1  0
 17 18  1  1
 19 18  1  0
 19 20  2  0
 21 20  1  0
 22 21  1  0
 23 22  2  0
 23 19  1  0
 24 25  1  0
 26 24  2  0
M  END
$$$$
