PDH.pdb
     RDKit          3D

 26 27  0  0  1  0  0  0  0  0999 V2000
   -8.4911  -23.9745   20.5116 N   0  0  0  0  0  0  0  0  0  0  0  0
   -8.9612  -22.7985   19.7902 C   0  0  0  0  0  0  0  0  0  0  0  0
   -7.7468  -21.9309   19.5747 C   0  0  0  0  0  0  0  0  0  0  0  0
   -6.6073  -22.6593   20.2481 C   0  0  0  0  0  0  0  0  0  0  0  0
   -7.3200  -23.5367   21.2476 C   0  0  1  0  0  0  0  0  0  0  0  0
   -7.7750  -22.8079   22.4329 C   0  0  0  0  0  0  0  0  0  0  0  0
   -6.9692  -22.1840   23.2003 O   0  0  0  0  0  0  0  0  0  0  0  0
   -9.1581  -22.7363   22.8260 N   0  0  0  0  0  0  0  0  0  0  0  0
   -9.5537  -22.0967   24.0504 C   0  0  1  0  0  0  0  0  0  0  0  0
  -11.0483  -21.9402   24.0610 C   0  0  0  0  0  0  0  0  0  0  0  0
  -11.4833  -20.6935   23.3947 C   0  0  0  0  0  0  0  0  0  0  0  0
  -11.0013  -20.2441   22.3263 O   0  0  0  0  0  0  0  0  0  0  0  0
   -9.1161  -22.8030   25.2760 C   0  0  0  0  0  0  0  0  0  0  0  0
   -9.3489  -24.0365   25.3206 O   0  0  0  0  0  0  0  0  0  0  0  0
  -12.5103  -19.9512   23.9935 O   0  0  0  0  0  0  0  0  0  0  0  0
   -8.4696  -22.1832   26.3700 N   0  0  0  0  0  0  0  0  0  0  0  0
   -7.9763  -22.9242   27.5470 C   0  0  1  0  0  0  0  0  0  0  0  0
   -6.4960  -23.0044   27.5358 C   0  0  0  0  0  0  0  0  0  0  0  0
   -5.8590  -23.5802   28.7202 C   0  0  0  0  0  0  0  0  0  0  0  0
   -6.3058  -24.1696   29.8571 C   0  0  0  0  0  0  0  0  0  0  0  0
   -5.2501  -24.5973   30.6121 N   0  0  0  0  0  0  0  0  0  0  0  0
   -4.1745  -24.2630   29.9219 C   0  0  0  0  0  0  0  0  0  0  0  0
   -4.4925  -23.6580   28.7934 N   0  0  0  0  0  0  0  0  0  0  0  0
   -8.4049  -22.1644   28.7656 C   0  0  0  0  0  0  0  0  0  0  0  0
   -8.6134  -22.6992   30.0011 O   0  0  0  0  0  0  0  0  0  0  0  0
   -8.5882  -20.9260   28.6486 O   0  0  0  0  0  0  0  0  0  0  0  0
  1  2  1  0
  2  3  1  0
  4  3  1  0
  5  1  1  0
  5  4  1  0
  5  6  1  1
  7  6  2  0
  8  6  1  0
  9  8  1  0
  9 10  1  1
 11 10  1  0
 11 15  1  0
 12 11  2  0
 13  9  1  0
 13 16  1  0
 14 13  2  0
 17 16  1  0
 17 24  1  0
 17 18  1  6
 19 18  1  0
 19 20  2  0
 21 20  1  0
 22 21  1  0
 23 22  2  0
 23 19  1  0
 24 25  1  0
 26 24  2  0
M  END
$$$$
