PDH.pdb
     RDKit          3D

 26 27  0  0  1  0  0  0  0  0999 V2000
    9.5294  -14.9694   15.1988 N   0  0  0  0  0  0  0  0  0  0  0  0
    8.4054  -15.8201   14.8282 C   0  0  0  0  0  0  0  0  0  0  0  0
    7.1944  -15.2236   15.5001 C   0  0  0  0  0  0  0  0  0  0  0  0
    7.7120  -14.0430   16.2881 C   0  0  0  0  0  0  0  0  0  0  0  0
    9.1696  -14.3845   16.4768 C   0  0  1  0  0  0  0  0  0  0  0  0
    9.3959  -15.3903   17.5162 C   0  0  0  0  0  0  0  0  0  0  0  0
    8.7723  -15.3726   18.6289 O   0  0  0  0  0  0  0  0  0  0  0  0
   10.3335  -16.4727   17.3685 N   0  0  0  0  0  0  0  0  0  0  0  0
   10.6503  -17.3409   18.4688 C   0  0  1  0  0  0  0  0  0  0  0  0
   11.6887  -18.3333   18.0271 C   0  0  0  0  0  0  0  0  0  0  0  0
   11.7435  -19.5154   18.9143 C   0  0  0  0  0  0  0  0  0  0  0  0
   11.0462  -19.6721   19.9461 O   0  0  0  0  0  0  0  0  0  0  0  0
   11.1165  -16.6374   19.6855 C   0  0  0  0  0  0  0  0  0  0  0  0
   11.9484  -15.7129   19.5094 O   0  0  0  0  0  0  0  0  0  0  0  0
   12.6383  -20.5432   18.5865 O   0  0  0  0  0  0  0  0  0  0  0  0
   10.6903  -16.9407   20.9989 N   0  0  0  0  0  0  0  0  0  0  0  0
   10.8574  -16.0192   22.1394 C   0  0  1  0  0  0  0  0  0  0  0  0
    9.6001  -15.2811   22.4081 C   0  0  0  0  0  0  0  0  0  0  0  0
    9.2698  -14.1887   21.4928 C   0  0  0  0  0  0  0  0  0  0  0  0
    9.8651  -13.6356   20.4069 C   0  0  0  0  0  0  0  0  0  0  0  0
    9.0666  -12.6616   19.8769 N   0  0  0  0  0  0  0  0  0  0  0  0
    7.9944  -12.6369   20.6482 C   0  0  0  0  0  0  0  0  0  0  0  0
    8.0755  -13.5277   21.6180 N   0  0  0  0  0  0  0  0  0  0  0  0
   11.1899  -16.8508   23.3412 C   0  0  0  0  0  0  0  0  0  0  0  0
   11.5970  -16.3712   24.5495 O   0  0  0  0  0  0  0  0  0  0  0  0
   11.0851  -18.0993   23.2359 O   0  0  0  0  0  0  0  0  0  0  0  0
  1  2  1  0
  2  3  1  0
  4  3  1  0
  5  1  1  0
  5  4  1  0
  5  6  1  1
  7  6  2  0
  8  6  1  0
  9  8  1  0
  9 10  1  6
 11 10  1  0
 11 15  1  0
 12 11  2  0
 13  9  1  0
 13 16  1  0
 14 13  2  0
 17 16  1  0
 17 24  1  0
 17 18  1  1
 19 18  1  0
 19 20  2  0
 21 20  1  0
 22 21  1  0
 23 22  2  0
 23 19  1  0
 24 25  1  0
 26 24  2  0
M  END
$$$$
