PDH.pdb
     RDKit          3D

 26 27  0  0  1  0  0  0  0  0999 V2000
    8.9654  -14.1886   18.6256 N   0  0  0  0  0  0  0  0  0  0  0  0
    7.5093  -14.2243   18.5701 C   0  0  0  0  0  0  0  0  0  0  0  0
    7.0320  -13.1319   19.4936 C   0  0  0  0  0  0  0  0  0  0  0  0
    8.2846  -12.5323   20.0887 C   0  0  0  0  0  0  0  0  0  0  0  0
    9.2916  -13.6448   19.9305 C   0  0  1  0  0  0  0  0  0  0  0  0
    9.1317  -14.7118   20.9199 C   0  0  0  0  0  0  0  0  0  0  0  0
    8.0393  -14.8968   21.5522 O   0  0  0  0  0  0  0  0  0  0  0  0
   10.1861  -15.6320   21.2574 N   0  0  0  0  0  0  0  0  0  0  0  0
   10.0689  -16.5222   22.3794 C   0  0  1  0  0  0  0  0  0  0  0  0
   11.2417  -17.4617   22.3843 C   0  0  0  0  0  0  0  0  0  0  0  0
   11.2120  -18.3969   21.2389 C   0  0  0  0  0  0  0  0  0  0  0  0
   10.9925  -18.0672   20.0478 O   0  0  0  0  0  0  0  0  0  0  0  0
    9.9686  -15.8407   23.6902 C   0  0  0  0  0  0  0  0  0  0  0  0
    9.8442  -14.5912   23.6595 O   0  0  0  0  0  0  0  0  0  0  0  0
   11.4451  -19.7555   21.4925 O   0  0  0  0  0  0  0  0  0  0  0  0
   10.0053  -16.4997   24.9404 N   0  0  0  0  0  0  0  0  0  0  0  0
    9.4083  -15.9422   26.1694 C   0  0  1  0  0  0  0  0  0  0  0  0
    7.9389  -15.8073   26.0262 C   0  0  0  0  0  0  0  0  0  0  0  0
    7.3910  -14.4534   26.1097 C   0  0  0  0  0  0  0  0  0  0  0  0
    7.9080  -13.2245   26.3585 C   0  0  0  0  0  0  0  0  0  0  0  0
    6.9354  -12.2717   26.2412 N   0  0  0  0  0  0  0  0  0  0  0  0
    5.8392  -12.9355   25.9206 C   0  0  0  0  0  0  0  0  0  0  0  0
    6.0671  -14.2320   25.8324 N   0  0  0  0  0  0  0  0  0  0  0  0
    9.6940  -16.9051   27.2818 C   0  0  0  0  0  0  0  0  0  0  0  0
   10.1646  -18.1745   27.1307 O   0  0  0  0  0  0  0  0  0  0  0  0
    9.4868  -16.5166   28.4595 O   0  0  0  0  0  0  0  0  0  0  0  0
  1  2  1  0
  2  3  1  0
  4  3  1  0
  5  1  1  0
  5  4  1  0
  5  6  1  1
  7  6  2  0
  8  6  1  0
  9  8  1  0
  9 10  1  1
 11 10  1  0
 11 15  1  0
 12 11  2  0
 13  9  1  0
 13 16  1  0
 14 13  2  0
 17 16  1  0
 17 24  1  0
 17 18  1  6
 19 18  1  0
 19 20  2  0
 21 20  1  0
 22 21  1  0
 23 22  2  0
 23 19  1  0
 24 25  1  0
 26 24  2  0
M  END
$$$$
