PDH.pdb
     RDKit          3D

 26 27  0  0  1  0  0  0  0  0999 V2000
    8.2168  -14.8839   17.9889 N   0  0  0  0  0  0  0  0  0  0  0  0
    7.0993  -14.1647   18.5877 C   0  0  0  0  0  0  0  0  0  0  0  0
    7.6991  -12.9633   19.2738 C   0  0  0  0  0  0  0  0  0  0  0  0
    9.1905  -13.0830   19.0642 C   0  0  0  0  0  0  0  0  0  0  0  0
    9.3709  -14.5586   18.8055 C   0  0  1  0  0  0  0  0  0  0  0  0
    9.3086  -15.3690   20.0230 C   0  0  0  0  0  0  0  0  0  0  0  0
    8.2512  -15.4545   20.7314 O   0  0  0  0  0  0  0  0  0  0  0  0
   10.4270  -16.1296   20.5163 N   0  0  0  0  0  0  0  0  0  0  0  0
   10.3399  -16.8754   21.7415 C   0  0  1  0  0  0  0  0  0  0  0  0
   11.5188  -17.8025   21.8358 C   0  0  0  0  0  0  0  0  0  0  0  0
   11.5619  -18.7657   20.7142 C   0  0  0  0  0  0  0  0  0  0  0  0
   10.7112  -19.6650   20.5064 O   0  0  0  0  0  0  0  0  0  0  0  0
   10.2634  -16.0381   22.9605 C   0  0  0  0  0  0  0  0  0  0  0  0
   11.1282  -15.1338   23.0696 O   0  0  0  0  0  0  0  0  0  0  0  0
   12.6291  -18.6754   19.8101 O   0  0  0  0  0  0  0  0  0  0  0  0
    9.2983  -16.1963   23.9814 N   0  0  0  0  0  0  0  0  0  0  0  0
    9.0594  -15.1910   25.0350 C   0  0  1  0  0  0  0  0  0  0  0  0
    7.6811  -14.6524   24.9455 C   0  0  0  0  0  0  0  0  0  0  0  0
    7.3292  -13.5855   25.8826 C   0  0  0  0  0  0  0  0  0  0  0  0
    8.0098  -12.8509   26.7973 C   0  0  0  0  0  0  0  0  0  0  0  0
    7.1851  -11.9178   27.3600 N   0  0  0  0  0  0  0  0  0  0  0  0
    6.0130  -12.0973   26.7776 C   0  0  0  0  0  0  0  0  0  0  0  0
    6.0565  -13.0768   25.8948 N   0  0  0  0  0  0  0  0  0  0  0  0
    9.2184  -15.8811   26.3558 C   0  0  0  0  0  0  0  0  0  0  0  0
    9.5628  -15.2795   27.5286 O   0  0  0  0  0  0  0  0  0  0  0  0
    9.0166  -17.1215   26.3960 O   0  0  0  0  0  0  0  0  0  0  0  0
  1  2  1  0
  2  3  1  0
  4  3  1  0
  5  1  1  0
  5  4  1  0
  5  6  1  1
  7  6  2  0
  8  6  1  0
  9  8  1  0
  9 10  1  1
 11 10  1  0
 11 15  1  0
 12 11  2  0
 13  9  1  0
 13 16  1  0
 14 13  2  0
 17 16  1  0
 17 24  1  0
 17 18  1  6
 19 18  1  0
 19 20  2  0
 21 20  1  0
 22 21  1  0
 23 22  2  0
 23 19  1  0
 24 25  1  0
 26 24  2  0
M  END
$$$$
