PDH.pdb
     RDKit          3D

 26 27  0  0  1  0  0  0  0  0999 V2000
    8.6546  -13.9516   17.4416 N   0  0  0  0  0  0  0  0  0  0  0  0
    7.5603  -14.0168   18.4022 C   0  0  0  0  0  0  0  0  0  0  0  0
    7.8801  -12.9963   19.4653 C   0  0  0  0  0  0  0  0  0  0  0  0
    9.2138  -12.4072   19.0695 C   0  0  0  0  0  0  0  0  0  0  0  0
    9.8043  -13.4843   18.1930 C   0  0  1  0  0  0  0  0  0  0  0  0
   10.3407  -14.6152   18.9521 C   0  0  0  0  0  0  0  0  0  0  0  0
    9.5920  -15.4088   19.6132 O   0  0  0  0  0  0  0  0  0  0  0  0
   11.7461  -14.9215   19.0140 N   0  0  0  0  0  0  0  0  0  0  0  0
   12.2345  -16.0319   19.7843 C   0  0  1  0  0  0  0  0  0  0  0  0
   13.6657  -16.2962   19.4102 C   0  0  0  0  0  0  0  0  0  0  0  0
   14.0536  -17.7035   19.6483 C   0  0  0  0  0  0  0  0  0  0  0  0
   15.2343  -18.1135   19.7639 O   0  0  0  0  0  0  0  0  0  0  0  0
   12.1260  -15.8514   21.2501 C   0  0  0  0  0  0  0  0  0  0  0  0
   12.6780  -14.8290   21.7272 O   0  0  0  0  0  0  0  0  0  0  0  0
   13.0331  -18.6584   19.7543 O   0  0  0  0  0  0  0  0  0  0  0  0
   11.4552  -16.7422   22.1192 N   0  0  0  0  0  0  0  0  0  0  0  0
   11.2859  -16.4931   23.5638 C   0  0  1  0  0  0  0  0  0  0  0  0
    9.8844  -16.7393   23.9796 C   0  0  0  0  0  0  0  0  0  0  0  0
    8.8616  -15.8752   23.3902 C   0  0  0  0  0  0  0  0  0  0  0  0
    8.6875  -14.5347   23.2799 C   0  0  0  0  0  0  0  0  0  0  0  0
    7.5630  -14.2640   22.5522 N   0  0  0  0  0  0  0  0  0  0  0  0
    7.0690  -15.4456   22.2283 C   0  0  0  0  0  0  0  0  0  0  0  0
    7.8100  -16.4272   22.7059 N   0  0  0  0  0  0  0  0  0  0  0  0
   12.1764  -17.4548   24.2907 C   0  0  0  0  0  0  0  0  0  0  0  0
   12.9930  -18.3758   23.7071 O   0  0  0  0  0  0  0  0  0  0  0  0
   12.1788  -17.4146   25.5474 O   0  0  0  0  0  0  0  0  0  0  0  0
  1  2  1  0
  2  3  1  0
  4  3  1  0
  5  1  1  0
  5  4  1  0
  5  6  1  1
  7  6  2  0
  8  6  1  0
  9  8  1  0
  9 10  1  1
 11 10  1  0
 11 15  1  0
 12 11  2  0
 13  9  1  0
 13 16  1  0
 14 13  2  0
 17 16  1  0
 17 24  1  0
 17 18  1  1
 19 18  1  0
 19 20  2  0
 21 20  1  0
 22 21  1  0
 23 22  2  0
 23 19  1  0
 24 25  1  0
 26 24  2  0
M  END
$$$$
