PDH.pdb
     RDKit          3D

 26 27  0  0  1  0  0  0  0  0999 V2000
    9.3335  -14.2785   18.1297 N   0  0  0  0  0  0  0  0  0  0  0  0
    7.9393  -14.5945   17.8454 C   0  0  0  0  0  0  0  0  0  0  0  0
    7.1197  -13.6661   18.7058 C   0  0  0  0  0  0  0  0  0  0  0  0
    8.1229  -12.8658   19.5032 C   0  0  0  0  0  0  0  0  0  0  0  0
    9.3449  -13.7508   19.4810 C   0  0  1  0  0  0  0  0  0  0  0  0
    9.2562  -14.8789   20.4098 C   0  0  0  0  0  0  0  0  0  0  0  0
    8.4227  -14.9030   21.3751 O   0  0  0  0  0  0  0  0  0  0  0  0
   10.0961  -16.0439   20.3101 N   0  0  0  0  0  0  0  0  0  0  0  0
   10.1555  -17.0138   21.3687 C   0  0  1  0  0  0  0  0  0  0  0  0
   11.0100  -18.1687   20.9281 C   0  0  0  0  0  0  0  0  0  0  0  0
   10.4721  -18.8315   19.7203 C   0  0  0  0  0  0  0  0  0  0  0  0
    9.3762  -19.4408   19.6629 O   0  0  0  0  0  0  0  0  0  0  0  0
   10.6591  -16.4814   22.6555 C   0  0  0  0  0  0  0  0  0  0  0  0
   11.6590  -15.7240   22.5911 O   0  0  0  0  0  0  0  0  0  0  0  0
   11.2363  -18.7808   18.5464 O   0  0  0  0  0  0  0  0  0  0  0  0
   10.0935  -16.7711   23.9184 N   0  0  0  0  0  0  0  0  0  0  0  0
   10.5989  -16.2035   25.1833 C   0  0  1  0  0  0  0  0  0  0  0  0
    9.5661  -15.3603   25.8315 C   0  0  0  0  0  0  0  0  0  0  0  0
    9.9026  -14.7955   27.1384 C   0  0  0  0  0  0  0  0  0  0  0  0
   10.9816  -14.8538   27.9581 C   0  0  0  0  0  0  0  0  0  0  0  0
   10.7845  -14.0608   29.0534 N   0  0  0  0  0  0  0  0  0  0  0  0
    9.5871  -13.5292   28.8834 C   0  0  0  0  0  0  0  0  0  0  0  0
    9.0309  -13.9394   27.7596 N   0  0  0  0  0  0  0  0  0  0  0  0
   10.9188  -17.3514   26.0923 C   0  0  0  0  0  0  0  0  0  0  0  0
   10.6306  -18.6603   25.8484 O   0  0  0  0  0  0  0  0  0  0  0  0
   11.5053  -17.0950   27.1744 O   0  0  0  0  0  0  0  0  0  0  0  0
  1  2  1  0
  2  3  1  0
  4  3  1  0
  5  1  1  0
  5  4  1  0
  5  6  1  1
  7  6  2  0
  8  6  1  0
  9  8  1  0
  9 10  1  6
 11 10  1  0
 11 15  1  0
 12 11  2  0
 13  9  1  0
 13 16  1  0
 14 13  2  0
 17 16  1  0
 17 24  1  0
 17 18  1  1
 19 18  1  0
 19 20  2  0
 21 20  1  0
 22 21  1  0
 23 22  2  0
 23 19  1  0
 24 25  1  0
 26 24  2  0
M  END
$$$$
