IWC.pdb
     RDKit          3D

 29 30  0  0  1  0  0  0  0  0999 V2000
   12.4451  -17.7914   16.6437 C   0  0  0  0  0  0  0  0  0  0  0  0
   11.0357  -17.6958   17.1492 C   0  0  0  0  0  0  0  0  0  0  0  0
   10.9134  -16.9815   18.4663 C   0  0  2  0  0  0  0  0  0  0  0  0
   11.9008  -17.6037   19.4260 C   0  0  0  0  0  0  0  0  0  0  0  0
    9.5048  -17.0068   19.0179 C   0  0  2  0  0  0  0  0  0  0  0  0
    8.6301  -16.4224   18.0311 N   0  0  0  0  0  0  0  0  0  0  0  0
    9.3791  -16.3081   20.2959 C   0  0  0  0  0  0  0  0  0  0  0  0
    9.8671  -15.1425   20.4084 O   0  0  0  0  0  0  0  0  0  0  0  0
    8.7457  -16.8285   21.4491 N   0  0  0  0  0  0  0  0  0  0  0  0
    8.6309  -16.1487   22.7083 C   0  0  1  0  0  0  0  0  0  0  0  0
    7.2201  -15.8575   23.1024 C   0  0  0  0  0  0  0  0  0  0  0  0
    7.0143  -15.3106   24.4386 C   0  0  0  0  0  0  0  0  0  0  0  0
    6.5067  -16.0029   25.5183 C   0  0  0  0  0  0  0  0  0  0  0  0
    6.4516  -15.1758   26.5632 N   0  0  0  0  0  0  0  0  0  0  0  0
    6.9012  -13.9611   26.2265 C   0  0  0  0  0  0  0  0  0  0  0  0
    7.0368  -12.7964   26.9625 C   0  0  0  0  0  0  0  0  0  0  0  0
    7.5344  -11.6724   26.3831 C   0  0  0  0  0  0  0  0  0  0  0  0
    7.8999  -11.7142   25.0548 C   0  0  0  0  0  0  0  0  0  0  0  0
    7.7630  -12.8760   24.3252 C   0  0  0  0  0  0  0  0  0  0  0  0
    7.2581  -14.0340   24.8930 C   0  0  0  0  0  0  0  0  0  0  0  0
    9.4351  -16.7658   23.7754 C   0  0  0  0  0  0  0  0  0  0  0  0
    9.4558  -18.0404   23.8901 O   0  0  0  0  0  0  0  0  0  0  0  0
   10.2180  -16.0537   24.7224 N   0  0  0  0  0  0  0  0  0  0  0  0
   11.0306  -16.7539   25.7210 C   0  0  1  0  0  0  0  0  0  0  0  0
   12.4413  -16.1916   25.6667 C   0  0  0  0  0  0  0  0  0  0  0  0
   13.2574  -16.7642   24.1550 S   0  0  0  0  0  0  0  0  0  0  0  0
   10.4291  -16.6904   27.0506 C   0  0  0  0  0  0  0  0  0  0  0  0
   11.0490  -17.3365   28.1343 O   0  0  0  0  0  0  0  0  0  0  0  0
    9.3580  -16.0601   27.2289 O   0  0  0  0  0  0  0  0  0  0  0  0
  2  1  1  0
  3  2  1  0
  3  4  1  1
  5  3  1  0
  5  6  1  6
  7  5  1  0
  8  7  2  0
  9  7  1  0
 10  9  1  0
 11 12  1  0
 10 11  1  1
 12 20  1  0
 12 13  2  0
 13 14  1  0
 15 14  1  0
 15 16  2  0
 17 16  1  0
 18 17  2  0
 19 18  1  0
 19 20  2  0
 20 15  1  0
 21 22  2  0
 21 10  1  0
 23 21  1  0
 24 23  1  0
 24 25  1  1
 26 25  1  0
 27 24  1  0
 28 27  1  0
 29 27  2  0
M  END
$$$$
