IWC.pdb
     RDKit          3D

 29 30  0  0  1  0  0  0  0  0999 V2000
    7.3463  -12.6350   17.8544 C   0  0  0  0  0  0  0  0  0  0  0  0
    7.1154  -13.8168   18.7494 C   0  0  0  0  0  0  0  0  0  0  0  0
    7.9111  -13.7738   20.0242 C   0  0  2  0  0  0  0  0  0  0  0  0
    9.3565  -13.5233   19.6617 C   0  0  0  0  0  0  0  0  0  0  0  0
    7.7519  -15.0270   20.8567 C   0  0  2  0  0  0  0  0  0  0  0  0
    6.3424  -15.3137   20.9640 N   0  0  0  0  0  0  0  0  0  0  0  0
    8.3567  -14.9126   22.1828 C   0  0  0  0  0  0  0  0  0  0  0  0
    8.4836  -13.7620   22.7019 O   0  0  0  0  0  0  0  0  0  0  0  0
    8.8257  -15.9980   22.9598 N   0  0  0  0  0  0  0  0  0  0  0  0
    9.6263  -15.8819   24.1457 C   0  0  1  0  0  0  0  0  0  0  0  0
    8.8911  -16.2310   25.3981 C   0  0  0  0  0  0  0  0  0  0  0  0
    7.7147  -15.4280   25.7108 C   0  0  0  0  0  0  0  0  0  0  0  0
    6.4060  -15.8535   25.6167 C   0  0  0  0  0  0  0  0  0  0  0  0
    5.6070  -14.8455   25.9700 N   0  0  0  0  0  0  0  0  0  0  0  0
    6.3272  -13.7658   26.2961 C   0  0  0  0  0  0  0  0  0  0  0  0
    5.9480  -12.5043   26.7222 C   0  0  0  0  0  0  0  0  0  0  0  0
    6.8874  -11.5629   27.0015 C   0  0  0  0  0  0  0  0  0  0  0  0
    8.2189  -11.8870   26.8533 C   0  0  0  0  0  0  0  0  0  0  0  0
    8.5925  -13.1443   26.4284 C   0  0  0  0  0  0  0  0  0  0  0  0
    7.6539  -14.1202   26.1371 C   0  0  0  0  0  0  0  0  0  0  0  0
   10.9414  -16.5313   24.0230 C   0  0  0  0  0  0  0  0  0  0  0  0
   11.0054  -17.7608   23.6732 O   0  0  0  0  0  0  0  0  0  0  0  0
   12.1895  -15.8984   24.2645 N   0  0  0  0  0  0  0  0  0  0  0  0
   13.4513  -16.6368   24.1640 C   0  0  1  0  0  0  0  0  0  0  0  0
   14.5935  -15.6348   24.1924 C   0  0  0  0  0  0  0  0  0  0  0  0
   16.1713  -16.5231   24.1710 S   0  0  0  0  0  0  0  0  0  0  0  0
   13.5578  -17.6705   25.1905 C   0  0  0  0  0  0  0  0  0  0  0  0
   13.1722  -17.3905   26.5130 O   0  0  0  0  0  0  0  0  0  0  0  0
   13.9939  -18.8102   24.8952 O   0  0  0  0  0  0  0  0  0  0  0  0
  2  1  1  0
  3  2  1  0
  3  4  1  6
  5  3  1  0
  5  6  1  1
  7  5  1  0
  8  7  2  0
  9  7  1  0
 10  9  1  0
 11 12  1  0
 10 11  1  1
 12 20  1  0
 12 13  2  0
 13 14  1  0
 15 14  1  0
 15 16  2  0
 17 16  1  0
 18 17  2  0
 19 18  1  0
 19 20  2  0
 20 15  1  0
 21 22  2  0
 21 10  1  0
 23 21  1  0
 24 23  1  0
 24 25  1  1
 26 25  1  0
 27 24  1  0
 28 27  1  0
 29 27  2  0
M  END
$$$$
