IWC.pdb
     RDKit          3D

 29 30  0  0  1  0  0  0  0  0999 V2000
    6.7971  -12.2888   19.1790 C   0  0  0  0  0  0  0  0  0  0  0  0
    7.1616  -13.7211   19.4369 C   0  0  0  0  0  0  0  0  0  0  0  0
    8.0544  -13.9118   20.6312 C   0  0  2  0  0  0  0  0  0  0  0  0
    9.2908  -13.0676   20.4269 C   0  0  0  0  0  0  0  0  0  0  0  0
    8.4022  -15.3636   20.8770 C   0  0  2  0  0  0  0  0  0  0  0  0
    7.1767  -16.1238   20.8586 N   0  0  0  0  0  0  0  0  0  0  0  0
    9.1204  -15.5743   22.1328 C   0  0  0  0  0  0  0  0  0  0  0  0
   10.2736  -15.0646   22.2729 O   0  0  0  0  0  0  0  0  0  0  0  0
    8.6324  -16.3153   23.2350 N   0  0  0  0  0  0  0  0  0  0  0  0
    9.3449  -16.5419   24.4605 C   0  0  1  0  0  0  0  0  0  0  0  0
    8.4657  -16.5554   25.6678 C   0  0  0  0  0  0  0  0  0  0  0  0
    7.4504  -15.5117   25.7485 C   0  0  0  0  0  0  0  0  0  0  0  0
    6.0966  -15.6941   25.5566 C   0  0  0  0  0  0  0  0  0  0  0  0
    5.4870  -14.5160   25.6964 N   0  0  0  0  0  0  0  0  0  0  0  0
    6.3766  -13.5554   25.9737 C   0  0  0  0  0  0  0  0  0  0  0  0
    6.2207  -12.1991   26.2034 C   0  0  0  0  0  0  0  0  0  0  0  0
    7.3006  -11.4205   26.4758 C   0  0  0  0  0  0  0  0  0  0  0  0
    8.5483  -12.0046   26.5189 C   0  0  0  0  0  0  0  0  0  0  0  0
    8.6994  -13.3557   26.2893 C   0  0  0  0  0  0  0  0  0  0  0  0
    7.6144  -14.1697   26.0093 C   0  0  0  0  0  0  0  0  0  0  0  0
   10.2777  -17.6779   24.3868 C   0  0  0  0  0  0  0  0  0  0  0  0
   10.2619  -18.4390   23.3580 O   0  0  0  0  0  0  0  0  0  0  0  0
   11.2273  -18.0199   25.3859 N   0  0  0  0  0  0  0  0  0  0  0  0
   12.6029  -18.3860   25.0374 C   0  0  1  0  0  0  0  0  0  0  0  0
   13.2076  -17.2510   24.2277 C   0  0  0  0  0  0  0  0  0  0  0  0
   14.8631  -17.7277   23.6703 S   0  0  0  0  0  0  0  0  0  0  0  0
   13.3855  -18.7400   26.2188 C   0  0  0  0  0  0  0  0  0  0  0  0
   14.0452  -19.9799   26.2795 O   0  0  0  0  0  0  0  0  0  0  0  0
   13.4708  -17.9394   27.1821 O   0  0  0  0  0  0  0  0  0  0  0  0
  2  1  1  0
  3  2  1  0
  3  4  1  6
  5  3  1  0
  5  6  1  1
  7  5  1  0
  8  7  2  0
  9  7  1  0
 10  9  1  0
 11 12  1  0
 10 11  1  1
 12 20  1  0
 12 13  2  0
 13 14  1  0
 15 14  1  0
 15 16  2  0
 17 16  1  0
 18 17  2  0
 19 18  1  0
 19 20  2  0
 20 15  1  0
 21 22  2  0
 21 10  1  0
 23 21  1  0
 24 23  1  0
 24 25  1  1
 26 25  1  0
 27 24  1  0
 28 27  1  0
 29 27  2  0
M  END
$$$$
