IWC.pdb
     RDKit          3D

 29 30  0  0  1  0  0  0  0  0999 V2000
    6.4342  -12.2685   19.1370 C   0  0  0  0  0  0  0  0  0  0  0  0
    6.9953  -13.6479   19.3198 C   0  0  0  0  0  0  0  0  0  0  0  0
    7.7961  -13.8122   20.5813 C   0  0  2  0  0  0  0  0  0  0  0  0
    8.9510  -12.8392   20.5288 C   0  0  0  0  0  0  0  0  0  0  0  0
    8.2705  -15.2331   20.7933 C   0  0  2  0  0  0  0  0  0  0  0  0
    7.1130  -16.0935   20.7916 N   0  0  0  0  0  0  0  0  0  0  0  0
    9.0359  -15.4018   22.0274 C   0  0  0  0  0  0  0  0  0  0  0  0
   10.0962  -14.7242   22.1891 O   0  0  0  0  0  0  0  0  0  0  0  0
    8.6918  -16.2757   23.0856 N   0  0  0  0  0  0  0  0  0  0  0  0
    9.4360  -16.4349   24.3028 C   0  0  1  0  0  0  0  0  0  0  0  0
    8.5749  -16.6369   25.5063 C   0  0  0  0  0  0  0  0  0  0  0  0
    7.5175  -15.6568   25.7252 C   0  0  0  0  0  0  0  0  0  0  0  0
    6.1657  -15.8909   25.5817 C   0  0  0  0  0  0  0  0  0  0  0  0
    5.5097  -14.7615   25.8521 N   0  0  0  0  0  0  0  0  0  0  0  0
    6.3665  -13.7839   26.1701 C   0  0  0  0  0  0  0  0  0  0  0  0
    6.1594  -12.4616   26.5242 C   0  0  0  0  0  0  0  0  0  0  0  0
    7.2144  -11.6549   26.8124 C   0  0  0  0  0  0  0  0  0  0  0  0
    8.4886  -12.1764   26.7460 C   0  0  0  0  0  0  0  0  0  0  0  0
    8.6905  -13.4936   26.3927 C   0  0  0  0  0  0  0  0  0  0  0  0
    7.6318  -14.3352   26.0939 C   0  0  0  0  0  0  0  0  0  0  0  0
   10.5377  -17.4039   24.1858 C   0  0  0  0  0  0  0  0  0  0  0  0
   10.2896  -18.5923   23.7808 O   0  0  0  0  0  0  0  0  0  0  0  0
   11.8980  -17.1332   24.4907 N   0  0  0  0  0  0  0  0  0  0  0  0
   12.9300  -18.1649   24.3554 C   0  0  1  0  0  0  0  0  0  0  0  0
   14.1662  -17.5254   23.7453 C   0  0  0  0  0  0  0  0  0  0  0  0
   13.7258  -16.7549   22.1669 S   0  0  0  0  0  0  0  0  0  0  0  0
   13.1899  -18.8412   25.6237 C   0  0  0  0  0  0  0  0  0  0  0  0
   14.1897  -19.8262   25.7033 O   0  0  0  0  0  0  0  0  0  0  0  0
   12.5217  -18.5456   26.6447 O   0  0  0  0  0  0  0  0  0  0  0  0
  2  1  1  0
  3  2  1  0
  3  4  1  6
  5  3  1  0
  5  6  1  1
  7  5  1  0
  8  7  2  0
  9  7  1  0
 10  9  1  0
 11 12  1  0
 10 11  1  1
 12 20  1  0
 12 13  2  0
 13 14  1  0
 15 14  1  0
 15 16  2  0
 17 16  1  0
 18 17  2  0
 19 18  1  0
 19 20  2  0
 20 15  1  0
 21 22  2  0
 21 10  1  0
 23 21  1  0
 24 23  1  0
 24 25  1  1
 26 25  1  0
 27 24  1  0
 28 27  1  0
 29 27  2  0
M  END
$$$$
