IWC.pdb
     RDKit          3D

 29 30  0  0  1  0  0  0  0  0999 V2000
    6.7061  -12.2975   19.0119 C   0  0  0  0  0  0  0  0  0  0  0  0
    7.2321  -13.6773   19.2770 C   0  0  0  0  0  0  0  0  0  0  0  0
    7.9494  -13.8082   20.5916 C   0  0  2  0  0  0  0  0  0  0  0  0
    9.0495  -12.7729   20.6260 C   0  0  0  0  0  0  0  0  0  0  0  0
    8.4856  -15.2027   20.8302 C   0  0  2  0  0  0  0  0  0  0  0  0
    7.3813  -16.1258   20.7373 N   0  0  0  0  0  0  0  0  0  0  0  0
    9.1657  -15.3409   22.1169 C   0  0  0  0  0  0  0  0  0  0  0  0
   10.2237  -14.6729   22.3264 O   0  0  0  0  0  0  0  0  0  0  0  0
    8.7392  -16.1747   23.1774 N   0  0  0  0  0  0  0  0  0  0  0  0
    9.4102  -16.3184   24.4384 C   0  0  1  0  0  0  0  0  0  0  0  0
    8.4797  -16.5145   25.5901 C   0  0  0  0  0  0  0  0  0  0  0  0
    7.4592  -15.4916   25.7874 C   0  0  0  0  0  0  0  0  0  0  0  0
    6.1045  -15.6631   25.5925 C   0  0  0  0  0  0  0  0  0  0  0  0
    5.4895  -14.5096   25.8578 N   0  0  0  0  0  0  0  0  0  0  0  0
    6.3765  -13.5759   26.2218 C   0  0  0  0  0  0  0  0  0  0  0  0
    6.2153  -12.2510   26.5899 C   0  0  0  0  0  0  0  0  0  0  0  0
    7.2936  -11.4966   26.9284 C   0  0  0  0  0  0  0  0  0  0  0  0
    8.5452  -12.0733   26.8986 C   0  0  0  0  0  0  0  0  0  0  0  0
    8.7016  -13.3929   26.5312 C   0  0  0  0  0  0  0  0  0  0  0  0
    7.6183  -14.1819   26.1815 C   0  0  0  0  0  0  0  0  0  0  0  0
   10.5221  -17.2818   24.3967 C   0  0  0  0  0  0  0  0  0  0  0  0
   10.3469  -18.4206   23.8396 O   0  0  0  0  0  0  0  0  0  0  0  0
   11.8168  -17.0571   24.9354 N   0  0  0  0  0  0  0  0  0  0  0  0
   12.8531  -18.0922   24.8873 C   0  0  1  0  0  0  0  0  0  0  0  0
   14.1666  -17.4339   24.4992 C   0  0  0  0  0  0  0  0  0  0  0  0
   13.9663  -16.5858   22.9119 S   0  0  0  0  0  0  0  0  0  0  0  0
   12.9258  -18.8450   26.1369 C   0  0  0  0  0  0  0  0  0  0  0  0
   13.8977  -19.8477   26.2982 O   0  0  0  0  0  0  0  0  0  0  0  0
   12.1213  -18.5994   27.0690 O   0  0  0  0  0  0  0  0  0  0  0  0
  2  1  1  0
  3  2  1  0
  3  4  1  6
  5  3  1  0
  5  6  1  1
  7  5  1  0
  8  7  2  0
  9  7  1  0
 10  9  1  0
 11 12  1  0
 10 11  1  1
 12 20  1  0
 12 13  2  0
 13 14  1  0
 15 14  1  0
 15 16  2  0
 17 16  1  0
 18 17  2  0
 19 18  1  0
 19 20  2  0
 20 15  1  0
 21 22  2  0
 21 10  1  0
 23 21  1  0
 24 23  1  0
 24 25  1  1
 26 25  1  0
 27 24  1  0
 28 27  1  0
 29 27  2  0
M  END
$$$$
