IWC.pdb
     RDKit          3D

 29 30  0  0  1  0  0  0  0  0999 V2000
    7.7983  -12.4556   18.2783 C   0  0  0  0  0  0  0  0  0  0  0  0
    7.3104  -13.6548   19.0364 C   0  0  0  0  0  0  0  0  0  0  0  0
    8.0162  -13.8697   20.3462 C   0  0  2  0  0  0  0  0  0  0  0  0
    9.4805  -14.1001   20.0529 C   0  0  0  0  0  0  0  0  0  0  0  0
    7.4219  -15.0034   21.1529 C   0  0  2  0  0  0  0  0  0  0  0  0
    5.9927  -14.8153   21.1985 N   0  0  0  0  0  0  0  0  0  0  0  0
    7.9730  -15.0934   22.5040 C   0  0  0  0  0  0  0  0  0  0  0  0
    7.9436  -14.0663   23.2481 O   0  0  0  0  0  0  0  0  0  0  0  0
    8.5517  -16.2531   23.0714 N   0  0  0  0  0  0  0  0  0  0  0  0
    9.4916  -16.2630   24.1565 C   0  0  1  0  0  0  0  0  0  0  0  0
    8.8511  -16.3955   25.4992 C   0  0  0  0  0  0  0  0  0  0  0  0
    7.7188  -15.5181   25.7726 C   0  0  0  0  0  0  0  0  0  0  0  0
    6.3894  -15.8586   25.6337 C   0  0  0  0  0  0  0  0  0  0  0  0
    5.6453  -14.8009   25.9607 N   0  0  0  0  0  0  0  0  0  0  0  0
    6.4221  -13.7694   26.3122 C   0  0  0  0  0  0  0  0  0  0  0  0
    6.1106  -12.4856   26.7265 C   0  0  0  0  0  0  0  0  0  0  0  0
    7.0986  -11.6064   27.0386 C   0  0  0  0  0  0  0  0  0  0  0  0
    8.4107  -12.0156   26.9354 C   0  0  0  0  0  0  0  0  0  0  0  0
    8.7168  -13.2948   26.5221 C   0  0  0  0  0  0  0  0  0  0  0  0
    7.7278  -14.2086   26.1980 C   0  0  0  0  0  0  0  0  0  0  0  0
   10.6192  -17.1833   23.9379 C   0  0  0  0  0  0  0  0  0  0  0  0
   10.5717  -18.0168   22.9678 O   0  0  0  0  0  0  0  0  0  0  0  0
   11.7963  -17.2340   24.7307 N   0  0  0  0  0  0  0  0  0  0  0  0
   13.1284  -17.2233   24.1200 C   0  0  1  0  0  0  0  0  0  0  0  0
   13.2062  -16.0421   23.1669 C   0  0  0  0  0  0  0  0  0  0  0  0
   14.8077  -16.0577   22.3221 S   0  0  0  0  0  0  0  0  0  0  0  0
   14.1865  -17.2298   25.1269 C   0  0  0  0  0  0  0  0  0  0  0  0
   15.2945  -18.0819   24.9770 O   0  0  0  0  0  0  0  0  0  0  0  0
   14.1094  -16.4759   26.1279 O   0  0  0  0  0  0  0  0  0  0  0  0
  2  1  1  0
  3  2  1  0
  3  4  1  6
  5  3  1  0
  5  6  1  1
  7  5  1  0
  8  7  2  0
  9  7  1  0
 10  9  1  0
 11 12  1  0
 10 11  1  1
 12 20  1  0
 12 13  2  0
 13 14  1  0
 15 14  1  0
 15 16  2  0
 17 16  1  0
 18 17  2  0
 19 18  1  0
 19 20  2  0
 20 15  1  0
 21 22  2  0
 21 10  1  0
 23 21  1  0
 24 23  1  0
 24 25  1  1
 26 25  1  0
 27 24  1  0
 28 27  1  0
 29 27  2  0
M  END
$$$$
