IWC.pdb
     RDKit          3D

 29 30  0  0  1  0  0  0  0  0999 V2000
   14.3289  -17.7180   18.6359 C   0  0  0  0  0  0  0  0  0  0  0  0
   12.8867  -17.9937   18.9440 C   0  0  0  0  0  0  0  0  0  0  0  0
   12.3212  -17.1153   20.0249 C   0  0  2  0  0  0  0  0  0  0  0  0
   13.2297  -17.2155   21.2282 C   0  0  0  0  0  0  0  0  0  0  0  0
   10.8905  -17.4625   20.3734 C   0  0  2  0  0  0  0  0  0  0  0  0
   10.1026  -17.3625   19.1694 N   0  0  0  0  0  0  0  0  0  0  0  0
   10.3356  -16.6110   21.4243 C   0  0  0  0  0  0  0  0  0  0  0  0
   10.2303  -15.3647   21.2122 O   0  0  0  0  0  0  0  0  0  0  0  0
    9.8940  -17.0635   22.6900 N   0  0  0  0  0  0  0  0  0  0  0  0
    9.3738  -16.2257   23.7332 C   0  0  1  0  0  0  0  0  0  0  0  0
    7.8857  -16.0998   23.7108 C   0  0  0  0  0  0  0  0  0  0  0  0
    7.2810  -15.3046   24.7731 C   0  0  0  0  0  0  0  0  0  0  0  0
    6.5643  -15.8054   25.8400 C   0  0  0  0  0  0  0  0  0  0  0  0
    6.1579  -14.7829   26.5940 N   0  0  0  0  0  0  0  0  0  0  0  0
    6.5733  -13.6212   26.0755 C   0  0  0  0  0  0  0  0  0  0  0  0
    6.4033  -12.3142   26.4993 C   0  0  0  0  0  0  0  0  0  0  0  0
    6.9378  -11.2870   25.7882 C   0  0  0  0  0  0  0  0  0  0  0  0
    7.6495  -11.5702   24.6422 C   0  0  0  0  0  0  0  0  0  0  0  0
    7.8162  -12.8731   24.2233 C   0  0  0  0  0  0  0  0  0  0  0  0
    7.2807  -13.9368   24.9305 C   0  0  0  0  0  0  0  0  0  0  0  0
    9.9278  -16.5407   25.0599 C   0  0  0  0  0  0  0  0  0  0  0  0
   10.2737  -17.7435   25.3275 O   0  0  0  0  0  0  0  0  0  0  0  0
   10.1214  -15.6013   26.1071 N   0  0  0  0  0  0  0  0  0  0  0  0
   10.7465  -15.9897   27.3744 C   0  0  1  0  0  0  0  0  0  0  0  0
   10.4596  -14.9051   28.3995 C   0  0  0  0  0  0  0  0  0  0  0  0
   10.6993  -13.2805   27.6365 S   0  0  0  0  0  0  0  0  0  0  0  0
   10.3240  -17.3211   27.8016 C   0  0  0  0  0  0  0  0  0  0  0  0
   10.9789  -17.9574   28.8704 O   0  0  0  0  0  0  0  0  0  0  0  0
    9.3766  -17.9004   27.2158 O   0  0  0  0  0  0  0  0  0  0  0  0
  2  1  1  0
  3  2  1  0
  3  4  1  1
  5  3  1  0
  5  6  1  6
  7  5  1  0
  8  7  2  0
  9  7  1  0
 10  9  1  0
 11 12  1  0
 10 11  1  1
 12 20  1  0
 12 13  2  0
 13 14  1  0
 15 14  1  0
 15 16  2  0
 17 16  1  0
 18 17  2  0
 19 18  1  0
 19 20  2  0
 20 15  1  0
 21 22  2  0
 21 10  1  0
 23 21  1  0
 24 23  1  0
 24 25  1  1
 26 25  1  0
 27 24  1  0
 28 27  1  0
 29 27  2  0
M  END
$$$$
