IWC.pdb
     RDKit          3D

 29 30  0  0  1  0  0  0  0  0999 V2000
    6.7967  -12.3353   18.5767 C   0  0  0  0  0  0  0  0  0  0  0  0
    7.5890  -13.5895   18.8009 C   0  0  0  0  0  0  0  0  0  0  0  0
    8.0513  -13.7665   20.2204 C   0  0  2  0  0  0  0  0  0  0  0  0
    8.9624  -12.6099   20.5602 C   0  0  0  0  0  0  0  0  0  0  0  0
    8.7278  -15.0994   20.4544 C   0  0  2  0  0  0  0  0  0  0  0  0
    7.8311  -16.1376   20.0090 N   0  0  0  0  0  0  0  0  0  0  0  0
    9.1071  -15.3103   21.8504 C   0  0  0  0  0  0  0  0  0  0  0  0
   10.0562  -14.6244   22.3385 O   0  0  0  0  0  0  0  0  0  0  0  0
    8.4951  -16.2349   22.7293 N   0  0  0  0  0  0  0  0  0  0  0  0
    8.8928  -16.4731   24.0880 C   0  0  1  0  0  0  0  0  0  0  0  0
    7.7565  -16.8343   24.9874 C   0  0  0  0  0  0  0  0  0  0  0  0
    6.9975  -15.7276   25.5583 C   0  0  0  0  0  0  0  0  0  0  0  0
    5.7083  -15.8057   26.0426 C   0  0  0  0  0  0  0  0  0  0  0  0
    5.3431  -14.5963   26.4704 N   0  0  0  0  0  0  0  0  0  0  0  0
    6.3341  -13.7147   26.2922 C   0  0  0  0  0  0  0  0  0  0  0  0
    6.4233  -12.3636   26.5811 C   0  0  0  0  0  0  0  0  0  0  0  0
    7.5626  -11.6764   26.3049 C   0  0  0  0  0  0  0  0  0  0  0  0
    8.6229  -12.3475   25.7345 C   0  0  0  0  0  0  0  0  0  0  0  0
    8.5300  -13.6929   25.4481 C   0  0  0  0  0  0  0  0  0  0  0  0
    7.3796  -14.4147   25.7197 C   0  0  0  0  0  0  0  0  0  0  0  0
   10.0551  -17.3687   24.2030 C   0  0  0  0  0  0  0  0  0  0  0  0
   10.0976  -18.4372   23.4998 O   0  0  0  0  0  0  0  0  0  0  0  0
   11.1731  -17.1496   25.0509 N   0  0  0  0  0  0  0  0  0  0  0  0
   12.2115  -18.1693   25.2228 C   0  0  1  0  0  0  0  0  0  0  0  0
   13.5464  -17.5620   24.8244 C   0  0  0  0  0  0  0  0  0  0  0  0
   13.3998  -16.8180   23.1801 S   0  0  0  0  0  0  0  0  0  0  0  0
   12.2051  -18.7273   26.5727 C   0  0  0  0  0  0  0  0  0  0  0  0
   11.2255  -18.3228   27.4961 O   0  0  0  0  0  0  0  0  0  0  0  0
   13.0737  -19.5681   26.9117 O   0  0  0  0  0  0  0  0  0  0  0  0
  2  1  1  0
  3  2  1  0
  3  4  1  6
  5  3  1  0
  5  6  1  1
  7  5  1  0
  8  7  2  0
  9  7  1  0
 10  9  1  0
 11 12  1  0
 10 11  1  1
 12 20  1  0
 12 13  2  0
 13 14  1  0
 15 14  1  0
 15 16  2  0
 17 16  1  0
 18 17  2  0
 19 18  1  0
 19 20  2  0
 20 15  1  0
 21 22  2  0
 21 10  1  0
 23 21  1  0
 24 23  1  0
 24 25  1  1
 26 25  1  0
 27 24  1  0
 28 27  1  0
 29 27  2  0
M  END
$$$$
