IWC.pdb
     RDKit          3D

 29 30  0  0  1  0  0  0  0  0999 V2000
    7.5114  -24.0734   21.7449 C   0  0  0  0  0  0  0  0  0  0  0  0
    6.5872  -23.1928   22.5330 C   0  0  0  0  0  0  0  0  0  0  0  0
    7.0783  -21.7795   22.6799 C   0  0  2  0  0  0  0  0  0  0  0  0
    8.4652  -21.8291   23.2776 C   0  0  0  0  0  0  0  0  0  0  0  0
    6.1452  -20.9175   23.5017 C   0  0  2  0  0  0  0  0  0  0  0  0
    4.8603  -20.9033   22.8467 N   0  0  0  0  0  0  0  0  0  0  0  0
    6.6427  -19.5557   23.6897 C   0  0  0  0  0  0  0  0  0  0  0  0
    6.7029  -18.7807   22.6871 O   0  0  0  0  0  0  0  0  0  0  0  0
    7.0744  -19.0098   24.9215 N   0  0  0  0  0  0  0  0  0  0  0  0
    7.6729  -17.7156   25.0888 C   0  0  1  0  0  0  0  0  0  0  0  0
    7.1574  -16.9690   26.2752 C   0  0  0  0  0  0  0  0  0  0  0  0
    7.4574  -15.5430   26.3309 C   0  0  0  0  0  0  0  0  0  0  0  0
    6.9044  -14.5755   25.5180 C   0  0  0  0  0  0  0  0  0  0  0  0
    7.4262  -13.3940   25.8513 N   0  0  0  0  0  0  0  0  0  0  0  0
    8.3037  -13.5323   26.8522 C   0  0  0  0  0  0  0  0  0  0  0  0
    9.0799  -12.6053   27.5265 C   0  0  0  0  0  0  0  0  0  0  0  0
    9.9051  -13.0017   28.5308 C   0  0  0  0  0  0  0  0  0  0  0  0
    9.9540  -14.3384   28.8636 C   0  0  0  0  0  0  0  0  0  0  0  0
    9.1796  -15.2585   28.1894 C   0  0  0  0  0  0  0  0  0  0  0  0
    8.3314  -14.8792   27.1623 C   0  0  0  0  0  0  0  0  0  0  0  0
    9.1411  -17.7388   24.9880 C   0  0  0  0  0  0  0  0  0  0  0  0
    9.8087  -18.5526   25.7161 O   0  0  0  0  0  0  0  0  0  0  0  0
    9.9128  -16.9138   24.1275 N   0  0  0  0  0  0  0  0  0  0  0  0
   11.3594  -17.1015   23.9860 C   0  0  1  0  0  0  0  0  0  0  0  0
   11.7438  -16.7782   22.5517 C   0  0  0  0  0  0  0  0  0  0  0  0
   11.1165  -15.1358   22.1184 S   0  0  0  0  0  0  0  0  0  0  0  0
   12.1056  -16.3304   24.9769 C   0  0  0  0  0  0  0  0  0  0  0  0
   13.4889  -16.5302   25.1271 O   0  0  0  0  0  0  0  0  0  0  0  0
   11.5144  -15.4885   25.6967 O   0  0  0  0  0  0  0  0  0  0  0  0
  2  1  1  0
  3  2  1  0
  3  4  1  1
  5  3  1  0
  5  6  1  6
  7  5  1  0
  8  7  2  0
  9  7  1  0
 10  9  1  0
 11 12  1  0
 10 11  1  1
 12 20  1  0
 12 13  2  0
 13 14  1  0
 15 14  1  0
 15 16  2  0
 17 16  1  0
 18 17  2  0
 19 18  1  0
 19 20  2  0
 20 15  1  0
 21 22  2  0
 21 10  1  0
 23 21  1  0
 24 23  1  0
 24 25  1  6
 26 25  1  0
 27 24  1  0
 28 27  1  0
 29 27  2  0
M  END
$$$$
