IWC.pdb
     RDKit          3D

 29 30  0  0  1  0  0  0  0  0999 V2000
    7.0068  -12.1080   20.2187 C   0  0  0  0  0  0  0  0  0  0  0  0
    7.3816  -13.4551   20.7625 C   0  0  0  0  0  0  0  0  0  0  0  0
    8.2677  -14.2515   19.8458 C   0  0  2  0  0  0  0  0  0  0  0  0
    7.5621  -14.3834   18.5161 C   0  0  0  0  0  0  0  0  0  0  0  0
    8.6402  -15.6016   20.4180 C   0  0  2  0  0  0  0  0  0  0  0  0
    7.4284  -16.3678   20.5753 N   0  0  0  0  0  0  0  0  0  0  0  0
    9.3574  -15.5055   21.6883 C   0  0  0  0  0  0  0  0  0  0  0  0
   10.4501  -14.8622   21.7287 O   0  0  0  0  0  0  0  0  0  0  0  0
    8.9317  -16.0807   22.9089 N   0  0  0  0  0  0  0  0  0  0  0  0
    9.6614  -16.0350   24.1443 C   0  0  1  0  0  0  0  0  0  0  0  0
    8.8093  -16.2657   25.3491 C   0  0  0  0  0  0  0  0  0  0  0  0
    7.6887  -15.3526   25.5416 C   0  0  0  0  0  0  0  0  0  0  0  0
    6.3572  -15.6715   25.3733 C   0  0  0  0  0  0  0  0  0  0  0  0
    5.6268  -14.5840   25.6241 N   0  0  0  0  0  0  0  0  0  0  0  0
    6.4145  -13.5532   25.9530 C   0  0  0  0  0  0  0  0  0  0  0  0
    6.1184  -12.2448   26.2951 C   0  0  0  0  0  0  0  0  0  0  0  0
    7.1150  -11.3725   26.5991 C   0  0  0  0  0  0  0  0  0  0  0  0
    8.4203  -11.8136   26.5606 C   0  0  0  0  0  0  0  0  0  0  0  0
    8.7110  -13.1173   26.2190 C   0  0  0  0  0  0  0  0  0  0  0  0
    7.7130  -14.0248   25.9047 C   0  0  0  0  0  0  0  0  0  0  0  0
   10.8934  -16.8398   24.1197 C   0  0  0  0  0  0  0  0  0  0  0  0
   10.8320  -18.0737   23.7854 O   0  0  0  0  0  0  0  0  0  0  0  0
   12.1894  -16.3576   24.4431 N   0  0  0  0  0  0  0  0  0  0  0  0
   13.3566  -17.2437   24.4365 C   0  0  1  0  0  0  0  0  0  0  0  0
   14.5955  -16.3981   24.1920 C   0  0  0  0  0  0  0  0  0  0  0  0
   16.0602  -17.4627   24.2043 S   0  0  0  0  0  0  0  0  0  0  0  0
   13.4323  -18.0498   25.6522 C   0  0  0  0  0  0  0  0  0  0  0  0
   13.8910  -19.3770   25.5884 O   0  0  0  0  0  0  0  0  0  0  0  0
   13.0879  -17.5604   26.7560 O   0  0  0  0  0  0  0  0  0  0  0  0
  2  1  1  0
  3  2  1  0
  3  4  1  6
  5  3  1  0
  5  6  1  1
  7  5  1  0
  8  7  2  0
  9  7  1  0
 10  9  1  0
 11 12  1  0
 10 11  1  1
 12 20  1  0
 12 13  2  0
 13 14  1  0
 15 14  1  0
 15 16  2  0
 17 16  1  0
 18 17  2  0
 19 18  1  0
 19 20  2  0
 20 15  1  0
 21 22  2  0
 21 10  1  0
 23 21  1  0
 24 23  1  0
 24 25  1  1
 26 25  1  0
 27 24  1  0
 28 27  1  0
 29 27  2  0
M  END
$$$$
