IWC.pdb
     RDKit          3D

 29 30  0  0  1  0  0  0  0  0999 V2000
    6.3660  -12.9348   18.7348 C   0  0  0  0  0  0  0  0  0  0  0  0
    7.0644  -14.2145   19.0889 C   0  0  0  0  0  0  0  0  0  0  0  0
    7.8242  -14.1496   20.3845 C   0  0  2  0  0  0  0  0  0  0  0  0
    8.8253  -13.0225   20.2803 C   0  0  0  0  0  0  0  0  0  0  0  0
    8.4920  -15.4603   20.7383 C   0  0  2  0  0  0  0  0  0  0  0  0
    7.4697  -16.4753   20.8099 N   0  0  0  0  0  0  0  0  0  0  0  0
    9.2448  -15.3983   21.9900 C   0  0  0  0  0  0  0  0  0  0  0  0
   10.2482  -14.6257   22.0647 O   0  0  0  0  0  0  0  0  0  0  0  0
    8.9474  -16.1421   23.1563 N   0  0  0  0  0  0  0  0  0  0  0  0
    9.6965  -16.0968   24.3802 C   0  0  1  0  0  0  0  0  0  0  0  0
    8.8655  -16.3393   25.5973 C   0  0  0  0  0  0  0  0  0  0  0  0
    7.6671  -15.5214   25.7440 C   0  0  0  0  0  0  0  0  0  0  0  0
    6.3755  -15.9419   25.5039 C   0  0  0  0  0  0  0  0  0  0  0  0
    5.5488  -14.9202   25.7311 N   0  0  0  0  0  0  0  0  0  0  0  0
    6.2340  -13.8359   26.1129 C   0  0  0  0  0  0  0  0  0  0  0  0
    5.8174  -12.5610   26.4563 C   0  0  0  0  0  0  0  0  0  0  0  0
    6.7246  -11.6177   26.8219 C   0  0  0  0  0  0  0  0  0  0  0  0
    8.0614  -11.9531   26.8443 C   0  0  0  0  0  0  0  0  0  0  0  0
    8.4722  -13.2237   26.5014 C   0  0  0  0  0  0  0  0  0  0  0  0
    7.5669  -14.2020   26.1249 C   0  0  0  0  0  0  0  0  0  0  0  0
   10.9337  -16.8925   24.3320 C   0  0  0  0  0  0  0  0  0  0  0  0
   10.9116  -18.0582   23.8042 O   0  0  0  0  0  0  0  0  0  0  0  0
   12.1940  -16.4722   24.8339 N   0  0  0  0  0  0  0  0  0  0  0  0
   13.3650  -17.3521   24.7886 C   0  0  1  0  0  0  0  0  0  0  0  0
   14.6085  -16.4853   24.6791 C   0  0  0  0  0  0  0  0  0  0  0  0
   14.3033  -15.1451   23.5003 S   0  0  0  0  0  0  0  0  0  0  0  0
   13.3952  -18.2733   25.9217 C   0  0  0  0  0  0  0  0  0  0  0  0
   14.4491  -19.1945   26.0511 O   0  0  0  0  0  0  0  0  0  0  0  0
   12.4810  -18.2454   26.7818 O   0  0  0  0  0  0  0  0  0  0  0  0
  2  1  1  0
  3  2  1  0
  3  4  1  6
  5  3  1  0
  5  6  1  1
  7  5  1  0
  8  7  2  0
  9  7  1  0
 10  9  1  0
 11 12  1  0
 10 11  1  1
 12 20  1  0
 12 13  2  0
 13 14  1  0
 15 14  1  0
 15 16  2  0
 17 16  1  0
 18 17  2  0
 19 18  1  0
 19 20  2  0
 20 15  1  0
 21 22  2  0
 21 10  1  0
 23 21  1  0
 24 23  1  0
 24 25  1  1
 26 25  1  0
 27 24  1  0
 28 27  1  0
 29 27  2  0
M  END
$$$$
