IWC.pdb
     RDKit          3D

 29 30  0  0  1  0  0  0  0  0999 V2000
    6.8357  -12.8023   19.0043 C   0  0  0  0  0  0  0  0  0  0  0  0
    7.3869  -14.1313   19.4294 C   0  0  0  0  0  0  0  0  0  0  0  0
    8.0932  -14.0962   20.7560 C   0  0  2  0  0  0  0  0  0  0  0  0
    9.1601  -13.0284   20.6864 C   0  0  0  0  0  0  0  0  0  0  0  0
    8.6698  -15.4387   21.1485 C   0  0  2  0  0  0  0  0  0  0  0  0
    7.6028  -16.4086   21.1131 N   0  0  0  0  0  0  0  0  0  0  0  0
    9.3089  -15.4237   22.4633 C   0  0  0  0  0  0  0  0  0  0  0  0
   10.3343  -14.6976   22.6386 O   0  0  0  0  0  0  0  0  0  0  0  0
    8.8755  -16.1655   23.5874 N   0  0  0  0  0  0  0  0  0  0  0  0
    9.5406  -16.2057   24.8590 C   0  0  1  0  0  0  0  0  0  0  0  0
    8.6034  -16.2529   26.0210 C   0  0  0  0  0  0  0  0  0  0  0  0
    7.4580  -15.3515   25.9738 C   0  0  0  0  0  0  0  0  0  0  0  0
    6.1668  -15.7128   25.6494 C   0  0  0  0  0  0  0  0  0  0  0  0
    5.3978  -14.6241   25.6991 N   0  0  0  0  0  0  0  0  0  0  0  0
    6.1210  -13.5520   26.0433 C   0  0  0  0  0  0  0  0  0  0  0  0
    5.7669  -12.2259   26.2246 C   0  0  0  0  0  0  0  0  0  0  0  0
    6.7020  -11.3091   26.5874 C   0  0  0  0  0  0  0  0  0  0  0  0
    8.0039  -11.7232   26.7708 C   0  0  0  0  0  0  0  0  0  0  0  0
    8.3526  -13.0446   26.5890 C   0  0  0  0  0  0  0  0  0  0  0  0
    7.4178  -13.9973   26.2189 C   0  0  0  0  0  0  0  0  0  0  0  0
   10.6179  -17.2067   24.9181 C   0  0  0  0  0  0  0  0  0  0  0  0
   11.1134  -17.5311   26.0526 O   0  0  0  0  0  0  0  0  0  0  0  0
   11.1780  -17.8696   23.7940 N   0  0  0  0  0  0  0  0  0  0  0  0
   12.2435  -18.8640   23.9476 C   0  0  1  0  0  0  0  0  0  0  0  0
   11.8203  -20.1315   23.2239 C   0  0  0  0  0  0  0  0  0  0  0  0
   10.1675  -20.6172   23.7817 S   0  0  0  0  0  0  0  0  0  0  0  0
   13.5362  -18.3460   23.5074 C   0  0  0  0  0  0  0  0  0  0  0  0
   13.6235  -17.0620   22.9418 O   0  0  0  0  0  0  0  0  0  0  0  0
   14.5716  -19.0451   23.6321 O   0  0  0  0  0  0  0  0  0  0  0  0
  2  1  1  0
  3  2  1  0
  3  4  1  6
  5  3  1  0
  5  6  1  1
  7  5  1  0
  8  7  2  0
  9  7  1  0
 10  9  1  0
 11 12  1  0
 10 11  1  1
 12 20  1  0
 12 13  2  0
 13 14  1  0
 15 14  1  0
 15 16  2  0
 17 16  1  0
 18 17  2  0
 19 18  1  0
 19 20  2  0
 20 15  1  0
 21 22  2  0
 21 10  1  0
 23 21  1  0
 24 23  1  0
 24 25  1  6
 26 25  1  0
 27 24  1  0
 28 27  1  0
 29 27  2  0
M  END
$$$$
