IWC.pdb
     RDKit          3D

 29 30  0  0  1  0  0  0  0  0999 V2000
    7.5100  -12.5517   18.1379 C   0  0  0  0  0  0  0  0  0  0  0  0
    7.3104  -13.8297   18.8980 C   0  0  0  0  0  0  0  0  0  0  0  0
    8.0004  -13.8524   20.2335 C   0  0  2  0  0  0  0  0  0  0  0  0
    9.4717  -13.5990   20.0009 C   0  0  0  0  0  0  0  0  0  0  0  0
    7.7673  -15.1409   20.9915 C   0  0  2  0  0  0  0  0  0  0  0  0
    6.3478  -15.3958   21.0096 N   0  0  0  0  0  0  0  0  0  0  0  0
    8.3022  -15.1083   22.3517 C   0  0  0  0  0  0  0  0  0  0  0  0
    8.3287  -14.0031   22.9741 O   0  0  0  0  0  0  0  0  0  0  0  0
    8.8066  -16.2276   23.0549 N   0  0  0  0  0  0  0  0  0  0  0  0
    9.6658  -16.1651   24.2033 C   0  0  1  0  0  0  0  0  0  0  0  0
    8.9558  -16.4137   25.4936 C   0  0  0  0  0  0  0  0  0  0  0  0
    7.8249  -15.5438   25.7954 C   0  0  0  0  0  0  0  0  0  0  0  0
    6.4958  -15.9091   25.7399 C   0  0  0  0  0  0  0  0  0  0  0  0
    5.7524  -14.8514   26.0680 N   0  0  0  0  0  0  0  0  0  0  0  0
    6.5290  -13.7961   26.3403 C   0  0  0  0  0  0  0  0  0  0  0  0
    6.2181  -12.5028   26.7243 C   0  0  0  0  0  0  0  0  0  0  0  0
    7.2062  -11.5980   26.9515 C   0  0  0  0  0  0  0  0  0  0  0  0
    8.5178  -11.9911   26.7932 C   0  0  0  0  0  0  0  0  0  0  0  0
    8.8232  -13.2798   26.4104 C   0  0  0  0  0  0  0  0  0  0  0  0
    7.8341  -14.2197   26.1725 C   0  0  0  0  0  0  0  0  0  0  0  0
   10.9050  -16.9427   24.0427 C   0  0  0  0  0  0  0  0  0  0  0  0
   10.8539  -18.1040   23.5074 O   0  0  0  0  0  0  0  0  0  0  0  0
   12.1976  -16.5088   24.4401 N   0  0  0  0  0  0  0  0  0  0  0  0
   13.3877  -17.3257   24.1871 C   0  0  1  0  0  0  0  0  0  0  0  0
   14.4941  -16.4132   23.6845 C   0  0  0  0  0  0  0  0  0  0  0  0
   14.7272  -15.0520   24.8556 S   0  0  0  0  0  0  0  0  0  0  0  0
   13.7668  -18.1092   25.3602 C   0  0  0  0  0  0  0  0  0  0  0  0
   13.0520  -17.9663   26.5621 O   0  0  0  0  0  0  0  0  0  0  0  0
   14.7311  -18.9108   25.2985 O   0  0  0  0  0  0  0  0  0  0  0  0
  2  1  1  0
  3  2  1  0
  3  4  1  6
  5  3  1  0
  5  6  1  1
  7  5  1  0
  8  7  2  0
  9  7  1  0
 10  9  1  0
 11 12  1  0
 10 11  1  1
 12 20  1  0
 12 13  2  0
 13 14  1  0
 15 14  1  0
 15 16  2  0
 17 16  1  0
 18 17  2  0
 19 18  1  0
 19 20  2  0
 20 15  1  0
 21 22  2  0
 21 10  1  0
 23 21  1  0
 24 23  1  0
 24 25  1  1
 26 25  1  0
 27 24  1  0
 28 27  1  0
 29 27  2  0
M  END
$$$$
