QIT.pdb
     RDKit          3D

 25 24  0  0  1  0  0  0  0  0999 V2000
   29.1271  -20.5775  -18.5116 N   0  0  0  0  0  0  0  0  0  0  0  0
   28.6118  -19.3859  -17.9318 C   0  0  0  0  0  0  0  0  0  0  0  0
   29.1343  -18.2983  -18.2832 O   0  0  0  0  0  0  0  0  0  0  0  0
   27.4973  -19.4581  -16.9509 C   0  0  0  0  0  0  0  0  0  0  0  0
   27.1934  -20.9211  -16.7230 C   0  0  0  0  0  0  0  0  0  0  0  0
   27.5715  -21.3678  -15.3371 C   0  0  2  0  0  0  0  0  0  0  0  0
   28.3615  -22.5785  -15.4660 N   0  0  0  0  0  0  0  0  0  0  0  0
   26.3681  -21.5948  -14.4841 C   0  0  0  0  0  0  0  0  0  0  0  0
   25.6527  -22.5798  -14.7697 O   0  0  0  0  0  0  0  0  0  0  0  0
   26.9886  -21.1877   -9.2707 C   0  0  0  0  0  0  0  0  0  0  0  0
   26.4320  -21.5069  -10.6609 C   0  0  0  0  0  0  0  0  0  0  0  0
   25.2860  -20.5905  -11.0334 C   0  0  2  0  0  0  0  0  0  0  0  0
   24.0679  -20.8961  -10.1708 C   0  0  0  0  0  0  0  0  0  0  0  0
   24.9396  -20.8573  -12.4893 C   0  0  2  0  0  0  0  0  0  0  0  0
   26.0356  -20.7519  -13.4035 N   0  0  0  0  0  0  0  0  0  0  0  0
   23.7055  -20.2572  -12.9598 C   0  0  0  0  0  0  0  0  0  0  0  0
   23.5451  -19.0185  -13.0010 O   0  0  0  0  0  0  0  0  0  0  0  0
   22.0203  -20.2388  -16.1622 C   0  0  0  0  0  0  0  0  0  0  0  0
   20.9774  -20.8216  -15.2333 C   0  0  1  0  0  0  0  0  0  0  0  0
   21.0130  -22.2175  -15.3641 O   0  0  0  0  0  0  0  0  0  0  0  0
   21.3367  -20.4885  -13.8003 C   0  0  2  0  0  0  0  0  0  0  0  0
   22.5928  -21.0644  -13.4073 N   0  0  0  0  0  0  0  0  0  0  0  0
   20.2212  -20.8919  -12.9186 C   0  0  0  0  0  0  0  0  0  0  0  0
   18.9882  -20.2731  -13.0549 O   0  0  0  0  0  0  0  0  0  0  0  0
   20.3714  -21.7902  -12.0430 O   0  0  0  0  0  0  0  0  0  0  0  0
  2  1  1  0
  3  2  2  0
  4  2  1  0
  5  4  1  0
  6  5  1  0
  6  7  1  6
  8  6  1  0
  9  8  2  0
 10 11  1  0
 12 14  1  0
 12 11  1  0
 12 13  1  1
 14 15  1  6
 15  8  1  0
 16 17  2  0
 16 14  1  0
 19 18  1  6
 19 21  1  0
 19 20  1  0
 21 22  1  1
 22 16  1  0
 23 21  1  0
 24 23  1  0
 25 23  2  0
M  END
$$$$
