QIT.pdb
     RDKit          3D

 25 24  0  0  1  0  0  0  0  0999 V2000
   20.3088  -16.0284  -19.9823 N   0  0  0  0  0  0  0  0  0  0  0  0
   19.9736  -14.6551  -19.8286 C   0  0  0  0  0  0  0  0  0  0  0  0
   18.8160  -14.3839  -19.4215 O   0  0  0  0  0  0  0  0  0  0  0  0
   20.9768  -13.6051  -20.1457 C   0  0  0  0  0  0  0  0  0  0  0  0
   21.2459  -12.8407  -18.8698 C   0  0  0  0  0  0  0  0  0  0  0  0
   22.6415  -13.0701  -18.3569 C   0  0  2  0  0  0  0  0  0  0  0  0
   22.7481  -14.4687  -17.9841 N   0  0  0  0  0  0  0  0  0  0  0  0
   22.9582  -12.1769  -17.2041 C   0  0  0  0  0  0  0  0  0  0  0  0
   22.2625  -12.3174  -16.1746 O   0  0  0  0  0  0  0  0  0  0  0  0
   27.6251  -12.1870  -15.6664 C   0  0  0  0  0  0  0  0  0  0  0  0
   26.1668  -11.7930  -15.4165 C   0  0  0  0  0  0  0  0  0  0  0  0
   25.8807  -10.3761  -15.8663 C   0  0  2  0  0  0  0  0  0  0  0  0
   26.1583   -9.3988  -14.7309 C   0  0  0  0  0  0  0  0  0  0  0  0
   24.4078  -10.3000  -16.2344 C   0  0  2  0  0  0  0  0  0  0  0  0
   23.9880  -11.2145  -17.2520 N   0  0  0  0  0  0  0  0  0  0  0  0
   23.8637   -8.9619  -16.3682 C   0  0  0  0  0  0  0  0  0  0  0  0
   24.2318   -8.1850  -17.2753 O   0  0  0  0  0  0  0  0  0  0  0  0
   20.7319   -7.7663  -17.3477 C   0  0  0  0  0  0  0  0  0  0  0  0
   20.8660   -7.1367  -15.9781 C   0  0  1  0  0  0  0  0  0  0  0  0
   20.1737   -7.9419  -15.0620 O   0  0  0  0  0  0  0  0  0  0  0  0
   22.3239   -7.1291  -15.5679 C   0  0  2  0  0  0  0  0  0  0  0  0
   22.8635   -8.4557  -15.4554 N   0  0  0  0  0  0  0  0  0  0  0  0
   22.4692   -6.3446  -14.3237 C   0  0  0  0  0  0  0  0  0  0  0  0
   22.1875   -4.9873  -14.3382 O   0  0  0  0  0  0  0  0  0  0  0  0
   22.8456   -6.8888  -13.2475 O   0  0  0  0  0  0  0  0  0  0  0  0
  2  1  1  0
  3  2  2  0
  4  2  1  0
  5  4  1  0
  6  5  1  0
  6  7  1  1
  8  6  1  0
  9  8  2  0
 10 11  1  0
 12 14  1  0
 12 11  1  0
 12 13  1  1
 14 15  1  6
 15  8  1  0
 16 17  2  0
 16 14  1  0
 19 18  1  6
 19 21  1  0
 19 20  1  0
 21 22  1  1
 22 16  1  0
 23 21  1  0
 24 23  1  0
 25 23  2  0
M  END
$$$$
