QIT.pdb
     RDKit          3D

 25 24  0  0  1  0  0  0  0  0999 V2000
   19.6878  -15.0609  -20.8310 N   0  0  0  0  0  0  0  0  0  0  0  0
   18.9142  -13.8718  -20.7343 C   0  0  0  0  0  0  0  0  0  0  0  0
   19.2383  -12.9088  -21.4738 O   0  0  0  0  0  0  0  0  0  0  0  0
   17.7724  -13.8029  -19.7851 C   0  0  0  0  0  0  0  0  0  0  0  0
   18.2052  -12.9381  -18.6234 C   0  0  0  0  0  0  0  0  0  0  0  0
   18.8039  -13.7494  -17.5069 C   0  0  2  0  0  0  0  0  0  0  0  0
   17.7216  -14.4603  -16.8513 N   0  0  0  0  0  0  0  0  0  0  0  0
   19.5507  -12.8908  -16.5415 C   0  0  0  0  0  0  0  0  0  0  0  0
   18.9453  -12.5559  -15.4999 O   0  0  0  0  0  0  0  0  0  0  0  0
   24.2751  -13.9974  -14.6150 C   0  0  0  0  0  0  0  0  0  0  0  0
   22.9170  -13.3762  -14.9523 C   0  0  0  0  0  0  0  0  0  0  0  0
   23.0656  -12.0473  -15.6621 C   0  0  2  0  0  0  0  0  0  0  0  0
   23.7350  -11.0333  -14.7428 C   0  0  0  0  0  0  0  0  0  0  0  0
   21.6704  -11.5537  -16.0090 C   0  0  2  0  0  0  0  0  0  0  0  0
   20.8756  -12.4665  -16.7727 N   0  0  0  0  0  0  0  0  0  0  0  0
   21.5847  -10.1728  -16.4453 C   0  0  0  0  0  0  0  0  0  0  0  0
   22.2619   -9.7371  -17.4010 O   0  0  0  0  0  0  0  0  0  0  0  0
   18.2713   -7.7970  -15.3048 C   0  0  0  0  0  0  0  0  0  0  0  0
   19.0952   -7.5421  -16.5482 C   0  0  1  0  0  0  0  0  0  0  0  0
   19.0286   -6.1715  -16.8378 O   0  0  0  0  0  0  0  0  0  0  0  0
   20.5451   -7.8795  -16.2698 C   0  0  2  0  0  0  0  0  0  0  0  0
   20.7080   -9.2254  -15.7945 N   0  0  0  0  0  0  0  0  0  0  0  0
   21.1035   -6.8734  -15.3422 C   0  0  0  0  0  0  0  0  0  0  0  0
   21.3023   -5.5751  -15.7858 O   0  0  0  0  0  0  0  0  0  0  0  0
   21.4028   -7.1754  -14.1525 O   0  0  0  0  0  0  0  0  0  0  0  0
  2  1  1  0
  3  2  2  0
  4  2  1  0
  5  4  1  0
  6  5  1  0
  6  7  1  1
  8  6  1  0
  9  8  2  0
 10 11  1  0
 12 14  1  0
 12 11  1  0
 12 13  1  1
 14 15  1  6
 15  8  1  0
 16 17  2  0
 16 14  1  0
 19 18  1  1
 19 21  1  0
 19 20  1  0
 21 22  1  1
 22 16  1  0
 23 21  1  0
 24 23  1  0
 25 23  2  0
M  END
$$$$
