QIT.pdb
     RDKit          3D

 25 24  0  0  1  0  0  0  0  0999 V2000
   17.6803  -11.5883  -19.4544 N   0  0  0  0  0  0  0  0  0  0  0  0
   18.3888  -11.6487  -20.6858 C   0  0  0  0  0  0  0  0  0  0  0  0
   17.7591  -12.0496  -21.6967 O   0  0  0  0  0  0  0  0  0  0  0  0
   19.8186  -11.2459  -20.7413 C   0  0  0  0  0  0  0  0  0  0  0  0
   20.2091  -10.7828  -19.3565 C   0  0  0  0  0  0  0  0  0  0  0  0
   21.4642  -11.4537  -18.8690 C   0  0  2  0  0  0  0  0  0  0  0  0
   21.1520  -12.8513  -18.6330 N   0  0  0  0  0  0  0  0  0  0  0  0
   21.9938  -10.8015  -17.6355 C   0  0  0  0  0  0  0  0  0  0  0  0
   21.3063  -10.9172  -16.5974 O   0  0  0  0  0  0  0  0  0  0  0  0
   26.7910  -11.6872  -15.8694 C   0  0  0  0  0  0  0  0  0  0  0  0
   25.3515  -11.2206  -16.1032 C   0  0  0  0  0  0  0  0  0  0  0  0
   25.2650   -9.7176  -16.2626 C   0  0  2  0  0  0  0  0  0  0  0  0
   25.7058   -9.0274  -14.9779 C   0  0  0  0  0  0  0  0  0  0  0  0
   23.8113   -9.3682  -16.5372 C   0  0  2  0  0  0  0  0  0  0  0  0
   23.2083  -10.0850  -17.6192 N   0  0  0  0  0  0  0  0  0  0  0  0
   23.4890   -7.9543  -16.5003 C   0  0  0  0  0  0  0  0  0  0  0  0
   24.0013   -7.1373  -17.2952 O   0  0  0  0  0  0  0  0  0  0  0  0
   20.5734   -6.2803  -17.3501 C   0  0  0  0  0  0  0  0  0  0  0  0
   20.7673   -5.7863  -15.9330 C   0  0  1  0  0  0  0  0  0  0  0  0
   19.9467   -6.5518  -15.0918 O   0  0  0  0  0  0  0  0  0  0  0  0
   22.2019   -6.0226  -15.5090 C   0  0  2  0  0  0  0  0  0  0  0  0
   22.5546   -7.4149  -15.5381 N   0  0  0  0  0  0  0  0  0  0  0  0
   22.4198   -5.4044  -14.1843 C   0  0  0  0  0  0  0  0  0  0  0  0
   22.6831   -6.2143  -13.0904 O   0  0  0  0  0  0  0  0  0  0  0  0
   22.3704   -4.1513  -14.0310 O   0  0  0  0  0  0  0  0  0  0  0  0
  2  1  1  0
  3  2  2  0
  4  2  1  0
  5  4  1  0
  6  5  1  0
  6  7  1  1
  8  6  1  0
  9  8  2  0
 10 11  1  0
 12 14  1  0
 12 11  1  0
 12 13  1  1
 14 15  1  6
 15  8  1  0
 16 17  2  0
 16 14  1  0
 19 18  1  6
 19 21  1  0
 19 20  1  0
 21 22  1  1
 22 16  1  0
 23 21  1  0
 24 23  1  0
 25 23  2  0
M  END
$$$$
