QIT.pdb
     RDKit          3D

 25 24  0  0  1  0  0  0  0  0999 V2000
   18.8686  -24.2593   -6.9855 N   0  0  0  0  0  0  0  0  0  0  0  0
   18.5151  -24.7266   -8.2811 C   0  0  0  0  0  0  0  0  0  0  0  0
   18.0477  -25.8899   -8.3691 O   0  0  0  0  0  0  0  0  0  0  0  0
   18.7035  -23.8482   -9.4653 C   0  0  0  0  0  0  0  0  0  0  0  0
   19.1264  -22.4899   -8.9545 C   0  0  0  0  0  0  0  0  0  0  0  0
   20.4961  -22.5210   -8.3331 C   0  0  2  0  0  0  0  0  0  0  0  0
   20.3318  -22.3632   -6.8997 N   0  0  0  0  0  0  0  0  0  0  0  0
   21.3807  -21.4594   -8.8967 C   0  0  0  0  0  0  0  0  0  0  0  0
   20.9138  -20.3001   -8.9381 O   0  0  0  0  0  0  0  0  0  0  0  0
   26.5309  -18.7572   -8.4939 C   0  0  0  0  0  0  0  0  0  0  0  0
   25.6990  -19.4862   -9.5526 C   0  0  0  0  0  0  0  0  0  0  0  0
   24.8597  -20.5912   -8.9474 C   0  0  2  0  0  0  0  0  0  0  0  0
   25.6676  -21.8806   -8.8686 C   0  0  0  0  0  0  0  0  0  0  0  0
   23.6647  -20.8123   -9.8605 C   0  0  2  0  0  0  0  0  0  0  0  0
   22.6833  -21.7287   -9.3653 N   0  0  0  0  0  0  0  0  0  0  0  0
   23.9728  -20.9661  -11.2697 C   0  0  0  0  0  0  0  0  0  0  0  0
   24.9196  -21.6788  -11.6665 O   0  0  0  0  0  0  0  0  0  0  0  0
   21.8885  -22.3810  -13.9681 C   0  0  0  0  0  0  0  0  0  0  0  0
   22.2315  -20.9839  -14.4375 C   0  0  1  0  0  0  0  0  0  0  0  0
   21.1622  -20.1403  -14.1030 O   0  0  0  0  0  0  0  0  0  0  0  0
   23.4537  -20.4882  -13.6931 C   0  0  2  0  0  0  0  0  0  0  0  0
   23.1973  -20.3004  -12.2921 N   0  0  0  0  0  0  0  0  0  0  0  0
   23.9547  -19.2640  -14.3525 C   0  0  0  0  0  0  0  0  0  0  0  0
   24.3599  -19.3216  -15.6769 O   0  0  0  0  0  0  0  0  0  0  0  0
   24.0203  -18.1662  -13.7306 O   0  0  0  0  0  0  0  0  0  0  0  0
  2  1  1  0
  3  2  2  0
  4  2  1  0
  5  4  1  0
  6  5  1  0
  6  7  1  1
  8  6  1  0
  9  8  2  0
 10 11  1  0
 12 14  1  0
 12 11  1  0
 12 13  1  6
 14 15  1  1
 15  8  1  0
 16 17  2  0
 16 14  1  0
 19 18  1  1
 19 21  1  0
 19 20  1  0
 21 22  1  1
 22 16  1  0
 23 21  1  0
 24 23  1  0
 25 23  2  0
M  END
$$$$
