QIT.pdb
     RDKit          3D

 25 24  0  0  1  0  0  0  0  0999 V2000
   29.3222  -17.9279  -17.1462 N   0  0  0  0  0  0  0  0  0  0  0  0
   28.0990  -18.4588  -17.6398 C   0  0  0  0  0  0  0  0  0  0  0  0
   27.1641  -17.6488  -17.8614 O   0  0  0  0  0  0  0  0  0  0  0  0
   27.9638  -19.9204  -17.8741 C   0  0  0  0  0  0  0  0  0  0  0  0
   26.8387  -20.4145  -16.9939 C   0  0  0  0  0  0  0  0  0  0  0  0
   27.3471  -21.1810  -15.8035 C   0  0  2  0  0  0  0  0  0  0  0  0
   27.9266  -22.4185  -16.2927 N   0  0  0  0  0  0  0  0  0  0  0  0
   26.2615  -21.4456  -14.8143 C   0  0  0  0  0  0  0  0  0  0  0  0
   25.5676  -22.4692  -14.9994 O   0  0  0  0  0  0  0  0  0  0  0  0
   27.4135  -20.7938   -9.7208 C   0  0  0  0  0  0  0  0  0  0  0  0
   26.7091  -21.2264  -11.0096 C   0  0  0  0  0  0  0  0  0  0  0  0
   25.4831  -20.3843  -11.2919 C   0  0  2  0  0  0  0  0  0  0  0  0
   24.3727  -20.7271  -10.3065 C   0  0  0  0  0  0  0  0  0  0  0  0
   25.0136  -20.7146  -12.6994 C   0  0  2  0  0  0  0  0  0  0  0  0
   26.0131  -20.5956  -13.7167 N   0  0  0  0  0  0  0  0  0  0  0  0
   23.7155  -20.1822  -13.0681 C   0  0  0  0  0  0  0  0  0  0  0  0
   23.5010  -18.9534  -13.1439 O   0  0  0  0  0  0  0  0  0  0  0  0
   21.7817  -20.7131  -16.1553 C   0  0  0  0  0  0  0  0  0  0  0  0
   20.8208  -21.1040  -15.0535 C   0  0  1  0  0  0  0  0  0  0  0  0
   20.8351  -22.5020  -14.9427 O   0  0  0  0  0  0  0  0  0  0  0  0
   21.3074  -20.5370  -13.7362 C   0  0  2  0  0  0  0  0  0  0  0  0
   22.5982  -21.0492  -13.3680 N   0  0  0  0  0  0  0  0  0  0  0  0
   20.2801  -20.7763  -12.7009 C   0  0  0  0  0  0  0  0  0  0  0  0
   19.0442  -20.1585  -12.8131 O   0  0  0  0  0  0  0  0  0  0  0  0
   20.5082  -21.5335  -11.7157 O   0  0  0  0  0  0  0  0  0  0  0  0
  2  1  1  0
  3  2  2  0
  4  2  1  0
  5  4  1  0
  6  5  1  0
  6  7  1  6
  8  6  1  0
  9  8  2  0
 10 11  1  0
 12 14  1  0
 12 11  1  0
 12 13  1  1
 14 15  1  6
 15  8  1  0
 16 17  2  0
 16 14  1  0
 19 18  1  6
 19 21  1  0
 19 20  1  0
 21 22  1  1
 22 16  1  0
 23 21  1  0
 24 23  1  0
 25 23  2  0
M  END
$$$$
