QIT.pdb
     RDKit          3D

 25 24  0  0  1  0  0  0  0  0999 V2000
   15.5811   -9.1144  -19.0239 N   0  0  0  0  0  0  0  0  0  0  0  0
   16.2329   -9.6798  -20.1541 C   0  0  0  0  0  0  0  0  0  0  0  0
   15.5375   -9.8854  -21.1804 O   0  0  0  0  0  0  0  0  0  0  0  0
   17.6823  -10.0037  -20.0913 C   0  0  0  0  0  0  0  0  0  0  0  0
   18.1960   -9.5093  -18.7585 C   0  0  0  0  0  0  0  0  0  0  0  0
   18.9805  -10.5649  -18.0282 C   0  0  2  0  0  0  0  0  0  0  0  0
   18.0584  -11.6254  -17.6655 N   0  0  0  0  0  0  0  0  0  0  0  0
   19.6655  -10.0080  -16.8249 C   0  0  0  0  0  0  0  0  0  0  0  0
   18.9617   -9.8335  -15.8062 O   0  0  0  0  0  0  0  0  0  0  0  0
   23.7737  -12.3643  -14.9187 C   0  0  0  0  0  0  0  0  0  0  0  0
   22.5950  -11.4151  -15.1518 C   0  0  0  0  0  0  0  0  0  0  0  0
   23.0550   -9.9917  -15.3844 C   0  0  2  0  0  0  0  0  0  0  0  0
   23.6778   -9.4271  -14.1137 C   0  0  0  0  0  0  0  0  0  0  0  0
   21.8298   -9.1663  -15.7428 C   0  0  2  0  0  0  0  0  0  0  0  0
   21.0388   -9.6875  -16.8154 N   0  0  0  0  0  0  0  0  0  0  0  0
   22.0333   -7.7307  -15.7895 C   0  0  0  0  0  0  0  0  0  0  0  0
   22.7384   -7.1900  -16.6683 O   0  0  0  0  0  0  0  0  0  0  0  0
   19.7550   -4.9512  -16.3297 C   0  0  0  0  0  0  0  0  0  0  0  0
   20.3708   -4.6436  -14.9821 C   0  0  1  0  0  0  0  0  0  0  0  0
   19.4826   -5.0835  -13.9899 O   0  0  0  0  0  0  0  0  0  0  0  0
   21.6561   -5.4291  -14.8245 C   0  0  2  0  0  0  0  0  0  0  0  0
   21.4285   -6.8475  -14.8178 N   0  0  0  0  0  0  0  0  0  0  0  0
   22.3629   -4.9571  -13.6153 C   0  0  0  0  0  0  0  0  0  0  0  0
   22.8631   -3.6647  -13.5805 O   0  0  0  0  0  0  0  0  0  0  0  0
   22.5195   -5.7103  -12.6132 O   0  0  0  0  0  0  0  0  0  0  0  0
  2  1  1  0
  3  2  2  0
  4  2  1  0
  5  4  1  0
  6  5  1  0
  6  7  1  1
  8  6  1  0
  9  8  2  0
 10 11  1  0
 12 14  1  0
 12 11  1  0
 12 13  1  1
 14 15  1  6
 15  8  1  0
 16 17  2  0
 16 14  1  0
 19 18  1  6
 19 21  1  0
 19 20  1  0
 21 22  1  1
 22 16  1  0
 23 21  1  0
 24 23  1  0
 25 23  2  0
M  END
$$$$
