QIT.pdb
     RDKit          3D

 25 24  0  0  1  0  0  0  0  0999 V2000
   15.9352   -9.8690  -19.6486 N   0  0  0  0  0  0  0  0  0  0  0  0
   16.8296   -9.9490  -20.7512 C   0  0  0  0  0  0  0  0  0  0  0  0
   16.3459  -10.2664  -21.8668 O   0  0  0  0  0  0  0  0  0  0  0  0
   18.2752   -9.6620  -20.5581 C   0  0  0  0  0  0  0  0  0  0  0  0
   18.4777   -9.3389  -19.0954 C   0  0  0  0  0  0  0  0  0  0  0  0
   19.3899  -10.3259  -18.4194 C   0  0  2  0  0  0  0  0  0  0  0  0
   18.6713  -11.5819  -18.3061 N   0  0  0  0  0  0  0  0  0  0  0  0
   19.8377   -9.8359  -17.0829 C   0  0  0  0  0  0  0  0  0  0  0  0
   18.9739   -9.7936  -16.1797 O   0  0  0  0  0  0  0  0  0  0  0  0
   23.3927  -11.9847  -14.1579 C   0  0  0  0  0  0  0  0  0  0  0  0
   22.3039  -11.0537  -14.6985 C   0  0  0  0  0  0  0  0  0  0  0  0
   22.8434   -9.6724  -15.0027 C   0  0  2  0  0  0  0  0  0  0  0  0
   23.2787   -8.9837  -13.7152 C   0  0  0  0  0  0  0  0  0  0  0  0
   21.7186   -8.8697  -15.6362 C   0  0  2  0  0  0  0  0  0  0  0  0
   21.1658   -9.4353  -16.8289 N   0  0  0  0  0  0  0  0  0  0  0  0
   21.9274   -7.4352  -15.6929 C   0  0  0  0  0  0  0  0  0  0  0  0
   22.7187   -6.9129  -16.5071 O   0  0  0  0  0  0  0  0  0  0  0  0
   19.3422   -4.6658  -13.6022 C   0  0  0  0  0  0  0  0  0  0  0  0
   20.1259   -4.3443  -14.8561 C   0  0  1  0  0  0  0  0  0  0  0  0
   20.4378   -2.9772  -14.8330 O   0  0  0  0  0  0  0  0  0  0  0  0
   21.4324   -5.1104  -14.8438 C   0  0  2  0  0  0  0  0  0  0  0  0
   21.2282   -6.5319  -14.8069 N   0  0  0  0  0  0  0  0  0  0  0  0
   22.2654   -4.6225  -13.7246 C   0  0  0  0  0  0  0  0  0  0  0  0
   22.8786   -3.3832  -13.8227 O   0  0  0  0  0  0  0  0  0  0  0  0
   22.4285   -5.3148  -12.6805 O   0  0  0  0  0  0  0  0  0  0  0  0
  2  1  1  0
  3  2  2  0
  4  2  1  0
  5  4  1  0
  6  5  1  0
  6  7  1  1
  8  6  1  0
  9  8  2  0
 10 11  1  0
 12 14  1  0
 12 11  1  0
 12 13  1  1
 14 15  1  6
 15  8  1  0
 16 17  2  0
 16 14  1  0
 19 18  1  1
 19 21  1  0
 19 20  1  0
 21 22  1  1
 22 16  1  0
 23 21  1  0
 24 23  1  0
 25 23  2  0
M  END
$$$$
