QIT.pdb
     RDKit          3D

 25 24  0  0  1  0  0  0  0  0999 V2000
   17.9029  -20.1194  -14.0325 N   0  0  0  0  0  0  0  0  0  0  0  0
   17.8695  -20.0706  -15.4531 C   0  0  0  0  0  0  0  0  0  0  0  0
   16.8223  -20.4703  -16.0215 O   0  0  0  0  0  0  0  0  0  0  0  0
   19.0445  -19.5608  -16.2073 C   0  0  0  0  0  0  0  0  0  0  0  0
   20.1198  -19.2338  -15.1966 C   0  0  0  0  0  0  0  0  0  0  0  0
   21.3009  -20.1588  -15.3084 C   0  0  2  0  0  0  0  0  0  0  0  0
   20.8284  -21.5073  -15.0534 N   0  0  0  0  0  0  0  0  0  0  0  0
   22.3898  -19.7786  -14.3614 C   0  0  0  0  0  0  0  0  0  0  0  0
   22.4108  -18.5895  -13.9749 O   0  0  0  0  0  0  0  0  0  0  0  0
   25.1270  -20.5291   -9.5853 C   0  0  0  0  0  0  0  0  0  0  0  0
   25.6635  -20.9698  -10.9500 C   0  0  0  0  0  0  0  0  0  0  0  0
   24.5559  -21.4541  -11.8614 C   0  0  2  0  0  0  0  0  0  0  0  0
   24.8889  -22.8391  -12.4020 C   0  0  0  0  0  0  0  0  0  0  0  0
   24.4598  -20.4800  -13.0244 C   0  0  2  0  0  0  0  0  0  0  0  0
   23.3582  -20.6996  -13.9113 N   0  0  0  0  0  0  0  0  0  0  0  0
   25.7123  -20.1708  -13.6879 C   0  0  0  0  0  0  0  0  0  0  0  0
   26.5990  -19.4810  -13.1405 O   0  0  0  0  0  0  0  0  0  0  0  0
   28.6444  -21.9406  -14.6887 C   0  0  0  0  0  0  0  0  0  0  0  0
   28.1098  -21.4158  -16.0034 C   0  0  1  0  0  0  0  0  0  0  0  0
   27.3514  -22.4339  -16.5995 O   0  0  0  0  0  0  0  0  0  0  0  0
   27.1803  -20.2496  -15.7397 C   0  0  2  0  0  0  0  0  0  0  0  0
   26.0007  -20.6466  -15.0222 N   0  0  0  0  0  0  0  0  0  0  0  0
   26.8728  -19.5803  -17.0211 C   0  0  0  0  0  0  0  0  0  0  0  0
   27.9103  -19.0897  -17.7987 O   0  0  0  0  0  0  0  0  0  0  0  0
   25.6816  -19.4474  -17.4203 O   0  0  0  0  0  0  0  0  0  0  0  0
  2  1  1  0
  3  2  2  0
  4  2  1  0
  5  4  1  0
  6  5  1  0
  6  7  1  1
  8  6  1  0
  9  8  2  0
 10 11  1  0
 12 14  1  0
 12 11  1  0
 12 13  1  6
 14 15  1  6
 15  8  1  0
 16 17  2  0
 16 14  1  0
 19 18  1  1
 19 21  1  0
 19 20  1  0
 21 22  1  6
 22 16  1  0
 23 21  1  0
 24 23  1  0
 25 23  2  0
M  END
$$$$
