QIT.pdb
     RDKit          3D

 25 24  0  0  1  0  0  0  0  0999 V2000
   17.4213  -14.7494  -15.3208 N   0  0  0  0  0  0  0  0  0  0  0  0
   16.5376  -14.1967  -16.2880 C   0  0  0  0  0  0  0  0  0  0  0  0
   15.5687  -14.9059  -16.6588 O   0  0  0  0  0  0  0  0  0  0  0  0
   16.7786  -12.8298  -16.8199 C   0  0  0  0  0  0  0  0  0  0  0  0
   17.9938  -12.2789  -16.1097 C   0  0  0  0  0  0  0  0  0  0  0  0
   18.4414  -10.9656  -16.6910 C   0  0  2  0  0  0  0  0  0  0  0  0
   18.9604  -11.2279  -18.0208 N   0  0  0  0  0  0  0  0  0  0  0  0
   19.4656  -10.3032  -15.8311 C   0  0  0  0  0  0  0  0  0  0  0  0
   19.1221  -10.0193  -14.6628 O   0  0  0  0  0  0  0  0  0  0  0  0
   24.2202  -12.3622  -15.3303 C   0  0  0  0  0  0  0  0  0  0  0  0
   22.9534  -11.5126  -15.1968 C   0  0  0  0  0  0  0  0  0  0  0  0
   23.1745  -10.0925  -15.6725 C   0  0  2  0  0  0  0  0  0  0  0  0
   24.1743   -9.3851  -14.7662 C   0  0  0  0  0  0  0  0  0  0  0  0
   21.8396   -9.3694  -15.5945 C   0  0  2  0  0  0  0  0  0  0  0  0
   20.7637  -10.0033  -16.2935 N   0  0  0  0  0  0  0  0  0  0  0  0
   21.8966   -7.9292  -15.7592 C   0  0  0  0  0  0  0  0  0  0  0  0
   22.3614   -7.3985  -16.7909 O   0  0  0  0  0  0  0  0  0  0  0  0
   19.8353   -5.3930  -16.5708 C   0  0  0  0  0  0  0  0  0  0  0  0
   20.2856   -4.9089  -15.2097 C   0  0  1  0  0  0  0  0  0  0  0  0
   19.3112   -5.2834  -14.2731 O   0  0  0  0  0  0  0  0  0  0  0  0
   21.5756   -5.6049  -14.8289 C   0  0  2  0  0  0  0  0  0  0  0  0
   21.4168   -7.0296  -14.7344 N   0  0  0  0  0  0  0  0  0  0  0  0
   22.0973   -5.0032  -13.5838 C   0  0  0  0  0  0  0  0  0  0  0  0
   22.5163   -3.6818  -13.5901 O   0  0  0  0  0  0  0  0  0  0  0  0
   22.1682   -5.6716  -12.5141 O   0  0  0  0  0  0  0  0  0  0  0  0
  2  1  1  0
  3  2  2  0
  4  2  1  0
  5  4  1  0
  6  5  1  0
  6  7  1  6
  8  6  1  0
  9  8  2  0
 10 11  1  0
 12 14  1  0
 12 11  1  0
 12 13  1  1
 14 15  1  6
 15  8  1  0
 16 17  2  0
 16 14  1  0
 19 18  1  6
 19 21  1  0
 19 20  1  0
 21 22  1  1
 22 16  1  0
 23 21  1  0
 24 23  1  0
 25 23  2  0
M  END
$$$$
