QIT.pdb
     RDKit          3D

 25 24  0  0  1  0  0  0  0  0999 V2000
   14.5452  -10.7593  -18.9923 N   0  0  0  0  0  0  0  0  0  0  0  0
   15.9639  -10.8150  -19.0701 C   0  0  0  0  0  0  0  0  0  0  0  0
   16.5501   -9.8612  -19.6409 O   0  0  0  0  0  0  0  0  0  0  0  0
   16.6954  -11.9710  -18.4886 C   0  0  0  0  0  0  0  0  0  0  0  0
   17.5597  -11.4385  -17.3687 C   0  0  0  0  0  0  0  0  0  0  0  0
   18.9621  -11.9792  -17.4309 C   0  0  2  0  0  0  0  0  0  0  0  0
   18.8896  -13.4137  -17.2222 N   0  0  0  0  0  0  0  0  0  0  0  0
   19.8482  -11.3293  -16.4211 C   0  0  0  0  0  0  0  0  0  0  0  0
   19.3622  -11.1382  -15.2850 O   0  0  0  0  0  0  0  0  0  0  0  0
   24.6265  -13.0657  -15.2750 C   0  0  0  0  0  0  0  0  0  0  0  0
   23.2990  -12.3040  -15.3187 C   0  0  0  0  0  0  0  0  0  0  0  0
   23.4836  -10.8759  -15.7859 C   0  0  2  0  0  0  0  0  0  0  0  0
   24.3165  -10.0967  -14.7756 C   0  0  0  0  0  0  0  0  0  0  0  0
   22.1050  -10.2427  -15.8825 C   0  0  2  0  0  0  0  0  0  0  0  0
   21.1724  -10.9419  -16.7129 N   0  0  0  0  0  0  0  0  0  0  0  0
   22.0875   -8.8010  -16.0421 C   0  0  0  0  0  0  0  0  0  0  0  0
   22.6144   -8.2370  -17.0250 O   0  0  0  0  0  0  0  0  0  0  0  0
   19.7821   -6.3657  -16.8919 C   0  0  0  0  0  0  0  0  0  0  0  0
   20.1997   -5.8844  -15.5193 C   0  0  1  0  0  0  0  0  0  0  0  0
   19.2500   -6.3401  -14.5935 O   0  0  0  0  0  0  0  0  0  0  0  0
   21.5307   -6.5060  -15.1509 C   0  0  2  0  0  0  0  0  0  0  0  0
   21.4570   -7.9384  -15.0683 N   0  0  0  0  0  0  0  0  0  0  0  0
   22.0224   -5.8852  -13.9030 C   0  0  0  0  0  0  0  0  0  0  0  0
   22.3939   -4.5496  -13.9078 O   0  0  0  0  0  0  0  0  0  0  0  0
   22.1103   -6.5499  -12.8322 O   0  0  0  0  0  0  0  0  0  0  0  0
  2  1  1  0
  3  2  2  0
  4  2  1  0
  5  4  1  0
  6  5  1  0
  6  7  1  1
  8  6  1  0
  9  8  2  0
 10 11  1  0
 12 14  1  0
 12 11  1  0
 12 13  1  1
 14 15  1  6
 15  8  1  0
 16 17  2  0
 16 14  1  0
 19 18  1  6
 19 21  1  0
 19 20  1  0
 21 22  1  1
 22 16  1  0
 23 21  1  0
 24 23  1  0
 25 23  2  0
M  END
$$$$
