QIT.pdb
     RDKit          3D

 25 24  0  0  1  0  0  0  0  0999 V2000
   17.9758  -14.1412  -20.3416 N   0  0  0  0  0  0  0  0  0  0  0  0
   17.7532  -12.7369  -20.3585 C   0  0  0  0  0  0  0  0  0  0  0  0
   16.5824  -12.3339  -20.1444 O   0  0  0  0  0  0  0  0  0  0  0  0
   18.8835  -11.8083  -20.6224 C   0  0  0  0  0  0  0  0  0  0  0  0
   19.3013  -11.2201  -19.2942 C   0  0  0  0  0  0  0  0  0  0  0  0
   20.4024  -10.2064  -19.4462 C   0  0  2  0  0  0  0  0  0  0  0  0
   21.4660  -10.8251  -20.2160 N   0  0  0  0  0  0  0  0  0  0  0  0
   20.8992   -9.7303  -18.1219 C   0  0  0  0  0  0  0  0  0  0  0  0
   20.0450   -9.2762  -17.3297 O   0  0  0  0  0  0  0  0  0  0  0  0
   24.9559  -12.5584  -15.9651 C   0  0  0  0  0  0  0  0  0  0  0  0
   23.7384  -11.6543  -16.1770 C   0  0  0  0  0  0  0  0  0  0  0  0
   24.1129  -10.1879  -16.1446 C   0  0  2  0  0  0  0  0  0  0  0  0
   24.5427   -9.7868  -14.7390 C   0  0  0  0  0  0  0  0  0  0  0  0
   22.8775   -9.3902  -16.5298 C   0  0  2  0  0  0  0  0  0  0  0  0
   22.2616   -9.7811  -17.7610 N   0  0  0  0  0  0  0  0  0  0  0  0
   22.9718   -7.9558  -16.3346 C   0  0  0  0  0  0  0  0  0  0  0  0
   23.8093   -7.2580  -16.9457 O   0  0  0  0  0  0  0  0  0  0  0  0
   20.8596   -5.2193  -17.1375 C   0  0  0  0  0  0  0  0  0  0  0  0
   21.0004   -5.0771  -15.6375 C   0  0  1  0  0  0  0  0  0  0  0  0
   19.8755   -5.6638  -15.0398 O   0  0  0  0  0  0  0  0  0  0  0  0
   22.2184   -5.8466  -15.1707 C   0  0  2  0  0  0  0  0  0  0  0  0
   22.0983   -7.2565  -15.4192 N   0  0  0  0  0  0  0  0  0  0  0  0
   22.4674   -5.5354  -13.7474 C   0  0  0  0  0  0  0  0  0  0  0  0
   22.8841   -4.2619  -13.3922 O   0  0  0  0  0  0  0  0  0  0  0  0
   22.3075   -6.4092  -12.8491 O   0  0  0  0  0  0  0  0  0  0  0  0
  2  1  1  0
  3  2  2  0
  4  2  1  0
  5  4  1  0
  6  5  1  0
  6  7  1  1
  8  6  1  0
  9  8  2  0
 10 11  1  0
 12 14  1  0
 12 11  1  0
 12 13  1  1
 14 15  1  6
 15  8  1  0
 16 17  2  0
 16 14  1  0
 19 18  1  6
 19 21  1  0
 19 20  1  0
 21 22  1  1
 22 16  1  0
 23 21  1  0
 24 23  1  0
 25 23  2  0
M  END
$$$$
