QIT.pdb
     RDKit          3D

 25 24  0  0  1  0  0  0  0  0999 V2000
   23.4689  -14.4371  -20.8253 N   0  0  0  0  0  0  0  0  0  0  0  0
   22.4120  -15.3851  -20.9034 C   0  0  0  0  0  0  0  0  0  0  0  0
   22.4000  -16.1580  -21.8943 O   0  0  0  0  0  0  0  0  0  0  0  0
   21.3771  -15.4343  -19.8376 C   0  0  0  0  0  0  0  0  0  0  0  0
   21.6817  -14.3191  -18.8637 C   0  0  0  0  0  0  0  0  0  0  0  0
   22.7097  -14.7249  -17.8431 C   0  0  2  0  0  0  0  0  0  0  0  0
   22.1861  -15.8719  -17.1242 N   0  0  0  0  0  0  0  0  0  0  0  0
   23.0337  -13.6044  -16.9122 C   0  0  0  0  0  0  0  0  0  0  0  0
   22.2357  -13.4056  -15.9703 O   0  0  0  0  0  0  0  0  0  0  0  0
   28.0927  -13.0247  -15.4220 C   0  0  0  0  0  0  0  0  0  0  0  0
   26.5702  -12.9633  -15.5730 C   0  0  0  0  0  0  0  0  0  0  0  0
   26.1043  -11.5995  -16.0363 C   0  0  2  0  0  0  0  0  0  0  0  0
   26.3749  -10.5580  -14.9577 C   0  0  0  0  0  0  0  0  0  0  0  0
   24.6057  -11.6837  -16.2766 C   0  0  2  0  0  0  0  0  0  0  0  0
   24.1791  -12.7966  -17.0687 N   0  0  0  0  0  0  0  0  0  0  0  0
   23.9517  -10.4301  -16.6012 C   0  0  0  0  0  0  0  0  0  0  0  0
   24.2893   -9.7435  -17.5893 O   0  0  0  0  0  0  0  0  0  0  0  0
   20.6484   -9.7984  -17.6720 C   0  0  0  0  0  0  0  0  0  0  0  0
   20.7462   -8.8897  -16.4659 C   0  0  1  0  0  0  0  0  0  0  0  0
   20.1400   -9.5420  -15.3824 O   0  0  0  0  0  0  0  0  0  0  0  0
   22.2034   -8.6764  -16.1126 C   0  0  2  0  0  0  0  0  0  0  0  0
   22.8712   -9.9080  -15.7950 N   0  0  0  0  0  0  0  0  0  0  0  0
   22.2936   -7.6793  -15.0253 C   0  0  0  0  0  0  0  0  0  0  0  0
   21.8621   -6.3820  -15.2542 O   0  0  0  0  0  0  0  0  0  0  0  0
   22.7571   -7.9883  -13.8914 O   0  0  0  0  0  0  0  0  0  0  0  0
  2  1  1  0
  3  2  2  0
  4  2  1  0
  5  4  1  0
  6  5  1  0
  6  7  1  1
  8  6  1  0
  9  8  2  0
 10 11  1  0
 12 14  1  0
 12 11  1  0
 12 13  1  1
 14 15  1  6
 15  8  1  0
 16 17  2  0
 16 14  1  0
 19 18  1  6
 19 21  1  0
 19 20  1  0
 21 22  1  1
 22 16  1  0
 23 21  1  0
 24 23  1  0
 25 23  2  0
M  END
$$$$
