GVY.pdb
     RDKit          3D

 24 24  0  0  1  0  0  0  0  0999 V2000
    6.9494  -18.7398   19.2140 N   0  0  0  0  0  0  0  0  0  0  0  0
    6.6549  -17.6808   20.1501 C   0  0  0  0  0  0  0  0  0  0  0  0
    7.7415  -16.6835   20.1226 C   0  0  0  0  0  0  0  0  0  0  0  0
    8.8150  -16.8588   19.4704 O   0  0  0  0  0  0  0  0  0  0  0  0
    7.7435  -13.2759   19.0693 C   0  0  0  0  0  0  0  0  0  0  0  0
    8.1925  -13.1969   20.5038 C   0  0  1  0  0  0  0  0  0  0  0  0
    7.0948  -12.6073   21.3666 C   0  0  0  0  0  0  0  0  0  0  0  0
    8.6619  -14.5354   21.0329 C   0  0  2  0  0  0  0  0  0  0  0  0
    7.5860  -15.4779   20.8527 N   0  0  0  0  0  0  0  0  0  0  0  0
    9.1196  -14.4547   22.4349 C   0  0  0  0  0  0  0  0  0  0  0  0
    8.9146  -13.4022   23.0925 O   0  0  0  0  0  0  0  0  0  0  0  0
    6.0968  -11.1095   27.1714 O   0  0  0  0  0  0  0  0  0  0  0  0
    6.6846  -12.2511   26.6378 C   0  0  0  0  0  0  0  0  0  0  0  0
    5.8415  -13.1740   26.0476 C   0  0  0  0  0  0  0  0  0  0  0  0
    6.3418  -14.3226   25.4995 C   0  0  0  0  0  0  0  0  0  0  0  0
    7.7132  -14.6029   25.5159 C   0  0  0  0  0  0  0  0  0  0  0  0
    8.2139  -15.8523   24.9368 C   0  0  0  0  0  0  0  0  0  0  0  0
    9.6487  -15.7244   24.5574 C   0  0  2  0  0  0  0  0  0  0  0  0
    9.7909  -15.5115   23.1040 N   0  0  0  0  0  0  0  0  0  0  0  0
   10.4342  -16.9056   24.9646 C   0  0  0  0  0  0  0  0  0  0  0  0
   10.7271  -17.8680   24.2229 O   0  0  0  0  0  0  0  0  0  0  0  0
    8.5268  -13.6568   26.1152 C   0  0  0  0  0  0  0  0  0  0  0  0
    8.0217  -12.5092   26.6620 C   0  0  0  0  0  0  0  0  0  0  0  0
   10.8893  -16.9492   26.2968 O   0  0  0  0  0  0  0  0  0  0  0  0
  1  2  1  0
  3  2  1  0
  3  9  1  0
  4  3  2  0
  6  5  1  6
  6  8  1  0
  7  6  1  0
  8  9  1  1
  8 10  1  0
 10 19  1  0
 11 10  2  0
 12 13  1  0
 13 23  2  0
 14 13  1  0
 14 15  2  0
 15 16  1  0
 16 22  2  0
 16 17  1  0
 18 20  1  0
 18 17  1  6
 19 18  1  0
 20 24  1  0
 21 20  2  0
 23 22  1  0
M  END
$$$$
