GVY.pdb
     RDKit          3D

 24 24  0  0  1  0  0  0  0  0999 V2000
    4.8077  -18.7749   20.2840 N   0  0  0  0  0  0  0  0  0  0  0  0
    4.8693  -17.5403   21.0301 C   0  0  0  0  0  0  0  0  0  0  0  0
    6.2438  -17.0066   20.9858 C   0  0  0  0  0  0  0  0  0  0  0  0
    7.2636  -17.7512   20.8662 O   0  0  0  0  0  0  0  0  0  0  0  0
    6.7531  -12.7062   21.0882 C   0  0  0  0  0  0  0  0  0  0  0  0
    7.6682  -13.6786   20.3936 C   0  0  1  0  0  0  0  0  0  0  0  0
    9.0387  -13.0621   20.1967 C   0  0  0  0  0  0  0  0  0  0  0  0
    7.7506  -15.0060   21.1167 C   0  0  2  0  0  0  0  0  0  0  0  0
    6.4401  -15.6055   21.0801 N   0  0  0  0  0  0  0  0  0  0  0  0
    8.2740  -14.8644   22.4907 C   0  0  0  0  0  0  0  0  0  0  0  0
    7.8002  -13.9755   23.2440 O   0  0  0  0  0  0  0  0  0  0  0  0
    5.9360  -11.2181   27.1586 O   0  0  0  0  0  0  0  0  0  0  0  0
    6.6334  -12.3367   26.7161 C   0  0  0  0  0  0  0  0  0  0  0  0
    5.8830  -13.4227   26.3056 C   0  0  0  0  0  0  0  0  0  0  0  0
    6.4938  -14.5607   25.8565 C   0  0  0  0  0  0  0  0  0  0  0  0
    7.8883  -14.6664   25.7967 C   0  0  0  0  0  0  0  0  0  0  0  0
    8.5108  -15.9076   25.3286 C   0  0  0  0  0  0  0  0  0  0  0  0
    9.6806  -15.6178   24.4530 C   0  0  2  0  0  0  0  0  0  0  0  0
    9.3001  -15.6845   23.0287 N   0  0  0  0  0  0  0  0  0  0  0  0
   10.8037  -16.5401   24.7099 C   0  0  0  0  0  0  0  0  0  0  0  0
   11.0400  -17.5858   24.0674 O   0  0  0  0  0  0  0  0  0  0  0  0
    8.6072  -13.5602   26.2158 C   0  0  0  0  0  0  0  0  0  0  0  0
    7.9916  -12.4239   26.6641 C   0  0  0  0  0  0  0  0  0  0  0  0
   11.6780  -16.2132   25.7647 O   0  0  0  0  0  0  0  0  0  0  0  0
  1  2  1  0
  3  2  1  0
  3  9  1  0
  4  3  2  0
  6  5  1  1
  6  8  1  0
  7  6  1  0
  8  9  1  1
  8 10  1  0
 10 19  1  0
 11 10  2  0
 12 13  1  0
 13 23  2  0
 14 13  1  0
 14 15  2  0
 15 16  1  0
 16 22  2  0
 16 17  1  0
 18 20  1  0
 18 17  1  1
 19 18  1  0
 20 24  1  0
 21 20  2  0
 23 22  1  0
M  END
$$$$
