GVY.pdb
     RDKit          3D

 24 24  0  0  1  0  0  0  0  0999 V2000
    4.9761  -18.8511   20.8484 N   0  0  0  0  0  0  0  0  0  0  0  0
    5.1131  -17.6862   21.6903 C   0  0  0  0  0  0  0  0  0  0  0  0
    6.4289  -17.0617   21.4559 C   0  0  0  0  0  0  0  0  0  0  0  0
    7.4796  -17.7391   21.2421 O   0  0  0  0  0  0  0  0  0  0  0  0
    8.8255  -12.8532   20.5019 C   0  0  0  0  0  0  0  0  0  0  0  0
    7.5651  -13.6645   20.6386 C   0  0  1  0  0  0  0  0  0  0  0  0
    6.9468  -13.9089   19.2766 C   0  0  0  0  0  0  0  0  0  0  0  0
    7.7943  -14.9590   21.3893 C   0  0  2  0  0  0  0  0  0  0  0  0
    6.5301  -15.6475   21.4690 N   0  0  0  0  0  0  0  0  0  0  0  0
    8.4067  -14.7374   22.7150 C   0  0  0  0  0  0  0  0  0  0  0  0
    7.9595  -13.8262   23.4579 O   0  0  0  0  0  0  0  0  0  0  0  0
    6.0408  -11.1101   27.0825 O   0  0  0  0  0  0  0  0  0  0  0  0
    6.6281  -12.3100   26.6971 C   0  0  0  0  0  0  0  0  0  0  0  0
    7.9987  -12.3089   26.5172 C   0  0  0  0  0  0  0  0  0  0  0  0
    8.6516  -13.4492   26.1387 C   0  0  0  0  0  0  0  0  0  0  0  0
    7.9622  -14.6480   25.9216 C   0  0  0  0  0  0  0  0  0  0  0  0
    8.6903  -15.8469   25.4976 C   0  0  0  0  0  0  0  0  0  0  0  0
    9.8581  -15.4859   24.6463 C   0  0  2  0  0  0  0  0  0  0  0  0
    9.4917  -15.5029   23.2169 N   0  0  0  0  0  0  0  0  0  0  0  0
   11.0059  -16.3851   24.8746 C   0  0  0  0  0  0  0  0  0  0  0  0
   11.6904  -16.4304   25.9194 O   0  0  0  0  0  0  0  0  0  0  0  0
    6.5915  -14.6117   26.1107 C   0  0  0  0  0  0  0  0  0  0  0  0
    5.9428  -13.4686   26.4895 C   0  0  0  0  0  0  0  0  0  0  0  0
   11.3559  -17.2618   23.8293 O   0  0  0  0  0  0  0  0  0  0  0  0
  1  2  1  0
  3  2  1  0
  3  9  1  0
  4  3  2  0
  6  5  1  6
  6  8  1  0
  7  6  1  0
  8  9  1  1
  8 10  1  0
 10 19  1  0
 11 10  2  0
 12 13  1  0
 13 23  2  0
 14 13  1  0
 14 15  2  0
 15 16  1  0
 16 22  2  0
 16 17  1  0
 18 20  1  0
 18 17  1  1
 19 18  1  0
 20 24  1  0
 21 20  2  0
 23 22  1  0
M  END
$$$$
