GVY.pdb
     RDKit          3D

 24 24  0  0  1  0  0  0  0  0999 V2000
    7.9025  -18.8460   19.0121 N   0  0  0  0  0  0  0  0  0  0  0  0
    7.4359  -17.9357   20.0310 C   0  0  0  0  0  0  0  0  0  0  0  0
    8.3506  -16.7815   20.1160 C   0  0  0  0  0  0  0  0  0  0  0  0
    9.4339  -16.7169   19.4596 O   0  0  0  0  0  0  0  0  0  0  0  0
    7.6958  -13.3105   19.4176 C   0  0  0  0  0  0  0  0  0  0  0  0
    8.1625  -13.3186   20.8486 C   0  0  1  0  0  0  0  0  0  0  0  0
    6.9957  -13.0706   21.7836 C   0  0  0  0  0  0  0  0  0  0  0  0
    8.9033  -14.5902   21.2035 C   0  0  2  0  0  0  0  0  0  0  0  0
    8.0110  -15.6969   20.9639 N   0  0  0  0  0  0  0  0  0  0  0  0
    9.4249  -14.5680   22.5853 C   0  0  0  0  0  0  0  0  0  0  0  0
    9.5290  -13.4695   23.1891 O   0  0  0  0  0  0  0  0  0  0  0  0
    6.3456  -10.9496   27.1743 O   0  0  0  0  0  0  0  0  0  0  0  0
    6.8187  -12.1379   26.6290 C   0  0  0  0  0  0  0  0  0  0  0  0
    5.8869  -12.9754   26.0448 C   0  0  0  0  0  0  0  0  0  0  0  0
    6.2721  -14.1626   25.4860 C   0  0  0  0  0  0  0  0  0  0  0  0
    7.6116  -14.5691   25.4852 C   0  0  0  0  0  0  0  0  0  0  0  0
    7.9874  -15.8565   24.8950 C   0  0  0  0  0  0  0  0  0  0  0  0
    9.4625  -15.9443   24.7069 C   0  0  2  0  0  0  0  0  0  0  0  0
    9.8255  -15.7319   23.2924 N   0  0  0  0  0  0  0  0  0  0  0  0
   10.0013  -17.2386   25.1680 C   0  0  0  0  0  0  0  0  0  0  0  0
   10.3356  -17.5036   26.3428 O   0  0  0  0  0  0  0  0  0  0  0  0
    8.5162  -13.7059   26.0789 C   0  0  0  0  0  0  0  0  0  0  0  0
    8.1262  -12.5193   26.6365 C   0  0  0  0  0  0  0  0  0  0  0  0
   10.1495  -18.2552   24.2046 O   0  0  0  0  0  0  0  0  0  0  0  0
  1  2  1  0
  3  2  1  0
  3  9  1  0
  4  3  2  0
  6  5  1  6
  6  8  1  0
  7  6  1  0
  8  9  1  1
  8 10  1  0
 10 19  1  0
 11 10  2  0
 12 13  1  0
 13 23  2  0
 14 13  1  0
 14 15  2  0
 15 16  1  0
 16 22  2  0
 16 17  1  0
 18 20  1  0
 18 17  1  6
 19 18  1  0
 20 24  1  0
 21 20  2  0
 23 22  1  0
M  END
$$$$
