GVY.pdb
     RDKit          3D

 24 24  0  0  1  0  0  0  0  0999 V2000
    6.3197  -19.4800   20.4327 N   0  0  0  0  0  0  0  0  0  0  0  0
    5.9821  -18.3125   21.2121 C   0  0  0  0  0  0  0  0  0  0  0  0
    7.1201  -17.3739   21.2105 C   0  0  0  0  0  0  0  0  0  0  0  0
    8.3031  -17.7331   20.9279 O   0  0  0  0  0  0  0  0  0  0  0  0
    8.5642  -12.7057   21.0434 C   0  0  0  0  0  0  0  0  0  0  0  0
    7.4773  -13.7462   21.0837 C   0  0  1  0  0  0  0  0  0  0  0  0
    6.8817  -13.9382   19.7033 C   0  0  0  0  0  0  0  0  0  0  0  0
    7.9576  -15.0555   21.6727 C   0  0  2  0  0  0  0  0  0  0  0  0
    6.8890  -16.0136   21.5373 N   0  0  0  0  0  0  0  0  0  0  0  0
    8.4162  -14.9073   23.0690 C   0  0  0  0  0  0  0  0  0  0  0  0
    8.0016  -13.9389   23.7563 O   0  0  0  0  0  0  0  0  0  0  0  0
    6.0273  -10.8088   26.7800 O   0  0  0  0  0  0  0  0  0  0  0  0
    6.5161  -12.0910   26.5549 C   0  0  0  0  0  0  0  0  0  0  0  0
    7.8741  -12.2842   26.7266 C   0  0  0  0  0  0  0  0  0  0  0  0
    8.4325  -13.5160   26.5248 C   0  0  0  0  0  0  0  0  0  0  0  0
    7.6565  -14.6159   26.1406 C   0  0  0  0  0  0  0  0  0  0  0  0
    8.2899  -15.9176   25.9138 C   0  0  0  0  0  0  0  0  0  0  0  0
    9.5622  -15.7642   25.1544 C   0  0  2  0  0  0  0  0  0  0  0  0
    9.3148  -15.8069   23.7002 N   0  0  0  0  0  0  0  0  0  0  0  0
   10.5505  -16.7976   25.5197 C   0  0  0  0  0  0  0  0  0  0  0  0
   11.0434  -16.9545   26.6575 O   0  0  0  0  0  0  0  0  0  0  0  0
    6.3014  -14.3852   25.9779 C   0  0  0  0  0  0  0  0  0  0  0  0
    5.7473  -13.1512   26.1810 C   0  0  0  0  0  0  0  0  0  0  0  0
   10.9702  -17.6765   24.5023 O   0  0  0  0  0  0  0  0  0  0  0  0
  1  2  1  0
  3  2  1  0
  3  9  1  0
  4  3  2  0
  6  5  1  6
  6  8  1  0
  7  6  1  0
  8  9  1  1
  8 10  1  0
 10 19  1  0
 11 10  2  0
 12 13  1  0
 13 23  2  0
 14 13  1  0
 14 15  2  0
 15 16  1  0
 16 22  2  0
 16 17  1  0
 18 20  1  0
 18 17  1  1
 19 18  1  0
 20 24  1  0
 21 20  2  0
 23 22  1  0
M  END
$$$$
