GVY.pdb
     RDKit          3D

 24 24  0  0  1  0  0  0  0  0999 V2000
    4.7254  -19.2169   21.9077 N   0  0  0  0  0  0  0  0  0  0  0  0
    4.8154  -17.8178   22.2526 C   0  0  0  0  0  0  0  0  0  0  0  0
    6.1796  -17.3295   21.9755 C   0  0  0  0  0  0  0  0  0  0  0  0
    7.1962  -18.0874   22.0010 O   0  0  0  0  0  0  0  0  0  0  0  0
    6.7131  -13.0507   21.4759 C   0  0  0  0  0  0  0  0  0  0  0  0
    7.5270  -14.0862   20.7473 C   0  0  1  0  0  0  0  0  0  0  0  0
    8.8726  -13.5131   20.3498 C   0  0  0  0  0  0  0  0  0  0  0  0
    7.6768  -15.3640   21.5451 C   0  0  2  0  0  0  0  0  0  0  0  0
    6.3691  -15.9585   21.6674 N   0  0  0  0  0  0  0  0  0  0  0  0
    8.3232  -15.1355   22.8534 C   0  0  0  0  0  0  0  0  0  0  0  0
    8.0977  -14.0661   23.4759 O   0  0  0  0  0  0  0  0  0  0  0  0
    5.6483  -11.3891   26.5608 O   0  0  0  0  0  0  0  0  0  0  0  0
    6.3539  -12.5730   26.3765 C   0  0  0  0  0  0  0  0  0  0  0  0
    7.7154  -12.5356   26.6123 C   0  0  0  0  0  0  0  0  0  0  0  0
    8.4801  -13.6582   26.4536 C   0  0  0  0  0  0  0  0  0  0  0  0
    7.9170  -14.8747   26.0503 C   0  0  0  0  0  0  0  0  0  0  0  0
    8.7683  -16.0538   25.8710 C   0  0  0  0  0  0  0  0  0  0  0  0
    9.7808  -15.8206   24.8035 C   0  0  2  0  0  0  0  0  0  0  0  0
    9.2023  -16.0652   23.4681 N   0  0  0  0  0  0  0  0  0  0  0  0
   10.9790  -16.6625   24.9866 C   0  0  0  0  0  0  0  0  0  0  0  0
   11.3578  -17.5588   24.2023 O   0  0  0  0  0  0  0  0  0  0  0  0
    6.5516  -14.8746   25.8230 C   0  0  0  0  0  0  0  0  0  0  0  0
    5.7908  -13.7492   25.9832 C   0  0  0  0  0  0  0  0  0  0  0  0
   11.7566  -16.4353   26.1389 O   0  0  0  0  0  0  0  0  0  0  0  0
  1  2  1  0
  3  2  1  0
  3  9  1  0
  4  3  2  0
  6  5  1  1
  6  8  1  0
  7  6  1  0
  8  9  1  1
  8 10  1  0
 10 19  1  0
 11 10  2  0
 12 13  1  0
 13 23  2  0
 14 13  1  0
 14 15  2  0
 15 16  1  0
 16 22  2  0
 16 17  1  0
 18 20  1  0
 18 17  1  1
 19 18  1  0
 20 24  1  0
 21 20  2  0
 23 22  1  0
M  END
$$$$
