GVY.pdb
     RDKit          3D

 24 24  0  0  1  0  0  0  0  0999 V2000
    5.3981  -19.3957   20.9282 N   0  0  0  0  0  0  0  0  0  0  0  0
    5.4682  -18.1431   21.6427 C   0  0  0  0  0  0  0  0  0  0  0  0
    6.5932  -17.3426   21.1232 C   0  0  0  0  0  0  0  0  0  0  0  0
    7.4420  -17.8066   20.3029 O   0  0  0  0  0  0  0  0  0  0  0  0
    8.6278  -12.8139   21.0506 C   0  0  0  0  0  0  0  0  0  0  0  0
    7.4622  -13.7570   21.1821 C   0  0  1  0  0  0  0  0  0  0  0  0
    6.4652  -13.5198   20.0655 C   0  0  0  0  0  0  0  0  0  0  0  0
    7.8995  -15.2051   21.2433 C   0  0  2  0  0  0  0  0  0  0  0  0
    6.7374  -15.9996   21.5543 N   0  0  0  0  0  0  0  0  0  0  0  0
    9.0063  -15.4165   22.1983 C   0  0  0  0  0  0  0  0  0  0  0  0
   10.0177  -14.6706   22.1474 O   0  0  0  0  0  0  0  0  0  0  0  0
   10.7748  -14.4665   30.5402 O   0  0  0  0  0  0  0  0  0  0  0  0
   10.4007  -14.6597   29.2150 C   0  0  0  0  0  0  0  0  0  0  0  0
    9.7001  -13.6361   28.6049 C   0  0  0  0  0  0  0  0  0  0  0  0
    9.2963  -13.7488   27.3033 C   0  0  0  0  0  0  0  0  0  0  0  0
    9.5752  -14.8941   26.5483 C   0  0  0  0  0  0  0  0  0  0  0  0
    9.1109  -14.9903   25.1619 C   0  0  0  0  0  0  0  0  0  0  0  0
    9.6320  -16.2251   24.5116 C   0  0  2  0  0  0  0  0  0  0  0  0
    9.0030  -16.4298   23.1925 N   0  0  0  0  0  0  0  0  0  0  0  0
    9.4234  -17.4206   25.3514 C   0  0  0  0  0  0  0  0  0  0  0  0
    8.3860  -18.1176   25.3693 O   0  0  0  0  0  0  0  0  0  0  0  0
   10.2779  -15.8983   27.1917 C   0  0  0  0  0  0  0  0  0  0  0  0
   10.6799  -15.7809   28.4939 C   0  0  0  0  0  0  0  0  0  0  0  0
   10.4799  -17.8049   26.1998 O   0  0  0  0  0  0  0  0  0  0  0  0
  1  2  1  0
  3  2  1  0
  3  9  1  0
  4  3  2  0
  6  5  1  6
  6  8  1  0
  7  6  1  0
  8  9  1  1
  8 10  1  0
 10 19  1  0
 11 10  2  0
 12 13  1  0
 13 23  2  0
 14 13  1  0
 14 15  2  0
 15 16  1  0
 16 22  2  0
 16 17  1  0
 18 20  1  0
 18 17  1  1
 19 18  1  0
 20 24  1  0
 21 20  2  0
 23 22  1  0
M  END
$$$$
