GVY.pdb
     RDKit          3D

 24 24  0  0  1  0  0  0  0  0999 V2000
    6.6689  -12.3060   18.3284 N   0  0  0  0  0  0  0  0  0  0  0  0
    7.8974  -13.0312   18.5507 C   0  0  0  0  0  0  0  0  0  0  0  0
    7.7040  -14.0037   19.6430 C   0  0  0  0  0  0  0  0  0  0  0  0
    6.6665  -14.0163   20.3723 O   0  0  0  0  0  0  0  0  0  0  0  0
    8.9493  -18.5061   21.0856 C   0  0  0  0  0  0  0  0  0  0  0  0
    9.0389  -17.3133   20.1719 C   0  0  1  0  0  0  0  0  0  0  0  0
    8.3078  -17.5895   18.8733 C   0  0  0  0  0  0  0  0  0  0  0  0
    8.5439  -16.0449   20.8337 C   0  0  2  0  0  0  0  0  0  0  0  0
    8.7150  -14.9660   19.8930 N   0  0  0  0  0  0  0  0  0  0  0  0
    9.2150  -15.7872   22.1241 C   0  0  0  0  0  0  0  0  0  0  0  0
   10.4441  -15.5205   22.1392 O   0  0  0  0  0  0  0  0  0  0  0  0
   10.8986  -14.4235   30.6808 O   0  0  0  0  0  0  0  0  0  0  0  0
   10.2644  -14.6964   29.4738 C   0  0  0  0  0  0  0  0  0  0  0  0
    9.8910  -13.6123   28.7017 C   0  0  0  0  0  0  0  0  0  0  0  0
    9.2626  -13.7967   27.5012 C   0  0  0  0  0  0  0  0  0  0  0  0
    8.9774  -15.0780   27.0150 C   0  0  0  0  0  0  0  0  0  0  0  0
    8.2854  -15.2396   25.7336 C   0  0  0  0  0  0  0  0  0  0  0  0
    9.2539  -15.5318   24.6401 C   0  0  2  0  0  0  0  0  0  0  0  0
    8.5482  -15.8217   23.3768 N   0  0  0  0  0  0  0  0  0  0  0  0
   10.1458  -16.6575   24.9795 C   0  0  0  0  0  0  0  0  0  0  0  0
    9.8268  -17.8656   24.9484 O   0  0  0  0  0  0  0  0  0  0  0  0
    9.3653  -16.1392   27.8147 C   0  0  0  0  0  0  0  0  0  0  0  0
    9.9938  -15.9498   29.0148 C   0  0  0  0  0  0  0  0  0  0  0  0
   11.4620  -16.3422   25.3693 O   0  0  0  0  0  0  0  0  0  0  0  0
  1  2  1  0
  3  2  1  0
  3  9  1  0
  4  3  2  0
  6  5  1  1
  6  8  1  0
  7  6  1  0
  8  9  1  6
  8 10  1  0
 10 19  1  0
 11 10  2  0
 12 13  1  0
 13 23  2  0
 14 13  1  0
 14 15  2  0
 15 16  1  0
 16 22  2  0
 16 17  1  0
 18 20  1  0
 18 17  1  1
 19 18  1  0
 20 24  1  0
 21 20  2  0
 23 22  1  0
M  END
$$$$
