GVY.pdb
     RDKit          3D

 24 24  0  0  1  0  0  0  0  0999 V2000
   10.9539  -17.9394   17.8332 N   0  0  0  0  0  0  0  0  0  0  0  0
    9.7980  -17.8665   18.6952 C   0  0  0  0  0  0  0  0  0  0  0  0
    9.8759  -16.6464   19.5207 C   0  0  0  0  0  0  0  0  0  0  0  0
   10.9662  -16.2163   20.0051 O   0  0  0  0  0  0  0  0  0  0  0  0
    7.1938  -12.9074   21.4272 C   0  0  0  0  0  0  0  0  0  0  0  0
    7.4167  -14.0021   20.4184 C   0  0  1  0  0  0  0  0  0  0  0  0
    7.4911  -13.4215   19.0204 C   0  0  0  0  0  0  0  0  0  0  0  0
    8.6349  -14.8408   20.7413 C   0  0  2  0  0  0  0  0  0  0  0  0
    8.6875  -15.9202   19.7872 N   0  0  0  0  0  0  0  0  0  0  0  0
    8.6334  -15.3164   22.1398 C   0  0  0  0  0  0  0  0  0  0  0  0
    8.0292  -16.3807   22.4301 O   0  0  0  0  0  0  0  0  0  0  0  0
   10.4675  -16.3750   30.7110 O   0  0  0  0  0  0  0  0  0  0  0  0
   10.3642  -15.8983   29.4089 C   0  0  0  0  0  0  0  0  0  0  0  0
    9.7881  -14.6531   29.2400 C   0  0  0  0  0  0  0  0  0  0  0  0
    9.6502  -14.1139   27.9909 C   0  0  0  0  0  0  0  0  0  0  0  0
   10.0835  -14.7969   26.8484 C   0  0  0  0  0  0  0  0  0  0  0  0
    9.9029  -14.1986   25.5231 C   0  0  0  0  0  0  0  0  0  0  0  0
    9.3141  -15.1823   24.5720 C   0  0  2  0  0  0  0  0  0  0  0  0
    9.2841  -14.6352   23.2017 N   0  0  0  0  0  0  0  0  0  0  0  0
    7.9536  -15.5905   24.9727 C   0  0  0  0  0  0  0  0  0  0  0  0
    7.6562  -16.6778   25.5127 O   0  0  0  0  0  0  0  0  0  0  0  0
   10.6549  -16.0405   27.0556 C   0  0  0  0  0  0  0  0  0  0  0  0
   10.7908  -16.5757   28.3070 C   0  0  0  0  0  0  0  0  0  0  0  0
    6.9082  -14.6796   24.7256 O   0  0  0  0  0  0  0  0  0  0  0  0
  1  2  1  0
  3  2  1  0
  3  9  1  0
  4  3  2  0
  6  5  1  1
  6  8  1  0
  7  6  1  0
  8  9  1  6
  8 10  1  0
 10 19  1  0
 11 10  2  0
 12 13  1  0
 13 23  2  0
 14 13  1  0
 14 15  2  0
 15 16  1  0
 16 22  2  0
 16 17  1  0
 18 20  1  0
 18 17  1  1
 19 18  1  0
 20 24  1  0
 21 20  2  0
 23 22  1  0
M  END
$$$$
