GVY.pdb
     RDKit          3D

 24 24  0  0  1  0  0  0  0  0999 V2000
    8.4898  -18.7648   17.6083 N   0  0  0  0  0  0  0  0  0  0  0  0
    7.7367  -18.0938   18.6413 C   0  0  0  0  0  0  0  0  0  0  0  0
    8.5145  -16.9494   19.1527 C   0  0  0  0  0  0  0  0  0  0  0  0
    9.7749  -16.8711   19.0346 O   0  0  0  0  0  0  0  0  0  0  0  0
    8.1475  -12.4070   21.1311 C   0  0  0  0  0  0  0  0  0  0  0  0
    7.5122  -13.6678   20.6092 C   0  0  1  0  0  0  0  0  0  0  0  0
    6.7367  -13.3792   19.3394 C   0  0  0  0  0  0  0  0  0  0  0  0
    8.5213  -14.7783   20.4082 C   0  0  2  0  0  0  0  0  0  0  0  0
    7.8319  -15.8909   19.8038 N   0  0  0  0  0  0  0  0  0  0  0  0
    9.2067  -15.1469   21.6636 C   0  0  0  0  0  0  0  0  0  0  0  0
   10.3658  -14.7121   21.8857 O   0  0  0  0  0  0  0  0  0  0  0  0
   10.5207  -14.5906   30.0658 O   0  0  0  0  0  0  0  0  0  0  0  0
   10.0875  -14.5517   28.7451 C   0  0  0  0  0  0  0  0  0  0  0  0
   10.8845  -15.1764   27.8042 C   0  0  0  0  0  0  0  0  0  0  0  0
   10.5278  -15.1827   26.4841 C   0  0  0  0  0  0  0  0  0  0  0  0
    9.3534  -14.5626   26.0416 C   0  0  0  0  0  0  0  0  0  0  0  0
    9.0107  -14.5713   24.6170 C   0  0  0  0  0  0  0  0  0  0  0  0
    9.0931  -15.9501   24.0592 C   0  0  2  0  0  0  0  0  0  0  0  0
    8.6295  -15.9789   22.6585 N   0  0  0  0  0  0  0  0  0  0  0  0
    8.3150  -16.9160   24.8590 C   0  0  0  0  0  0  0  0  0  0  0  0
    7.0703  -17.0285   24.8435 O   0  0  0  0  0  0  0  0  0  0  0  0
    8.5806  -13.9471   27.0111 C   0  0  0  0  0  0  0  0  0  0  0  0
    8.9415  -13.9435   28.3305 C   0  0  0  0  0  0  0  0  0  0  0  0
    9.0356  -17.7792   25.7072 O   0  0  0  0  0  0  0  0  0  0  0  0
  1  2  1  0
  3  2  1  0
  3  9  1  0
  4  3  2  0
  6  5  1  6
  6  8  1  0
  7  6  1  0
  8  9  1  1
  8 10  1  0
 10 19  1  0
 11 10  2  0
 12 13  1  0
 13 23  2  0
 14 13  1  0
 14 15  2  0
 15 16  1  0
 16 22  2  0
 16 17  1  0
 18 20  1  0
 18 17  1  1
 19 18  1  0
 20 24  1  0
 21 20  2  0
 23 22  1  0
M  END
$$$$
