GVY.pdb
     RDKit          3D

 24 24  0  0  1  0  0  0  0  0999 V2000
    7.6723  -12.6319   19.5282 N   0  0  0  0  0  0  0  0  0  0  0  0
    6.9759  -13.4895   20.4578 C   0  0  0  0  0  0  0  0  0  0  0  0
    7.6616  -13.4591   21.7636 C   0  0  0  0  0  0  0  0  0  0  0  0
    8.9104  -13.2688   21.8766 O   0  0  0  0  0  0  0  0  0  0  0  0
    6.8784  -13.6826   26.6802 C   0  0  0  0  0  0  0  0  0  0  0  0
    6.4261  -13.4113   25.2704 C   0  0  1  0  0  0  0  0  0  0  0  0
    5.9341  -11.9835   25.1417 C   0  0  0  0  0  0  0  0  0  0  0  0
    7.5010  -13.7264   24.2521 C   0  0  2  0  0  0  0  0  0  0  0  0
    6.8997  -13.6496   22.9441 N   0  0  0  0  0  0  0  0  0  0  0  0
    8.1485  -15.0296   24.5056 C   0  0  0  0  0  0  0  0  0  0  0  0
    7.5624  -16.0882   24.1624 O   0  0  0  0  0  0  0  0  0  0  0  0
   11.0034  -14.9614   31.3338 O   0  0  0  0  0  0  0  0  0  0  0  0
   11.1240  -15.3687   30.0098 C   0  0  0  0  0  0  0  0  0  0  0  0
   10.9899  -14.3942   29.0385 C   0  0  0  0  0  0  0  0  0  0  0  0
   11.0955  -14.7139   27.7131 C   0  0  0  0  0  0  0  0  0  0  0  0
   11.3409  -16.0273   27.2956 C   0  0  0  0  0  0  0  0  0  0  0  0
   11.4289  -16.3388   25.8665 C   0  0  0  0  0  0  0  0  0  0  0  0
   10.0717  -16.4837   25.2698 C   0  0  2  0  0  0  0  0  0  0  0  0
    9.4181  -15.1685   25.1254 N   0  0  0  0  0  0  0  0  0  0  0  0
    9.2117  -17.3799   26.0669 C   0  0  0  0  0  0  0  0  0  0  0  0
    8.2356  -17.0168   26.7580 O   0  0  0  0  0  0  0  0  0  0  0  0
   11.4691  -16.9762   28.2952 C   0  0  0  0  0  0  0  0  0  0  0  0
   11.3629  -16.6516   29.6198 C   0  0  0  0  0  0  0  0  0  0  0  0
    9.5177  -18.7545   26.0451 O   0  0  0  0  0  0  0  0  0  0  0  0
  1  2  1  0
  3  2  1  0
  3  9  1  0
  4  3  2  0
  6  5  1  1
  6  8  1  0
  7  6  1  0
  8  9  1  6
  8 10  1  0
 10 19  1  0
 11 10  2  0
 12 13  1  0
 13 23  2  0
 14 13  1  0
 14 15  2  0
 15 16  1  0
 16 22  2  0
 16 17  1  0
 18 20  1  0
 18 17  1  1
 19 18  1  0
 20 24  1  0
 21 20  2  0
 23 22  1  0
M  END
$$$$
