GVY.pdb
     RDKit          3D

 24 24  0  0  1  0  0  0  0  0999 V2000
    5.6763  -19.1677   20.1983 N   0  0  0  0  0  0  0  0  0  0  0  0
    5.4380  -17.9008   20.8485 C   0  0  0  0  0  0  0  0  0  0  0  0
    6.6374  -17.0509   20.7248 C   0  0  0  0  0  0  0  0  0  0  0  0
    7.7545  -17.4979   20.3236 O   0  0  0  0  0  0  0  0  0  0  0  0
    8.4014  -12.4510   20.6857 C   0  0  0  0  0  0  0  0  0  0  0  0
    7.2907  -13.4623   20.5898 C   0  0  1  0  0  0  0  0  0  0  0  0
    6.7904  -13.5601   19.1625 C   0  0  0  0  0  0  0  0  0  0  0  0
    7.6978  -14.8152   21.1337 C   0  0  2  0  0  0  0  0  0  0  0  0
    6.5448  -15.6780   21.0666 N   0  0  0  0  0  0  0  0  0  0  0  0
    8.2632  -14.7250   22.4953 C   0  0  0  0  0  0  0  0  0  0  0  0
    7.6026  -14.1569   23.4025 O   0  0  0  0  0  0  0  0  0  0  0  0
   10.9613  -14.7859   30.4929 O   0  0  0  0  0  0  0  0  0  0  0  0
   10.5085  -15.0522   29.2055 C   0  0  0  0  0  0  0  0  0  0  0  0
   10.1132  -13.9694   28.4425 C   0  0  0  0  0  0  0  0  0  0  0  0
    9.6557  -14.1476   27.1662 C   0  0  0  0  0  0  0  0  0  0  0  0
    9.5718  -15.4212   26.5913 C   0  0  0  0  0  0  0  0  0  0  0  0
    9.0586  -15.5786   25.2278 C   0  0  0  0  0  0  0  0  0  0  0  0
   10.0635  -15.1245   24.2263 C   0  0  2  0  0  0  0  0  0  0  0  0
    9.5323  -15.2494   22.8551 N   0  0  0  0  0  0  0  0  0  0  0  0
   11.3302  -15.8736   24.3374 C   0  0  0  0  0  0  0  0  0  0  0  0
   12.3310  -15.5061   24.9897 O   0  0  0  0  0  0  0  0  0  0  0  0
    9.9756  -16.4813   27.3844 C   0  0  0  0  0  0  0  0  0  0  0  0
   10.4328  -16.2981   28.6605 C   0  0  0  0  0  0  0  0  0  0  0  0
   11.4154  -17.1012   23.6522 O   0  0  0  0  0  0  0  0  0  0  0  0
  1  2  1  0
  3  2  1  0
  3  9  1  0
  4  3  2  0
  6  5  1  6
  6  8  1  0
  7  6  1  0
  8  9  1  1
  8 10  1  0
 10 19  1  0
 11 10  2  0
 12 13  1  0
 13 23  2  0
 14 13  1  0
 14 15  2  0
 15 16  1  0
 16 22  2  0
 16 17  1  0
 18 20  1  0
 18 17  1  1
 19 18  1  0
 20 24  1  0
 21 20  2  0
 23 22  1  0
M  END
$$$$
