GVY.pdb
     RDKit          3D

 24 24  0  0  1  0  0  0  0  0999 V2000
   11.2380  -17.1635   17.4836 N   0  0  0  0  0  0  0  0  0  0  0  0
   10.4299  -17.4321   18.6495 C   0  0  0  0  0  0  0  0  0  0  0  0
   10.2789  -16.1952   19.4391 C   0  0  0  0  0  0  0  0  0  0  0  0
   11.2704  -15.5483   19.8941 O   0  0  0  0  0  0  0  0  0  0  0  0
    6.9062  -13.1292   21.4544 C   0  0  0  0  0  0  0  0  0  0  0  0
    7.3727  -14.0688   20.3751 C   0  0  1  0  0  0  0  0  0  0  0  0
    7.3917  -13.3618   19.0346 C   0  0  0  0  0  0  0  0  0  0  0  0
    8.7139  -14.6927   20.6974 C   0  0  2  0  0  0  0  0  0  0  0  0
    8.9754  -15.7040   19.7037 N   0  0  0  0  0  0  0  0  0  0  0  0
    8.7698  -15.2207   22.0758 C   0  0  0  0  0  0  0  0  0  0  0  0
    8.3753  -16.3927   22.3052 O   0  0  0  0  0  0  0  0  0  0  0  0
   10.2840  -16.2392   30.6439 O   0  0  0  0  0  0  0  0  0  0  0  0
   10.0492  -15.6094   29.4267 C   0  0  0  0  0  0  0  0  0  0  0  0
    9.7974  -16.4224   28.3374 C   0  0  0  0  0  0  0  0  0  0  0  0
    9.5566  -15.8801   27.1054 C   0  0  0  0  0  0  0  0  0  0  0  0
    9.5563  -14.4947   26.9043 C   0  0  0  0  0  0  0  0  0  0  0  0
    9.3139  -13.9473   25.5670 C   0  0  0  0  0  0  0  0  0  0  0  0
    9.2635  -15.0339   24.5493 C   0  0  2  0  0  0  0  0  0  0  0  0
    9.2506  -14.4747   23.1837 N   0  0  0  0  0  0  0  0  0  0  0  0
    8.0918  -15.9113   24.7368 C   0  0  0  0  0  0  0  0  0  0  0  0
    6.9021  -15.5756   24.5523 O   0  0  0  0  0  0  0  0  0  0  0  0
    9.8125  -13.7122   28.0170 C   0  0  0  0  0  0  0  0  0  0  0  0
   10.0526  -14.2593   29.2475 C   0  0  0  0  0  0  0  0  0  0  0  0
    8.3368  -17.2329   25.1577 O   0  0  0  0  0  0  0  0  0  0  0  0
  1  2  1  0
  3  2  1  0
  3  9  1  0
  4  3  2  0
  6  5  1  1
  6  8  1  0
  7  6  1  0
  8  9  1  6
  8 10  1  0
 10 19  1  0
 11 10  2  0
 12 13  1  0
 13 23  2  0
 14 13  1  0
 14 15  2  0
 15 16  1  0
 16 22  2  0
 16 17  1  0
 18 20  1  0
 18 17  1  1
 19 18  1  0
 20 24  1  0
 21 20  2  0
 23 22  1  0
M  END
$$$$
