IFW.pdb
     RDKit          3D

 34 36  0  0  1  0  0  0  0  0999 V2000
    9.6085  -20.8975   18.3113 C   0  0  0  0  0  0  0  0  0  0  0  0
    8.8804  -19.5924   18.2121 C   0  0  0  0  0  0  0  0  0  0  0  0
    9.2073  -18.7419   19.4059 C   0  0  2  0  0  0  0  0  0  0  0  0
    8.9075  -19.4492   20.6939 C   0  0  0  0  0  0  0  0  0  0  0  0
    8.4611  -17.4232   19.2780 C   0  0  2  0  0  0  0  0  0  0  0  0
    8.9296  -16.7744   18.0298 N   0  0  0  0  0  0  0  0  0  0  0  0
    8.7080  -16.4919   20.3747 C   0  0  0  0  0  0  0  0  0  0  0  0
    9.8575  -15.9511   20.5282 O   0  0  0  0  0  0  0  0  0  0  0  0
    7.7349  -16.0923   21.3580 N   0  0  0  0  0  0  0  0  0  0  0  0
    8.1400  -15.2878   22.5042 C   0  0  1  0  0  0  0  0  0  0  0  0
    6.8395  -14.6676   23.0081 C   0  0  0  0  0  0  0  0  0  0  0  0
    7.0288  -13.7224   24.1265 C   0  0  0  0  0  0  0  0  0  0  0  0
    7.7054  -12.5319   23.9752 C   0  0  0  0  0  0  0  0  0  0  0  0
    7.8741  -11.6202   25.0243 C   0  0  0  0  0  0  0  0  0  0  0  0
    7.3459  -11.9195   26.2529 C   0  0  0  0  0  0  0  0  0  0  0  0
    6.6679  -13.0967   26.4324 C   0  0  0  0  0  0  0  0  0  0  0  0
    6.5085  -13.9916   25.3843 C   0  0  0  0  0  0  0  0  0  0  0  0
    8.7161  -16.1223   23.5666 C   0  0  0  0  0  0  0  0  0  0  0  0
    7.9931  -16.3435   24.5949 O   0  0  0  0  0  0  0  0  0  0  0  0
   10.0162  -16.6988   23.5236 N   0  0  0  0  0  0  0  0  0  0  0  0
   11.0022  -16.3382   24.5461 C   0  0  1  0  0  0  0  0  0  0  0  0
   10.8808  -17.3718   25.6394 C   0  0  0  0  0  0  0  0  0  0  0  0
   10.1552  -16.9315   26.8265 C   0  0  0  0  0  0  0  0  0  0  0  0
    9.0013  -17.4718   27.3825 C   0  0  0  0  0  0  0  0  0  0  0  0
    8.6828  -16.7459   28.4653 N   0  0  0  0  0  0  0  0  0  0  0  0
    9.5846  -15.7618   28.6285 C   0  0  0  0  0  0  0  0  0  0  0  0
    9.7446  -14.7496   29.5702 C   0  0  0  0  0  0  0  0  0  0  0  0
   10.7951  -13.8616   29.5079 C   0  0  0  0  0  0  0  0  0  0  0  0
   11.7369  -13.9420   28.5004 C   0  0  0  0  0  0  0  0  0  0  0  0
   11.5708  -14.9468   27.5712 C   0  0  0  0  0  0  0  0  0  0  0  0
   10.5210  -15.8478   27.6196 C   0  0  0  0  0  0  0  0  0  0  0  0
   12.3319  -16.1843   23.9791 C   0  0  0  0  0  0  0  0  0  0  0  0
   12.5725  -16.2750   22.5839 O   0  0  0  0  0  0  0  0  0  0  0  0
   13.3662  -15.9617   24.6523 O   0  0  0  0  0  0  0  0  0  0  0  0
  2  1  1  0
  3  2  1  0
  3  4  1  1
  5  3  1  0
  5  6  1  6
  7  5  1  0
  8  7  2  0
  9  7  1  0
 10  9  1  0
 11 12  1  0
 10 11  1  1
 12 13  2  0
 13 14  1  0
 15 14  2  0
 16 15  1  0
 17 16  2  0
 17 12  1  0
 18 10  1  0
 18 19  2  0
 20 18  1  0
 21 20  1  0
 21 22  1  1
 23 22  1  0
 23 31  1  0
 24 23  2  0
 25 24  1  0
 25 26  1  0
 26 27  1  0
 26 31  2  0
 27 28  2  0
 28 29  1  0
 30 29  2  0
 31 30  1  0
 32 21  1  0
 33 32  1  0
 34 32  2  0
M  END
$$$$
