IFW.pdb
     RDKit          3D

 34 36  0  0  1  0  0  0  0  0999 V2000
   10.1149  -20.3077   15.5318 C   0  0  0  0  0  0  0  0  0  0  0  0
    9.3517  -19.9501   16.7698 C   0  0  0  0  0  0  0  0  0  0  0  0
   10.3116  -19.5710   17.8608 C   0  0  2  0  0  0  0  0  0  0  0  0
   11.1737  -20.7271   18.2721 C   0  0  0  0  0  0  0  0  0  0  0  0
    9.5184  -18.9933   19.0224 C   0  0  2  0  0  0  0  0  0  0  0  0
    8.4010  -18.2098   18.4428 N   0  0  0  0  0  0  0  0  0  0  0  0
   10.2868  -18.0933   19.8774 C   0  0  0  0  0  0  0  0  0  0  0  0
   11.5311  -17.8876   19.6606 O   0  0  0  0  0  0  0  0  0  0  0  0
    9.7590  -17.3679   21.0037 N   0  0  0  0  0  0  0  0  0  0  0  0
   10.6490  -16.5857   21.8529 C   0  0  1  0  0  0  0  0  0  0  0  0
   10.6685  -15.2032   21.2061 C   0  0  0  0  0  0  0  0  0  0  0  0
    9.3347  -14.5779   21.1052 C   0  0  0  0  0  0  0  0  0  0  0  0
    8.6003  -14.5986   19.9396 C   0  0  0  0  0  0  0  0  0  0  0  0
    7.3270  -14.0254   19.8388 C   0  0  0  0  0  0  0  0  0  0  0  0
    6.7848  -13.4187   20.9416 C   0  0  0  0  0  0  0  0  0  0  0  0
    7.4928  -13.3831   22.1143 C   0  0  0  0  0  0  0  0  0  0  0  0
    8.7540  -13.9546   22.2003 C   0  0  0  0  0  0  0  0  0  0  0  0
   10.1198  -16.4686   23.2179 C   0  0  0  0  0  0  0  0  0  0  0  0
    8.8762  -16.2106   23.3440 O   0  0  0  0  0  0  0  0  0  0  0  0
   10.8959  -16.6262   24.3999 N   0  0  0  0  0  0  0  0  0  0  0  0
   10.2737  -16.4084   25.7088 C   0  0  1  0  0  0  0  0  0  0  0  0
    9.7853  -14.9802   25.7169 C   0  0  0  0  0  0  0  0  0  0  0  0
    8.3412  -14.8231   25.8569 C   0  0  0  0  0  0  0  0  0  0  0  0
    7.3582  -15.8052   25.8151 C   0  0  0  0  0  0  0  0  0  0  0  0
    6.1679  -15.2087   25.9833 N   0  0  0  0  0  0  0  0  0  0  0  0
    6.3454  -13.8841   26.1321 C   0  0  0  0  0  0  0  0  0  0  0  0
    5.4800  -12.8152   26.3458 C   0  0  0  0  0  0  0  0  0  0  0  0
    5.9417  -11.5250   26.4804 C   0  0  0  0  0  0  0  0  0  0  0  0
    7.2916  -11.2403   26.4073 C   0  0  0  0  0  0  0  0  0  0  0  0
    8.1419  -12.3044   26.1947 C   0  0  0  0  0  0  0  0  0  0  0  0
    7.6944  -13.6071   26.0578 C   0  0  0  0  0  0  0  0  0  0  0  0
    9.2641  -17.4137   25.9972 C   0  0  0  0  0  0  0  0  0  0  0  0
    8.7507  -18.2768   24.9950 O   0  0  0  0  0  0  0  0  0  0  0  0
    8.7642  -17.6090   27.1306 O   0  0  0  0  0  0  0  0  0  0  0  0
  2  1  1  0
  3  2  1  0
  3  4  1  1
  5  3  1  0
  5  6  1  6
  7  5  1  0
  8  7  2  0
  9  7  1  0
 10  9  1  0
 11 12  1  0
 10 11  1  6
 12 13  2  0
 13 14  1  0
 15 14  2  0
 16 15  1  0
 17 16  2  0
 17 12  1  0
 18 10  1  0
 18 19  2  0
 20 18  1  0
 21 20  1  0
 21 22  1  6
 23 22  1  0
 23 31  1  0
 24 23  2  0
 25 24  1  0
 25 26  1  0
 26 27  1  0
 26 31  2  0
 27 28  2  0
 28 29  1  0
 30 29  2  0
 31 30  1  0
 32 21  1  0
 33 32  1  0
 34 32  2  0
M  END
$$$$
