IFW.pdb
     RDKit          3D

 34 36  0  0  1  0  0  0  0  0999 V2000
   11.5488  -20.5094   18.7002 C   0  0  0  0  0  0  0  0  0  0  0  0
   10.2670  -19.7349   18.7237 C   0  0  0  0  0  0  0  0  0  0  0  0
   10.3076  -18.7286   19.8377 C   0  0  2  0  0  0  0  0  0  0  0  0
   10.5084  -19.3818   21.1727 C   0  0  0  0  0  0  0  0  0  0  0  0
    9.0368  -17.8954   19.7820 C   0  0  2  0  0  0  0  0  0  0  0  0
    8.9337  -17.3457   18.4089 N   0  0  0  0  0  0  0  0  0  0  0  0
    9.0254  -16.7664   20.7075 C   0  0  0  0  0  0  0  0  0  0  0  0
    9.7268  -15.7217   20.4744 O   0  0  0  0  0  0  0  0  0  0  0  0
    8.2601  -16.7004   21.9253 N   0  0  0  0  0  0  0  0  0  0  0  0
    8.3252  -15.5122   22.7675 C   0  0  1  0  0  0  0  0  0  0  0  0
    6.9078  -15.3586   23.3130 C   0  0  0  0  0  0  0  0  0  0  0  0
    6.7788  -14.3026   24.3367 C   0  0  0  0  0  0  0  0  0  0  0  0
    6.3679  -14.5736   25.6236 C   0  0  0  0  0  0  0  0  0  0  0  0
    6.2605  -13.5827   26.6068 C   0  0  0  0  0  0  0  0  0  0  0  0
    6.5763  -12.2896   26.2808 C   0  0  0  0  0  0  0  0  0  0  0  0
    6.9877  -11.9908   25.0084 C   0  0  0  0  0  0  0  0  0  0  0  0
    7.0894  -12.9824   24.0434 C   0  0  0  0  0  0  0  0  0  0  0  0
    9.2527  -15.7026   23.8902 C   0  0  0  0  0  0  0  0  0  0  0  0
    9.3156  -14.7727   24.7623 O   0  0  0  0  0  0  0  0  0  0  0  0
   10.0770  -16.8483   24.0699 N   0  0  0  0  0  0  0  0  0  0  0  0
   11.5293  -16.6853   24.1789 C   0  0  1  0  0  0  0  0  0  0  0  0
   11.7656  -15.7034   25.3007 C   0  0  0  0  0  0  0  0  0  0  0  0
   11.1838  -16.0819   26.5844 C   0  0  0  0  0  0  0  0  0  0  0  0
   10.9767  -17.3582   27.0953 C   0  0  0  0  0  0  0  0  0  0  0  0
   10.4111  -17.2341   28.3059 N   0  0  0  0  0  0  0  0  0  0  0  0
   10.2467  -15.9310   28.5943 C   0  0  0  0  0  0  0  0  0  0  0  0
    9.7348  -15.2456   29.6921 C   0  0  0  0  0  0  0  0  0  0  0  0
    9.6971  -13.8698   29.7340 C   0  0  0  0  0  0  0  0  0  0  0  0
   10.1691  -13.1119   28.6797 C   0  0  0  0  0  0  0  0  0  0  0  0
   10.6736  -13.7985   27.5959 C   0  0  0  0  0  0  0  0  0  0  0  0
   10.7193  -15.1808   27.5380 C   0  0  0  0  0  0  0  0  0  0  0  0
   12.2041  -17.9652   24.3188 C   0  0  0  0  0  0  0  0  0  0  0  0
   13.6180  -18.0800   24.2916 O   0  0  0  0  0  0  0  0  0  0  0  0
   11.6155  -19.0617   24.4736 O   0  0  0  0  0  0  0  0  0  0  0  0
  2  1  1  0
  3  2  1  0
  3  4  1  1
  5  3  1  0
  5  6  1  6
  7  5  1  0
  8  7  2  0
  9  7  1  0
 10  9  1  0
 11 12  1  0
 10 11  1  1
 12 13  2  0
 13 14  1  0
 15 14  2  0
 16 15  1  0
 17 16  2  0
 17 12  1  0
 18 10  1  0
 18 19  2  0
 20 18  1  0
 21 20  1  0
 21 22  1  1
 23 22  1  0
 23 31  1  0
 24 23  2  0
 25 24  1  0
 25 26  1  0
 26 27  1  0
 26 31  2  0
 27 28  2  0
 28 29  1  0
 30 29  2  0
 31 30  1  0
 32 21  1  0
 33 32  1  0
 34 32  2  0
M  END
$$$$
