IFW.pdb
     RDKit          3D

 34 36  0  0  1  0  0  0  0  0999 V2000
    7.8973  -23.1099   25.1547 C   0  0  0  0  0  0  0  0  0  0  0  0
    7.0100  -22.4147   24.1685 C   0  0  0  0  0  0  0  0  0  0  0  0
    7.6850  -21.1664   23.6771 C   0  0  2  0  0  0  0  0  0  0  0  0
    8.1102  -20.2793   24.8092 C   0  0  0  0  0  0  0  0  0  0  0  0
    6.7507  -20.4631   22.7052 C   0  0  2  0  0  0  0  0  0  0  0  0
    6.4741  -21.4118   21.5998 N   0  0  0  0  0  0  0  0  0  0  0  0
    7.3112  -19.2523   22.1128 C   0  0  0  0  0  0  0  0  0  0  0  0
    8.3044  -19.3161   21.3084 O   0  0  0  0  0  0  0  0  0  0  0  0
    6.8332  -17.9150   22.3508 N   0  0  0  0  0  0  0  0  0  0  0  0
    7.5515  -16.7720   21.8005 C   0  0  1  0  0  0  0  0  0  0  0  0
    6.5381  -15.6315   21.8481 C   0  0  0  0  0  0  0  0  0  0  0  0
    7.0395  -14.3695   21.2682 C   0  0  0  0  0  0  0  0  0  0  0  0
    7.2852  -13.2540   22.0386 C   0  0  0  0  0  0  0  0  0  0  0  0
    7.7785  -12.0588   21.5017 C   0  0  0  0  0  0  0  0  0  0  0  0
    8.0293  -11.9913   20.1561 C   0  0  0  0  0  0  0  0  0  0  0  0
    7.7942  -13.0855   19.3655 C   0  0  0  0  0  0  0  0  0  0  0  0
    7.3047  -14.2637   19.9104 C   0  0  0  0  0  0  0  0  0  0  0  0
    8.7102  -16.4183   22.6308 C   0  0  0  0  0  0  0  0  0  0  0  0
    9.7271  -15.9251   22.0378 O   0  0  0  0  0  0  0  0  0  0  0  0
    8.7717  -16.5850   24.0424 N   0  0  0  0  0  0  0  0  0  0  0  0
   10.0206  -16.2941   24.7520 C   0  0  1  0  0  0  0  0  0  0  0  0
    9.6778  -15.2899   25.8254 C   0  0  0  0  0  0  0  0  0  0  0  0
    8.2538  -15.0064   25.9725 C   0  0  0  0  0  0  0  0  0  0  0  0
    7.1898  -15.9010   25.9579 C   0  0  0  0  0  0  0  0  0  0  0  0
    6.0566  -15.2012   26.1225 N   0  0  0  0  0  0  0  0  0  0  0  0
    6.3485  -13.8940   26.2428 C   0  0  0  0  0  0  0  0  0  0  0  0
    5.5799  -12.7507   26.4408 C   0  0  0  0  0  0  0  0  0  0  0  0
    6.1518  -11.5026   26.5456 C   0  0  0  0  0  0  0  0  0  0  0  0
    7.5205  -11.3365   26.4571 C   0  0  0  0  0  0  0  0  0  0  0  0
    8.2744  -12.4737   26.2601 C   0  0  0  0  0  0  0  0  0  0  0  0
    7.7155  -13.7356   26.1531 C   0  0  0  0  0  0  0  0  0  0  0  0
   10.6680  -17.5090   25.2193 C   0  0  0  0  0  0  0  0  0  0  0  0
   11.9931  -17.5110   25.7261 O   0  0  0  0  0  0  0  0  0  0  0  0
   10.1298  -18.6418   25.2194 O   0  0  0  0  0  0  0  0  0  0  0  0
  2  1  1  0
  3  2  1  0
  3  4  1  1
  5  3  1  0
  5  6  1  6
  7  5  1  0
  8  7  2  0
  9  7  1  0
 10  9  1  0
 11 12  1  0
 10 11  1  1
 12 13  2  0
 13 14  1  0
 15 14  2  0
 16 15  1  0
 17 16  2  0
 17 12  1  0
 18 10  1  0
 18 19  2  0
 20 18  1  0
 21 20  1  0
 21 22  1  1
 23 22  1  0
 23 31  1  0
 24 23  2  0
 25 24  1  0
 25 26  1  0
 26 27  1  0
 26 31  2  0
 27 28  2  0
 28 29  1  0
 30 29  2  0
 31 30  1  0
 32 21  1  0
 33 32  1  0
 34 32  2  0
M  END
$$$$
