IFW.pdb
     RDKit          3D

 34 36  0  0  1  0  0  0  0  0999 V2000
    7.2103  -13.1189   22.7661 C   0  0  0  0  0  0  0  0  0  0  0  0
    7.6739  -14.2686   21.9255 C   0  0  0  0  0  0  0  0  0  0  0  0
    8.5671  -13.7625   20.8295 C   0  0  2  0  0  0  0  0  0  0  0  0
    7.8513  -12.8057   19.9234 C   0  0  0  0  0  0  0  0  0  0  0  0
    9.1377  -14.9572   20.0816 C   0  0  2  0  0  0  0  0  0  0  0  0
    7.9904  -15.7143   19.5258 N   0  0  0  0  0  0  0  0  0  0  0  0
    9.9018  -15.8746   20.9217 C   0  0  0  0  0  0  0  0  0  0  0  0
    9.4674  -17.0528   21.1680 O   0  0  0  0  0  0  0  0  0  0  0  0
   11.1693  -15.5757   21.5360 N   0  0  0  0  0  0  0  0  0  0  0  0
   11.9230  -16.6268   22.2085 C   0  0  1  0  0  0  0  0  0  0  0  0
   13.2864  -15.9972   22.4819 C   0  0  0  0  0  0  0  0  0  0  0  0
   14.2777  -16.9456   23.0276 C   0  0  0  0  0  0  0  0  0  0  0  0
   14.7970  -17.9778   22.2771 C   0  0  0  0  0  0  0  0  0  0  0  0
   15.7512  -18.8710   22.7789 C   0  0  0  0  0  0  0  0  0  0  0  0
   16.1901  -18.7157   24.0679 C   0  0  0  0  0  0  0  0  0  0  0  0
   15.6909  -17.6979   24.8376 C   0  0  0  0  0  0  0  0  0  0  0  0
   14.7451  -16.8200   24.3279 C   0  0  0  0  0  0  0  0  0  0  0  0
   11.3012  -16.9969   23.4865 C   0  0  0  0  0  0  0  0  0  0  0  0
   11.9096  -17.8571   24.2068 O   0  0  0  0  0  0  0  0  0  0  0  0
   10.0759  -16.4609   23.9722 N   0  0  0  0  0  0  0  0  0  0  0  0
    9.5962  -16.8423   25.3035 C   0  0  1  0  0  0  0  0  0  0  0  0
    9.2457  -15.5581   26.0150 C   0  0  0  0  0  0  0  0  0  0  0  0
    7.8340  -15.1914   25.9661 C   0  0  0  0  0  0  0  0  0  0  0  0
    6.7234  -16.0259   26.0179 C   0  0  0  0  0  0  0  0  0  0  0  0
    5.6244  -15.2602   25.9355 N   0  0  0  0  0  0  0  0  0  0  0  0
    5.9829  -13.9681   25.8334 C   0  0  0  0  0  0  0  0  0  0  0  0
    5.2703  -12.7767   25.7348 C   0  0  0  0  0  0  0  0  0  0  0  0
    5.9050  -11.5574   25.6561 C   0  0  0  0  0  0  0  0  0  0  0  0
    7.2837  -11.4697   25.6714 C   0  0  0  0  0  0  0  0  0  0  0  0
    7.9820  -12.6544   25.7684 C   0  0  0  0  0  0  0  0  0  0  0  0
    7.3596  -13.8882   25.8489 C   0  0  0  0  0  0  0  0  0  0  0  0
    8.5271  -17.8244   25.2277 C   0  0  0  0  0  0  0  0  0  0  0  0
    8.0455  -18.5057   26.3752 O   0  0  0  0  0  0  0  0  0  0  0  0
    7.9432  -18.1537   24.1678 O   0  0  0  0  0  0  0  0  0  0  0  0
  2  1  1  0
  3  2  1  0
  3  4  1  6
  5  3  1  0
  5  6  1  1
  7  5  1  0
  8  7  2  0
  9  7  1  0
 10  9  1  0
 11 12  1  0
 10 11  1  1
 12 13  2  0
 13 14  1  0
 15 14  2  0
 16 15  1  0
 17 16  2  0
 17 12  1  0
 18 10  1  0
 18 19  2  0
 20 18  1  0
 21 20  1  0
 21 22  1  6
 23 22  1  0
 23 31  1  0
 24 23  2  0
 25 24  1  0
 25 26  1  0
 26 27  1  0
 26 31  2  0
 27 28  2  0
 28 29  1  0
 30 29  2  0
 31 30  1  0
 32 21  1  0
 33 32  1  0
 34 32  2  0
M  END
$$$$
