IFW.pdb
     RDKit          3D

 34 36  0  0  1  0  0  0  0  0999 V2000
   10.0608  -21.8555   19.3839 C   0  0  0  0  0  0  0  0  0  0  0  0
    9.1914  -20.6360   19.3642 C   0  0  0  0  0  0  0  0  0  0  0  0
    9.8805  -19.5152   20.0882 C   0  0  2  0  0  0  0  0  0  0  0  0
   10.3135  -19.9230   21.4649 C   0  0  0  0  0  0  0  0  0  0  0  0
    8.9553  -18.3085   20.1020 C   0  0  2  0  0  0  0  0  0  0  0  0
    8.6867  -17.9467   18.6894 N   0  0  0  0  0  0  0  0  0  0  0  0
    9.5223  -17.1323   20.7549 C   0  0  0  0  0  0  0  0  0  0  0  0
   10.6101  -16.6086   20.3307 O   0  0  0  0  0  0  0  0  0  0  0  0
    8.9501  -16.4584   21.8914 N   0  0  0  0  0  0  0  0  0  0  0  0
    9.6397  -15.3238   22.4933 C   0  0  1  0  0  0  0  0  0  0  0  0
    8.5646  -14.2462   22.6070 C   0  0  0  0  0  0  0  0  0  0  0  0
    8.0525  -13.7810   21.3026 C   0  0  0  0  0  0  0  0  0  0  0  0
    6.9255  -14.3201   20.7216 C   0  0  0  0  0  0  0  0  0  0  0  0
    6.4209  -13.8734   19.4944 C   0  0  0  0  0  0  0  0  0  0  0  0
    7.0705  -12.8587   18.8414 C   0  0  0  0  0  0  0  0  0  0  0  0
    8.1941  -12.3037   19.3957 C   0  0  0  0  0  0  0  0  0  0  0  0
    8.6837  -12.7562   20.6123 C   0  0  0  0  0  0  0  0  0  0  0  0
   10.1348  -15.6503   23.8370 C   0  0  0  0  0  0  0  0  0  0  0  0
   10.9687  -14.8421   24.3665 O   0  0  0  0  0  0  0  0  0  0  0  0
    9.7460  -16.7979   24.5828 N   0  0  0  0  0  0  0  0  0  0  0  0
   10.2697  -16.9922   25.9377 C   0  0  1  0  0  0  0  0  0  0  0  0
    9.8028  -15.8084   26.7496 C   0  0  0  0  0  0  0  0  0  0  0  0
    8.4229  -15.4001   26.5072 C   0  0  0  0  0  0  0  0  0  0  0  0
    7.3502  -16.1839   26.0978 C   0  0  0  0  0  0  0  0  0  0  0  0
    6.2717  -15.3918   25.9972 N   0  0  0  0  0  0  0  0  0  0  0  0
    6.6067  -14.1315   26.3255 C   0  0  0  0  0  0  0  0  0  0  0  0
    5.8971  -12.9369   26.4058 C   0  0  0  0  0  0  0  0  0  0  0  0
    6.4993  -11.7612   26.7942 C   0  0  0  0  0  0  0  0  0  0  0  0
    7.8411  -11.7223   27.1210 C   0  0  0  0  0  0  0  0  0  0  0  0
    8.5370  -12.9095   27.0381 C   0  0  0  0  0  0  0  0  0  0  0  0
    7.9468  -14.1000   26.6500 C   0  0  0  0  0  0  0  0  0  0  0  0
    9.9079  -18.2951   26.4713 C   0  0  0  0  0  0  0  0  0  0  0  0
    9.0885  -19.2037   25.7531 O   0  0  0  0  0  0  0  0  0  0  0  0
   10.2770  -18.7290   27.5885 O   0  0  0  0  0  0  0  0  0  0  0  0
  2  1  1  0
  3  2  1  0
  3  4  1  1
  5  3  1  0
  5  6  1  6
  7  5  1  0
  8  7  2  0
  9  7  1  0
 10  9  1  0
 11 12  1  0
 10 11  1  1
 12 13  2  0
 13 14  1  0
 15 14  2  0
 16 15  1  0
 17 16  2  0
 17 12  1  0
 18 10  1  0
 18 19  2  0
 20 18  1  0
 21 20  1  0
 21 22  1  1
 23 22  1  0
 23 31  1  0
 24 23  2  0
 25 24  1  0
 25 26  1  0
 26 27  1  0
 26 31  2  0
 27 28  2  0
 28 29  1  0
 30 29  2  0
 31 30  1  0
 32 21  1  0
 33 32  1  0
 34 32  2  0
M  END
$$$$
