IFW.pdb
     RDKit          3D

 34 36  0  0  1  0  0  0  0  0999 V2000
   12.6611  -21.1702   22.0440 C   0  0  0  0  0  0  0  0  0  0  0  0
   11.7141  -20.6719   20.9959 C   0  0  0  0  0  0  0  0  0  0  0  0
   10.3054  -21.0155   21.3865 C   0  0  2  0  0  0  0  0  0  0  0  0
   10.1355  -22.4863   21.6256 C   0  0  0  0  0  0  0  0  0  0  0  0
    9.3649  -20.4870   20.3149 C   0  0  2  0  0  0  0  0  0  0  0  0
    9.7011  -21.1885   19.0526 N   0  0  0  0  0  0  0  0  0  0  0  0
    9.4923  -19.0541   20.0665 C   0  0  0  0  0  0  0  0  0  0  0  0
   10.3856  -18.6048   19.2679 O   0  0  0  0  0  0  0  0  0  0  0  0
    8.6672  -18.0335   20.6589 N   0  0  0  0  0  0  0  0  0  0  0  0
    8.9128  -16.6281   20.3593 C   0  0  1  0  0  0  0  0  0  0  0  0
    7.5775  -15.9438   20.6400 C   0  0  0  0  0  0  0  0  0  0  0  0
    7.6271  -14.4737   20.5115 C   0  0  0  0  0  0  0  0  0  0  0  0
    7.1624  -13.6341   21.5001 C   0  0  0  0  0  0  0  0  0  0  0  0
    7.2222  -12.2392   21.3963 C   0  0  0  0  0  0  0  0  0  0  0  0
    7.7647  -11.6819   20.2679 C   0  0  0  0  0  0  0  0  0  0  0  0
    8.2347  -12.4927   19.2684 C   0  0  0  0  0  0  0  0  0  0  0  0
    8.1689  -13.8737   19.3838 C   0  0  0  0  0  0  0  0  0  0  0  0
    9.9369  -16.0629   21.2474 C   0  0  0  0  0  0  0  0  0  0  0  0
   10.4721  -14.9586   20.8963 O   0  0  0  0  0  0  0  0  0  0  0  0
   10.3658  -16.6592   22.4659 N   0  0  0  0  0  0  0  0  0  0  0  0
    9.8653  -16.1398   23.7416 C   0  0  1  0  0  0  0  0  0  0  0  0
    8.4221  -15.7620   23.5118 C   0  0  0  0  0  0  0  0  0  0  0  0
    7.6906  -15.3635   24.7101 C   0  0  0  0  0  0  0  0  0  0  0  0
    6.9381  -16.1591   25.5664 C   0  0  0  0  0  0  0  0  0  0  0  0
    6.4397  -15.3730   26.5330 N   0  0  0  0  0  0  0  0  0  0  0  0
    6.8412  -14.1052   26.3336 C   0  0  0  0  0  0  0  0  0  0  0  0
    6.6363  -12.9117   27.0196 C   0  0  0  0  0  0  0  0  0  0  0  0
    7.1918  -11.7262   26.5930 C   0  0  0  0  0  0  0  0  0  0  0  0
    7.9792  -11.6761   25.4589 C   0  0  0  0  0  0  0  0  0  0  0  0
    8.1766  -12.8623   24.7847 C   0  0  0  0  0  0  0  0  0  0  0  0
    7.6260  -14.0624   25.2003 C   0  0  0  0  0  0  0  0  0  0  0  0
   10.0989  -17.0742   24.8304 C   0  0  0  0  0  0  0  0  0  0  0  0
   10.0310  -18.4793   24.6467 O   0  0  0  0  0  0  0  0  0  0  0  0
   10.3764  -16.7355   26.0056 O   0  0  0  0  0  0  0  0  0  0  0  0
  2  1  1  0
  3  2  1  0
  3  4  1  6
  5  3  1  0
  5  6  1  6
  7  5  1  0
  8  7  2  0
  9  7  1  0
 10  9  1  0
 11 12  1  0
 10 11  1  1
 12 13  2  0
 13 14  1  0
 15 14  2  0
 16 15  1  0
 17 16  2  0
 17 12  1  0
 18 10  1  0
 18 19  2  0
 20 18  1  0
 21 20  1  0
 21 22  1  6
 23 22  1  0
 23 31  1  0
 24 23  2  0
 25 24  1  0
 25 26  1  0
 26 27  1  0
 26 31  2  0
 27 28  2  0
 28 29  1  0
 30 29  2  0
 31 30  1  0
 32 21  1  0
 33 32  1  0
 34 32  2  0
M  END
$$$$
