IFW.pdb
     RDKit          3D

 34 36  0  0  1  0  0  0  0  0999 V2000
   11.5820  -19.7555   16.9303 C   0  0  0  0  0  0  0  0  0  0  0  0
   10.5196  -18.7037   17.0214 C   0  0  0  0  0  0  0  0  0  0  0  0
   10.4934  -18.1342   18.4108 C   0  0  2  0  0  0  0  0  0  0  0  0
   10.3084  -19.2015   19.4480 C   0  0  0  0  0  0  0  0  0  0  0  0
    9.4127  -17.0664   18.4743 C   0  0  2  0  0  0  0  0  0  0  0  0
    9.7434  -16.0473   17.4494 N   0  0  0  0  0  0  0  0  0  0  0  0
    9.3286  -16.3818   19.7610 C   0  0  0  0  0  0  0  0  0  0  0  0
   10.2936  -15.6526   20.1790 O   0  0  0  0  0  0  0  0  0  0  0  0
    8.2060  -16.4426   20.6607 N   0  0  0  0  0  0  0  0  0  0  0  0
    8.2886  -15.8225   21.9774 C   0  0  1  0  0  0  0  0  0  0  0  0
    6.8486  -15.4335   22.3019 C   0  0  0  0  0  0  0  0  0  0  0  0
    6.6811  -14.8554   23.6502 C   0  0  0  0  0  0  0  0  0  0  0  0
    6.1780  -15.5853   24.7048 C   0  0  0  0  0  0  0  0  0  0  0  0
    6.0329  -15.0525   25.9913 C   0  0  0  0  0  0  0  0  0  0  0  0
    6.4057  -13.7529   26.2156 C   0  0  0  0  0  0  0  0  0  0  0  0
    6.9092  -13.0031   25.1851 C   0  0  0  0  0  0  0  0  0  0  0  0
    7.0473  -13.5435   23.9148 C   0  0  0  0  0  0  0  0  0  0  0  0
    8.7670  -16.7747   22.9880 C   0  0  0  0  0  0  0  0  0  0  0  0
    8.2630  -17.9472   22.9733 O   0  0  0  0  0  0  0  0  0  0  0  0
    9.7504  -16.4791   23.9729 N   0  0  0  0  0  0  0  0  0  0  0  0
   10.2920  -17.5594   24.8021 C   0  0  1  0  0  0  0  0  0  0  0  0
   11.5021  -16.9928   25.5042 C   0  0  0  0  0  0  0  0  0  0  0  0
   11.2667  -16.5424   26.8722 C   0  0  0  0  0  0  0  0  0  0  0  0
   10.9988  -17.3105   27.9996 C   0  0  0  0  0  0  0  0  0  0  0  0
   10.8453  -16.4790   29.0417 N   0  0  0  0  0  0  0  0  0  0  0  0
   11.0039  -15.2084   28.6307 C   0  0  0  0  0  0  0  0  0  0  0  0
   10.9660  -13.9762   29.2767 C   0  0  0  0  0  0  0  0  0  0  0  0
   11.1840  -12.7968   28.6005 C   0  0  0  0  0  0  0  0  0  0  0  0
   11.4501  -12.7916   27.2449 C   0  0  0  0  0  0  0  0  0  0  0  0
   11.4850  -14.0160   26.6124 C   0  0  0  0  0  0  0  0  0  0  0  0
   11.2686  -15.2108   27.2772 C   0  0  0  0  0  0  0  0  0  0  0  0
    9.2763  -18.1286   25.6726 C   0  0  0  0  0  0  0  0  0  0  0  0
    9.3739  -19.4484   26.1838 O   0  0  0  0  0  0  0  0  0  0  0  0
    8.2439  -17.5221   26.0453 O   0  0  0  0  0  0  0  0  0  0  0  0
  2  1  1  0
  3  2  1  0
  3  4  1  1
  5  3  1  0
  5  6  1  6
  7  5  1  0
  8  7  2  0
  9  7  1  0
 10  9  1  0
 11 12  1  0
 10 11  1  1
 12 13  2  0
 13 14  1  0
 15 14  2  0
 16 15  1  0
 17 16  2  0
 17 12  1  0
 18 10  1  0
 18 19  2  0
 20 18  1  0
 21 20  1  0
 21 22  1  1
 23 22  1  0
 23 31  1  0
 24 23  2  0
 25 24  1  0
 25 26  1  0
 26 27  1  0
 26 31  2  0
 27 28  2  0
 28 29  1  0
 30 29  2  0
 31 30  1  0
 32 21  1  0
 33 32  1  0
 34 32  2  0
M  END
$$$$
