IFW.pdb
     RDKit          3D

 34 36  0  0  1  0  0  0  0  0999 V2000
    7.9550  -17.1133   17.0985 C   0  0  0  0  0  0  0  0  0  0  0  0
    8.1633  -17.3011   18.5698 C   0  0  0  0  0  0  0  0  0  0  0  0
    9.3199  -18.2311   18.7994 C   0  0  2  0  0  0  0  0  0  0  0  0
    9.0810  -19.5800   18.1890 C   0  0  0  0  0  0  0  0  0  0  0  0
    9.5885  -18.3073   20.2941 C   0  0  2  0  0  0  0  0  0  0  0  0
    8.3723  -18.8691   20.9294 N   0  0  0  0  0  0  0  0  0  0  0  0
    9.8501  -17.0134   20.9176 C   0  0  0  0  0  0  0  0  0  0  0  0
   10.8626  -16.3121   20.5704 O   0  0  0  0  0  0  0  0  0  0  0  0
    9.0383  -16.4069   21.9406 N   0  0  0  0  0  0  0  0  0  0  0  0
    9.4783  -15.1793   22.5923 C   0  0  1  0  0  0  0  0  0  0  0  0
    8.2300  -14.3014   22.6247 C   0  0  0  0  0  0  0  0  0  0  0  0
    7.7554  -13.8976   21.2862 C   0  0  0  0  0  0  0  0  0  0  0  0
    8.2875  -12.8198   20.6128 C   0  0  0  0  0  0  0  0  0  0  0  0
    7.8579  -12.4400   19.3355 C   0  0  0  0  0  0  0  0  0  0  0  0
    6.8688  -13.1671   18.7263 C   0  0  0  0  0  0  0  0  0  0  0  0
    6.3211  -14.2441   19.3727 C   0  0  0  0  0  0  0  0  0  0  0  0
    6.7559  -14.6093   20.6385 C   0  0  0  0  0  0  0  0  0  0  0  0
    9.9209  -15.4339   23.9694 C   0  0  0  0  0  0  0  0  0  0  0  0
   10.5676  -14.5043   24.5582 O   0  0  0  0  0  0  0  0  0  0  0  0
    9.6751  -16.6383   24.6858 N   0  0  0  0  0  0  0  0  0  0  0  0
   10.2555  -16.8187   26.0194 C   0  0  1  0  0  0  0  0  0  0  0  0
    9.0983  -16.8492   26.9880 C   0  0  0  0  0  0  0  0  0  0  0  0
    8.0012  -15.9421   26.6669 C   0  0  0  0  0  0  0  0  0  0  0  0
    6.7922  -16.2355   26.0464 C   0  0  0  0  0  0  0  0  0  0  0  0
    6.0886  -15.0970   25.9486 N   0  0  0  0  0  0  0  0  0  0  0  0
    6.7950  -14.0842   26.4812 C   0  0  0  0  0  0  0  0  0  0  0  0
    6.5482  -12.7256   26.6548 C   0  0  0  0  0  0  0  0  0  0  0  0
    7.4632  -11.8948   27.2617 C   0  0  0  0  0  0  0  0  0  0  0  0
    8.6704  -12.3819   27.7243 C   0  0  0  0  0  0  0  0  0  0  0  0
    8.9075  -13.7284   27.5477 C   0  0  0  0  0  0  0  0  0  0  0  0
    7.9984  -14.5773   26.9403 C   0  0  0  0  0  0  0  0  0  0  0  0
   11.1397  -17.9715   26.0685 C   0  0  0  0  0  0  0  0  0  0  0  0
   11.9392  -18.2615   27.2041 O   0  0  0  0  0  0  0  0  0  0  0  0
   11.2757  -18.7985   25.1357 O   0  0  0  0  0  0  0  0  0  0  0  0
  2  1  1  0
  3  2  1  0
  3  4  1  1
  5  3  1  0
  5  6  1  1
  7  5  1  0
  8  7  2  0
  9  7  1  0
 10  9  1  0
 11 12  1  0
 10 11  1  1
 12 13  2  0
 13 14  1  0
 15 14  2  0
 16 15  1  0
 17 16  2  0
 17 12  1  0
 18 10  1  0
 18 19  2  0
 20 18  1  0
 21 20  1  0
 21 22  1  1
 23 22  1  0
 23 31  1  0
 24 23  2  0
 25 24  1  0
 25 26  1  0
 26 27  1  0
 26 31  2  0
 27 28  2  0
 28 29  1  0
 30 29  2  0
 31 30  1  0
 32 21  1  0
 33 32  1  0
 34 32  2  0
M  END
$$$$
