IFW.pdb
     RDKit          3D

 34 36  0  0  1  0  0  0  0  0999 V2000
   13.0035  -18.5121   16.8765 C   0  0  0  0  0  0  0  0  0  0  0  0
   11.5606  -18.6122   17.2657 C   0  0  0  0  0  0  0  0  0  0  0  0
   11.3266  -17.8402   18.5324 C   0  0  2  0  0  0  0  0  0  0  0  0
   12.2570  -18.2695   19.6275 C   0  0  0  0  0  0  0  0  0  0  0  0
    9.8636  -17.9833   18.9215 C   0  0  2  0  0  0  0  0  0  0  0  0
    9.0575  -17.4463   17.7989 N   0  0  0  0  0  0  0  0  0  0  0  0
    9.4924  -17.2398   20.1218 C   0  0  0  0  0  0  0  0  0  0  0  0
    9.6154  -15.9669   20.1677 O   0  0  0  0  0  0  0  0  0  0  0  0
    8.9686  -17.8232   21.3295 N   0  0  0  0  0  0  0  0  0  0  0  0
    8.6762  -16.9805   22.4826 C   0  0  1  0  0  0  0  0  0  0  0  0
    7.3534  -17.5215   23.0191 C   0  0  0  0  0  0  0  0  0  0  0  0
    6.9466  -16.9214   24.3053 C   0  0  0  0  0  0  0  0  0  0  0  0
    7.2041  -17.5308   25.5139 C   0  0  0  0  0  0  0  0  0  0  0  0
    6.8395  -16.9613   26.7399 C   0  0  0  0  0  0  0  0  0  0  0  0
    6.2012  -15.7486   26.7428 C   0  0  0  0  0  0  0  0  0  0  0  0
    5.9322  -15.1196   25.5556 C   0  0  0  0  0  0  0  0  0  0  0  0
    6.2985  -15.6953   24.3477 C   0  0  0  0  0  0  0  0  0  0  0  0
    9.7062  -17.1178   23.5204 C   0  0  0  0  0  0  0  0  0  0  0  0
   10.3309  -18.2291   23.5825 O   0  0  0  0  0  0  0  0  0  0  0  0
   10.0531  -16.0998   24.4519 N   0  0  0  0  0  0  0  0  0  0  0  0
   11.2097  -16.2877   25.3323 C   0  0  1  0  0  0  0  0  0  0  0  0
   11.3616  -15.0070   26.1165 C   0  0  0  0  0  0  0  0  0  0  0  0
   10.1611  -14.5693   26.8212 C   0  0  0  0  0  0  0  0  0  0  0  0
    9.7878  -14.8307   28.1346 C   0  0  0  0  0  0  0  0  0  0  0  0
    8.6058  -14.2354   28.3567 N   0  0  0  0  0  0  0  0  0  0  0  0
    8.2044  -13.6017   27.2406 C   0  0  0  0  0  0  0  0  0  0  0  0
    7.0901  -12.8324   26.9186 C   0  0  0  0  0  0  0  0  0  0  0  0
    6.9313  -12.2743   25.6700 C   0  0  0  0  0  0  0  0  0  0  0  0
    7.8789  -12.4587   24.6816 C   0  0  0  0  0  0  0  0  0  0  0  0
    8.9790  -13.2226   25.0083 C   0  0  0  0  0  0  0  0  0  0  0  0
    9.1542  -13.7902   26.2586 C   0  0  0  0  0  0  0  0  0  0  0  0
   11.0857  -17.4962   26.1307 C   0  0  0  0  0  0  0  0  0  0  0  0
   12.1501  -17.9837   26.9321 O   0  0  0  0  0  0  0  0  0  0  0  0
   10.0521  -18.2042   26.1861 O   0  0  0  0  0  0  0  0  0  0  0  0
  2  1  1  0
  3  2  1  0
  3  4  1  1
  5  3  1  0
  5  6  1  6
  7  5  1  0
  8  7  2  0
  9  7  1  0
 10  9  1  0
 11 12  1  0
 10 11  1  1
 12 13  2  0
 13 14  1  0
 15 14  2  0
 16 15  1  0
 17 16  2  0
 17 12  1  0
 18 10  1  0
 18 19  2  0
 20 18  1  0
 21 20  1  0
 21 22  1  1
 23 22  1  0
 23 31  1  0
 24 23  2  0
 25 24  1  0
 25 26  1  0
 26 27  1  0
 26 31  2  0
 27 28  2  0
 28 29  1  0
 30 29  2  0
 31 30  1  0
 32 21  1  0
 33 32  1  0
 34 32  2  0
M  END
$$$$
