IFW.pdb
     RDKit          3D

 34 36  0  0  1  0  0  0  0  0999 V2000
   10.6676  -19.8928   16.7118 C   0  0  0  0  0  0  0  0  0  0  0  0
    9.6570  -18.8378   17.0417 C   0  0  0  0  0  0  0  0  0  0  0  0
    9.9823  -18.2290   18.3754 C   0  0  2  0  0  0  0  0  0  0  0  0
   10.0001  -19.2559   19.4682 C   0  0  0  0  0  0  0  0  0  0  0  0
    8.9939  -17.1059   18.6474 C   0  0  2  0  0  0  0  0  0  0  0  0
    9.1521  -16.1106   17.5598 N   0  0  0  0  0  0  0  0  0  0  0  0
    9.2166  -16.4115   19.9120 C   0  0  0  0  0  0  0  0  0  0  0  0
   10.3219  -15.8091   20.1424 O   0  0  0  0  0  0  0  0  0  0  0  0
    8.2654  -16.3259   20.9896 N   0  0  0  0  0  0  0  0  0  0  0  0
    8.6386  -15.6892   22.2468 C   0  0  1  0  0  0  0  0  0  0  0  0
    7.3055  -15.3276   22.8965 C   0  0  0  0  0  0  0  0  0  0  0  0
    7.4474  -14.5871   24.1660 C   0  0  0  0  0  0  0  0  0  0  0  0
    6.3621  -14.0734   24.8417 C   0  0  0  0  0  0  0  0  0  0  0  0
    6.4839  -13.3863   26.0555 C   0  0  0  0  0  0  0  0  0  0  0  0
    7.7310  -13.2160   26.5976 C   0  0  0  0  0  0  0  0  0  0  0  0
    8.8285  -13.7163   25.9474 C   0  0  0  0  0  0  0  0  0  0  0  0
    8.6936  -14.3948   24.7448 C   0  0  0  0  0  0  0  0  0  0  0  0
    9.3622  -16.6193   23.1233 C   0  0  0  0  0  0  0  0  0  0  0  0
    9.0462  -17.8540   23.0557 O   0  0  0  0  0  0  0  0  0  0  0  0
   10.3870  -16.2375   24.0335 N   0  0  0  0  0  0  0  0  0  0  0  0
   11.3599  -17.2349   24.4880 C   0  0  1  0  0  0  0  0  0  0  0  0
   12.2391  -16.5427   25.5011 C   0  0  0  0  0  0  0  0  0  0  0  0
   11.6609  -16.4158   26.8350 C   0  0  0  0  0  0  0  0  0  0  0  0
   11.3670  -17.4225   27.7476 C   0  0  0  0  0  0  0  0  0  0  0  0
   10.8425  -16.8504   28.8423 N   0  0  0  0  0  0  0  0  0  0  0  0
   10.7877  -15.5177   28.6712 C   0  0  0  0  0  0  0  0  0  0  0  0
   10.3580  -14.4619   29.4697 C   0  0  0  0  0  0  0  0  0  0  0  0
   10.4293  -13.1548   29.0425 C   0  0  0  0  0  0  0  0  0  0  0  0
   10.9333  -12.8396   27.7954 C   0  0  0  0  0  0  0  0  0  0  0  0
   11.3559  -13.8911   27.0104 C   0  0  0  0  0  0  0  0  0  0  0  0
   11.2917  -15.2104   27.4248 C   0  0  0  0  0  0  0  0  0  0  0  0
   10.7077  -18.4475   24.9543 C   0  0  0  0  0  0  0  0  0  0  0  0
    9.3469  -18.4661   25.3551 O   0  0  0  0  0  0  0  0  0  0  0  0
   11.2715  -19.5641   25.0435 O   0  0  0  0  0  0  0  0  0  0  0  0
  2  1  1  0
  3  2  1  0
  3  4  1  1
  5  3  1  0
  5  6  1  6
  7  5  1  0
  8  7  2  0
  9  7  1  0
 10  9  1  0
 11 12  1  0
 10 11  1  1
 12 13  2  0
 13 14  1  0
 15 14  2  0
 16 15  1  0
 17 16  2  0
 17 12  1  0
 18 10  1  0
 18 19  2  0
 20 18  1  0
 21 20  1  0
 21 22  1  1
 23 22  1  0
 23 31  1  0
 24 23  2  0
 25 24  1  0
 25 26  1  0
 26 27  1  0
 26 31  2  0
 27 28  2  0
 28 29  1  0
 30 29  2  0
 31 30  1  0
 32 21  1  0
 33 32  1  0
 34 32  2  0
M  END
$$$$
