IFW.pdb
     RDKit          3D

 34 36  0  0  1  0  0  0  0  0999 V2000
    7.1295  -12.3223   17.6463 C   0  0  0  0  0  0  0  0  0  0  0  0
    7.5838  -13.5476   18.3780 C   0  0  0  0  0  0  0  0  0  0  0  0
    8.5739  -14.2988   17.5349 C   0  0  2  0  0  0  0  0  0  0  0  0
    8.0020  -14.6687   16.1988 C   0  0  0  0  0  0  0  0  0  0  0  0
    9.0542  -15.5102   18.3186 C   0  0  2  0  0  0  0  0  0  0  0  0
    7.9863  -16.5355   18.2376 N   0  0  0  0  0  0  0  0  0  0  0  0
    9.2991  -15.2440   19.7330 C   0  0  0  0  0  0  0  0  0  0  0  0
   10.3100  -14.5524   20.1036 O   0  0  0  0  0  0  0  0  0  0  0  0
    8.4716  -15.7028   20.8183 N   0  0  0  0  0  0  0  0  0  0  0  0
    8.8277  -15.3846   22.1957 C   0  0  1  0  0  0  0  0  0  0  0  0
    7.5137  -14.9380   22.8313 C   0  0  0  0  0  0  0  0  0  0  0  0
    7.6832  -14.2866   24.1455 C   0  0  0  0  0  0  0  0  0  0  0  0
    7.3924  -14.9317   25.3277 C   0  0  0  0  0  0  0  0  0  0  0  0
    7.5674  -14.3298   26.5796 C   0  0  0  0  0  0  0  0  0  0  0  0
    8.0479  -13.0475   26.6363 C   0  0  0  0  0  0  0  0  0  0  0  0
    8.3455  -12.3816   25.4763 C   0  0  0  0  0  0  0  0  0  0  0  0
    8.1669  -12.9898   24.2422 C   0  0  0  0  0  0  0  0  0  0  0  0
    9.3256  -16.5693   22.9067 C   0  0  0  0  0  0  0  0  0  0  0  0
    8.5155  -17.5433   23.0614 O   0  0  0  0  0  0  0  0  0  0  0  0
   10.6430  -16.7028   23.4275 N   0  0  0  0  0  0  0  0  0  0  0  0
   10.8342  -17.1861   24.7978 C   0  0  1  0  0  0  0  0  0  0  0  0
   10.1441  -16.1928   25.7009 C   0  0  0  0  0  0  0  0  0  0  0  0
   10.0513  -16.5933   27.1011 C   0  0  0  0  0  0  0  0  0  0  0  0
   10.1013  -17.8750   27.6373 C   0  0  0  0  0  0  0  0  0  0  0  0
    9.9705  -17.7734   28.9690 N   0  0  0  0  0  0  0  0  0  0  0  0
    9.8390  -16.4795   29.3108 C   0  0  0  0  0  0  0  0  0  0  0  0
    9.6888  -15.8153   30.5247 C   0  0  0  0  0  0  0  0  0  0  0  0
    9.5894  -14.4436   30.5924 C   0  0  0  0  0  0  0  0  0  0  0  0
    9.6347  -13.6688   29.4495 C   0  0  0  0  0  0  0  0  0  0  0  0
    9.7828  -14.3344   28.2513 C   0  0  0  0  0  0  0  0  0  0  0  0
    9.8847  -15.7123   28.1657 C   0  0  0  0  0  0  0  0  0  0  0  0
   10.4028  -18.5665   24.9452 C   0  0  0  0  0  0  0  0  0  0  0  0
   11.2333  -19.5586   25.5273 O   0  0  0  0  0  0  0  0  0  0  0  0
    9.2838  -19.0002   24.5815 O   0  0  0  0  0  0  0  0  0  0  0  0
  2  1  1  0
  3  2  1  0
  3  4  1  6
  5  3  1  0
  5  6  1  1
  7  5  1  0
  8  7  2  0
  9  7  1  0
 10  9  1  0
 11 12  1  0
 10 11  1  1
 12 13  2  0
 13 14  1  0
 15 14  2  0
 16 15  1  0
 17 16  2  0
 17 12  1  0
 18 10  1  0
 18 19  2  0
 20 18  1  0
 21 20  1  0
 21 22  1  1
 23 22  1  0
 23 31  1  0
 24 23  2  0
 25 24  1  0
 25 26  1  0
 26 27  1  0
 26 31  2  0
 27 28  2  0
 28 29  1  0
 30 29  2  0
 31 30  1  0
 32 21  1  0
 33 32  1  0
 34 32  2  0
M  END
$$$$
