PRL.pdb
     RDKit          3D

 27 27  0  0  1  0  0  0  0  0999 V2000
   19.4158  -13.8913  -18.8639 N   0  0  0  0  0  0  0  0  0  0  0  0
   19.4894  -15.3273  -19.0718 C   0  0  0  0  0  0  0  0  0  0  0  0
   20.8815  -15.4911  -19.6424 C   0  0  0  0  0  0  0  0  0  0  0  0
   21.6504  -14.3582  -18.9985 C   0  0  0  0  0  0  0  0  0  0  0  0
   20.6161  -13.6288  -18.1358 C   0  0  1  0  0  0  0  0  0  0  0  0
   20.9688  -12.1979  -18.0528 C   0  0  0  0  0  0  0  0  0  0  0  0
   21.9992  -11.9139  -17.3633 O   0  0  0  0  0  0  0  0  0  0  0  0
   17.4256   -6.4406  -18.7720 N   0  0  0  0  0  0  0  0  0  0  0  0
   18.1987   -5.2953  -19.0613 C   0  0  0  0  0  0  0  0  0  0  0  0
   17.8560   -4.1613  -18.5700 N   0  0  0  0  0  0  0  0  0  0  0  0
   19.3520   -5.4057  -19.8953 N   0  0  0  0  0  0  0  0  0  0  0  0
   19.7115   -6.6720  -20.5037 C   0  0  0  0  0  0  0  0  0  0  0  0
   20.5303   -7.4890  -19.4932 C   0  0  0  0  0  0  0  0  0  0  0  0
   19.9576   -8.8749  -19.5095 C   0  0  0  0  0  0  0  0  0  0  0  0
   20.6227   -9.8248  -18.5637 C   0  0  2  0  0  0  0  0  0  0  0  0
   20.2167  -11.1792  -18.6966 N   0  0  0  0  0  0  0  0  0  0  0  0
   20.3344   -9.3472  -17.1874 C   0  0  0  0  0  0  0  0  0  0  0  0
   19.3988   -9.8558  -16.5541 O   0  0  0  0  0  0  0  0  0  0  0  0
   18.3964   -3.3216  -18.7998 C   0  0  0  0  0  0  0  0  0  0  0  0
   22.5322  -10.1918  -12.3018 C   0  0  1  0  0  0  0  0  0  0  0  0
   21.6537   -9.1525  -12.9387 C   0  0  0  0  0  0  0  0  0  0  0  0
   20.2160   -9.2596  -12.4430 C   0  0  0  0  0  0  0  0  0  0  0  0
   21.6134   -9.3004  -14.4288 C   0  0  2  0  0  0  0  0  0  0  0  0
   21.0785   -8.0827  -15.1307 N   0  0  0  0  0  0  0  0  0  0  0  0
   21.0989   -8.3201  -16.5655 C   0  0  0  0  0  0  0  0  0  0  0  0
   21.9880   -6.9450  -14.7596 O   0  0  0  0  0  0  0  0  0  0  0  0
   21.7963   -6.3180  -13.5574 O   0  0  0  0  0  0  0  0  0  0  0  0
  1  2  1  0
  2  3  1  0
  4  3  1  0
  5  1  1  0
  5  4  1  0
  5  6  1  6
  7  6  2  0
  9 10  2  0
  9  8  1  0
 11  9  1  0
 12 11  1  0
 13 12  1  0
 14 13  1  0
 15 14  1  6
 15 16  1  0
 16  6  1  0
 17 15  1  0
 18 17  2  0
 20 19  1  1
 20 21  1  0
 22 20  1  0
 23 22  1  1
 23 24  1  0
 24 17  1  0
 25 26  1  0
 25 23  1  0
 27 25  2  0
M  END
$$$$
