PRL.pdb
     RDKit          3D

 27 27  0  0  1  0  0  0  0  0999 V2000
   28.3287  -21.2242  -14.5654 N   0  0  0  0  0  0  0  0  0  0  0  0
   28.7997  -21.2593  -15.9393 C   0  0  0  0  0  0  0  0  0  0  0  0
   27.9800  -20.1604  -16.5805 C   0  0  0  0  0  0  0  0  0  0  0  0
   27.7583  -19.1900  -15.4409 C   0  0  0  0  0  0  0  0  0  0  0  0
   28.4506  -19.8392  -14.2387 C   0  0  1  0  0  0  0  0  0  0  0  0
   27.7492  -19.4491  -12.9999 C   0  0  0  0  0  0  0  0  0  0  0  0
   27.4369  -18.2205  -12.8959 O   0  0  0  0  0  0  0  0  0  0  0  0
   21.2758  -18.6385  -13.1980 N   0  0  0  0  0  0  0  0  0  0  0  0
   20.7185  -19.4294  -12.1699 C   0  0  0  0  0  0  0  0  0  0  0  0
   19.6773  -19.0135  -11.5471 N   0  0  0  0  0  0  0  0  0  0  0  0
   21.3145  -20.6814  -11.8311 N   0  0  0  0  0  0  0  0  0  0  0  0
   22.6437  -21.0233  -12.2992 C   0  0  0  0  0  0  0  0  0  0  0  0
   23.6750  -20.2639  -11.4515 C   0  0  0  0  0  0  0  0  0  0  0  0
   24.9823  -20.3769  -12.1774 C   0  0  0  0  0  0  0  0  0  0  0  0
   26.1857  -20.2630  -11.2953 C   0  0  2  0  0  0  0  0  0  0  0  0
   27.4306  -20.3739  -11.9697 N   0  0  0  0  0  0  0  0  0  0  0  0
   26.0766  -21.3267  -10.2649 C   0  0  0  0  0  0  0  0  0  0  0  0
   26.5709  -22.4403  -10.4902 O   0  0  0  0  0  0  0  0  0  0  0  0
   19.2035  -19.6285  -10.8783 C   0  0  0  0  0  0  0  0  0  0  0  0
   28.0939  -18.7080   -5.8542 C   0  0  1  0  0  0  0  0  0  0  0  0
   27.8932  -20.1052   -6.3691 C   0  0  0  0  0  0  0  0  0  0  0  0
   29.2255  -20.8006   -6.6252 C   0  0  0  0  0  0  0  0  0  0  0  0
   27.1404  -20.1143   -7.6642 C   0  0  2  0  0  0  0  0  0  0  0  0
   26.1081  -21.2051   -7.7416 N   0  0  0  0  0  0  0  0  0  0  0  0
   25.4207  -21.1121   -9.0200 C   0  0  0  0  0  0  0  0  0  0  0  0
   25.1580  -20.9724   -6.6004 O   0  0  0  0  0  0  0  0  0  0  0  0
   23.8978  -20.5152   -6.8798 O   0  0  0  0  0  0  0  0  0  0  0  0
  1  2  1  0
  2  3  1  0
  4  3  1  0
  5  1  1  0
  5  4  1  0
  5  6  1  1
  7  6  2  0
  9 10  2  0
  9  8  1  0
 11  9  1  0
 12 11  1  0
 13 12  1  0
 14 13  1  0
 15 14  1  6
 15 16  1  0
 16  6  1  0
 17 15  1  0
 18 17  2  0
 20 19  1  1
 20 21  1  0
 22 20  1  0
 23 22  1  6
 23 24  1  0
 24 17  1  0
 25 26  1  0
 25 23  1  0
 27 25  2  0
M  END
$$$$
