PRL.pdb
     RDKit          3D

 27 27  0  0  1  0  0  0  0  0999 V2000
   28.1769  -22.2200  -16.3970 N   0  0  0  0  0  0  0  0  0  0  0  0
   29.4248  -22.8298  -16.8230 C   0  0  0  0  0  0  0  0  0  0  0  0
   29.2378  -22.9131  -18.3225 C   0  0  0  0  0  0  0  0  0  0  0  0
   28.3502  -21.7251  -18.6229 C   0  0  0  0  0  0  0  0  0  0  0  0
   28.0859  -21.0837  -17.2574 C   0  0  1  0  0  0  0  0  0  0  0  0
   26.7570  -20.4410  -17.2669 C   0  0  0  0  0  0  0  0  0  0  0  0
   26.6282  -19.4318  -18.0303 O   0  0  0  0  0  0  0  0  0  0  0  0
   22.6339  -25.6165  -15.6414 N   0  0  0  0  0  0  0  0  0  0  0  0
   22.8406  -25.3213  -14.2764 C   0  0  0  0  0  0  0  0  0  0  0  0
   23.1376  -26.2678  -13.4635 N   0  0  0  0  0  0  0  0  0  0  0  0
   22.7182  -23.9773  -13.8113 N   0  0  0  0  0  0  0  0  0  0  0  0
   22.3827  -22.9018  -14.7243 C   0  0  0  0  0  0  0  0  0  0  0  0
   23.6797  -22.2066  -15.1641 C   0  0  0  0  0  0  0  0  0  0  0  0
   23.2653  -21.0247  -15.9889 C   0  0  0  0  0  0  0  0  0  0  0  0
   24.4061  -20.2672  -16.5922 C   0  0  2  0  0  0  0  0  0  0  0  0
   25.6702  -20.9044  -16.4783 N   0  0  0  0  0  0  0  0  0  0  0  0
   24.4514  -18.9398  -15.9279 C   0  0  0  0  0  0  0  0  0  0  0  0
   24.8649  -18.8602  -14.7626 O   0  0  0  0  0  0  0  0  0  0  0  0
   23.1900  -26.0786  -12.4578 C   0  0  0  0  0  0  0  0  0  0  0  0
   26.2455  -13.4353  -17.0232 C   0  0  1  0  0  0  0  0  0  0  0  0
   25.4384  -14.2931  -16.0903 C   0  0  0  0  0  0  0  0  0  0  0  0
   26.1121  -14.4206  -14.7286 C   0  0  0  0  0  0  0  0  0  0  0  0
   25.2681  -15.6822  -16.6244 C   0  0  2  0  0  0  0  0  0  0  0  0
   24.1396  -16.4331  -15.9731 N   0  0  0  0  0  0  0  0  0  0  0  0
   24.0347  -17.7482  -16.5855 C   0  0  0  0  0  0  0  0  0  0  0  0
   22.8959  -15.6247  -16.2156 O   0  0  0  0  0  0  0  0  0  0  0  0
   22.5642  -14.6468  -15.3162 O   0  0  0  0  0  0  0  0  0  0  0  0
  1  2  1  0
  2  3  1  0
  4  3  1  0
  5  1  1  0
  5  4  1  0
  5  6  1  6
  7  6  2  0
  9 10  2  0
  9  8  1  0
 11  9  1  0
 12 11  1  0
 13 12  1  0
 14 13  1  0
 15 14  1  1
 15 16  1  0
 16  6  1  0
 17 15  1  0
 18 17  2  0
 20 19  1  1
 20 21  1  0
 22 20  1  0
 23 22  1  1
 23 24  1  0
 24 17  1  0
 25 26  1  0
 25 23  1  0
 27 25  2  0
M  END
$$$$
