PRL.pdb
     RDKit          3D

 27 27  0  0  1  0  0  0  0  0999 V2000
   29.1753  -14.5228  -18.5174 N   0  0  0  0  0  0  0  0  0  0  0  0
   29.0543  -15.9392  -18.8173 C   0  0  0  0  0  0  0  0  0  0  0  0
   30.0121  -16.0973  -19.9783 C   0  0  0  0  0  0  0  0  0  0  0  0
   31.0609  -15.0421  -19.7025 C   0  0  0  0  0  0  0  0  0  0  0  0
   30.5900  -14.3542  -18.4176 C   0  0  1  0  0  0  0  0  0  0  0  0
   31.0302  -12.9452  -18.4266 C   0  0  0  0  0  0  0  0  0  0  0  0
   32.2823  -12.7487  -18.3204 O   0  0  0  0  0  0  0  0  0  0  0  0
   29.4029   -5.3195  -18.8518 N   0  0  0  0  0  0  0  0  0  0  0  0
   29.7250   -5.1924  -20.2205 C   0  0  0  0  0  0  0  0  0  0  0  0
   30.1854   -4.0790  -20.6602 N   0  0  0  0  0  0  0  0  0  0  0  0
   29.5372   -6.2987  -21.1027 N   0  0  0  0  0  0  0  0  0  0  0  0
   29.0327   -7.5658  -20.6100 C   0  0  0  0  0  0  0  0  0  0  0  0
   30.1876   -8.3317  -19.9478 C   0  0  0  0  0  0  0  0  0  0  0  0
   29.6431   -9.6798  -19.5805 C   0  0  0  0  0  0  0  0  0  0  0  0
   30.6267  -10.5714  -18.8899 C   0  0  2  0  0  0  0  0  0  0  0  0
   30.1268  -11.8554  -18.5458 N   0  0  0  0  0  0  0  0  0  0  0  0
   31.0762   -9.8629  -17.6647 C   0  0  0  0  0  0  0  0  0  0  0  0
   30.3710   -9.9074  -16.6469 O   0  0  0  0  0  0  0  0  0  0  0  0
   30.3748   -3.9650  -21.6608 C   0  0  0  0  0  0  0  0  0  0  0  0
   35.0325   -7.0972  -14.9242 C   0  0  1  0  0  0  0  0  0  0  0  0
   34.7445   -8.5679  -14.8168 C   0  0  0  0  0  0  0  0  0  0  0  0
   36.0159   -9.3660  -14.5504 C   0  0  0  0  0  0  0  0  0  0  0  0
   34.1471   -9.1080  -16.0799 C   0  0  2  0  0  0  0  0  0  0  0  0
   32.7998   -8.5197  -16.3967 N   0  0  0  0  0  0  0  0  0  0  0  0
   32.2955   -9.1300  -17.6168 C   0  0  0  0  0  0  0  0  0  0  0  0
   33.0139   -7.0434  -16.5809 O   0  0  0  0  0  0  0  0  0  0  0  0
   32.8129   -6.2135  -15.5105 O   0  0  0  0  0  0  0  0  0  0  0  0
  1  2  1  0
  2  3  1  0
  4  3  1  0
  5  1  1  0
  5  4  1  0
  5  6  1  6
  7  6  2  0
  9 10  2  0
  9  8  1  0
 11  9  1  0
 12 11  1  0
 13 12  1  0
 14 13  1  0
 15 14  1  1
 15 16  1  0
 16  6  1  0
 17 15  1  0
 18 17  2  0
 20 19  1  1
 20 21  1  0
 22 20  1  0
 23 22  1  1
 23 24  1  0
 24 17  1  0
 25 26  1  0
 25 23  1  0
 27 25  2  0
M  END
$$$$
