PRL.pdb
     RDKit          3D

 27 27  0  0  1  0  0  0  0  0999 V2000
   25.5537  -36.8230  -16.2703 N   0  0  0  0  0  0  0  0  0  0  0  0
   25.3419  -38.1517  -15.7221 C   0  0  0  0  0  0  0  0  0  0  0  0
   25.7262  -37.9578  -14.2712 C   0  0  0  0  0  0  0  0  0  0  0  0
   25.3662  -36.5111  -14.0126 C   0  0  0  0  0  0  0  0  0  0  0  0
   24.8325  -35.9987  -15.3538 C   0  0  1  0  0  0  0  0  0  0  0  0
   25.1270  -34.5578  -15.4802 C   0  0  0  0  0  0  0  0  0  0  0  0
   24.5797  -33.7965  -14.6208 O   0  0  0  0  0  0  0  0  0  0  0  0
   32.3878  -30.6479  -17.1577 N   0  0  0  0  0  0  0  0  0  0  0  0
   31.8349  -31.8566  -17.6337 C   0  0  0  0  0  0  0  0  0  0  0  0
   32.4180  -32.4855  -18.5873 N   0  0  0  0  0  0  0  0  0  0  0  0
   30.6355  -32.3690  -17.0536 N   0  0  0  0  0  0  0  0  0  0  0  0
   30.0234  -31.7165  -15.9123 C   0  0  0  0  0  0  0  0  0  0  0  0
   28.7609  -32.4969  -15.5175 C   0  0  0  0  0  0  0  0  0  0  0  0
   27.8597  -32.4743  -16.7159 C   0  0  0  0  0  0  0  0  0  0  0  0
   26.4121  -32.6825  -16.3989 C   0  0  2  0  0  0  0  0  0  0  0  0
   25.9696  -34.0286  -16.4941 N   0  0  0  0  0  0  0  0  0  0  0  0
   25.6318  -31.8304  -17.3318 C   0  0  0  0  0  0  0  0  0  0  0  0
   25.3878  -32.2484  -18.4725 O   0  0  0  0  0  0  0  0  0  0  0  0
   32.0762  -33.4081  -18.8737 C   0  0  0  0  0  0  0  0  0  0  0  0
   21.5411  -30.3930  -17.9263 C   0  0  1  0  0  0  0  0  0  0  0  0
   22.2167  -29.7880  -16.7282 C   0  0  0  0  0  0  0  0  0  0  0  0
   21.2585  -28.9064  -15.9352 C   0  0  0  0  0  0  0  0  0  0  0  0
   23.3762  -28.9261  -17.1239 C   0  0  2  0  0  0  0  0  0  0  0  0
   24.4378  -29.6733  -17.8830 N   0  0  0  0  0  0  0  0  0  0  0  0
   25.1509  -30.5431  -16.9609 C   0  0  0  0  0  0  0  0  0  0  0  0
   25.3558  -28.6341  -18.4631 O   0  0  0  0  0  0  0  0  0  0  0  0
   24.8583  -27.7714  -19.4030 O   0  0  0  0  0  0  0  0  0  0  0  0
  1  2  1  0
  2  3  1  0
  4  3  1  0
  5  1  1  0
  5  4  1  0
  5  6  1  6
  7  6  2  0
  9 10  2  0
  9  8  1  0
 11  9  1  0
 12 11  1  0
 13 12  1  0
 14 13  1  0
 15 14  1  6
 15 16  1  0
 16  6  1  0
 17 15  1  0
 18 17  2  0
 20 19  1  1
 20 21  1  0
 22 20  1  0
 23 22  1  6
 23 24  1  0
 24 17  1  0
 25 26  1  0
 25 23  1  0
 27 25  2  0
M  END
$$$$
