PRL.pdb
     RDKit          3D

 27 27  0  0  1  0  0  0  0  0999 V2000
   27.7829  -21.9981  -15.0689 N   0  0  0  0  0  0  0  0  0  0  0  0
   28.2856  -22.2324  -16.4117 C   0  0  0  0  0  0  0  0  0  0  0  0
   27.7695  -21.0200  -17.1562 C   0  0  0  0  0  0  0  0  0  0  0  0
   27.7357  -19.9506  -16.0863 C   0  0  0  0  0  0  0  0  0  0  0  0
   28.2109  -20.6595  -14.8145 C   0  0  1  0  0  0  0  0  0  0  0  0
   27.5721  -20.0368  -13.6385 C   0  0  0  0  0  0  0  0  0  0  0  0
   27.8928  -18.8291  -13.4006 O   0  0  0  0  0  0  0  0  0  0  0  0
   21.5715  -22.8423  -13.8453 N   0  0  0  0  0  0  0  0  0  0  0  0
   21.6070  -21.6192  -14.5495 C   0  0  0  0  0  0  0  0  0  0  0  0
   21.3015  -21.5983  -15.7949 N   0  0  0  0  0  0  0  0  0  0  0  0
   21.9811  -20.4186  -13.8741 N   0  0  0  0  0  0  0  0  0  0  0  0
   22.2246  -20.4141  -12.4446 C   0  0  0  0  0  0  0  0  0  0  0  0
   23.6491  -20.9269  -12.1861 C   0  0  0  0  0  0  0  0  0  0  0  0
   24.5251  -19.7127  -12.1017 C   0  0  0  0  0  0  0  0  0  0  0  0
   25.9586  -20.0106  -11.7924 C   0  0  2  0  0  0  0  0  0  0  0  0
   26.6500  -20.7257  -12.8060 N   0  0  0  0  0  0  0  0  0  0  0  0
   25.9822  -20.7859  -10.5261 C   0  0  0  0  0  0  0  0  0  0  0  0
   25.9686  -22.0240  -10.5744 O   0  0  0  0  0  0  0  0  0  0  0  0
   21.4086  -20.7322  -16.3318 C   0  0  0  0  0  0  0  0  0  0  0  0
   28.8655  -20.6856   -7.0983 C   0  0  2  0  0  0  0  0  0  0  0  0
   27.8891  -19.5436   -7.1070 C   0  0  0  0  0  0  0  0  0  0  0  0
   28.1939  -18.5423   -5.9985 C   0  0  0  0  0  0  0  0  0  0  0  0
   26.4837  -20.0162   -6.8936 C   0  0  2  0  0  0  0  0  0  0  0  0
   25.9810  -20.8992   -8.0022 N   0  0  0  0  0  0  0  0  0  0  0  0
   26.0203  -20.1546   -9.2510 C   0  0  0  0  0  0  0  0  0  0  0  0
   24.5704  -21.2724   -7.6412 O   0  0  0  0  0  0  0  0  0  0  0  0
   24.3657  -22.1049   -6.5734 O   0  0  0  0  0  0  0  0  0  0  0  0
  1  2  1  0
  2  3  1  0
  4  3  1  0
  5  1  1  0
  5  4  1  0
  5  6  1  1
  7  6  2  0
  9 10  2  0
  9  8  1  0
 11  9  1  0
 12 11  1  0
 13 12  1  0
 14 13  1  0
 15 14  1  6
 15 16  1  0
 16  6  1  0
 17 15  1  0
 18 17  2  0
 20 19  1  6
 20 21  1  0
 22 20  1  0
 23 22  1  6
 23 24  1  0
 24 17  1  0
 25 26  1  0
 25 23  1  0
 27 25  2  0
M  END
$$$$
