PRL.pdb
     RDKit          3D

 27 27  0  0  1  0  0  0  0  0999 V2000
   28.5526  -33.1561  -14.2923 N   0  0  0  0  0  0  0  0  0  0  0  0
   28.6116  -32.7878  -15.6964 C   0  0  0  0  0  0  0  0  0  0  0  0
   27.6818  -33.8021  -16.3266 C   0  0  0  0  0  0  0  0  0  0  0  0
   26.6792  -34.0763  -15.2270 C   0  0  0  0  0  0  0  0  0  0  0  0
   27.1457  -33.2108  -14.0525 C   0  0  1  0  0  0  0  0  0  0  0  0
   26.7767  -33.8675  -12.7830 C   0  0  0  0  0  0  0  0  0  0  0  0
   25.5340  -33.9122  -12.5159 O   0  0  0  0  0  0  0  0  0  0  0  0
   28.6513  -40.2847   -7.1869 N   0  0  0  0  0  0  0  0  0  0  0  0
   27.9364  -40.5339   -8.3785 C   0  0  0  0  0  0  0  0  0  0  0  0
   27.0352  -41.4463   -8.3954 N   0  0  0  0  0  0  0  0  0  0  0  0
   28.2196  -39.7723   -9.5522 N   0  0  0  0  0  0  0  0  0  0  0  0
   28.9037  -38.4968   -9.4642 C   0  0  0  0  0  0  0  0  0  0  0  0
   27.8584  -37.3727   -9.5154 C   0  0  0  0  0  0  0  0  0  0  0  0
   28.2550  -36.4802  -10.6535 C   0  0  0  0  0  0  0  0  0  0  0  0
   27.3113  -35.3456  -10.9011 C   0  0  2  0  0  0  0  0  0  0  0  0
   27.7356  -34.4246  -11.8953 N   0  0  0  0  0  0  0  0  0  0  0  0
   27.1262  -34.6388   -9.6083 C   0  0  0  0  0  0  0  0  0  0  0  0
   28.0550  -33.9563   -9.1535 O   0  0  0  0  0  0  0  0  0  0  0  0
   26.5261  -41.6443   -9.2623 C   0  0  0  0  0  0  0  0  0  0  0  0
   25.4195  -31.0681   -8.2449 C   0  0  1  0  0  0  0  0  0  0  0  0
   24.4200  -32.1114   -8.6575 C   0  0  0  0  0  0  0  0  0  0  0  0
   23.0071  -31.5407   -8.7042 C   0  0  0  0  0  0  0  0  0  0  0  0
   24.3943  -33.2621   -7.6988 C   0  0  2  0  0  0  0  0  0  0  0  0
   25.7035  -33.9980   -7.6213 N   0  0  0  0  0  0  0  0  0  0  0  0
   25.9131  -34.7173   -8.8680 C   0  0  0  0  0  0  0  0  0  0  0  0
   25.5881  -34.9489   -6.4631 O   0  0  0  0  0  0  0  0  0  0  0  0
   26.0794  -34.5609   -5.2452 O   0  0  0  0  0  0  0  0  0  0  0  0
  1  2  1  0
  2  3  1  0
  4  3  1  0
  5  1  1  0
  5  4  1  0
  5  6  1  1
  7  6  2  0
  9 10  2  0
  9  8  1  0
 11  9  1  0
 12 11  1  0
 13 12  1  0
 14 13  1  0
 15 14  1  1
 15 16  1  0
 16  6  1  0
 17 15  1  0
 18 17  2  0
 20 19  1  6
 20 21  1  0
 22 20  1  0
 23 22  1  6
 23 24  1  0
 24 17  1  0
 25 26  1  0
 25 23  1  0
 27 25  2  0
M  END
$$$$
