PRL.pdb
     RDKit          3D

 27 27  0  0  1  0  0  0  0  0999 V2000
   27.2716  -21.2763  -14.5624 N   0  0  0  0  0  0  0  0  0  0  0  0
   27.8602  -21.1867  -15.8876 C   0  0  0  0  0  0  0  0  0  0  0  0
   27.7353  -19.7085  -16.1874 C   0  0  0  0  0  0  0  0  0  0  0  0
   27.8278  -19.0729  -14.8174 C   0  0  0  0  0  0  0  0  0  0  0  0
   27.9693  -20.2530  -13.8513 C   0  0  1  0  0  0  0  0  0  0  0  0
   27.3606  -19.8997  -12.5537 C   0  0  0  0  0  0  0  0  0  0  0  0
   27.8852  -18.9186  -11.9374 O   0  0  0  0  0  0  0  0  0  0  0  0
   21.5253  -21.0808  -14.6763 N   0  0  0  0  0  0  0  0  0  0  0  0
   21.2754  -21.9745  -13.6123 C   0  0  0  0  0  0  0  0  0  0  0  0
   20.8669  -23.1629  -13.8683 N   0  0  0  0  0  0  0  0  0  0  0  0
   21.4778  -21.5518  -12.2639 N   0  0  0  0  0  0  0  0  0  0  0  0
   21.9349  -20.2082  -11.9662 C   0  0  0  0  0  0  0  0  0  0  0  0
   23.4496  -20.1379  -12.2102 C   0  0  0  0  0  0  0  0  0  0  0  0
   24.0998  -20.2782  -10.8661 C   0  0  0  0  0  0  0  0  0  0  0  0
   25.5806  -20.0627  -10.8753 C   0  0  2  0  0  0  0  0  0  0  0  0
   26.2532  -20.5999  -12.0049 N   0  0  0  0  0  0  0  0  0  0  0  0
   26.1202  -20.6719   -9.6332 C   0  0  0  0  0  0  0  0  0  0  0  0
   26.3395  -21.8911   -9.6031 O   0  0  0  0  0  0  0  0  0  0  0  0
   20.7692  -23.8434  -13.1085 C   0  0  0  0  0  0  0  0  0  0  0  0
   28.2673  -18.7250   -4.1475 C   0  0  1  0  0  0  0  0  0  0  0  0
   28.0342  -19.8762   -5.0846 C   0  0  0  0  0  0  0  0  0  0  0  0
   29.3081  -20.6857   -5.2991 C   0  0  0  0  0  0  0  0  0  0  0  0
   27.5826  -19.4079   -6.4339 C   0  0  2  0  0  0  0  0  0  0  0  0
   26.9157  -20.4863   -7.2425 N   0  0  0  0  0  0  0  0  0  0  0  0
   26.3966  -19.9014   -8.4688 C   0  0  0  0  0  0  0  0  0  0  0  0
   25.8024  -21.0286   -6.3906 O   0  0  0  0  0  0  0  0  0  0  0  0
   24.5092  -20.7952   -6.7757 O   0  0  0  0  0  0  0  0  0  0  0  0
  1  2  1  0
  2  3  1  0
  4  3  1  0
  5  1  1  0
  5  4  1  0
  5  6  1  1
  7  6  2  0
  9 10  2  0
  9  8  1  0
 11  9  1  0
 12 11  1  0
 13 12  1  0
 14 13  1  0
 15 14  1  6
 15 16  1  0
 16  6  1  0
 17 15  1  0
 18 17  2  0
 20 19  1  1
 20 21  1  0
 22 20  1  0
 23 22  1  6
 23 24  1  0
 24 17  1  0
 25 26  1  0
 25 23  1  0
 27 25  2  0
M  END
$$$$
