PRL.pdb
     RDKit          3D

 27 27  0  0  1  0  0  0  0  0999 V2000
   28.5698  -19.7264  -16.5876 N   0  0  0  0  0  0  0  0  0  0  0  0
   29.2655  -18.9917  -17.6301 C   0  0  0  0  0  0  0  0  0  0  0  0
   28.5005  -17.6861  -17.6581 C   0  0  0  0  0  0  0  0  0  0  0  0
   28.0334  -17.5328  -16.2271 C   0  0  0  0  0  0  0  0  0  0  0  0
   28.5522  -18.7850  -15.5137 C   0  0  1  0  0  0  0  0  0  0  0  0
   27.6311  -19.1409  -14.4165 C   0  0  0  0  0  0  0  0  0  0  0  0
   27.5140  -18.2845  -13.4834 O   0  0  0  0  0  0  0  0  0  0  0  0
   24.0960  -24.1010  -15.4855 N   0  0  0  0  0  0  0  0  0  0  0  0
   23.4090  -24.5704  -14.3451 C   0  0  0  0  0  0  0  0  0  0  0  0
   23.4807  -25.8119  -14.0310 N   0  0  0  0  0  0  0  0  0  0  0  0
   22.6419  -23.6647  -13.5520 N   0  0  0  0  0  0  0  0  0  0  0  0
   22.4421  -22.2919  -13.9741 C   0  0  0  0  0  0  0  0  0  0  0  0
   23.4457  -21.3973  -13.2315 C   0  0  0  0  0  0  0  0  0  0  0  0
   24.6883  -21.3713  -14.0707 C   0  0  0  0  0  0  0  0  0  0  0  0
   25.7627  -20.4703  -13.5482 C   0  0  2  0  0  0  0  0  0  0  0  0
   26.9068  -20.3624  -14.3826 N   0  0  0  0  0  0  0  0  0  0  0  0
   26.1609  -20.9895  -12.2151 C   0  0  0  0  0  0  0  0  0  0  0  0
   27.2925  -21.4720  -12.0671 O   0  0  0  0  0  0  0  0  0  0  0  0
   22.8850  -26.1844  -13.2852 C   0  0  0  0  0  0  0  0  0  0  0  0
   27.0553  -18.6339   -7.3016 C   0  0  1  0  0  0  0  0  0  0  0  0
   27.1080  -19.9892   -7.9482 C   0  0  0  0  0  0  0  0  0  0  0  0
   28.5320  -20.5323   -7.9866 C   0  0  0  0  0  0  0  0  0  0  0  0
   26.6195  -19.9458   -9.3636 C   0  0  2  0  0  0  0  0  0  0  0  0
   25.7487  -21.1172   -9.7258 N   0  0  0  0  0  0  0  0  0  0  0  0
   25.2843  -20.9525  -11.0943 C   0  0  0  0  0  0  0  0  0  0  0  0
   24.5968  -21.1046   -8.7604 O   0  0  0  0  0  0  0  0  0  0  0  0
   24.7281  -21.7768   -7.5746 O   0  0  0  0  0  0  0  0  0  0  0  0
  1  2  1  0
  2  3  1  0
  4  3  1  0
  5  1  1  0
  5  4  1  0
  5  6  1  1
  7  6  2  0
  9 10  2  0
  9  8  1  0
 11  9  1  0
 12 11  1  0
 13 12  1  0
 14 13  1  0
 15 14  1  6
 15 16  1  0
 16  6  1  0
 17 15  1  0
 18 17  2  0
 20 19  1  1
 20 21  1  0
 22 20  1  0
 23 22  1  6
 23 24  1  0
 24 17  1  0
 25 26  1  0
 25 23  1  0
 27 25  2  0
M  END
$$$$
