PRL.pdb
     RDKit          3D

 27 27  0  0  1  0  0  0  0  0999 V2000
   28.0670  -21.0536  -15.4519 N   0  0  0  0  0  0  0  0  0  0  0  0
   28.6951  -20.7675  -16.7303 C   0  0  0  0  0  0  0  0  0  0  0  0
   28.1617  -19.3855  -17.0399 C   0  0  0  0  0  0  0  0  0  0  0  0
   27.9656  -18.7792  -15.6675 C   0  0  0  0  0  0  0  0  0  0  0  0
   28.3801  -19.8853  -14.6924 C   0  0  1  0  0  0  0  0  0  0  0  0
   27.6042  -19.7536  -13.4436 C   0  0  0  0  0  0  0  0  0  0  0  0
   27.7351  -18.6552  -12.8158 O   0  0  0  0  0  0  0  0  0  0  0  0
   22.2896  -20.8083  -15.2323 N   0  0  0  0  0  0  0  0  0  0  0  0
   21.2963  -20.0511  -14.5743 C   0  0  0  0  0  0  0  0  0  0  0  0
   20.5730  -19.2352  -15.2498 N   0  0  0  0  0  0  0  0  0  0  0  0
   21.1037  -20.1971  -13.1674 N   0  0  0  0  0  0  0  0  0  0  0  0
   21.9197  -21.1150  -12.3963 C   0  0  0  0  0  0  0  0  0  0  0  0
   23.1457  -20.3573  -11.8655 C   0  0  0  0  0  0  0  0  0  0  0  0
   24.3103  -20.8049  -12.6975 C   0  0  0  0  0  0  0  0  0  0  0  0
   25.6458  -20.4333  -12.1340 C   0  0  2  0  0  0  0  0  0  0  0  0
   26.7541  -20.7799  -12.9515 N   0  0  0  0  0  0  0  0  0  0  0  0
   25.7667  -21.1030  -10.8141 C   0  0  0  0  0  0  0  0  0  0  0  0
   25.7902  -22.3408  -10.7636 O   0  0  0  0  0  0  0  0  0  0  0  0
   19.7960  -18.7459  -14.7951 C   0  0  0  0  0  0  0  0  0  0  0  0
   28.6521  -20.9737   -7.3230 C   0  0  1  0  0  0  0  0  0  0  0  0
   27.7936  -19.7502   -7.4767 C   0  0  0  0  0  0  0  0  0  0  0  0
   28.1722  -18.6742   -6.4652 C   0  0  0  0  0  0  0  0  0  0  0  0
   26.3442  -20.0612   -7.2609 C   0  0  2  0  0  0  0  0  0  0  0  0
   25.7808  -21.0023   -8.2897 N   0  0  0  0  0  0  0  0  0  0  0  0
   25.8574  -20.3700   -9.5973 C   0  0  0  0  0  0  0  0  0  0  0  0
   24.3524  -21.2557   -7.8963 O   0  0  0  0  0  0  0  0  0  0  0  0
   24.1040  -22.0119   -6.7820 O   0  0  0  0  0  0  0  0  0  0  0  0
  1  2  1  0
  2  3  1  0
  4  3  1  0
  5  1  1  0
  5  4  1  0
  5  6  1  1
  7  6  2  0
  9 10  2  0
  9  8  1  0
 11  9  1  0
 12 11  1  0
 13 12  1  0
 14 13  1  0
 15 14  1  6
 15 16  1  0
 16  6  1  0
 17 15  1  0
 18 17  2  0
 20 19  1  6
 20 21  1  0
 22 20  1  0
 23 22  1  6
 23 24  1  0
 24 17  1  0
 25 26  1  0
 25 23  1  0
 27 25  2  0
M  END
$$$$
