PRL.pdb
     RDKit          3D

 27 27  0  0  1  0  0  0  0  0999 V2000
   21.7616  -18.4891  -16.4974 N   0  0  0  0  0  0  0  0  0  0  0  0
   20.8622  -18.4064  -17.6353 C   0  0  0  0  0  0  0  0  0  0  0  0
   21.5929  -19.2299  -18.6737 C   0  0  0  0  0  0  0  0  0  0  0  0
   22.3384  -20.2486  -17.8394 C   0  0  0  0  0  0  0  0  0  0  0  0
   21.9869  -19.8954  -16.3910 C   0  0  1  0  0  0  0  0  0  0  0  0
   23.1143  -20.2593  -15.5105 C   0  0  0  0  0  0  0  0  0  0  0  0
   23.1879  -21.4829  -15.1712 O   0  0  0  0  0  0  0  0  0  0  0  0
   28.3089  -16.5546  -18.7096 N   0  0  0  0  0  0  0  0  0  0  0  0
   28.5437  -17.9458  -18.7596 C   0  0  0  0  0  0  0  0  0  0  0  0
   28.8796  -18.4901  -19.8713 N   0  0  0  0  0  0  0  0  0  0  0  0
   28.4064  -18.7348  -17.5780 N   0  0  0  0  0  0  0  0  0  0  0  0
   27.9381  -18.1440  -16.3393 C   0  0  0  0  0  0  0  0  0  0  0  0
   26.5013  -18.6200  -16.0788 C   0  0  0  0  0  0  0  0  0  0  0  0
   26.5070  -19.2523  -14.7190 C   0  0  0  0  0  0  0  0  0  0  0  0
   25.1723  -19.7617  -14.2737 C   0  0  2  0  0  0  0  0  0  0  0  0
   24.0738  -19.3157  -15.0556 N   0  0  0  0  0  0  0  0  0  0  0  0
   24.9892  -19.3371  -12.8626 C   0  0  0  0  0  0  0  0  0  0  0  0
   24.2914  -18.3435  -12.6154 O   0  0  0  0  0  0  0  0  0  0  0  0
   29.0146  -19.5046  -19.9222 C   0  0  0  0  0  0  0  0  0  0  0  0
   22.7796  -18.6435  -10.4354 C   0  0  1  0  0  0  0  0  0  0  0  0
   22.4486  -20.1079  -10.4950 C   0  0  0  0  0  0  0  0  0  0  0  0
   21.7341  -20.5689   -9.2297 C   0  0  0  0  0  0  0  0  0  0  0  0
   23.6813  -20.9482  -10.6306 C   0  0  2  0  0  0  0  0  0  0  0  0
   24.9540  -20.1622  -10.4750 N   0  0  0  0  0  0  0  0  0  0  0  0
   25.5898  -20.0345  -11.7768 C   0  0  0  0  0  0  0  0  0  0  0  0
   25.8207  -20.9413   -9.5258 O   0  0  0  0  0  0  0  0  0  0  0  0
   25.7146  -20.6890   -8.1841 O   0  0  0  0  0  0  0  0  0  0  0  0
  1  2  1  0
  2  3  1  0
  4  3  1  0
  5  1  1  0
  5  4  1  0
  5  6  1  1
  7  6  2  0
  9 10  2  0
  9  8  1  0
 11  9  1  0
 12 11  1  0
 13 12  1  0
 14 13  1  0
 15 14  1  6
 15 16  1  0
 16  6  1  0
 17 15  1  0
 18 17  2  0
 20 19  1  6
 20 21  1  0
 22 20  1  0
 23 22  1  6
 23 24  1  0
 24 17  1  0
 25 26  1  0
 25 23  1  0
 27 25  2  0
M  END
$$$$
