WMQ.pdb
     RDKit          3D

 32 33  0  0  1  0  0  0  0  0999 V2000
    8.5732  -16.0944   21.4274 N   0  0  0  0  0  0  0  0  0  0  0  0
    8.9312  -14.7461   21.7477 C   0  0  1  0  0  0  0  0  0  0  0  0
    8.2895  -13.6960   20.8982 C   0  0  0  0  0  0  0  0  0  0  0  0
    8.8676  -13.5984   19.5455 C   0  0  0  0  0  0  0  0  0  0  0  0
    8.1952  -13.1806   18.4314 C   0  0  0  0  0  0  0  0  0  0  0  0
    9.0626  -13.2102   17.4122 N   0  0  0  0  0  0  0  0  0  0  0  0
   10.2631  -13.6333   17.8418 C   0  0  0  0  0  0  0  0  0  0  0  0
   11.4623  -13.8409   17.2123 C   0  0  0  0  0  0  0  0  0  0  0  0
   12.5771  -14.2954   17.8819 C   0  0  0  0  0  0  0  0  0  0  0  0
   12.4741  -14.5483   19.2339 C   0  0  0  0  0  0  0  0  0  0  0  0
   11.2735  -14.3440   19.8812 C   0  0  0  0  0  0  0  0  0  0  0  0
   10.1611  -13.8862   19.1967 C   0  0  0  0  0  0  0  0  0  0  0  0
    8.5256  -14.4817   23.1723 C   0  0  0  0  0  0  0  0  0  0  0  0
    8.4312  -13.2998   23.5885 O   0  0  0  0  0  0  0  0  0  0  0  0
    6.5879  -10.9399   27.0192 C   0  0  0  0  0  0  0  0  0  0  0  0
    5.6342  -12.4813   27.2879 S   0  0  0  0  0  0  0  0  0  0  0  0
    6.7751  -13.8595   27.1024 C   0  0  0  0  0  0  0  0  0  0  0  0
    7.0734  -14.1949   25.6830 C   0  0  0  0  0  0  0  0  0  0  0  0
    8.1638  -15.2350   25.5027 C   0  0  2  0  0  0  0  0  0  0  0  0
    8.2394  -15.5196   24.0832 N   0  0  0  0  0  0  0  0  0  0  0  0
    7.8325  -16.4751   26.2644 C   0  0  0  0  0  0  0  0  0  0  0  0
    7.1997  -16.4463   27.3450 O   0  0  0  0  0  0  0  0  0  0  0  0
   11.3489  -19.1270   22.5634 N   0  0  0  0  0  0  0  0  0  0  0  0
   12.2729  -18.6619   23.5247 C   0  0  0  0  0  0  0  0  0  0  0  0
   13.4735  -18.9440   23.3670 O   0  0  0  0  0  0  0  0  0  0  0  0
   11.8147  -17.8695   24.6736 C   0  0  0  0  0  0  0  0  0  0  0  0
   10.3476  -17.6019   24.7124 C   0  0  0  0  0  0  0  0  0  0  0  0
    9.6038  -18.2408   25.8404 C   0  0  2  0  0  0  0  0  0  0  0  0
    8.2236  -17.7637   25.7935 N   0  0  0  0  0  0  0  0  0  0  0  0
   10.2111  -18.0147   27.1545 C   0  0  0  0  0  0  0  0  0  0  0  0
    9.9288  -16.8401   27.8648 O   0  0  0  0  0  0  0  0  0  0  0  0
   10.9928  -18.8196   27.7149 O   0  0  0  0  0  0  0  0  0  0  0  0
  2  1  1  6
  2 13  1  0
  2  3  1  0
  4  5  2  0
  4  3  1  0
  6  5  1  0
  7 12  2  0
  7  6  1  0
  8  7  1  0
  9  8  2  0
  9 10  1  0
 10 11  2  0
 11 12  1  0
 12  4  1  0
 13 14  2  0
 16 15  1  0
 17 18  1  0
 17 16  1  0
 19 18  1  6
 19 21  1  0
 20 19  1  0
 20 13  1  0
 21 22  2  0
 23 24  1  0
 24 26  1  0
 24 25  2  0
 26 27  1  0
 28 27  1  6
 28 30  1  0
 29 21  1  0
 29 28  1  0
 30 32  2  0
 30 31  1  0
M  END
$$$$
