WMQ.pdb
     RDKit          3D

 32 33  0  0  1  0  0  0  0  0999 V2000
   10.7050  -15.9872   20.9086 N   0  0  0  0  0  0  0  0  0  0  0  0
    9.8418  -15.4901   21.9364 C   0  0  1  0  0  0  0  0  0  0  0  0
    8.4148  -15.9262   21.8381 C   0  0  0  0  0  0  0  0  0  0  0  0
    7.4488  -14.8416   22.0918 C   0  0  0  0  0  0  0  0  0  0  0  0
    6.5623  -14.3483   21.1760 C   0  0  0  0  0  0  0  0  0  0  0  0
    5.8500  -13.3953   21.7895 N   0  0  0  0  0  0  0  0  0  0  0  0
    6.2548  -13.2667   23.0639 C   0  0  0  0  0  0  0  0  0  0  0  0
    5.8629  -12.4506   24.0924 C   0  0  0  0  0  0  0  0  0  0  0  0
    6.4476  -12.5030   25.3386 C   0  0  0  0  0  0  0  0  0  0  0  0
    7.4633  -13.4119   25.5503 C   0  0  0  0  0  0  0  0  0  0  0  0
    7.8685  -14.2401   24.5247 C   0  0  0  0  0  0  0  0  0  0  0  0
    7.2720  -14.1778   23.2774 C   0  0  0  0  0  0  0  0  0  0  0  0
   10.3687  -15.9711   23.2612 C   0  0  0  0  0  0  0  0  0  0  0  0
   11.2390  -16.8767   23.2986 O   0  0  0  0  0  0  0  0  0  0  0  0
   11.0050  -14.3095   30.9426 C   0  0  0  0  0  0  0  0  0  0  0  0
   10.1272  -13.9202   29.3818 S   0  0  0  0  0  0  0  0  0  0  0  0
   10.7016  -15.0842   28.1365 C   0  0  0  0  0  0  0  0  0  0  0  0
   10.1183  -14.8450   26.7879 C   0  0  0  0  0  0  0  0  0  0  0  0
   10.5880  -15.8184   25.7224 C   0  0  2  0  0  0  0  0  0  0  0  0
    9.9230  -15.4423   24.4903 N   0  0  0  0  0  0  0  0  0  0  0  0
   10.2301  -17.2173   26.1000 C   0  0  0  0  0  0  0  0  0  0  0  0
    9.0603  -17.6556   26.0080 O   0  0  0  0  0  0  0  0  0  0  0  0
   13.5667  -22.1919   25.0244 N   0  0  0  0  0  0  0  0  0  0  0  0
   12.9300  -21.1849   24.2664 C   0  0  0  0  0  0  0  0  0  0  0  0
   13.2067  -21.0993   23.0573 O   0  0  0  0  0  0  0  0  0  0  0  0
   11.9709  -20.2711   24.9013 C   0  0  0  0  0  0  0  0  0  0  0  0
   11.8306  -20.4281   26.3782 C   0  0  0  0  0  0  0  0  0  0  0  0
   10.8851  -19.4798   27.0419 C   0  0  2  0  0  0  0  0  0  0  0  0
   11.2121  -18.1302   26.5873 N   0  0  0  0  0  0  0  0  0  0  0  0
   10.8808  -19.5730   28.5041 C   0  0  0  0  0  0  0  0  0  0  0  0
   10.5067  -20.7700   29.1294 O   0  0  0  0  0  0  0  0  0  0  0  0
   11.1974  -18.6307   29.2690 O   0  0  0  0  0  0  0  0  0  0  0  0
  2  1  1  6
  2 13  1  0
  2  3  1  0
  4  5  2  0
  4  3  1  0
  6  5  1  0
  7 12  2  0
  7  6  1  0
  8  7  1  0
  9  8  2  0
  9 10  1  0
 10 11  2  0
 11 12  1  0
 12  4  1  0
 13 14  2  0
 16 15  1  0
 17 18  1  0
 17 16  1  0
 19 18  1  1
 19 21  1  0
 20 19  1  0
 20 13  1  0
 21 22  2  0
 23 24  1  0
 24 26  1  0
 24 25  2  0
 26 27  1  0
 28 27  1  6
 28 30  1  0
 29 21  1  0
 29 28  1  0
 30 32  2  0
 30 31  1  0
M  END
$$$$
