WMQ.pdb
     RDKit          3D

 32 33  0  0  1  0  0  0  0  0999 V2000
    6.4368  -17.8639   25.5184 N   0  0  0  0  0  0  0  0  0  0  0  0
    7.0539  -16.6626   25.0443 C   0  0  1  0  0  0  0  0  0  0  0  0
    8.3041  -16.2614   25.7602 C   0  0  0  0  0  0  0  0  0  0  0  0
    8.0995  -15.1804   26.7416 C   0  0  0  0  0  0  0  0  0  0  0  0
    8.4912  -15.2222   28.0504 C   0  0  0  0  0  0  0  0  0  0  0  0
    8.1495  -14.0517   28.6025 N   0  0  0  0  0  0  0  0  0  0  0  0
    7.5537  -13.2681   27.6884 C   0  0  0  0  0  0  0  0  0  0  0  0
    7.0245  -12.0052   27.7405 C   0  0  0  0  0  0  0  0  0  0  0  0
    6.4479  -11.4020   26.6446 C   0  0  0  0  0  0  0  0  0  0  0  0
    6.4053  -12.1009   25.4561 C   0  0  0  0  0  0  0  0  0  0  0  0
    6.9340  -13.3729   25.3883 C   0  0  0  0  0  0  0  0  0  0  0  0
    7.5113  -13.9672   26.4969 C   0  0  0  0  0  0  0  0  0  0  0  0
    7.4094  -16.8610   23.5958 C   0  0  0  0  0  0  0  0  0  0  0  0
    7.6879  -18.0100   23.1701 O   0  0  0  0  0  0  0  0  0  0  0  0
    7.9972  -11.6554   19.8953 C   0  0  0  0  0  0  0  0  0  0  0  0
    6.8559  -12.8236   19.0641 S   0  0  0  0  0  0  0  0  0  0  0  0
    6.8765  -14.3570   20.0043 C   0  0  0  0  0  0  0  0  0  0  0  0
    8.1466  -14.5788   20.7485 C   0  0  0  0  0  0  0  0  0  0  0  0
    8.2289  -15.9175   21.4587 C   0  0  2  0  0  0  0  0  0  0  0  0
    7.4451  -15.7958   22.6722 N   0  0  0  0  0  0  0  0  0  0  0  0
    9.6471  -16.2472   21.7869 C   0  0  0  0  0  0  0  0  0  0  0  0
   10.0850  -16.2195   22.9601 O   0  0  0  0  0  0  0  0  0  0  0  0
   12.5801  -19.4442   24.6329 N   0  0  0  0  0  0  0  0  0  0  0  0
   13.3575  -19.0947   23.5070 C   0  0  0  0  0  0  0  0  0  0  0  0
   14.4879  -18.6153   23.7022 O   0  0  0  0  0  0  0  0  0  0  0  0
   12.8327  -19.2965   22.1498 C   0  0  0  0  0  0  0  0  0  0  0  0
   11.6211  -18.4933   21.8145 C   0  0  0  0  0  0  0  0  0  0  0  0
   11.8736  -17.2252   21.0648 C   0  0  2  0  0  0  0  0  0  0  0  0
   10.5794  -16.6137   20.7712 N   0  0  0  0  0  0  0  0  0  0  0  0
   12.6765  -17.4031   19.8522 C   0  0  0  0  0  0  0  0  0  0  0  0
   14.0244  -17.0199   19.8411 O   0  0  0  0  0  0  0  0  0  0  0  0
   12.2363  -17.8896   18.7833 O   0  0  0  0  0  0  0  0  0  0  0  0
  2  1  1  1
  2 13  1  0
  2  3  1  0
  4  5  2  0
  4  3  1  0
  6  5  1  0
  7 12  2  0
  7  6  1  0
  8  7  1  0
  9  8  2  0
  9 10  1  0
 10 11  2  0
 11 12  1  0
 12  4  1  0
 13 14  2  0
 16 15  1  0
 17 18  1  0
 17 16  1  0
 19 18  1  1
 19 21  1  0
 20 19  1  0
 20 13  1  0
 21 22  2  0
 23 24  1  0
 24 26  1  0
 24 25  2  0
 26 27  1  0
 28 27  1  6
 28 30  1  0
 29 21  1  0
 29 28  1  0
 30 32  2  0
 30 31  1  0
M  END
$$$$
