WMQ.pdb
     RDKit          3D

 32 33  0  0  1  0  0  0  0  0999 V2000
    6.4452  -20.5738   25.1901 N   0  0  0  0  0  0  0  0  0  0  0  0
    6.9126  -19.5716   26.0988 C   0  0  1  0  0  0  0  0  0  0  0  0
    8.1197  -19.9470   26.8977 C   0  0  0  0  0  0  0  0  0  0  0  0
    8.3565  -19.0662   28.0560 C   0  0  0  0  0  0  0  0  0  0  0  0
    7.7354  -19.1776   29.2684 C   0  0  0  0  0  0  0  0  0  0  0  0
    8.2319  -18.2161   30.0563 N   0  0  0  0  0  0  0  0  0  0  0  0
    9.1471  -17.4976   29.3849 C   0  0  0  0  0  0  0  0  0  0  0  0
    9.9278  -16.4243   29.7253 C   0  0  0  0  0  0  0  0  0  0  0  0
   10.8086  -15.8433   28.8397 C   0  0  0  0  0  0  0  0  0  0  0  0
   10.9017  -16.3665   27.5668 C   0  0  0  0  0  0  0  0  0  0  0  0
   10.1223  -17.4468   27.2096 C   0  0  0  0  0  0  0  0  0  0  0  0
    9.2417  -18.0216   28.1094 C   0  0  0  0  0  0  0  0  0  0  0  0
    7.2652  -18.3459   25.3004 C   0  0  0  0  0  0  0  0  0  0  0  0
    7.7821  -18.4666   24.1614 O   0  0  0  0  0  0  0  0  0  0  0  0
    6.9565  -10.4630   24.8640 C   0  0  0  0  0  0  0  0  0  0  0  0
    6.4754  -11.9432   25.8312 S   0  0  0  0  0  0  0  0  0  0  0  0
    7.1553  -13.3803   24.9897 C   0  0  0  0  0  0  0  0  0  0  0  0
    6.8510  -14.6668   25.6743 C   0  0  0  0  0  0  0  0  0  0  0  0
    7.3563  -15.8977   24.9442 C   0  0  2  0  0  0  0  0  0  0  0  0
    7.0380  -17.0391   25.7795 N   0  0  0  0  0  0  0  0  0  0  0  0
    8.8303  -15.8071   24.7278 C   0  0  0  0  0  0  0  0  0  0  0  0
    9.6537  -15.9817   25.6555 O   0  0  0  0  0  0  0  0  0  0  0  0
   10.2803  -16.7517   18.7084 N   0  0  0  0  0  0  0  0  0  0  0  0
   11.4724  -17.1489   19.3530 C   0  0  0  0  0  0  0  0  0  0  0  0
   12.3574  -17.6883   18.6663 O   0  0  0  0  0  0  0  0  0  0  0  0
   11.6478  -16.9259   20.7944 C   0  0  0  0  0  0  0  0  0  0  0  0
   10.5211  -16.2153   21.4660 C   0  0  0  0  0  0  0  0  0  0  0  0
   10.6179  -16.1114   22.9538 C   0  0  2  0  0  0  0  0  0  0  0  0
    9.3765  -15.5156   23.4425 N   0  0  0  0  0  0  0  0  0  0  0  0
   11.7941  -15.3734   23.4213 C   0  0  0  0  0  0  0  0  0  0  0  0
   11.6339  -14.1841   24.1450 O   0  0  0  0  0  0  0  0  0  0  0  0
   12.9774  -15.7357   23.2174 O   0  0  0  0  0  0  0  0  0  0  0  0
  2  1  1  6
  2 13  1  0
  2  3  1  0
  4  5  2  0
  4  3  1  0
  6  5  1  0
  7 12  2  0
  7  6  1  0
  8  7  1  0
  9  8  2  0
  9 10  1  0
 10 11  2  0
 11 12  1  0
 12  4  1  0
 13 14  2  0
 16 15  1  0
 17 18  1  0
 17 16  1  0
 19 18  1  1
 19 21  1  0
 20 19  1  0
 20 13  1  0
 21 22  2  0
 23 24  1  0
 24 26  1  0
 24 25  2  0
 26 27  1  0
 28 27  1  6
 28 30  1  0
 29 21  1  0
 29 28  1  0
 30 32  2  0
 30 31  1  0
M  END
$$$$
