WMQ.pdb
     RDKit          3D

 32 33  0  0  1  0  0  0  0  0999 V2000
    6.3817  -17.3771   21.0459 N   0  0  0  0  0  0  0  0  0  0  0  0
    7.7402  -17.3429   21.4953 C   0  0  1  0  0  0  0  0  0  0  0  0
    8.7619  -17.1295   20.4243 C   0  0  0  0  0  0  0  0  0  0  0  0
    8.4311  -16.0239   19.5068 C   0  0  0  0  0  0  0  0  0  0  0  0
    8.3412  -16.1308   18.1472 C   0  0  0  0  0  0  0  0  0  0  0  0
    8.0020  -14.9240   17.6778 N   0  0  0  0  0  0  0  0  0  0  0  0
    7.8738  -14.0543   18.6936 C   0  0  0  0  0  0  0  0  0  0  0  0
    7.5538  -12.7233   18.7513 C   0  0  0  0  0  0  0  0  0  0  0  0
    7.4900  -12.0315   19.9407 C   0  0  0  0  0  0  0  0  0  0  0  0
    7.7596  -12.7101   21.1110 C   0  0  0  0  0  0  0  0  0  0  0  0
    8.0831  -14.0502   21.0688 C   0  0  0  0  0  0  0  0  0  0  0  0
    8.1430  -14.7336   19.8668 C   0  0  0  0  0  0  0  0  0  0  0  0
    7.8778  -16.2130   22.4794 C   0  0  0  0  0  0  0  0  0  0  0  0
    7.4504  -15.0688   22.1843 O   0  0  0  0  0  0  0  0  0  0  0  0
    6.7836  -11.5226   27.9378 C   0  0  0  0  0  0  0  0  0  0  0  0
    6.3419  -12.9878   26.9297 S   0  0  0  0  0  0  0  0  0  0  0  0
    7.8342  -13.5284   26.0831 C   0  0  0  0  0  0  0  0  0  0  0  0
    7.6048  -14.6579   25.1409 C   0  0  0  0  0  0  0  0  0  0  0  0
    8.8700  -15.2185   24.5179 C   0  0  2  0  0  0  0  0  0  0  0  0
    8.4761  -16.3804   23.7455 N   0  0  0  0  0  0  0  0  0  0  0  0
    9.8460  -15.6061   25.5786 C   0  0  0  0  0  0  0  0  0  0  0  0
   10.1196  -14.8535   26.5417 O   0  0  0  0  0  0  0  0  0  0  0  0
    9.0262  -21.5654   25.5782 N   0  0  0  0  0  0  0  0  0  0  0  0
   10.0521  -21.0052   24.7857 C   0  0  0  0  0  0  0  0  0  0  0  0
   10.4416  -21.6459   23.7940 O   0  0  0  0  0  0  0  0  0  0  0  0
   10.6340  -19.7025   25.1354 C   0  0  0  0  0  0  0  0  0  0  0  0
   10.0659  -19.0640   26.3582 C   0  0  0  0  0  0  0  0  0  0  0  0
   10.6382  -17.7305   26.7162 C   0  0  2  0  0  0  0  0  0  0  0  0
   10.5189  -16.8636   25.5461 N   0  0  0  0  0  0  0  0  0  0  0  0
   12.0169  -17.7898   27.2085 C   0  0  0  0  0  0  0  0  0  0  0  0
   13.0264  -17.0699   26.5554 O   0  0  0  0  0  0  0  0  0  0  0  0
   12.3785  -18.4590   28.2057 O   0  0  0  0  0  0  0  0  0  0  0  0
  2  1  1  6
  2 13  1  0
  2  3  1  0
  4  5  2  0
  4  3  1  0
  6  5  1  0
  7 12  2  0
  7  6  1  0
  8  7  1  0
  9  8  2  0
  9 10  1  0
 10 11  2  0
 11 12  1  0
 12  4  1  0
 13 14  2  0
 16 15  1  0
 17 18  1  0
 17 16  1  0
 19 18  1  1
 19 21  1  0
 20 19  1  0
 20 13  1  0
 21 22  2  0
 23 24  1  0
 24 26  1  0
 24 25  2  0
 26 27  1  0
 28 27  1  6
 28 30  1  0
 29 21  1  0
 29 28  1  0
 30 32  2  0
 30 31  1  0
M  END
$$$$
