WMQ.pdb
     RDKit          3D

 32 33  0  0  1  0  0  0  0  0999 V2000
    8.8549  -18.4647   21.5267 N   0  0  0  0  0  0  0  0  0  0  0  0
    9.8098  -17.4170   21.3292 C   0  0  1  0  0  0  0  0  0  0  0  0
    9.5717  -16.5531   20.1320 C   0  0  0  0  0  0  0  0  0  0  0  0
    8.2922  -15.8221   20.1784 C   0  0  0  0  0  0  0  0  0  0  0  0
    7.0545  -16.4002   20.1376 C   0  0  0  0  0  0  0  0  0  0  0  0
    6.1545  -15.4131   20.2242 N   0  0  0  0  0  0  0  0  0  0  0  0
    6.7792  -14.2276   20.3182 C   0  0  0  0  0  0  0  0  0  0  0  0
    6.3284  -12.9379   20.4224 C   0  0  0  0  0  0  0  0  0  0  0  0
    7.1848  -11.8619   20.5009 C   0  0  0  0  0  0  0  0  0  0  0  0
    8.5432  -12.0996   20.4725 C   0  0  0  0  0  0  0  0  0  0  0  0
    9.0121  -13.3925   20.3679 C   0  0  0  0  0  0  0  0  0  0  0  0
    8.1405  -14.4648   20.2906 C   0  0  0  0  0  0  0  0  0  0  0  0
    9.7804  -16.5246   22.5404 C   0  0  0  0  0  0  0  0  0  0  0  0
   10.5800  -15.5592   22.6277 O   0  0  0  0  0  0  0  0  0  0  0  0
    7.1895  -11.0907   25.6261 C   0  0  0  0  0  0  0  0  0  0  0  0
    7.6139  -12.7846   26.1817 S   0  0  0  0  0  0  0  0  0  0  0  0
    7.5728  -13.8519   24.7343 C   0  0  0  0  0  0  0  0  0  0  0  0
    7.6444  -15.3016   25.0649 C   0  0  0  0  0  0  0  0  0  0  0  0
    9.0015  -15.9332   24.8147 C   0  0  2  0  0  0  0  0  0  0  0  0
    8.8782  -16.7238   23.6059 N   0  0  0  0  0  0  0  0  0  0  0  0
    9.3932  -16.8000   25.9650 C   0  0  0  0  0  0  0  0  0  0  0  0
    8.5598  -17.2146   26.8031 O   0  0  0  0  0  0  0  0  0  0  0  0
    8.6964  -21.3277   25.8260 N   0  0  0  0  0  0  0  0  0  0  0  0
   10.0704  -21.6435   25.7450 C   0  0  0  0  0  0  0  0  0  0  0  0
   10.4698  -22.6706   26.3205 O   0  0  0  0  0  0  0  0  0  0  0  0
   10.9902  -20.7739   24.9995 C   0  0  0  0  0  0  0  0  0  0  0  0
   10.6720  -19.3177   25.0595 C   0  0  0  0  0  0  0  0  0  0  0  0
   11.1513  -18.6012   26.2805 C   0  0  2  0  0  0  0  0  0  0  0  0
   10.7473  -17.2018   26.1658 N   0  0  0  0  0  0  0  0  0  0  0  0
   12.5912  -18.7319   26.5177 C   0  0  0  0  0  0  0  0  0  0  0  0
   13.0913  -19.8505   27.1979 O   0  0  0  0  0  0  0  0  0  0  0  0
   13.4436  -17.8903   26.1461 O   0  0  0  0  0  0  0  0  0  0  0  0
  2  1  1  1
  2 13  1  0
  2  3  1  0
  4  5  2  0
  4  3  1  0
  6  5  1  0
  7 12  2  0
  7  6  1  0
  8  7  1  0
  9  8  2  0
  9 10  1  0
 10 11  2  0
 11 12  1  0
 12  4  1  0
 13 14  2  0
 16 15  1  0
 17 18  1  0
 17 16  1  0
 19 18  1  1
 19 21  1  0
 20 19  1  0
 20 13  1  0
 21 22  2  0
 23 24  1  0
 24 26  1  0
 24 25  2  0
 26 27  1  0
 28 27  1  6
 28 30  1  0
 29 21  1  0
 29 28  1  0
 30 32  2  0
 30 31  1  0
M  END
$$$$
