WMQ.pdb
     RDKit          3D

 32 33  0  0  1  0  0  0  0  0999 V2000
    8.6994  -16.7318   23.8207 N   0  0  0  0  0  0  0  0  0  0  0  0
    9.9659  -16.0839   23.6637 C   0  0  1  0  0  0  0  0  0  0  0  0
    9.9154  -14.5910   23.5949 C   0  0  0  0  0  0  0  0  0  0  0  0
    8.6230  -14.0670   23.1165 C   0  0  0  0  0  0  0  0  0  0  0  0
    7.5312  -13.8292   23.9034 C   0  0  0  0  0  0  0  0  0  0  0  0
    6.5708  -13.3404   23.1093 N   0  0  0  0  0  0  0  0  0  0  0  0
    7.0161  -13.2602   21.8444 C   0  0  0  0  0  0  0  0  0  0  0  0
    6.4395  -12.8414   20.6741 C   0  0  0  0  0  0  0  0  0  0  0  0
    7.1133  -12.8595   19.4728 C   0  0  0  0  0  0  0  0  0  0  0  0
    8.4144  -13.3172   19.4558 C   0  0  0  0  0  0  0  0  0  0  0  0
    9.0082  -13.7421   20.6259 C   0  0  0  0  0  0  0  0  0  0  0  0
    8.3201  -13.7180   21.8265 C   0  0  0  0  0  0  0  0  0  0  0  0
   10.8268  -16.4508   24.8420 C   0  0  0  0  0  0  0  0  0  0  0  0
   12.0184  -16.0557   24.8952 O   0  0  0  0  0  0  0  0  0  0  0  0
   10.1175  -12.6745   28.2327 C   0  0  0  0  0  0  0  0  0  0  0  0
    9.7194  -14.3527   27.6137 S   0  0  0  0  0  0  0  0  0  0  0  0
   10.5792  -15.5321   28.6652 C   0  0  0  0  0  0  0  0  0  0  0  0
   10.3455  -16.9507   28.2788 C   0  0  0  0  0  0  0  0  0  0  0  0
   11.1704  -17.4195   27.0942 C   0  0  2  0  0  0  0  0  0  0  0  0
   10.3497  -17.2336   25.9137 N   0  0  0  0  0  0  0  0  0  0  0  0
   11.5372  -18.8578   27.2509 C   0  0  0  0  0  0  0  0  0  0  0  0
   11.8241  -19.3566   28.3635 O   0  0  0  0  0  0  0  0  0  0  0  0
   15.6079  -17.7458   22.3918 N   0  0  0  0  0  0  0  0  0  0  0  0
   14.8121  -18.8831   22.6515 C   0  0  0  0  0  0  0  0  0  0  0  0
   14.2358  -19.4255   21.6926 O   0  0  0  0  0  0  0  0  0  0  0  0
   14.6771  -19.3991   24.0203 C   0  0  0  0  0  0  0  0  0  0  0  0
   13.3669  -19.1176   24.6757 C   0  0  0  0  0  0  0  0  0  0  0  0
   12.8271  -20.2128   25.5377 C   0  0  2  0  0  0  0  0  0  0  0  0
   11.5781  -19.7408   26.1312 N   0  0  0  0  0  0  0  0  0  0  0  0
   13.7681  -20.6831   26.5576 C   0  0  0  0  0  0  0  0  0  0  0  0
   14.2523  -19.7953   27.5277 O   0  0  0  0  0  0  0  0  0  0  0  0
   14.1902  -21.8617   26.6337 O   0  0  0  0  0  0  0  0  0  0  0  0
  2  1  1  1
  2 13  1  0
  2  3  1  0
  4  5  2  0
  4  3  1  0
  6  5  1  0
  7 12  2  0
  7  6  1  0
  8  7  1  0
  9  8  2  0
  9 10  1  0
 10 11  2  0
 11 12  1  0
 12  4  1  0
 13 14  2  0
 16 15  1  0
 17 18  1  0
 17 16  1  0
 19 18  1  1
 19 21  1  0
 20 19  1  0
 20 13  1  0
 21 22  2  0
 23 24  1  0
 24 26  1  0
 24 25  2  0
 26 27  1  0
 28 27  1  1
 28 30  1  0
 29 21  1  0
 29 28  1  0
 30 32  2  0
 30 31  1  0
M  END
$$$$
