WMQ.pdb
     RDKit          3D

 32 33  0  0  1  0  0  0  0  0999 V2000
   10.6976  -15.5237   21.5990 N   0  0  0  0  0  0  0  0  0  0  0  0
    9.2878  -15.4753   21.8412 C   0  0  1  0  0  0  0  0  0  0  0  0
    8.4748  -16.4754   21.0829 C   0  0  0  0  0  0  0  0  0  0  0  0
    7.8433  -15.9232   19.8705 C   0  0  0  0  0  0  0  0  0  0  0  0
    7.0877  -16.6369   18.9830 C   0  0  0  0  0  0  0  0  0  0  0  0
    6.6785  -15.7832   18.0366 N   0  0  0  0  0  0  0  0  0  0  0  0
    7.1492  -14.5515   18.2932 C   0  0  0  0  0  0  0  0  0  0  0  0
    7.0273  -13.3496   17.6467 C   0  0  0  0  0  0  0  0  0  0  0  0
    7.6220  -12.1981   18.1133 C   0  0  0  0  0  0  0  0  0  0  0  0
    8.3653  -12.2658   19.2733 C   0  0  0  0  0  0  0  0  0  0  0  0
    8.4970  -13.4686   19.9352 C   0  0  0  0  0  0  0  0  0  0  0  0
    7.8935  -14.6181   19.4559 C   0  0  0  0  0  0  0  0  0  0  0  0
    9.0573  -15.7269   23.3067 C   0  0  0  0  0  0  0  0  0  0  0  0
    9.9664  -16.2410   24.0053 O   0  0  0  0  0  0  0  0  0  0  0  0
    7.6817  -12.3246   29.3677 C   0  0  0  0  0  0  0  0  0  0  0  0
    8.0698  -12.9408   27.6861 S   0  0  0  0  0  0  0  0  0  0  0  0
    6.5769  -13.7042   27.0347 C   0  0  0  0  0  0  0  0  0  0  0  0
    6.7060  -14.1446   25.6185 C   0  0  0  0  0  0  0  0  0  0  0  0
    7.8275  -15.1372   25.3728 C   0  0  2  0  0  0  0  0  0  0  0  0
    7.8431  -15.4058   23.9482 N   0  0  0  0  0  0  0  0  0  0  0  0
    7.5857  -16.3966   26.1365 C   0  0  0  0  0  0  0  0  0  0  0  0
    6.5140  -17.0384   26.0443 O   0  0  0  0  0  0  0  0  0  0  0  0
    7.9222  -20.2477   23.7630 N   0  0  0  0  0  0  0  0  0  0  0  0
    8.9565  -20.8931   24.4756 C   0  0  0  0  0  0  0  0  0  0  0  0
    9.1605  -22.0982   24.2481 O   0  0  0  0  0  0  0  0  0  0  0  0
    9.7600  -20.1498   25.4554 C   0  0  0  0  0  0  0  0  0  0  0  0
    9.3658  -18.7235   25.6446 C   0  0  0  0  0  0  0  0  0  0  0  0
    8.9382  -18.3491   27.0270 C   0  0  2  0  0  0  0  0  0  0  0  0
    8.5728  -16.9345   27.0148 N   0  0  0  0  0  0  0  0  0  0  0  0
    9.9386  -18.6417   28.0567 C   0  0  0  0  0  0  0  0  0  0  0  0
   10.0575  -19.9401   28.5704 O   0  0  0  0  0  0  0  0  0  0  0  0
   10.7267  -17.7898   28.5325 O   0  0  0  0  0  0  0  0  0  0  0  0
  2  1  1  1
  2 13  1  0
  2  3  1  0
  4  5  2  0
  4  3  1  0
  6  5  1  0
  7 12  2  0
  7  6  1  0
  8  7  1  0
  9  8  2  0
  9 10  1  0
 10 11  2  0
 11 12  1  0
 12  4  1  0
 13 14  2  0
 16 15  1  0
 17 18  1  0
 17 16  1  0
 19 18  1  6
 19 21  1  0
 20 19  1  0
 20 13  1  0
 21 22  2  0
 23 24  1  0
 24 26  1  0
 24 25  2  0
 26 27  1  0
 28 27  1  6
 28 30  1  0
 29 21  1  0
 29 28  1  0
 30 32  2  0
 30 31  1  0
M  END
$$$$
