WMQ.pdb
     RDKit          3D

 32 33  0  0  1  0  0  0  0  0999 V2000
    7.8441  -16.0043   20.0439 N   0  0  0  0  0  0  0  0  0  0  0  0
    7.6470  -16.6478   21.3071 C   0  0  1  0  0  0  0  0  0  0  0  0
    8.3561  -17.9535   21.4763 C   0  0  0  0  0  0  0  0  0  0  0  0
    7.4503  -19.0846   21.7480 C   0  0  0  0  0  0  0  0  0  0  0  0
    6.7385  -19.7666   20.8014 C   0  0  0  0  0  0  0  0  0  0  0  0
    6.0577  -20.7286   21.4363 N   0  0  0  0  0  0  0  0  0  0  0  0
    6.3131  -20.6800   22.7543 C   0  0  0  0  0  0  0  0  0  0  0  0
    5.8764  -21.4221   23.8201 C   0  0  0  0  0  0  0  0  0  0  0  0
    6.2865  -21.1703   25.1108 C   0  0  0  0  0  0  0  0  0  0  0  0
    7.1680  -20.1322   25.3297 C   0  0  0  0  0  0  0  0  0  0  0  0
    7.6164  -19.3764   24.2668 C   0  0  0  0  0  0  0  0  0  0  0  0
    7.1970  -19.6406   22.9745 C   0  0  0  0  0  0  0  0  0  0  0  0
    8.1450  -15.7229   22.3845 C   0  0  0  0  0  0  0  0  0  0  0  0
    9.3665  -15.4356   22.4492 O   0  0  0  0  0  0  0  0  0  0  0  0
    6.6860  -10.4027   27.0728 C   0  0  0  0  0  0  0  0  0  0  0  0
    5.8774  -12.0439   27.1754 S   0  0  0  0  0  0  0  0  0  0  0  0
    7.0526  -13.2620   26.5664 C   0  0  0  0  0  0  0  0  0  0  0  0
    6.7242  -13.7748   25.2080 C   0  0  0  0  0  0  0  0  0  0  0  0
    7.8415  -14.5646   24.5514 C   0  0  2  0  0  0  0  0  0  0  0  0
    7.2874  -15.1498   23.3463 N   0  0  0  0  0  0  0  0  0  0  0  0
    8.3335  -15.6336   25.4695 C   0  0  0  0  0  0  0  0  0  0  0  0
    7.5560  -16.3258   26.1661 O   0  0  0  0  0  0  0  0  0  0  0  0
   13.9209  -15.7482   23.6544 N   0  0  0  0  0  0  0  0  0  0  0  0
   13.2375  -16.8431   24.2273 C   0  0  0  0  0  0  0  0  0  0  0  0
   13.2128  -17.9134   23.5951 O   0  0  0  0  0  0  0  0  0  0  0  0
   12.5782  -16.7070   25.5330 C   0  0  0  0  0  0  0  0  0  0  0  0
   11.4091  -17.6084   25.7480 C   0  0  0  0  0  0  0  0  0  0  0  0
   10.2390  -16.9938   26.4460 C   0  0  2  0  0  0  0  0  0  0  0  0
    9.7250  -15.9209   25.5978 N   0  0  0  0  0  0  0  0  0  0  0  0
   10.5385  -16.5188   27.7992 C   0  0  0  0  0  0  0  0  0  0  0  0
   10.8849  -17.4333   28.8029 O   0  0  0  0  0  0  0  0  0  0  0  0
   10.5081  -15.3130   28.1432 O   0  0  0  0  0  0  0  0  0  0  0  0
  2  1  1  6
  2 13  1  0
  2  3  1  0
  4  5  2  0
  4  3  1  0
  6  5  1  0
  7 12  2  0
  7  6  1  0
  8  7  1  0
  9  8  2  0
  9 10  1  0
 10 11  2  0
 11 12  1  0
 12  4  1  0
 13 14  2  0
 16 15  1  0
 17 18  1  0
 17 16  1  0
 19 18  1  1
 19 21  1  0
 20 19  1  0
 20 13  1  0
 21 22  2  0
 23 24  1  0
 24 26  1  0
 24 25  2  0
 26 27  1  0
 28 27  1  6
 28 30  1  0
 29 21  1  0
 29 28  1  0
 30 32  2  0
 30 31  1  0
M  END
$$$$
