WMQ.pdb
     RDKit          3D

 32 33  0  0  1  0  0  0  0  0999 V2000
    6.2086  -17.8165   24.7231 N   0  0  0  0  0  0  0  0  0  0  0  0
    6.8915  -16.8048   23.9756 C   0  0  1  0  0  0  0  0  0  0  0  0
    7.7161  -15.8579   24.7877 C   0  0  0  0  0  0  0  0  0  0  0  0
    6.9146  -14.8772   25.5424 C   0  0  0  0  0  0  0  0  0  0  0  0
    5.7127  -15.1367   26.1389 C   0  0  0  0  0  0  0  0  0  0  0  0
    5.3169  -14.0068   26.7378 N   0  0  0  0  0  0  0  0  0  0  0  0
    6.2271  -13.0385   26.5412 C   0  0  0  0  0  0  0  0  0  0  0  0
    6.2967  -11.7266   26.9305 C   0  0  0  0  0  0  0  0  0  0  0  0
    7.3553  -10.9127   26.5922 C   0  0  0  0  0  0  0  0  0  0  0  0
    8.3775  -11.4449   25.8342 C   0  0  0  0  0  0  0  0  0  0  0  0
    8.3214  -12.7638   25.4349 C   0  0  0  0  0  0  0  0  0  0  0  0
    7.2522  -13.5710   25.7824 C   0  0  0  0  0  0  0  0  0  0  0  0
    7.8162  -17.4869   23.0040 C   0  0  0  0  0  0  0  0  0  0  0  0
    8.5835  -18.3985   23.4030 O   0  0  0  0  0  0  0  0  0  0  0  0
    9.1521  -12.3628   19.9728 C   0  0  0  0  0  0  0  0  0  0  0  0
    7.6536  -13.2129   19.3484 S   0  0  0  0  0  0  0  0  0  0  0  0
    7.7930  -14.9491   19.7977 C   0  0  0  0  0  0  0  0  0  0  0  0
    8.9405  -15.2370   20.7014 C   0  0  0  0  0  0  0  0  0  0  0  0
    9.1122  -16.7053   21.0448 C   0  0  2  0  0  0  0  0  0  0  0  0
    7.8639  -17.1448   21.6367 N   0  0  0  0  0  0  0  0  0  0  0  0
   10.2369  -16.8872   22.0089 C   0  0  0  0  0  0  0  0  0  0  0  0
   10.4813  -16.0571   22.9146 O   0  0  0  0  0  0  0  0  0  0  0  0
   13.9736  -19.0257   17.8413 N   0  0  0  0  0  0  0  0  0  0  0  0
   14.6280  -18.5555   19.0009 C   0  0  0  0  0  0  0  0  0  0  0  0
   15.6640  -19.1384   19.3654 O   0  0  0  0  0  0  0  0  0  0  0  0
   14.0886  -17.4102   19.7461 C   0  0  0  0  0  0  0  0  0  0  0  0
   12.6832  -17.5697   20.2203 C   0  0  0  0  0  0  0  0  0  0  0  0
   12.5246  -17.9273   21.6628 C   0  0  2  0  0  0  0  0  0  0  0  0
   11.0943  -18.0256   21.9449 N   0  0  0  0  0  0  0  0  0  0  0  0
   13.1956  -17.0028   22.5802 C   0  0  0  0  0  0  0  0  0  0  0  0
   12.5288  -15.8563   23.0326 O   0  0  0  0  0  0  0  0  0  0  0  0
   14.3635  -17.1625   23.0087 O   0  0  0  0  0  0  0  0  0  0  0  0
  2  1  1  1
  2 13  1  0
  2  3  1  0
  4  5  2  0
  4  3  1  0
  6  5  1  0
  7 12  2  0
  7  6  1  0
  8  7  1  0
  9  8  2  0
  9 10  1  0
 10 11  2  0
 11 12  1  0
 12  4  1  0
 13 14  2  0
 16 15  1  0
 17 18  1  0
 17 16  1  0
 19 18  1  1
 19 21  1  0
 20 19  1  0
 20 13  1  0
 21 22  2  0
 23 24  1  0
 24 26  1  0
 24 25  2  0
 26 27  1  0
 28 27  1  6
 28 30  1  0
 29 21  1  0
 29 28  1  0
 30 32  2  0
 30 31  1  0
M  END
$$$$
