WMQ.pdb
     RDKit          3D

 32 33  0  0  1  0  0  0  0  0999 V2000
    9.2036  -15.6860   19.6827 N   0  0  0  0  0  0  0  0  0  0  0  0
    9.0748  -16.3996   20.9167 C   0  0  1  0  0  0  0  0  0  0  0  0
   10.0473  -17.5188   21.1116 C   0  0  0  0  0  0  0  0  0  0  0  0
    9.8628  -18.6314   20.1620 C   0  0  0  0  0  0  0  0  0  0  0  0
    9.9786  -18.5331   18.8037 C   0  0  0  0  0  0  0  0  0  0  0  0
    9.7619  -19.7540   18.2995 N   0  0  0  0  0  0  0  0  0  0  0  0
    9.5120  -20.6242   19.2919 C   0  0  0  0  0  0  0  0  0  0  0  0
    9.2289  -21.9647   19.3120 C   0  0  0  0  0  0  0  0  0  0  0  0
    8.9988  -22.6518   20.4835 C   0  0  0  0  0  0  0  0  0  0  0  0
    9.0571  -21.9584   21.6745 C   0  0  0  0  0  0  0  0  0  0  0  0
    9.3410  -20.6088   21.6701 C   0  0  0  0  0  0  0  0  0  0  0  0
    9.5709  -19.9305   20.4859 C   0  0  0  0  0  0  0  0  0  0  0  0
    9.2806  -15.4240   22.0435 C   0  0  0  0  0  0  0  0  0  0  0  0
   10.4248  -14.9542   22.2653 O   0  0  0  0  0  0  0  0  0  0  0  0
    6.9992  -10.7951   26.9919 C   0  0  0  0  0  0  0  0  0  0  0  0
    6.0930  -12.3628   26.7108 S   0  0  0  0  0  0  0  0  0  0  0  0
    7.3020  -13.6043   26.2283 C   0  0  0  0  0  0  0  0  0  0  0  0
    7.2461  -13.9555   24.7827 C   0  0  0  0  0  0  0  0  0  0  0  0
    8.5031  -14.6202   24.2523 C   0  0  2  0  0  0  0  0  0  0  0  0
    8.2274  -15.0015   22.8810 N   0  0  0  0  0  0  0  0  0  0  0  0
    8.8407  -15.8235   25.0683 C   0  0  0  0  0  0  0  0  0  0  0  0
    7.9914  -16.7007   25.3481 O   0  0  0  0  0  0  0  0  0  0  0  0
   15.5084  -16.7863   25.8313 N   0  0  0  0  0  0  0  0  0  0  0  0
   14.2453  -16.8665   25.2050 C   0  0  0  0  0  0  0  0  0  0  0  0
   14.2111  -17.1012   23.9845 O   0  0  0  0  0  0  0  0  0  0  0  0
   13.0154  -16.6749   25.9850 C   0  0  0  0  0  0  0  0  0  0  0  0
   11.9204  -17.6433   25.6869 C   0  0  0  0  0  0  0  0  0  0  0  0
   10.5721  -17.2778   26.2183 C   0  0  2  0  0  0  0  0  0  0  0  0
   10.1586  -16.0341   25.5724 N   0  0  0  0  0  0  0  0  0  0  0  0
   10.5186  -17.1739   27.6787 C   0  0  0  0  0  0  0  0  0  0  0  0
   10.1295  -15.9706   28.2825 O   0  0  0  0  0  0  0  0  0  0  0  0
   10.8041  -18.1121   28.4606 O   0  0  0  0  0  0  0  0  0  0  0  0
  2  1  1  6
  2 13  1  0
  2  3  1  0
  4  5  2  0
  4  3  1  0
  6  5  1  0
  7 12  2  0
  7  6  1  0
  8  7  1  0
  9  8  2  0
  9 10  1  0
 10 11  2  0
 11 12  1  0
 12  4  1  0
 13 14  2  0
 16 15  1  0
 17 18  1  0
 17 16  1  0
 19 18  1  1
 19 21  1  0
 20 19  1  0
 20 13  1  0
 21 22  2  0
 23 24  1  0
 24 26  1  0
 24 25  2  0
 26 27  1  0
 28 27  1  1
 28 30  1  0
 29 21  1  0
 29 28  1  0
 30 32  2  0
 30 31  1  0
M  END
$$$$
