WMQ.pdb
     RDKit          3D

 32 33  0  0  1  0  0  0  0  0999 V2000
    6.2095  -18.3089   24.6670 N   0  0  0  0  0  0  0  0  0  0  0  0
    6.7992  -17.0224   24.4529 C   0  0  1  0  0  0  0  0  0  0  0  0
    7.3968  -16.3839   25.6660 C   0  0  0  0  0  0  0  0  0  0  0  0
    6.7232  -15.1350   26.0664 C   0  0  0  0  0  0  0  0  0  0  0  0
    5.3702  -14.9675   26.1624 C   0  0  0  0  0  0  0  0  0  0  0  0
    5.1559  -13.7115   26.5730 N   0  0  0  0  0  0  0  0  0  0  0  0
    6.3274  -13.0758   26.7404 C   0  0  0  0  0  0  0  0  0  0  0  0
    6.6546  -11.8048   27.1340 C   0  0  0  0  0  0  0  0  0  0  0  0
    7.9600  -11.3748   27.2257 C   0  0  0  0  0  0  0  0  0  0  0  0
    8.9679  -12.2612   26.9080 C   0  0  0  0  0  0  0  0  0  0  0  0
    8.6541  -13.5440   26.5103 C   0  0  0  0  0  0  0  0  0  0  0  0
    7.3381  -13.9636   26.4231 C   0  0  0  0  0  0  0  0  0  0  0  0
    7.8993  -17.1765   23.4380 C   0  0  0  0  0  0  0  0  0  0  0  0
    8.4883  -18.2795   23.3141 O   0  0  0  0  0  0  0  0  0  0  0  0
    6.1371  -12.4050   19.8404 C   0  0  0  0  0  0  0  0  0  0  0  0
    7.9001  -12.8619   20.0428 S   0  0  0  0  0  0  0  0  0  0  0  0
    7.9679  -14.6387   20.3150 C   0  0  0  0  0  0  0  0  0  0  0  0
    9.3236  -15.1302   20.6847 C   0  0  0  0  0  0  0  0  0  0  0  0
    9.3210  -16.3504   21.5872 C   0  0  2  0  0  0  0  0  0  0  0  0
    8.3098  -16.1190   22.5999 N   0  0  0  0  0  0  0  0  0  0  0  0
   10.6598  -16.5324   22.2217 C   0  0  0  0  0  0  0  0  0  0  0  0
   11.0903  -15.7579   23.1070 O   0  0  0  0  0  0  0  0  0  0  0  0
   11.1479  -19.6750   24.6488 N   0  0  0  0  0  0  0  0  0  0  0  0
   12.4726  -19.6939   24.1600 C   0  0  0  0  0  0  0  0  0  0  0  0
   13.3897  -19.3907   24.9428 O   0  0  0  0  0  0  0  0  0  0  0  0
   12.7447  -20.0623   22.7642 C   0  0  0  0  0  0  0  0  0  0  0  0
   13.4439  -19.0187   21.9596 C   0  0  0  0  0  0  0  0  0  0  0  0
   12.9501  -17.6203   22.1462 C   0  0  2  0  0  0  0  0  0  0  0  0
   11.5200  -17.6071   21.8472 N   0  0  0  0  0  0  0  0  0  0  0  0
   13.6782  -16.6241   21.3563 C   0  0  0  0  0  0  0  0  0  0  0  0
   15.0410  -16.4002   21.5939 O   0  0  0  0  0  0  0  0  0  0  0  0
   13.1586  -15.9297   20.4501 O   0  0  0  0  0  0  0  0  0  0  0  0
  2  1  1  1
  2 13  1  0
  2  3  1  0
  4  5  2  0
  4  3  1  0
  6  5  1  0
  7 12  2  0
  7  6  1  0
  8  7  1  0
  9  8  2  0
  9 10  1  0
 10 11  2  0
 11 12  1  0
 12  4  1  0
 13 14  2  0
 16 15  1  0
 17 18  1  0
 17 16  1  0
 19 18  1  6
 19 21  1  0
 20 19  1  0
 20 13  1  0
 21 22  2  0
 23 24  1  0
 24 26  1  0
 24 25  2  0
 26 27  1  0
 28 27  1  6
 28 30  1  0
 29 21  1  0
 29 28  1  0
 30 32  2  0
 30 31  1  0
M  END
$$$$
