DQK.pdb
     RDKit          3D

 27 26  0  0  1  0  0  0  0  0999 V2000
   10.5003  -18.7215   17.4276 N   0  0  0  0  0  0  0  0  0  0  0  0
   11.8079  -18.3678   17.9365 C   0  0  1  0  0  0  0  0  0  0  0  0
   12.5228  -17.5923   16.8769 C   0  0  0  0  0  0  0  0  0  0  0  0
   12.8190  -18.4876   15.7327 C   0  0  0  0  0  0  0  0  0  0  0  0
   11.9196  -19.0091   15.0150 O   0  0  0  0  0  0  0  0  0  0  0  0
   11.6371  -17.5099   19.1598 C   0  0  0  0  0  0  0  0  0  0  0  0
   12.6155  -17.2310   19.9010 O   0  0  0  0  0  0  0  0  0  0  0  0
   14.1274  -18.7901   15.4039 O   0  0  0  0  0  0  0  0  0  0  0  0
    6.8583  -13.4381   20.4125 N   0  0  0  0  0  0  0  0  0  0  0  0
    7.6588  -13.6250   19.2392 C   0  0  0  0  0  0  0  0  0  0  0  0
    7.2994  -12.9859   18.2218 O   0  0  0  0  0  0  0  0  0  0  0  0
    8.8222  -14.5279   19.3055 C   0  0  0  0  0  0  0  0  0  0  0  0
    9.0736  -15.1715   20.6029 C   0  0  0  0  0  0  0  0  0  0  0  0
   10.1188  -16.2136   20.7135 C   0  0  2  0  0  0  0  0  0  0  0  0
   10.3750  -16.9795   19.5317 N   0  0  0  0  0  0  0  0  0  0  0  0
    9.9862  -17.0693   21.9276 C   0  0  0  0  0  0  0  0  0  0  0  0
    9.1450  -18.0011   22.0046 O   0  0  0  0  0  0  0  0  0  0  0  0
   10.8121  -16.8677   23.0614 N   0  0  0  0  0  0  0  0  0  0  0  0
   10.6744  -17.7631   24.2247 C   0  0  1  0  0  0  0  0  0  0  0  0
   11.8009  -18.7451   24.1633 C   0  0  0  0  0  0  0  0  0  0  0  0
   11.7675  -19.7471   25.2758 C   0  0  0  0  0  0  0  0  0  0  0  0
   13.0131  -20.6289   25.2368 C   0  0  0  0  0  0  0  0  0  0  0  0
   12.8885  -21.6925   26.3316 C   0  0  0  0  0  0  0  0  0  0  0  0
   14.0733  -22.5222   26.2635 N   0  0  0  0  0  0  0  0  0  0  0  0
   10.8424  -16.9192   25.4293 C   0  0  0  0  0  0  0  0  0  0  0  0
   11.2553  -15.7354   25.3924 O   0  0  0  0  0  0  0  0  0  0  0  0
   10.5393  -17.4247   26.6802 O   0  0  0  0  0  0  0  0  0  0  0  0
  2  3  1  0
  2  1  1  6
  3  4  1  0
  4  8  1  0
  5  4  2  0
  6  2  1  0
  7  6  2  0
  9 10  1  0
 10 12  1  0
 10 11  2  0
 12 13  1  0
 14 13  1  6
 14 15  1  0
 15  6  1  0
 16 17  2  0
 16 14  1  0
 18 16  1  0
 19 18  1  0
 19 20  1  6
 20 21  1  0
 21 22  1  0
 23 22  1  0
 23 24  1  0
 25 19  1  0
 26 25  2  0
 27 25  1  0
M  END
$$$$
