DQK.pdb
     RDKit          3D

 27 26  0  0  1  0  0  0  0  0999 V2000
   11.2391  -18.6622   16.5349 N   0  0  0  0  0  0  0  0  0  0  0  0
   10.1932  -18.8959   17.5072 C   0  0  1  0  0  0  0  0  0  0  0  0
   10.3286  -20.2993   18.0046 C   0  0  0  0  0  0  0  0  0  0  0  0
   10.0326  -21.2403   16.8975 C   0  0  0  0  0  0  0  0  0  0  0  0
    9.1176  -21.0408   16.0497 O   0  0  0  0  0  0  0  0  0  0  0  0
   10.3708  -17.9365   18.6516 C   0  0  0  0  0  0  0  0  0  0  0  0
   11.4941  -17.7732   19.1955 O   0  0  0  0  0  0  0  0  0  0  0  0
   10.7698  -22.4009   16.7525 O   0  0  0  0  0  0  0  0  0  0  0  0
    6.9273  -12.7371   20.0126 N   0  0  0  0  0  0  0  0  0  0  0  0
    7.6775  -13.0914   18.8447 C   0  0  0  0  0  0  0  0  0  0  0  0
    7.5327  -12.3408   17.8505 O   0  0  0  0  0  0  0  0  0  0  0  0
    8.5489  -14.2795   18.8895 C   0  0  0  0  0  0  0  0  0  0  0  0
    8.5603  -15.0310   20.1528 C   0  0  0  0  0  0  0  0  0  0  0  0
    9.3725  -16.2633   20.2650 C   0  0  2  0  0  0  0  0  0  0  0  0
    9.2888  -17.1774   19.1667 N   0  0  0  0  0  0  0  0  0  0  0  0
    9.2456  -16.9470   21.5842 C   0  0  0  0  0  0  0  0  0  0  0  0
    8.2150  -17.5887   21.9124 O   0  0  0  0  0  0  0  0  0  0  0  0
   10.2934  -16.9032   22.5373 N   0  0  0  0  0  0  0  0  0  0  0  0
   10.1255  -17.5943   23.8289 C   0  0  1  0  0  0  0  0  0  0  0  0
   11.4886  -17.9921   24.2986 C   0  0  0  0  0  0  0  0  0  0  0  0
   11.4764  -18.6562   25.6409 C   0  0  0  0  0  0  0  0  0  0  0  0
   12.8968  -19.0128   26.0723 C   0  0  0  0  0  0  0  0  0  0  0  0
   12.8218  -19.7992   27.3843 C   0  0  0  0  0  0  0  0  0  0  0  0
   14.1810  -20.0839   27.7946 N   0  0  0  0  0  0  0  0  0  0  0  0
    9.5679  -16.5983   24.7714 C   0  0  0  0  0  0  0  0  0  0  0  0
    9.6050  -15.3606   24.5718 O   0  0  0  0  0  0  0  0  0  0  0  0
    8.9659  -17.0127   25.9454 O   0  0  0  0  0  0  0  0  0  0  0  0
  2  3  1  0
  2  1  1  6
  3  4  1  0
  4  8  1  0
  5  4  2  0
  6  2  1  0
  7  6  2  0
  9 10  1  0
 10 12  1  0
 10 11  2  0
 12 13  1  0
 14 13  1  6
 14 15  1  0
 15  6  1  0
 16 17  2  0
 16 14  1  0
 18 16  1  0
 19 18  1  0
 19 20  1  1
 20 21  1  0
 21 22  1  0
 23 22  1  0
 23 24  1  0
 25 19  1  0
 26 25  2  0
 27 25  1  0
M  END
$$$$
