DQK.pdb
     RDKit          3D

 27 26  0  0  1  0  0  0  0  0999 V2000
    9.3298  -18.3241   19.2007 N   0  0  0  0  0  0  0  0  0  0  0  0
    8.4827  -17.1509   19.2053 C   0  0  1  0  0  0  0  0  0  0  0  0
    7.4185  -17.3444   18.1731 C   0  0  0  0  0  0  0  0  0  0  0  0
    8.0311  -17.2895   16.8240 C   0  0  0  0  0  0  0  0  0  0  0  0
    8.5741  -18.2879   16.2726 O   0  0  0  0  0  0  0  0  0  0  0  0
    7.8493  -17.0145   20.5624 C   0  0  0  0  0  0  0  0  0  0  0  0
    7.0215  -16.0979   20.8052 O   0  0  0  0  0  0  0  0  0  0  0  0
    8.0282  -16.1091   16.1040 O   0  0  0  0  0  0  0  0  0  0  0  0
    7.8632  -21.4887   25.1836 N   0  0  0  0  0  0  0  0  0  0  0  0
    7.3153  -20.3514   25.8609 C   0  0  0  0  0  0  0  0  0  0  0  0
    6.9501  -20.5411   27.0455 O   0  0  0  0  0  0  0  0  0  0  0  0
    7.2236  -19.0681   25.1413 C   0  0  0  0  0  0  0  0  0  0  0  0
    7.5952  -19.0913   23.7193 C   0  0  0  0  0  0  0  0  0  0  0  0
    7.6095  -17.8299   22.9451 C   0  0  2  0  0  0  0  0  0  0  0  0
    8.1534  -17.9059   21.6233 N   0  0  0  0  0  0  0  0  0  0  0  0
    8.1360  -16.6629   23.7099 C   0  0  0  0  0  0  0  0  0  0  0  0
    9.3677  -16.4574   23.8591 O   0  0  0  0  0  0  0  0  0  0  0  0
    7.2609  -15.7230   24.3092 N   0  0  0  0  0  0  0  0  0  0  0  0
    7.8231  -14.6191   25.1088 C   0  0  1  0  0  0  0  0  0  0  0  0
    6.6886  -13.7167   25.4768 C   0  0  0  0  0  0  0  0  0  0  0  0
    7.1177  -12.5378   26.2948 C   0  0  0  0  0  0  0  0  0  0  0  0
    5.9246  -11.6335   26.5937 C   0  0  0  0  0  0  0  0  0  0  0  0
    6.4192  -10.4296   27.4009 C   0  0  0  0  0  0  0  0  0  0  0  0
    5.2775   -9.5713   27.6384 N   0  0  0  0  0  0  0  0  0  0  0  0
    8.3688  -15.2272   26.3432 C   0  0  0  0  0  0  0  0  0  0  0  0
    7.8846  -16.2507   26.8826 O   0  0  0  0  0  0  0  0  0  0  0  0
    9.4698  -14.6680   26.9658 O   0  0  0  0  0  0  0  0  0  0  0  0
  2  3  1  0
  2  1  1  1
  3  4  1  0
  4  8  1  0
  5  4  2  0
  6  2  1  0
  7  6  2  0
  9 10  1  0
 10 12  1  0
 10 11  2  0
 12 13  1  0
 14 13  1  1
 14 15  1  0
 15  6  1  0
 16 17  2  0
 16 14  1  0
 18 16  1  0
 19 18  1  0
 19 20  1  1
 20 21  1  0
 21 22  1  0
 23 22  1  0
 23 24  1  0
 25 19  1  0
 26 25  2  0
 27 25  1  0
M  END
$$$$
