DQK.pdb
     RDKit          3D

 27 26  0  0  1  0  0  0  0  0999 V2000
   15.0502  -18.1303   10.4941 N   0  0  0  0  0  0  0  0  0  0  0  0
   15.8941  -19.0200   11.2623 C   0  0  1  0  0  0  0  0  0  0  0  0
   17.2721  -18.9641   10.6852 C   0  0  0  0  0  0  0  0  0  0  0  0
   17.3392  -19.8458    9.4950 C   0  0  0  0  0  0  0  0  0  0  0  0
   16.3137  -20.2463    8.8755 O   0  0  0  0  0  0  0  0  0  0  0  0
   15.9261  -18.5472   12.6896 C   0  0  0  0  0  0  0  0  0  0  0  0
   16.8496  -17.8011   13.1074 O   0  0  0  0  0  0  0  0  0  0  0  0
   18.5620  -20.2711    9.0098 O   0  0  0  0  0  0  0  0  0  0  0  0
   11.0535  -18.9587   16.9106 N   0  0  0  0  0  0  0  0  0  0  0  0
   11.0784  -18.1871   15.7038 C   0  0  0  0  0  0  0  0  0  0  0  0
    9.9752  -17.7288   15.3223 O   0  0  0  0  0  0  0  0  0  0  0  0
   12.3645  -17.9852   15.0123 C   0  0  0  0  0  0  0  0  0  0  0  0
   13.5466  -18.5843   15.6483 C   0  0  0  0  0  0  0  0  0  0  0  0
   14.8661  -18.4821   14.9856 C   0  0  2  0  0  0  0  0  0  0  0  0
   14.9244  -18.9177   13.6233 N   0  0  0  0  0  0  0  0  0  0  0  0
   15.9909  -19.0210   15.8031 C   0  0  0  0  0  0  0  0  0  0  0  0
   16.4279  -20.1912   15.6567 O   0  0  0  0  0  0  0  0  0  0  0  0
   16.6245  -18.2287   16.7925 N   0  0  0  0  0  0  0  0  0  0  0  0
   17.7951  -18.7667   17.5096 C   0  0  1  0  0  0  0  0  0  0  0  0
   18.8104  -17.6710   17.5843 C   0  0  0  0  0  0  0  0  0  0  0  0
   20.0888  -18.0989   18.2367 C   0  0  0  0  0  0  0  0  0  0  0  0
   21.0660  -16.9285   18.3136 C   0  0  0  0  0  0  0  0  0  0  0  0
   22.3571  -17.4177   18.9762 C   0  0  0  0  0  0  0  0  0  0  0  0
   23.2323  -16.2723   19.1133 N   0  0  0  0  0  0  0  0  0  0  0  0
   17.3390  -19.0889   18.8805 C   0  0  0  0  0  0  0  0  0  0  0  0
   16.5309  -18.3789   19.5254 O   0  0  0  0  0  0  0  0  0  0  0  0
   17.8046  -20.2234   19.5196 O   0  0  0  0  0  0  0  0  0  0  0  0
  2  3  1  0
  2  1  1  6
  3  4  1  0
  4  8  1  0
  5  4  2  0
  6  2  1  0
  7  6  2  0
  9 10  1  0
 10 12  1  0
 10 11  2  0
 12 13  1  0
 14 13  1  1
 14 15  1  0
 15  6  1  0
 16 17  2  0
 16 14  1  0
 18 16  1  0
 19 18  1  0
 19 20  1  1
 20 21  1  0
 21 22  1  0
 23 22  1  0
 23 24  1  0
 25 19  1  0
 26 25  2  0
 27 25  1  0
M  END
$$$$
