DQK.pdb
     RDKit          3D

 27 26  0  0  1  0  0  0  0  0999 V2000
   10.0355  -15.5409   17.2544 N   0  0  0  0  0  0  0  0  0  0  0  0
    9.1111  -14.6095   17.8644 C   0  0  1  0  0  0  0  0  0  0  0  0
    7.8837  -14.5506   17.0127 C   0  0  0  0  0  0  0  0  0  0  0  0
    8.2566  -14.1027   15.6494 C   0  0  0  0  0  0  0  0  0  0  0  0
    9.3657  -14.3803   15.1120 O   0  0  0  0  0  0  0  0  0  0  0  0
    8.7495  -15.1116   19.2351 C   0  0  0  0  0  0  0  0  0  0  0  0
    7.9062  -14.5075   19.9480 O   0  0  0  0  0  0  0  0  0  0  0  0
    7.3771  -13.3441   14.8993 O   0  0  0  0  0  0  0  0  0  0  0  0
    8.4884  -20.5895   22.3452 N   0  0  0  0  0  0  0  0  0  0  0  0
    8.6606  -20.4637   20.9286 C   0  0  0  0  0  0  0  0  0  0  0  0
    8.2139  -21.4082   20.2351 O   0  0  0  0  0  0  0  0  0  0  0  0
    9.3295  -19.2633   20.3949 C   0  0  0  0  0  0  0  0  0  0  0  0
    9.5757  -18.1755   21.3524 C   0  0  0  0  0  0  0  0  0  0  0  0
    9.0450  -16.8218   21.0756 C   0  0  2  0  0  0  0  0  0  0  0  0
    9.3378  -16.2803   19.7834 N   0  0  0  0  0  0  0  0  0  0  0  0
    9.2974  -15.8431   22.1722 C   0  0  0  0  0  0  0  0  0  0  0  0
   10.4142  -15.2879   22.3338 O   0  0  0  0  0  0  0  0  0  0  0  0
    8.2776  -15.4915   23.0913 N   0  0  0  0  0  0  0  0  0  0  0  0
    8.5569  -14.4840   24.1309 C   0  0  1  0  0  0  0  0  0  0  0  0
    7.2551  -13.8356   24.4801 C   0  0  0  0  0  0  0  0  0  0  0  0
    7.3606  -12.8946   25.6404 C   0  0  0  0  0  0  0  0  0  0  0  0
    5.9942  -12.2983   25.9692 C   0  0  0  0  0  0  0  0  0  0  0  0
    6.1479  -11.3729   27.1798 C   0  0  0  0  0  0  0  0  0  0  0  0
    4.8342  -10.8503   27.4925 N   0  0  0  0  0  0  0  0  0  0  0  0
    9.0538  -15.2235   25.3130 C   0  0  0  0  0  0  0  0  0  0  0  0
    9.6912  -14.6839   26.2488 O   0  0  0  0  0  0  0  0  0  0  0  0
    8.8243  -16.5821   25.4303 O   0  0  0  0  0  0  0  0  0  0  0  0
  2  3  1  0
  2  1  1  6
  3  4  1  0
  4  8  1  0
  5  4  2  0
  6  2  1  0
  7  6  2  0
  9 10  1  0
 10 12  1  0
 10 11  2  0
 12 13  1  0
 14 13  1  1
 14 15  1  0
 15  6  1  0
 16 17  2  0
 16 14  1  0
 18 16  1  0
 19 18  1  0
 19 20  1  1
 20 21  1  0
 21 22  1  0
 23 22  1  0
 23 24  1  0
 25 19  1  0
 26 25  2  0
 27 25  1  0
M  END
$$$$
