DQK.pdb
     RDKit          3D

 27 26  0  0  1  0  0  0  0  0999 V2000
    9.9465  -18.2754   17.5900 N   0  0  0  0  0  0  0  0  0  0  0  0
   10.8760  -17.9643   18.6545 C   0  0  1  0  0  0  0  0  0  0  0  0
   11.6745  -16.7709   18.2378 C   0  0  0  0  0  0  0  0  0  0  0  0
   12.6670  -17.1804   17.2152 C   0  0  0  0  0  0  0  0  0  0  0  0
   12.5668  -16.8705   15.9947 O   0  0  0  0  0  0  0  0  0  0  0  0
   10.0976  -17.6398   19.8996 C   0  0  0  0  0  0  0  0  0  0  0  0
    8.9941  -17.0374   19.8388 O   0  0  0  0  0  0  0  0  0  0  0  0
   13.7671  -17.9370   17.5743 O   0  0  0  0  0  0  0  0  0  0  0  0
    9.9160  -21.7504   24.5335 N   0  0  0  0  0  0  0  0  0  0  0  0
    9.2597  -20.6520   25.1776 C   0  0  0  0  0  0  0  0  0  0  0  0
    8.8022  -20.8806   26.3226 O   0  0  0  0  0  0  0  0  0  0  0  0
    9.1720  -19.3604   24.4725 C   0  0  0  0  0  0  0  0  0  0  0  0
    9.8047  -19.2980   23.1472 C   0  0  0  0  0  0  0  0  0  0  0  0
    9.7678  -18.0350   22.3764 C   0  0  2  0  0  0  0  0  0  0  0  0
   10.5677  -17.9952   21.1900 N   0  0  0  0  0  0  0  0  0  0  0  0
    9.9367  -16.8146   23.2167 C   0  0  0  0  0  0  0  0  0  0  0  0
   11.0651  -16.4143   23.6015 O   0  0  0  0  0  0  0  0  0  0  0  0
    8.8196  -16.0432   23.6233 N   0  0  0  0  0  0  0  0  0  0  0  0
    9.0168  -14.9247   24.5635 C   0  0  1  0  0  0  0  0  0  0  0  0
    7.6886  -14.2623   24.7483 C   0  0  0  0  0  0  0  0  0  0  0  0
    7.7342  -13.1131   25.7076 C   0  0  0  0  0  0  0  0  0  0  0  0
    6.3473  -12.4946   25.8650 C   0  0  0  0  0  0  0  0  0  0  0  0
    6.4480  -11.3219   26.8448 C   0  0  0  0  0  0  0  0  0  0  0  0
    5.1132  -10.7872   27.0159 N   0  0  0  0  0  0  0  0  0  0  0  0
    9.4343  -15.5240   25.8511 C   0  0  0  0  0  0  0  0  0  0  0  0
   10.2817  -15.0022   26.6145 O   0  0  0  0  0  0  0  0  0  0  0  0
    8.8850  -16.7216   26.2712 O   0  0  0  0  0  0  0  0  0  0  0  0
  2  3  1  0
  2  1  1  6
  3  4  1  0
  4  8  1  0
  5  4  2  0
  6  2  1  0
  7  6  2  0
  9 10  1  0
 10 12  1  0
 10 11  2  0
 12 13  1  0
 14 13  1  1
 14 15  1  0
 15  6  1  0
 16 17  2  0
 16 14  1  0
 18 16  1  0
 19 18  1  0
 19 20  1  1
 20 21  1  0
 21 22  1  0
 23 22  1  0
 23 24  1  0
 25 19  1  0
 26 25  2  0
 27 25  1  0
M  END
$$$$
