DQK.pdb
     RDKit          3D

 27 26  0  0  1  0  0  0  0  0999 V2000
    7.4487  -18.1265   18.3583 N   0  0  0  0  0  0  0  0  0  0  0  0
    8.4780  -17.2656   18.8999 C   0  0  1  0  0  0  0  0  0  0  0  0
    8.2828  -15.8966   18.3315 C   0  0  0  0  0  0  0  0  0  0  0  0
    8.7962  -15.8676   16.9408 C   0  0  0  0  0  0  0  0  0  0  0  0
    9.3418  -16.8632   16.3868 O   0  0  0  0  0  0  0  0  0  0  0  0
    8.3317  -17.2155   20.3958 C   0  0  0  0  0  0  0  0  0  0  0  0
    7.1961  -17.1953   20.9383 O   0  0  0  0  0  0  0  0  0  0  0  0
    8.6915  -14.7164   16.1823 O   0  0  0  0  0  0  0  0  0  0  0  0
   12.2190  -20.2062   24.2529 N   0  0  0  0  0  0  0  0  0  0  0  0
   11.3038  -19.6156   25.1834 C   0  0  0  0  0  0  0  0  0  0  0  0
   11.4336  -19.9679   26.3800 O   0  0  0  0  0  0  0  0  0  0  0  0
   10.3008  -18.6563   24.6867 C   0  0  0  0  0  0  0  0  0  0  0  0
   10.3211  -18.3827   23.2426 C   0  0  0  0  0  0  0  0  0  0  0  0
    9.4135  -17.3589   22.6780 C   0  0  2  0  0  0  0  0  0  0  0  0
    9.4583  -17.1890   21.2575 N   0  0  0  0  0  0  0  0  0  0  0  0
    9.4490  -16.0585   23.4072 C   0  0  0  0  0  0  0  0  0  0  0  0
   10.4764  -15.3339   23.4396 O   0  0  0  0  0  0  0  0  0  0  0  0
    8.3130  -15.5764   24.1038 N   0  0  0  0  0  0  0  0  0  0  0  0
    8.3837  -14.2720   24.7875 C   0  0  1  0  0  0  0  0  0  0  0  0
    6.9780  -13.8277   25.0399 C   0  0  0  0  0  0  0  0  0  0  0  0
    6.8968  -12.5076   25.7425 C   0  0  0  0  0  0  0  0  0  0  0  0
    5.4412  -12.1395   26.0192 C   0  0  0  0  0  0  0  0  0  0  0  0
    5.4038  -10.7346   26.6277 C   0  0  0  0  0  0  0  0  0  0  0  0
    4.0114  -10.3668   26.7781 N   0  0  0  0  0  0  0  0  0  0  0  0
    9.0489  -14.5123   26.0879 C   0  0  0  0  0  0  0  0  0  0  0  0
    9.5339  -13.5979   26.7962 O   0  0  0  0  0  0  0  0  0  0  0  0
    9.1622  -15.7982   26.5838 O   0  0  0  0  0  0  0  0  0  0  0  0
  2  3  1  0
  2  1  1  6
  3  4  1  0
  4  8  1  0
  5  4  2  0
  6  2  1  0
  7  6  2  0
  9 10  1  0
 10 12  1  0
 10 11  2  0
 12 13  1  0
 14 13  1  1
 14 15  1  0
 15  6  1  0
 16 17  2  0
 16 14  1  0
 18 16  1  0
 19 18  1  0
 19 20  1  1
 20 21  1  0
 21 22  1  0
 23 22  1  0
 23 24  1  0
 25 19  1  0
 26 25  2  0
 27 25  1  0
M  END
$$$$
