DQK.pdb
     RDKit          3D

 27 26  0  0  1  0  0  0  0  0999 V2000
   12.0108  -17.8367   17.5970 N   0  0  0  0  0  0  0  0  0  0  0  0
   12.3092  -18.4341   18.8807 C   0  0  1  0  0  0  0  0  0  0  0  0
   13.7820  -18.6838   18.9440 C   0  0  0  0  0  0  0  0  0  0  0  0
   14.1627  -19.6332   17.8706 C   0  0  0  0  0  0  0  0  0  0  0  0
   13.3304  -20.3826   17.2863 O   0  0  0  0  0  0  0  0  0  0  0  0
   11.9142  -17.4726   19.9675 C   0  0  0  0  0  0  0  0  0  0  0  0
   12.7708  -16.9935   20.7555 O   0  0  0  0  0  0  0  0  0  0  0  0
   15.4797  -19.7323   17.4617 O   0  0  0  0  0  0  0  0  0  0  0  0
    7.0740  -13.4011   19.8756 N   0  0  0  0  0  0  0  0  0  0  0  0
    7.4189  -13.3849   21.2659 C   0  0  0  0  0  0  0  0  0  0  0  0
    6.8105  -12.5466   21.9729 O   0  0  0  0  0  0  0  0  0  0  0  0
    8.4352  -14.3314   21.7601 C   0  0  0  0  0  0  0  0  0  0  0  0
    9.0611  -15.1992   20.7523 C   0  0  0  0  0  0  0  0  0  0  0  0
   10.1141  -16.1556   21.1611 C   0  0  2  0  0  0  0  0  0  0  0  0
   10.5683  -17.0645   20.1529 N   0  0  0  0  0  0  0  0  0  0  0  0
    9.8336  -16.8385   22.4569 C   0  0  0  0  0  0  0  0  0  0  0  0
    9.0301  -17.8016   22.5490 O   0  0  0  0  0  0  0  0  0  0  0  0
   10.4676  -16.4270   23.6557 N   0  0  0  0  0  0  0  0  0  0  0  0
   10.1532  -17.1243   24.9162 C   0  0  1  0  0  0  0  0  0  0  0  0
   11.4524  -17.4117   25.5991 C   0  0  0  0  0  0  0  0  0  0  0  0
   11.2833  -18.1127   26.9117 C   0  0  0  0  0  0  0  0  0  0  0  0
   12.6443  -18.4213   27.5306 C   0  0  0  0  0  0  0  0  0  0  0  0
   12.4289  -19.3215   28.7508 C   0  0  0  0  0  0  0  0  0  0  0  0
   13.7366  -19.7125   29.2343 N   0  0  0  0  0  0  0  0  0  0  0  0
    9.3795  -16.1718   25.7441 C   0  0  0  0  0  0  0  0  0  0  0  0
    9.4013  -14.9296   25.5719 O   0  0  0  0  0  0  0  0  0  0  0  0
    8.5783  -16.6349   26.7716 O   0  0  0  0  0  0  0  0  0  0  0  0
  2  3  1  0
  2  1  1  6
  3  4  1  0
  4  8  1  0
  5  4  2  0
  6  2  1  0
  7  6  2  0
  9 10  1  0
 10 12  1  0
 10 11  2  0
 12 13  1  0
 14 13  1  6
 14 15  1  0
 15  6  1  0
 16 17  2  0
 16 14  1  0
 18 16  1  0
 19 18  1  0
 19 20  1  1
 20 21  1  0
 21 22  1  0
 23 22  1  0
 23 24  1  0
 25 19  1  0
 26 25  2  0
 27 25  1  0
M  END
$$$$
