DQK.pdb
     RDKit          3D

 27 26  0  0  1  0  0  0  0  0999 V2000
   10.0113  -18.4129   16.3984 N   0  0  0  0  0  0  0  0  0  0  0  0
   11.2981  -17.7650   16.5338 C   0  0  1  0  0  0  0  0  0  0  0  0
   11.4458  -16.7895   15.4104 C   0  0  0  0  0  0  0  0  0  0  0  0
   12.0300  -17.4817   14.2365 C   0  0  0  0  0  0  0  0  0  0  0  0
   12.5190  -16.8670   13.2471 O   0  0  0  0  0  0  0  0  0  0  0  0
   11.3368  -17.0316   17.8461 C   0  0  0  0  0  0  0  0  0  0  0  0
   12.4062  -16.9263   18.5015 O   0  0  0  0  0  0  0  0  0  0  0  0
   12.0597  -18.8630   14.1844 O   0  0  0  0  0  0  0  0  0  0  0  0
    7.1961  -12.6192   20.0665 N   0  0  0  0  0  0  0  0  0  0  0  0
    7.5083  -13.0436   18.7343 C   0  0  0  0  0  0  0  0  0  0  0  0
    6.9065  -12.4440   17.8118 O   0  0  0  0  0  0  0  0  0  0  0  0
    8.4922  -14.1243   18.5418 C   0  0  0  0  0  0  0  0  0  0  0  0
    9.1263  -14.6515   19.7586 C   0  0  0  0  0  0  0  0  0  0  0  0
   10.1302  -15.7339   19.6515 C   0  0  2  0  0  0  0  0  0  0  0  0
   10.1786  -16.4294   18.4014 N   0  0  0  0  0  0  0  0  0  0  0  0
   10.1379  -16.6621   20.8187 C   0  0  0  0  0  0  0  0  0  0  0  0
    9.3078  -17.5994   20.9377 O   0  0  0  0  0  0  0  0  0  0  0  0
   11.0924  -16.5271   21.8575 N   0  0  0  0  0  0  0  0  0  0  0  0
   11.0707  -17.4745   22.9870 C   0  0  1  0  0  0  0  0  0  0  0  0
   12.4125  -18.1334   23.0379 C   0  0  0  0  0  0  0  0  0  0  0  0
   12.6807  -19.0109   21.8542 C   0  0  0  0  0  0  0  0  0  0  0  0
   14.0905  -19.5918   21.9297 C   0  0  0  0  0  0  0  0  0  0  0  0
   14.2669  -20.5872   20.7793 C   0  0  0  0  0  0  0  0  0  0  0  0
   15.6564  -20.9943   20.7705 N   0  0  0  0  0  0  0  0  0  0  0  0
   10.8898  -16.6654   24.2134 C   0  0  0  0  0  0  0  0  0  0  0  0
   10.8734  -15.4112   24.2184 O   0  0  0  0  0  0  0  0  0  0  0  0
   10.7271  -17.2861   25.4383 O   0  0  0  0  0  0  0  0  0  0  0  0
  2  3  1  0
  2  1  1  6
  3  4  1  0
  4  8  1  0
  5  4  2  0
  6  2  1  0
  7  6  2  0
  9 10  1  0
 10 12  1  0
 10 11  2  0
 12 13  1  0
 14 13  1  6
 14 15  1  0
 15  6  1  0
 16 17  2  0
 16 14  1  0
 18 16  1  0
 19 18  1  0
 19 20  1  1
 20 21  1  0
 21 22  1  0
 23 22  1  0
 23 24  1  0
 25 19  1  0
 26 25  2  0
 27 25  1  0
M  END
$$$$
