DQK.pdb
     RDKit          3D

 27 26  0  0  1  0  0  0  0  0999 V2000
   10.7072  -18.9797   19.1606 N   0  0  0  0  0  0  0  0  0  0  0  0
   11.9165  -18.3500   19.6455 C   0  0  1  0  0  0  0  0  0  0  0  0
   12.6592  -17.8054   18.4677 C   0  0  0  0  0  0  0  0  0  0  0  0
   13.1008  -18.9290   17.6069 C   0  0  0  0  0  0  0  0  0  0  0  0
   12.5945  -19.1702   16.4750 O   0  0  0  0  0  0  0  0  0  0  0  0
   11.5410  -17.2239   20.5689 C   0  0  0  0  0  0  0  0  0  0  0  0
   12.4194  -16.5750   21.1946 O   0  0  0  0  0  0  0  0  0  0  0  0
   14.1108  -19.7746   18.0271 O   0  0  0  0  0  0  0  0  0  0  0  0
    6.5785  -13.2904   20.1953 N   0  0  0  0  0  0  0  0  0  0  0  0
    7.2796  -12.8585   21.3676 C   0  0  0  0  0  0  0  0  0  0  0  0
    6.9802  -11.7193   21.7979 O   0  0  0  0  0  0  0  0  0  0  0  0
    8.2760  -13.7589   21.9755 C   0  0  0  0  0  0  0  0  0  0  0  0
    8.7475  -14.8695   21.1360 C   0  0  0  0  0  0  0  0  0  0  0  0
    9.7498  -15.8181   21.6710 C   0  0  2  0  0  0  0  0  0  0  0  0
   10.1898  -16.8443   20.7753 N   0  0  0  0  0  0  0  0  0  0  0  0
    9.4102  -16.3505   23.0220 C   0  0  0  0  0  0  0  0  0  0  0  0
    8.4701  -17.1652   23.2067 O   0  0  0  0  0  0  0  0  0  0  0  0
   10.1406  -15.9569   24.1709 N   0  0  0  0  0  0  0  0  0  0  0  0
    9.8211  -16.5663   25.4749 C   0  0  1  0  0  0  0  0  0  0  0  0
   10.6298  -17.8195   25.5878 C   0  0  0  0  0  0  0  0  0  0  0  0
   10.4938  -18.4876   26.9213 C   0  0  0  0  0  0  0  0  0  0  0  0
   11.2576  -19.8094   26.9357 C   0  0  0  0  0  0  0  0  0  0  0  0
   11.0585  -20.4694   28.3033 C   0  0  0  0  0  0  0  0  0  0  0  0
   11.6452  -21.7913   28.2336 N   0  0  0  0  0  0  0  0  0  0  0  0
   10.2751  -15.6107   26.5102 C   0  0  0  0  0  0  0  0  0  0  0  0
   10.0565  -15.7632   27.7358 O   0  0  0  0  0  0  0  0  0  0  0  0
   10.9804  -14.4773   26.1490 O   0  0  0  0  0  0  0  0  0  0  0  0
  2  3  1  0
  2  1  1  6
  3  4  1  0
  4  8  1  0
  5  4  2  0
  6  2  1  0
  7  6  2  0
  9 10  1  0
 10 12  1  0
 10 11  2  0
 12 13  1  0
 14 13  1  6
 14 15  1  0
 15  6  1  0
 16 17  2  0
 16 14  1  0
 18 16  1  0
 19 18  1  0
 19 20  1  1
 20 21  1  0
 21 22  1  0
 23 22  1  0
 23 24  1  0
 25 19  1  0
 26 25  2  0
 27 25  1  0
M  END
$$$$
