DQK.pdb
     RDKit          3D

 27 26  0  0  1  0  0  0  0  0999 V2000
    6.8251  -20.8292   19.3547 N   0  0  0  0  0  0  0  0  0  0  0  0
    6.6594  -19.8595   20.4160 C   0  0  1  0  0  0  0  0  0  0  0  0
    6.7275  -20.5856   21.7212 C   0  0  0  0  0  0  0  0  0  0  0  0
    5.6504  -21.6035   21.7703 C   0  0  0  0  0  0  0  0  0  0  0  0
    4.9386  -21.9023   20.7704 O   0  0  0  0  0  0  0  0  0  0  0  0
    7.7786  -18.8580   20.3377 C   0  0  0  0  0  0  0  0  0  0  0  0
    8.9656  -19.2232   20.1330 O   0  0  0  0  0  0  0  0  0  0  0  0
    5.3818  -22.2788   22.9465 O   0  0  0  0  0  0  0  0  0  0  0  0
    7.3116  -12.6736   18.8531 N   0  0  0  0  0  0  0  0  0  0  0  0
    8.7015  -12.8169   19.1691 C   0  0  0  0  0  0  0  0  0  0  0  0
    9.4271  -11.8257   18.9164 O   0  0  0  0  0  0  0  0  0  0  0  0
    9.1726  -14.0835   19.7580 C   0  0  0  0  0  0  0  0  0  0  0  0
    8.1651  -15.1421   19.9162 C   0  0  0  0  0  0  0  0  0  0  0  0
    8.5639  -16.4568   20.4669 C   0  0  2  0  0  0  0  0  0  0  0  0
    7.5495  -17.4663   20.4900 N   0  0  0  0  0  0  0  0  0  0  0  0
    9.3048  -16.3662   21.7581 C   0  0  0  0  0  0  0  0  0  0  0  0
    8.7557  -15.9827   22.8226 O   0  0  0  0  0  0  0  0  0  0  0  0
   10.6763  -16.7125   21.8431 N   0  0  0  0  0  0  0  0  0  0  0  0
   11.3772  -16.5787   23.1334 C   0  0  1  0  0  0  0  0  0  0  0  0
   11.6765  -17.9610   23.6199 C   0  0  0  0  0  0  0  0  0  0  0  0
   11.4592  -18.1248   25.0927 C   0  0  0  0  0  0  0  0  0  0  0  0
   11.6211  -19.5883   25.4960 C   0  0  0  0  0  0  0  0  0  0  0  0
   11.2840  -19.7211   26.9840 C   0  0  0  0  0  0  0  0  0  0  0  0
   10.4469  -20.8931   27.1335 N   0  0  0  0  0  0  0  0  0  0  0  0
   12.6543  -15.8857   22.8503 C   0  0  0  0  0  0  0  0  0  0  0  0
   13.4542  -15.5173   23.7434 O   0  0  0  0  0  0  0  0  0  0  0  0
   13.0222  -15.6111   21.5458 O   0  0  0  0  0  0  0  0  0  0  0  0
  2  3  1  0
  2  1  1  6
  3  4  1  0
  4  8  1  0
  5  4  2  0
  6  2  1  0
  7  6  2  0
  9 10  1  0
 10 12  1  0
 10 11  2  0
 12 13  1  0
 14 13  1  1
 14 15  1  0
 15  6  1  0
 16 17  2  0
 16 14  1  0
 18 16  1  0
 19 18  1  0
 19 20  1  6
 20 21  1  0
 21 22  1  0
 23 22  1  0
 23 24  1  0
 25 19  1  0
 26 25  2  0
 27 25  1  0
M  END
$$$$
