DQK.pdb
     RDKit          3D

 27 26  0  0  1  0  0  0  0  0999 V2000
    8.7168  -16.1814   18.9978 N   0  0  0  0  0  0  0  0  0  0  0  0
    9.2910  -17.3340   19.6579 C   0  0  1  0  0  0  0  0  0  0  0  0
   10.0080  -18.1475   18.6286 C   0  0  0  0  0  0  0  0  0  0  0  0
    9.0254  -18.6730   17.6504 C   0  0  0  0  0  0  0  0  0  0  0  0
    7.9136  -18.1175   17.4243 O   0  0  0  0  0  0  0  0  0  0  0  0
   10.2696  -16.8609   20.6973 C   0  0  0  0  0  0  0  0  0  0  0  0
   10.9047  -15.7841   20.5508 O   0  0  0  0  0  0  0  0  0  0  0  0
    9.3018  -19.8218   16.9324 O   0  0  0  0  0  0  0  0  0  0  0  0
   10.5239  -18.8137   26.8032 N   0  0  0  0  0  0  0  0  0  0  0  0
   11.7860  -18.1530   26.6516 C   0  0  0  0  0  0  0  0  0  0  0  0
   12.5094  -18.1095   27.6750 O   0  0  0  0  0  0  0  0  0  0  0  0
   12.1421  -17.5876   25.3376 C   0  0  0  0  0  0  0  0  0  0  0  0
   11.1480  -17.7518   24.2673 C   0  0  0  0  0  0  0  0  0  0  0  0
   11.4302  -17.2161   22.9168 C   0  0  2  0  0  0  0  0  0  0  0  0
   10.5198  -17.6009   21.8814 N   0  0  0  0  0  0  0  0  0  0  0  0
   12.8555  -17.3574   22.5015 C   0  0  0  0  0  0  0  0  0  0  0  0
   13.3633  -18.4702   22.2091 O   0  0  0  0  0  0  0  0  0  0  0  0
   13.7105  -16.2304   22.4171 N   0  0  0  0  0  0  0  0  0  0  0  0
   15.0863  -16.4024   21.9155 C   0  0  1  0  0  0  0  0  0  0  0  0
   15.5161  -15.0893   21.3427 C   0  0  0  0  0  0  0  0  0  0  0  0
   16.9176  -15.1094   20.8153 C   0  0  0  0  0  0  0  0  0  0  0  0
   17.2998  -13.7378   20.2646 C   0  0  0  0  0  0  0  0  0  0  0  0
   18.7542  -13.7949   19.7881 C   0  0  0  0  0  0  0  0  0  0  0  0
   19.1030  -12.4739   19.3087 N   0  0  0  0  0  0  0  0  0  0  0  0
   15.9299  -16.7083   23.0928 C   0  0  0  0  0  0  0  0  0  0  0  0
   15.6532  -16.3347   24.2578 O   0  0  0  0  0  0  0  0  0  0  0  0
   17.0924  -17.4421   22.9436 O   0  0  0  0  0  0  0  0  0  0  0  0
  2  3  1  0
  2  1  1  6
  3  4  1  0
  4  8  1  0
  5  4  2  0
  6  2  1  0
  7  6  2  0
  9 10  1  0
 10 12  1  0
 10 11  2  0
 12 13  1  0
 14 13  1  1
 14 15  1  0
 15  6  1  0
 16 17  2  0
 16 14  1  0
 18 16  1  0
 19 18  1  0
 19 20  1  1
 20 21  1  0
 21 22  1  0
 23 22  1  0
 23 24  1  0
 25 19  1  0
 26 25  2  0
 27 25  1  0
M  END
$$$$
