DQK.pdb
     RDKit          3D

 27 26  0  0  1  0  0  0  0  0999 V2000
    8.5071  -15.8841   18.0369 N   0  0  0  0  0  0  0  0  0  0  0  0
    8.5188  -14.5562   18.6117 C   0  0  1  0  0  0  0  0  0  0  0  0
    7.5437  -13.7146   17.8528 C   0  0  0  0  0  0  0  0  0  0  0  0
    7.9429  -13.6719   16.4254 C   0  0  0  0  0  0  0  0  0  0  0  0
    8.0224  -14.7038   15.7010 O   0  0  0  0  0  0  0  0  0  0  0  0
    8.0930  -14.6464   20.0512 C   0  0  0  0  0  0  0  0  0  0  0  0
    8.1699  -13.6500   20.8163 O   0  0  0  0  0  0  0  0  0  0  0  0
    8.2502  -12.4662   15.8226 O   0  0  0  0  0  0  0  0  0  0  0  0
    4.3719  -19.2010   22.6984 N   0  0  0  0  0  0  0  0  0  0  0  0
    4.0153  -18.2398   21.6978 C   0  0  0  0  0  0  0  0  0  0  0  0
    2.8935  -18.3977   21.1598 O   0  0  0  0  0  0  0  0  0  0  0  0
    4.9628  -17.1565   21.3791 C   0  0  0  0  0  0  0  0  0  0  0  0
    6.1694  -17.0803   22.2151 C   0  0  0  0  0  0  0  0  0  0  0  0
    7.1671  -16.0156   21.9663 C   0  0  2  0  0  0  0  0  0  0  0  0
    7.5887  -15.8496   20.6085 N   0  0  0  0  0  0  0  0  0  0  0  0
    8.3141  -16.0342   22.9192 C   0  0  0  0  0  0  0  0  0  0  0  0
    9.4447  -16.4844   22.6015 O   0  0  0  0  0  0  0  0  0  0  0  0
    8.1788  -15.5395   24.2403 N   0  0  0  0  0  0  0  0  0  0  0  0
    9.2914  -15.7080   25.1930 C   0  0  1  0  0  0  0  0  0  0  0  0
    8.9446  -14.9278   26.4210 C   0  0  0  0  0  0  0  0  0  0  0  0
    9.9348  -15.1079   27.5301 C   0  0  0  0  0  0  0  0  0  0  0  0
    9.5521  -14.2474   28.7316 C   0  0  0  0  0  0  0  0  0  0  0  0
   10.5751  -14.4879   29.8456 C   0  0  0  0  0  0  0  0  0  0  0  0
   10.1692  -13.6897   30.9835 N   0  0  0  0  0  0  0  0  0  0  0  0
    9.3371  -17.1466   25.5388 C   0  0  0  0  0  0  0  0  0  0  0  0
    8.3210  -17.8807   25.5799 O   0  0  0  0  0  0  0  0  0  0  0  0
   10.5438  -17.7517   25.8389 O   0  0  0  0  0  0  0  0  0  0  0  0
  2  3  1  0
  2  1  1  6
  3  4  1  0
  4  8  1  0
  5  4  2  0
  6  2  1  0
  7  6  2  0
  9 10  1  0
 10 12  1  0
 10 11  2  0
 12 13  1  0
 14 13  1  6
 14 15  1  0
 15  6  1  0
 16 17  2  0
 16 14  1  0
 18 16  1  0
 19 18  1  0
 19 20  1  1
 20 21  1  0
 21 22  1  0
 23 22  1  0
 23 24  1  0
 25 19  1  0
 26 25  2  0
 27 25  1  0
M  END
$$$$
