VWE.pdb
     RDKit          3D

 31 32  0  0  1  0  0  0  0  0999 V2000
   26.4684  -20.8195  -16.9402 C   0  0  0  0  0  0  0  0  0  0  0  0
   26.4525  -22.3218  -17.1549 C   0  0  1  0  0  0  0  0  0  0  0  0
   27.0852  -22.7340  -18.4541 C   0  0  0  0  0  0  0  0  0  0  0  0
   26.9958  -23.0770  -15.9519 C   0  0  2  0  0  0  0  0  0  0  0  0
   26.8163  -24.5180  -16.1769 N   0  0  0  0  0  0  0  0  0  0  0  0
   26.3465  -22.6745  -14.6823 C   0  0  0  0  0  0  0  0  0  0  0  0
   25.1125  -22.9623  -14.5761 O   0  0  0  0  0  0  0  0  0  0  0  0
   27.0278  -22.0163  -13.6395 N   0  0  0  0  0  0  0  0  0  0  0  0
   26.4933  -21.5895  -12.3864 C   0  0  1  0  0  0  0  0  0  0  0  0
   27.5537  -21.2223  -11.3497 C   0  0  0  0  0  0  0  0  0  0  0  0
   26.9015  -20.8014  -10.0673 C   0  0  0  0  0  0  0  0  0  0  0  0
   25.5678  -20.5590   -9.8875 C   0  0  0  0  0  0  0  0  0  0  0  0
   25.3145  -20.1831   -8.5920 N   0  0  0  0  0  0  0  0  0  0  0  0
   26.4940  -20.1901   -7.9611 C   0  0  0  0  0  0  0  0  0  0  0  0
   26.7679  -19.8945   -6.6386 C   0  0  0  0  0  0  0  0  0  0  0  0
   28.0729  -19.9884   -6.2212 C   0  0  0  0  0  0  0  0  0  0  0  0
   29.0875  -20.3656   -7.0893 C   0  0  0  0  0  0  0  0  0  0  0  0
   28.7807  -20.6565   -8.4155 C   0  0  0  0  0  0  0  0  0  0  0  0
   27.4924  -20.5697   -8.8510 C   0  0  0  0  0  0  0  0  0  0  0  0
   25.4335  -20.5842  -12.5161 C   0  0  0  0  0  0  0  0  0  0  0  0
   25.7456  -19.3590  -12.5296 O   0  0  0  0  0  0  0  0  0  0  0  0
   24.0644  -20.9167  -12.6264 N   0  0  0  0  0  0  0  0  0  0  0  0
   22.9693  -19.9771  -12.6830 C   0  0  1  0  0  0  0  0  0  0  0  0
   22.3437  -19.9781  -14.0568 C   0  0  0  0  0  0  0  0  0  0  0  0
   23.2536  -19.4917  -15.1390 C   0  0  0  0  0  0  0  0  0  0  0  0
   22.6268  -19.5184  -16.4792 C   0  0  0  0  0  0  0  0  0  0  0  0
   22.4798  -20.6410  -17.0658 O   0  0  0  0  0  0  0  0  0  0  0  0
   21.8895  -20.4185  -11.7429 C   0  0  0  0  0  0  0  0  0  0  0  0
   20.9429  -19.6415  -11.4920 O   0  0  0  0  0  0  0  0  0  0  0  0
   22.1877  -18.3823  -17.1358 O   0  0  0  0  0  0  0  0  0  0  0  0
   21.9104  -21.6621  -11.1431 O   0  0  0  0  0  0  0  0  0  0  0  0
  2  1  1  1
  3  2  1  0
  4  5  1  6
  4  2  1  0
  6  8  1  0
  6  4  1  0
  7  6  2  0
  9 20  1  0
  9  8  1  0
  9 10  1  1
 11 10  1  0
 12 11  2  0
 13 14  1  0
 13 12  1  0
 14 19  2  0
 15 16  2  0
 15 14  1  0
 16 17  1  0
 17 18  2  0
 19 18  1  0
 19 11  1  0
 20 22  1  0
 21 20  2  0
 22 23  1  0
 23 28  1  0
 23 24  1  6
 25 24  1  0
 26 25  1  0
 27 26  2  0
 28 29  2  0
 28 31  1  0
 30 26  1  0
M  END
$$$$
