VWE.pdb
     RDKit          3D

 31 32  0  0  1  0  0  0  0  0999 V2000
   21.7514   -6.2322  -20.4053 C   0  0  0  0  0  0  0  0  0  0  0  0
   21.3544   -7.5198  -21.1036 C   0  0  1  0  0  0  0  0  0  0  0  0
   21.7408   -7.5413  -22.5555 C   0  0  0  0  0  0  0  0  0  0  0  0
   21.8140   -8.7506  -20.3378 C   0  0  2  0  0  0  0  0  0  0  0  0
   21.2559   -9.9464  -20.9843 N   0  0  0  0  0  0  0  0  0  0  0  0
   21.4237   -8.7146  -18.9088 C   0  0  0  0  0  0  0  0  0  0  0  0
   20.1776   -8.8061  -18.6729 O   0  0  0  0  0  0  0  0  0  0  0  0
   22.3519   -8.5909  -17.8561 N   0  0  0  0  0  0  0  0  0  0  0  0
   22.0786   -8.5737  -16.4550 C   0  0  1  0  0  0  0  0  0  0  0  0
   22.5631   -9.8169  -15.7108 C   0  0  0  0  0  0  0  0  0  0  0  0
   21.9438  -11.0483  -16.3000 C   0  0  0  0  0  0  0  0  0  0  0  0
   22.6036  -12.0251  -16.9930 C   0  0  0  0  0  0  0  0  0  0  0  0
   21.7314  -13.0041  -17.3988 N   0  0  0  0  0  0  0  0  0  0  0  0
   20.5229  -12.6369  -16.9583 C   0  0  0  0  0  0  0  0  0  0  0  0
   19.3150  -13.2939  -17.1018 C   0  0  0  0  0  0  0  0  0  0  0  0
   18.2031  -12.7142  -16.5416 C   0  0  0  0  0  0  0  0  0  0  0  0
   18.2800  -11.5114  -15.8540 C   0  0  0  0  0  0  0  0  0  0  0  0
   19.5103  -10.8732  -15.7265 C   0  0  0  0  0  0  0  0  0  0  0  0
   20.6264  -11.4307  -16.2747 C   0  0  0  0  0  0  0  0  0  0  0  0
   22.4613   -7.3180  -15.8012 C   0  0  0  0  0  0  0  0  0  0  0  0
   23.6765   -6.9689  -15.8022 O   0  0  0  0  0  0  0  0  0  0  0  0
   21.5319   -6.4677  -15.1605 N   0  0  0  0  0  0  0  0  0  0  0  0
   21.8458   -5.2305  -14.4850 C   0  0  1  0  0  0  0  0  0  0  0  0
   20.6535   -4.3047  -14.4989 C   0  0  0  0  0  0  0  0  0  0  0  0
   20.2703   -3.8281  -15.8634 C   0  0  0  0  0  0  0  0  0  0  0  0
   19.0790   -2.9504  -15.8577 C   0  0  0  0  0  0  0  0  0  0  0  0
   18.4995   -2.7092  -14.7477 O   0  0  0  0  0  0  0  0  0  0  0  0
   22.1261   -5.5126  -13.0406 C   0  0  0  0  0  0  0  0  0  0  0  0
   22.5610   -4.5946  -12.3121 O   0  0  0  0  0  0  0  0  0  0  0  0
   18.5552   -2.3722  -17.0005 O   0  0  0  0  0  0  0  0  0  0  0  0
   21.9182   -6.7616  -12.4895 O   0  0  0  0  0  0  0  0  0  0  0  0
  2  1  1  1
  3  2  1  0
  4  5  1  6
  4  2  1  0
  6  8  1  0
  6  4  1  0
  7  6  2  0
  9 20  1  0
  9  8  1  0
  9 10  1  1
 11 10  1  0
 12 11  2  0
 13 14  1  0
 13 12  1  0
 14 19  2  0
 15 16  2  0
 15 14  1  0
 16 17  1  0
 17 18  2  0
 19 18  1  0
 19 11  1  0
 20 22  1  0
 21 20  2  0
 22 23  1  0
 23 28  1  0
 23 24  1  1
 25 24  1  0
 26 25  1  0
 27 26  2  0
 28 29  2  0
 28 31  1  0
 30 26  1  0
M  END
$$$$
