VWE.pdb
     RDKit          3D

 31 32  0  0  1  0  0  0  0  0999 V2000
   25.0893  -16.9814  -16.9403 C   0  0  0  0  0  0  0  0  0  0  0  0
   25.6075  -17.9436  -17.9933 C   0  0  1  0  0  0  0  0  0  0  0  0
   26.1543  -17.2449  -19.2061 C   0  0  0  0  0  0  0  0  0  0  0  0
   26.5617  -18.9726  -17.4074 C   0  0  2  0  0  0  0  0  0  0  0  0
   26.9265  -19.9326  -18.4584 N   0  0  0  0  0  0  0  0  0  0  0  0
   25.9890  -19.6860  -16.2418 C   0  0  0  0  0  0  0  0  0  0  0  0
   24.9349  -20.3601  -16.4686 O   0  0  0  0  0  0  0  0  0  0  0  0
   26.5556  -19.6418  -14.9527 N   0  0  0  0  0  0  0  0  0  0  0  0
   26.0260  -20.2030  -13.7515 C   0  0  1  0  0  0  0  0  0  0  0  0
   27.0258  -20.2613  -12.5978 C   0  0  0  0  0  0  0  0  0  0  0  0
   26.3967  -20.9039  -11.3984 C   0  0  0  0  0  0  0  0  0  0  0  0
   25.8602  -22.1607  -11.3506 C   0  0  0  0  0  0  0  0  0  0  0  0
   25.3609  -22.4266  -10.1000 N   0  0  0  0  0  0  0  0  0  0  0  0
   25.5858  -21.3320   -9.3650 C   0  0  0  0  0  0  0  0  0  0  0  0
   25.2777  -21.1053   -8.0364 C   0  0  0  0  0  0  0  0  0  0  0  0
   25.6274  -19.8910   -7.4986 C   0  0  0  0  0  0  0  0  0  0  0  0
   26.2676  -18.9195   -8.2548 C   0  0  0  0  0  0  0  0  0  0  0  0
   26.5642  -19.1766   -9.5902 C   0  0  0  0  0  0  0  0  0  0  0  0
   26.2261  -20.3749  -10.1441 C   0  0  0  0  0  0  0  0  0  0  0  0
   24.7270  -19.6408  -13.3682 C   0  0  0  0  0  0  0  0  0  0  0  0
   24.5768  -18.3854  -13.3633 O   0  0  0  0  0  0  0  0  0  0  0  0
   23.6206  -20.4382  -12.9975 N   0  0  0  0  0  0  0  0  0  0  0  0
   22.3101  -19.9493  -12.6382 C   0  0  1  0  0  0  0  0  0  0  0  0
   21.5689  -19.4762  -13.8652 C   0  0  0  0  0  0  0  0  0  0  0  0
   20.1867  -18.9789  -13.5860 C   0  0  0  0  0  0  0  0  0  0  0  0
   19.4175  -18.6832  -14.8150 C   0  0  0  0  0  0  0  0  0  0  0  0
   19.8507  -19.1227  -15.9309 O   0  0  0  0  0  0  0  0  0  0  0  0
   21.4971  -21.0772  -12.0801 C   0  0  0  0  0  0  0  0  0  0  0  0
   21.7150  -22.2422  -12.4774 O   0  0  0  0  0  0  0  0  0  0  0  0
   18.2440  -17.9499  -14.8194 O   0  0  0  0  0  0  0  0  0  0  0  0
   20.5103  -20.8660  -11.1376 O   0  0  0  0  0  0  0  0  0  0  0  0
  2  1  1  1
  3  2  1  0
  4  5  1  6
  4  2  1  0
  6  8  1  0
  6  4  1  0
  7  6  2  0
  9 20  1  0
  9  8  1  0
  9 10  1  1
 11 10  1  0
 12 11  2  0
 13 14  1  0
 13 12  1  0
 14 19  2  0
 15 16  2  0
 15 14  1  0
 16 17  1  0
 17 18  2  0
 19 18  1  0
 19 11  1  0
 20 22  1  0
 21 20  2  0
 22 23  1  0
 23 28  1  0
 23 24  1  6
 25 24  1  0
 26 25  1  0
 27 26  2  0
 28 29  2  0
 28 31  1  0
 30 26  1  0
M  END
$$$$
