VWE.pdb
     RDKit          3D

 31 32  0  0  1  0  0  0  0  0999 V2000
   28.3989  -19.7944  -16.9250 C   0  0  0  0  0  0  0  0  0  0  0  0
   27.4675  -20.0856  -15.7627 C   0  0  1  0  0  0  0  0  0  0  0  0
   26.0280  -20.1952  -16.1796 C   0  0  0  0  0  0  0  0  0  0  0  0
   27.9461  -21.2631  -14.9279 C   0  0  2  0  0  0  0  0  0  0  0  0
   27.8345  -22.4890  -15.7304 N   0  0  0  0  0  0  0  0  0  0  0  0
   27.1907  -21.4119  -13.6619 C   0  0  0  0  0  0  0  0  0  0  0  0
   26.0266  -21.9125  -13.7675 O   0  0  0  0  0  0  0  0  0  0  0  0
   27.7043  -21.0348  -12.4054 N   0  0  0  0  0  0  0  0  0  0  0  0
   27.0048  -20.9801  -11.1621 C   0  0  1  0  0  0  0  0  0  0  0  0
   27.8968  -20.6814   -9.9583 C   0  0  0  0  0  0  0  0  0  0  0  0
   27.0775  -20.6386   -8.7037 C   0  0  0  0  0  0  0  0  0  0  0  0
   25.7519  -20.9574   -8.6000 C   0  0  0  0  0  0  0  0  0  0  0  0
   25.3154  -20.7984   -7.3084 N   0  0  0  0  0  0  0  0  0  0  0  0
   26.3718  -20.3784   -6.6037 C   0  0  0  0  0  0  0  0  0  0  0  0
   26.4491  -20.0857   -5.2547 C   0  0  0  0  0  0  0  0  0  0  0  0
   27.6641  -19.6814   -4.7583 C   0  0  0  0  0  0  0  0  0  0  0  0
   28.7804  -19.5677   -5.5747 C   0  0  0  0  0  0  0  0  0  0  0  0
   28.6713  -19.8688   -6.9292 C   0  0  0  0  0  0  0  0  0  0  0  0
   27.4751  -20.2717   -7.4429 C   0  0  0  0  0  0  0  0  0  0  0  0
   25.7947  -20.1530  -11.2094 C   0  0  0  0  0  0  0  0  0  0  0  0
   25.8708  -18.9765  -11.6661 O   0  0  0  0  0  0  0  0  0  0  0  0
   24.5326  -20.6067  -10.7640 N   0  0  0  0  0  0  0  0  0  0  0  0
   23.2525  -20.1843  -11.2823 C   0  0  1  0  0  0  0  0  0  0  0  0
   23.0679  -20.6766  -12.6974 C   0  0  0  0  0  0  0  0  0  0  0  0
   23.3340  -19.6394  -13.7410 C   0  0  0  0  0  0  0  0  0  0  0  0
   22.0977  -19.0515  -14.3027 C   0  0  0  0  0  0  0  0  0  0  0  0
   21.2333  -19.8271  -14.8292 O   0  0  0  0  0  0  0  0  0  0  0  0
   22.1592  -20.8239  -10.4822 C   0  0  0  0  0  0  0  0  0  0  0  0
   22.1929  -22.0566  -10.2780 O   0  0  0  0  0  0  0  0  0  0  0  0
   21.8261  -17.6947  -14.2875 O   0  0  0  0  0  0  0  0  0  0  0  0
   21.1119  -20.0887   -9.9632 O   0  0  0  0  0  0  0  0  0  0  0  0
  2  1  1  6
  3  2  1  0
  4  5  1  6
  4  2  1  0
  6  8  1  0
  6  4  1  0
  7  6  2  0
  9 20  1  0
  9  8  1  0
  9 10  1  1
 11 10  1  0
 12 11  2  0
 13 14  1  0
 13 12  1  0
 14 19  2  0
 15 16  2  0
 15 14  1  0
 16 17  1  0
 17 18  2  0
 19 18  1  0
 19 11  1  0
 20 22  1  0
 21 20  2  0
 22 23  1  0
 23 28  1  0
 23 24  1  6
 25 24  1  0
 26 25  1  0
 27 26  2  0
 28 29  2  0
 28 31  1  0
 30 26  1  0
M  END
$$$$
