VWE.pdb
     RDKit          3D

 31 32  0  0  1  0  0  0  0  0999 V2000
   31.4435  -21.8850  -11.8502 C   0  0  0  0  0  0  0  0  0  0  0  0
   30.0769  -22.0180  -11.2036 C   0  0  1  0  0  0  0  0  0  0  0  0
   30.0551  -21.5427   -9.7783 C   0  0  0  0  0  0  0  0  0  0  0  0
   28.9775  -21.4097  -12.0603 C   0  0  2  0  0  0  0  0  0  0  0  0
   29.2986  -19.9978  -12.3103 N   0  0  0  0  0  0  0  0  0  0  0  0
   27.6374  -21.5255  -11.4389 C   0  0  0  0  0  0  0  0  0  0  0  0
   27.1251  -22.6893  -11.4409 O   0  0  0  0  0  0  0  0  0  0  0  0
   26.9509  -20.4342  -10.8711 N   0  0  0  0  0  0  0  0  0  0  0  0
   25.6656  -20.4449  -10.2496 C   0  0  1  0  0  0  0  0  0  0  0  0
   25.5470  -19.5086   -9.0482 C   0  0  0  0  0  0  0  0  0  0  0  0
   25.8280  -20.2552   -7.7791 C   0  0  0  0  0  0  0  0  0  0  0  0
   25.1882  -21.3871   -7.3557 C   0  0  0  0  0  0  0  0  0  0  0  0
   25.6875  -21.8019   -6.1464 N   0  0  0  0  0  0  0  0  0  0  0  0
   26.6418  -20.9257   -5.8133 C   0  0  0  0  0  0  0  0  0  0  0  0
   27.4485  -20.9125   -4.6907 C   0  0  0  0  0  0  0  0  0  0  0  0
   28.3740  -19.9036   -4.5821 C   0  0  0  0  0  0  0  0  0  0  0  0
   28.5017  -18.9273   -5.5598 C   0  0  0  0  0  0  0  0  0  0  0  0
   27.6747  -18.9668   -6.6787 C   0  0  0  0  0  0  0  0  0  0  0  0
   26.7494  -19.9590   -6.8067 C   0  0  0  0  0  0  0  0  0  0  0  0
   24.5567  -20.3152  -11.2004 C   0  0  0  0  0  0  0  0  0  0  0  0
   24.5443  -19.3375  -12.0020 O   0  0  0  0  0  0  0  0  0  0  0  0
   23.4866  -21.2359  -11.2675 N   0  0  0  0  0  0  0  0  0  0  0  0
   22.4331  -21.2355  -12.2552 C   0  0  1  0  0  0  0  0  0  0  0  0
   21.4015  -22.2875  -11.9267 C   0  0  0  0  0  0  0  0  0  0  0  0
   20.5624  -21.9635  -10.7323 C   0  0  0  0  0  0  0  0  0  0  0  0
   19.5274  -22.9844  -10.4566 C   0  0  0  0  0  0  0  0  0  0  0  0
   18.5292  -23.0751  -11.2449 O   0  0  0  0  0  0  0  0  0  0  0  0
   21.7090  -19.9248  -12.2058 C   0  0  0  0  0  0  0  0  0  0  0  0
   21.2536  -19.4384  -13.2634 O   0  0  0  0  0  0  0  0  0  0  0  0
   19.5842  -23.8534   -9.3812 O   0  0  0  0  0  0  0  0  0  0  0  0
   21.5307  -19.2362  -11.0222 O   0  0  0  0  0  0  0  0  0  0  0  0
  2  1  1  6
  3  2  1  0
  4  5  1  1
  4  2  1  0
  6  8  1  0
  6  4  1  0
  7  6  2  0
  9 20  1  0
  9  8  1  0
  9 10  1  1
 11 10  1  0
 12 11  2  0
 13 14  1  0
 13 12  1  0
 14 19  2  0
 15 16  2  0
 15 14  1  0
 16 17  1  0
 17 18  2  0
 19 18  1  0
 19 11  1  0
 20 22  1  0
 21 20  2  0
 22 23  1  0
 23 28  1  0
 23 24  1  1
 25 24  1  0
 26 25  1  0
 27 26  2  0
 28 29  2  0
 28 31  1  0
 30 26  1  0
M  END
$$$$
