VWE.pdb
     RDKit          3D

 31 32  0  0  1  0  0  0  0  0999 V2000
   28.0290  -16.3764  -18.7970 C   0  0  0  0  0  0  0  0  0  0  0  0
   27.1848  -17.1990  -17.8411 C   0  0  1  0  0  0  0  0  0  0  0  0
   25.7434  -17.2831  -18.2574 C   0  0  0  0  0  0  0  0  0  0  0  0
   27.8092  -18.5544  -17.5485 C   0  0  2  0  0  0  0  0  0  0  0  0
   27.9063  -19.3120  -18.8039 N   0  0  0  0  0  0  0  0  0  0  0  0
   27.0473  -19.3306  -16.5423 C   0  0  0  0  0  0  0  0  0  0  0  0
   26.0108  -19.9281  -16.9729 O   0  0  0  0  0  0  0  0  0  0  0  0
   27.4244  -19.4220  -15.1879 N   0  0  0  0  0  0  0  0  0  0  0  0
   26.7151  -20.0682  -14.1307 C   0  0  1  0  0  0  0  0  0  0  0  0
   27.5198  -20.2164  -12.8405 C   0  0  0  0  0  0  0  0  0  0  0  0
   26.7106  -20.9366  -11.8044 C   0  0  0  0  0  0  0  0  0  0  0  0
   26.1527  -22.1774  -11.9420 C   0  0  0  0  0  0  0  0  0  0  0  0
   25.4703  -22.5302  -10.8046 N   0  0  0  0  0  0  0  0  0  0  0  0
   25.6019  -21.5061   -9.9544 C   0  0  0  0  0  0  0  0  0  0  0  0
   25.1050  -21.3800   -8.6705 C   0  0  0  0  0  0  0  0  0  0  0  0
   25.3910  -20.2240   -7.9864 C   0  0  0  0  0  0  0  0  0  0  0  0
   26.1512  -19.2125   -8.5561 C   0  0  0  0  0  0  0  0  0  0  0  0
   26.6373  -19.3681   -9.8510 C   0  0  0  0  0  0  0  0  0  0  0  0
   26.3654  -20.5071  -10.5480 C   0  0  0  0  0  0  0  0  0  0  0  0
   25.3677  -19.5299  -13.9177 C   0  0  0  0  0  0  0  0  0  0  0  0
   25.2301  -18.3003  -13.6574 O   0  0  0  0  0  0  0  0  0  0  0  0
   24.2003  -20.3234  -13.9872 N   0  0  0  0  0  0  0  0  0  0  0  0
   22.8549  -19.8710  -13.7217 C   0  0  1  0  0  0  0  0  0  0  0  0
   21.9629  -20.1429  -14.9089 C   0  0  0  0  0  0  0  0  0  0  0  0
   20.5587  -19.6586  -14.7373 C   0  0  0  0  0  0  0  0  0  0  0  0
   19.9608  -19.1569  -15.9944 C   0  0  0  0  0  0  0  0  0  0  0  0
   20.5344  -19.4318  -17.0996 O   0  0  0  0  0  0  0  0  0  0  0  0
   22.2800  -20.6657  -12.5892 C   0  0  0  0  0  0  0  0  0  0  0  0
   22.6575  -21.8449  -12.4171 O   0  0  0  0  0  0  0  0  0  0  0  0
   18.8034  -18.3996  -16.0364 O   0  0  0  0  0  0  0  0  0  0  0  0
   21.3417  -20.1319  -11.7282 O   0  0  0  0  0  0  0  0  0  0  0  0
  2  1  1  6
  3  2  1  0
  4  5  1  6
  4  2  1  0
  6  8  1  0
  6  4  1  0
  7  6  2  0
  9 20  1  0
  9  8  1  0
  9 10  1  1
 11 10  1  0
 12 11  2  0
 13 14  1  0
 13 12  1  0
 14 19  2  0
 15 16  2  0
 15 14  1  0
 16 17  1  0
 17 18  2  0
 19 18  1  0
 19 11  1  0
 20 22  1  0
 21 20  2  0
 22 23  1  0
 23 28  1  0
 23 24  1  6
 25 24  1  0
 26 25  1  0
 27 26  2  0
 28 29  2  0
 28 31  1  0
 30 26  1  0
M  END
$$$$
