VWE.pdb
     RDKit          3D

 31 32  0  0  1  0  0  0  0  0999 V2000
   27.1946  -19.0084  -16.9933 C   0  0  0  0  0  0  0  0  0  0  0  0
   27.6870  -20.3401  -17.5293 C   0  0  1  0  0  0  0  0  0  0  0  0
   28.5534  -20.1959  -18.7486 C   0  0  0  0  0  0  0  0  0  0  0  0
   28.3133  -21.1981  -16.4411 C   0  0  2  0  0  0  0  0  0  0  0  0
   28.6498  -22.5112  -17.0084 N   0  0  0  0  0  0  0  0  0  0  0  0
   27.4302  -21.3629  -15.2628 C   0  0  0  0  0  0  0  0  0  0  0  0
   26.3536  -22.0090  -15.4639 O   0  0  0  0  0  0  0  0  0  0  0  0
   27.7384  -20.8504  -13.9871 N   0  0  0  0  0  0  0  0  0  0  0  0
   26.9556  -20.9531  -12.7977 C   0  0  1  0  0  0  0  0  0  0  0  0
   27.7488  -20.7384  -11.5097 C   0  0  0  0  0  0  0  0  0  0  0  0
   26.8398  -20.8226  -10.3207 C   0  0  0  0  0  0  0  0  0  0  0  0
   25.7462  -21.6349  -10.2029 C   0  0  0  0  0  0  0  0  0  0  0  0
   25.1357  -21.4516   -8.9873 N   0  0  0  0  0  0  0  0  0  0  0  0
   25.8501  -20.5213   -8.3444 C   0  0  0  0  0  0  0  0  0  0  0  0
   25.6482  -19.9974   -7.0811 C   0  0  0  0  0  0  0  0  0  0  0  0
   26.5375  -19.0517   -6.6331 C   0  0  0  0  0  0  0  0  0  0  0  0
   27.6042  -18.6305   -7.4143 C   0  0  0  0  0  0  0  0  0  0  0  0
   27.7812  -19.1760   -8.6825 C   0  0  0  0  0  0  0  0  0  0  0  0
   26.9105  -20.1158   -9.1470 C   0  0  0  0  0  0  0  0  0  0  0  0
   25.7104  -20.1801  -12.8500 C   0  0  0  0  0  0  0  0  0  0  0  0
   25.7709  -18.9235  -12.9763 O   0  0  0  0  0  0  0  0  0  0  0  0
   24.4305  -20.7729  -12.7640 N   0  0  0  0  0  0  0  0  0  0  0  0
   23.1712  -20.0660  -12.7590 C   0  0  1  0  0  0  0  0  0  0  0  0
   22.4618  -20.2426  -14.0798 C   0  0  0  0  0  0  0  0  0  0  0  0
   23.0656  -19.4617  -15.2029 C   0  0  0  0  0  0  0  0  0  0  0  0
   22.3847  -18.1701  -15.4430 C   0  0  0  0  0  0  0  0  0  0  0  0
   21.1211  -18.1649  -15.6144 O   0  0  0  0  0  0  0  0  0  0  0  0
   22.2685  -20.6703  -11.7273 C   0  0  0  0  0  0  0  0  0  0  0  0
   22.4477  -21.8574  -11.3790 O   0  0  0  0  0  0  0  0  0  0  0  0
   23.0498  -16.9577  -15.4920 O   0  0  0  0  0  0  0  0  0  0  0  0
   21.2407  -19.9520  -11.1491 O   0  0  0  0  0  0  0  0  0  0  0  0
  2  1  1  1
  3  2  1  0
  4  5  1  6
  4  2  1  0
  6  8  1  0
  6  4  1  0
  7  6  2  0
  9 20  1  0
  9  8  1  0
  9 10  1  1
 11 10  1  0
 12 11  2  0
 13 14  1  0
 13 12  1  0
 14 19  2  0
 15 16  2  0
 15 14  1  0
 16 17  1  0
 17 18  2  0
 19 18  1  0
 19 11  1  0
 20 22  1  0
 21 20  2  0
 22 23  1  0
 23 28  1  0
 23 24  1  6
 25 24  1  0
 26 25  1  0
 27 26  2  0
 28 29  2  0
 28 31  1  0
 30 26  1  0
M  END
$$$$
