VWE.pdb
     RDKit          3D

 31 32  0  0  1  0  0  0  0  0999 V2000
   24.8673  -21.4374  -10.8635 C   0  0  0  0  0  0  0  0  0  0  0  0
   26.0048  -20.7765  -11.6201 C   0  0  1  0  0  0  0  0  0  0  0  0
   27.3594  -21.1829  -11.1125 C   0  0  0  0  0  0  0  0  0  0  0  0
   25.8536  -20.9274  -13.1258 C   0  0  2  0  0  0  0  0  0  0  0  0
   27.0405  -20.3598  -13.7801 N   0  0  0  0  0  0  0  0  0  0  0  0
   24.6263  -20.2800  -13.6456 C   0  0  0  0  0  0  0  0  0  0  0  0
   24.5390  -19.0258  -13.4555 O   0  0  0  0  0  0  0  0  0  0  0  0
   23.6050  -20.9827  -14.3151 N   0  0  0  0  0  0  0  0  0  0  0  0
   22.3558  -20.4685  -14.7767 C   0  0  1  0  0  0  0  0  0  0  0  0
   22.2692  -20.3120  -16.2939 C   0  0  0  0  0  0  0  0  0  0  0  0
   23.0708  -19.1264  -16.7397 C   0  0  0  0  0  0  0  0  0  0  0  0
   24.4101  -19.1213  -17.0154 C   0  0  0  0  0  0  0  0  0  0  0  0
   24.8230  -17.8663  -17.3873 N   0  0  0  0  0  0  0  0  0  0  0  0
   23.7381  -17.0852  -17.3430 C   0  0  0  0  0  0  0  0  0  0  0  0
   23.6303  -15.7391  -17.6393 C   0  0  0  0  0  0  0  0  0  0  0  0
   22.3902  -15.1592  -17.5298 C   0  0  0  0  0  0  0  0  0  0  0  0
   21.2789  -15.8908  -17.1361 C   0  0  0  0  0  0  0  0  0  0  0  0
   21.4189  -17.2445  -16.8438 C   0  0  0  0  0  0  0  0  0  0  0  0
   22.6403  -17.8401  -16.9458 C   0  0  0  0  0  0  0  0  0  0  0  0
   21.1940  -21.1482  -14.1944 C   0  0  0  0  0  0  0  0  0  0  0  0
   21.3528  -22.2742  -13.6417 O   0  0  0  0  0  0  0  0  0  0  0  0
   19.8896  -20.6050  -14.2205 N   0  0  0  0  0  0  0  0  0  0  0  0
   18.7197  -21.1885  -13.6071 C   0  0  1  0  0  0  0  0  0  0  0  0
   18.8552  -21.1854  -12.1036 C   0  0  0  0  0  0  0  0  0  0  0  0
   17.6247  -21.6331  -11.3818 C   0  0  0  0  0  0  0  0  0  0  0  0
   17.7414  -23.0013  -10.8304 C   0  0  0  0  0  0  0  0  0  0  0  0
   18.6959  -23.2592  -10.0252 O   0  0  0  0  0  0  0  0  0  0  0  0
   17.5250  -20.3369  -13.9107 C   0  0  0  0  0  0  0  0  0  0  0  0
   17.6842  -19.1159  -14.1260 O   0  0  0  0  0  0  0  0  0  0  0  0
   16.8639  -24.0245  -11.1432 O   0  0  0  0  0  0  0  0  0  0  0  0
   16.2493  -20.8634  -13.9586 O   0  0  0  0  0  0  0  0  0  0  0  0
  2  1  1  1
  3  2  1  0
  4  5  1  6
  4  2  1  0
  6  8  1  0
  6  4  1  0
  7  6  2  0
  9 20  1  0
  9  8  1  0
  9 10  1  6
 11 10  1  0
 12 11  2  0
 13 14  1  0
 13 12  1  0
 14 19  2  0
 15 16  2  0
 15 14  1  0
 16 17  1  0
 17 18  2  0
 19 18  1  0
 19 11  1  0
 20 22  1  0
 21 20  2  0
 22 23  1  0
 23 28  1  0
 23 24  1  1
 25 24  1  0
 26 25  1  0
 27 26  2  0
 28 29  2  0
 28 31  1  0
 30 26  1  0
M  END
$$$$
