VWE.pdb
     RDKit          3D

 31 32  0  0  1  0  0  0  0  0999 V2000
   29.4948  -21.5636  -11.7506 C   0  0  0  0  0  0  0  0  0  0  0  0
   28.6022  -20.4159  -12.1855 C   0  0  1  0  0  0  0  0  0  0  0  0
   29.0949  -19.7298  -13.4283 C   0  0  0  0  0  0  0  0  0  0  0  0
   27.1397  -20.8260  -12.2612 C   0  0  2  0  0  0  0  0  0  0  0  0
   26.3710  -19.7293  -12.8659 N   0  0  0  0  0  0  0  0  0  0  0  0
   26.5740  -21.1757  -10.9371 C   0  0  0  0  0  0  0  0  0  0  0  0
   26.9233  -22.3041  -10.4664 O   0  0  0  0  0  0  0  0  0  0  0  0
   25.7042  -20.3308  -10.2198 N   0  0  0  0  0  0  0  0  0  0  0  0
   24.9240  -20.6615   -9.0708 C   0  0  1  0  0  0  0  0  0  0  0  0
   24.9715  -19.6110   -7.9625 C   0  0  0  0  0  0  0  0  0  0  0  0
   26.3651  -19.4877   -7.4242 C   0  0  0  0  0  0  0  0  0  0  0  0
   27.4226  -18.9008   -8.0621 C   0  0  0  0  0  0  0  0  0  0  0  0
   28.5542  -18.9708   -7.2885 N   0  0  0  0  0  0  0  0  0  0  0  0
   28.2022  -19.6041   -6.1642 C   0  0  0  0  0  0  0  0  0  0  0  0
   28.9830  -19.9120   -5.0656 C   0  0  0  0  0  0  0  0  0  0  0  0
   28.3803  -20.5620   -4.0166 C   0  0  0  0  0  0  0  0  0  0  0  0
   27.0354  -20.9020   -4.0496 C   0  0  0  0  0  0  0  0  0  0  0  0
   26.2750  -20.5792   -5.1698 C   0  0  0  0  0  0  0  0  0  0  0  0
   26.8529  -19.9343   -6.2221 C   0  0  0  0  0  0  0  0  0  0  0  0
   23.5640  -21.1029   -9.3964 C   0  0  0  0  0  0  0  0  0  0  0  0
   23.0806  -20.8223  -10.5305 O   0  0  0  0  0  0  0  0  0  0  0  0
   22.7542  -21.8331   -8.4974 N   0  0  0  0  0  0  0  0  0  0  0  0
   21.4278  -22.3341   -8.7718 C   0  0  1  0  0  0  0  0  0  0  0  0
   20.7902  -22.8589   -7.5081 C   0  0  0  0  0  0  0  0  0  0  0  0
   19.4326  -23.4509   -7.7131 C   0  0  0  0  0  0  0  0  0  0  0  0
   18.9455  -24.2058   -6.5374 C   0  0  0  0  0  0  0  0  0  0  0  0
   19.6641  -24.2324   -5.4843 O   0  0  0  0  0  0  0  0  0  0  0  0
   20.5569  -21.2040   -9.2290 C   0  0  0  0  0  0  0  0  0  0  0  0
   19.5027  -21.4584   -9.8508 O   0  0  0  0  0  0  0  0  0  0  0  0
   17.7428  -24.8899   -6.5181 O   0  0  0  0  0  0  0  0  0  0  0  0
   20.8867  -19.8858   -8.9836 O   0  0  0  0  0  0  0  0  0  0  0  0
  2  1  1  6
  3  2  1  0
  4  5  1  1
  4  2  1  0
  6  8  1  0
  6  4  1  0
  7  6  2  0
  9 20  1  0
  9  8  1  0
  9 10  1  1
 11 10  1  0
 12 11  2  0
 13 14  1  0
 13 12  1  0
 14 19  2  0
 15 16  2  0
 15 14  1  0
 16 17  1  0
 17 18  2  0
 19 18  1  0
 19 11  1  0
 20 22  1  0
 21 20  2  0
 22 23  1  0
 23 28  1  0
 23 24  1  1
 25 24  1  0
 26 25  1  0
 27 26  2  0
 28 29  2  0
 28 31  1  0
 30 26  1  0
M  END
$$$$
