VWE.pdb
     RDKit          3D

 31 32  0  0  1  0  0  0  0  0999 V2000
   28.3375  -18.6718  -15.7894 C   0  0  0  0  0  0  0  0  0  0  0  0
   27.4353  -19.1281  -14.6576 C   0  0  1  0  0  0  0  0  0  0  0  0
   25.9806  -18.8642  -14.9262 C   0  0  0  0  0  0  0  0  0  0  0  0
   27.7222  -20.5620  -14.2403 C   0  0  2  0  0  0  0  0  0  0  0  0
   27.3271  -21.4612  -15.3333 N   0  0  0  0  0  0  0  0  0  0  0  0
   27.0268  -20.9442  -12.9890 C   0  0  0  0  0  0  0  0  0  0  0  0
   25.9110  -21.5362  -13.1345 O   0  0  0  0  0  0  0  0  0  0  0  0
   27.5457  -20.6844  -11.7052 N   0  0  0  0  0  0  0  0  0  0  0  0
   26.9452  -20.9927  -10.4471 C   0  0  1  0  0  0  0  0  0  0  0  0
   27.9414  -21.1177   -9.2956 C   0  0  0  0  0  0  0  0  0  0  0  0
   27.2435  -20.9253   -7.9830 C   0  0  0  0  0  0  0  0  0  0  0  0
   25.9893  -21.3698   -7.6685 C   0  0  0  0  0  0  0  0  0  0  0  0
   25.6564  -21.0125   -6.3858 N   0  0  0  0  0  0  0  0  0  0  0  0
   26.7061  -20.3420   -5.8981 C   0  0  0  0  0  0  0  0  0  0  0  0
   26.8671  -19.7833   -4.6438 C   0  0  0  0  0  0  0  0  0  0  0  0
   28.0561  -19.1506   -4.3751 C   0  0  0  0  0  0  0  0  0  0  0  0
   29.0659  -19.0700   -5.3233 C   0  0  0  0  0  0  0  0  0  0  0  0
   28.8742  -19.6417   -6.5778 C   0  0  0  0  0  0  0  0  0  0  0  0
   27.7021  -20.2743   -6.8657 C   0  0  0  0  0  0  0  0  0  0  0  0
   25.7907  -20.1463  -10.1287 C   0  0  0  0  0  0  0  0  0  0  0  0
   25.9644  -18.9048   -9.9638 O   0  0  0  0  0  0  0  0  0  0  0  0
   24.4780  -20.6517   -9.9930 N   0  0  0  0  0  0  0  0  0  0  0  0
   23.2730  -20.0090  -10.4627 C   0  0  1  0  0  0  0  0  0  0  0  0
   23.2947  -19.8824  -11.9668 C   0  0  0  0  0  0  0  0  0  0  0  0
   22.8420  -21.1122  -12.6867 C   0  0  0  0  0  0  0  0  0  0  0  0
   21.8054  -20.8387  -13.7065 C   0  0  0  0  0  0  0  0  0  0  0  0
   21.7732  -19.6884  -14.2559 O   0  0  0  0  0  0  0  0  0  0  0  0
   22.0933  -20.8755  -10.1434 C   0  0  0  0  0  0  0  0  0  0  0  0
   20.9402  -20.4174  -10.2950 O   0  0  0  0  0  0  0  0  0  0  0  0
   20.8613  -21.7708  -14.1001 O   0  0  0  0  0  0  0  0  0  0  0  0
   22.2436  -22.1690   -9.6841 O   0  0  0  0  0  0  0  0  0  0  0  0
  2  1  1  6
  3  2  1  0
  4  5  1  6
  4  2  1  0
  6  8  1  0
  6  4  1  0
  7  6  2  0
  9 20  1  0
  9  8  1  0
  9 10  1  1
 11 10  1  0
 12 11  2  0
 13 14  1  0
 13 12  1  0
 14 19  2  0
 15 16  2  0
 15 14  1  0
 16 17  1  0
 17 18  2  0
 19 18  1  0
 19 11  1  0
 20 22  1  0
 21 20  2  0
 22 23  1  0
 23 28  1  0
 23 24  1  6
 25 24  1  0
 26 25  1  0
 27 26  2  0
 28 29  2  0
 28 31  1  0
 30 26  1  0
M  END
$$$$
