VWE.pdb
     RDKit          3D

 31 32  0  0  1  0  0  0  0  0999 V2000
   24.0870  -20.2411  -19.4517 C   0  0  0  0  0  0  0  0  0  0  0  0
   25.4166  -20.9145  -19.7377 C   0  0  1  0  0  0  0  0  0  0  0  0
   25.9825  -20.5458  -21.0800 C   0  0  0  0  0  0  0  0  0  0  0  0
   26.4049  -20.7365  -18.5957 C   0  0  2  0  0  0  0  0  0  0  0  0
   27.6241  -21.4977  -18.9016 N   0  0  0  0  0  0  0  0  0  0  0  0
   25.8522  -21.1628  -17.2886 C   0  0  0  0  0  0  0  0  0  0  0  0
   25.6132  -22.4058  -17.1676 O   0  0  0  0  0  0  0  0  0  0  0  0
   25.6000  -20.2712  -16.2274 N   0  0  0  0  0  0  0  0  0  0  0  0
   25.0664  -20.5820  -14.9402 C   0  0  1  0  0  0  0  0  0  0  0  0
   25.5439  -19.6512  -13.8268 C   0  0  0  0  0  0  0  0  0  0  0  0
   25.7329  -20.4197  -12.5538 C   0  0  0  0  0  0  0  0  0  0  0  0
   26.7956  -21.2262  -12.2538 C   0  0  0  0  0  0  0  0  0  0  0  0
   26.6439  -21.7839  -11.0089 N   0  0  0  0  0  0  0  0  0  0  0  0
   25.4824  -21.3246  -10.5303 C   0  0  0  0  0  0  0  0  0  0  0  0
   24.8872  -21.5857   -9.3101 C   0  0  0  0  0  0  0  0  0  0  0  0
   23.6860  -20.9760   -9.0428 C   0  0  0  0  0  0  0  0  0  0  0  0
   23.0832  -20.1265   -9.9596 C   0  0  0  0  0  0  0  0  0  0  0  0
   23.7064  -19.8834  -11.1801 C   0  0  0  0  0  0  0  0  0  0  0  0
   24.8988  -20.4780  -11.4661 C   0  0  0  0  0  0  0  0  0  0  0  0
   23.6143  -20.7871  -14.9446 C   0  0  0  0  0  0  0  0  0  0  0  0
   22.8654  -19.8767  -15.4016 O   0  0  0  0  0  0  0  0  0  0  0  0
   23.0001  -21.9628  -14.4570 N   0  0  0  0  0  0  0  0  0  0  0  0
   21.5782  -22.1853  -14.3375 C   0  0  1  0  0  0  0  0  0  0  0  0
   21.3007  -23.6056  -13.9080 C   0  0  0  0  0  0  0  0  0  0  0  0
   19.8563  -23.8900  -13.6462 C   0  0  0  0  0  0  0  0  0  0  0  0
   19.3428  -25.0424  -14.4192 C   0  0  0  0  0  0  0  0  0  0  0  0
   20.1765  -25.8755  -14.9060 O   0  0  0  0  0  0  0  0  0  0  0  0
   21.0312  -21.3153  -13.2473 C   0  0  0  0  0  0  0  0  0  0  0  0
   21.8204  -20.7798  -12.4393 O   0  0  0  0  0  0  0  0  0  0  0  0
   17.9962  -25.2674  -14.6445 O   0  0  0  0  0  0  0  0  0  0  0  0
   19.6762  -21.0882  -13.1084 O   0  0  0  0  0  0  0  0  0  0  0  0
  2  1  1  1
  3  2  1  0
  4  5  1  6
  4  2  1  0
  6  8  1  0
  6  4  1  0
  7  6  2  0
  9 20  1  0
  9  8  1  0
  9 10  1  1
 11 10  1  0
 12 11  2  0
 13 14  1  0
 13 12  1  0
 14 19  2  0
 15 16  2  0
 15 14  1  0
 16 17  1  0
 17 18  2  0
 19 18  1  0
 19 11  1  0
 20 22  1  0
 21 20  2  0
 22 23  1  0
 23 28  1  0
 23 24  1  1
 25 24  1  0
 26 25  1  0
 27 26  2  0
 28 29  2  0
 28 31  1  0
 30 26  1  0
M  END
$$$$
