VWE.pdb
     RDKit          3D

 31 32  0  0  1  0  0  0  0  0999 V2000
   23.0026  -19.3636  -12.3663 C   0  0  0  0  0  0  0  0  0  0  0  0
   24.2069  -19.7967  -13.1820 C   0  0  1  0  0  0  0  0  0  0  0  0
   24.5077  -18.8646  -14.3216 C   0  0  0  0  0  0  0  0  0  0  0  0
   25.4150  -20.0899  -12.3062 C   0  0  2  0  0  0  0  0  0  0  0  0
   26.5295  -20.5157  -13.1640 N   0  0  0  0  0  0  0  0  0  0  0  0
   25.1401  -21.1210  -11.2781 C   0  0  0  0  0  0  0  0  0  0  0  0
   25.0410  -22.3149  -11.7043 O   0  0  0  0  0  0  0  0  0  0  0  0
   24.9960  -20.8280   -9.9076 N   0  0  0  0  0  0  0  0  0  0  0  0
   24.6468  -21.7312   -8.8586 C   0  0  1  0  0  0  0  0  0  0  0  0
   25.7714  -21.9862   -7.8564 C   0  0  0  0  0  0  0  0  0  0  0  0
   26.4155  -20.6923   -7.4592 C   0  0  0  0  0  0  0  0  0  0  0  0
   26.2800  -19.4963   -8.1081 C   0  0  0  0  0  0  0  0  0  0  0  0
   27.0136  -18.5199   -7.4818 N   0  0  0  0  0  0  0  0  0  0  0  0
   27.6097  -19.1083   -6.4389 C   0  0  0  0  0  0  0  0  0  0  0  0
   28.4470  -18.5469   -5.4929 C   0  0  0  0  0  0  0  0  0  0  0  0
   28.9264  -19.3651   -4.4995 C   0  0  0  0  0  0  0  0  0  0  0  0
   28.5878  -20.7094   -4.4397 C   0  0  0  0  0  0  0  0  0  0  0  0
   27.7430  -21.2462   -5.4069 C   0  0  0  0  0  0  0  0  0  0  0  0
   27.2558  -20.4523   -6.4016 C   0  0  0  0  0  0  0  0  0  0  0  0
   23.3616  -21.4200   -8.2245 C   0  0  0  0  0  0  0  0  0  0  0  0
   23.0211  -20.2104   -8.0846 O   0  0  0  0  0  0  0  0  0  0  0  0
   22.4733  -22.4133   -7.7540 N   0  0  0  0  0  0  0  0  0  0  0  0
   21.0651  -22.2305   -7.4907 C   0  0  1  0  0  0  0  0  0  0  0  0
   20.2474  -23.2225   -8.2819 C   0  0  0  0  0  0  0  0  0  0  0  0
   18.7824  -23.1750   -7.9866 C   0  0  0  0  0  0  0  0  0  0  0  0
   18.0126  -22.4098   -8.9923 C   0  0  0  0  0  0  0  0  0  0  0  0
   18.5475  -22.1743  -10.1256 O   0  0  0  0  0  0  0  0  0  0  0  0
   20.7881  -22.5312   -6.0494 C   0  0  0  0  0  0  0  0  0  0  0  0
   21.6825  -23.0572   -5.3523 O   0  0  0  0  0  0  0  0  0  0  0  0
   16.7334  -21.9321   -8.7682 O   0  0  0  0  0  0  0  0  0  0  0  0
   19.5692  -22.2441   -5.4674 O   0  0  0  0  0  0  0  0  0  0  0  0
  2  1  1  1
  3  2  1  0
  4  5  1  6
  4  2  1  0
  6  8  1  0
  6  4  1  0
  7  6  2  0
  9 20  1  0
  9  8  1  0
  9 10  1  1
 11 10  1  0
 12 11  2  0
 13 14  1  0
 13 12  1  0
 14 19  2  0
 15 16  2  0
 15 14  1  0
 16 17  1  0
 17 18  2  0
 19 18  1  0
 19 11  1  0
 20 22  1  0
 21 20  2  0
 22 23  1  0
 23 28  1  0
 23 24  1  6
 25 24  1  0
 26 25  1  0
 27 26  2  0
 28 29  2  0
 28 31  1  0
 30 26  1  0
M  END
$$$$
