VWE.pdb
     RDKit          3D

 31 32  0  0  1  0  0  0  0  0999 V2000
   29.5798  -19.3404  -14.9004 C   0  0  0  0  0  0  0  0  0  0  0  0
   28.9397  -20.0916  -13.7475 C   0  0  1  0  0  0  0  0  0  0  0  0
   29.6528  -19.8782  -12.4423 C   0  0  0  0  0  0  0  0  0  0  0  0
   27.4416  -19.8434  -13.6652 C   0  0  2  0  0  0  0  0  0  0  0  0
   27.2057  -18.3958  -13.5747 N   0  0  0  0  0  0  0  0  0  0  0  0
   26.8088  -20.5357  -12.5181 C   0  0  0  0  0  0  0  0  0  0  0  0
   26.6640  -21.7930  -12.6418 O   0  0  0  0  0  0  0  0  0  0  0  0
   26.3869  -19.8707  -11.3499 N   0  0  0  0  0  0  0  0  0  0  0  0
   25.5717  -20.3920  -10.3002 C   0  0  1  0  0  0  0  0  0  0  0  0
   25.8968  -19.8250   -8.9193 C   0  0  0  0  0  0  0  0  0  0  0  0
   27.1747  -20.4154   -8.4040 C   0  0  0  0  0  0  0  0  0  0  0  0
   27.9477  -21.3413   -9.0481 C   0  0  0  0  0  0  0  0  0  0  0  0
   29.0422  -21.6711   -8.2883 N   0  0  0  0  0  0  0  0  0  0  0  0
   28.9518  -20.9491   -7.1659 C   0  0  0  0  0  0  0  0  0  0  0  0
   29.8170  -20.9163   -6.0880 C   0  0  0  0  0  0  0  0  0  0  0  0
   29.5095  -20.0727   -5.0488 C   0  0  0  0  0  0  0  0  0  0  0  0
   28.3724  -19.2778   -5.0711 C   0  0  0  0  0  0  0  0  0  0  0  0
   27.5200  -19.3331   -6.1700 C   0  0  0  0  0  0  0  0  0  0  0  0
   27.8059  -20.1632   -7.2122 C   0  0  0  0  0  0  0  0  0  0  0  0
   24.1389  -20.3782  -10.6125 C   0  0  0  0  0  0  0  0  0  0  0  0
   23.4705  -19.3284  -10.3898 O   0  0  0  0  0  0  0  0  0  0  0  0
   23.4570  -21.4911  -11.1544 N   0  0  0  0  0  0  0  0  0  0  0  0
   22.1069  -21.4863  -11.6670 C   0  0  1  0  0  0  0  0  0  0  0  0
   21.8509  -22.7252  -12.4907 C   0  0  0  0  0  0  0  0  0  0  0  0
   20.4592  -22.8202  -13.0288 C   0  0  0  0  0  0  0  0  0  0  0  0
   20.2838  -22.1059  -14.3127 C   0  0  0  0  0  0  0  0  0  0  0  0
   21.0173  -22.4340  -15.3028 O   0  0  0  0  0  0  0  0  0  0  0  0
   21.1427  -21.5513  -10.5222 C   0  0  0  0  0  0  0  0  0  0  0  0
   19.9167  -21.4652  -10.7505 O   0  0  0  0  0  0  0  0  0  0  0  0
   19.3595  -21.0931  -14.4991 O   0  0  0  0  0  0  0  0  0  0  0  0
   21.5707  -21.7032   -9.2181 O   0  0  0  0  0  0  0  0  0  0  0  0
  2  1  1  6
  3  2  1  0
  4  5  1  1
  4  2  1  0
  6  8  1  0
  6  4  1  0
  7  6  2  0
  9 20  1  0
  9  8  1  0
  9 10  1  1
 11 10  1  0
 12 11  2  0
 13 14  1  0
 13 12  1  0
 14 19  2  0
 15 16  2  0
 15 14  1  0
 16 17  1  0
 17 18  2  0
 19 18  1  0
 19 11  1  0
 20 22  1  0
 21 20  2  0
 22 23  1  0
 23 28  1  0
 23 24  1  6
 25 24  1  0
 26 25  1  0
 27 26  2  0
 28 29  2  0
 28 31  1  0
 30 26  1  0
M  END
$$$$
