VWE.pdb
     RDKit          3D

 31 32  0  0  1  0  0  0  0  0999 V2000
   29.7143  -21.6945  -18.8389 C   0  0  0  0  0  0  0  0  0  0  0  0
   29.1663  -21.7057  -17.4237 C   0  0  1  0  0  0  0  0  0  0  0  0
   29.4856  -20.4501  -16.6626 C   0  0  0  0  0  0  0  0  0  0  0  0
   27.6923  -22.0778  -17.3844 C   0  0  2  0  0  0  0  0  0  0  0  0
   26.9455  -21.1451  -18.2397 N   0  0  0  0  0  0  0  0  0  0  0  0
   27.1357  -22.0676  -16.0112 C   0  0  0  0  0  0  0  0  0  0  0  0
   27.0781  -23.1964  -15.4288 O   0  0  0  0  0  0  0  0  0  0  0  0
   26.6931  -20.8968  -15.3645 N   0  0  0  0  0  0  0  0  0  0  0  0
   26.1507  -20.7837  -14.0487 C   0  0  1  0  0  0  0  0  0  0  0  0
   26.8099  -19.7024  -13.1942 C   0  0  0  0  0  0  0  0  0  0  0  0
   26.4206  -19.8686  -11.7562 C   0  0  0  0  0  0  0  0  0  0  0  0
   25.2248  -19.5048  -11.2017 C   0  0  0  0  0  0  0  0  0  0  0  0
   25.2069  -19.7903   -9.8593 N   0  0  0  0  0  0  0  0  0  0  0  0
   26.3956  -20.3336   -9.5747 C   0  0  0  0  0  0  0  0  0  0  0  0
   26.8639  -20.7993   -8.3602 C   0  0  0  0  0  0  0  0  0  0  0  0
   28.1292  -21.3323   -8.3263 C   0  0  0  0  0  0  0  0  0  0  0  0
   28.9171  -21.4048   -9.4662 C   0  0  0  0  0  0  0  0  0  0  0  0
   28.4182  -20.9273  -10.6746 C   0  0  0  0  0  0  0  0  0  0  0  0
   27.1654  -20.3942  -10.7309 C   0  0  0  0  0  0  0  0  0  0  0  0
   24.6853  -20.7319  -14.0243 C   0  0  0  0  0  0  0  0  0  0  0  0
   24.0829  -19.9643  -14.8284 O   0  0  0  0  0  0  0  0  0  0  0  0
   23.9010  -21.5030  -13.1369 N   0  0  0  0  0  0  0  0  0  0  0  0
   22.4600  -21.5976  -13.1479 C   0  0  1  0  0  0  0  0  0  0  0  0
   21.9657  -22.2683  -11.8891 C   0  0  0  0  0  0  0  0  0  0  0  0
   20.4862  -22.4816  -11.8551 C   0  0  0  0  0  0  0  0  0  0  0  0
   20.0351  -23.2268  -10.6590 C   0  0  0  0  0  0  0  0  0  0  0  0
   20.9021  -23.5826   -9.7943 O   0  0  0  0  0  0  0  0  0  0  0  0
   21.8736  -20.2190  -13.1327 C   0  0  0  0  0  0  0  0  0  0  0  0
   22.4165  -19.3320  -12.4392 O   0  0  0  0  0  0  0  0  0  0  0  0
   18.7128  -23.5613  -10.4256 O   0  0  0  0  0  0  0  0  0  0  0  0
   20.7468  -19.8995  -13.8641 O   0  0  0  0  0  0  0  0  0  0  0  0
  2  1  1  6
  3  2  1  0
  4  5  1  6
  4  2  1  0
  6  8  1  0
  6  4  1  0
  7  6  2  0
  9 20  1  0
  9  8  1  0
  9 10  1  6
 11 10  1  0
 12 11  2  0
 13 14  1  0
 13 12  1  0
 14 19  2  0
 15 16  2  0
 15 14  1  0
 16 17  1  0
 17 18  2  0
 19 18  1  0
 19 11  1  0
 20 22  1  0
 21 20  2  0
 22 23  1  0
 23 28  1  0
 23 24  1  1
 25 24  1  0
 26 25  1  0
 27 26  2  0
 28 29  2  0
 28 31  1  0
 30 26  1  0
M  END
$$$$
