LDN.pdb
     RDKit          3D

 25 24  0  0  1  0  0  0  0  0999 V2000
   29.4725  -22.1069  -11.3326 C   0  0  0  0  0  0  0  0  0  0  0  0
   29.3951  -20.8793  -12.1998 C   0  0  2  0  0  0  0  0  0  0  0  0
   30.4423  -19.8943  -11.7310 C   0  0  0  0  0  0  0  0  0  0  0  0
   28.0543  -20.2053  -12.2034 C   0  0  0  0  0  0  0  0  0  0  0  0
   26.9490  -21.1195  -12.6967 C   0  0  2  0  0  0  0  0  0  0  0  0
   27.3812  -21.8039  -13.9041 N   0  0  0  0  0  0  0  0  0  0  0  0
   25.7254  -20.3216  -12.9291 C   0  0  0  0  0  0  0  0  0  0  0  0
   25.2084  -19.6507  -11.9639 O   0  0  0  0  0  0  0  0  0  0  0  0
   25.0863  -20.2571  -14.1798 N   0  0  0  0  0  0  0  0  0  0  0  0
   23.9326  -19.5117  -14.5414 C   0  0  1  0  0  0  0  0  0  0  0  0
   23.9555  -18.9800  -15.9796 C   0  0  0  0  0  0  0  0  0  0  0  0
   22.8010  -18.0931  -16.2478 C   0  0  0  0  0  0  0  0  0  0  0  0
   22.4294  -17.3052  -15.3359 O   0  0  0  0  0  0  0  0  0  0  0  0
   22.6590  -20.3042  -14.4566 C   0  0  0  0  0  0  0  0  0  0  0  0
   22.6907  -21.3948  -15.0747 O   0  0  0  0  0  0  0  0  0  0  0  0
   22.1004  -18.0775  -17.4470 O   0  0  0  0  0  0  0  0  0  0  0  0
   18.4839  -22.6197  -11.7286 N   0  0  0  0  0  0  0  0  0  0  0  0
   18.4797  -21.2686  -12.1392 C   0  0  0  0  0  0  0  0  0  0  0  0
   17.3962  -20.7262  -12.4458 O   0  0  0  0  0  0  0  0  0  0  0  0
   19.7343  -20.5049  -12.2059 C   0  0  0  0  0  0  0  0  0  0  0  0
   20.3415  -20.6190  -13.5767 C   0  0  2  0  0  0  0  0  0  0  0  0
   21.5432  -19.8644  -13.7486 N   0  0  0  0  0  0  0  0  0  0  0  0
   19.3279  -20.3401  -14.6141 C   0  0  0  0  0  0  0  0  0  0  0  0
   18.4369  -21.3835  -15.0079 O   0  0  0  0  0  0  0  0  0  0  0  0
   19.1503  -19.2739  -15.2058 O   0  0  0  0  0  0  0  0  0  0  0  0
  2  1  1  1
  2  3  1  0
  4  5  1  0
  4  2  1  0
  5  6  1  6
  5  7  1  0
  7  8  2  0
  9  7  1  0
  9 10  1  0
 10 14  1  0
 10 11  1  6
 12 11  1  0
 13 12  2  0
 14 15  2  0
 16 12  1  0
 17 18  1  0
 18 20  1  0
 19 18  2  0
 21 20  1  1
 21 23  1  0
 22 21  1  0
 22 14  1  0
 23 25  2  0
 23 24  1  0
M  END
$$$$
