LDN.pdb
     RDKit          3D

 25 24  0  0  1  0  0  0  0  0999 V2000
   27.0480  -19.2304   -4.7654 C   0  0  0  0  0  0  0  0  0  0  0  0
   27.8851  -20.1234   -5.6411 C   0  0  2  0  0  0  0  0  0  0  0  0
   29.3333  -19.9747   -5.2323 C   0  0  0  0  0  0  0  0  0  0  0  0
   27.7592  -19.8467   -7.1107 C   0  0  0  0  0  0  0  0  0  0  0  0
   26.3396  -20.0274   -7.6134 C   0  0  2  0  0  0  0  0  0  0  0  0
   25.8972  -21.3877   -7.3543 N   0  0  0  0  0  0  0  0  0  0  0  0
   26.2892  -19.7019   -9.0554 C   0  0  0  0  0  0  0  0  0  0  0  0
   26.4568  -18.4887   -9.4417 O   0  0  0  0  0  0  0  0  0  0  0  0
   26.0641  -20.6733  -10.0465 N   0  0  0  0  0  0  0  0  0  0  0  0
   25.9917  -20.4949  -11.4538 C   0  0  1  0  0  0  0  0  0  0  0  0
   26.2438  -21.7739  -12.2613 C   0  0  0  0  0  0  0  0  0  0  0  0
   26.8170  -21.4703  -13.5921 C   0  0  0  0  0  0  0  0  0  0  0  0
   26.0927  -20.8673  -14.4301 O   0  0  0  0  0  0  0  0  0  0  0  0
   24.6491  -20.0137  -11.9262 C   0  0  0  0  0  0  0  0  0  0  0  0
   24.6166  -18.7969  -12.2276 O   0  0  0  0  0  0  0  0  0  0  0  0
   28.1081  -21.8115  -13.9738 O   0  0  0  0  0  0  0  0  0  0  0  0
   20.2802  -19.9979  -14.4348 N   0  0  0  0  0  0  0  0  0  0  0  0
   21.5341  -20.0838  -15.0786 C   0  0  0  0  0  0  0  0  0  0  0  0
   21.6035  -19.8859  -16.3108 O   0  0  0  0  0  0  0  0  0  0  0  0
   22.7470  -20.4019  -14.3110 C   0  0  0  0  0  0  0  0  0  0  0  0
   22.4076  -20.6032  -12.8601 C   0  0  2  0  0  0  0  0  0  0  0  0
   23.5399  -20.8502  -12.0234 N   0  0  0  0  0  0  0  0  0  0  0  0
   21.3466  -21.6204  -12.7155 C   0  0  0  0  0  0  0  0  0  0  0  0
   20.0381  -21.2037  -12.3259 O   0  0  0  0  0  0  0  0  0  0  0  0
   21.4570  -22.8343  -12.8969 O   0  0  0  0  0  0  0  0  0  0  0  0
  2  1  1  1
  2  3  1  0
  4  5  1  0
  4  2  1  0
  5  6  1  6
  5  7  1  0
  7  8  2  0
  9  7  1  0
  9 10  1  0
 10 14  1  0
 10 11  1  6
 12 11  1  0
 13 12  2  0
 14 15  2  0
 16 12  1  0
 17 18  1  0
 18 20  1  0
 19 18  2  0
 21 20  1  6
 21 23  1  0
 22 21  1  0
 22 14  1  0
 23 25  2  0
 23 24  1  0
M  END
$$$$
