LDN.pdb
     RDKit          3D

 25 24  0  0  1  0  0  0  0  0999 V2000
   25.3103  -17.0355  -15.7306 C   0  0  0  0  0  0  0  0  0  0  0  0
   26.3107  -15.9259  -15.9121 C   0  0  2  0  0  0  0  0  0  0  0  0
   27.4698  -16.1668  -14.9714 C   0  0  0  0  0  0  0  0  0  0  0  0
   25.7619  -14.5499  -15.6723 C   0  0  0  0  0  0  0  0  0  0  0  0
   24.5475  -14.2539  -16.5316 C   0  0  2  0  0  0  0  0  0  0  0  0
   24.8248  -14.6135  -17.9125 N   0  0  0  0  0  0  0  0  0  0  0  0
   24.1954  -12.8234  -16.3996 C   0  0  0  0  0  0  0  0  0  0  0  0
   23.9940  -12.3209  -15.2351 O   0  0  0  0  0  0  0  0  0  0  0  0
   24.0686  -11.9666  -17.5071 N   0  0  0  0  0  0  0  0  0  0  0  0
   23.7044  -10.5938  -17.5209 C   0  0  1  0  0  0  0  0  0  0  0  0
   23.8759   -9.9136  -18.8845 C   0  0  0  0  0  0  0  0  0  0  0  0
   23.6359   -8.4555  -18.7968 C   0  0  0  0  0  0  0  0  0  0  0  0
   22.6249   -7.9810  -19.3825 O   0  0  0  0  0  0  0  0  0  0  0  0
   22.2651  -10.3544  -17.1627 C   0  0  0  0  0  0  0  0  0  0  0  0
   21.4549  -11.0956  -17.7684 O   0  0  0  0  0  0  0  0  0  0  0  0
   24.4605   -7.5765  -18.1064 O   0  0  0  0  0  0  0  0  0  0  0  0
   17.8877   -8.7400  -15.2943 N   0  0  0  0  0  0  0  0  0  0  0  0
   18.5356   -9.7843  -14.5987 C   0  0  0  0  0  0  0  0  0  0  0  0
   17.8850  -10.4698  -13.7807 O   0  0  0  0  0  0  0  0  0  0  0  0
   19.9597  -10.0655  -14.8322 C   0  0  0  0  0  0  0  0  0  0  0  0
   20.5124   -9.1288  -15.8703 C   0  0  2  0  0  0  0  0  0  0  0  0
   21.8688   -9.3944  -16.2348 N   0  0  0  0  0  0  0  0  0  0  0  0
   20.2829   -7.7251  -15.4723 C   0  0  0  0  0  0  0  0  0  0  0  0
   21.3757   -6.8077  -15.5134 O   0  0  0  0  0  0  0  0  0  0  0  0
   19.2206   -7.2288  -15.0932 O   0  0  0  0  0  0  0  0  0  0  0  0
  2  1  1  1
  2  3  1  0
  4  5  1  0
  4  2  1  0
  5  6  1  6
  5  7  1  0
  7  8  2  0
  9  7  1  0
  9 10  1  0
 10 14  1  0
 10 11  1  6
 12 11  1  0
 13 12  2  0
 14 15  2  0
 16 12  1  0
 17 18  1  0
 18 20  1  0
 19 18  2  0
 21 20  1  1
 21 23  1  0
 22 21  1  0
 22 14  1  0
 23 25  2  0
 23 24  1  0
M  END
$$$$
