LDN.pdb
     RDKit          3D

 25 24  0  0  1  0  0  0  0  0999 V2000
   26.9233  -20.7493   -6.4720 C   0  0  0  0  0  0  0  0  0  0  0  0
   27.7057  -20.0224   -7.5323 C   0  0  2  0  0  0  0  0  0  0  0  0
   28.2715  -18.7570   -6.9279 C   0  0  0  0  0  0  0  0  0  0  0  0
   26.9128  -19.6693   -8.7566 C   0  0  0  0  0  0  0  0  0  0  0  0
   26.3296  -20.8914   -9.4400 C   0  0  2  0  0  0  0  0  0  0  0  0
   27.4015  -21.7901   -9.8356 N   0  0  0  0  0  0  0  0  0  0  0  0
   25.5218  -20.4599  -10.6015 C   0  0  0  0  0  0  0  0  0  0  0  0
   24.6037  -19.5755  -10.4466 O   0  0  0  0  0  0  0  0  0  0  0  0
   25.7123  -20.9782  -11.8945 N   0  0  0  0  0  0  0  0  0  0  0  0
   25.0173  -20.6453  -13.0876 C   0  0  1  0  0  0  0  0  0  0  0  0
   25.7643  -21.0200  -14.3733 C   0  0  0  0  0  0  0  0  0  0  0  0
   27.0838  -20.3529  -14.4473 C   0  0  0  0  0  0  0  0  0  0  0  0
   28.1192  -21.0677  -14.3617 O   0  0  0  0  0  0  0  0  0  0  0  0
   23.6871  -21.3321  -13.2149 C   0  0  0  0  0  0  0  0  0  0  0  0
   23.6038  -22.4114  -12.5820 O   0  0  0  0  0  0  0  0  0  0  0  0
   27.2496  -18.9830  -14.6051 O   0  0  0  0  0  0  0  0  0  0  0  0
   18.9779  -22.8381  -12.2546 N   0  0  0  0  0  0  0  0  0  0  0  0
   19.3516  -21.4781  -12.3249 C   0  0  0  0  0  0  0  0  0  0  0  0
   18.4628  -20.5994  -12.3304 O   0  0  0  0  0  0  0  0  0  0  0  0
   20.7698  -21.0962  -12.3905 C   0  0  0  0  0  0  0  0  0  0  0  0
   21.2649  -21.1726  -13.8081 C   0  0  2  0  0  0  0  0  0  0  0  0
   22.6384  -20.8103  -13.9682 N   0  0  0  0  0  0  0  0  0  0  0  0
   20.3606  -20.4314  -14.7104 C   0  0  0  0  0  0  0  0  0  0  0  0
   19.2673  -21.1229  -15.3139 O   0  0  0  0  0  0  0  0  0  0  0  0
   20.4375  -19.2409  -15.0191 O   0  0  0  0  0  0  0  0  0  0  0  0
  2  1  1  1
  2  3  1  0
  4  5  1  0
  4  2  1  0
  5  6  1  6
  5  7  1  0
  7  8  2  0
  9  7  1  0
  9 10  1  0
 10 14  1  0
 10 11  1  6
 12 11  1  0
 13 12  2  0
 14 15  2  0
 16 12  1  0
 17 18  1  0
 18 20  1  0
 19 18  2  0
 21 20  1  1
 21 23  1  0
 22 21  1  0
 22 14  1  0
 23 25  2  0
 23 24  1  0
M  END
$$$$
