LDN.pdb
     RDKit          3D

 25 24  0  0  1  0  0  0  0  0999 V2000
   26.7694  -19.8771   -6.8526 C   0  0  0  0  0  0  0  0  0  0  0  0
   27.6832  -20.3244   -7.9615 C   0  0  2  0  0  0  0  0  0  0  0  0
   29.0608  -19.7551   -7.7066 C   0  0  0  0  0  0  0  0  0  0  0  0
   27.2336  -19.9240   -9.3362 C   0  0  0  0  0  0  0  0  0  0  0  0
   25.9109  -20.5596   -9.7198 C   0  0  2  0  0  0  0  0  0  0  0  0
   26.0125  -22.0057   -9.6120 N   0  0  0  0  0  0  0  0  0  0  0  0
   25.5482  -20.1381  -11.0904 C   0  0  0  0  0  0  0  0  0  0  0  0
   25.5024  -18.8883  -11.3823 O   0  0  0  0  0  0  0  0  0  0  0  0
   25.2459  -21.0548  -12.1126 N   0  0  0  0  0  0  0  0  0  0  0  0
   24.8700  -20.7839  -13.4553 C   0  0  1  0  0  0  0  0  0  0  0  0
   25.7167  -21.5165  -14.5031 C   0  0  0  0  0  0  0  0  0  0  0  0
   27.0406  -20.8766  -14.6736 C   0  0  0  0  0  0  0  0  0  0  0  0
   27.0773  -19.6509  -14.9682 O   0  0  0  0  0  0  0  0  0  0  0  0
   23.4566  -21.1834  -13.7716 C   0  0  0  0  0  0  0  0  0  0  0  0
   23.1440  -22.3287  -13.3677 O   0  0  0  0  0  0  0  0  0  0  0  0
   28.2480  -21.5476  -14.5286 O   0  0  0  0  0  0  0  0  0  0  0  0
   20.7482  -17.2393  -14.0486 N   0  0  0  0  0  0  0  0  0  0  0  0
   20.2713  -18.5640  -13.9396 C   0  0  0  0  0  0  0  0  0  0  0  0
   19.7753  -18.9482  -12.8585 O   0  0  0  0  0  0  0  0  0  0  0  0
   20.3552  -19.4840  -15.0834 C   0  0  0  0  0  0  0  0  0  0  0  0
   21.2084  -20.6720  -14.7350 C   0  0  2  0  0  0  0  0  0  0  0  0
   22.5718  -20.3499  -14.4512 N   0  0  0  0  0  0  0  0  0  0  0  0
   21.0625  -21.7285  -15.7567 C   0  0  0  0  0  0  0  0  0  0  0  0
   20.0433  -22.7141  -15.5911 O   0  0  0  0  0  0  0  0  0  0  0  0
   21.7406  -21.8694  -16.7759 O   0  0  0  0  0  0  0  0  0  0  0  0
  2  1  1  1
  2  3  1  0
  4  5  1  0
  4  2  1  0
  5  6  1  6
  5  7  1  0
  7  8  2  0
  9  7  1  0
  9 10  1  0
 10 14  1  0
 10 11  1  6
 12 11  1  0
 13 12  2  0
 14 15  2  0
 16 12  1  0
 17 18  1  0
 18 20  1  0
 19 18  2  0
 21 20  1  6
 21 23  1  0
 22 21  1  0
 22 14  1  0
 23 25  2  0
 23 24  1  0
M  END
$$$$
