LDN.pdb
     RDKit          3D

 25 24  0  0  1  0  0  0  0  0999 V2000
   23.7402  -13.5861  -19.2595 C   0  0  0  0  0  0  0  0  0  0  0  0
   22.2601  -13.7973  -19.4318 C   0  0  2  0  0  0  0  0  0  0  0  0
   21.9916  -14.1535  -20.8767 C   0  0  0  0  0  0  0  0  0  0  0  0
   21.4161  -12.6158  -19.0527 C   0  0  0  0  0  0  0  0  0  0  0  0
   21.6563  -12.1685  -17.6234 C   0  0  2  0  0  0  0  0  0  0  0  0
   21.3742  -13.2656  -16.7125 N   0  0  0  0  0  0  0  0  0  0  0  0
   20.8127  -10.9882  -17.3350 C   0  0  0  0  0  0  0  0  0  0  0  0
   20.9215   -9.9340  -18.0602 O   0  0  0  0  0  0  0  0  0  0  0  0
   19.8768  -10.9608  -16.2862 N   0  0  0  0  0  0  0  0  0  0  0  0
   18.9856   -9.9143  -15.9286 C   0  0  1  0  0  0  0  0  0  0  0  0
   17.7668  -10.3775  -15.1216 C   0  0  0  0  0  0  0  0  0  0  0  0
   16.9068  -11.2864  -15.9126 C   0  0  0  0  0  0  0  0  0  0  0  0
   16.5968  -10.9436  -17.0860 O   0  0  0  0  0  0  0  0  0  0  0  0
   19.6207   -8.8562  -15.0716 C   0  0  0  0  0  0  0  0  0  0  0  0
   20.4908   -9.2905  -14.2799 O   0  0  0  0  0  0  0  0  0  0  0  0
   16.4192  -12.4972  -15.4379 O   0  0  0  0  0  0  0  0  0  0  0  0
   22.9959   -4.5137  -14.6915 N   0  0  0  0  0  0  0  0  0  0  0  0
   22.1353   -5.4015  -14.0093 C   0  0  0  0  0  0  0  0  0  0  0  0
   21.9348   -5.2397  -12.7863 O   0  0  0  0  0  0  0  0  0  0  0  0
   21.4801   -6.5049  -14.7269 C   0  0  0  0  0  0  0  0  0  0  0  0
   19.9913   -6.4461  -14.5255 C   0  0  2  0  0  0  0  0  0  0  0  0
   19.2736   -7.5100  -15.1548 N   0  0  0  0  0  0  0  0  0  0  0  0
   19.4756   -5.1086  -14.8811 C   0  0  0  0  0  0  0  0  0  0  0  0
   19.0573   -4.2292  -13.8374 O   0  0  0  0  0  0  0  0  0  0  0  0
   19.3570   -4.6397  -16.0145 O   0  0  0  0  0  0  0  0  0  0  0  0
  2  1  1  6
  2  3  1  0
  4  5  1  0
  4  2  1  0
  5  6  1  1
  5  7  1  0
  7  8  2  0
  9  7  1  0
  9 10  1  0
 10 14  1  0
 10 11  1  1
 12 11  1  0
 13 12  2  0
 14 15  2  0
 16 12  1  0
 17 18  1  0
 18 20  1  0
 19 18  2  0
 21 20  1  6
 21 23  1  0
 22 21  1  0
 22 14  1  0
 23 25  2  0
 23 24  1  0
M  END
$$$$
