LDN.pdb
     RDKit          3D

 25 24  0  0  1  0  0  0  0  0999 V2000
   28.9038  -19.9600  -16.6210 C   0  0  0  0  0  0  0  0  0  0  0  0
   28.0679  -20.9912  -17.3301 C   0  0  2  0  0  0  0  0  0  0  0  0
   28.3208  -20.8741  -18.8163 C   0  0  0  0  0  0  0  0  0  0  0  0
   26.5936  -20.8790  -17.0730 C   0  0  0  0  0  0  0  0  0  0  0  0
   26.2466  -21.0623  -15.6078 C   0  0  2  0  0  0  0  0  0  0  0  0
   26.7683  -22.3345  -15.1361 N   0  0  0  0  0  0  0  0  0  0  0  0
   24.7793  -20.9780  -15.4413 C   0  0  0  0  0  0  0  0  0  0  0  0
   24.1306  -20.0105  -15.9820 O   0  0  0  0  0  0  0  0  0  0  0  0
   24.0421  -21.9236  -14.7071 N   0  0  0  0  0  0  0  0  0  0  0  0
   22.6325  -22.0204  -14.5614 C   0  0  1  0  0  0  0  0  0  0  0  0
   22.1530  -23.3554  -13.9788 C   0  0  0  0  0  0  0  0  0  0  0  0
   20.6751  -23.4353  -13.9522 C   0  0  0  0  0  0  0  0  0  0  0  0
   20.1253  -23.9876  -12.9607 O   0  0  0  0  0  0  0  0  0  0  0  0
   22.0549  -20.9825  -13.6414 C   0  0  0  0  0  0  0  0  0  0  0  0
   22.4422  -21.0774  -12.4524 O   0  0  0  0  0  0  0  0  0  0  0  0
   19.8557  -22.9374  -14.9571 O   0  0  0  0  0  0  0  0  0  0  0  0
   20.1359  -18.3279  -15.8240 N   0  0  0  0  0  0  0  0  0  0  0  0
   20.6686  -17.3176  -14.9935 C   0  0  0  0  0  0  0  0  0  0  0  0
   20.8793  -16.1819  -15.4708 O   0  0  0  0  0  0  0  0  0  0  0  0
   20.9727  -17.5951  -13.5821 C   0  0  0  0  0  0  0  0  0  0  0  0
   20.5834  -19.0047  -13.2325 C   0  0  2  0  0  0  0  0  0  0  0  0
   21.1693  -19.9993  -14.0756 N   0  0  0  0  0  0  0  0  0  0  0  0
   19.1149  -19.1233  -13.1296 C   0  0  0  0  0  0  0  0  0  0  0  0
   18.4394  -20.0771  -13.9491 O   0  0  0  0  0  0  0  0  0  0  0  0
   18.3709  -18.4730  -12.3933 O   0  0  0  0  0  0  0  0  0  0  0  0
  2  1  1  1
  2  3  1  0
  4  5  1  0
  4  2  1  0
  5  6  1  6
  5  7  1  0
  7  8  2  0
  9  7  1  0
  9 10  1  0
 10 14  1  0
 10 11  1  1
 12 11  1  0
 13 12  2  0
 14 15  2  0
 16 12  1  0
 17 18  1  0
 18 20  1  0
 19 18  2  0
 21 20  1  6
 21 23  1  0
 22 21  1  0
 22 14  1  0
 23 25  2  0
 23 24  1  0
M  END
$$$$
