LDN.pdb
     RDKit          3D

 25 24  0  0  1  0  0  0  0  0999 V2000
   35.3152  -26.3405  -16.5816 C   0  0  0  0  0  0  0  0  0  0  0  0
   35.1206  -26.3570  -18.0738 C   0  0  2  0  0  0  0  0  0  0  0  0
   35.8472  -25.1701  -18.6652 C   0  0  0  0  0  0  0  0  0  0  0  0
   33.6861  -26.3229  -18.5132 C   0  0  0  0  0  0  0  0  0  0  0  0
   32.8737  -27.4604  -17.9243 C   0  0  2  0  0  0  0  0  0  0  0  0
   33.3045  -28.7218  -18.5043 N   0  0  0  0  0  0  0  0  0  0  0  0
   31.4367  -27.2092  -18.1687 C   0  0  0  0  0  0  0  0  0  0  0  0
   30.9600  -27.3341  -19.3545 O   0  0  0  0  0  0  0  0  0  0  0  0
   30.5463  -26.8340  -17.1474 N   0  0  0  0  0  0  0  0  0  0  0  0
   29.1538  -26.5722  -17.2457 C   0  0  1  0  0  0  0  0  0  0  0  0
   28.3044  -27.2955  -16.1936 C   0  0  0  0  0  0  0  0  0  0  0  0
   27.0112  -27.7448  -16.7567 C   0  0  0  0  0  0  0  0  0  0  0  0
   26.2759  -28.4837  -16.0470 O   0  0  0  0  0  0  0  0  0  0  0  0
   28.8055  -25.1210  -17.0733 C   0  0  0  0  0  0  0  0  0  0  0  0
   29.5652  -24.3342  -17.6869 O   0  0  0  0  0  0  0  0  0  0  0  0
   26.5585  -27.4005  -18.0238 O   0  0  0  0  0  0  0  0  0  0  0  0
   26.3029  -20.8439  -15.9201 N   0  0  0  0  0  0  0  0  0  0  0  0
   27.5539  -20.9832  -16.5602 C   0  0  0  0  0  0  0  0  0  0  0  0
   28.1907  -19.9587  -16.8871 O   0  0  0  0  0  0  0  0  0  0  0  0
   28.1046  -22.3174  -16.8400 C   0  0  0  0  0  0  0  0  0  0  0  0
   27.1556  -23.3828  -16.3655 C   0  0  2  0  0  0  0  0  0  0  0  0
   27.7292  -24.6905  -16.3014 N   0  0  0  0  0  0  0  0  0  0  0  0
   25.9001  -23.3376  -17.1421 C   0  0  0  0  0  0  0  0  0  0  0  0
   24.7052  -22.8950  -16.4988 O   0  0  0  0  0  0  0  0  0  0  0  0
   25.7516  -23.6481  -18.3253 O   0  0  0  0  0  0  0  0  0  0  0  0
  2  1  1  1
  2  3  1  0
  4  5  1  0
  4  2  1  0
  5  6  1  6
  5  7  1  0
  7  8  2  0
  9  7  1  0
  9 10  1  0
 10 14  1  0
 10 11  1  1
 12 11  1  0
 13 12  2  0
 14 15  2  0
 16 12  1  0
 17 18  1  0
 18 20  1  0
 19 18  2  0
 21 20  1  6
 21 23  1  0
 22 21  1  0
 22 14  1  0
 23 25  2  0
 23 24  1  0
M  END
$$$$
