YFV.pdb
     RDKit          3D

 31 32  0  0  1  0  0  0  0  0999 V2000
    7.1918  -13.8420   14.3535 O   0  0  0  0  0  0  0  0  0  0  0  0
    7.3602  -14.3688   15.6353 C   0  0  0  0  0  0  0  0  0  0  0  0
    7.4448  -13.5481   16.7386 C   0  0  0  0  0  0  0  0  0  0  0  0
    7.6121  -14.0564   18.0121 C   0  0  0  0  0  0  0  0  0  0  0  0
    7.7017  -15.4084   18.2379 C   0  0  0  0  0  0  0  0  0  0  0  0
    7.8692  -16.0282   19.5635 C   0  0  0  0  0  0  0  0  0  0  0  0
    9.2231  -15.6194   20.1076 C   0  0  2  0  0  0  0  0  0  0  0  0
   10.3056  -16.3959   19.6062 N   0  0  0  0  0  0  0  0  0  0  0  0
    9.1914  -15.4230   21.5645 C   0  0  0  0  0  0  0  0  0  0  0  0
   10.0930  -15.9677   22.2828 O   0  0  0  0  0  0  0  0  0  0  0  0
    7.6153  -16.2398   17.1148 C   0  0  0  0  0  0  0  0  0  0  0  0
    7.4489  -15.7328   15.8465 C   0  0  0  0  0  0  0  0  0  0  0  0
    8.2382  -14.6703   22.2939 N   0  0  0  0  0  0  0  0  0  0  0  0
    8.4050  -14.4085   23.7243 C   0  0  1  0  0  0  0  0  0  0  0  0
    7.3854  -13.3502   24.0662 C   0  0  0  0  0  0  0  0  0  0  0  0
    7.3166  -13.0400   25.5073 C   0  0  0  0  0  0  0  0  0  0  0  0
    6.2406  -13.4067   26.2784 C   0  0  0  0  0  0  0  0  0  0  0  0
    6.2440  -13.0794   27.6156 C   0  0  0  0  0  0  0  0  0  0  0  0
    7.2981  -12.3965   28.1851 C   0  0  0  0  0  0  0  0  0  0  0  0
    8.3798  -12.0198   27.4440 C   0  0  0  0  0  0  0  0  0  0  0  0
    8.3693  -12.3549   26.0915 C   0  0  0  0  0  0  0  0  0  0  0  0
    8.1890  -15.6632   24.5144 C   0  0  0  0  0  0  0  0  0  0  0  0
    7.0932  -16.2287   24.3474 O   0  0  0  0  0  0  0  0  0  0  0  0
   11.3436  -18.1068   25.5780 C   0  0  0  0  0  0  0  0  0  0  0  0
    9.8981  -18.5260   25.5800 C   0  0  2  0  0  0  0  0  0  0  0  0
    9.5129  -18.7477   24.1255 C   0  0  0  0  0  0  0  0  0  0  0  0
    9.0944  -17.3664   26.1573 C   0  0  2  0  0  0  0  0  0  0  0  0
    9.1446  -16.1806   25.3872 N   0  0  0  0  0  0  0  0  0  0  0  0
    9.3355  -17.1003   27.5641 C   0  0  0  0  0  0  0  0  0  0  0  0
    9.8760  -15.9823   27.8830 O   0  0  0  0  0  0  0  0  0  0  0  0
    9.0505  -17.9141   28.6437 O   0  0  0  0  0  0  0  0  0  0  0  0
  2  1  1  0
  2 12  2  0
  3  2  1  0
  4  3  2  0
  4  5  1  0
  5 11  2  0
  6  5  1  0
  7  6  1  0
  7  8  1  1
  9 13  1  0
  9  7  1  0
 10  9  2  0
 11 12  1  0
 14 13  1  0
 14 15  1  1
 16 15  1  0
 17 16  2  0
 18 17  1  0
 19 20  1  0
 19 18  2  0
 20 21  2  0
 21 16  1  0
 22 14  1  0
 22 28  1  0
 23 22  2  0
 25 24  1  6
 25 27  1  0
 26 25  1  0
 27 28  1  6
 27 29  1  0
 29 31  1  0
 30 29  2  0
M  END
$$$$
