YFV.pdb
     RDKit          3D

 31 32  0  0  1  0  0  0  0  0999 V2000
    5.5870  -18.8949   15.0328 O   0  0  0  0  0  0  0  0  0  0  0  0
    6.2480  -18.6179   16.2307 C   0  0  0  0  0  0  0  0  0  0  0  0
    7.1575  -17.5871   16.3220 C   0  0  0  0  0  0  0  0  0  0  0  0
    7.8187  -17.3028   17.5011 C   0  0  0  0  0  0  0  0  0  0  0  0
    7.5987  -18.0372   18.6409 C   0  0  0  0  0  0  0  0  0  0  0  0
    8.2542  -17.7912   19.9368 C   0  0  0  0  0  0  0  0  0  0  0  0
    9.0968  -16.5383   19.8088 C   0  0  2  0  0  0  0  0  0  0  0  0
   10.2868  -16.7175   19.0484 N   0  0  0  0  0  0  0  0  0  0  0  0
    9.2538  -15.8495   21.0984 C   0  0  0  0  0  0  0  0  0  0  0  0
   10.3440  -15.9864   21.7452 O   0  0  0  0  0  0  0  0  0  0  0  0
    6.6740  -19.0839   18.5451 C   0  0  0  0  0  0  0  0  0  0  0  0
    6.0158  -19.3667   17.3701 C   0  0  0  0  0  0  0  0  0  0  0  0
    8.2976  -15.0191   21.7334 N   0  0  0  0  0  0  0  0  0  0  0  0
    8.4982  -14.5294   23.0980 C   0  0  1  0  0  0  0  0  0  0  0  0
    7.3251  -13.6241   23.3824 C   0  0  0  0  0  0  0  0  0  0  0  0
    7.2813  -13.1334   24.7734 C   0  0  0  0  0  0  0  0  0  0  0  0
    6.3353  -13.5706   25.6682 C   0  0  0  0  0  0  0  0  0  0  0  0
    6.3535  -13.0651   26.9486 C   0  0  0  0  0  0  0  0  0  0  0  0
    7.2951  -12.1370   27.3409 C   0  0  0  0  0  0  0  0  0  0  0  0
    8.2466  -11.6849   26.4741 C   0  0  0  0  0  0  0  0  0  0  0  0
    8.2219  -12.2013   25.1801 C   0  0  0  0  0  0  0  0  0  0  0  0
    8.5611  -15.6756   24.0612 C   0  0  0  0  0  0  0  0  0  0  0  0
    7.6365  -16.5046   23.9803 O   0  0  0  0  0  0  0  0  0  0  0  0
   10.9012  -18.2953   24.1073 C   0  0  0  0  0  0  0  0  0  0  0  0
   11.1327  -17.6889   25.4652 C   0  0  2  0  0  0  0  0  0  0  0  0
   11.3346  -18.8506   26.4259 C   0  0  0  0  0  0  0  0  0  0  0  0
    9.8680  -16.9233   25.8373 C   0  0  2  0  0  0  0  0  0  0  0  0
    9.5839  -15.8214   24.9966 N   0  0  0  0  0  0  0  0  0  0  0  0
    9.7647  -16.5652   27.2405 C   0  0  0  0  0  0  0  0  0  0  0  0
   10.2601  -15.4438   27.6155 O   0  0  0  0  0  0  0  0  0  0  0  0
    9.1836  -17.2917   28.2621 O   0  0  0  0  0  0  0  0  0  0  0  0
  2  1  1  0
  2 12  2  0
  3  2  1  0
  4  3  2  0
  4  5  1  0
  5 11  2  0
  6  5  1  0
  7  6  1  0
  7  8  1  1
  9 13  1  0
  9  7  1  0
 10  9  2  0
 11 12  1  0
 14 13  1  0
 14 15  1  1
 16 15  1  0
 17 16  2  0
 18 17  1  0
 19 20  1  0
 19 18  2  0
 20 21  2  0
 21 16  1  0
 22 14  1  0
 22 28  1  0
 23 22  2  0
 25 24  1  6
 25 27  1  0
 26 25  1  0
 27 28  1  6
 27 29  1  0
 29 31  1  0
 30 29  2  0
M  END
$$$$
