YFV.pdb
     RDKit          3D

 31 32  0  0  1  0  0  0  0  0999 V2000
    9.7923  -23.0789   18.7653 O   0  0  0  0  0  0  0  0  0  0  0  0
    9.9428  -22.0066   19.6464 C   0  0  0  0  0  0  0  0  0  0  0  0
    9.8673  -20.7039   19.2045 C   0  0  0  0  0  0  0  0  0  0  0  0
   10.0150  -19.6340   20.0657 C   0  0  0  0  0  0  0  0  0  0  0  0
   10.2444  -19.8204   21.4072 C   0  0  0  0  0  0  0  0  0  0  0  0
   10.4019  -18.7347   22.3900 C   0  0  0  0  0  0  0  0  0  0  0  0
   10.1837  -17.4164   21.6755 C   0  0  2  0  0  0  0  0  0  0  0  0
   11.1700  -17.1220   20.6923 N   0  0  0  0  0  0  0  0  0  0  0  0
    9.8656  -16.3305   22.6145 C   0  0  0  0  0  0  0  0  0  0  0  0
   10.7691  -15.4796   22.9067 O   0  0  0  0  0  0  0  0  0  0  0  0
   10.3205  -21.1452   21.8533 C   0  0  0  0  0  0  0  0  0  0  0  0
   10.1735  -22.2105   20.9948 C   0  0  0  0  0  0  0  0  0  0  0  0
    8.6239  -16.1097   23.2600 N   0  0  0  0  0  0  0  0  0  0  0  0
    8.4168  -14.9620   24.1444 C   0  0  1  0  0  0  0  0  0  0  0  0
    7.0813  -14.3805   23.7509 C   0  0  0  0  0  0  0  0  0  0  0  0
    6.6334  -13.2824   24.6291 C   0  0  0  0  0  0  0  0  0  0  0  0
    5.7188  -13.4833   25.6341 C   0  0  0  0  0  0  0  0  0  0  0  0
    5.3447  -12.4102   26.4111 C   0  0  0  0  0  0  0  0  0  0  0  0
    5.8674  -11.1520   26.1975 C   0  0  0  0  0  0  0  0  0  0  0  0
    6.7773  -10.9229   25.2072 C   0  0  0  0  0  0  0  0  0  0  0  0
    7.1512  -12.0139   24.4252 C   0  0  0  0  0  0  0  0  0  0  0  0
    8.4321  -15.3971   25.5782 C   0  0  0  0  0  0  0  0  0  0  0  0
    7.4045  -15.1454   26.2334 O   0  0  0  0  0  0  0  0  0  0  0  0
    9.1212  -13.6174   27.8545 C   0  0  0  0  0  0  0  0  0  0  0  0
    9.6977  -14.9161   28.3507 C   0  0  2  0  0  0  0  0  0  0  0  0
   10.7199  -14.5531   29.4169 C   0  0  0  0  0  0  0  0  0  0  0  0
   10.3960  -15.5789   27.1687 C   0  0  2  0  0  0  0  0  0  0  0  0
    9.5204  -16.0450   26.1598 N   0  0  0  0  0  0  0  0  0  0  0  0
   11.3791  -16.5846   27.5291 C   0  0  0  0  0  0  0  0  0  0  0  0
   12.3673  -16.2270   28.2636 O   0  0  0  0  0  0  0  0  0  0  0  0
   11.3950  -17.9210   27.1786 O   0  0  0  0  0  0  0  0  0  0  0  0
  2  1  1  0
  2 12  2  0
  3  2  1  0
  4  3  2  0
  4  5  1  0
  5 11  2  0
  6  5  1  0
  7  6  1  0
  7  8  1  1
  9 13  1  0
  9  7  1  0
 10  9  2  0
 11 12  1  0
 14 13  1  0
 14 15  1  6
 16 15  1  0
 17 16  2  0
 18 17  1  0
 19 20  1  0
 19 18  2  0
 20 21  2  0
 21 16  1  0
 22 14  1  0
 22 28  1  0
 23 22  2  0
 25 24  1  6
 25 27  1  0
 26 25  1  0
 27 28  1  6
 27 29  1  0
 29 31  1  0
 30 29  2  0
M  END
$$$$
