YFV.pdb
     RDKit          3D

 31 32  0  0  1  0  0  0  0  0999 V2000
    7.0230  -22.3433   29.4315 O   0  0  0  0  0  0  0  0  0  0  0  0
    7.0111  -21.9834   28.0828 C   0  0  0  0  0  0  0  0  0  0  0  0
    7.9947  -21.1792   27.5500 C   0  0  0  0  0  0  0  0  0  0  0  0
    7.9942  -20.8153   26.2174 C   0  0  0  0  0  0  0  0  0  0  0  0
    7.0097  -21.2404   25.3590 C   0  0  0  0  0  0  0  0  0  0  0  0
    6.9444  -20.9059   23.9260 C   0  0  0  0  0  0  0  0  0  0  0  0
    5.8634  -19.8615   23.7343 C   0  0  2  0  0  0  0  0  0  0  0  0
    4.9695  -20.1449   22.6635 N   0  0  0  0  0  0  0  0  0  0  0  0
    6.4076  -18.4960   23.7752 C   0  0  0  0  0  0  0  0  0  0  0  0
    6.9856  -18.0282   22.7395 O   0  0  0  0  0  0  0  0  0  0  0  0
    6.0117  -22.0575   25.9031 C   0  0  0  0  0  0  0  0  0  0  0  0
    6.0126  -22.4195   27.2308 C   0  0  0  0  0  0  0  0  0  0  0  0
    6.3649  -17.6031   24.8743 N   0  0  0  0  0  0  0  0  0  0  0  0
    7.0384  -16.3044   24.8294 C   0  0  1  0  0  0  0  0  0  0  0  0
    6.4031  -15.4782   25.9203 C   0  0  0  0  0  0  0  0  0  0  0  0
    6.9199  -14.0979   25.9928 C   0  0  0  0  0  0  0  0  0  0  0  0
    6.6084  -13.1551   25.0436 C   0  0  0  0  0  0  0  0  0  0  0  0
    7.1310  -11.8882   25.1745 C   0  0  0  0  0  0  0  0  0  0  0  0
    7.9531  -11.5560   26.2306 C   0  0  0  0  0  0  0  0  0  0  0  0
    8.2794  -12.4715   27.1880 C   0  0  0  0  0  0  0  0  0  0  0  0
    7.7465  -13.7514   27.0490 C   0  0  0  0  0  0  0  0  0  0  0  0
    8.5117  -16.4715   25.0462 C   0  0  0  0  0  0  0  0  0  0  0  0
    8.8420  -17.1316   26.0480 O   0  0  0  0  0  0  0  0  0  0  0  0
   10.9225  -16.3849   21.7294 C   0  0  0  0  0  0  0  0  0  0  0  0
   11.5529  -15.6637   22.8903 C   0  0  2  0  0  0  0  0  0  0  0  0
   13.0178  -16.0727   22.9061 C   0  0  0  0  0  0  0  0  0  0  0  0
   10.8633  -16.1599   24.1561 C   0  0  2  0  0  0  0  0  0  0  0  0
    9.4679  -15.9288   24.1897 N   0  0  0  0  0  0  0  0  0  0  0  0
   11.5019  -15.7542   25.3953 C   0  0  0  0  0  0  0  0  0  0  0  0
   10.9987  -14.7659   26.0384 O   0  0  0  0  0  0  0  0  0  0  0  0
   12.6149  -16.3080   25.9983 O   0  0  0  0  0  0  0  0  0  0  0  0
  2  1  1  0
  2 12  2  0
  3  2  1  0
  4  3  2  0
  4  5  1  0
  5 11  2  0
  6  5  1  0
  7  6  1  0
  7  8  1  6
  9 13  1  0
  9  7  1  0
 10  9  2  0
 11 12  1  0
 14 13  1  0
 14 15  1  1
 16 15  1  0
 17 16  2  0
 18 17  1  0
 19 20  1  0
 19 18  2  0
 20 21  2  0
 21 16  1  0
 22 14  1  0
 22 28  1  0
 23 22  2  0
 25 24  1  6
 25 27  1  0
 26 25  1  0
 27 28  1  1
 27 29  1  0
 29 31  1  0
 30 29  2  0
M  END
$$$$
