YFV.pdb
     RDKit          3D

 31 32  0  0  1  0  0  0  0  0999 V2000
   12.4757  -22.4446   17.6322 O   0  0  0  0  0  0  0  0  0  0  0  0
   12.3080  -21.4844   18.6315 C   0  0  0  0  0  0  0  0  0  0  0  0
   11.0536  -21.1305   19.0779 C   0  0  0  0  0  0  0  0  0  0  0  0
   10.8739  -20.1816   20.0656 C   0  0  0  0  0  0  0  0  0  0  0  0
   11.9415  -19.5452   20.6505 C   0  0  0  0  0  0  0  0  0  0  0  0
   11.8340  -18.5325   21.7146 C   0  0  0  0  0  0  0  0  0  0  0  0
   11.3080  -17.2529   21.0966 C   0  0  2  0  0  0  0  0  0  0  0  0
   12.1344  -16.7282   20.0632 N   0  0  0  0  0  0  0  0  0  0  0  0
   10.8660  -16.2924   22.1184 C   0  0  0  0  0  0  0  0  0  0  0  0
   11.6831  -15.4032   22.5276 O   0  0  0  0  0  0  0  0  0  0  0  0
   13.2149  -19.9069   20.1950 C   0  0  0  0  0  0  0  0  0  0  0  0
   13.3932  -20.8521   19.2109 C   0  0  0  0  0  0  0  0  0  0  0  0
    9.5880  -16.2366   22.7274 N   0  0  0  0  0  0  0  0  0  0  0  0
    9.2857  -15.2653   23.7798 C   0  0  1  0  0  0  0  0  0  0  0  0
    7.8210  -14.9388   23.6240 C   0  0  0  0  0  0  0  0  0  0  0  0
    7.3576  -13.8612   24.5195 C   0  0  0  0  0  0  0  0  0  0  0  0
    7.7937  -12.5659   24.3831 C   0  0  0  0  0  0  0  0  0  0  0  0
    7.3211  -11.6141   25.2583 C   0  0  0  0  0  0  0  0  0  0  0  0
    6.4282  -11.9380   26.2581 C   0  0  0  0  0  0  0  0  0  0  0  0
    5.9777  -13.2159   26.4173 C   0  0  0  0  0  0  0  0  0  0  0  0
    6.4602  -14.1735   25.5276 C   0  0  0  0  0  0  0  0  0  0  0  0
    9.5847  -15.8455   25.1287 C   0  0  0  0  0  0  0  0  0  0  0  0
    9.2649  -17.0371   25.2906 O   0  0  0  0  0  0  0  0  0  0  0  0
    9.2127  -14.2043   28.9267 C   0  0  0  0  0  0  0  0  0  0  0  0
   10.6319  -14.4472   28.4885 C   0  0  2  0  0  0  0  0  0  0  0  0
   11.1173  -13.1482   27.8640 C   0  0  0  0  0  0  0  0  0  0  0  0
   10.5946  -15.5466   27.4331 C   0  0  2  0  0  0  0  0  0  0  0  0
   10.1836  -15.1116   26.1510 N   0  0  0  0  0  0  0  0  0  0  0  0
    9.8962  -16.7538   27.8368 C   0  0  0  0  0  0  0  0  0  0  0  0
   10.4305  -17.4858   28.7437 O   0  0  0  0  0  0  0  0  0  0  0  0
    8.6919  -17.2373   27.3627 O   0  0  0  0  0  0  0  0  0  0  0  0
  2  1  1  0
  2 12  2  0
  3  2  1  0
  4  3  2  0
  4  5  1  0
  5 11  2  0
  6  5  1  0
  7  6  1  0
  7  8  1  1
  9 13  1  0
  9  7  1  0
 10  9  2  0
 11 12  1  0
 14 13  1  0
 14 15  1  1
 16 15  1  0
 17 16  2  0
 18 17  1  0
 19 20  1  0
 19 18  2  0
 20 21  2  0
 21 16  1  0
 22 14  1  0
 22 28  1  0
 23 22  2  0
 25 24  1  6
 25 27  1  0
 26 25  1  0
 27 28  1  6
 27 29  1  0
 29 31  1  0
 30 29  2  0
M  END
$$$$
