YFV.pdb
     RDKit          3D

 31 32  0  0  1  0  0  0  0  0999 V2000
    7.3565  -13.3125   16.0232 O   0  0  0  0  0  0  0  0  0  0  0  0
    7.7331  -13.4155   17.3635 C   0  0  0  0  0  0  0  0  0  0  0  0
    6.8237  -13.7726   18.3348 C   0  0  0  0  0  0  0  0  0  0  0  0
    7.1832  -13.8776   19.6645 C   0  0  0  0  0  0  0  0  0  0  0  0
    8.4687  -13.6302   20.0808 C   0  0  0  0  0  0  0  0  0  0  0  0
    8.9328  -13.7307   21.4751 C   0  0  0  0  0  0  0  0  0  0  0  0
    9.0024  -15.1987   21.8443 C   0  0  2  0  0  0  0  0  0  0  0  0
    7.9819  -15.9931   21.2496 N   0  0  0  0  0  0  0  0  0  0  0  0
    9.2103  -15.3914   23.2872 C   0  0  0  0  0  0  0  0  0  0  0  0
   10.2990  -14.9896   23.8154 O   0  0  0  0  0  0  0  0  0  0  0  0
    9.3905  -13.2676   19.0915 C   0  0  0  0  0  0  0  0  0  0  0  0
    9.0316  -13.1630   17.7672 C   0  0  0  0  0  0  0  0  0  0  0  0
    8.3078  -15.9963   24.1964 N   0  0  0  0  0  0  0  0  0  0  0  0
    8.6157  -16.0981   25.6237 C   0  0  1  0  0  0  0  0  0  0  0  0
    7.3502  -15.7004   26.3427 C   0  0  0  0  0  0  0  0  0  0  0  0
    7.2802  -14.2616   26.6630 C   0  0  0  0  0  0  0  0  0  0  0  0
    8.3250  -13.5988   27.2593 C   0  0  0  0  0  0  0  0  0  0  0  0
    8.1862  -12.2565   27.5323 C   0  0  0  0  0  0  0  0  0  0  0  0
    7.0277  -11.5764   27.2206 C   0  0  0  0  0  0  0  0  0  0  0  0
    5.9741  -12.2086   26.6280 C   0  0  0  0  0  0  0  0  0  0  0  0
    6.1221  -13.5668   26.3545 C   0  0  0  0  0  0  0  0  0  0  0  0
    9.0356  -17.4943   25.9700 C   0  0  0  0  0  0  0  0  0  0  0  0
    8.1453  -18.3612   25.9049 O   0  0  0  0  0  0  0  0  0  0  0  0
   12.5358  -18.9652   24.8651 C   0  0  0  0  0  0  0  0  0  0  0  0
   12.3664  -19.2321   26.3366 C   0  0  2  0  0  0  0  0  0  0  0  0
   12.8082  -20.6692   26.5664 C   0  0  0  0  0  0  0  0  0  0  0  0
   10.8815  -19.0905   26.6512 C   0  0  2  0  0  0  0  0  0  0  0  0
   10.3378  -17.8210   26.3437 N   0  0  0  0  0  0  0  0  0  0  0  0
   10.4973  -19.5281   27.9812 C   0  0  0  0  0  0  0  0  0  0  0  0
   10.4743  -18.6560   28.9206 O   0  0  0  0  0  0  0  0  0  0  0  0
   10.1388  -20.7994   28.3867 O   0  0  0  0  0  0  0  0  0  0  0  0
  2  1  1  0
  2 12  2  0
  3  2  1  0
  4  3  2  0
  4  5  1  0
  5 11  2  0
  6  5  1  0
  7  6  1  0
  7  8  1  1
  9 13  1  0
  9  7  1  0
 10  9  2  0
 11 12  1  0
 14 13  1  0
 14 15  1  1
 16 15  1  0
 17 16  2  0
 18 17  1  0
 19 20  1  0
 19 18  2  0
 20 21  2  0
 21 16  1  0
 22 14  1  0
 22 28  1  0
 23 22  2  0
 25 24  1  6
 25 27  1  0
 26 25  1  0
 27 28  1  1
 27 29  1  0
 29 31  1  0
 30 29  2  0
M  END
$$$$
