YFV.pdb
     RDKit          3D

 31 32  0  0  1  0  0  0  0  0999 V2000
    9.6305  -21.0095   15.9515 O   0  0  0  0  0  0  0  0  0  0  0  0
    9.7340  -20.3423   17.1733 C   0  0  0  0  0  0  0  0  0  0  0  0
    8.6280  -19.7881   17.7796 C   0  0  0  0  0  0  0  0  0  0  0  0
    8.7168  -19.1250   18.9882 C   0  0  0  0  0  0  0  0  0  0  0  0
    9.9162  -18.9875   19.6435 C   0  0  0  0  0  0  0  0  0  0  0  0
   10.0917  -18.3057   20.9373 C   0  0  0  0  0  0  0  0  0  0  0  0
   10.2196  -16.8190   20.6734 C   0  0  2  0  0  0  0  0  0  0  0  0
   11.3046  -16.4751   19.8186 N   0  0  0  0  0  0  0  0  0  0  0  0
   10.0977  -16.0309   21.9088 C   0  0  0  0  0  0  0  0  0  0  0  0
   11.1479  -15.7684   22.5824 O   0  0  0  0  0  0  0  0  0  0  0  0
   11.0382  -19.5517   19.0250 C   0  0  0  0  0  0  0  0  0  0  0  0
   10.9491  -20.2120   17.8210 C   0  0  0  0  0  0  0  0  0  0  0  0
    8.9025  -15.5085   22.4620 N   0  0  0  0  0  0  0  0  0  0  0  0
    8.8837  -14.8823   23.7848 C   0  0  1  0  0  0  0  0  0  0  0  0
    7.5368  -14.2121   23.8989 C   0  0  0  0  0  0  0  0  0  0  0  0
    7.2915  -13.6002   25.2193 C   0  0  0  0  0  0  0  0  0  0  0  0
    6.4212  -14.1543   26.1259 C   0  0  0  0  0  0  0  0  0  0  0  0
    6.2395  -13.5251   27.3369 C   0  0  0  0  0  0  0  0  0  0  0  0
    6.9093  -12.3607   27.6487 C   0  0  0  0  0  0  0  0  0  0  0  0
    7.7796  -11.7878   26.7681 C   0  0  0  0  0  0  0  0  0  0  0  0
    7.9585  -12.4306   25.5449 C   0  0  0  0  0  0  0  0  0  0  0  0
    9.0834  -15.9128   24.8542 C   0  0  0  0  0  0  0  0  0  0  0  0
    8.3091  -16.8864   24.8219 O   0  0  0  0  0  0  0  0  0  0  0  0
   11.7968  -18.1144   25.2846 C   0  0  0  0  0  0  0  0  0  0  0  0
   11.8483  -17.3495   26.5797 C   0  0  2  0  0  0  0  0  0  0  0  0
   12.1567  -18.3666   27.6677 C   0  0  0  0  0  0  0  0  0  0  0  0
   10.4632  -16.7540   26.8056 C   0  0  2  0  0  0  0  0  0  0  0  0
   10.0699  -15.8050   25.8328 N   0  0  0  0  0  0  0  0  0  0  0  0
   10.2221  -16.2693   28.1528 C   0  0  0  0  0  0  0  0  0  0  0  0
   10.3141  -17.1051   29.1207 O   0  0  0  0  0  0  0  0  0  0  0  0
    9.8978  -14.9858   28.5485 O   0  0  0  0  0  0  0  0  0  0  0  0
  2  1  1  0
  2 12  2  0
  3  2  1  0
  4  3  2  0
  4  5  1  0
  5 11  2  0
  6  5  1  0
  7  6  1  0
  7  8  1  1
  9 13  1  0
  9  7  1  0
 10  9  2  0
 11 12  1  0
 14 13  1  0
 14 15  1  1
 16 15  1  0
 17 16  2  0
 18 17  1  0
 19 20  1  0
 19 18  2  0
 20 21  2  0
 21 16  1  0
 22 14  1  0
 22 28  1  0
 23 22  2  0
 25 24  1  6
 25 27  1  0
 26 25  1  0
 27 28  1  6
 27 29  1  0
 29 31  1  0
 30 29  2  0
M  END
$$$$
