YFV.pdb
     RDKit          3D

 31 32  0  0  1  0  0  0  0  0999 V2000
   11.0964  -19.7674   15.0780 O   0  0  0  0  0  0  0  0  0  0  0  0
   11.0341  -18.9350   16.1968 C   0  0  0  0  0  0  0  0  0  0  0  0
   10.6110  -19.4115   17.4182 C   0  0  0  0  0  0  0  0  0  0  0  0
   10.5442  -18.5983   18.5329 C   0  0  0  0  0  0  0  0  0  0  0  0
   10.8984  -17.2724   18.4746 C   0  0  0  0  0  0  0  0  0  0  0  0
   10.8654  -16.3444   19.6180 C   0  0  0  0  0  0  0  0  0  0  0  0
    9.9648  -16.9386   20.6819 C   0  0  2  0  0  0  0  0  0  0  0  0
    8.7264  -17.4309   20.1816 N   0  0  0  0  0  0  0  0  0  0  0  0
    9.8829  -16.0797   21.8726 C   0  0  0  0  0  0  0  0  0  0  0  0
   10.9610  -15.6719   22.4177 O   0  0  0  0  0  0  0  0  0  0  0  0
   11.3280  -16.7910   17.2323 C   0  0  0  0  0  0  0  0  0  0  0  0
   11.3941  -17.6016   16.1223 C   0  0  0  0  0  0  0  0  0  0  0  0
    8.6997  -15.6346   22.5123 N   0  0  0  0  0  0  0  0  0  0  0  0
    8.7455  -14.9092   23.7827 C   0  0  1  0  0  0  0  0  0  0  0  0
    7.4771  -14.0935   23.8318 C   0  0  0  0  0  0  0  0  0  0  0  0
    7.3057  -13.3433   25.0910 C   0  0  0  0  0  0  0  0  0  0  0  0
    7.9718  -12.1664   25.3314 C   0  0  0  0  0  0  0  0  0  0  0  0
    7.7654  -11.5237   26.5313 C   0  0  0  0  0  0  0  0  0  0  0  0
    6.9112  -12.0382   27.4839 C   0  0  0  0  0  0  0  0  0  0  0  0
    6.2363  -13.2049   27.2726 C   0  0  0  0  0  0  0  0  0  0  0  0
    6.4501  -13.8493   26.0558 C   0  0  0  0  0  0  0  0  0  0  0  0
    8.8330  -15.8689   24.9302 C   0  0  0  0  0  0  0  0  0  0  0  0
    8.0213  -16.8119   24.9129 O   0  0  0  0  0  0  0  0  0  0  0  0
   11.8669  -17.6493   25.2185 C   0  0  0  0  0  0  0  0  0  0  0  0
   11.7557  -17.0441   26.5920 C   0  0  2  0  0  0  0  0  0  0  0  0
   12.2110  -18.1148   27.5716 C   0  0  0  0  0  0  0  0  0  0  0  0
   10.2836  -16.7227   26.8240 C   0  0  2  0  0  0  0  0  0  0  0  0
    9.7597  -15.7306   25.9620 N   0  0  0  0  0  0  0  0  0  0  0  0
    9.9273  -16.4696   28.2085 C   0  0  0  0  0  0  0  0  0  0  0  0
    9.8468  -15.2509   28.5981 O   0  0  0  0  0  0  0  0  0  0  0  0
    9.6515  -17.3944   29.1974 O   0  0  0  0  0  0  0  0  0  0  0  0
  2  1  1  0
  2 12  2  0
  3  2  1  0
  4  3  2  0
  4  5  1  0
  5 11  2  0
  6  5  1  0
  7  6  1  0
  7  8  1  6
  9 13  1  0
  9  7  1  0
 10  9  2  0
 11 12  1  0
 14 13  1  0
 14 15  1  1
 16 15  1  0
 17 16  2  0
 18 17  1  0
 19 20  1  0
 19 18  2  0
 20 21  2  0
 21 16  1  0
 22 14  1  0
 22 28  1  0
 23 22  2  0
 25 24  1  6
 25 27  1  0
 26 25  1  0
 27 28  1  6
 27 29  1  0
 29 31  1  0
 30 29  2  0
M  END
$$$$
