ALV.pdb
     RDKit          3D

 21 20  0  0  1  0  0  0  0  0999 V2000
    9.3089  -18.7973   22.1050 C   0  0  0  0  0  0  0  0  0  0  0  0
    8.8944  -17.4411   21.5696 C   0  0  2  0  0  0  0  0  0  0  0  0
    9.7860  -17.1337   20.4655 N   0  0  0  0  0  0  0  0  0  0  0  0
    9.0400  -16.4486   22.6561 C   0  0  0  0  0  0  0  0  0  0  0  0
   10.1536  -15.8822   22.8008 O   0  0  0  0  0  0  0  0  0  0  0  0
    7.5899  -11.9182   25.0603 C   0  0  0  0  0  0  0  0  0  0  0  0
    7.0398  -13.1525   25.8099 C   0  0  1  0  0  0  0  0  0  0  0  0
    5.6784  -12.7109   26.3066 C   0  0  0  0  0  0  0  0  0  0  0  0
    6.9232  -14.2114   24.7458 C   0  0  0  0  0  0  0  0  0  0  0  0
    8.1443  -15.0199   24.4840 C   0  0  2  0  0  0  0  0  0  0  0  0
    8.0008  -16.0935   23.5482 N   0  0  0  0  0  0  0  0  0  0  0  0
    8.8733  -15.4863   25.6486 C   0  0  0  0  0  0  0  0  0  0  0  0
    8.3237  -16.3194   26.4138 O   0  0  0  0  0  0  0  0  0  0  0  0
   10.7919  -14.6937   29.6644 C   0  0  0  0  0  0  0  0  0  0  0  0
   10.1275  -14.4462   28.3459 C   0  0  1  0  0  0  0  0  0  0  0  0
   10.1489  -13.0086   27.9297 C   0  0  0  0  0  0  0  0  0  0  0  0
   10.7557  -15.3515   27.3045 C   0  0  2  0  0  0  0  0  0  0  0  0
   10.1819  -15.0840   26.0199 N   0  0  0  0  0  0  0  0  0  0  0  0
   10.4516  -16.7645   27.6611 C   0  0  0  0  0  0  0  0  0  0  0  0
   11.3539  -17.4653   28.1766 O   0  0  0  0  0  0  0  0  0  0  0  0
    9.2098  -17.3199   27.4404 O   0  0  0  0  0  0  0  0  0  0  0  0
  2  1  1  1
  3  2  1  0
  4 11  1  0
  4  2  1  0
  5  4  2  0
  7  8  1  6
  7  6  1  0
 10  9  1  1
  9  7  1  0
 10 12  1  0
 10 11  1  0
 12 18  1  0
 13 12  2  0
 15 14  1  1
 15 16  1  0
 17 15  1  0
 17 18  1  6
 19 21  1  0
 19 17  1  0
 20 19  2  0
M  END
$$$$
