ALV.pdb
     RDKit          3D

 21 20  0  0  1  0  0  0  0  0999 V2000
    9.1913  -18.7553   23.0720 C   0  0  0  0  0  0  0  0  0  0  0  0
    8.5527  -17.6404   22.2678 C   0  0  2  0  0  0  0  0  0  0  0  0
    9.2485  -17.5876   20.9944 N   0  0  0  0  0  0  0  0  0  0  0  0
    8.7218  -16.3745   23.0131 C   0  0  0  0  0  0  0  0  0  0  0  0
    9.7534  -15.6884   22.7965 O   0  0  0  0  0  0  0  0  0  0  0  0
    7.1758  -11.7093   25.0457 C   0  0  0  0  0  0  0  0  0  0  0  0
    7.0617  -12.8066   26.1278 C   0  0  1  0  0  0  0  0  0  0  0  0
    5.8393  -12.4122   26.9312 C   0  0  0  0  0  0  0  0  0  0  0  0
    6.8259  -14.0732   25.3485 C   0  0  0  0  0  0  0  0  0  0  0  0
    8.0119  -14.6580   24.6667 C   0  0  2  0  0  0  0  0  0  0  0  0
    7.7920  -15.8830   23.9597 N   0  0  0  0  0  0  0  0  0  0  0  0
    9.2244  -14.7650   25.4562 C   0  0  0  0  0  0  0  0  0  0  0  0
   10.0770  -13.8432   25.3849 O   0  0  0  0  0  0  0  0  0  0  0  0
   10.4855  -13.4364   27.7015 C   0  0  0  0  0  0  0  0  0  0  0  0
   10.4756  -14.8075   28.3023 C   0  0  1  0  0  0  0  0  0  0  0  0
    9.2469  -15.0952   29.1071 C   0  0  0  0  0  0  0  0  0  0  0  0
   10.6870  -15.8260   27.1993 C   0  0  2  0  0  0  0  0  0  0  0  0
    9.5526  -15.8369   26.3253 N   0  0  0  0  0  0  0  0  0  0  0  0
   10.8066  -17.1748   27.8179 C   0  0  0  0  0  0  0  0  0  0  0  0
    9.8933  -18.0113   27.6250 O   0  0  0  0  0  0  0  0  0  0  0  0
   11.8901  -17.5265   28.5936 O   0  0  0  0  0  0  0  0  0  0  0  0
  2  1  1  1
  3  2  1  0
  4 11  1  0
  4  2  1  0
  5  4  2  0
  7  8  1  1
  7  6  1  0
 10  9  1  1
  9  7  1  0
 10 12  1  0
 10 11  1  0
 12 18  1  0
 13 12  2  0
 15 14  1  6
 15 16  1  0
 17 15  1  0
 17 18  1  6
 19 21  1  0
 19 17  1  0
 20 19  2  0
M  END
$$$$
