ALV.pdb
     RDKit          3D

 21 20  0  0  1  0  0  0  0  0999 V2000
    9.3688  -18.6847   22.3287 C   0  0  0  0  0  0  0  0  0  0  0  0
    8.5269  -17.5289   21.8256 C   0  0  2  0  0  0  0  0  0  0  0  0
    8.9821  -17.2309   20.4793 N   0  0  0  0  0  0  0  0  0  0  0  0
    8.7422  -16.3728   22.7222 C   0  0  0  0  0  0  0  0  0  0  0  0
    9.7856  -15.6870   22.5707 O   0  0  0  0  0  0  0  0  0  0  0  0
    5.5624  -12.5669   26.2441 C   0  0  0  0  0  0  0  0  0  0  0  0
    6.7063  -12.8431   25.2424 C   0  0  1  0  0  0  0  0  0  0  0  0
    7.8787  -12.0543   25.7886 C   0  0  0  0  0  0  0  0  0  0  0  0
    6.9412  -14.3267   25.3473 C   0  0  0  0  0  0  0  0  0  0  0  0
    8.1062  -14.8644   24.5942 C   0  0  2  0  0  0  0  0  0  0  0  0
    7.8443  -15.9866   23.7453 N   0  0  0  0  0  0  0  0  0  0  0  0
    9.3148  -15.1070   25.3595 C   0  0  0  0  0  0  0  0  0  0  0  0
   10.4269  -14.8412   24.8358 O   0  0  0  0  0  0  0  0  0  0  0  0
   11.0183  -13.4960   27.8962 C   0  0  0  0  0  0  0  0  0  0  0  0
   10.7308  -14.8345   28.5021 C   0  0  1  0  0  0  0  0  0  0  0  0
    9.5464  -14.8311   29.4172 C   0  0  0  0  0  0  0  0  0  0  0  0
   10.5895  -15.8545   27.3892 C   0  0  2  0  0  0  0  0  0  0  0  0
    9.3675  -15.6292   26.6772 N   0  0  0  0  0  0  0  0  0  0  0  0
   10.5264  -17.2119   27.9973 C   0  0  0  0  0  0  0  0  0  0  0  0
    9.4371  -17.8317   27.9803 O   0  0  0  0  0  0  0  0  0  0  0  0
   11.6291  -17.8023   28.5758 O   0  0  0  0  0  0  0  0  0  0  0  0
  2  1  1  1
  3  2  1  0
  4 11  1  0
  4  2  1  0
  5  4  2  0
  7  8  1  1
  7  6  1  0
 10  9  1  1
  9  7  1  0
 10 12  1  0
 10 11  1  0
 12 18  1  0
 13 12  2  0
 15 14  1  6
 15 16  1  0
 17 15  1  0
 17 18  1  1
 19 21  1  0
 19 17  1  0
 20 19  2  0
M  END
$$$$
