ALV.pdb
     RDKit          3D

 21 20  0  0  1  0  0  0  0  0999 V2000
    8.1907  -14.7421   20.0865 C   0  0  0  0  0  0  0  0  0  0  0  0
    8.5292  -15.8395   21.0757 C   0  0  2  0  0  0  0  0  0  0  0  0
    7.3824  -16.7286   21.1274 N   0  0  0  0  0  0  0  0  0  0  0  0
    8.7726  -15.2169   22.3948 C   0  0  0  0  0  0  0  0  0  0  0  0
    9.8030  -14.5103   22.5395 O   0  0  0  0  0  0  0  0  0  0  0  0
    5.5316  -12.4219   26.2775 C   0  0  0  0  0  0  0  0  0  0  0  0
    6.5321  -12.7750   25.1540 C   0  0  1  0  0  0  0  0  0  0  0  0
    7.6701  -11.7936   25.3464 C   0  0  0  0  0  0  0  0  0  0  0  0
    6.9590  -14.1846   25.4668 C   0  0  0  0  0  0  0  0  0  0  0  0
    8.1601  -14.6850   24.7456 C   0  0  2  0  0  0  0  0  0  0  0  0
    7.9156  -15.3661   23.5107 N   0  0  0  0  0  0  0  0  0  0  0  0
    9.1202  -15.4367   25.5319 C   0  0  0  0  0  0  0  0  0  0  0  0
    9.4972  -16.5615   25.1141 O   0  0  0  0  0  0  0  0  0  0  0  0
   11.5573  -13.5659   28.3094 C   0  0  0  0  0  0  0  0  0  0  0  0
   11.1659  -14.9654   28.6693 C   0  0  1  0  0  0  0  0  0  0  0  0
   10.1003  -15.0339   29.7180 C   0  0  0  0  0  0  0  0  0  0  0  0
   10.7708  -15.7029   27.4049 C   0  0  2  0  0  0  0  0  0  0  0  0
    9.6919  -15.0165   26.7601 N   0  0  0  0  0  0  0  0  0  0  0  0
   10.2948  -17.0627   27.7799 C   0  0  0  0  0  0  0  0  0  0  0  0
    9.0647  -17.3013   27.7524 O   0  0  0  0  0  0  0  0  0  0  0  0
   11.1672  -18.0616   28.1548 O   0  0  0  0  0  0  0  0  0  0  0  0
  2  1  1  6
  3  2  1  0
  4 11  1  0
  4  2  1  0
  5  4  2  0
  7  8  1  1
  7  6  1  0
 10  9  1  1
  9  7  1  0
 10 12  1  0
 10 11  1  0
 12 18  1  0
 13 12  2  0
 15 14  1  6
 15 16  1  0
 17 15  1  0
 17 18  1  1
 19 21  1  0
 19 17  1  0
 20 19  2  0
M  END
$$$$
