ALV.pdb
     RDKit          3D

 21 20  0  0  1  0  0  0  0  0999 V2000
    7.1249  -16.7950   20.4488 C   0  0  0  0  0  0  0  0  0  0  0  0
    7.5434  -15.3383   20.4710 C   0  0  2  0  0  0  0  0  0  0  0  0
    8.6425  -15.2014   19.5320 N   0  0  0  0  0  0  0  0  0  0  0  0
    7.9783  -15.0009   21.8436 C   0  0  0  0  0  0  0  0  0  0  0  0
    9.1920  -15.1497   22.1378 O   0  0  0  0  0  0  0  0  0  0  0  0
    8.2357  -11.8469   26.2385 C   0  0  0  0  0  0  0  0  0  0  0  0
    7.1540  -12.9453   26.3443 C   0  0  1  0  0  0  0  0  0  0  0  0
    6.0379  -12.2945   27.1353 C   0  0  0  0  0  0  0  0  0  0  0  0
    6.7443  -13.2013   24.9182 C   0  0  0  0  0  0  0  0  0  0  0  0
    7.5944  -14.1487   24.1480 C   0  0  2  0  0  0  0  0  0  0  0  0
    7.1113  -14.5188   22.8525 N   0  0  0  0  0  0  0  0  0  0  0  0
    8.0451  -15.3336   24.8538 C   0  0  0  0  0  0  0  0  0  0  0  0
    7.2165  -16.2495   25.0909 O   0  0  0  0  0  0  0  0  0  0  0  0
   11.7217  -18.3315   26.0782 C   0  0  0  0  0  0  0  0  0  0  0  0
   11.2054  -17.1276   25.3534 C   0  0  1  0  0  0  0  0  0  0  0  0
   11.2598  -17.2616   23.8637 C   0  0  0  0  0  0  0  0  0  0  0  0
    9.8053  -16.8223   25.8484 C   0  0  2  0  0  0  0  0  0  0  0  0
    9.3656  -15.5676   25.3161 N   0  0  0  0  0  0  0  0  0  0  0  0
    9.8431  -16.7068   27.3322 C   0  0  0  0  0  0  0  0  0  0  0  0
    9.8162  -17.7538   28.0207 O   0  0  0  0  0  0  0  0  0  0  0  0
    9.9067  -15.4846   27.9658 O   0  0  0  0  0  0  0  0  0  0  0  0
  2  1  1  1
  3  2  1  0
  4 11  1  0
  4  2  1  0
  5  4  2  0
  7  8  1  1
  7  6  1  0
 10  9  1  1
  9  7  1  0
 10 12  1  0
 10 11  1  0
 12 18  1  0
 13 12  2  0
 15 14  1  1
 15 16  1  0
 17 15  1  0
 17 18  1  6
 19 21  1  0
 19 17  1  0
 20 19  2  0
M  END
$$$$
