ALV.pdb
     RDKit          3D

 21 20  0  0  1  0  0  0  0  0999 V2000
    7.0333  -17.1643   20.6758 C   0  0  0  0  0  0  0  0  0  0  0  0
    7.2396  -15.6659   20.5767 C   0  0  2  0  0  0  0  0  0  0  0  0
    8.1585  -15.4392   19.4755 N   0  0  0  0  0  0  0  0  0  0  0  0
    7.8187  -15.1915   21.8520 C   0  0  0  0  0  0  0  0  0  0  0  0
    9.0702  -15.1987   21.9776 O   0  0  0  0  0  0  0  0  0  0  0  0
    6.6229  -11.4973   26.5738 C   0  0  0  0  0  0  0  0  0  0  0  0
    7.5885  -12.6029   26.0907 C   0  0  1  0  0  0  0  0  0  0  0  0
    7.6272  -13.5915   27.2380 C   0  0  0  0  0  0  0  0  0  0  0  0
    6.9086  -13.1867   24.8807 C   0  0  0  0  0  0  0  0  0  0  0  0
    7.6632  -14.2347   24.1421 C   0  0  2  0  0  0  0  0  0  0  0  0
    7.0507  -14.7275   22.9459 N   0  0  0  0  0  0  0  0  0  0  0  0
    8.1588  -15.3495   24.9275 C   0  0  0  0  0  0  0  0  0  0  0  0
    7.3473  -16.2333   25.3043 O   0  0  0  0  0  0  0  0  0  0  0  0
   12.0294  -18.2300   25.7621 C   0  0  0  0  0  0  0  0  0  0  0  0
   11.4059  -17.0219   25.1353 C   0  0  1  0  0  0  0  0  0  0  0  0
   11.3625  -17.0830   23.6404 C   0  0  0  0  0  0  0  0  0  0  0  0
   10.0307  -16.8131   25.7383 C   0  0  2  0  0  0  0  0  0  0  0  0
    9.5065  -15.5465   25.3236 N   0  0  0  0  0  0  0  0  0  0  0  0
   10.1624  -16.7955   27.2211 C   0  0  0  0  0  0  0  0  0  0  0  0
   10.2894  -15.6929   27.8035 O   0  0  0  0  0  0  0  0  0  0  0  0
   10.1484  -17.9542   27.9670 O   0  0  0  0  0  0  0  0  0  0  0  0
  2  1  1  1
  3  2  1  0
  4 11  1  0
  4  2  1  0
  5  4  2  0
  7  8  1  1
  7  6  1  0
 10  9  1  1
  9  7  1  0
 10 12  1  0
 10 11  1  0
 12 18  1  0
 13 12  2  0
 15 14  1  1
 15 16  1  0
 17 15  1  0
 17 18  1  6
 19 21  1  0
 19 17  1  0
 20 19  2  0
M  END
$$$$
