ALV.pdb
     RDKit          3D

 21 20  0  0  1  0  0  0  0  0999 V2000
    8.9275  -18.7371   22.4742 C   0  0  0  0  0  0  0  0  0  0  0  0
    8.4656  -17.4174   21.8890 C   0  0  2  0  0  0  0  0  0  0  0  0
    9.1432  -17.2617   20.6142 N   0  0  0  0  0  0  0  0  0  0  0  0
    8.8466  -16.3363   22.8233 C   0  0  0  0  0  0  0  0  0  0  0  0
    9.9851  -15.8160   22.7005 O   0  0  0  0  0  0  0  0  0  0  0  0
    5.5362  -12.6956   25.9384 C   0  0  0  0  0  0  0  0  0  0  0  0
    6.5895  -13.1226   24.8913 C   0  0  1  0  0  0  0  0  0  0  0  0
    7.4104  -11.8711   24.6566 C   0  0  0  0  0  0  0  0  0  0  0  0
    7.3935  -14.1887   25.5871 C   0  0  0  0  0  0  0  0  0  0  0  0
    8.4522  -14.8496   24.7774 C   0  0  2  0  0  0  0  0  0  0  0  0
    8.0076  -15.8472   23.8522 N   0  0  0  0  0  0  0  0  0  0  0  0
    9.6083  -15.3421   25.5026 C   0  0  0  0  0  0  0  0  0  0  0  0
   10.7568  -15.0350   25.0923 O   0  0  0  0  0  0  0  0  0  0  0  0
   11.1194  -15.1166   29.8675 C   0  0  0  0  0  0  0  0  0  0  0  0
   10.2076  -15.0100   28.6850 C   0  0  1  0  0  0  0  0  0  0  0  0
   10.2147  -13.6552   28.0487 C   0  0  0  0  0  0  0  0  0  0  0  0
   10.5574  -16.1062   27.6978 C   0  0  2  0  0  0  0  0  0  0  0  0
    9.5702  -16.1589   26.6617 N   0  0  0  0  0  0  0  0  0  0  0  0
   10.5441  -17.4105   28.4154 C   0  0  0  0  0  0  0  0  0  0  0  0
    9.5012  -18.1053   28.3870 O   0  0  0  0  0  0  0  0  0  0  0  0
   11.6431  -17.8722   29.1069 O   0  0  0  0  0  0  0  0  0  0  0  0
  2  1  1  1
  3  2  1  0
  4 11  1  0
  4  2  1  0
  5  4  2  0
  7  8  1  1
  7  6  1  0
 10  9  1  1
  9  7  1  0
 10 12  1  0
 10 11  1  0
 12 18  1  0
 13 12  2  0
 15 14  1  1
 15 16  1  0
 17 15  1  0
 17 18  1  6
 19 21  1  0
 19 17  1  0
 20 19  2  0
M  END
$$$$
