ALV.pdb
     RDKit          3D

 21 20  0  0  1  0  0  0  0  0999 V2000
    6.4015  -17.0069   20.6428 C   0  0  0  0  0  0  0  0  0  0  0  0
    6.7805  -15.5463   20.4991 C   0  0  2  0  0  0  0  0  0  0  0  0
    7.6904  -15.4562   19.3711 N   0  0  0  0  0  0  0  0  0  0  0  0
    7.4450  -15.1139   21.7475 C   0  0  0  0  0  0  0  0  0  0  0  0
    8.6993  -15.1839   21.8103 O   0  0  0  0  0  0  0  0  0  0  0  0
    6.6422  -11.3710   26.5119 C   0  0  0  0  0  0  0  0  0  0  0  0
    7.5623  -12.4798   25.9534 C   0  0  1  0  0  0  0  0  0  0  0  0
    7.7111  -13.4550   27.1032 C   0  0  0  0  0  0  0  0  0  0  0  0
    6.7746  -13.0791   24.8187 C   0  0  0  0  0  0  0  0  0  0  0  0
    7.4515  -14.1511   24.0403 C   0  0  2  0  0  0  0  0  0  0  0  0
    6.7561  -14.6239   22.8820 N   0  0  0  0  0  0  0  0  0  0  0  0
    7.9550  -15.2812   24.7983 C   0  0  0  0  0  0  0  0  0  0  0  0
    7.1317  -16.0797   25.3142 O   0  0  0  0  0  0  0  0  0  0  0  0
   10.4874  -17.6547   23.3177 C   0  0  0  0  0  0  0  0  0  0  0  0
   10.9632  -17.3223   24.6977 C   0  0  1  0  0  0  0  0  0  0  0  0
   12.0959  -16.3441   24.7168 C   0  0  0  0  0  0  0  0  0  0  0  0
    9.7823  -16.8445   25.5199 C   0  0  2  0  0  0  0  0  0  0  0  0
    9.3229  -15.5830   25.0213 N   0  0  0  0  0  0  0  0  0  0  0  0
   10.2328  -16.6494   26.9253 C   0  0  0  0  0  0  0  0  0  0  0  0
   10.4766  -17.6587   27.6274 O   0  0  0  0  0  0  0  0  0  0  0  0
   10.3882  -15.3941   27.4724 O   0  0  0  0  0  0  0  0  0  0  0  0
  2  1  1  1
  3  2  1  0
  4 11  1  0
  4  2  1  0
  5  4  2  0
  7  8  1  1
  7  6  1  0
 10  9  1  1
  9  7  1  0
 10 12  1  0
 10 11  1  0
 12 18  1  0
 13 12  2  0
 15 14  1  6
 15 16  1  0
 17 15  1  0
 17 18  1  6
 19 21  1  0
 19 17  1  0
 20 19  2  0
M  END
$$$$
