ALV.pdb
     RDKit          3D

 21 20  0  0  1  0  0  0  0  0999 V2000
    8.7838  -17.6033   21.3755 C   0  0  0  0  0  0  0  0  0  0  0  0
    8.8277  -16.1047   21.1527 C   0  0  2  0  0  0  0  0  0  0  0  0
    9.9615  -15.8408   20.2848 N   0  0  0  0  0  0  0  0  0  0  0  0
    9.0039  -15.4451   22.4644 C   0  0  0  0  0  0  0  0  0  0  0  0
   10.1745  -15.2382   22.8752 O   0  0  0  0  0  0  0  0  0  0  0  0
    8.3037  -12.0281   26.5170 C   0  0  0  0  0  0  0  0  0  0  0  0
    7.2621  -13.1682   26.5725 C   0  0  1  0  0  0  0  0  0  0  0  0
    6.0052  -12.4999   27.0908 C   0  0  0  0  0  0  0  0  0  0  0  0
    7.1074  -13.5997   25.1382 C   0  0  0  0  0  0  0  0  0  0  0  0
    8.1548  -14.5138   24.6083 C   0  0  2  0  0  0  0  0  0  0  0  0
    7.9337  -15.0295   23.2915 N   0  0  0  0  0  0  0  0  0  0  0  0
    8.5787  -15.5892   25.4852 C   0  0  0  0  0  0  0  0  0  0  0  0
    7.8367  -16.5969   25.6104 O   0  0  0  0  0  0  0  0  0  0  0  0
   12.0668  -18.2102   27.5799 C   0  0  0  0  0  0  0  0  0  0  0  0
   11.5547  -17.2151   26.5856 C   0  0  1  0  0  0  0  0  0  0  0  0
   11.5368  -17.7327   25.1813 C   0  0  0  0  0  0  0  0  0  0  0  0
   10.1885  -16.7346   27.0344 C   0  0  2  0  0  0  0  0  0  0  0  0
    9.7814  -15.6170   26.2366 N   0  0  0  0  0  0  0  0  0  0  0  0
   10.2881  -16.2807   28.4487 C   0  0  0  0  0  0  0  0  0  0  0  0
   10.4410  -15.0587   28.6820 O   0  0  0  0  0  0  0  0  0  0  0  0
   10.2169  -17.1647   29.5036 O   0  0  0  0  0  0  0  0  0  0  0  0
  2  1  1  1
  3  2  1  0
  4 11  1  0
  4  2  1  0
  5  4  2  0
  7  8  1  6
  7  6  1  0
 10  9  1  1
  9  7  1  0
 10 12  1  0
 10 11  1  0
 12 18  1  0
 13 12  2  0
 15 14  1  1
 15 16  1  0
 17 15  1  0
 17 18  1  6
 19 21  1  0
 19 17  1  0
 20 19  2  0
M  END
$$$$
