ALV.pdb
     RDKit          3D

 21 20  0  0  1  0  0  0  0  0999 V2000
    7.4653  -17.9639   21.2503 C   0  0  0  0  0  0  0  0  0  0  0  0
    7.3863  -16.4706   21.0027 C   0  0  2  0  0  0  0  0  0  0  0  0
    8.2071  -16.1928   19.8375 N   0  0  0  0  0  0  0  0  0  0  0  0
    7.9128  -15.7735   22.1959 C   0  0  0  0  0  0  0  0  0  0  0  0
    9.1572  -15.6211   22.2966 O   0  0  0  0  0  0  0  0  0  0  0  0
    8.3512  -11.9946   25.9584 C   0  0  0  0  0  0  0  0  0  0  0  0
    7.3623  -13.1009   26.3897 C   0  0  1  0  0  0  0  0  0  0  0  0
    6.2923  -12.3621   27.1673 C   0  0  0  0  0  0  0  0  0  0  0  0
    6.8260  -13.6457   25.0925 C   0  0  0  0  0  0  0  0  0  0  0  0
    7.6659  -14.6656   24.4085 C   0  0  2  0  0  0  0  0  0  0  0  0
    7.1016  -15.2642   23.2372 N   0  0  0  0  0  0  0  0  0  0  0  0
    8.2440  -15.6970   25.2495 C   0  0  0  0  0  0  0  0  0  0  0  0
    7.4906  -16.5864   25.7217 O   0  0  0  0  0  0  0  0  0  0  0  0
   12.2079  -18.2504   26.6351 C   0  0  0  0  0  0  0  0  0  0  0  0
   11.5881  -17.1772   25.7954 C   0  0  1  0  0  0  0  0  0  0  0  0
   11.6463  -17.4625   24.3273 C   0  0  0  0  0  0  0  0  0  0  0  0
   10.1696  -16.9395   26.2750 C   0  0  2  0  0  0  0  0  0  0  0  0
    9.6138  -15.8043   25.6017 N   0  0  0  0  0  0  0  0  0  0  0  0
   10.2074  -16.6391   27.7326 C   0  0  0  0  0  0  0  0  0  0  0  0
   10.2705  -15.4430   28.1018 O   0  0  0  0  0  0  0  0  0  0  0  0
   10.1751  -17.6371   28.6825 O   0  0  0  0  0  0  0  0  0  0  0  0
  2  1  1  1
  3  2  1  0
  4 11  1  0
  4  2  1  0
  5  4  2  0
  7  8  1  1
  7  6  1  0
 10  9  1  1
  9  7  1  0
 10 12  1  0
 10 11  1  0
 12 18  1  0
 13 12  2  0
 15 14  1  1
 15 16  1  0
 17 15  1  0
 17 18  1  6
 19 21  1  0
 19 17  1  0
 20 19  2  0
M  END
$$$$
