ALV.pdb
     RDKit          3D

 21 20  0  0  1  0  0  0  0  0999 V2000
    7.2309  -16.9860   20.5144 C   0  0  0  0  0  0  0  0  0  0  0  0
    7.6433  -15.5274   20.5186 C   0  0  2  0  0  0  0  0  0  0  0  0
    8.7408  -15.3972   19.5768 N   0  0  0  0  0  0  0  0  0  0  0  0
    8.0782  -15.1717   21.8865 C   0  0  0  0  0  0  0  0  0  0  0  0
    9.2930  -15.3112   22.1810 O   0  0  0  0  0  0  0  0  0  0  0  0
    8.4556  -12.1658   26.2291 C   0  0  0  0  0  0  0  0  0  0  0  0
    7.2759  -13.1486   26.4034 C   0  0  1  0  0  0  0  0  0  0  0  0
    6.2391  -12.3541   27.1708 C   0  0  0  0  0  0  0  0  0  0  0  0
    6.8220  -13.4366   24.9969 C   0  0  0  0  0  0  0  0  0  0  0  0
    7.6831  -14.3520   24.2008 C   0  0  2  0  0  0  0  0  0  0  0  0
    7.2102  -14.6817   22.8907 N   0  0  0  0  0  0  0  0  0  0  0  0
    8.1379  -15.5567   24.8694 C   0  0  0  0  0  0  0  0  0  0  0  0
    7.3137  -16.4846   25.0728 O   0  0  0  0  0  0  0  0  0  0  0  0
   11.8691  -18.5656   25.8034 C   0  0  0  0  0  0  0  0  0  0  0  0
   11.2388  -17.4083   25.0931 C   0  0  1  0  0  0  0  0  0  0  0  0
   11.0818  -17.6281   23.6209 C   0  0  0  0  0  0  0  0  0  0  0  0
    9.9198  -17.0817   25.7655 C   0  0  2  0  0  0  0  0  0  0  0  0
    9.4579  -15.7982   25.3293 N   0  0  0  0  0  0  0  0  0  0  0  0
   10.1420  -17.0174   27.2361 C   0  0  0  0  0  0  0  0  0  0  0  0
   10.3979  -15.9082   27.7607 O   0  0  0  0  0  0  0  0  0  0  0  0
   10.0739  -18.1402   28.0323 O   0  0  0  0  0  0  0  0  0  0  0  0
  2  1  1  1
  3  2  1  0
  4 11  1  0
  4  2  1  0
  5  4  2  0
  7  8  1  1
  7  6  1  0
 10  9  1  1
  9  7  1  0
 10 12  1  0
 10 11  1  0
 12 18  1  0
 13 12  2  0
 15 14  1  1
 15 16  1  0
 17 15  1  0
 17 18  1  6
 19 21  1  0
 19 17  1  0
 20 19  2  0
M  END
$$$$
