ALV.pdb
     RDKit          3D

 21 20  0  0  1  0  0  0  0  0999 V2000
    5.7783  -19.9781   23.7165 C   0  0  0  0  0  0  0  0  0  0  0  0
    5.0959  -18.6850   23.3168 C   0  0  2  0  0  0  0  0  0  0  0  0
    4.7841  -18.7928   21.9028 N   0  0  0  0  0  0  0  0  0  0  0  0
    6.0336  -17.5689   23.5657 C   0  0  0  0  0  0  0  0  0  0  0  0
    6.9076  -17.3194   22.6963 O   0  0  0  0  0  0  0  0  0  0  0  0
    7.4776  -12.5906   24.7990 C   0  0  0  0  0  0  0  0  0  0  0  0
    7.5313  -13.4984   26.0483 C   0  0  1  0  0  0  0  0  0  0  0  0
    7.0964  -12.5953   27.1843 C   0  0  0  0  0  0  0  0  0  0  0  0
    6.5103  -14.5702   25.7725 C   0  0  0  0  0  0  0  0  0  0  0  0
    6.9639  -15.7124   24.9340 C   0  0  2  0  0  0  0  0  0  0  0  0
    6.0102  -16.7593   24.7258 N   0  0  0  0  0  0  0  0  0  0  0  0
    8.2519  -16.2898   25.2697 C   0  0  0  0  0  0  0  0  0  0  0  0
    8.3270  -17.0753   26.2490 O   0  0  0  0  0  0  0  0  0  0  0  0
   10.9543  -17.1622   22.3868 C   0  0  0  0  0  0  0  0  0  0  0  0
   11.6062  -16.6286   23.6243 C   0  0  1  0  0  0  0  0  0  0  0  0
   12.0638  -15.2098   23.4910 C   0  0  0  0  0  0  0  0  0  0  0  0
   10.6604  -16.8159   24.7945 C   0  0  2  0  0  0  0  0  0  0  0  0
    9.4695  -16.0491   24.5830 N   0  0  0  0  0  0  0  0  0  0  0  0
   11.3250  -16.3070   26.0256 C   0  0  0  0  0  0  0  0  0  0  0  0
   10.9405  -15.2186   26.5141 O   0  0  0  0  0  0  0  0  0  0  0  0
   12.3473  -16.9978   26.6396 O   0  0  0  0  0  0  0  0  0  0  0  0
  2  1  1  6
  3  2  1  0
  4 11  1  0
  4  2  1  0
  5  4  2  0
  7  8  1  1
  7  6  1  0
 10  9  1  1
  9  7  1  0
 10 12  1  0
 10 11  1  0
 12 18  1  0
 13 12  2  0
 15 14  1  6
 15 16  1  0
 17 15  1  0
 17 18  1  6
 19 21  1  0
 19 17  1  0
 20 19  2  0
M  END
$$$$
