ALV.pdb
     RDKit          3D

 21 20  0  0  1  0  0  0  0  0999 V2000
    7.3858  -16.9460   20.7456 C   0  0  0  0  0  0  0  0  0  0  0  0
    7.7334  -15.4707   20.7272 C   0  0  2  0  0  0  0  0  0  0  0  0
    8.8325  -15.3085   19.7922 N   0  0  0  0  0  0  0  0  0  0  0  0
    8.1399  -15.0722   22.0920 C   0  0  0  0  0  0  0  0  0  0  0  0
    9.3418  -15.2317   22.4265 O   0  0  0  0  0  0  0  0  0  0  0  0
    8.3624  -11.7227   26.3164 C   0  0  0  0  0  0  0  0  0  0  0  0
    7.2578  -12.7921   26.4710 C   0  0  1  0  0  0  0  0  0  0  0  0
    6.1457  -12.0755   27.2092 C   0  0  0  0  0  0  0  0  0  0  0  0
    6.8596  -13.1216   25.0567 C   0  0  0  0  0  0  0  0  0  0  0  0
    7.7119  -14.1124   24.3459 C   0  0  2  0  0  0  0  0  0  0  0  0
    7.2582  -14.5200   23.0510 N   0  0  0  0  0  0  0  0  0  0  0  0
    8.1189  -15.2791   25.1063 C   0  0  0  0  0  0  0  0  0  0  0  0
    7.3034  -16.2262   25.2456 O   0  0  0  0  0  0  0  0  0  0  0  0
   10.6991  -17.6696   24.3590 C   0  0  0  0  0  0  0  0  0  0  0  0
   11.0220  -17.2310   25.7535 C   0  0  1  0  0  0  0  0  0  0  0  0
   12.1681  -16.2710   25.8246 C   0  0  0  0  0  0  0  0  0  0  0  0
    9.7668  -16.6698   26.3924 C   0  0  2  0  0  0  0  0  0  0  0  0
    9.3817  -15.4621   25.7259 N   0  0  0  0  0  0  0  0  0  0  0  0
   10.0667  -16.3384   27.8124 C   0  0  0  0  0  0  0  0  0  0  0  0
   10.1430  -15.1334   28.1486 O   0  0  0  0  0  0  0  0  0  0  0  0
   10.2617  -17.3172   28.7628 O   0  0  0  0  0  0  0  0  0  0  0  0
  2  1  1  1
  3  2  1  0
  4 11  1  0
  4  2  1  0
  5  4  2  0
  7  8  1  1
  7  6  1  0
 10  9  1  1
  9  7  1  0
 10 12  1  0
 10 11  1  0
 12 18  1  0
 13 12  2  0
 15 14  1  6
 15 16  1  0
 17 15  1  0
 17 18  1  6
 19 21  1  0
 19 17  1  0
 20 19  2  0
M  END
$$$$
