LQF.pdb
     RDKit          3D

 29 29  0  0  1  0  0  0  0  0999 V2000
   26.1121  -14.9008  -15.3901 C   0  0  0  0  0  0  0  0  0  0  0  0
   25.3152  -14.8443  -16.7127 C   0  0  2  0  0  0  0  0  0  0  0  0
   24.0425  -14.0905  -16.3311 C   0  0  0  0  0  0  0  0  0  0  0  0
   25.0517  -16.2543  -17.0811 C   0  0  0  0  0  0  0  0  0  0  0  0
   26.2216  -17.1445  -17.2995 C   0  0  2  0  0  0  0  0  0  0  0  0
   26.8035  -16.6870  -18.5821 N   0  0  0  0  0  0  0  0  0  0  0  0
   25.9118  -18.5767  -17.4747 C   0  0  0  0  0  0  0  0  0  0  0  0
   25.5035  -18.9926  -18.6138 O   0  0  0  0  0  0  0  0  0  0  0  0
   29.3837  -23.0103  -15.9801 N   0  0  0  0  0  0  0  0  0  0  0  0
   28.2536  -23.8077  -16.2883 C   0  0  0  0  0  0  0  0  0  0  0  0
   28.3930  -25.0478  -16.4158 O   0  0  0  0  0  0  0  0  0  0  0  0
   26.8801  -23.2014  -16.4682 C   0  0  0  0  0  0  0  0  0  0  0  0
   26.9399  -21.7219  -16.4366 C   0  0  0  0  0  0  0  0  0  0  0  0
   25.6820  -20.9771  -16.7282 C   0  0  2  0  0  0  0  0  0  0  0  0
   26.0278  -19.5549  -16.4809 N   0  0  0  0  0  0  0  0  0  0  0  0
   24.5264  -21.3022  -15.9019 C   0  0  0  0  0  0  0  0  0  0  0  0
   24.3999  -20.7191  -14.7760 O   0  0  0  0  0  0  0  0  0  0  0  0
   23.5211  -22.2321  -16.2738 N   0  0  0  0  0  0  0  0  0  0  0  0
   22.4717  -22.5248  -15.3487 C   0  0  1  0  0  0  0  0  0  0  0  0
   22.9942  -22.8165  -13.9536 C   0  0  0  0  0  0  0  0  0  0  0  0
   21.9329  -23.1565  -13.0063 C   0  0  0  0  0  0  0  0  0  0  0  0
   21.4292  -22.2536  -12.0954 C   0  0  0  0  0  0  0  0  0  0  0  0
   20.4234  -22.5886  -11.2033 C   0  0  0  0  0  0  0  0  0  0  0  0
   19.9107  -23.8745  -11.2320 C   0  0  0  0  0  0  0  0  0  0  0  0
   20.3900  -24.7938  -12.1249 C   0  0  0  0  0  0  0  0  0  0  0  0
   21.4057  -24.4296  -13.0145 C   0  0  0  0  0  0  0  0  0  0  0  0
   21.4928  -21.4223  -15.3392 C   0  0  0  0  0  0  0  0  0  0  0  0
   21.8110  -20.1930  -15.8863 O   0  0  0  0  0  0  0  0  0  0  0  0
   20.3574  -21.5917  -14.8318 O   0  0  0  0  0  0  0  0  0  0  0  0
  2  3  1  1
  2  1  1  0
  4  2  1  0
  4  5  1  0
  5  7  1  0
  5  6  1  6
  7 15  1  0
  8  7  2  0
  9 10  1  0
 10 12  1  0
 11 10  2  0
 12 13  1  0
 14 16  1  0
 14 13  1  1
 15 14  1  0
 16 18  1  0
 17 16  2  0
 18 19  1  0
 19 27  1  0
 19 20  1  1
 21 20  1  0
 22 21  2  0
 23 22  1  0
 24 25  1  0
 24 23  2  0
 25 26  2  0
 26 21  1  0
 27 29  2  0
 27 28  1  0
M  END
$$$$
