LQF.pdb
     RDKit          3D

 29 29  0  0  1  0  0  0  0  0999 V2000
   28.8018  -16.6458  -15.9520 C   0  0  0  0  0  0  0  0  0  0  0  0
   27.2608  -16.5861  -16.0480 C   0  0  2  0  0  0  0  0  0  0  0  0
   26.9734  -15.1006  -16.2587 C   0  0  0  0  0  0  0  0  0  0  0  0
   26.7595  -17.0828  -14.7461 C   0  0  0  0  0  0  0  0  0  0  0  0
   27.1715  -18.4451  -14.3183 C   0  0  2  0  0  0  0  0  0  0  0  0
   26.9425  -19.2948  -15.5092 N   0  0  0  0  0  0  0  0  0  0  0  0
   26.3759  -19.0410  -13.2274 C   0  0  0  0  0  0  0  0  0  0  0  0
   25.3980  -18.3795  -12.7342 O   0  0  0  0  0  0  0  0  0  0  0  0
   24.6679  -24.7527  -13.2737 N   0  0  0  0  0  0  0  0  0  0  0  0
   24.1515  -23.6192  -13.9494 C   0  0  0  0  0  0  0  0  0  0  0  0
   23.4601  -23.7825  -14.9833 O   0  0  0  0  0  0  0  0  0  0  0  0
   24.4125  -22.2141  -13.4556 C   0  0  0  0  0  0  0  0  0  0  0  0
   25.2943  -22.2202  -12.2657 C   0  0  0  0  0  0  0  0  0  0  0  0
   25.6631  -20.9012  -11.6771 C   0  0  2  0  0  0  0  0  0  0  0  0
   26.5963  -20.3029  -12.6643 N   0  0  0  0  0  0  0  0  0  0  0  0
   26.3414  -20.9305  -10.3876 C   0  0  0  0  0  0  0  0  0  0  0  0
   27.6146  -20.9761  -10.3705 O   0  0  0  0  0  0  0  0  0  0  0  0
   25.6706  -20.9081   -9.1373 N   0  0  0  0  0  0  0  0  0  0  0  0
   26.4384  -21.0205   -7.9370 C   0  0  1  0  0  0  0  0  0  0  0  0
   27.5190  -19.9587   -7.8393 C   0  0  0  0  0  0  0  0  0  0  0  0
   28.1456  -19.9022   -6.5189 C   0  0  0  0  0  0  0  0  0  0  0  0
   29.0397  -20.8528   -6.0766 C   0  0  0  0  0  0  0  0  0  0  0  0
   29.6263  -20.7875   -4.8231 C   0  0  0  0  0  0  0  0  0  0  0  0
   29.3001  -19.7300   -3.9910 C   0  0  0  0  0  0  0  0  0  0  0  0
   28.4156  -18.7701   -4.4014 C   0  0  0  0  0  0  0  0  0  0  0  0
   27.8377  -18.8599   -5.6718 C   0  0  0  0  0  0  0  0  0  0  0  0
   25.5425  -20.9886   -6.7665 C   0  0  0  0  0  0  0  0  0  0  0  0
   24.2009  -20.6888   -6.9143 O   0  0  0  0  0  0  0  0  0  0  0  0
   25.9928  -21.2345   -5.6211 O   0  0  0  0  0  0  0  0  0  0  0  0
  2  3  1  1
  2  1  1  0
  4  2  1  0
  4  5  1  0
  5  7  1  0
  5  6  1  6
  7 15  1  0
  8  7  2  0
  9 10  1  0
 10 12  1  0
 11 10  2  0
 12 13  1  0
 14 16  1  0
 14 13  1  6
 15 14  1  0
 16 18  1  0
 17 16  2  0
 18 19  1  0
 19 27  1  0
 19 20  1  1
 21 20  1  0
 22 21  2  0
 23 22  1  0
 24 25  1  0
 24 23  2  0
 25 26  2  0
 26 21  1  0
 27 29  2  0
 27 28  1  0
M  END
$$$$
