LQF.pdb
     RDKit          3D

 29 29  0  0  1  0  0  0  0  0999 V2000
   29.1116  -16.8711  -16.2387 C   0  0  0  0  0  0  0  0  0  0  0  0
   27.6104  -17.1568  -16.4673 C   0  0  2  0  0  0  0  0  0  0  0  0
   27.0876  -15.8562  -17.0746 C   0  0  0  0  0  0  0  0  0  0  0  0
   27.0454  -17.4245  -15.1248 C   0  0  0  0  0  0  0  0  0  0  0  0
   27.6604  -18.5100  -14.3172 C   0  0  2  0  0  0  0  0  0  0  0  0
   27.8418  -19.6274  -15.2719 N   0  0  0  0  0  0  0  0  0  0  0  0
   26.8301  -19.0379  -13.2173 C   0  0  0  0  0  0  0  0  0  0  0  0
   26.2217  -18.2187  -12.4453 O   0  0  0  0  0  0  0  0  0  0  0  0
   24.1842  -24.6648  -13.1127 N   0  0  0  0  0  0  0  0  0  0  0  0
   23.6909  -23.5230  -13.7916 C   0  0  0  0  0  0  0  0  0  0  0  0
   22.8330  -23.6684  -14.6951 O   0  0  0  0  0  0  0  0  0  0  0  0
   24.1728  -22.1299  -13.4548 C   0  0  0  0  0  0  0  0  0  0  0  0
   25.1882  -22.1609  -12.3770 C   0  0  0  0  0  0  0  0  0  0  0  0
   25.6990  -20.8531  -11.8764 C   0  0  2  0  0  0  0  0  0  0  0  0
   26.6378  -20.3940  -12.9306 N   0  0  0  0  0  0  0  0  0  0  0  0
   26.4278  -20.8786  -10.6147 C   0  0  0  0  0  0  0  0  0  0  0  0
   27.5776  -21.4272  -10.5869 O   0  0  0  0  0  0  0  0  0  0  0  0
   25.9379  -20.3241   -9.4038 N   0  0  0  0  0  0  0  0  0  0  0  0
   26.6670  -20.5472   -8.1948 C   0  0  1  0  0  0  0  0  0  0  0  0
   27.4270  -19.3139   -7.7411 C   0  0  0  0  0  0  0  0  0  0  0  0
   28.0463  -19.4770   -6.4260 C   0  0  0  0  0  0  0  0  0  0  0  0
   27.5784  -18.8400   -5.2974 C   0  0  0  0  0  0  0  0  0  0  0  0
   28.1744  -19.0032   -4.0573 C   0  0  0  0  0  0  0  0  0  0  0  0
   29.2764  -19.8350   -3.9539 C   0  0  0  0  0  0  0  0  0  0  0  0
   29.7648  -20.4816   -5.0564 C   0  0  0  0  0  0  0  0  0  0  0  0
   29.1443  -20.2994   -6.2964 C   0  0  0  0  0  0  0  0  0  0  0  0
   25.7548  -21.0361   -7.1448 C   0  0  0  0  0  0  0  0  0  0  0  0
   26.2241  -21.8396   -6.1221 O   0  0  0  0  0  0  0  0  0  0  0  0
   24.5390  -20.7254   -7.1710 O   0  0  0  0  0  0  0  0  0  0  0  0
  2  3  1  1
  2  1  1  0
  4  2  1  0
  4  5  1  0
  5  7  1  0
  5  6  1  6
  7 15  1  0
  8  7  2  0
  9 10  1  0
 10 12  1  0
 11 10  2  0
 12 13  1  0
 14 16  1  0
 14 13  1  6
 15 14  1  0
 16 18  1  0
 17 16  2  0
 18 19  1  0
 19 27  1  0
 19 20  1  1
 21 20  1  0
 22 21  2  0
 23 22  1  0
 24 25  1  0
 24 23  2  0
 25 26  2  0
 26 21  1  0
 27 29  2  0
 27 28  1  0
M  END
$$$$
