LQF.pdb
     RDKit          3D

 29 29  0  0  1  0  0  0  0  0999 V2000
   22.7545  -14.3887  -22.4444 C   0  0  0  0  0  0  0  0  0  0  0  0
   21.4574  -14.6261  -23.2499 C   0  0  2  0  0  0  0  0  0  0  0  0
   21.7385  -13.9455  -24.5883 C   0  0  0  0  0  0  0  0  0  0  0  0
   20.3828  -13.9531  -22.4847 C   0  0  0  0  0  0  0  0  0  0  0  0
   20.0860  -14.4549  -21.1177 C   0  0  2  0  0  0  0  0  0  0  0  0
   19.5730  -15.8280  -21.3281 N   0  0  0  0  0  0  0  0  0  0  0  0
   19.0312  -13.7283  -20.3846 C   0  0  0  0  0  0  0  0  0  0  0  0
   17.8077  -14.0595  -20.5594 O   0  0  0  0  0  0  0  0  0  0  0  0
   16.3459  -14.1137  -15.6094 N   0  0  0  0  0  0  0  0  0  0  0  0
   15.5304  -13.8940  -16.7472 C   0  0  0  0  0  0  0  0  0  0  0  0
   14.3094  -14.1762  -16.6917 O   0  0  0  0  0  0  0  0  0  0  0  0
   16.0947  -13.3268  -18.0302 C   0  0  0  0  0  0  0  0  0  0  0  0
   17.5501  -13.0792  -17.9112 C   0  0  0  0  0  0  0  0  0  0  0  0
   18.1371  -12.0090  -18.7670 C   0  0  2  0  0  0  0  0  0  0  0  0
   19.2501  -12.6784  -19.4858 N   0  0  0  0  0  0  0  0  0  0  0  0
   18.6894  -10.8515  -18.0748 C   0  0  0  0  0  0  0  0  0  0  0  0
   19.8444  -10.9525  -17.5462 O   0  0  0  0  0  0  0  0  0  0  0  0
   18.0204   -9.6062  -17.9525 N   0  0  0  0  0  0  0  0  0  0  0  0
   18.6817   -8.5266  -17.2891 C   0  0  1  0  0  0  0  0  0  0  0  0
   19.9987   -8.1609  -17.9497 C   0  0  0  0  0  0  0  0  0  0  0  0
   19.8252   -7.5359  -19.2607 C   0  0  0  0  0  0  0  0  0  0  0  0
   19.9293   -8.2387  -20.4414 C   0  0  0  0  0  0  0  0  0  0  0  0
   19.7627   -7.6344  -21.6769 C   0  0  0  0  0  0  0  0  0  0  0  0
   19.4824   -6.2792  -21.7216 C   0  0  0  0  0  0  0  0  0  0  0  0
   19.3728   -5.5539  -20.5666 C   0  0  0  0  0  0  0  0  0  0  0  0
   19.5456   -6.1885  -19.3324 C   0  0  0  0  0  0  0  0  0  0  0  0
   17.7787   -7.3643  -17.2048 C   0  0  0  0  0  0  0  0  0  0  0  0
   18.1498   -6.2335  -16.5010 O   0  0  0  0  0  0  0  0  0  0  0  0
   16.6604   -7.3921  -17.7740 O   0  0  0  0  0  0  0  0  0  0  0  0
  2  3  1  6
  2  1  1  0
  4  2  1  0
  4  5  1  0
  5  7  1  0
  5  6  1  6
  7 15  1  0
  8  7  2  0
  9 10  1  0
 10 12  1  0
 11 10  2  0
 12 13  1  0
 14 16  1  0
 14 13  1  1
 15 14  1  0
 16 18  1  0
 17 16  2  0
 18 19  1  0
 19 27  1  0
 19 20  1  6
 21 20  1  0
 22 21  2  0
 23 22  1  0
 24 25  1  0
 24 23  2  0
 25 26  2  0
 26 21  1  0
 27 29  2  0
 27 28  1  0
M  END
$$$$
