LQF.pdb
     RDKit          3D

 29 29  0  0  1  0  0  0  0  0999 V2000
   29.4009  -17.3248  -16.7400 C   0  0  0  0  0  0  0  0  0  0  0  0
   27.8613  -17.1974  -16.7075 C   0  0  2  0  0  0  0  0  0  0  0  0
   27.6033  -15.8245  -17.3257 C   0  0  0  0  0  0  0  0  0  0  0  0
   27.4855  -17.2559  -15.2762 C   0  0  0  0  0  0  0  0  0  0  0  0
   27.8491  -18.4781  -14.5129 C   0  0  2  0  0  0  0  0  0  0  0  0
   27.6566  -19.5884  -15.4737 N   0  0  0  0  0  0  0  0  0  0  0  0
   26.9926  -18.7852  -13.3510 C   0  0  0  0  0  0  0  0  0  0  0  0
   26.7206  -17.8573  -12.5129 O   0  0  0  0  0  0  0  0  0  0  0  0
   22.0045  -20.2259  -12.8343 N   0  0  0  0  0  0  0  0  0  0  0  0
   22.1885  -21.1596  -11.7844 C   0  0  0  0  0  0  0  0  0  0  0  0
   21.2242  -21.4345  -11.0306 O   0  0  0  0  0  0  0  0  0  0  0  0
   23.5203  -21.8354  -11.5480 C   0  0  0  0  0  0  0  0  0  0  0  0
   24.5533  -21.3217  -12.4767 C   0  0  0  0  0  0  0  0  0  0  0  0
   25.4403  -20.2304  -11.9822 C   0  0  2  0  0  0  0  0  0  0  0  0
   26.4301  -20.0355  -13.0711 N   0  0  0  0  0  0  0  0  0  0  0  0
   26.1789  -20.4976  -10.7546 C   0  0  0  0  0  0  0  0  0  0  0  0
   27.1679  -21.2996  -10.8018 O   0  0  0  0  0  0  0  0  0  0  0  0
   25.8680  -19.9151   -9.4986 N   0  0  0  0  0  0  0  0  0  0  0  0
   26.6413  -20.2825   -8.3541 C   0  0  1  0  0  0  0  0  0  0  0  0
   27.3966  -19.1055   -7.7634 C   0  0  0  0  0  0  0  0  0  0  0  0
   28.0720  -19.4331   -6.5081 C   0  0  0  0  0  0  0  0  0  0  0  0
   27.6088  -19.0127   -5.2804 C   0  0  0  0  0  0  0  0  0  0  0  0
   28.2584  -19.3300   -4.0985 C   0  0  0  0  0  0  0  0  0  0  0  0
   29.4108  -20.0951   -4.1582 C   0  0  0  0  0  0  0  0  0  0  0  0
   29.8960  -20.5277   -5.3622 C   0  0  0  0  0  0  0  0  0  0  0  0
   29.2209  -20.1933   -6.5404 C   0  0  0  0  0  0  0  0  0  0  0  0
   25.7733  -20.9257   -7.3507 C   0  0  0  0  0  0  0  0  0  0  0  0
   26.3133  -21.7301   -6.3643 O   0  0  0  0  0  0  0  0  0  0  0  0
   24.5314  -20.7473   -7.3843 O   0  0  0  0  0  0  0  0  0  0  0  0
  2  3  1  1
  2  1  1  0
  4  2  1  0
  4  5  1  0
  5  7  1  0
  5  6  1  6
  7 15  1  0
  8  7  2  0
  9 10  1  0
 10 12  1  0
 11 10  2  0
 12 13  1  0
 14 16  1  0
 14 13  1  6
 15 14  1  0
 16 18  1  0
 17 16  2  0
 18 19  1  0
 19 27  1  0
 19 20  1  1
 21 20  1  0
 22 21  2  0
 23 22  1  0
 24 25  1  0
 24 23  2  0
 25 26  2  0
 26 21  1  0
 27 29  2  0
 27 28  1  0
M  END
$$$$
