LQF.pdb
     RDKit          3D

 29 29  0  0  1  0  0  0  0  0999 V2000
   30.5811  -20.5005  -19.1909 C   0  0  0  0  0  0  0  0  0  0  0  0
   30.0801  -19.0417  -19.2816 C   0  0  2  0  0  0  0  0  0  0  0  0
   31.3661  -18.2309  -19.4318 C   0  0  0  0  0  0  0  0  0  0  0  0
   29.3875  -18.7764  -17.9997 C   0  0  0  0  0  0  0  0  0  0  0  0
   28.2045  -19.6113  -17.6647 C   0  0  2  0  0  0  0  0  0  0  0  0
   27.2165  -19.2988  -18.7225 N   0  0  0  0  0  0  0  0  0  0  0  0
   27.5460  -19.3017  -16.3808 C   0  0  0  0  0  0  0  0  0  0  0  0
   28.0910  -18.4597  -15.5863 O   0  0  0  0  0  0  0  0  0  0  0  0
   22.0282  -17.6349  -16.2313 N   0  0  0  0  0  0  0  0  0  0  0  0
   23.2039  -16.8480  -16.3104 C   0  0  0  0  0  0  0  0  0  0  0  0
   23.1415  -15.6986  -16.8092 O   0  0  0  0  0  0  0  0  0  0  0  0
   24.5356  -17.3585  -15.8082 C   0  0  0  0  0  0  0  0  0  0  0  0
   24.4066  -18.7195  -15.2386 C   0  0  0  0  0  0  0  0  0  0  0  0
   25.6451  -19.3680  -14.7212 C   0  0  2  0  0  0  0  0  0  0  0  0
   26.3417  -19.8589  -15.9366 N   0  0  0  0  0  0  0  0  0  0  0  0
   25.4604  -20.5040  -13.8271 C   0  0  0  0  0  0  0  0  0  0  0  0
   25.2951  -21.6597  -14.3377 O   0  0  0  0  0  0  0  0  0  0  0  0
   25.4558  -20.4072  -12.4114 N   0  0  0  0  0  0  0  0  0  0  0  0
   24.9026  -21.4797  -11.6455 C   0  0  1  0  0  0  0  0  0  0  0  0
   25.9264  -22.1250  -10.7290 C   0  0  0  0  0  0  0  0  0  0  0  0
   26.6158  -21.1591   -9.8739 C   0  0  0  0  0  0  0  0  0  0  0  0
   27.9529  -20.8582  -10.0164 C   0  0  0  0  0  0  0  0  0  0  0  0
   28.5940  -19.9410   -9.1995 C   0  0  0  0  0  0  0  0  0  0  0  0
   27.8625  -19.3084   -8.2086 C   0  0  0  0  0  0  0  0  0  0  0  0
   26.5331  -19.5857   -8.0420 C   0  0  0  0  0  0  0  0  0  0  0  0
   25.9102  -20.5158   -8.8803 C   0  0  0  0  0  0  0  0  0  0  0  0
   23.7289  -21.0015  -10.8922 C   0  0  0  0  0  0  0  0  0  0  0  0
   23.4169  -19.6550  -10.8544 O   0  0  0  0  0  0  0  0  0  0  0  0
   23.0001  -21.8167  -10.2762 O   0  0  0  0  0  0  0  0  0  0  0  0
  2  3  1  1
  2  1  1  0
  4  2  1  0
  4  5  1  0
  5  7  1  0
  5  6  1  6
  7 15  1  0
  8  7  2  0
  9 10  1  0
 10 12  1  0
 11 10  2  0
 12 13  1  0
 14 16  1  0
 14 13  1  6
 15 14  1  0
 16 18  1  0
 17 16  2  0
 18 19  1  0
 19 27  1  0
 19 20  1  1
 21 20  1  0
 22 21  2  0
 23 22  1  0
 24 25  1  0
 24 23  2  0
 25 26  2  0
 26 21  1  0
 27 29  2  0
 27 28  1  0
M  END
$$$$
