LQF.pdb
     RDKit          3D

 29 29  0  0  1  0  0  0  0  0999 V2000
   37.3750  -30.4477  -20.5787 C   0  0  0  0  0  0  0  0  0  0  0  0
   36.4170  -29.3176  -21.0175 C   0  0  2  0  0  0  0  0  0  0  0  0
   37.2514  -28.0510  -20.8353 C   0  0  0  0  0  0  0  0  0  0  0  0
   35.2694  -29.3813  -20.0836 C   0  0  0  0  0  0  0  0  0  0  0  0
   34.4044  -30.5890  -20.1289 C   0  0  2  0  0  0  0  0  0  0  0  0
   33.7727  -30.5447  -21.4676 N   0  0  0  0  0  0  0  0  0  0  0  0
   33.2986  -30.6209  -19.1520 C   0  0  0  0  0  0  0  0  0  0  0  0
   33.5650  -30.5289  -17.9039 O   0  0  0  0  0  0  0  0  0  0  0  0
   27.4626  -29.2173  -20.4576 N   0  0  0  0  0  0  0  0  0  0  0  0
   27.2859  -29.6233  -19.1116 C   0  0  0  0  0  0  0  0  0  0  0  0
   26.1600  -29.4945  -18.5737 O   0  0  0  0  0  0  0  0  0  0  0  0
   28.4220  -30.2095  -18.3041 C   0  0  0  0  0  0  0  0  0  0  0  0
   29.6703  -30.2659  -19.0992 C   0  0  0  0  0  0  0  0  0  0  0  0
   30.8870  -30.8083  -18.4303 C   0  0  2  0  0  0  0  0  0  0  0  0
   31.9421  -30.7446  -19.4725 N   0  0  0  0  0  0  0  0  0  0  0  0
   30.8119  -32.1855  -17.9594 C   0  0  0  0  0  0  0  0  0  0  0  0
   31.2529  -33.1119  -18.7150 O   0  0  0  0  0  0  0  0  0  0  0  0
   30.2779  -32.5659  -16.7010 N   0  0  0  0  0  0  0  0  0  0  0  0
   30.3350  -33.9398  -16.3110 C   0  0  1  0  0  0  0  0  0  0  0  0
   30.0419  -34.1351  -14.8343 C   0  0  0  0  0  0  0  0  0  0  0  0
   28.6345  -33.9204  -14.4987 C   0  0  0  0  0  0  0  0  0  0  0  0
   27.7356  -34.9550  -14.3565 C   0  0  0  0  0  0  0  0  0  0  0  0
   26.4048  -34.7378  -14.0383 C   0  0  0  0  0  0  0  0  0  0  0  0
   25.9684  -33.4361  -13.8582 C   0  0  0  0  0  0  0  0  0  0  0  0
   26.8368  -32.3873  -13.9925 C   0  0  0  0  0  0  0  0  0  0  0  0
   28.1751  -32.6344  -14.3143 C   0  0  0  0  0  0  0  0  0  0  0  0
   29.4231  -34.7360  -17.1525 C   0  0  0  0  0  0  0  0  0  0  0  0
   29.4862  -36.1172  -17.1481 O   0  0  0  0  0  0  0  0  0  0  0  0
   28.5784  -34.1636  -17.8832 O   0  0  0  0  0  0  0  0  0  0  0  0
  2  3  1  1
  2  1  1  0
  4  2  1  0
  4  5  1  0
  5  7  1  0
  5  6  1  6
  7 15  1  0
  8  7  2  0
  9 10  1  0
 10 12  1  0
 11 10  2  0
 12 13  1  0
 14 16  1  0
 14 13  1  6
 15 14  1  0
 16 18  1  0
 17 16  2  0
 18 19  1  0
 19 27  1  0
 19 20  1  1
 21 20  1  0
 22 21  2  0
 23 22  1  0
 24 25  1  0
 24 23  2  0
 25 26  2  0
 26 21  1  0
 27 29  2  0
 27 28  1  0
M  END
$$$$
