LQF.pdb
     RDKit          3D

 29 29  0  0  1  0  0  0  0  0999 V2000
   29.0318  -25.3462  -17.7624 C   0  0  0  0  0  0  0  0  0  0  0  0
   29.7129  -23.9988  -17.4338 C   0  0  2  0  0  0  0  0  0  0  0  0
   30.2650  -24.2117  -16.0254 C   0  0  0  0  0  0  0  0  0  0  0  0
   28.6340  -22.9851  -17.4740 C   0  0  0  0  0  0  0  0  0  0  0  0
   27.9603  -22.7406  -18.7759 C   0  0  2  0  0  0  0  0  0  0  0  0
   28.9805  -22.0529  -19.6000 N   0  0  0  0  0  0  0  0  0  0  0  0
   26.7910  -21.8412  -18.7321 C   0  0  0  0  0  0  0  0  0  0  0  0
   26.9703  -20.5940  -18.5098 O   0  0  0  0  0  0  0  0  0  0  0  0
   23.0040  -22.9956  -23.1438 N   0  0  0  0  0  0  0  0  0  0  0  0
   22.9365  -21.7170  -22.5367 C   0  0  0  0  0  0  0  0  0  0  0  0
   22.0241  -20.9245  -22.8731 O   0  0  0  0  0  0  0  0  0  0  0  0
   23.9380  -21.2814  -21.4911 C   0  0  0  0  0  0  0  0  0  0  0  0
   23.5199  -21.7124  -20.1372 C   0  0  0  0  0  0  0  0  0  0  0  0
   24.3483  -21.2568  -18.9847 C   0  0  2  0  0  0  0  0  0  0  0  0
   25.4616  -22.2364  -18.9185 N   0  0  0  0  0  0  0  0  0  0  0  0
   23.6964  -21.2382  -17.6814 C   0  0  0  0  0  0  0  0  0  0  0  0
   23.6053  -22.3301  -17.0309 O   0  0  0  0  0  0  0  0  0  0  0  0
   23.1543  -20.0721  -17.0817 N   0  0  0  0  0  0  0  0  0  0  0  0
   22.5911  -20.1647  -15.7713 C   0  0  1  0  0  0  0  0  0  0  0  0
   23.0516  -19.0395  -14.8622 C   0  0  0  0  0  0  0  0  0  0  0  0
   22.7097  -17.7139  -15.3771 C   0  0  0  0  0  0  0  0  0  0  0  0
   21.5581  -17.0484  -15.0172 C   0  0  0  0  0  0  0  0  0  0  0  0
   21.2461  -15.7926  -15.5124 C   0  0  0  0  0  0  0  0  0  0  0  0
   22.1238  -15.1905  -16.3979 C   0  0  0  0  0  0  0  0  0  0  0  0
   23.2757  -15.8257  -16.7745 C   0  0  0  0  0  0  0  0  0  0  0  0
   23.5667  -17.0930  -16.2597 C   0  0  0  0  0  0  0  0  0  0  0  0
   21.1205  -20.2177  -15.8626 C   0  0  0  0  0  0  0  0  0  0  0  0
   20.3587  -20.5687  -14.7634 O   0  0  0  0  0  0  0  0  0  0  0  0
   20.5457  -19.9434  -16.9441 O   0  0  0  0  0  0  0  0  0  0  0  0
  2  3  1  1
  2  1  1  0
  4  2  1  0
  4  5  1  0
  5  7  1  0
  5  6  1  6
  7 15  1  0
  8  7  2  0
  9 10  1  0
 10 12  1  0
 11 10  2  0
 12 13  1  0
 14 16  1  0
 14 13  1  6
 15 14  1  0
 16 18  1  0
 17 16  2  0
 18 19  1  0
 19 27  1  0
 19 20  1  1
 21 20  1  0
 22 21  2  0
 23 22  1  0
 24 25  1  0
 24 23  2  0
 25 26  2  0
 26 21  1  0
 27 29  2  0
 27 28  1  0
M  END
$$$$
