LQF.pdb
     RDKit          3D

 29 29  0  0  1  0  0  0  0  0999 V2000
   28.2038  -16.7936  -16.8717 C   0  0  0  0  0  0  0  0  0  0  0  0
   26.7432  -16.9661  -16.3982 C   0  0  2  0  0  0  0  0  0  0  0  0
   25.9694  -15.9654  -17.2546 C   0  0  0  0  0  0  0  0  0  0  0  0
   26.7431  -16.6046  -14.9620 C   0  0  0  0  0  0  0  0  0  0  0  0
   27.4342  -17.5195  -14.0165 C   0  0  2  0  0  0  0  0  0  0  0  0
   28.3754  -18.2883  -14.8626 N   0  0  0  0  0  0  0  0  0  0  0  0
   26.5750  -18.5148  -13.3462 C   0  0  0  0  0  0  0  0  0  0  0  0
   25.4729  -18.1346  -12.8190 O   0  0  0  0  0  0  0  0  0  0  0  0
   23.6586  -22.8383  -14.5506 N   0  0  0  0  0  0  0  0  0  0  0  0
   24.0644  -23.5716  -13.4080 C   0  0  0  0  0  0  0  0  0  0  0  0
   23.3345  -24.4985  -12.9818 O   0  0  0  0  0  0  0  0  0  0  0  0
   25.3576  -23.2654  -12.6869 C   0  0  0  0  0  0  0  0  0  0  0  0
   26.0259  -22.0780  -13.2674 C   0  0  0  0  0  0  0  0  0  0  0  0
   25.9779  -20.8108  -12.4838 C   0  0  2  0  0  0  0  0  0  0  0  0
   26.8605  -19.8798  -13.2305 N   0  0  0  0  0  0  0  0  0  0  0  0
   26.4626  -20.8756  -11.1109 C   0  0  0  0  0  0  0  0  0  0  0  0
   27.7199  -20.9280  -10.9112 O   0  0  0  0  0  0  0  0  0  0  0  0
   25.6181  -20.8808   -9.9705 N   0  0  0  0  0  0  0  0  0  0  0  0
   26.2082  -20.9708   -8.6719 C   0  0  1  0  0  0  0  0  0  0  0  0
   27.2424  -19.8862   -8.4293 C   0  0  0  0  0  0  0  0  0  0  0  0
   27.7856  -19.9092   -7.0715 C   0  0  0  0  0  0  0  0  0  0  0  0
   28.6210  -20.9074   -6.6194 C   0  0  0  0  0  0  0  0  0  0  0  0
   29.1288  -20.9173   -5.3304 C   0  0  0  0  0  0  0  0  0  0  0  0
   28.7824  -19.8879   -4.4717 C   0  0  0  0  0  0  0  0  0  0  0  0
   27.9548  -18.8822   -4.8909 C   0  0  0  0  0  0  0  0  0  0  0  0
   27.4561  -18.8962   -6.1974 C   0  0  0  0  0  0  0  0  0  0  0  0
   25.1535  -20.9515   -7.6418 C   0  0  0  0  0  0  0  0  0  0  0  0
   25.3712  -21.5192   -6.4001 O   0  0  0  0  0  0  0  0  0  0  0  0
   24.0443  -20.4170   -7.8852 O   0  0  0  0  0  0  0  0  0  0  0  0
  2  3  1  6
  2  1  1  0
  4  2  1  0
  4  5  1  0
  5  7  1  0
  5  6  1  6
  7 15  1  0
  8  7  2  0
  9 10  1  0
 10 12  1  0
 11 10  2  0
 12 13  1  0
 14 16  1  0
 14 13  1  6
 15 14  1  0
 16 18  1  0
 17 16  2  0
 18 19  1  0
 19 27  1  0
 19 20  1  1
 21 20  1  0
 22 21  2  0
 23 22  1  0
 24 25  1  0
 24 23  2  0
 25 26  2  0
 26 21  1  0
 27 29  2  0
 27 28  1  0
M  END
$$$$
