LQF.pdb
     RDKit          3D

 29 29  0  0  1  0  0  0  0  0999 V2000
   29.7712  -19.2895  -19.6717 C   0  0  0  0  0  0  0  0  0  0  0  0
   28.3202  -18.8982  -20.0313 C   0  0  2  0  0  0  0  0  0  0  0  0
   28.4070  -17.3933  -20.2788 C   0  0  0  0  0  0  0  0  0  0  0  0
   27.5088  -19.2321  -18.8382 C   0  0  0  0  0  0  0  0  0  0  0  0
   27.5819  -20.6217  -18.3163 C   0  0  2  0  0  0  0  0  0  0  0  0
   27.2181  -21.4732  -19.4719 N   0  0  0  0  0  0  0  0  0  0  0  0
   26.6252  -20.9529  -17.2425 C   0  0  0  0  0  0  0  0  0  0  0  0
   25.3878  -20.6672  -17.3984 O   0  0  0  0  0  0  0  0  0  0  0  0
   23.6930  -24.7714  -16.1994 N   0  0  0  0  0  0  0  0  0  0  0  0
   23.8256  -24.7538  -14.7887 C   0  0  0  0  0  0  0  0  0  0  0  0
   22.9147  -25.2452  -14.0799 O   0  0  0  0  0  0  0  0  0  0  0  0
   25.0395  -24.1567  -14.1132 C   0  0  0  0  0  0  0  0  0  0  0  0
   25.9023  -23.4519  -15.0890 C   0  0  0  0  0  0  0  0  0  0  0  0
   25.9224  -21.9622  -15.0382 C   0  0  2  0  0  0  0  0  0  0  0  0
   26.9542  -21.5715  -16.0312 N   0  0  0  0  0  0  0  0  0  0  0  0
   26.2850  -21.3592  -13.7619 C   0  0  0  0  0  0  0  0  0  0  0  0
   27.4904  -21.4607  -13.3615 O   0  0  0  0  0  0  0  0  0  0  0  0
   25.3758  -20.6566  -12.9293 N   0  0  0  0  0  0  0  0  0  0  0  0
   25.8403  -20.1331  -11.6831 C   0  0  1  0  0  0  0  0  0  0  0  0
   24.8503  -19.1686  -11.0551 C   0  0  0  0  0  0  0  0  0  0  0  0
   23.5664  -19.7940  -10.7394 C   0  0  0  0  0  0  0  0  0  0  0  0
   23.2072  -20.1540   -9.4588 C   0  0  0  0  0  0  0  0  0  0  0  0
   21.9874  -20.7458   -9.1733 C   0  0  0  0  0  0  0  0  0  0  0  0
   21.1035  -20.9813  -10.2127 C   0  0  0  0  0  0  0  0  0  0  0  0
   21.4311  -20.6352  -11.4953 C   0  0  0  0  0  0  0  0  0  0  0  0
   22.6690  -20.0390  -11.7561 C   0  0  0  0  0  0  0  0  0  0  0  0
   26.1695  -21.2411  -10.7678 C   0  0  0  0  0  0  0  0  0  0  0  0
   26.8460  -21.0013   -9.5861 O   0  0  0  0  0  0  0  0  0  0  0  0
   25.8368  -22.4166  -11.0556 O   0  0  0  0  0  0  0  0  0  0  0  0
  2  3  1  1
  2  1  1  0
  4  2  1  0
  4  5  1  0
  5  7  1  0
  5  6  1  6
  7 15  1  0
  8  7  2  0
  9 10  1  0
 10 12  1  0
 11 10  2  0
 12 13  1  0
 14 16  1  0
 14 13  1  1
 15 14  1  0
 16 18  1  0
 17 16  2  0
 18 19  1  0
 19 27  1  0
 19 20  1  1
 21 20  1  0
 22 21  2  0
 23 22  1  0
 24 25  1  0
 24 23  2  0
 25 26  2  0
 26 21  1  0
 27 29  2  0
 27 28  1  0
M  END
$$$$
