LQF.pdb
     RDKit          3D

 29 29  0  0  1  0  0  0  0  0999 V2000
   28.8661  -17.2871  -16.1282 C   0  0  0  0  0  0  0  0  0  0  0  0
   27.8165  -17.8610  -17.1062 C   0  0  2  0  0  0  0  0  0  0  0  0
   27.1040  -16.6177  -17.6355 C   0  0  0  0  0  0  0  0  0  0  0  0
   26.9304  -18.7171  -16.2844 C   0  0  0  0  0  0  0  0  0  0  0  0
   27.5371  -19.8895  -15.6016 C   0  0  2  0  0  0  0  0  0  0  0  0
   28.0125  -20.7573  -16.7033 N   0  0  0  0  0  0  0  0  0  0  0  0
   26.6112  -20.7120  -14.7989 C   0  0  0  0  0  0  0  0  0  0  0  0
   25.9633  -21.6579  -15.3671 O   0  0  0  0  0  0  0  0  0  0  0  0
   25.0484  -21.1920   -8.8431 N   0  0  0  0  0  0  0  0  0  0  0  0
   26.1186  -20.3943   -9.3189 C   0  0  0  0  0  0  0  0  0  0  0  0
   26.5834  -19.4891   -8.5854 O   0  0  0  0  0  0  0  0  0  0  0  0
   26.7168  -20.6061  -10.6913 C   0  0  0  0  0  0  0  0  0  0  0  0
   26.0323  -21.7057  -11.4096 C   0  0  0  0  0  0  0  0  0  0  0  0
   25.3698  -21.3739  -12.7031 C   0  0  2  0  0  0  0  0  0  0  0  0
   26.3684  -20.5508  -13.4303 N   0  0  0  0  0  0  0  0  0  0  0  0
   24.1348  -20.6042  -12.6234 C   0  0  0  0  0  0  0  0  0  0  0  0
   24.2115  -19.3520  -12.4000 O   0  0  0  0  0  0  0  0  0  0  0  0
   22.8400  -21.1623  -12.7833 N   0  0  0  0  0  0  0  0  0  0  0  0
   21.7078  -20.2904  -12.8070 C   0  0  1  0  0  0  0  0  0  0  0  0
   21.8458  -19.1903  -13.8441 C   0  0  0  0  0  0  0  0  0  0  0  0
   21.9754  -19.7044  -15.2073 C   0  0  0  0  0  0  0  0  0  0  0  0
   23.1829  -19.7699  -15.8679 C   0  0  0  0  0  0  0  0  0  0  0  0
   23.2918  -20.2592  -17.1595 C   0  0  0  0  0  0  0  0  0  0  0  0
   22.1465  -20.6956  -17.8036 C   0  0  0  0  0  0  0  0  0  0  0  0
   20.9327  -20.6434  -17.1744 C   0  0  0  0  0  0  0  0  0  0  0  0
   20.8506  -20.1449  -15.8703 C   0  0  0  0  0  0  0  0  0  0  0  0
   20.4772  -21.0757  -13.0132 C   0  0  0  0  0  0  0  0  0  0  0  0
   19.2350  -20.4751  -12.9238 O   0  0  0  0  0  0  0  0  0  0  0  0
   20.5476  -22.3016  -13.2727 O   0  0  0  0  0  0  0  0  0  0  0  0
  2  3  1  1
  2  1  1  0
  4  2  1  0
  4  5  1  0
  5  7  1  0
  5  6  1  6
  7 15  1  0
  8  7  2  0
  9 10  1  0
 10 12  1  0
 11 10  2  0
 12 13  1  0
 14 16  1  0
 14 13  1  1
 15 14  1  0
 16 18  1  0
 17 16  2  0
 18 19  1  0
 19 27  1  0
 19 20  1  6
 21 20  1  0
 22 21  2  0
 23 22  1  0
 24 25  1  0
 24 23  2  0
 25 26  2  0
 26 21  1  0
 27 29  2  0
 27 28  1  0
M  END
$$$$
