PYS.pdb
     RDKit          3D

 26 27  0  0  1  0  0  0  0  0999 V2000
   21.8395  -12.0361  -18.2178 N   0  0  0  0  0  0  0  0  0  0  0  0
   22.7251  -12.8963  -18.9815 C   0  0  0  0  0  0  0  0  0  0  0  0
   23.0656  -12.1547  -20.2507 C   0  0  0  0  0  0  0  0  0  0  0  0
   22.3928  -10.7973  -20.0757 C   0  0  0  0  0  0  0  0  0  0  0  0
   22.2963  -10.7097  -18.5704 C   0  0  1  0  0  0  0  0  0  0  0  0
   21.3743   -9.6559  -18.1178 C   0  0  0  0  0  0  0  0  0  0  0  0
   20.2257   -9.5620  -18.6632 O   0  0  0  0  0  0  0  0  0  0  0  0
   16.8047  -12.5443  -15.0685 O   0  0  0  0  0  0  0  0  0  0  0  0
   17.6848  -11.4594  -15.0814 C   0  0  0  0  0  0  0  0  0  0  0  0
   17.2687  -10.2465  -15.5690 C   0  0  0  0  0  0  0  0  0  0  0  0
   18.1162   -9.1345  -15.6007 C   0  0  0  0  0  0  0  0  0  0  0  0
   19.3980   -9.2128  -15.1445 C   0  0  0  0  0  0  0  0  0  0  0  0
   20.3475   -8.0740  -15.1324 C   0  0  0  0  0  0  0  0  0  0  0  0
   20.8602   -7.7466  -16.5359 C   0  0  2  0  0  0  0  0  0  0  0  0
   21.7313   -8.7419  -17.0899 N   0  0  0  0  0  0  0  0  0  0  0  0
   21.3787   -6.3650  -16.6315 C   0  0  0  0  0  0  0  0  0  0  0  0
   22.5382   -6.0574  -16.1880 O   0  0  0  0  0  0  0  0  0  0  0  0
   19.7995  -10.4641  -14.6512 C   0  0  0  0  0  0  0  0  0  0  0  0
   18.9730  -11.5573  -14.6181 C   0  0  0  0  0  0  0  0  0  0  0  0
   20.8035   -1.9449  -18.5386 O   0  0  0  0  0  0  0  0  0  0  0  0
   20.3317   -3.2395  -18.3673 C   0  0  0  0  0  0  0  0  0  0  0  0
   21.1920   -3.9471  -17.3102 C   0  0  2  0  0  0  0  0  0  0  0  0
   20.6523   -5.2966  -17.2073 N   0  0  0  0  0  0  0  0  0  0  0  0
   21.0251   -3.1995  -16.0588 C   0  0  0  0  0  0  0  0  0  0  0  0
   21.8534   -2.1579  -15.7468 O   0  0  0  0  0  0  0  0  0  0  0  0
   20.1117   -3.5196  -15.2652 O   0  0  0  0  0  0  0  0  0  0  0  0
  1  2  1  0
  2  3  1  0
  4  3  1  0
  5  4  1  0
  5  1  1  0
  6 15  1  0
  5  6  1  6
  7  6  2  0
  9 10  2  0
  9  8  1  0
 11 10  1  0
 12 11  2  0
 13 12  1  0
 14 13  1  1
 14 15  1  0
 16 14  1  0
 16 17  2  0
 18 12  1  0
 18 19  2  0
 19  9  1  0
 20 21  1  0
 22 23  1  0
 22 21  1  6
 23 16  1  0
 24 22  1  0
 25 24  1  0
 26 24  2  0
M  END
$$$$
