PYS.pdb
     RDKit          3D

 26 27  0  0  1  0  0  0  0  0999 V2000
   24.9687  -11.7522  -16.4784 N   0  0  0  0  0  0  0  0  0  0  0  0
   25.7339  -12.9309  -16.8421 C   0  0  0  0  0  0  0  0  0  0  0  0
   24.9437  -13.6527  -17.9058 C   0  0  0  0  0  0  0  0  0  0  0  0
   23.7552  -12.7339  -18.1684 C   0  0  0  0  0  0  0  0  0  0  0  0
   24.3086  -11.4023  -17.7170 C   0  0  1  0  0  0  0  0  0  0  0  0
   23.2635  -10.3830  -17.5317 C   0  0  0  0  0  0  0  0  0  0  0  0
   22.5600  -10.0283  -18.5341 O   0  0  0  0  0  0  0  0  0  0  0  0
   17.9741  -13.8093  -17.1287 O   0  0  0  0  0  0  0  0  0  0  0  0
   18.7015  -12.7389  -16.6025 C   0  0  0  0  0  0  0  0  0  0  0  0
   18.5481  -11.4820  -17.1305 C   0  0  0  0  0  0  0  0  0  0  0  0
   19.2560  -10.3825  -16.6346 C   0  0  0  0  0  0  0  0  0  0  0  0
   20.1321  -10.5176  -15.5996 C   0  0  0  0  0  0  0  0  0  0  0  0
   20.9047   -9.3967  -15.0122 C   0  0  0  0  0  0  0  0  0  0  0  0
   21.9585   -8.8623  -15.9837 C   0  0  2  0  0  0  0  0  0  0  0  0
   23.0190   -9.7853  -16.2659 N   0  0  0  0  0  0  0  0  0  0  0  0
   22.4166   -7.5048  -15.6174 C   0  0  0  0  0  0  0  0  0  0  0  0
   23.4047   -7.3274  -14.8249 O   0  0  0  0  0  0  0  0  0  0  0  0
   20.2713  -11.8131  -15.0773 C   0  0  0  0  0  0  0  0  0  0  0  0
   19.5802  -12.8943  -15.5596 C   0  0  0  0  0  0  0  0  0  0  0  0
   20.2103   -4.3623  -16.6530 O   0  0  0  0  0  0  0  0  0  0  0  0
   21.5572   -4.0300  -16.7090 C   0  0  0  0  0  0  0  0  0  0  0  0
   22.3459   -4.9950  -15.8118 C   0  0  2  0  0  0  0  0  0  0  0  0
   21.8142   -6.3202  -16.1018 N   0  0  0  0  0  0  0  0  0  0  0  0
   22.0811   -4.5960  -14.4249 C   0  0  0  0  0  0  0  0  0  0  0  0
   22.5831   -3.4285  -13.9217 O   0  0  0  0  0  0  0  0  0  0  0  0
   21.3858   -5.3346  -13.6918 O   0  0  0  0  0  0  0  0  0  0  0  0
  1  2  1  0
  2  3  1  0
  4  3  1  0
  5  4  1  0
  5  1  1  0
  6 15  1  0
  5  6  1  1
  7  6  2  0
  9 10  2  0
  9  8  1  0
 11 10  1  0
 12 11  2  0
 13 12  1  0
 14 13  1  1
 14 15  1  0
 16 14  1  0
 16 17  2  0
 18 12  1  0
 18 19  2  0
 19  9  1  0
 20 21  1  0
 22 23  1  0
 22 21  1  6
 23 16  1  0
 24 22  1  0
 25 24  1  0
 26 24  2  0
M  END
$$$$
