PYS.pdb
     RDKit          3D

 26 27  0  0  1  0  0  0  0  0999 V2000
   28.2175  -20.8612  -17.2863 N   0  0  0  0  0  0  0  0  0  0  0  0
   29.2948  -21.0271  -18.2451 C   0  0  0  0  0  0  0  0  0  0  0  0
   30.1131  -22.2071  -17.7815 C   0  0  0  0  0  0  0  0  0  0  0  0
   29.3488  -22.7322  -16.5708 C   0  0  0  0  0  0  0  0  0  0  0  0
   27.9572  -22.2176  -16.8568 C   0  0  1  0  0  0  0  0  0  0  0  0
   27.0735  -22.2783  -15.6817 C   0  0  0  0  0  0  0  0  0  0  0  0
   26.5996  -23.4056  -15.3210 O   0  0  0  0  0  0  0  0  0  0  0  0
   23.1210  -20.8356   -8.0101 O   0  0  0  0  0  0  0  0  0  0  0  0
   23.9198  -20.6826   -9.1459 C   0  0  0  0  0  0  0  0  0  0  0  0
   25.1879  -21.2055   -9.1662 C   0  0  0  0  0  0  0  0  0  0  0  0
   26.0213  -21.0758  -10.2818 C   0  0  0  0  0  0  0  0  0  0  0  0
   25.6028  -20.4203  -11.4009 C   0  0  0  0  0  0  0  0  0  0  0  0
   26.4236  -20.2569  -12.6248 C   0  0  0  0  0  0  0  0  0  0  0  0
   25.8837  -21.0924  -13.7869 C   0  0  2  0  0  0  0  0  0  0  0  0
   26.7355  -21.1140  -14.9402 N   0  0  0  0  0  0  0  0  0  0  0  0
   24.4680  -20.7851  -14.0836 C   0  0  0  0  0  0  0  0  0  0  0  0
   24.1258  -19.6732  -14.6148 O   0  0  0  0  0  0  0  0  0  0  0  0
   24.3021  -19.8944  -11.3551 C   0  0  0  0  0  0  0  0  0  0  0  0
   23.4813  -20.0185  -10.2642 C   0  0  0  0  0  0  0  0  0  0  0  0
   20.0652  -22.5956  -14.8327 O   0  0  0  0  0  0  0  0  0  0  0  0
   21.3802  -22.7760  -14.4254 C   0  0  0  0  0  0  0  0  0  0  0  0
   22.0295  -21.4003  -14.2151 C   0  0  2  0  0  0  0  0  0  0  0  0
   23.4022  -21.6742  -13.8107 N   0  0  0  0  0  0  0  0  0  0  0  0
   21.2731  -20.7335  -13.1493 C   0  0  0  0  0  0  0  0  0  0  0  0
   21.5184  -21.0119  -11.8338 O   0  0  0  0  0  0  0  0  0  0  0  0
   20.3906  -19.8978  -13.4482 O   0  0  0  0  0  0  0  0  0  0  0  0
  1  2  1  0
  2  3  1  0
  4  3  1  0
  5  4  1  0
  5  1  1  0
  6 15  1  0
  5  6  1  1
  7  6  2  0
  9 10  2  0
  9  8  1  0
 11 10  1  0
 12 11  2  0
 13 12  1  0
 14 13  1  1
 14 15  1  0
 16 14  1  0
 16 17  2  0
 18 12  1  0
 18 19  2  0
 19  9  1  0
 20 21  1  0
 22 23  1  0
 22 21  1  1
 23 16  1  0
 24 22  1  0
 25 24  1  0
 26 24  2  0
M  END
$$$$
