PYS.pdb
     RDKit          3D

 26 27  0  0  1  0  0  0  0  0999 V2000
   27.7149  -20.7063  -17.5915 N   0  0  0  0  0  0  0  0  0  0  0  0
   28.7606  -20.7703  -18.5963 C   0  0  0  0  0  0  0  0  0  0  0  0
   29.7802  -21.7666  -18.1017 C   0  0  0  0  0  0  0  0  0  0  0  0
   29.1668  -22.3142  -16.8174 C   0  0  0  0  0  0  0  0  0  0  0  0
   27.6985  -22.0507  -17.0580 C   0  0  1  0  0  0  0  0  0  0  0  0
   26.8902  -22.1627  -15.8335 C   0  0  0  0  0  0  0  0  0  0  0  0
   26.7414  -23.3075  -15.2924 O   0  0  0  0  0  0  0  0  0  0  0  0
   23.0840  -20.6980   -8.0995 O   0  0  0  0  0  0  0  0  0  0  0  0
   23.7770  -20.5240   -9.3000 C   0  0  0  0  0  0  0  0  0  0  0  0
   25.0578  -20.9989   -9.4258 C   0  0  0  0  0  0  0  0  0  0  0  0
   25.7879  -20.8467  -10.6089 C   0  0  0  0  0  0  0  0  0  0  0  0
   25.2512  -20.2164  -11.6913 C   0  0  0  0  0  0  0  0  0  0  0  0
   25.9582  -20.0319  -12.9815 C   0  0  0  0  0  0  0  0  0  0  0  0
   25.5051  -21.0508  -14.0286 C   0  0  2  0  0  0  0  0  0  0  0  0
   26.2724  -21.0289  -15.2398 N   0  0  0  0  0  0  0  0  0  0  0  0
   24.0414  -21.0227  -14.2367 C   0  0  0  0  0  0  0  0  0  0  0  0
   23.4791  -20.0710  -14.8799 O   0  0  0  0  0  0  0  0  0  0  0  0
   23.9400  -19.7394  -11.5374 C   0  0  0  0  0  0  0  0  0  0  0  0
   23.2201  -19.8857  -10.3800 C   0  0  0  0  0  0  0  0  0  0  0  0
   19.8457  -23.4377  -13.7991 O   0  0  0  0  0  0  0  0  0  0  0  0
   21.2261  -23.4047  -13.6537 C   0  0  0  0  0  0  0  0  0  0  0  0
   21.7310  -21.9994  -14.0124 C   0  0  2  0  0  0  0  0  0  0  0  0
   23.1646  -22.0218  -13.7531 N   0  0  0  0  0  0  0  0  0  0  0  0
   21.0343  -21.0601  -13.1264 C   0  0  0  0  0  0  0  0  0  0  0  0
   19.9712  -20.3277  -13.5754 O   0  0  0  0  0  0  0  0  0  0  0  0
   21.4184  -20.9270  -11.9426 O   0  0  0  0  0  0  0  0  0  0  0  0
  1  2  1  0
  2  3  1  0
  4  3  1  0
  5  4  1  0
  5  1  1  0
  6 15  1  0
  5  6  1  1
  7  6  2  0
  9 10  2  0
  9  8  1  0
 11 10  1  0
 12 11  2  0
 13 12  1  0
 14 13  1  1
 14 15  1  0
 16 14  1  0
 16 17  2  0
 18 12  1  0
 18 19  2  0
 19  9  1  0
 20 21  1  0
 22 23  1  0
 22 21  1  1
 23 16  1  0
 24 22  1  0
 25 24  1  0
 26 24  2  0
M  END
$$$$
