PYS.pdb
     RDKit          3D

 26 27  0  0  1  0  0  0  0  0999 V2000
   26.9873  -18.7785  -17.6230 N   0  0  0  0  0  0  0  0  0  0  0  0
   27.9812  -18.1412  -18.4676 C   0  0  0  0  0  0  0  0  0  0  0  0
   29.3034  -18.2598  -17.7503 C   0  0  0  0  0  0  0  0  0  0  0  0
   28.9788  -19.0935  -16.5154 C   0  0  0  0  0  0  0  0  0  0  0  0
   27.7414  -19.8289  -16.9750 C   0  0  1  0  0  0  0  0  0  0  0  0
   27.0028  -20.4525  -15.8655 C   0  0  0  0  0  0  0  0  0  0  0  0
   27.5418  -21.4155  -15.2268 O   0  0  0  0  0  0  0  0  0  0  0  0
   22.8045  -21.4893   -8.3654 O   0  0  0  0  0  0  0  0  0  0  0  0
   23.4305  -21.0050   -9.5165 C   0  0  0  0  0  0  0  0  0  0  0  0
   24.7101  -21.3984   -9.8166 C   0  0  0  0  0  0  0  0  0  0  0  0
   25.3744  -20.9384  -10.9581 C   0  0  0  0  0  0  0  0  0  0  0  0
   24.7719  -20.0753  -11.8237 C   0  0  0  0  0  0  0  0  0  0  0  0
   25.4070  -19.5582  -13.0597 C   0  0  0  0  0  0  0  0  0  0  0  0
   25.0249  -20.3896  -14.2856 C   0  0  2  0  0  0  0  0  0  0  0  0
   25.7063  -20.0093  -15.4886 N   0  0  0  0  0  0  0  0  0  0  0  0
   23.5597  -20.5227  -14.4340 C   0  0  0  0  0  0  0  0  0  0  0  0
   22.8300  -19.5225  -14.7548 O   0  0  0  0  0  0  0  0  0  0  0  0
   23.4635  -19.6878  -11.4944 C   0  0  0  0  0  0  0  0  0  0  0  0
   22.8079  -20.1354  -10.3767 C   0  0  0  0  0  0  0  0  0  0  0  0
   21.6377  -23.8955  -15.6694 O   0  0  0  0  0  0  0  0  0  0  0  0
   21.1427  -23.3695  -14.4837 C   0  0  0  0  0  0  0  0  0  0  0  0
   21.4262  -21.8605  -14.4519 C   0  0  2  0  0  0  0  0  0  0  0  0
   22.8622  -21.7375  -14.2380 N   0  0  0  0  0  0  0  0  0  0  0  0
   20.6613  -21.3094  -13.3276 C   0  0  0  0  0  0  0  0  0  0  0  0
   19.2959  -21.2591  -13.3643 O   0  0  0  0  0  0  0  0  0  0  0  0
   21.2670  -20.8791  -12.3204 O   0  0  0  0  0  0  0  0  0  0  0  0
  1  2  1  0
  2  3  1  0
  4  3  1  0
  5  4  1  0
  5  1  1  0
  6 15  1  0
  5  6  1  1
  7  6  2  0
  9 10  2  0
  9  8  1  0
 11 10  1  0
 12 11  2  0
 13 12  1  0
 14 13  1  1
 14 15  1  0
 16 14  1  0
 16 17  2  0
 18 12  1  0
 18 19  2  0
 19  9  1  0
 20 21  1  0
 22 23  1  0
 22 21  1  1
 23 16  1  0
 24 22  1  0
 25 24  1  0
 26 24  2  0
M  END
$$$$
