PYS.pdb
     RDKit          3D

 26 27  0  0  1  0  0  0  0  0999 V2000
   27.3737  -20.6310  -16.1535 N   0  0  0  0  0  0  0  0  0  0  0  0
   28.1288  -20.3252  -17.3550 C   0  0  0  0  0  0  0  0  0  0  0  0
   28.3216  -18.8289  -17.3798 C   0  0  0  0  0  0  0  0  0  0  0  0
   27.7144  -18.3577  -16.0626 C   0  0  0  0  0  0  0  0  0  0  0  0
   27.8168  -19.6125  -15.2270 C   0  0  1  0  0  0  0  0  0  0  0  0
   26.9905  -19.5573  -14.0106 C   0  0  0  0  0  0  0  0  0  0  0  0
   26.6690  -18.4203  -13.5315 O   0  0  0  0  0  0  0  0  0  0  0  0
   21.0578  -18.8103  -16.1187 O   0  0  0  0  0  0  0  0  0  0  0  0
   21.8675  -19.4604  -15.1840 C   0  0  0  0  0  0  0  0  0  0  0  0
   22.6409  -20.5250  -15.5718 C   0  0  0  0  0  0  0  0  0  0  0  0
   23.4657  -21.2045  -14.6696 C   0  0  0  0  0  0  0  0  0  0  0  0
   23.5343  -20.8324  -13.3604 C   0  0  0  0  0  0  0  0  0  0  0  0
   24.3960  -21.4944  -12.3517 C   0  0  0  0  0  0  0  0  0  0  0  0
   25.7294  -20.7653  -12.1769 C   0  0  2  0  0  0  0  0  0  0  0  0
   26.5426  -20.7373  -13.3576 N   0  0  0  0  0  0  0  0  0  0  0  0
   26.4450  -21.1971  -10.9570 C   0  0  0  0  0  0  0  0  0  0  0  0
   26.7931  -22.4159  -10.7863 O   0  0  0  0  0  0  0  0  0  0  0  0
   22.7335  -19.7410  -12.9888 C   0  0  0  0  0  0  0  0  0  0  0  0
   21.9231  -19.0717  -13.8689 C   0  0  0  0  0  0  0  0  0  0  0  0
   26.9610  -19.6784   -6.3638 O   0  0  0  0  0  0  0  0  0  0  0  0
   26.9551  -19.3805   -7.7199 C   0  0  0  0  0  0  0  0  0  0  0  0
   26.5513  -20.6377   -8.5040 C   0  0  2  0  0  0  0  0  0  0  0  0
   26.7945  -20.3189   -9.9047 N   0  0  0  0  0  0  0  0  0  0  0  0
   25.1260  -20.8628   -8.2386 C   0  0  0  0  0  0  0  0  0  0  0  0
   24.7202  -21.7901   -7.3200 O   0  0  0  0  0  0  0  0  0  0  0  0
   24.2690  -20.1967   -8.8618 O   0  0  0  0  0  0  0  0  0  0  0  0
  1  2  1  0
  2  3  1  0
  4  3  1  0
  5  4  1  0
  5  1  1  0
  6 15  1  0
  5  6  1  1
  7  6  2  0
  9 10  2  0
  9  8  1  0
 11 10  1  0
 12 11  2  0
 13 12  1  0
 14 13  1  6
 14 15  1  0
 16 14  1  0
 16 17  2  0
 18 12  1  0
 18 19  2  0
 19  9  1  0
 20 21  1  0
 22 23  1  0
 22 21  1  1
 23 16  1  0
 24 22  1  0
 25 24  1  0
 26 24  2  0
M  END
$$$$
