PYS.pdb
     RDKit          3D

 26 27  0  0  1  0  0  0  0  0999 V2000
   22.1454  -10.1482  -18.4452 N   0  0  0  0  0  0  0  0  0  0  0  0
   22.1592  -11.5531  -18.8106 C   0  0  0  0  0  0  0  0  0  0  0  0
   20.9642  -12.1888  -18.1437 C   0  0  0  0  0  0  0  0  0  0  0  0
   20.2459  -11.0177  -17.4818 C   0  0  0  0  0  0  0  0  0  0  0  0
   20.7330   -9.8613  -18.3235 C   0  0  1  0  0  0  0  0  0  0  0  0
   20.4738   -8.5532  -17.7011 C   0  0  0  0  0  0  0  0  0  0  0  0
   19.2681   -8.1930  -17.4962 O   0  0  0  0  0  0  0  0  0  0  0  0
   18.8450   -9.1975  -11.3611 O   0  0  0  0  0  0  0  0  0  0  0  0
   19.6238   -8.5302  -12.3097 C   0  0  0  0  0  0  0  0  0  0  0  0
   19.1628   -7.3711  -12.8806 C   0  0  0  0  0  0  0  0  0  0  0  0
   19.9092   -6.6710  -13.8338 C   0  0  0  0  0  0  0  0  0  0  0  0
   21.1330   -7.1159  -14.2355 C   0  0  0  0  0  0  0  0  0  0  0  0
   21.9865   -6.4197  -15.2281 C   0  0  0  0  0  0  0  0  0  0  0  0
   21.3656   -6.4411  -16.6259 C   0  0  2  0  0  0  0  0  0  0  0  0
   21.5319   -7.6830  -17.3234 N   0  0  0  0  0  0  0  0  0  0  0  0
   21.7323   -5.2468  -17.4170 C   0  0  0  0  0  0  0  0  0  0  0  0
   22.8849   -5.1369  -17.9603 O   0  0  0  0  0  0  0  0  0  0  0  0
   21.5820   -8.3037  -13.6371 C   0  0  0  0  0  0  0  0  0  0  0  0
   20.8544   -8.9940  -12.7025 C   0  0  0  0  0  0  0  0  0  0  0  0
   20.2068   -1.2280  -19.6381 O   0  0  0  0  0  0  0  0  0  0  0  0
   19.9272   -2.2939  -18.7935 C   0  0  0  0  0  0  0  0  0  0  0  0
   21.2443   -2.9854  -18.4117 C   0  0  2  0  0  0  0  0  0  0  0  0
   20.8595   -4.1547  -17.6322 N   0  0  0  0  0  0  0  0  0  0  0  0
   22.0091   -2.0254  -17.6078 C   0  0  0  0  0  0  0  0  0  0  0  0
   22.9962   -1.2662  -18.1712 O   0  0  0  0  0  0  0  0  0  0  0  0
   21.7546   -1.8994  -16.3889 O   0  0  0  0  0  0  0  0  0  0  0  0
  1  2  1  0
  2  3  1  0
  4  3  1  0
  5  4  1  0
  5  1  1  0
  6 15  1  0
  5  6  1  1
  7  6  2  0
  9 10  2  0
  9  8  1  0
 11 10  1  0
 12 11  2  0
 13 12  1  0
 14 13  1  1
 14 15  1  0
 16 14  1  0
 16 17  2  0
 18 12  1  0
 18 19  2  0
 19  9  1  0
 20 21  1  0
 22 23  1  0
 22 21  1  1
 23 16  1  0
 24 22  1  0
 25 24  1  0
 26 24  2  0
M  END
$$$$
