PYS.pdb
     RDKit          3D

 26 27  0  0  1  0  0  0  0  0999 V2000
   26.7976  -17.6492  -17.3077 N   0  0  0  0  0  0  0  0  0  0  0  0
   27.4960  -16.9162  -18.3480 C   0  0  0  0  0  0  0  0  0  0  0  0
   28.9627  -17.2376  -18.1983 C   0  0  0  0  0  0  0  0  0  0  0  0
   29.0003  -18.2723  -17.0787 C   0  0  0  0  0  0  0  0  0  0  0  0
   27.6029  -18.8414  -17.1582 C   0  0  1  0  0  0  0  0  0  0  0  0
   27.2368  -19.6247  -15.9674 C   0  0  0  0  0  0  0  0  0  0  0  0
   27.7726  -20.7679  -15.7895 O   0  0  0  0  0  0  0  0  0  0  0  0
   23.9403  -22.0778   -8.1519 O   0  0  0  0  0  0  0  0  0  0  0  0
   24.4915  -21.3708   -9.2234 C   0  0  0  0  0  0  0  0  0  0  0  0
   25.8101  -21.5511   -9.5563 C   0  0  0  0  0  0  0  0  0  0  0  0
   26.4024  -20.8642  -10.6208 C   0  0  0  0  0  0  0  0  0  0  0  0
   25.6873  -19.9827  -11.3750 C   0  0  0  0  0  0  0  0  0  0  0  0
   26.2428  -19.2313  -12.5262 C   0  0  0  0  0  0  0  0  0  0  0  0
   25.8514  -19.8665  -13.8616 C   0  0  2  0  0  0  0  0  0  0  0  0
   26.3028  -19.1398  -15.0124 N   0  0  0  0  0  0  0  0  0  0  0  0
   24.4214  -20.2410  -13.9027 C   0  0  0  0  0  0  0  0  0  0  0  0
   23.8954  -20.9600  -12.9851 O   0  0  0  0  0  0  0  0  0  0  0  0
   24.3411  -19.8158  -11.0142 C   0  0  0  0  0  0  0  0  0  0  0  0
   23.7556  -20.4862   -9.9717 C   0  0  0  0  0  0  0  0  0  0  0  0
   20.0340  -19.0491  -15.2618 O   0  0  0  0  0  0  0  0  0  0  0  0
   21.4053  -18.8319  -15.2509 C   0  0  0  0  0  0  0  0  0  0  0  0
   22.1154  -20.1504  -14.9108 C   0  0  2  0  0  0  0  0  0  0  0  0
   23.5397  -19.8442  -14.9352 N   0  0  0  0  0  0  0  0  0  0  0  0
   21.7493  -21.1110  -15.9576 C   0  0  0  0  0  0  0  0  0  0  0  0
   20.5007  -21.6658  -15.9965 O   0  0  0  0  0  0  0  0  0  0  0  0
   22.5916  -21.4274  -16.8276 O   0  0  0  0  0  0  0  0  0  0  0  0
  1  2  1  0
  2  3  1  0
  4  3  1  0
  5  4  1  0
  5  1  1  0
  6 15  1  0
  5  6  1  1
  7  6  2  0
  9 10  2  0
  9  8  1  0
 11 10  1  0
 12 11  2  0
 13 12  1  0
 14 13  1  1
 14 15  1  0
 16 14  1  0
 16 17  2  0
 18 12  1  0
 18 19  2  0
 19  9  1  0
 20 21  1  0
 22 23  1  0
 22 21  1  6
 23 16  1  0
 24 22  1  0
 25 24  1  0
 26 24  2  0
M  END
$$$$
