PYS.pdb
     RDKit          3D

 26 27  0  0  1  0  0  0  0  0999 V2000
   28.5462  -23.3499  -16.6844 N   0  0  0  0  0  0  0  0  0  0  0  0
   29.2661  -23.9751  -17.7789 C   0  0  0  0  0  0  0  0  0  0  0  0
   29.4736  -22.9111  -18.8285 C   0  0  0  0  0  0  0  0  0  0  0  0
   28.9132  -21.6464  -18.1864 C   0  0  0  0  0  0  0  0  0  0  0  0
   29.0288  -21.9868  -16.7187 C   0  0  1  0  0  0  0  0  0  0  0  0
   28.2419  -21.0871  -15.8603 C   0  0  0  0  0  0  0  0  0  0  0  0
   28.4977  -19.8381  -15.8736 O   0  0  0  0  0  0  0  0  0  0  0  0
   20.1834  -18.1490  -14.5114 O   0  0  0  0  0  0  0  0  0  0  0  0
   21.3819  -18.7725  -14.8670 C   0  0  0  0  0  0  0  0  0  0  0  0
   22.4038  -18.0334  -15.4069 C   0  0  0  0  0  0  0  0  0  0  0  0
   23.6199  -18.6166  -15.7769 C   0  0  0  0  0  0  0  0  0  0  0  0
   23.8392  -19.9516  -15.6139 C   0  0  0  0  0  0  0  0  0  0  0  0
   25.1061  -20.6358  -15.9680 C   0  0  0  0  0  0  0  0  0  0  0  0
   25.9811  -20.8838  -14.7381 C   0  0  2  0  0  0  0  0  0  0  0  0
   27.2060  -21.5745  -15.0184 N   0  0  0  0  0  0  0  0  0  0  0  0
   25.2098  -21.4492  -13.6103 C   0  0  0  0  0  0  0  0  0  0  0  0
   24.6778  -22.6100  -13.6838 O   0  0  0  0  0  0  0  0  0  0  0  0
   22.7786  -20.6856  -15.0600 C   0  0  0  0  0  0  0  0  0  0  0  0
   21.5845  -20.1192  -14.6958 C   0  0  0  0  0  0  0  0  0  0  0  0
   25.1332  -19.5122  -10.0233 O   0  0  0  0  0  0  0  0  0  0  0  0
   25.0856  -20.8997  -10.0093 C   0  0  0  0  0  0  0  0  0  0  0  0
   24.3262  -21.3845  -11.2529 C   0  0  2  0  0  0  0  0  0  0  0  0
   25.0022  -20.7691  -12.3875 N   0  0  0  0  0  0  0  0  0  0  0  0
   22.9457  -20.9059  -11.1195 C   0  0  0  0  0  0  0  0  0  0  0  0
   22.1040  -21.4406  -10.1846 O   0  0  0  0  0  0  0  0  0  0  0  0
   22.5322  -19.9953  -11.8720 O   0  0  0  0  0  0  0  0  0  0  0  0
  1  2  1  0
  2  3  1  0
  4  3  1  0
  5  4  1  0
  5  1  1  0
  6 15  1  0
  5  6  1  1
  7  6  2  0
  9 10  2  0
  9  8  1  0
 11 10  1  0
 12 11  2  0
 13 12  1  0
 14 13  1  6
 14 15  1  0
 16 14  1  0
 16 17  2  0
 18 12  1  0
 18 19  2  0
 19  9  1  0
 20 21  1  0
 22 23  1  0
 22 21  1  1
 23 16  1  0
 24 22  1  0
 25 24  1  0
 26 24  2  0
M  END
$$$$
