PYS.pdb
     RDKit          3D

 26 27  0  0  1  0  0  0  0  0999 V2000
   22.7072  -21.7519  -14.2806 N   0  0  0  0  0  0  0  0  0  0  0  0
   21.4781  -22.3594  -13.8034 C   0  0  0  0  0  0  0  0  0  0  0  0
   20.9553  -21.4753  -12.6980 C   0  0  0  0  0  0  0  0  0  0  0  0
   21.9234  -20.2971  -12.6801 C   0  0  0  0  0  0  0  0  0  0  0  0
   22.4625  -20.3390  -14.0910 C   0  0  1  0  0  0  0  0  0  0  0  0
   23.6779  -19.5272  -14.2620 C   0  0  0  0  0  0  0  0  0  0  0  0
   23.6195  -18.2719  -14.0466 O   0  0  0  0  0  0  0  0  0  0  0  0
   25.3339  -20.5026   -8.4183 O   0  0  0  0  0  0  0  0  0  0  0  0
   25.7940  -20.3838   -9.7320 C   0  0  0  0  0  0  0  0  0  0  0  0
   26.0962  -19.1467  -10.2420 C   0  0  0  0  0  0  0  0  0  0  0  0
   26.5596  -18.9819  -11.5512 C   0  0  0  0  0  0  0  0  0  0  0  0
   26.7308  -20.0519  -12.3775 C   0  0  0  0  0  0  0  0  0  0  0  0
   27.2319  -19.9559  -13.7697 C   0  0  0  0  0  0  0  0  0  0  0  0
   26.1654  -19.4105  -14.7212 C   0  0  2  0  0  0  0  0  0  0  0  0
   24.9130  -20.1062  -14.6604 N   0  0  0  0  0  0  0  0  0  0  0  0
   26.6871  -19.2180  -16.0914 C   0  0  0  0  0  0  0  0  0  0  0  0
   26.7815  -20.1956  -16.9107 O   0  0  0  0  0  0  0  0  0  0  0  0
   26.4145  -21.3063  -11.8325 C   0  0  0  0  0  0  0  0  0  0  0  0
   25.9598  -21.4734  -10.5501 C   0  0  0  0  0  0  0  0  0  0  0  0
   28.4843  -15.8029  -17.0717 O   0  0  0  0  0  0  0  0  0  0  0  0
   27.7349  -16.2659  -18.1449 C   0  0  0  0  0  0  0  0  0  0  0  0
   27.5152  -17.7773  -17.9836 C   0  0  2  0  0  0  0  0  0  0  0  0
   27.1139  -17.9674  -16.5959 N   0  0  0  0  0  0  0  0  0  0  0  0
   28.8002  -18.4250  -18.2700 C   0  0  0  0  0  0  0  0  0  0  0  0
   29.5190  -19.0295  -17.2770 O   0  0  0  0  0  0  0  0  0  0  0  0
   29.2449  -18.4244  -19.4400 O   0  0  0  0  0  0  0  0  0  0  0  0
  1  2  1  0
  2  3  1  0
  4  3  1  0
  5  4  1  0
  5  1  1  0
  6 15  1  0
  5  6  1  1
  7  6  2  0
  9 10  2  0
  9  8  1  0
 11 10  1  0
 12 11  2  0
 13 12  1  0
 14 13  1  1
 14 15  1  0
 16 14  1  0
 16 17  2  0
 18 12  1  0
 18 19  2  0
 19  9  1  0
 20 21  1  0
 22 23  1  0
 22 21  1  1
 23 16  1  0
 24 22  1  0
 25 24  1  0
 26 24  2  0
M  END
$$$$
