PYS.pdb
     RDKit          3D

 26 27  0  0  1  0  0  0  0  0999 V2000
   27.4493  -13.2007  -17.8382 N   0  0  0  0  0  0  0  0  0  0  0  0
   28.4286  -13.9050  -18.6458 C   0  0  0  0  0  0  0  0  0  0  0  0
   27.6600  -14.8448  -19.5418 C   0  0  0  0  0  0  0  0  0  0  0  0
   26.1990  -14.5275  -19.2413 C   0  0  0  0  0  0  0  0  0  0  0  0
   26.3071  -13.1129  -18.7213 C   0  0  1  0  0  0  0  0  0  0  0  0
   25.0893  -12.6653  -18.0269 C   0  0  0  0  0  0  0  0  0  0  0  0
   23.9803  -12.6713  -18.6559 O   0  0  0  0  0  0  0  0  0  0  0  0
   22.8411  -18.1317  -15.5564 O   0  0  0  0  0  0  0  0  0  0  0  0
   23.0595  -16.7717  -15.3231 C   0  0  0  0  0  0  0  0  0  0  0  0
   24.2615  -16.3492  -14.8145 C   0  0  0  0  0  0  0  0  0  0  0  0
   24.5228  -14.9980  -14.5657 C   0  0  0  0  0  0  0  0  0  0  0  0
   23.5868  -14.0411  -14.8212 C   0  0  0  0  0  0  0  0  0  0  0  0
   23.7977  -12.5906  -14.5976 C   0  0  0  0  0  0  0  0  0  0  0  0
   23.9689  -11.8316  -15.9146 C   0  0  2  0  0  0  0  0  0  0  0  0
   25.1182  -12.2272  -16.6754 N   0  0  0  0  0  0  0  0  0  0  0  0
   23.8320  -10.3699  -15.7373 C   0  0  0  0  0  0  0  0  0  0  0  0
   24.8153   -9.6525  -15.3445 O   0  0  0  0  0  0  0  0  0  0  0  0
   22.3657  -14.4988  -15.3407 C   0  0  0  0  0  0  0  0  0  0  0  0
   22.1043  -15.8220  -15.5862 C   0  0  0  0  0  0  0  0  0  0  0  0
   22.5143   -7.8477  -18.1549 O   0  0  0  0  0  0  0  0  0  0  0  0
   21.7282   -7.7160  -17.0181 C   0  0  0  0  0  0  0  0  0  0  0  0
   22.5208   -8.2209  -15.8035 C   0  0  2  0  0  0  0  0  0  0  0  0
   22.6316   -9.6627  -15.9817 N   0  0  0  0  0  0  0  0  0  0  0  0
   21.7339   -7.8805  -14.6129 C   0  0  0  0  0  0  0  0  0  0  0  0
   21.5986   -6.5821  -14.2077 O   0  0  0  0  0  0  0  0  0  0  0  0
   21.1783   -8.7914  -13.9585 O   0  0  0  0  0  0  0  0  0  0  0  0
  1  2  1  0
  2  3  1  0
  4  3  1  0
  5  4  1  0
  5  1  1  0
  6 15  1  0
  5  6  1  1
  7  6  2  0
  9 10  2  0
  9  8  1  0
 11 10  1  0
 12 11  2  0
 13 12  1  0
 14 13  1  1
 14 15  1  0
 16 14  1  0
 16 17  2  0
 18 12  1  0
 18 19  2  0
 19  9  1  0
 20 21  1  0
 22 23  1  0
 22 21  1  6
 23 16  1  0
 24 22  1  0
 25 24  1  0
 26 24  2  0
M  END
$$$$
