PYS.pdb
     RDKit          3D

 26 27  0  0  1  0  0  0  0  0999 V2000
   25.8260  -19.5407  -13.0705 N   0  0  0  0  0  0  0  0  0  0  0  0
   26.1172  -19.3933  -14.4850 C   0  0  0  0  0  0  0  0  0  0  0  0
   27.4219  -20.1076  -14.7383 C   0  0  0  0  0  0  0  0  0  0  0  0
   27.7629  -20.7394  -13.3928 C   0  0  0  0  0  0  0  0  0  0  0  0
   26.3951  -20.8332  -12.7578 C   0  0  1  0  0  0  0  0  0  0  0  0
   26.4542  -21.0891  -11.3099 C   0  0  0  0  0  0  0  0  0  0  0  0
   26.7778  -22.2520  -10.8993 O   0  0  0  0  0  0  0  0  0  0  0  0
   29.2347  -19.9826   -3.1637 O   0  0  0  0  0  0  0  0  0  0  0  0
   28.7646  -19.7499   -4.4585 C   0  0  0  0  0  0  0  0  0  0  0  0
   27.7693  -18.8299   -4.6701 C   0  0  0  0  0  0  0  0  0  0  0  0
   27.2691  -18.5657   -5.9492 C   0  0  0  0  0  0  0  0  0  0  0  0
   27.7550  -19.2163   -7.0435 C   0  0  0  0  0  0  0  0  0  0  0  0
   27.2855  -18.9778   -8.4295 C   0  0  0  0  0  0  0  0  0  0  0  0
   26.4566  -20.1496   -8.9584 C   0  0  2  0  0  0  0  0  0  0  0  0
   26.1603  -20.0744  -10.3593 N   0  0  0  0  0  0  0  0  0  0  0  0
   25.2832  -20.4327   -8.1041 C   0  0  0  0  0  0  0  0  0  0  0  0
   24.2104  -19.7428   -8.1976 O   0  0  0  0  0  0  0  0  0  0  0  0
   28.7723  -20.1526   -6.8006 C   0  0  0  0  0  0  0  0  0  0  0  0
   29.2660  -20.4156   -5.5491 C   0  0  0  0  0  0  0  0  0  0  0  0
   24.2487  -24.1048   -6.6084 O   0  0  0  0  0  0  0  0  0  0  0  0
   24.3494  -23.0993   -5.6563 C   0  0  0  0  0  0  0  0  0  0  0  0
   24.0729  -21.7469   -6.3293 C   0  0  2  0  0  0  0  0  0  0  0  0
   25.2522  -21.4645   -7.1370 N   0  0  0  0  0  0  0  0  0  0  0  0
   23.9051  -20.7644   -5.2526 C   0  0  0  0  0  0  0  0  0  0  0  0
   22.8219  -20.8121   -4.4204 O   0  0  0  0  0  0  0  0  0  0  0  0
   24.7657  -19.8696   -5.0933 O   0  0  0  0  0  0  0  0  0  0  0  0
  1  2  1  0
  2  3  1  0
  4  3  1  0
  5  4  1  0
  5  1  1  0
  6 15  1  0
  5  6  1  1
  7  6  2  0
  9 10  2  0
  9  8  1  0
 11 10  1  0
 12 11  2  0
 13 12  1  0
 14 13  1  1
 14 15  1  0
 16 14  1  0
 16 17  2  0
 18 12  1  0
 18 19  2  0
 19  9  1  0
 20 21  1  0
 22 23  1  0
 22 21  1  1
 23 16  1  0
 24 22  1  0
 25 24  1  0
 26 24  2  0
M  END
$$$$
